0:0
     RDKit          3D

 54 55  0  0  0  0  0  0  0  0999 V2000
   63.4100   32.7120   47.6690 C   0  0  0  0  0  0  0  0  0  0  0  0
   62.4250   31.5540   47.5220 C   0  0  0  0  0  0  0  0  0  0  0  0
   61.3730   31.5950   48.5650 N   0  0  0  0  0  0  0  0  0  0  0  0
   61.2740   30.3530   49.3700 C   0  0  0  0  0  0  0  0  0  0  0  0
   59.8830   30.0980   49.9690 C   0  0  0  0  0  0  0  0  0  0  0  0
   61.4870   32.8070   49.4090 C   0  0  0  0  0  0  0  0  0  0  0  0
   60.0870   33.3660   49.7160 C   0  0  0  0  0  0  0  0  0  0  0  0
   59.6880   34.4200   48.7680 N   0  0  0  0  0  0  0  0  0  0  0  0
   60.6250   34.5530   47.6420 C   0  0  0  0  0  0  0  0  0  0  0  0
   59.8610   34.8640   46.3520 C   0  0  0  0  0  0  0  0  0  0  0  0
   59.0170   33.6890   45.9390 C   0  0  0  0  0  0  0  0  0  0  0  0
   57.6710   33.8740   45.5970 C   0  0  0  0  0  0  0  0  0  0  0  0
   56.8780   32.7810   45.2450 C   0  0  0  0  0  0  0  0  0  0  0  0
   57.4090   31.4860   45.2230 C   0  0  0  0  0  0  0  0  0  0  0  0
   56.5670   30.4540   44.7790 O   0  0  0  0  0  0  0  0  0  0  0  0
   56.4960   29.9910   43.4330 C   0  0  0  0  0  0  0  0  0  0  0  0
   58.7530   31.2810   45.6300 C   0  0  0  0  0  0  0  0  0  0  0  0
   59.3260   29.9350   45.8190 C   0  0  0  0  0  0  0  0  0  0  0  0
   58.9760   29.1650   46.9370 C   0  0  0  0  0  0  0  0  0  0  0  0
   59.5480   27.9050   47.1210 C   0  0  0  0  0  0  0  0  0  0  0  0
   60.4730   27.4310   46.1870 C   0  0  0  0  0  0  0  0  0  0  0  0
   60.8150   28.1950   45.1140 N   0  0  0  0  0  0  0  0  0  0  0  0
   60.2710   29.4270   44.9170 C   0  0  0  0  0  0  0  0  0  0  0  0
   59.5460   32.3910   45.9700 C   0  0  0  0  0  0  0  0  0  0  0  0
   63.5818   32.9140   48.7366 H   0  0  0  0  0  0  0  0  0  0  0  0
   64.3629   32.4461   47.1882 H   0  0  0  0  0  0  0  0  0  0  0  0
   62.9947   33.6099   47.1882 H   0  0  0  0  0  0  0  0  0  0  0  0
   61.9486   31.6144   46.5323 H   0  0  0  0  0  0  0  0  0  0  0  0
   62.9827   30.6125   47.6336 H   0  0  0  0  0  0  0  0  0  0  0  0
   61.5320   29.5016   48.7231 H   0  0  0  0  0  0  0  0  0  0  0  0
   61.9654   30.4706   50.2174 H   0  0  0  0  0  0  0  0  0  0  0  0
   59.9488   30.1101   51.0670 H   0  0  0  0  0  0  0  0  0  0  0  0
   59.1900   30.8841   49.6345 H   0  0  0  0  0  0  0  0  0  0  0  0
   59.5139   29.1172   49.6345 H   0  0  0  0  0  0  0  0  0  0  0  0
   61.9912   32.5486   50.3519 H   0  0  0  0  0  0  0  0  0  0  0  0
   62.0707   33.5687   48.8713 H   0  0  0  0  0  0  0  0  0  0  0  0
   59.3576   32.5446   49.6599 H   0  0  0  0  0  0  0  0  0  0  0  0
   60.1140   33.8098   50.7222 H   0  0  0  0  0  0  0  0  0  0  0  0
   59.6190   35.3370   49.2690 H   0  0  0  0  0  0  0  0  0  0  0  0
   61.3315   35.3697   47.8517 H   0  0  0  0  0  0  0  0  0  0  0  0
   61.1714   33.6067   47.5162 H   0  0  0  0  0  0  0  0  0  0  0  0
   59.2106   35.7354   46.5184 H   0  0  0  0  0  0  0  0  0  0  0  0
   60.5866   35.0772   45.5532 H   0  0  0  0  0  0  0  0  0  0  0  0
   57.2375   34.8849   45.6060 H   0  0  0  0  0  0  0  0  0  0  0  0
   55.8218   32.9391   44.9814 H   0  0  0  0  0  0  0  0  0  0  0  0
   56.3293   28.9037   43.4276 H   0  0  0  0  0  0  0  0  0  0  0  0
   55.6642   30.4921   42.9163 H   0  0  0  0  0  0  0  0  0  0  0  0
   57.4397   30.2198   42.9163 H   0  0  0  0  0  0  0  0  0  0  0  0
   58.2517   29.5532   47.6682 H   0  0  0  0  0  0  0  0  0  0  0  0
   59.2735   27.2918   47.9920 H   0  0  0  0  0  0  0  0  0  0  0  0
   60.9260   26.4374   46.3195 H   0  0  0  0  0  0  0  0  0  0  0  0
   61.5120   27.8290   44.4290 H   0  0  0  0  0  0  0  0  0  0  0  0
   60.5743   30.0266   44.0461 H   0  0  0  0  0  0  0  0  0  0  0  0
   60.5950   32.2391   46.2641 H   0  0  0  0  0  0  0  0  0  0  0  0
  1  2  1  0
  2  3  1  0
  3  4  1  0
  4  5  1  0
  3  6  1  0
  6  7  1  0
  7  8  1  0
  8  9  1  0
  9 10  1  0
 10 11  1  0
 11 12  2  0
 12 13  1  0
 13 14  2  0
 14 15  1  0
 15 16  1  0
 14 17  1  0
 17 18  1  0
 18 19  2  0
 19 20  1  0
 20 21  2  0
 21 22  1  0
 22 23  2  0
 17 24  2  0
 24 11  1  0
 23 18  1  0
  1 25  1  0
  1 26  1  0
  1 27  1  0
  2 28  1  0
  2 29  1  0
  4 30  1  0
  4 31  1  0
  5 32  1  0
  5 33  1  0
  5 34  1  0
  6 35  1  0
  6 36  1  0
  7 37  1  0
  7 38  1  0
  8 39  1  0
  9 40  1  0
  9 41  1  0
 10 42  1  0
 10 43  1  0
 12 44  1  0
 13 45  1  0
 16 46  1  0
 16 47  1  0
 16 48  1  0
 19 49  1  0
 20 50  1  0
 21 51  1  0
 22 52  1  0
 23 53  1  0
 24 54  1  0
M  CHG  1  22   1
M  END
>  <UniqueID>  (1) 
1

>  <SMILES>  (1) 
CCN(CC)CCNCCc1ccc(OC)c(-c2ccc[nH+]c2)c1

>  <Energy>  (1) 
64.15589420868187

>  <Genealogy>  (1) 
CCN(CC)CCNCCc1ccc(OC)c(-c2ccc[nH+]c2)c1 (protonated)
CCN(CC)CCNCCc1ccc(OC)c(-c2ccc[nH+]c2)c1 (3D coordinates assigned)
CCN(CC)CCNCCc1ccc(OC)c(-c2ccc[nH+]c2)c1 (optimized conformer: 64.15589420868187 kcal/mol)

>  <smiles>  (1) 
CCN(CC)CCNCCc1ccc(OC)c(-c2cccnc2)c1

>  <score_type>  (1) 
oracle

>  <origin>  (1) 
adg

>  <m_score__min__energy>  (1) 
-6.4699999999999998

>  <m_primary>  (1) 
energy

$$$$
1:0
     RDKit          3D

 56 56  0  0  0  0  0  0  0  0999 V2000
   60.6850   29.3380   45.6220 C   0  0  0  0  0  0  0  0  0  0  0  0
   59.6180   29.5950   46.6860 C   0  0  0  0  0  0  0  0  0  0  0  0
   58.2040   29.2360   46.1980 C   0  0  0  0  0  0  0  0  0  0  0  0
   58.0150   29.4100   44.6730 C   0  0  0  0  0  0  0  0  0  0  0  0
   56.6470   30.0020   44.2830 C   0  0  0  0  0  0  0  0  0  0  0  0
   56.6540   30.8340   42.9890 C   0  0  0  0  0  0  0  0  0  0  0  0
   57.7580   31.9010   42.9740 C   0  0  0  0  0  0  0  0  0  0  0  0
   57.4600   32.9730   43.9260 N   0  0  0  0  0  0  0  0  0  0  0  0
   58.2180   33.1910   45.1320 C   0  0  0  0  0  0  0  0  0  0  0  0
   59.3920   33.9650   45.1400 C   0  0  0  0  0  0  0  0  0  0  0  0
   60.1070   34.1570   46.3260 C   0  0  0  0  0  0  0  0  0  0  0  0
   59.6640   33.5830   47.5280 C   0  0  0  0  0  0  0  0  0  0  0  0
   60.4260   33.7850   48.7800 C   0  0  0  0  0  0  0  0  0  0  0  0
   61.0540   34.8630   48.9720 O   0  0  0  0  0  0  0  0  0  0  0  0
   60.4480   32.7810   49.7550 O   0  0  0  0  0  0  0  0  0  0  0  0
   60.7700   31.4270   49.4540 C   0  0  0  0  0  0  0  0  0  0  0  0
   62.2970   31.2270   49.3880 C   0  0  0  0  0  0  0  0  0  0  0  0
   63.0790   32.4060   48.9260 N   0  0  1  0  0  0  0  0  0  0  0  0
   64.3220   32.5800   49.7060 C   0  0  0  0  0  0  0  0  0  0  0  0
   63.3820   32.4160   47.4730 C   0  0  0  0  0  0  0  0  0  0  0  0
   63.3930   33.8290   46.8810 C   0  0  0  0  0  0  0  0  0  0  0  0
   58.4900   32.8090   47.5190 C   0  0  0  0  0  0  0  0  0  0  0  0
   57.7760   32.6170   46.3330 C   0  0  0  0  0  0  0  0  0  0  0  0
   61.6427   29.1073   46.1114 H   0  0  0  0  0  0  0  0  0  0  0  0
   60.3797   28.4877   44.9945 H   0  0  0  0  0  0  0  0  0  0  0  0
   60.8004   30.2340   44.9945 H   0  0  0  0  0  0  0  0  0  0  0  0
   59.8503   28.9874   47.5731 H   0  0  0  0  0  0  0  0  0  0  0  0
   59.6292   30.6700   46.9191 H   0  0  0  0  0  0  0  0  0  0  0  0
   58.0027   28.1858   46.4562 H   0  0  0  0  0  0  0  0  0  0  0  0
   57.5059   29.9282   46.6916 H   0  0  0  0  0  0  0  0  0  0  0  0
   58.8030   30.0805   44.2995 H   0  0  0  0  0  0  0  0  0  0  0  0
   58.0711   28.4069   44.2252 H   0  0  0  0  0  0  0  0  0  0  0  0
   55.9382   29.1710   44.1526 H   0  0  0  0  0  0  0  0  0  0  0  0
   56.3624   30.6890   45.0935 H   0  0  0  0  0  0  0  0  0  0  0  0
   56.8084   30.1565   42.1363 H   0  0  0  0  0  0  0  0  0  0  0  0
   55.6878   31.3560   42.9255 H   0  0  0  0  0  0  0  0  0  0  0  0
   58.7154   31.4328   43.2465 H   0  0  0  0  0  0  0  0  0  0  0  0
   57.8161   32.3332   41.9641 H   0  0  0  0  0  0  0  0  0  0  0  0
   56.6500   33.6080   43.7340 H   0  0  0  0  0  0  0  0  0  0  0  0
   59.7505   34.4228   44.2062 H   0  0  0  0  0  0  0  0  0  0  0  0
   61.0248   34.7632   46.3171 H   0  0  0  0  0  0  0  0  0  0  0  0
   60.3548   30.7753   50.2369 H   0  0  0  0  0  0  0  0  0  0  0  0
   60.3393   31.1725   48.4744 H   0  0  0  0  0  0  0  0  0  0  0  0
   62.6478   30.9618   50.3963 H   0  0  0  0  0  0  0  0  0  0  0  0
   62.4660   30.4402   48.6380 H   0  0  0  0  0  0  0  0  0  0  0  0
   62.4910   33.2490   49.1290 H   0  0  0  0  0  0  0  0  0  0  0  0
   64.0883   32.5473   50.7804 H   0  0  0  0  0  0  0  0  0  0  0  0
   65.0260   31.7716   49.4591 H   0  0  0  0  0  0  0  0  0  0  0  0
   64.7770   33.5506   49.4591 H   0  0  0  0  0  0  0  0  0  0  0  0
   64.3713   31.9613   47.3167 H   0  0  0  0  0  0  0  0  0  0  0  0
   62.5886   31.8488   46.9643 H   0  0  0  0  0  0  0  0  0  0  0  0
   63.3988   34.5679   47.6959 H   0  0  0  0  0  0  0  0  0  0  0  0
   64.2922   33.9598   46.2610 H   0  0  0  0  0  0  0  0  0  0  0  0
   62.4960   33.9738   46.2610 H   0  0  0  0  0  0  0  0  0  0  0  0
   58.1309   32.3512   48.4525 H   0  0  0  0  0  0  0  0  0  0  0  0
   56.8587   32.0100   46.3415 H   0  0  0  0  0  0  0  0  0  0  0  0
  1  2  1  0
  2  3  1  0
  3  4  1  0
  4  5  1  0
  5  6  1  0
  6  7  1  0
  7  8  1  0
  8  9  1  0
  9 10  2  0
 10 11  1  0
 11 12  2  0
 12 13  1  0
 13 14  2  0
 13 15  1  0
 15 16  1  0
 16 17  1  0
 17 18  1  0
 18 19  1  0
 18 20  1  0
 20 21  1  0
 12 22  1  0
 22 23  2  0
 23  9  1  0
  1 24  1  0
  1 25  1  0
  1 26  1  0
  2 27  1  0
  2 28  1  0
  3 29  1  0
  3 30  1  0
  4 31  1  0
  4 32  1  0
  5 33  1  0
  5 34  1  0
  6 35  1  0
  6 36  1  0
  7 37  1  0
  7 38  1  0
  8 39  1  0
 10 40  1  0
 11 41  1  0
 16 42  1  0
 16 43  1  0
 17 44  1  0
 17 45  1  0
 18 46  1  6
 19 47  1  0
 19 48  1  0
 19 49  1  0
 20 50  1  0
 20 51  1  0
 21 52  1  0
 21 53  1  0
 21 54  1  0
 22 55  1  0
 23 56  1  0
M  CHG  1  18   1
M  END
>  <UniqueID>  (2) 
2

>  <SMILES>  (2) 
CCCCCCCNc1ccc(C(=O)OCC[N@@H+](C)CC)cc1

>  <Energy>  (2) 
44.940723680087174

>  <Genealogy>  (2) 
CCCCCCCNc1ccc(C(=O)OCC[NH+](C)CC)cc1 (protonated)
CCCCCCCNc1ccc(C(=O)OCC[N@@H+](C)CC)cc1 (chirality)
CCCCCCCNc1ccc(C(=O)OCC[N@@H+](C)CC)cc1 (3D coordinates assigned)
CCCCCCCNc1ccc(C(=O)OCC[N@@H+](C)CC)cc1 (optimized conformer: 44.940723680087174 kcal/mol)

>  <smiles>  (2) 
CCCCCCCNc1ccc(C(=O)OCCN(C)CC)cc1

>  <score_type>  (2) 
oracle

>  <origin>  (2) 
adg

>  <m_score__min__energy>  (2) 
-4.04

>  <m_primary>  (2) 
energy

$$$$
2:0
     RDKit          3D

 47 49  0  0  0  0  0  0  0  0999 V2000
   63.3200   33.8430   46.3430 C   0  0  0  0  0  0  0  0  0  0  0  0
   63.3690   33.8330   47.8820 C   0  0  0  0  0  0  0  0  0  0  0  0
   64.0380   32.6490   48.4940 N   0  0  1  0  0  0  0  0  0  0  0  0
   65.0090   32.9770   49.5570 C   0  0  0  0  0  0  0  0  0  0  0  0
   63.1050   31.5620   48.8870 C   0  0  0  0  0  0  0  0  0  0  0  0
   61.6140   31.9480   48.8480 C   0  0  0  0  0  0  0  0  0  0  0  0
   60.7410   30.7430   48.4890 C   0  0  0  0  0  0  0  0  0  0  0  0
   59.3730   31.1800   48.2200 N   0  0  0  0  0  0  0  0  0  0  0  0
   58.9710   31.5360   46.8900 C   0  0  0  0  0  0  0  0  0  0  0  0
   58.3810   30.6050   46.0090 C   0  0  0  0  0  0  0  0  0  0  0  0
   58.0800   29.2990   46.4400 C   0  0  0  0  0  0  0  0  0  0  0  0
   57.4640   28.3920   45.5820 C   0  0  0  0  0  0  0  0  0  0  0  0
   57.1170   28.7770   44.2900 C   0  0  0  0  0  0  0  0  0  0  0  0
   57.3920   30.0680   43.8410 C   0  0  0  0  0  0  0  0  0  0  0  0
   58.0440   31.0100   44.6760 C   0  0  0  0  0  0  0  0  0  0  0  0
   58.3350   32.2960   44.2380 N   0  0  0  0  0  0  0  0  0  0  0  0
   58.1230   32.6830   42.8300 C   0  0  0  0  0  0  0  0  0  0  0  0
   58.8140   33.2140   45.1460 C   0  0  0  0  0  0  0  0  0  0  0  0
   59.0400   34.5890   44.9150 C   0  0  0  0  0  0  0  0  0  0  0  0
   59.5590   35.2540   46.0220 C   0  0  0  0  0  0  0  0  0  0  0  0
   59.7270   34.1590   47.2900 S   0  0  0  0  0  0  0  0  0  0  0  0
   59.1330   32.8370   46.4400 C   0  0  0  0  0  0  0  0  0  0  0  0
   62.2927   34.0526   46.0102 H   0  0  0  0  0  0  0  0  0  0  0  0
   63.9957   34.6218   45.9597 H   0  0  0  0  0  0  0  0  0  0  0  0
   63.6366   32.8618   45.9597 H   0  0  0  0  0  0  0  0  0  0  0  0
   63.9078   34.7342   48.2100 H   0  0  0  0  0  0  0  0  0  0  0  0
   62.3222   33.7963   48.2179 H   0  0  0  0  0  0  0  0  0  0  0  0
   64.6150   32.2310   47.7250 H   0  0  0  0  0  0  0  0  0  0  0  0
   64.5428   32.8195   50.5408 H   0  0  0  0  0  0  0  0  0  0  0  0
   65.8912   32.3270   49.4610 H   0  0  0  0  0  0  0  0  0  0  0  0
   65.3163   34.0288   49.4610 H   0  0  0  0  0  0  0  0  0  0  0  0
   63.2577   30.7150   48.2020 H   0  0  0  0  0  0  0  0  0  0  0  0
   63.3355   31.3183   49.9346 H   0  0  0  0  0  0  0  0  0  0  0  0
   61.3150   32.3262   49.8367 H   0  0  0  0  0  0  0  0  0  0  0  0
   61.4739   32.7219   48.0789 H   0  0  0  0  0  0  0  0  0  0  0  0
   61.1491   30.2512   47.5937 H   0  0  0  0  0  0  0  0  0  0  0  0
   60.7354   30.0368   49.3324 H   0  0  0  0  0  0  0  0  0  0  0  0
   58.8490   31.6090   49.0170 H   0  0  0  0  0  0  0  0  0  0  0  0
   58.3342   28.9920   47.4653 H   0  0  0  0  0  0  0  0  0  0  0  0
   57.2510   27.3690   45.9257 H   0  0  0  0  0  0  0  0  0  0  0  0
   56.6230   28.0585   43.6194 H   0  0  0  0  0  0  0  0  0  0  0  0
   57.0982   30.3604   42.8221 H   0  0  0  0  0  0  0  0  0  0  0  0
   57.5949   33.6471   42.7903 H   0  0  0  0  0  0  0  0  0  0  0  0
   59.0957   32.7767   42.3250 H   0  0  0  0  0  0  0  0  0  0  0  0
   57.5203   31.9137   42.3250 H   0  0  0  0  0  0  0  0  0  0  0  0
   58.8272   35.0846   43.9563 H   0  0  0  0  0  0  0  0  0  0  0  0
   59.8177   36.3224   46.0621 H   0  0  0  0  0  0  0  0  0  0  0  0
  1  2  1  0
  2  3  1  0
  3  4  1  0
  3  5  1  0
  5  6  1  0
  6  7  1  0
  7  8  1  0
  8  9  1  0
  9 10  2  0
 10 11  1  0
 11 12  2  0
 12 13  1  0
 13 14  2  0
 14 15  1  0
 15 16  2  0
 16 17  1  0
 16 18  1  0
 18 19  1  0
 19 20  2  0
 20 21  1  0
 21 22  1  0
 22  9  1  0
 15 10  1  0
 22 18  2  0
  1 23  1  0
  1 24  1  0
  1 25  1  0
  2 26  1  0
  2 27  1  0
  3 28  1  6
  4 29  1  0
  4 30  1  0
  4 31  1  0
  5 32  1  0
  5 33  1  0
  6 34  1  0
  6 35  1  0
  7 36  1  0
  7 37  1  0
  8 38  1  0
 11 39  1  0
 12 40  1  0
 13 41  1  0
 14 42  1  0
 17 43  1  0
 17 44  1  0
 17 45  1  0
 19 46  1  0
 20 47  1  0
M  CHG  2   3   1  16   1
M  END
>  <UniqueID>  (3) 
3

>  <SMILES>  (3) 
CC[N@@H+](C)CCCNc1c2ccccc2[n+](C)c2ccsc12

>  <Energy>  (3) 
99.3911855424175

>  <Genealogy>  (3) 
CC[NH+](C)CCCNc1c2ccccc2[n+](C)c2ccsc12 (protonated)
CC[N@@H+](C)CCCNc1c2ccccc2[n+](C)c2ccsc12 (chirality)
CC[N@@H+](C)CCCNc1c2ccccc2[n+](C)c2ccsc12 (3D coordinates assigned)
CC[N@@H+](C)CCCNc1c2ccccc2[n+](C)c2ccsc12 (optimized conformer: 99.3911855424175 kcal/mol)

>  <smiles>  (3) 
CCN(C)CCCNc1c2ccccc2[n+](C)c2ccsc12

>  <score_type>  (3) 
oracle

>  <origin>  (3) 
adg

>  <m_score__min__energy>  (3) 
-4.25

>  <m_primary>  (3) 
energy

$$$$
3:0
     RDKit          3D

 62 65  0  0  0  0  0  0  0  0999 V2000
   57.3340   31.2550   51.6820 C   0  0  0  0  0  0  0  0  0  0  0  0
   58.6740   30.5620   51.4420 C   0  0  0  0  0  0  0  0  0  0  0  0
   59.2500   30.9610   50.1490 N   0  0  0  0  0  0  0  0  0  0  0  0
   60.3160   30.0400   49.7260 C   0  0  0  0  0  0  0  0  0  0  0  0
   60.1510   29.6630   48.2530 C   0  0  0  0  0  0  0  0  0  0  0  0
   58.8880   30.1770   47.7220 N   0  0  0  0  0  0  0  0  0  0  0  0
   58.4570   29.8750   46.3840 C   0  0  0  0  0  0  0  0  0  0  0  0
   58.3200   28.5400   45.9640 C   0  0  0  0  0  0  0  0  0  0  0  0
   58.7080   27.4730   46.8010 C   0  0  0  0  0  0  0  0  0  0  0  0
   58.6100   26.1540   46.3670 C   0  0  0  0  0  0  0  0  0  0  0  0
   58.1530   25.8750   45.0870 C   0  0  0  0  0  0  0  0  0  0  0  0
   57.7740   26.9100   44.2370 C   0  0  0  0  0  0  0  0  0  0  0  0
   57.8200   28.2630   44.6640 C   0  0  0  0  0  0  0  0  0  0  0  0
   57.4170   29.3000   43.8420 N   0  0  0  0  0  0  0  0  0  0  0  0
   56.6440   29.0130   42.6160 C   0  0  0  0  0  0  0  0  0  0  0  0
   57.7280   30.6060   44.1740 C   0  0  0  0  0  0  0  0  0  0  0  0
   57.5780   31.6650   43.2450 C   0  0  0  0  0  0  0  0  0  0  0  0
   57.8570   32.9820   43.6030 C   0  0  0  0  0  0  0  0  0  0  0  0
   58.3100   33.2910   44.8810 C   0  0  0  0  0  0  0  0  0  0  0  0
   58.5910   34.6330   45.1760 O   0  0  0  0  0  0  0  0  0  0  0  0
   59.6460   35.0670   46.0250 C   0  0  0  0  0  0  0  0  0  0  0  0
   59.2640   34.9090   47.5140 C   0  0  0  0  0  0  0  0  0  0  0  0
   59.8970   33.7720   48.2380 N   0  0  1  0  0  0  0  0  0  0  0  0
   58.8900   32.8790   48.5080 O   0  0  0  0  0  0  0  0  0  0  0  0
   60.9640   33.1220   47.4720 C   0  0  0  0  0  0  0  0  0  0  0  0
   62.2560   33.5920   48.1180 C   0  0  0  0  0  0  0  0  0  0  0  0
   61.9350   34.3890   49.2320 O   0  0  0  0  0  0  0  0  0  0  0  0
   60.5650   34.1940   49.4830 C   0  0  0  0  0  0  0  0  0  0  0  0
   58.4850   32.2580   45.8150 C   0  0  0  0  0  0  0  0  0  0  0  0
   58.2260   30.9150   45.4670 C   0  0  0  0  0  0  0  0  0  0  0  0
   57.1571   31.3465   52.7638 H   0  0  0  0  0  0  0  0  0  0  0  0
   57.3526   32.2565   51.2275 H   0  0  0  0  0  0  0  0  0  0  0  0
   56.5274   30.6610   51.2275 H   0  0  0  0  0  0  0  0  0  0  0  0
   59.3710   30.8383   52.2468 H   0  0  0  0  0  0  0  0  0  0  0  0
   58.5090   29.4745   51.4313 H   0  0  0  0  0  0  0  0  0  0  0  0
   59.6840   31.9030   50.2850 H   0  0  0  0  0  0  0  0  0  0  0  0
   61.2918   30.5279   49.8668 H   0  0  0  0  0  0  0  0  0  0  0  0
   60.2555   29.1255   50.3343 H   0  0  0  0  0  0  0  0  0  0  0  0
   60.9847   30.0898   47.6762 H   0  0  0  0  0  0  0  0  0  0  0  0
   60.1480   28.5662   48.1686 H   0  0  0  0  0  0  0  0  0  0  0  0
   58.2790   30.7660   48.3300 H   0  0  0  0  0  0  0  0  0  0  0  0
   59.0928   27.6859   47.8093 H   0  0  0  0  0  0  0  0  0  0  0  0
   58.8953   25.3318   47.0397 H   0  0  0  0  0  0  0  0  0  0  0  0
   58.0900   24.8322   44.7427 H   0  0  0  0  0  0  0  0  0  0  0  0
   57.4333   26.6757   43.2177 H   0  0  0  0  0  0  0  0  0  0  0  0
   55.6454   28.6422   42.8905 H   0  0  0  0  0  0  0  0  0  0  0  0
   56.5429   29.9335   42.0224 H   0  0  0  0  0  0  0  0  0  0  0  0
   57.1682   28.2496   42.0224 H   0  0  0  0  0  0  0  0  0  0  0  0
   57.2353   31.4435   42.2235 H   0  0  0  0  0  0  0  0  0  0  0  0
   57.7174   33.7869   42.8663 H   0  0  0  0  0  0  0  0  0  0  0  0
   60.5435   34.4653   45.8188 H   0  0  0  0  0  0  0  0  0  0  0  0
   59.8392   36.1313   45.8254 H   0  0  0  0  0  0  0  0  0  0  0  0
   59.5467   35.8366   48.0333 H   0  0  0  0  0  0  0  0  0  0  0  0
   58.1845   34.6976   47.5202 H   0  0  0  0  0  0  0  0  0  0  0  0
   59.2810   32.0620   48.9210 H   0  0  0  0  0  0  0  0  0  0  0  0
   60.8751   32.0276   47.5376 H   0  0  0  0  0  0  0  0  0  0  0  0
   60.9199   33.3787   46.4033 H   0  0  0  0  0  0  0  0  0  0  0  0
   62.8464   32.7223   48.4420 H   0  0  0  0  0  0  0  0  0  0  0  0
   62.8476   34.1744   47.3963 H   0  0  0  0  0  0  0  0  0  0  0  0
   60.4390   33.4154   50.2498 H   0  0  0  0  0  0  0  0  0  0  0  0
   60.1184   35.1335   49.8408 H   0  0  0  0  0  0  0  0  0  0  0  0
   58.8286   32.4984   46.8319 H   0  0  0  0  0  0  0  0  0  0  0  0
  1  2  1  0
  2  3  1  0
  3  4  1  0
  4  5  1  0
  5  6  1  0
  6  7  1  0
  7  8  2  0
  8  9  1  0
  9 10  2  0
 10 11  1  0
 11 12  2  0
 12 13  1  0
 13 14  2  0
 14 15  1  0
 14 16  1  0
 16 17  2  0
 17 18  1  0
 18 19  2  0
 19 20  1  0
 20 21  1  0
 21 22  1  0
 22 23  1  0
 23 24  1  1
 23 25  1  0
 25 26  1  0
 26 27  1  0
 27 28  1  0
 19 29  1  0
 29 30  2  0
 30  7  1  0
 13  8  1  0
 30 16  1  0
 28 23  1  0
  1 31  1  0
  1 32  1  0
  1 33  1  0
  2 34  1  0
  2 35  1  0
  3 36  1  0
  4 37  1  0
  4 38  1  0
  5 39  1  0
  5 40  1  0
  6 41  1  0
  9 42  1  0
 10 43  1  0
 11 44  1  0
 12 45  1  0
 15 46  1  0
 15 47  1  0
 15 48  1  0
 17 49  1  0
 18 50  1  0
 21 51  1  0
 21 52  1  0
 22 53  1  0
 22 54  1  0
 24 55  1  0
 25 56  1  0
 25 57  1  0
 26 58  1  0
 26 59  1  0
 28 60  1  0
 28 61  1  0
 29 62  1  0
M  CHG  2  14   1  23   1
M  END
>  <UniqueID>  (4) 
4

>  <SMILES>  (4) 
CCNCCNc1c2ccccc2[n+](C)c2ccc(OCC[N@@+]3(O)CCOC3)cc12

>  <Energy>  (4) 
95.18374021594384

>  <Genealogy>  (4) 
CCNCCNc1c2ccccc2[n+](C)c2ccc(OCC[N+]3(O)CCOC3)cc12 (protonated)
CCNCCNc1c2ccccc2[n+](C)c2ccc(OCC[N@@+]3(O)CCOC3)cc12 (chirality)
CCNCCNc1c2ccccc2[n+](C)c2ccc(OCC[N@@+]3(O)CCOC3)cc12 (3D coordinates assigned)
CCNCCNc1c2ccccc2[n+](C)c2ccc(OCC[N@@+]3(O)CCOC3)cc12 (nonaromatic ring conformer: 95.18374021594384 kcal/mol)

>  <smiles>  (4) 
CCNCCNc1c2ccccc2[n+](C)c2ccc(OCC[N+]3([O-])CCOC3)cc12

>  <score_type>  (4) 
oracle

>  <origin>  (4) 
adg

>  <m_score__min__energy>  (4) 
-5.1900000000000004

>  <m_primary>  (4) 
energy

$$$$
4:0
     RDKit          3D

 45 46  0  0  0  0  0  0  0  0999 V2000
   60.5330   31.7780   46.7840 C   0  0  0  0  0  0  0  0  0  0  0  0
   59.2210   32.2400   47.4140 C   0  0  0  0  0  0  0  0  0  0  0  0
   58.8820   33.6050   46.9510 N   0  0  0  0  0  0  0  0  0  0  0  0
   59.2960   34.6240   47.9440 C   0  0  0  0  0  0  0  0  0  0  0  0
   59.6820   33.9530   49.2600 C   0  0  0  0  0  0  0  0  0  0  0  0
   59.4710   33.8810   45.6200 C   0  0  0  0  0  0  0  0  0  0  0  0
   58.3580   33.9540   44.5590 C   0  0  0  0  0  0  0  0  0  0  0  0
   57.1790   33.1570   44.9360 N   0  0  0  0  0  0  0  0  0  0  0  0
   57.3490   31.7750   44.5830 C   0  0  0  0  0  0  0  0  0  0  0  0
   57.4670   30.7980   45.4460 O   0  0  0  0  0  0  0  0  0  0  0  0
   57.6430   29.6920   44.7500 C   0  0  0  0  0  0  0  0  0  0  0  0
   57.8080   28.3560   45.3840 C   0  0  0  0  0  0  0  0  0  0  0  0
   56.6450   27.5990   45.6260 C   0  0  0  0  0  0  0  0  0  0  0  0
   56.7200   26.3320   46.2020 C   0  0  0  0  0  0  0  0  0  0  0  0
   57.9560   25.7950   46.5490 C   0  0  0  0  0  0  0  0  0  0  0  0
   59.1230   26.5270   46.3300 C   0  0  0  0  0  0  0  0  0  0  0  0
   59.0700   27.8120   45.7570 C   0  0  0  0  0  0  0  0  0  0  0  0
   60.3630   28.5630   45.5730 C   0  0  0  0  0  0  0  0  0  0  0  0
   57.6410   29.9180   43.4140 N   0  0  0  0  0  0  0  0  0  0  0  0
   57.4570   31.2460   43.3190 C   0  0  0  0  0  0  0  0  0  0  0  0
   57.3980   31.9640   42.0740 C   0  0  0  0  0  0  0  0  0  0  0  0
   57.3490   32.5410   41.0730 N   0  0  0  0  0  0  0  0  0  0  0  0
   61.2516   31.5249   47.5774 H   0  0  0  0  0  0  0  0  0  0  0  0
   60.3479   30.8910   46.1604 H   0  0  0  0  0  0  0  0  0  0  0  0
   60.9446   32.5853   46.1604 H   0  0  0  0  0  0  0  0  0  0  0  0
   58.4161   31.5483   47.1249 H   0  0  0  0  0  0  0  0  0  0  0  0
   59.3334   32.2506   48.5082 H   0  0  0  0  0  0  0  0  0  0  0  0
   60.1601   35.1816   47.5535 H   0  0  0  0  0  0  0  0  0  0  0  0
   58.4558   35.3106   48.1246 H   0  0  0  0  0  0  0  0  0  0  0  0
   59.3290   34.5667   50.1019 H   0  0  0  0  0  0  0  0  0  0  0  0
   59.2190   32.9566   49.3131 H   0  0  0  0  0  0  0  0  0  0  0  0
   60.7761   33.8523   49.3131 H   0  0  0  0  0  0  0  0  0  0  0  0
   60.0088   34.8401   45.6510 H   0  0  0  0  0  0  0  0  0  0  0  0
   60.1684   33.0717   45.3579 H   0  0  0  0  0  0  0  0  0  0  0  0
   58.0523   35.0037   44.4376 H   0  0  0  0  0  0  0  0  0  0  0  0
   58.7580   33.5431   43.6203 H   0  0  0  0  0  0  0  0  0  0  0  0
   57.0040   33.2340   45.9650 H   0  0  0  0  0  0  0  0  0  0  0  0
   56.3390   33.5320   44.4360 H   0  0  0  0  0  0  0  0  0  0  0  0
   55.6627   28.0141   45.3563 H   0  0  0  0  0  0  0  0  0  0  0  0
   55.8007   25.7556   46.3826 H   0  0  0  0  0  0  0  0  0  0  0  0
   58.0128   24.7918   46.9966 H   0  0  0  0  0  0  0  0  0  0  0  0
   60.0958   26.0954   46.6081 H   0  0  0  0  0  0  0  0  0  0  0  0
   60.7872   28.8094   46.5575 H   0  0  0  0  0  0  0  0  0  0  0  0
   61.0740   27.9373   45.0136 H   0  0  0  0  0  0  0  0  0  0  0  0
   60.1718   29.4906   45.0136 H   0  0  0  0  0  0  0  0  0  0  0  0
  1  2  1  0
  2  3  1  0
  3  4  1  0
  4  5  1  0
  3  6  1  0
  6  7  1  0
  7  8  1  0
  8  9  1  0
  9 10  1  0
 10 11  1  0
 11 12  1  0
 12 13  2  0
 13 14  1  0
 14 15  2  0
 15 16  1  0
 16 17  2  0
 17 18  1  0
 11 19  2  0
 19 20  1  0
 20 21  1  0
 21 22  3  0
 20  9  2  0
 17 12  1  0
  1 23  1  0
  1 24  1  0
  1 25  1  0
  2 26  1  0
  2 27  1  0
  4 28  1  0
  4 29  1  0
  5 30  1  0
  5 31  1  0
  5 32  1  0
  6 33  1  0
  6 34  1  0
  7 35  1  0
  7 36  1  0
  8 37  1  0
  8 38  1  0
 13 39  1  0
 14 40  1  0
 15 41  1  0
 16 42  1  0
 18 43  1  0
 18 44  1  0
 18 45  1  0
M  CHG  1   8   1
M  END
>  <UniqueID>  (5) 
5

>  <SMILES>  (5) 
CCN(CC)CC[NH2+]c1oc(-c2ccccc2C)nc1C#N

>  <Energy>  (5) 
75.69291053176921

>  <Genealogy>  (5) 
CCN(CC)CC[NH2+]c1oc(-c2ccccc2C)nc1C#N (protonated)
CCN(CC)CC[NH2+]c1oc(-c2ccccc2C)nc1C#N (3D coordinates assigned)
CCN(CC)CC[NH2+]c1oc(-c2ccccc2C)nc1C#N (optimized conformer: 75.69291053176921 kcal/mol)

>  <smiles>  (5) 
CCN(CC)CCNc1oc(-c2ccccc2C)nc1C#N

>  <score_type>  (5) 
oracle

>  <origin>  (5) 
adg

>  <m_score__min__energy>  (5) 
-4.79

>  <m_primary>  (5) 
energy

$$$$
5:0
     RDKit          3D

 48 50  0  0  0  0  0  0  0  0999 V2000
   63.9140   33.1570   49.4370 C   0  0  0  0  0  0  0  0  0  0  0  0
   63.0780   32.3840   48.4200 C   0  0  0  0  0  0  0  0  0  0  0  0
   61.8620   33.1380   48.0360 N   0  0  0  0  0  0  0  0  0  0  0  0
   61.9490   33.6650   46.6540 C   0  0  0  0  0  0  0  0  0  0  0  0
   63.3910   33.8820   46.1690 C   0  0  0  0  0  0  0  0  0  0  0  0
   61.4710   34.1820   49.0170 C   0  0  0  0  0  0  0  0  0  0  0  0
   59.9890   34.5370   48.8700 C   0  0  0  0  0  0  0  0  0  0  0  0
   59.1760   33.3270   48.7450 N   0  0  0  0  0  0  0  0  0  0  0  0
   58.6130   32.9190   47.4880 C   0  0  0  0  0  0  0  0  0  0  0  0
   57.8400   33.8300   46.7660 C   0  0  0  0  0  0  0  0  0  0  0  0
   57.3550   33.4910   45.5140 C   0  0  0  0  0  0  0  0  0  0  0  0
   57.5830   32.2150   45.0100 C   0  0  0  0  0  0  0  0  0  0  0  0
   58.2260   31.2510   45.7530 N   0  0  0  0  0  0  0  0  0  0  0  0
   58.8460   31.6300   46.9380 C   0  0  0  0  0  0  0  0  0  0  0  0
   59.7320   30.7420   47.5700 C   0  0  0  0  0  0  0  0  0  0  0  0
   60.0340   29.5240   46.9840 C   0  0  0  0  0  0  0  0  0  0  0  0
   59.3580   29.1140   45.8380 C   0  0  0  0  0  0  0  0  0  0  0  0
   59.6570   27.8720   45.2620 C   0  0  0  0  0  0  0  0  0  0  0  0
   58.9300   27.4120   44.1700 C   0  0  0  0  0  0  0  0  0  0  0  0
   57.8460   28.1440   43.6990 C   0  0  0  0  0  0  0  0  0  0  0  0
   57.5020   29.3770   44.2800 C   0  0  0  0  0  0  0  0  0  0  0  0
   56.2010   29.9130   43.9830 N   0  0  0  0  0  0  0  0  0  0  0  0
   55.9660   30.4150   42.8630 O   0  0  0  0  0  0  0  0  0  0  0  0
   55.1590   29.7100   44.8600 O   0  0  0  0  0  0  0  0  0  0  0  0
   58.3510   29.9490   45.2850 C   0  0  0  0  0  0  0  0  0  0  0  0
   63.6075   32.8736   50.4547 H   0  0  0  0  0  0  0  0  0  0  0  0
   64.9782   32.9177   49.2945 H   0  0  0  0  0  0  0  0  0  0  0  0
   63.7587   34.2366   49.2945 H   0  0  0  0  0  0  0  0  0  0  0  0
   63.6855   32.2026   47.5211 H   0  0  0  0  0  0  0  0  0  0  0  0
   62.7662   31.4339   48.8784 H   0  0  0  0  0  0  0  0  0  0  0  0
   61.4582   32.9499   45.9774 H   0  0  0  0  0  0  0  0  0  0  0  0
   61.4560   34.6483   46.6516 H   0  0  0  0  0  0  0  0  0  0  0  0
   64.0587   33.9825   47.0374 H   0  0  0  0  0  0  0  0  0  0  0  0
   63.7069   33.0213   45.5612 H   0  0  0  0  0  0  0  0  0  0  0  0
   63.4396   34.7976   45.5612 H   0  0  0  0  0  0  0  0  0  0  0  0
   61.6529   33.8068   50.0349 H   0  0  0  0  0  0  0  0  0  0  0  0
   62.0706   35.0849   48.8294 H   0  0  0  0  0  0  0  0  0  0  0  0
   59.6633   35.1006   49.7567 H   0  0  0  0  0  0  0  0  0  0  0  0
   59.8598   35.1445   47.9621 H   0  0  0  0  0  0  0  0  0  0  0  0
   58.9340   32.8100   49.6200 H   0  0  0  0  0  0  0  0  0  0  0  0
   57.6157   34.8189   47.1924 H   0  0  0  0  0  0  0  0  0  0  0  0
   56.7923   34.2272   44.9212 H   0  0  0  0  0  0  0  0  0  0  0  0
   57.2414   31.9703   43.9934 H   0  0  0  0  0  0  0  0  0  0  0  0
   60.1874   31.0148   48.5334 H   0  0  0  0  0  0  0  0  0  0  0  0
   60.8090   28.8797   47.4246 H   0  0  0  0  0  0  0  0  0  0  0  0
   60.4707   27.2582   45.6758 H   0  0  0  0  0  0  0  0  0  0  0  0
   59.2124   26.4691   43.6788 H   0  0  0  0  0  0  0  0  0  0  0  0
   57.2499   27.7534   42.8611 H   0  0  0  0  0  0  0  0  0  0  0  0
  1  2  1  0
  2  3  1  0
  3  4  1  0
  4  5  1  0
  3  6  1  0
  6  7  1  0
  7  8  1  0
  8  9  1  0
  9 10  2  0
 10 11  1  0
 11 12  2  0
 12 13  1  0
 13 14  2  0
 14 15  1  0
 15 16  2  0
 16 17  1  0
 17 18  2  0
 18 19  1  0
 19 20  2  0
 20 21  1  0
 21 22  1  0
 22 23  2  0
 22 24  1  0
 21 25  2  0
 14  9  1  0
 25 17  1  0
 25 13  1  0
  1 26  1  0
  1 27  1  0
  1 28  1  0
  2 29  1  0
  2 30  1  0
  4 31  1  0
  4 32  1  0
  5 33  1  0
  5 34  1  0
  5 35  1  0
  6 36  1  0
  6 37  1  0
  7 38  1  0
  7 39  1  0
  8 40  1  0
 10 41  1  0
 11 42  1  0
 12 43  1  0
 15 44  1  0
 16 45  1  0
 18 46  1  0
 19 47  1  0
 20 48  1  0
M  CHG  3  13   1  22   1  24  -1
M  END
>  <UniqueID>  (6) 
6

>  <SMILES>  (6) 
CCN(CC)CCNc1ccc[n+]2c1ccc1cccc([N+](=O)[O-])c12

>  <Energy>  (6) 
80.82954783311389

>  <Genealogy>  (6) 
CCN(CC)CCNc1ccc[n+]2c1ccc1cccc([N+](=O)[O-])c12 (3D coordinates assigned)
CCN(CC)CCNc1ccc[n+]2c1ccc1cccc([N+](=O)[O-])c12 (optimized conformer: 80.82954783311389 kcal/mol)

>  <smiles>  (6) 
CCN(CC)CCNc1ccc[n+]2c1ccc1cccc([N+](=O)[O-])c12

>  <score_type>  (6) 
oracle

>  <origin>  (6) 
adg

>  <m_score__min__energy>  (6) 
-6.75

>  <m_primary>  (6) 
energy

$$$$
6:0
     RDKit          3D

 62 66  0  0  0  0  0  0  0  0999 V2000
   60.5810   34.4660   46.1400 C   0  0  0  0  0  0  0  0  0  0  0  0
   60.4950   33.6360   47.3430 N   0  0  0  0  0  0  0  0  0  0  0  0
   59.4210   32.9510   47.8260 C   0  0  0  0  0  0  0  0  0  0  0  0
   58.0400   33.0100   47.2380 C   0  0  0  0  0  0  0  0  0  0  0  0
   57.7390   31.8140   46.5200 O   0  0  0  0  0  0  0  0  0  0  0  0
   57.6210   31.7080   45.1240 C   0  0  0  0  0  0  0  0  0  0  0  0
   58.1440   32.7420   44.3360 C   0  0  0  0  0  0  0  0  0  0  0  0
   58.0500   32.6900   42.9400 C   0  0  0  0  0  0  0  0  0  0  0  0
   57.4260   31.6040   42.3210 C   0  0  0  0  0  0  0  0  0  0  0  0
   56.9010   30.5660   43.0980 C   0  0  0  0  0  0  0  0  0  0  0  0
   57.0020   30.6090   44.4940 C   0  0  0  0  0  0  0  0  0  0  0  0
   59.7170   32.1770   48.9050 N   0  0  0  0  0  0  0  0  0  0  0  0
   61.0310   32.3930   49.0830 C   0  0  0  0  0  0  0  0  0  0  0  0
   61.8630   31.8040   50.0320 C   0  0  0  0  0  0  0  0  0  0  0  0
   63.2460   32.1260   50.0100 C   0  0  0  0  0  0  0  0  0  0  0  0
   64.2200   31.5110   50.9670 C   0  0  0  0  0  0  0  0  0  0  0  0
   64.8530   30.4830   50.5900 O   0  0  0  0  0  0  0  0  0  0  0  0
   64.4440   32.0480   52.3030 N   0  0  1  0  0  0  0  0  0  0  0  0
   63.8130   31.2550   53.4000 C   0  0  0  0  0  0  0  0  0  0  0  0
   64.1960   29.7620   53.4450 C   0  0  0  0  0  0  0  0  0  0  0  0
   65.6950   29.5240   53.6400 C   0  0  0  0  0  0  0  0  0  0  0  0
   66.5170   29.9050   52.4790 N   0  0  0  0  0  0  0  0  0  0  0  0
   67.2660   28.8400   51.8460 C   0  0  0  0  0  0  0  0  0  0  0  0
   66.6490   28.0050   50.8960 C   0  0  0  0  0  0  0  0  0  0  0  0
   67.3590   26.9590   50.2980 C   0  0  0  0  0  0  0  0  0  0  0  0
   68.6890   26.7280   50.6450 C   0  0  0  0  0  0  0  0  0  0  0  0
   69.3140   27.5420   51.5940 C   0  0  0  0  0  0  0  0  0  0  0  0
   68.6090   28.5850   52.2030 C   0  0  0  0  0  0  0  0  0  0  0  0
   69.2260   29.3100   53.1700 F   0  0  0  0  0  0  0  0  0  0  0  0
   66.9180   31.3010   52.2090 C   0  0  0  0  0  0  0  0  0  0  0  0
   65.8660   32.3900   52.5550 C   0  0  0  0  0  0  0  0  0  0  0  0
   63.7240   33.0250   49.0080 C   0  0  0  0  0  0  0  0  0  0  0  0
   62.8550   33.5950   48.0620 C   0  0  0  0  0  0  0  0  0  0  0  0
   61.5060   33.2580   48.1400 C   0  0  0  0  0  0  0  0  0  0  0  0
   60.6904   35.5215   46.4298 H   0  0  0  0  0  0  0  0  0  0  0  0
   61.4520   34.1575   45.5432 H   0  0  0  0  0  0  0  0  0  0  0  0
   59.6653   34.3426   45.5432 H   0  0  0  0  0  0  0  0  0  0  0  0
   57.3084   33.1362   48.0497 H   0  0  0  0  0  0  0  0  0  0  0  0
   57.9917   33.8593   46.5406 H   0  0  0  0  0  0  0  0  0  0  0  0
   58.6324   33.6016   44.8182 H   0  0  0  0  0  0  0  0  0  0  0  0
   58.4677   33.5047   42.3302 H   0  0  0  0  0  0  0  0  0  0  0  0
   57.3477   31.5653   41.2245 H   0  0  0  0  0  0  0  0  0  0  0  0
   56.4069   29.7127   42.6105 H   0  0  0  0  0  0  0  0  0  0  0  0
   56.5980   29.7845   45.0997 H   0  0  0  0  0  0  0  0  0  0  0  0
   61.4588   31.1064   50.7803 H   0  0  0  0  0  0  0  0  0  0  0  0
   63.9250   32.9550   52.3270 H   0  0  0  0  0  0  0  0  0  0  0  0
   64.1060   31.7090   54.3581 H   0  0  0  0  0  0  0  0  0  0  0  0
   62.7301   31.2833   53.2086 H   0  0  0  0  0  0  0  0  0  0  0  0
   63.6566   29.2888   54.2787 H   0  0  0  0  0  0  0  0  0  0  0  0
   63.9224   29.3274   52.4722 H   0  0  0  0  0  0  0  0  0  0  0  0
   66.0287   30.1115   54.5080 H   0  0  0  0  0  0  0  0  0  0  0  0
   65.8297   28.4419   53.7845 H   0  0  0  0  0  0  0  0  0  0  0  0
   65.5979   28.1768   50.6211 H   0  0  0  0  0  0  0  0  0  0  0  0
   66.8668   26.3173   49.5523 H   0  0  0  0  0  0  0  0  0  0  0  0
   69.2463   25.9058   50.1724 H   0  0  0  0  0  0  0  0  0  0  0  0
   70.3652   27.3614   51.8630 H   0  0  0  0  0  0  0  0  0  0  0  0
   67.8247   31.5103   52.7957 H   0  0  0  0  0  0  0  0  0  0  0  0
   67.0624   31.3631   51.1203 H   0  0  0  0  0  0  0  0  0  0  0  0
   65.9679   32.6236   53.6251 H   0  0  0  0  0  0  0  0  0  0  0  0
   66.0855   33.2289   51.8782 H   0  0  0  0  0  0  0  0  0  0  0  0
   64.7944   33.2763   48.9762 H   0  0  0  0  0  0  0  0  0  0  0  0
   63.2269   34.2824   47.2880 H   0  0  0  0  0  0  0  0  0  0  0  0
  1  2  1  0
  2  3  1  0
  3  4  1  0
  4  5  1  0
  5  6  1  0
  6  7  2  0
  7  8  1  0
  8  9  2  0
  9 10  1  0
 10 11  2  0
  3 12  2  0
 12 13  1  0
 13 14  2  0
 14 15  1  0
 15 16  1  0
 16 17  2  0
 16 18  1  0
 18 19  1  0
 19 20  1  0
 20 21  1  0
 21 22  1  0
 22 23  1  0
 23 24  2  0
 24 25  1  0
 25 26  2  0
 26 27  1  0
 27 28  2  0
 28 29  1  0
 22 30  1  0
 30 31  1  0
 15 32  2  0
 32 33  1  0
 33 34  2  0
 34  2  1  0
 11  6  1  0
 34 13  1  0
 31 18  1  0
 28 23  1  0
  1 35  1  0
  1 36  1  0
  1 37  1  0
  4 38  1  0
  4 39  1  0
  7 40  1  0
  8 41  1  0
  9 42  1  0
 10 43  1  0
 11 44  1  0
 14 45  1  0
 18 46  1  6
 19 47  1  0
 19 48  1  0
 20 49  1  0
 20 50  1  0
 21 51  1  0
 21 52  1  0
 24 53  1  0
 25 54  1  0
 26 55  1  0
 27 56  1  0
 30 57  1  0
 30 58  1  0
 31 59  1  0
 31 60  1  0
 32 61  1  0
 33 62  1  0
M  CHG  1  18   1
M  END
>  <UniqueID>  (7) 
7

>  <SMILES>  (7) 
Cn1c(COc2ccccc2)nc2cc(C(=O)[N@H+]3CCCN(c4ccccc4F)CC3)ccc21

>  <Energy>  (7) 
132.566648584708

>  <Genealogy>  (7) 
Cn1c(COc2ccccc2)nc2cc(C(=O)[NH+]3CCCN(c4ccccc4F)CC3)ccc21 (protonated)
Cn1c(COc2ccccc2)nc2cc(C(=O)[N@H+]3CCCN(c4ccccc4F)CC3)ccc21 (chirality)
Cn1c(COc2ccccc2)nc2cc(C(=O)[N@H+]3CCCN(c4ccccc4F)CC3)ccc21 (3D coordinates assigned)
Cn1c(COc2ccccc2)nc2cc(C(=O)[N@H+]3CCCN(c4ccccc4F)CC3)ccc21 (nonaromatic ring conformer: 132.566648584708 kcal/mol)

>  <smiles>  (7) 
Cn1c(COc2ccccc2)nc2cc(C(=O)N3CCCN(c4ccccc4F)CC3)ccc21

>  <score_type>  (7) 
oracle

>  <origin>  (7) 
adg

>  <m_score__min__energy>  (7) 
-5.7199999999999998

>  <m_primary>  (7) 
energy

$$$$
7:0
     RDKit          3D

 65 71  0  0  0  0  0  0  0  0999 V2000
   55.8800   29.7660   43.3100 C   0  0  0  0  0  0  0  0  0  0  0  0
   57.1610   28.9560   43.1540 C   0  0  0  0  0  0  0  0  0  0  0  0
   57.7110   28.6200   44.4680 N   0  0  0  0  0  0  0  0  0  0  0  0
   58.0820   27.3830   44.8800 C   0  0  0  0  0  0  0  0  0  0  0  0
   58.6370   27.4410   46.1540 C   0  0  0  0  0  0  0  0  0  0  0  0
   58.6020   28.7730   46.5060 C   0  0  0  0  0  0  0  0  0  0  0  0
   59.0490   29.4100   47.6590 C   0  0  0  0  0  0  0  0  0  0  0  0
   58.9020   30.8100   47.7550 C   0  0  0  0  0  0  0  0  0  0  0  0
   59.3790   31.4850   48.9830 C   0  0  0  0  0  0  0  0  0  0  0  0
   58.4960   31.8460   50.0140 C   0  0  0  0  0  0  0  0  0  0  0  0
   58.9920   32.4720   51.1610 C   0  0  0  0  0  0  0  0  0  0  0  0
   60.3590   32.7290   51.2750 C   0  0  0  0  0  0  0  0  0  0  0  0
   61.2070   32.3410   50.2350 C   0  0  0  0  0  0  0  0  0  0  0  0
   60.7130   31.7260   49.1290 N   0  0  0  0  0  0  0  0  0  0  0  0
   62.6320   32.5820   50.4110 C   0  0  0  0  0  0  0  0  0  0  0  0
   63.6020   32.1470   49.5690 N   0  0  0  0  0  0  0  0  0  0  0  0
   64.7260   32.5690   50.1830 C   0  0  0  0  0  0  0  0  0  0  0  0
   66.0340   32.3500   49.7630 C   0  0  0  0  0  0  0  0  0  0  0  0
   67.0740   32.8280   50.5750 C   0  0  0  0  0  0  0  0  0  0  0  0
   66.7880   33.5160   51.7720 C   0  0  0  0  0  0  0  0  0  0  0  0
   65.4540   33.7500   52.1740 C   0  0  0  0  0  0  0  0  0  0  0  0
   65.1980   34.5060   53.4080 C   0  0  0  0  0  0  0  0  0  0  0  0
   65.1460   33.8650   54.6060 N   0  0  0  0  0  0  0  0  0  0  0  0
   64.8730   34.5420   55.7510 C   0  0  0  0  0  0  0  0  0  0  0  0
   64.6240   35.9130   55.7040 C   0  0  0  0  0  0  0  0  0  0  0  0
   64.6600   36.5520   54.4660 C   0  0  0  0  0  0  0  0  0  0  0  0
   64.9380   35.8400   53.3430 N   0  0  0  0  0  0  0  0  0  0  0  0
   64.4340   33.2400   51.3450 C   0  0  0  0  0  0  0  0  0  0  0  0
   63.0940   33.2330   51.5000 N   0  0  0  0  0  0  0  0  0  0  0  0
   62.2320   33.8190   52.5330 C   0  0  0  0  0  0  0  0  0  0  0  0
   60.8820   33.3350   52.4280 O   0  0  0  0  0  0  0  0  0  0  0  0
   58.3340   31.5360   46.6620 C   0  0  0  0  0  0  0  0  0  0  0  0
   58.2490   32.9680   46.6870 N   0  0  0  0  0  0  0  0  0  0  0  0
   57.0410   33.6120   46.1780 C   0  0  0  0  0  0  0  0  0  0  0  0
   59.7270   33.8820   46.7060 S   0  0  0  0  0  0  0  0  0  0  0  0
   59.9910   34.6240   48.3020 C   0  0  0  0  0  0  0  0  0  0  0  0
   60.8780   32.9730   46.3800 O   0  0  0  0  0  0  0  0  0  0  0  0
   59.6600   34.9780   45.6800 O   0  0  0  0  0  0  0  0  0  0  0  0
   57.8950   30.8500   45.5110 C   0  0  0  0  0  0  0  0  0  0  0  0
   58.0400   29.4630   45.4680 C   0  0  0  0  0  0  0  0  0  0  0  0
   55.6615   29.9042   44.3792 H   0  0  0  0  0  0  0  0  0  0  0  0
   56.0068   30.7484   42.8317 H   0  0  0  0  0  0  0  0  0  0  0  0
   55.0468   29.2302   42.8317 H   0  0  0  0  0  0  0  0  0  0  0  0
   56.9398   28.0288   42.6050 H   0  0  0  0  0  0  0  0  0  0  0  0
   57.8984   29.5547   42.5992 H   0  0  0  0  0  0  0  0  0  0  0  0
   57.9611   26.4627   44.2897 H   0  0  0  0  0  0  0  0  0  0  0  0
   59.0218   26.6025   46.7530 H   0  0  0  0  0  0  0  0  0  0  0  0
   59.5068   28.8352   48.4775 H   0  0  0  0  0  0  0  0  0  0  0  0
   57.4202   31.6372   49.9192 H   0  0  0  0  0  0  0  0  0  0  0  0
   58.3069   32.7613   51.9715 H   0  0  0  0  0  0  0  0  0  0  0  0
   66.2465   31.8186   48.8236 H   0  0  0  0  0  0  0  0  0  0  0  0
   68.1198   32.6647   50.2755 H   0  0  0  0  0  0  0  0  0  0  0  0
   67.6151   33.8756   52.4017 H   0  0  0  0  0  0  0  0  0  0  0  0
   64.8484   34.0099   56.7134 H   0  0  0  0  0  0  0  0  0  0  0  0
   64.4043   36.4771   56.6225 H   0  0  0  0  0  0  0  0  0  0  0  0
   64.4634   37.6322   54.3983 H   0  0  0  0  0  0  0  0  0  0  0  0
   62.6306   33.5548   53.5236 H   0  0  0  0  0  0  0  0  0  0  0  0
   62.2197   34.9102   52.3948 H   0  0  0  0  0  0  0  0  0  0  0  0
   56.4188   33.9437   47.0223 H   0  0  0  0  0  0  0  0  0  0  0  0
   57.3197   34.4812   45.5642 H   0  0  0  0  0  0  0  0  0  0  0  0
   56.4747   32.8961   45.5642 H   0  0  0  0  0  0  0  0  0  0  0  0
   59.7336   33.9007   49.0897 H   0  0  0  0  0  0  0  0  0  0  0  0
   61.0474   34.9139   48.4013 H   0  0  0  0  0  0  0  0  0  0  0  0
   59.3551   35.5160   48.4013 H   0  0  0  0  0  0  0  0  0  0  0  0
   57.4486   31.3956   44.6666 H   0  0  0  0  0  0  0  0  0  0  0  0
  1  2  1  0
  2  3  1  0
  3  4  1  0
  4  5  2  0
  5  6  1  0
  6  7  2  0
  7  8  1  0
  8  9  1  0
  9 10  2  0
 10 11  1  0
 11 12  2  0
 12 13  1  0
 13 14  2  0
 13 15  1  0
 15 16  2  0
 16 17  1  0
 17 18  2  0
 18 19  1  0
 19 20  2  0
 20 21  1  0
 21 22  1  0
 22 23  2  0
 23 24  1  0
 24 25  2  0
 25 26  1  0
 26 27  2  0
 21 28  2  0
 28 29  1  0
 29 30  1  0
 30 31  1  0
  8 32  2  0
 32 33  1  0
 33 34  1  0
 33 35  1  0
 35 36  1  0
 35 37  2  0
 35 38  2  0
 32 39  1  0
 39 40  2  0
 40  3  1  0
 40  6  1  0
 14  9  1  0
 29 15  1  0
 31 12  1  0
 28 17  1  0
 27 22  1  0
  1 41  1  0
  1 42  1  0
  1 43  1  0
  2 44  1  0
  2 45  1  0
  4 46  1  0
  5 47  1  0
  7 48  1  0
 10 49  1  0
 11 50  1  0
 18 51  1  0
 19 52  1  0
 20 53  1  0
 24 54  1  0
 25 55  1  0
 26 56  1  0
 30 57  1  0
 30 58  1  0
 34 59  1  0
 34 60  1  0
 34 61  1  0
 36 62  1  0
 36 63  1  0
 36 64  1  0
 39 65  1  0
M  END
>  <UniqueID>  (8) 
8

>  <SMILES>  (8) 
CCn1ccc2cc(-c3ccc4c(n3)-c3nc5cccc(-c6ncccn6)c5n3CO4)c(N(C)S(C)(=O)=O)cc21

>  <Energy>  (8) 
162.366931821431

>  <Genealogy>  (8) 
CCn1ccc2cc(-c3ccc4c(n3)-c3nc5cccc(-c6ncccn6)c5n3CO4)c(N(C)S(C)(=O)=O)cc21 (3D coordinates assigned)
CCn1ccc2cc(-c3ccc4c(n3)-c3nc5cccc(-c6ncccn6)c5n3CO4)c(N(C)S(C)(=O)=O)cc21 (nonaromatic ring conformer: 162.366931821431 kcal/mol)

>  <smiles>  (8) 
CCn1ccc2cc(-c3ccc4c(n3)-c3nc5cccc(-c6ncccn6)c5n3CO4)c(N(C)S(C)(=O)=O)cc21

>  <score_type>  (8) 
oracle

>  <origin>  (8) 
adg

>  <m_score__min__energy>  (8) 
-8.5299999999999994

>  <m_primary>  (8) 
energy

$$$$
8:0
     RDKit          3D

 43 45  0  0  0  0  0  0  0  0999 V2000
   60.7270   28.9960   45.6330 C   0  0  0  0  0  0  0  0  0  0  0  0
   59.8170   29.6640   46.6560 C   0  0  0  0  0  0  0  0  0  0  0  0
   58.8120   30.4930   45.9830 N   0  0  0  0  0  0  0  0  0  0  0  0
   57.6120   30.1270   45.4370 C   0  0  0  0  0  0  0  0  0  0  0  0
   57.0600   28.7580   45.4080 C   0  0  0  0  0  0  0  0  0  0  0  0
   55.8330   28.5570   45.2070 O   0  0  0  0  0  0  0  0  0  0  0  0
   57.9490   27.6470   45.5600 N   0  0  0  0  0  0  0  0  0  0  0  0
   57.6540   26.3160   45.1100 C   0  0  0  0  0  0  0  0  0  0  0  0
   57.7090   26.0330   43.7310 C   0  0  0  0  0  0  0  0  0  0  0  0
   58.0620   27.1140   42.7440 C   0  0  0  0  0  0  0  0  0  0  0  0
   57.3930   24.7450   43.2700 C   0  0  0  0  0  0  0  0  0  0  0  0
   57.0310   23.7370   44.1700 C   0  0  0  0  0  0  0  0  0  0  0  0
   56.7240   22.3550   43.6700 C   0  0  0  0  0  0  0  0  0  0  0  0
   57.0320   24.0030   45.5440 C   0  0  0  0  0  0  0  0  0  0  0  0
   57.3590   25.2800   46.0280 C   0  0  0  0  0  0  0  0  0  0  0  0
   57.3830   25.5070   47.5160 C   0  0  0  0  0  0  0  0  0  0  0  0
   56.9230   31.1750   44.9140 N   0  0  0  0  0  0  0  0  0  0  0  0
   57.7220   32.2270   45.1600 C   0  0  0  0  0  0  0  0  0  0  0  0
   57.4830   33.5620   44.8460 C   0  0  0  0  0  0  0  0  0  0  0  0
   58.4550   34.5080   45.2220 C   0  0  0  0  0  0  0  0  0  0  0  0
   59.6250   34.0990   45.9000 C   0  0  0  0  0  0  0  0  0  0  0  0
   59.8350   32.7410   46.2050 C   0  0  0  0  0  0  0  0  0  0  0  0
   58.8520   31.8270   45.8100 C   0  0  0  0  0  0  0  0  0  0  0  0
   61.5074   28.4231   46.1553 H   0  0  0  0  0  0  0  0  0  0  0  0
   60.1339   28.3173   45.0025 H   0  0  0  0  0  0  0  0  0  0  0  0
   61.1968   29.7653   45.0025 H   0  0  0  0  0  0  0  0  0  0  0  0
   59.3093   28.8895   47.2496 H   0  0  0  0  0  0  0  0  0  0  0  0
   60.4264   30.3040   47.3111 H   0  0  0  0  0  0  0  0  0  0  0  0
   58.3590   28.0234   43.2869 H   0  0  0  0  0  0  0  0  0  0  0  0
   58.8962   26.7753   42.1120 H   0  0  0  0  0  0  0  0  0  0  0  0
   57.1887   27.3329   42.1120 H   0  0  0  0  0  0  0  0  0  0  0  0
   57.4304   24.5267   42.1925 H   0  0  0  0  0  0  0  0  0  0  0  0
   56.5741   21.6803   44.5258 H   0  0  0  0  0  0  0  0  0  0  0  0
   55.8097   22.3808   43.0589 H   0  0  0  0  0  0  0  0  0  0  0  0
   57.5632   21.9913   43.0589 H   0  0  0  0  0  0  0  0  0  0  0  0
   56.7737   23.2026   46.2529 H   0  0  0  0  0  0  0  0  0  0  0  0
   57.2811   24.5429   48.0357 H   0  0  0  0  0  0  0  0  0  0  0  0
   58.3359   25.9776   47.7998 H   0  0  0  0  0  0  0  0  0  0  0  0
   56.5496   26.1664   47.7998 H   0  0  0  0  0  0  0  0  0  0  0  0
   56.5654   33.8673   44.3217 H   0  0  0  0  0  0  0  0  0  0  0  0
   58.3028   35.5717   44.9866 H   0  0  0  0  0  0  0  0  0  0  0  0
   60.3770   34.8469   46.1916 H   0  0  0  0  0  0  0  0  0  0  0  0
   60.7401   32.4099   46.7353 H   0  0  0  0  0  0  0  0  0  0  0  0
  1  2  1  0
  2  3  1  0
  3  4  1  0
  4  5  1  0
  5  6  2  0
  5  7  1  0
  7  8  1  0
  8  9  2  0
  9 10  1  0
  9 11  1  0
 11 12  2  0
 12 13  1  0
 12 14  1  0
 14 15  2  0
 15 16  1  0
  4 17  2  0
 17 18  1  0
 18 19  2  0
 19 20  1  0
 20 21  2  0
 21 22  1  0
 22 23  2  0
 23  3  1  0
 15  8  1  0
 23 18  1  0
  1 24  1  0
  1 25  1  0
  1 26  1  0
  2 27  1  0
  2 28  1  0
 10 29  1  0
 10 30  1  0
 10 31  1  0
 11 32  1  0
 13 33  1  0
 13 34  1  0
 13 35  1  0
 14 36  1  0
 16 37  1  0
 16 38  1  0
 16 39  1  0
 19 40  1  0
 20 41  1  0
 21 42  1  0
 22 43  1  0
M  CHG  1   7  -1
M  END
>  <UniqueID>  (9) 
9

>  <SMILES>  (9) 
CCn1c(C(=O)[N-]c2c(C)cc(C)cc2C)nc2ccccc21

>  <Energy>  (9) 
86.27597168278365

>  <Genealogy>  (9) 
CCn1c(C(=O)[N-]c2c(C)cc(C)cc2C)nc2ccccc21 (protonated)
CCn1c(C(=O)[N-]c2c(C)cc(C)cc2C)nc2ccccc21 (3D coordinates assigned)
CCn1c(C(=O)[N-]c2c(C)cc(C)cc2C)nc2ccccc21 (optimized conformer: 86.27597168278365 kcal/mol)

>  <smiles>  (9) 
CCn1c(C(=O)Nc2c(C)cc(C)cc2C)nc2ccccc21

>  <score_type>  (9) 
oracle

>  <origin>  (9) 
adg

>  <m_score__min__energy>  (9) 
-8.9000000000000004

>  <m_primary>  (9) 
energy

$$$$
9:0
     RDKit          3D

 71 74  0  0  0  0  0  0  0  0999 V2000
   56.3750   29.7840   42.7500 C   0  0  0  0  0  0  0  0  0  0  0  0
   55.8930   30.2630   44.1180 C   0  0  0  0  0  0  0  0  0  0  0  0
   57.0170   30.8110   44.9080 N   0  0  0  0  0  0  0  0  0  0  0  0
   57.3540   32.1990   44.4950 C   0  0  0  0  0  0  0  0  0  0  0  0
   57.4140   33.1010   45.7220 C   0  0  0  0  0  0  0  0  0  0  0  0
   58.1920   29.9130   44.8300 C   0  0  0  0  0  0  0  0  0  0  0  0
   58.9530   29.9170   46.1310 C   0  0  0  0  0  0  0  0  0  0  0  0
   58.6740   28.9710   47.1120 C   0  0  0  0  0  0  0  0  0  0  0  0
   59.4210   28.9300   48.2820 C   0  0  0  0  0  0  0  0  0  0  0  0
   60.4830   29.8430   48.5190 C   0  0  0  0  0  0  0  0  0  0  0  0
   60.7680   30.8230   47.5210 C   0  0  0  0  0  0  0  0  0  0  0  0
   59.9900   30.8350   46.3340 C   0  0  0  0  0  0  0  0  0  0  0  0
   61.8410   31.7330   47.7330 C   0  0  0  0  0  0  0  0  0  0  0  0
   62.1700   32.7690   46.8170 C   0  0  0  0  0  0  0  0  0  0  0  0
   63.2490   33.6220   47.0520 C   0  0  0  0  0  0  0  0  0  0  0  0
   64.0230   33.4730   48.1960 C   0  0  0  0  0  0  0  0  0  0  0  0
   63.7170   32.4770   49.1180 C   0  0  0  0  0  0  0  0  0  0  0  0
   62.6260   31.6060   48.9040 C   0  0  0  0  0  0  0  0  0  0  0  0
   62.3200   30.6110   49.8490 C   0  0  0  0  0  0  0  0  0  0  0  0
   63.0530   30.4930   50.8740 O   0  0  0  0  0  0  0  0  0  0  0  0
   61.2470   29.7740   49.6730 N   0  0  0  0  0  0  0  0  0  0  0  0
   60.9760   28.7470   50.7110 C   0  0  0  0  0  0  0  0  0  0  0  0
   60.2110   29.3730   51.8910 C   0  0  0  0  0  0  0  0  0  0  0  0
   61.1330   29.9080   52.9080 N   0  0  0  0  0  0  0  0  0  0  0  0
   60.9550   31.3610   53.0820 C   0  0  0  0  0  0  0  0  0  0  0  0
   59.5830   31.7040   53.6980 C   0  0  0  0  0  0  0  0  0  0  0  0
   59.0810   32.9890   53.1890 N   0  0  0  0  0  0  0  0  0  0  0  0
   59.1140   32.9930   51.7430 C   0  0  0  0  0  0  0  0  0  0  0  0
   60.0480   33.8150   51.0830 C   0  0  0  0  0  0  0  0  0  0  0  0
   60.0820   33.8850   49.6900 C   0  0  0  0  0  0  0  0  0  0  0  0
   59.1830   33.1360   48.9330 C   0  0  0  0  0  0  0  0  0  0  0  0
   58.2450   32.3170   49.5650 C   0  0  0  0  0  0  0  0  0  0  0  0
   58.1890   32.2420   50.9680 C   0  0  0  0  0  0  0  0  0  0  0  0
   57.1690   31.3390   51.6090 C   0  0  0  0  0  0  0  0  0  0  0  0
   57.1495   29.0143   42.8830 H   0  0  0  0  0  0  0  0  0  0  0  0
   55.5282   29.3593   42.1909 H   0  0  0  0  0  0  0  0  0  0  0  0
   56.7944   30.6334   42.1909 H   0  0  0  0  0  0  0  0  0  0  0  0
   55.1339   31.0469   43.9789 H   0  0  0  0  0  0  0  0  0  0  0  0
   55.4645   29.4074   44.6606 H   0  0  0  0  0  0  0  0  0  0  0  0
   58.3314   32.2030   43.9904 H   0  0  0  0  0  0  0  0  0  0  0  0
   56.5809   32.5717   43.8070 H   0  0  0  0  0  0  0  0  0  0  0  0
   57.3730   32.4849   46.6323 H   0  0  0  0  0  0  0  0  0  0  0  0
   58.3523   33.6750   45.7096 H   0  0  0  0  0  0  0  0  0  0  0  0
   56.5600   33.7942   45.7096 H   0  0  0  0  0  0  0  0  0  0  0  0
   57.8507   28.8897   44.6145 H   0  0  0  0  0  0  0  0  0  0  0  0
   58.8574   30.2699   44.0301 H   0  0  0  0  0  0  0  0  0  0  0  0
   57.8565   28.2509   46.9600 H   0  0  0  0  0  0  0  0  0  0  0  0
   59.1846   28.1723   49.0435 H   0  0  0  0  0  0  0  0  0  0  0  0
   60.2067   31.5822   45.5564 H   0  0  0  0  0  0  0  0  0  0  0  0
   61.5642   32.9004   45.9083 H   0  0  0  0  0  0  0  0  0  0  0  0
   63.4877   34.4155   46.3286 H   0  0  0  0  0  0  0  0  0  0  0  0
   64.8777   34.1424   48.3728 H   0  0  0  0  0  0  0  0  0  0  0  0
   64.3316   32.3667   50.0236 H   0  0  0  0  0  0  0  0  0  0  0  0
   60.3712   27.9390   50.2736 H   0  0  0  0  0  0  0  0  0  0  0  0
   61.9324   28.3446   51.0762 H   0  0  0  0  0  0  0  0  0  0  0  0
   59.5801   30.1916   51.5143 H   0  0  0  0  0  0  0  0  0  0  0  0
   59.5969   28.5897   52.3592 H   0  0  0  0  0  0  0  0  0  0  0  0
   62.1250   29.7230   52.6350 H   0  0  0  0  0  0  0  0  0  0  0  0
   61.7469   31.7392   53.7452 H   0  0  0  0  0  0  0  0  0  0  0  0
   61.0098   31.8319   52.0894 H   0  0  0  0  0  0  0  0  0  0  0  0
   58.8654   30.9108   53.4413 H   0  0  0  0  0  0  0  0  0  0  0  0
   59.6992   31.7816   54.7891 H   0  0  0  0  0  0  0  0  0  0  0  0
   58.0940   33.1250   53.5090 H   0  0  0  0  0  0  0  0  0  0  0  0
   59.6430   33.7760   53.5840 H   0  0  0  0  0  0  0  0  0  0  0  0
   60.7602   34.4098   51.6737 H   0  0  0  0  0  0  0  0  0  0  0  0
   60.8181   34.5311   49.1894 H   0  0  0  0  0  0  0  0  0  0  0  0
   59.2124   33.1901   47.8347 H   0  0  0  0  0  0  0  0  0  0  0  0
   57.5431   31.7248   48.9594 H   0  0  0  0  0  0  0  0  0  0  0  0
   57.2512   31.4118   52.7035 H   0  0  0  0  0  0  0  0  0  0  0  0
   56.1599   31.6452   51.2959 H   0  0  0  0  0  0  0  0  0  0  0  0
   57.3506   30.3003   51.2959 H   0  0  0  0  0  0  0  0  0  0  0  0
  1  2  1  0
  2  3  1  0
  3  4  1  0
  4  5  1  0
  3  6  1  0
  6  7  1  0
  7  8  2  0
  8  9  1  0
  9 10  2  0
 10 11  1  0
 11 12  2  0
 11 13  1  0
 13 14  2  0
 14 15  1  0
 15 16  2  0
 16 17  1  0
 17 18  2  0
 18 19  1  0
 19 20  2  0
 19 21  1  0
 21 22  1  0
 22 23  1  0
 23 24  1  0
 24 25  1  0
 25 26  1  0
 26 27  1  0
 27 28  1  0
 28 29  2  0
 29 30  1  0
 30 31  2  0
 31 32  1  0
 32 33  2  0
 33 34  1  0
 12  7  1  0
 18 13  1  0
 33 28  1  0
 21 10  1  0
  1 35  1  0
  1 36  1  0
  1 37  1  0
  2 38  1  0
  2 39  1  0
  4 40  1  0
  4 41  1  0
  5 42  1  0
  5 43  1  0
  5 44  1  0
  6 45  1  0
  6 46  1  0
  8 47  1  0
  9 48  1  0
 12 49  1  0
 14 50  1  0
 15 51  1  0
 16 52  1  0
 17 53  1  0
 22 54  1  0
 22 55  1  0
 23 56  1  0
 23 57  1  0
 24 58  1  0
 25 59  1  0
 25 60  1  0
 26 61  1  0
 26 62  1  0
 27 63  1  0
 27 64  1  0
 29 65  1  0
 30 66  1  0
 31 67  1  0
 32 68  1  0
 34 69  1  0
 34 70  1  0
 34 71  1  0
M  CHG  1  27   1
M  END
>  <UniqueID>  (10) 
10

>  <SMILES>  (10) 
CCN(CC)Cc1ccc2c(c1)c1ccccc1c(=O)n2CCNCC[NH2+]c1ccccc1C

>  <Energy>  (10) 
92.56824722492918

>  <Genealogy>  (10) 
CCN(CC)Cc1ccc2c(c1)c1ccccc1c(=O)n2CCNCC[NH2+]c1ccccc1C (protonated)
CCN(CC)Cc1ccc2c(c1)c1ccccc1c(=O)n2CCNCC[NH2+]c1ccccc1C (3D coordinates assigned)
CCN(CC)Cc1ccc2c(c1)c1ccccc1c(=O)n2CCNCC[NH2+]c1ccccc1C (optimized conformer: 92.56824722492918 kcal/mol)

>  <smiles>  (10) 
CCN(CC)Cc1ccc2c(c1)c1ccccc1c(=O)n2CCNCCNc1ccccc1C

>  <score_type>  (10) 
oracle

>  <origin>  (10) 
adg

>  <m_score__min__energy>  (10) 
-7.0499999999999998

>  <m_primary>  (10) 
energy

$$$$
10:0
     RDKit          3D

 53 56  0  0  0  0  0  0  0  0999 V2000
   68.7960   34.2210   50.1980 C   0  0  0  0  0  0  0  0  0  0  0  0
   68.1610   33.4760   51.3650 C   0  0  0  0  0  0  0  0  0  0  0  0
   66.8890   32.8810   50.9560 N   0  0  0  0  0  0  0  0  0  0  0  0
   65.9860   33.4390   50.1120 C   0  0  0  0  0  0  0  0  0  0  0  0
   64.8570   32.6270   49.9990 C   0  0  0  0  0  0  0  0  0  0  0  0
   63.6430   32.9180   49.2070 C   0  0  0  0  0  0  0  0  0  0  0  0
   63.5920   32.5830   47.8440 C   0  0  0  0  0  0  0  0  0  0  0  0
   62.4390   32.8310   47.0960 C   0  0  0  0  0  0  0  0  0  0  0  0
   61.3130   33.4060   47.7040 C   0  0  0  0  0  0  0  0  0  0  0  0
   60.0800   33.6420   46.9260 C   0  0  0  0  0  0  0  0  0  0  0  0
   60.0540   34.7100   46.0140 C   0  0  0  0  0  0  0  0  0  0  0  0
   58.9070   34.9730   45.2650 C   0  0  0  0  0  0  0  0  0  0  0  0
   57.7710   34.1790   45.4240 C   0  0  0  0  0  0  0  0  0  0  0  0
   57.7760   33.1220   46.3360 C   0  0  0  0  0  0  0  0  0  0  0  0
   58.9230   32.8410   47.1000 C   0  0  0  0  0  0  0  0  0  0  0  0
   58.8780   31.7170   48.1120 C   0  0  0  0  0  0  0  0  0  0  0  0
   59.8720   30.6750   47.7780 N   0  0  0  0  0  0  0  0  0  0  0  0
   59.9580   29.6700   48.8510 C   0  0  0  0  0  0  0  0  0  0  0  0
   59.5170   30.0200   46.5090 C   0  0  0  0  0  0  0  0  0  0  0  0
   61.3610   33.7490   49.0620 C   0  0  0  0  0  0  0  0  0  0  0  0
   62.5150   33.4990   49.8130 C   0  0  0  0  0  0  0  0  0  0  0  0
   62.5340   33.8470   51.1250 F   0  0  0  0  0  0  0  0  0  0  0  0
   65.1090   31.5440   50.8220 C   0  0  0  0  0  0  0  0  0  0  0  0
   64.3600   30.4340   51.0590 N   0  0  0  0  0  0  0  0  0  0  0  0
   64.8360   29.4850   51.9200 C   0  0  0  0  0  0  0  0  0  0  0  0
   66.0910   29.6480   52.5480 C   0  0  0  0  0  0  0  0  0  0  0  0
   66.8650   30.7900   52.2770 C   0  0  0  0  0  0  0  0  0  0  0  0
   66.3390   31.7290   51.3900 C   0  0  0  0  0  0  0  0  0  0  0  0
   69.4643   35.0050   50.5836 H   0  0  0  0  0  0  0  0  0  0  0  0
   69.3747   33.5154   49.5838 H   0  0  0  0  0  0  0  0  0  0  0  0
   68.0076   34.6806   49.5838 H   0  0  0  0  0  0  0  0  0  0  0  0
   68.8422   32.6805   51.7013 H   0  0  0  0  0  0  0  0  0  0  0  0
   67.9766   34.1860   52.1847 H   0  0  0  0  0  0  0  0  0  0  0  0
   66.1242   34.3972   49.5898 H   0  0  0  0  0  0  0  0  0  0  0  0
   64.4667   32.1219   47.3621 H   0  0  0  0  0  0  0  0  0  0  0  0
   62.4136   32.5746   46.0266 H   0  0  0  0  0  0  0  0  0  0  0  0
   60.9446   35.3435   45.8895 H   0  0  0  0  0  0  0  0  0  0  0  0
   58.8982   35.8074   44.5482 H   0  0  0  0  0  0  0  0  0  0  0  0
   56.8691   34.3863   44.8293 H   0  0  0  0  0  0  0  0  0  0  0  0
   56.8747   32.5033   46.4582 H   0  0  0  0  0  0  0  0  0  0  0  0
   59.0997   32.1210   49.1108 H   0  0  0  0  0  0  0  0  0  0  0  0
   57.8744   31.2670   48.0973 H   0  0  0  0  0  0  0  0  0  0  0  0
   59.9150   30.1727   49.8285 H   0  0  0  0  0  0  0  0  0  0  0  0
   59.1168   28.9668   48.7630 H   0  0  0  0  0  0  0  0  0  0  0  0
   60.9065   29.1199   48.7630 H   0  0  0  0  0  0  0  0  0  0  0  0
   59.0024   29.0705   46.7179 H   0  0  0  0  0  0  0  0  0  0  0  0
   58.8520   30.6779   45.9303 H   0  0  0  0  0  0  0  0  0  0  0  0
   60.4312   29.8220   45.9303 H   0  0  0  0  0  0  0  0  0  0  0  0
   60.4876   34.2169   49.5397 H   0  0  0  0  0  0  0  0  0  0  0  0
   63.4430   30.2870   50.5840 H   0  0  0  0  0  0  0  0  0  0  0  0
   64.2363   28.5861   52.1258 H   0  0  0  0  0  0  0  0  0  0  0  0
   66.4615   28.8837   53.2469 H   0  0  0  0  0  0  0  0  0  0  0  0
   67.8486   30.9374   52.7469 H   0  0  0  0  0  0  0  0  0  0  0  0
  1  2  1  0
  2  3  1  0
  3  4  1  0
  4  5  2  0
  5  6  1  0
  6  7  2  0
  7  8  1  0
  8  9  2  0
  9 10  1  0
 10 11  2  0
 11 12  1  0
 12 13  2  0
 13 14  1  0
 14 15  2  0
 15 16  1  0
 16 17  1  0
 17 18  1  0
 17 19  1  0
  9 20  1  0
 20 21  2  0
 21 22  1  0
  5 23  1  0
 23 24  2  0
 24 25  1  0
 25 26  2  0
 26 27  1  0
 27 28  2  0
 28  3  1  0
 21  6  1  0
 28 23  1  0
 15 10  1  0
  1 29  1  0
  1 30  1  0
  1 31  1  0
  2 32  1  0
  2 33  1  0
  4 34  1  0
  7 35  1  0
  8 36  1  0
 11 37  1  0
 12 38  1  0
 13 39  1  0
 14 40  1  0
 16 41  1  0
 16 42  1  0
 18 43  1  0
 18 44  1  0
 18 45  1  0
 19 46  1  0
 19 47  1  0
 19 48  1  0
 20 49  1  0
 24 50  1  0
 25 51  1  0
 26 52  1  0
 27 53  1  0
M  CHG  1  24   1
M  END
>  <UniqueID>  (11) 
11

>  <SMILES>  (11) 
CCn1cc(-c2ccc(-c3ccccc3CN(C)C)cc2F)c2[nH+]cccc21

>  <Energy>  (11) 
100.82451046262689

>  <Genealogy>  (11) 
CCn1cc(-c2ccc(-c3ccccc3CN(C)C)cc2F)c2[nH+]cccc21 (protonated)
CCn1cc(-c2ccc(-c3ccccc3CN(C)C)cc2F)c2[nH+]cccc21 (3D coordinates assigned)
CCn1cc(-c2ccc(-c3ccccc3CN(C)C)cc2F)c2[nH+]cccc21 (optimized conformer: 100.82451046262689 kcal/mol)

>  <smiles>  (11) 
CCn1cc(-c2ccc(-c3ccccc3CN(C)C)cc2F)c2ncccc21

>  <score_type>  (11) 
oracle

>  <origin>  (11) 
adg

>  <m_score__min__energy>  (11) 
-6.3899999999999997

>  <m_primary>  (11) 
energy

$$$$
11:0
     RDKit          3D

 65 67  0  0  0  0  0  0  0  0999 V2000
   56.4240   29.7340   42.7310 C   0  0  0  0  0  0  0  0  0  0  0  0
   55.9120   30.3200   44.0490 C   0  0  0  0  0  0  0  0  0  0  0  0
   57.0270   30.7620   44.9210 N   0  0  0  0  0  0  0  0  0  0  0  0
   57.5720   29.6320   45.7110 C   0  0  0  0  0  0  0  0  0  0  0  0
   59.0370   29.8900   46.0560 C   0  0  0  0  0  0  0  0  0  0  0  0
   58.0970   31.3970   44.1120 C   0  0  0  0  0  0  0  0  0  0  0  0
   57.7260   32.8280   43.7020 C   0  0  0  0  0  0  0  0  0  0  0  0
   58.3580   33.7830   44.5570 O   0  0  0  0  0  0  0  0  0  0  0  0
   58.8750   33.5320   45.8390 C   0  0  0  0  0  0  0  0  0  0  0  0
   58.0670   33.3210   46.9570 C   0  0  0  0  0  0  0  0  0  0  0  0
   58.6350   33.0350   48.1950 C   0  0  0  0  0  0  0  0  0  0  0  0
   60.0420   32.9800   48.3700 C   0  0  0  0  0  0  0  0  0  0  0  0
   60.6420   32.6150   49.6120 C   0  0  0  0  0  0  0  0  0  0  0  0
   59.8320   32.2110   50.7580 N   0  0  0  0  0  0  0  0  0  0  0  0
   59.2010   33.3630   51.4330 C   0  0  0  0  0  0  0  0  0  0  0  0
   57.8890   32.9730   52.1540 C   0  0  0  0  0  0  0  0  0  0  0  0
   57.5330   31.5380   52.0420 N   0  0  0  0  0  0  0  0  0  0  0  0
   56.0810   31.3100   51.9920 C   0  0  0  0  0  0  0  0  0  0  0  0
   58.1670   30.7040   53.0740 C   0  0  0  0  0  0  0  0  0  0  0  0
   62.0630   32.5790   49.6950 C   0  0  0  0  0  0  0  0  0  0  0  0
   62.7300   32.1870   50.8860 C   0  0  0  0  0  0  0  0  0  0  0  0
   64.1190   32.0980   50.9400 C   0  0  0  0  0  0  0  0  0  0  0  0
   64.8780   32.3800   49.8160 C   0  0  0  0  0  0  0  0  0  0  0  0
   64.2570   32.7910   48.6400 C   0  0  0  0  0  0  0  0  0  0  0  0
   62.8470   32.9420   48.5620 C   0  0  0  0  0  0  0  0  0  0  0  0
   62.2390   33.4100   47.4150 N   0  0  0  0  0  0  0  0  0  0  0  0
   63.0540   34.0610   46.3620 C   0  0  0  0  0  0  0  0  0  0  0  0
   60.8710   33.3090   47.2600 C   0  0  0  0  0  0  0  0  0  0  0  0
   60.2590   33.5210   45.9970 C   0  0  0  0  0  0  0  0  0  0  0  0
   57.1342   28.9211   42.9425 H   0  0  0  0  0  0  0  0  0  0  0  0
   55.5765   29.3389   42.1516 H   0  0  0  0  0  0  0  0  0  0  0  0
   56.9292   30.5208   42.1516 H   0  0  0  0  0  0  0  0  0  0  0  0
   55.2674   31.1837   43.8288 H   0  0  0  0  0  0  0  0  0  0  0  0
   55.3516   29.5357   44.5789 H   0  0  0  0  0  0  0  0  0  0  0  0
   56.9930   29.5252   46.6401 H   0  0  0  0  0  0  0  0  0  0  0  0
   57.4997   28.7095   45.1162 H   0  0  0  0  0  0  0  0  0  0  0  0
   59.1580   29.9113   47.1491 H   0  0  0  0  0  0  0  0  0  0  0  0
   59.6599   29.0877   45.6337 H   0  0  0  0  0  0  0  0  0  0  0  0
   59.3484   30.8568   45.6337 H   0  0  0  0  0  0  0  0  0  0  0  0
   59.0230   31.4250   44.7051 H   0  0  0  0  0  0  0  0  0  0  0  0
   58.2326   30.8026   43.1964 H   0  0  0  0  0  0  0  0  0  0  0  0
   58.0512   33.0016   42.6656 H   0  0  0  0  0  0  0  0  0  0  0  0
   56.6358   32.9468   43.7873 H   0  0  0  0  0  0  0  0  0  0  0  0
   56.9730   33.3812   46.8591 H   0  0  0  0  0  0  0  0  0  0  0  0
   57.9783   32.8474   49.0573 H   0  0  0  0  0  0  0  0  0  0  0  0
   60.4320   31.6980   51.4430 H   0  0  0  0  0  0  0  0  0  0  0  0
   59.1200   31.4870   50.5300 H   0  0  0  0  0  0  0  0  0  0  0  0
   59.9054   33.7681   52.1744 H   0  0  0  0  0  0  0  0  0  0  0  0
   58.9539   34.1101   50.6644 H   0  0  0  0  0  0  0  0  0  0  0  0
   57.9963   33.2188   53.2208 H   0  0  0  0  0  0  0  0  0  0  0  0
   57.0814   33.5365   51.6638 H   0  0  0  0  0  0  0  0  0  0  0  0
   55.6842   31.2477   53.0160 H   0  0  0  0  0  0  0  0  0  0  0  0
   55.5971   32.1432   51.4613 H   0  0  0  0  0  0  0  0  0  0  0  0
   55.8757   30.3686   51.4613 H   0  0  0  0  0  0  0  0  0  0  0  0
   57.8846   31.0755   54.0701 H   0  0  0  0  0  0  0  0  0  0  0  0
   57.8303   29.6628   52.9619 H   0  0  0  0  0  0  0  0  0  0  0  0
   59.2603   30.7499   52.9619 H   0  0  0  0  0  0  0  0  0  0  0  0
   62.1387   31.9492   51.7825 H   0  0  0  0  0  0  0  0  0  0  0  0
   64.6142   31.8032   51.8770 H   0  0  0  0  0  0  0  0  0  0  0  0
   65.9727   32.2790   49.8529 H   0  0  0  0  0  0  0  0  0  0  0  0
   64.8712   33.0033   47.7525 H   0  0  0  0  0  0  0  0  0  0  0  0
   63.8313   34.6819   46.8314 H   0  0  0  0  0  0  0  0  0  0  0  0
   63.5283   33.2904   45.7366 H   0  0  0  0  0  0  0  0  0  0  0  0
   62.4072   34.6939   45.7366 H   0  0  0  0  0  0  0  0  0  0  0  0
   60.8973   33.6816   45.1157 H   0  0  0  0  0  0  0  0  0  0  0  0
  1  2  1  0
  2  3  1  0
  3  4  1  0
  4  5  1  0
  3  6  1  0
  6  7  1  0
  7  8  1  0
  8  9  1  0
  9 10  2  0
 10 11  1  0
 11 12  2  0
 12 13  1  0
 13 14  1  0
 14 15  1  0
 15 16  1  0
 16 17  1  0
 17 18  1  0
 17 19  1  0
 13 20  2  0
 20 21  1  0
 21 22  2  0
 22 23  1  0
 23 24  2  0
 24 25  1  0
 25 26  2  0
 26 27  1  0
 26 28  1  0
 28 29  2  0
 29  9  1  0
 28 12  1  0
 25 20  1  0
  1 30  1  0
  1 31  1  0
  1 32  1  0
  2 33  1  0
  2 34  1  0
  4 35  1  0
  4 36  1  0
  5 37  1  0
  5 38  1  0
  5 39  1  0
  6 40  1  0
  6 41  1  0
  7 42  1  0
  7 43  1  0
 10 44  1  0
 11 45  1  0
 14 46  1  0
 14 47  1  0
 15 48  1  0
 15 49  1  0
 16 50  1  0
 16 51  1  0
 18 52  1  0
 18 53  1  0
 18 54  1  0
 19 55  1  0
 19 56  1  0
 19 57  1  0
 21 58  1  0
 22 59  1  0
 23 60  1  0
 24 61  1  0
 27 62  1  0
 27 63  1  0
 27 64  1  0
 29 65  1  0
M  CHG  2  14   1  26   1
M  END
>  <UniqueID>  (12) 
12

>  <SMILES>  (12) 
CCN(CC)CCOc1ccc2c([NH2+]CCN(C)C)c3ccccc3[n+](C)c2c1

>  <Energy>  (12) 
95.5956869321962

>  <Genealogy>  (12) 
CCN(CC)CCOc1ccc2c([NH2+]CCN(C)C)c3ccccc3[n+](C)c2c1 (protonated)
CCN(CC)CCOc1ccc2c([NH2+]CCN(C)C)c3ccccc3[n+](C)c2c1 (3D coordinates assigned)
CCN(CC)CCOc1ccc2c([NH2+]CCN(C)C)c3ccccc3[n+](C)c2c1 (optimized conformer: 95.5956869321962 kcal/mol)

>  <smiles>  (12) 
CCN(CC)CCOc1ccc2c(NCCN(C)C)c3ccccc3[n+](C)c2c1

>  <score_type>  (12) 
oracle

>  <origin>  (12) 
adg

>  <m_score__min__energy>  (12) 
-4.6399999999999997

>  <m_primary>  (12) 
energy

$$$$
12:0
     RDKit          3D

 63 65  0  0  0  0  0  0  0  0999 V2000
   63.2510   33.8460   46.3650 C   0  0  0  0  0  0  0  0  0  0  0  0
   63.7470   32.7350   47.2980 C   0  0  0  0  0  0  0  0  0  0  0  0
   62.9530   32.6310   48.5510 N   0  0  0  0  0  0  0  0  0  0  0  0
   62.2530   33.8930   48.9140 C   0  0  0  0  0  0  0  0  0  0  0  0
   62.7900   34.5740   50.1820 C   0  0  0  0  0  0  0  0  0  0  0  0
   63.8010   32.1420   49.6740 C   0  0  0  0  0  0  0  0  0  0  0  0
   63.2100   30.9030   50.3600 C   0  0  0  0  0  0  0  0  0  0  0  0
   62.1560   30.3980   49.5690 O   0  0  0  0  0  0  0  0  0  0  0  0
   60.9170   30.6640   50.1910 C   0  0  0  0  0  0  0  0  0  0  0  0
   59.9820   31.3270   49.1830 C   0  0  0  0  0  0  0  0  0  0  0  0
   60.2980   30.8970   47.8200 N   0  0  0  0  0  0  0  0  0  0  0  0
   59.3640   31.0850   46.7410 C   0  0  0  0  0  0  0  0  0  0  0  0
   59.1620   32.3780   46.2300 C   0  0  0  0  0  0  0  0  0  0  0  0
   59.6330   33.5150   46.9230 C   0  0  0  0  0  0  0  0  0  0  0  0
   59.4000   34.7970   46.4280 C   0  0  0  0  0  0  0  0  0  0  0  0
   58.6840   34.9680   45.2500 C   0  0  0  0  0  0  0  0  0  0  0  0
   58.2290   33.8580   44.5390 C   0  0  0  0  0  0  0  0  0  0  0  0
   58.5000   32.5400   44.9880 C   0  0  0  0  0  0  0  0  0  0  0  0
   58.1620   31.4300   44.2410 N   0  0  0  0  0  0  0  0  0  0  0  0
   57.7990   31.5870   42.8120 C   0  0  0  0  0  0  0  0  0  0  0  0
   58.1730   30.1730   44.8220 C   0  0  0  0  0  0  0  0  0  0  0  0
   57.6170   29.0570   44.1550 C   0  0  0  0  0  0  0  0  0  0  0  0
   57.6780   27.7850   44.7020 C   0  0  0  0  0  0  0  0  0  0  0  0
   58.2060   27.5780   45.9750 C   0  0  0  0  0  0  0  0  0  0  0  0
   58.2130   26.1720   46.5220 C   0  0  0  0  0  0  0  0  0  0  0  0
   58.6350   28.6900   46.7420 C   0  0  0  0  0  0  0  0  0  0  0  0
   58.8710   28.4980   48.2280 C   0  0  0  0  0  0  0  0  0  0  0  0
   58.7360   29.9780   46.1170 C   0  0  0  0  0  0  0  0  0  0  0  0
   62.8751   34.6880   46.9649 H   0  0  0  0  0  0  0  0  0  0  0  0
   64.0811   34.1897   45.7304 H   0  0  0  0  0  0  0  0  0  0  0  0
   62.4409   33.4574   45.7304 H   0  0  0  0  0  0  0  0  0  0  0  0
   63.6861   31.7754   46.7637 H   0  0  0  0  0  0  0  0  0  0  0  0
   64.7805   32.9815   47.5828 H   0  0  0  0  0  0  0  0  0  0  0  0
   62.1940   31.9280   48.3810 H   0  0  0  0  0  0  0  0  0  0  0  0
   62.3561   34.5972   48.0753 H   0  0  0  0  0  0  0  0  0  0  0  0
   61.2069   33.6235   49.1213 H   0  0  0  0  0  0  0  0  0  0  0  0
   62.3881   34.0644   51.0701 H   0  0  0  0  0  0  0  0  0  0  0  0
   63.8885   34.5165   50.1919 H   0  0  0  0  0  0  0  0  0  0  0  0
   62.4779   35.6288   50.1919 H   0  0  0  0  0  0  0  0  0  0  0  0
   64.7955   31.8863   49.2797 H   0  0  0  0  0  0  0  0  0  0  0  0
   63.8576   32.9445   50.4242 H   0  0  0  0  0  0  0  0  0  0  0  0
   63.9898   30.1349   50.4692 H   0  0  0  0  0  0  0  0  0  0  0  0
   62.8295   31.1757   51.3554 H   0  0  0  0  0  0  0  0  0  0  0  0
   60.4714   29.7214   50.5416 H   0  0  0  0  0  0  0  0  0  0  0  0
   61.0706   31.3345   51.0494 H   0  0  0  0  0  0  0  0  0  0  0  0
   58.9438   31.0492   49.4172 H   0  0  0  0  0  0  0  0  0  0  0  0
   60.1103   32.4176   49.2473 H   0  0  0  0  0  0  0  0  0  0  0  0
   61.1380   30.2940   47.6690 H   0  0  0  0  0  0  0  0  0  0  0  0
   60.1895   33.3875   47.8632 H   0  0  0  0  0  0  0  0  0  0  0  0
   59.7833   35.6738   46.9705 H   0  0  0  0  0  0  0  0  0  0  0  0
   58.4754   35.9816   44.8770 H   0  0  0  0  0  0  0  0  0  0  0  0
   57.6507   34.0069   43.6152 H   0  0  0  0  0  0  0  0  0  0  0  0
   56.7918   32.0226   42.7353 H   0  0  0  0  0  0  0  0  0  0  0  0
   58.5245   32.2518   42.3203 H   0  0  0  0  0  0  0  0  0  0  0  0
   57.8114   30.6031   42.3203 H   0  0  0  0  0  0  0  0  0  0  0  0
   57.1257   29.2014   43.1815 H   0  0  0  0  0  0  0  0  0  0  0  0
   57.3046   26.9272   44.1235 H   0  0  0  0  0  0  0  0  0  0  0  0
   58.2128   26.2063   47.6215 H   0  0  0  0  0  0  0  0  0  0  0  0
   57.3175   25.6378   46.1717 H   0  0  0  0  0  0  0  0  0  0  0  0
   59.1138   25.6468   46.1717 H   0  0  0  0  0  0  0  0  0  0  0  0
   58.1399   29.0928   48.7952 H   0  0  0  0  0  0  0  0  0  0  0  0
   58.7553   27.4343   48.4832 H   0  0  0  0  0  0  0  0  0  0  0  0
   59.8889   28.8277   48.4832 H   0  0  0  0  0  0  0  0  0  0  0  0
  1  2  1  0
  2  3  1  0
  3  4  1  0
  4  5  1  0
  3  6  1  0
  6  7  1  0
  7  8  1  0
  8  9  1  0
  9 10  1  0
 10 11  1  0
 11 12  1  0
 12 13  2  0
 13 14  1  0
 14 15  2  0
 15 16  1  0
 16 17  2  0
 17 18  1  0
 18 19  2  0
 19 20  1  0
 19 21  1  0
 21 22  2  0
 22 23  1  0
 23 24  2  0
 24 25  1  0
 24 26  1  0
 26 27  1  0
 26 28  2  0
 28 12  1  0
 18 13  1  0
 28 21  1  0
  1 29  1  0
  1 30  1  0
  1 31  1  0
  2 32  1  0
  2 33  1  0
  3 34  1  0
  4 35  1  0
  4 36  1  0
  5 37  1  0
  5 38  1  0
  5 39  1  0
  6 40  1  0
  6 41  1  0
  7 42  1  0
  7 43  1  0
  9 44  1  0
  9 45  1  0
 10 46  1  0
 10 47  1  0
 11 48  1  0
 14 49  1  0
 15 50  1  0
 16 51  1  0
 17 52  1  0
 20 53  1  0
 20 54  1  0
 20 55  1  0
 22 56  1  0
 23 57  1  0
 25 58  1  0
 25 59  1  0
 25 60  1  0
 27 61  1  0
 27 62  1  0
 27 63  1  0
M  CHG  2   3   1  19   1
M  END
>  <UniqueID>  (13) 
13

>  <SMILES>  (13) 
CC[NH+](CC)CCOCCNc1c2ccccc2[n+](C)c2ccc(C)c(C)c12

>  <Energy>  (13) 
96.66365466695905

>  <Genealogy>  (13) 
CC[NH+](CC)CCOCCNc1c2ccccc2[n+](C)c2ccc(C)c(C)c12 (protonated)
CC[NH+](CC)CCOCCNc1c2ccccc2[n+](C)c2ccc(C)c(C)c12 (3D coordinates assigned)
CC[NH+](CC)CCOCCNc1c2ccccc2[n+](C)c2ccc(C)c(C)c12 (optimized conformer: 96.66365466695905 kcal/mol)

>  <smiles>  (13) 
CCN(CC)CCOCCNc1c2ccccc2[n+](C)c2ccc(C)c(C)c12

>  <score_type>  (13) 
oracle

>  <origin>  (13) 
adg

>  <m_score__min__energy>  (13) 
-4.2699999999999996

>  <m_primary>  (13) 
energy

$$$$
13:0
     RDKit          3D

 41 42  0  0  0  0  0  0  0  0999 V2000
   56.6320   22.8040   48.5780 C   0  0  0  0  0  0  0  0  0  0  0  0
   55.5680   23.3800   47.6530 C   0  0  0  0  0  0  0  0  0  0  0  0
   55.9270   24.6910   47.2200 O   0  0  0  0  0  0  0  0  0  0  0  0
   55.5380   25.2280   45.9870 C   0  0  0  0  0  0  0  0  0  0  0  0
   54.9450   26.3390   45.9250 O   0  0  0  0  0  0  0  0  0  0  0  0
   55.8490   24.4800   44.7260 C   0  0  0  0  0  0  0  0  0  0  0  0
   57.3520   24.4720   44.4280 C   0  0  0  0  0  0  0  0  0  0  0  0
   57.9860   25.7860   44.7780 C   0  0  0  0  0  0  0  0  0  0  0  0
   58.7340   25.8620   45.7910 O   0  0  0  0  0  0  0  0  0  0  0  0
   57.7330   26.9440   43.9670 N   0  0  0  0  0  0  0  0  0  0  0  0
   58.0090   28.2930   44.3810 C   0  0  0  0  0  0  0  0  0  0  0  0
   59.1980   28.6240   45.0550 C   0  0  0  0  0  0  0  0  0  0  0  0
   59.4240   29.9330   45.4870 C   0  0  0  0  0  0  0  0  0  0  0  0
   58.4630   30.9360   45.2640 C   0  0  0  0  0  0  0  0  0  0  0  0
   58.7020   32.3280   45.7230 C   0  0  0  0  0  0  0  0  0  0  0  0
   58.5950   33.4080   44.8260 C   0  0  0  0  0  0  0  0  0  0  0  0
   58.8210   34.7160   45.2610 C   0  0  0  0  0  0  0  0  0  0  0  0
   59.1570   34.9630   46.5950 C   0  0  0  0  0  0  0  0  0  0  0  0
   59.2670   33.9010   47.4950 C   0  0  0  0  0  0  0  0  0  0  0  0
   59.0420   32.5900   47.0640 C   0  0  0  0  0  0  0  0  0  0  0  0
   57.2670   30.5960   44.6080 C   0  0  0  0  0  0  0  0  0  0  0  0
   57.0400   29.2850   44.1800 C   0  0  0  0  0  0  0  0  0  0  0  0
   56.3342   22.9652   49.6246 H   0  0  0  0  0  0  0  0  0  0  0  0
   56.7375   21.7256   48.3888 H   0  0  0  0  0  0  0  0  0  0  0  0
   57.5927   23.3052   48.3888 H   0  0  0  0  0  0  0  0  0  0  0  0
   55.4623   22.7266   46.7744 H   0  0  0  0  0  0  0  0  0  0  0  0
   54.6176   23.4392   48.2036 H   0  0  0  0  0  0  0  0  0  0  0  0
   55.5011   23.4419   44.8323 H   0  0  0  0  0  0  0  0  0  0  0  0
   55.3369   24.9840   43.8931 H   0  0  0  0  0  0  0  0  0  0  0  0
   57.8296   23.6757   45.0177 H   0  0  0  0  0  0  0  0  0  0  0  0
   57.4907   24.2964   43.3510 H   0  0  0  0  0  0  0  0  0  0  0  0
   57.3680   26.7930   43.0000 H   0  0  0  0  0  0  0  0  0  0  0  0
   59.9543   27.8477   45.2431 H   0  0  0  0  0  0  0  0  0  0  0  0
   60.3614   30.1817   46.0060 H   0  0  0  0  0  0  0  0  0  0  0  0
   58.3314   33.2203   43.7747 H   0  0  0  0  0  0  0  0  0  0  0  0
   58.7344   35.5530   44.5525 H   0  0  0  0  0  0  0  0  0  0  0  0
   59.3347   35.9937   46.9358 H   0  0  0  0  0  0  0  0  0  0  0  0
   59.5311   34.0961   48.5448 H   0  0  0  0  0  0  0  0  0  0  0  0
   59.1312   31.7576   47.7775 H   0  0  0  0  0  0  0  0  0  0  0  0
   56.5038   31.3679   44.4301 H   0  0  0  0  0  0  0  0  0  0  0  0
   56.0932   29.0299   43.6814 H   0  0  0  0  0  0  0  0  0  0  0  0
  1  2  1  0
  2  3  1  0
  3  4  1  0
  4  5  2  0
  4  6  1  0
  6  7  1  0
  7  8  1  0
  8  9  2  0
  8 10  1  0
 10 11  1  0
 11 12  2  0
 12 13  1  0
 13 14  2  0
 14 15  1  0
 15 16  2  0
 16 17  1  0
 17 18  2  0
 18 19  1  0
 19 20  2  0
 14 21  1  0
 21 22  2  0
 22 11  1  0
 20 15  1  0
  1 23  1  0
  1 24  1  0
  1 25  1  0
  2 26  1  0
  2 27  1  0
  6 28  1  0
  6 29  1  0
  7 30  1  0
  7 31  1  0
 10 32  1  0
 12 33  1  0
 13 34  1  0
 16 35  1  0
 17 36  1  0
 18 37  1  0
 19 38  1  0
 20 39  1  0
 21 40  1  0
 22 41  1  0
M  END
>  <UniqueID>  (14) 
14

>  <SMILES>  (14) 
CCOC(=O)CCC(=O)Nc1ccc(-c2ccccc2)cc1

>  <Energy>  (14) 
39.15470019932251

>  <Genealogy>  (14) 
CCOC(=O)CCC(=O)Nc1ccc(-c2ccccc2)cc1 (3D coordinates assigned)
CCOC(=O)CCC(=O)Nc1ccc(-c2ccccc2)cc1 (optimized conformer: 39.15470019932251 kcal/mol)

>  <smiles>  (14) 
CCOC(=O)CCC(=O)Nc1ccc(-c2ccccc2)cc1

>  <score_type>  (14) 
oracle

>  <origin>  (14) 
adg

>  <m_score__min__energy>  (14) 
-7.8200000000000003

>  <m_primary>  (14) 
energy

$$$$
14:0
     RDKit          3D

 39 43  0  0  0  0  0  0  0  0999 V2000
   55.4280   29.7140   43.3670 C   0  0  0  0  0  0  0  0  0  0  0  0
   55.7360   29.1390   44.6330 O   0  0  0  0  0  0  0  0  0  0  0  0
   56.9140   29.3920   45.3520 C   0  0  0  0  0  0  0  0  0  0  0  0
   57.5420   28.4080   46.1410 C   0  0  0  0  0  0  0  0  0  0  0  0
   58.7130   28.7070   46.8420 C   0  0  0  0  0  0  0  0  0  0  0  0
   59.2740   29.9890   46.7670 C   0  0  0  0  0  0  0  0  0  0  0  0
   60.4420   30.3040   47.4670 C   0  0  0  0  0  0  0  0  0  0  0  0
   60.9850   31.6000   47.3850 C   0  0  0  0  0  0  0  0  0  0  0  0
   60.3840   32.5370   46.5740 N   0  0  0  0  0  0  0  0  0  0  0  0
   59.2290   32.2480   45.9000 C   0  0  0  0  0  0  0  0  0  0  0  0
   58.6540   30.9750   45.9770 C   0  0  0  0  0  0  0  0  0  0  0  0
   57.4760   30.6710   45.2770 C   0  0  0  0  0  0  0  0  0  0  0  0
   60.9260   33.9050   46.4870 C   0  0  0  0  0  0  0  0  0  0  0  0
   62.4570   33.8950   46.5020 C   0  0  0  0  0  0  0  0  0  0  0  0
   62.9560   33.1130   47.6830 C   0  0  0  0  0  0  0  0  0  0  0  0
   64.1580   33.4860   48.3230 C   0  0  0  0  0  0  0  0  0  0  0  0
   64.5840   32.7220   49.4020 C   0  0  0  0  0  0  0  0  0  0  0  0
   63.8880   31.6460   49.8410 C   0  0  0  0  0  0  0  0  0  0  0  0
   62.7080   31.2290   49.2330 C   0  0  0  0  0  0  0  0  0  0  0  0
   62.2370   31.9630   48.1150 C   0  0  0  0  0  0  0  0  0  0  0  0
   64.5360   31.0910   50.9280 O   0  0  0  0  0  0  0  0  0  0  0  0
   65.7140   31.8660   51.1850 C   0  0  0  0  0  0  0  0  0  0  0  0
   65.7070   32.8980   50.1890 O   0  0  0  0  0  0  0  0  0  0  0  0
   54.9134   30.6747   43.5161 H   0  0  0  0  0  0  0  0  0  0  0  0
   56.3581   29.8798   42.8035 H   0  0  0  0  0  0  0  0  0  0  0  0
   54.7746   29.0316   42.8035 H   0  0  0  0  0  0  0  0  0  0  0  0
   57.1081   27.3992   46.2054 H   0  0  0  0  0  0  0  0  0  0  0  0
   59.1968   27.9327   47.4555 H   0  0  0  0  0  0  0  0  0  0  0  0
   60.9373   29.5385   48.0825 H   0  0  0  0  0  0  0  0  0  0  0  0
   58.7466   33.0261   45.2901 H   0  0  0  0  0  0  0  0  0  0  0  0
   56.9906   31.4449   44.6643 H   0  0  0  0  0  0  0  0  0  0  0  0
   60.5792   34.3697   45.5523 H   0  0  0  0  0  0  0  0  0  0  0  0
   60.5725   34.4762   47.3581 H   0  0  0  0  0  0  0  0  0  0  0  0
   62.8270   33.4311   45.5758 H   0  0  0  0  0  0  0  0  0  0  0  0
   62.8233   34.9297   46.5743 H   0  0  0  0  0  0  0  0  0  0  0  0
   64.7387   34.3542   47.9780 H   0  0  0  0  0  0  0  0  0  0  0  0
   62.1562   30.3548   49.6089 H   0  0  0  0  0  0  0  0  0  0  0  0
   65.6764   32.3027   52.1939 H   0  0  0  0  0  0  0  0  0  0  0  0
   66.6275   31.2550   51.1389 H   0  0  0  0  0  0  0  0  0  0  0  0
  1  2  1  0
  2  3  1  0
  3  4  2  0
  4  5  1  0
  5  6  2  0
  6  7  1  0
  7  8  2  0
  8  9  1  0
  9 10  2  0
 10 11  1  0
 11 12  2  0
  9 13  1  0
 13 14  1  0
 14 15  1  0
 15 16  2  0
 16 17  1  0
 17 18  2  0
 18 19  1  0
 19 20  2  0
 18 21  1  0
 21 22  1  0
 22 23  1  0
 12  3  1  0
 20 15  1  0
 11  6  1  0
 23 17  1  0
 20  8  1  0
  1 24  1  0
  1 25  1  0
  1 26  1  0
  4 27  1  0
  5 28  1  0
  7 29  1  0
 10 30  1  0
 12 31  1  0
 13 32  1  0
 13 33  1  0
 14 34  1  0
 14 35  1  0
 16 36  1  0
 19 37  1  0
 22 38  1  0
 22 39  1  0
M  CHG  1   9   1
M  END
>  <UniqueID>  (15) 
15

>  <SMILES>  (15) 
COc1ccc2cc3[n+](cc2c1)CCc1cc2c(cc1-3)OCO2

>  <Energy>  (15) 
81.36144099914006

>  <Genealogy>  (15) 
COc1ccc2cc3[n+](cc2c1)CCc1cc2c(cc1-3)OCO2 (3D coordinates assigned)
COc1ccc2cc3[n+](cc2c1)CCc1cc2c(cc1-3)OCO2 (nonaromatic ring conformer: 81.36144099914006 kcal/mol)

>  <smiles>  (15) 
COc1ccc2cc3[n+](cc2c1)CCc1cc2c(cc1-3)OCO2

>  <score_type>  (15) 
oracle

>  <origin>  (15) 
adg

>  <m_score__min__energy>  (15) 
-5.7800000000000002

>  <m_primary>  (15) 
energy

$$$$
15:0
     RDKit          3D

 48 50  0  0  0  0  0  0  0  0999 V2000
   56.9690   30.8310   42.6320 C   0  0  0  0  0  0  0  0  0  0  0  0
   56.4400   29.4670   43.0660 C   0  0  0  0  0  0  0  0  0  0  0  0
   56.4230   29.3530   44.5680 C   0  0  0  0  0  0  0  0  0  0  0  0
   56.8980   30.3040   45.2430 O   0  0  0  0  0  0  0  0  0  0  0  0
   55.9050   28.2100   45.2690 N   0  0  0  0  0  0  0  0  0  0  0  0
   56.5540   26.9230   45.5410 C   0  0  2  0  0  0  0  0  0  0  0  0
   55.5160   25.8730   45.9580 C   0  0  0  0  0  0  0  0  0  0  0  0
   57.6980   27.0800   46.5210 C   0  0  0  0  0  0  0  0  0  0  0  0
   58.0400   26.0950   47.2310 O   0  0  0  0  0  0  0  0  0  0  0  0
   58.3490   28.3470   46.7080 N   0  0  0  0  0  0  0  0  0  0  0  0
   59.5310   28.4890   47.5700 C   0  0  2  0  0  0  0  0  0  0  0  0
   59.1410   29.0290   48.9550 C   0  0  0  0  0  0  0  0  0  0  0  0
   59.3120   30.5410   48.8700 C   0  0  0  0  0  0  0  0  0  0  0  0
   60.1900   30.7560   47.7360 N   0  0  0  0  0  0  0  0  0  0  0  0
   60.5720   32.0580   47.2780 C   0  0  0  0  0  0  0  0  0  0  0  0
   61.8640   32.5210   47.5460 C   0  0  0  0  0  0  0  0  0  0  0  0
   62.2580   33.7780   47.0820 C   0  0  0  0  0  0  0  0  0  0  0  0
   61.3920   34.5480   46.3740 N   0  0  0  0  0  0  0  0  0  0  0  0
   60.1270   34.1330   46.0960 C   0  0  0  0  0  0  0  0  0  0  0  0
   59.2670   34.9610   45.3640 C   0  0  0  0  0  0  0  0  0  0  0  0
   57.9640   34.5430   45.0830 C   0  0  0  0  0  0  0  0  0  0  0  0
   57.5120   33.3010   45.5340 C   0  0  0  0  0  0  0  0  0  0  0  0
   58.3620   32.4640   46.2630 C   0  0  0  0  0  0  0  0  0  0  0  0
   59.6790   32.8690   46.5490 C   0  0  0  0  0  0  0  0  0  0  0  0
   60.4830   29.5430   46.9980 C   0  0  0  0  0  0  0  0  0  0  0  0
   57.2028   31.4337   43.5220 H   0  0  0  0  0  0  0  0  0  0  0  0
   57.8802   30.6965   42.0306 H   0  0  0  0  0  0  0  0  0  0  0  0
   56.2054   31.3460   42.0306 H   0  0  0  0  0  0  0  0  0  0  0  0
   55.4169   29.3385   42.6830 H   0  0  0  0  0  0  0  0  0  0  0  0
   57.1014   28.6871   42.6607 H   0  0  0  0  0  0  0  0  0  0  0  0
   57.0134   26.5482   44.6145 H   0  0  0  0  0  0  0  0  0  0  0  0
   55.4661   25.8225   47.0557 H   0  0  0  0  0  0  0  0  0  0  0  0
   54.5301   26.1532   45.5586 H   0  0  0  0  0  0  0  0  0  0  0  0
   55.8076   24.8904   45.5586 H   0  0  0  0  0  0  0  0  0  0  0  0
   57.9590   29.1900   46.2320 H   0  0  0  0  0  0  0  0  0  0  0  0
   59.9920   27.4922   47.6322 H   0  0  0  0  0  0  0  0  0  0  0  0
   58.0964   28.7734   49.1863 H   0  0  0  0  0  0  0  0  0  0  0  0
   59.7631   28.5937   49.7509 H   0  0  0  0  0  0  0  0  0  0  0  0
   58.3411   31.0313   48.7057 H   0  0  0  0  0  0  0  0  0  0  0  0
   59.7248   30.9631   49.7981 H   0  0  0  0  0  0  0  0  0  0  0  0
   62.5665   31.8983   48.1194 H   0  0  0  0  0  0  0  0  0  0  0  0
   63.2735   34.1456   47.2908 H   0  0  0  0  0  0  0  0  0  0  0  0
   59.6178   35.9416   45.0099 H   0  0  0  0  0  0  0  0  0  0  0  0
   57.2920   35.1941   44.5047 H   0  0  0  0  0  0  0  0  0  0  0  0
   56.4830   32.9800   45.3148 H   0  0  0  0  0  0  0  0  0  0  0  0
   58.0004   31.4862   46.6140 H   0  0  0  0  0  0  0  0  0  0  0  0
   60.2964   29.6897   45.9239 H   0  0  0  0  0  0  0  0  0  0  0  0
   61.5369   29.2441   47.0975 H   0  0  0  0  0  0  0  0  0  0  0  0
  1  2  1  0
  2  3  1  0
  3  4  2  0
  3  5  1  0
  5  6  1  0
  6  7  1  0
  6  8  1  0
  8  9  2  0
  8 10  1  0
 10 11  1  0
 11 12  1  0
 12 13  1  0
 13 14  1  0
 14 15  1  0
 15 16  2  0
 16 17  1  0
 17 18  2  0
 18 19  1  0
 19 20  2  0
 20 21  1  0
 21 22  2  0
 22 23  1  0
 23 24  2  0
 14 25  1  0
 25 11  1  0
 24 15  1  0
 24 19  1  0
  1 26  1  0
  1 27  1  0
  1 28  1  0
  2 29  1  0
  2 30  1  0
  6 31  1  6
  7 32  1  0
  7 33  1  0
  7 34  1  0
 10 35  1  0
 11 36  1  1
 12 37  1  0
 12 38  1  0
 13 39  1  0
 13 40  1  0
 16 41  1  0
 17 42  1  0
 20 43  1  0
 21 44  1  0
 22 45  1  0
 23 46  1  0
 25 47  1  0
 25 48  1  0
M  CHG  1   5  -1
M  END
>  <UniqueID>  (16) 
16

>  <SMILES>  (16) 
CCC(=O)[N-][C@H](C)C(=O)N[C@@H]1CCN(c2ccnc3ccccc23)C1

>  <Energy>  (16) 
51.68243870433014

>  <Genealogy>  (16) 
CCC(=O)[N-]C(C)C(=O)NC1CCN(c2ccnc3ccccc23)C1 (protonated)
CCC(=O)[N-][C@H](C)C(=O)N[C@@H]1CCN(c2ccnc3ccccc23)C1 (chirality)
CCC(=O)[N-][C@H](C)C(=O)N[C@@H]1CCN(c2ccnc3ccccc23)C1 (3D coordinates assigned)
CCC(=O)[N-][C@H](C)C(=O)N[C@@H]1CCN(c2ccnc3ccccc23)C1 (nonaromatic ring conformer: 51.68243870433014 kcal/mol)

>  <smiles>  (16) 
CCC(=O)NC(C)C(=O)NC1CCN(c2ccnc3ccccc23)C1

>  <score_type>  (16) 
oracle

>  <origin>  (16) 
adg

>  <m_score__min__energy>  (16) 
-10.050000000000001

>  <m_primary>  (16) 
energy

$$$$
16:0
     RDKit          3D

 27 28  0  0  0  0  0  0  0  0999 V2000
   57.1590   27.1400   45.9690 C   0  0  0  0  0  0  0  0  0  0  0  0
   58.2180   27.2910   44.8700 C   0  0  0  0  0  0  0  0  0  0  0  0
   59.5660   27.7210   45.4650 C   0  0  0  0  0  0  0  0  0  0  0  0
   57.7520   28.2380   43.7420 C   0  0  0  0  0  0  0  0  0  0  0  0
   57.4850   29.6380   44.2140 C   0  0  0  0  0  0  0  0  0  0  0  0
   56.2510   30.1350   44.4370 N   0  0  0  0  0  0  0  0  0  0  0  0
   56.4470   31.3470   44.8670 O   0  0  0  0  0  0  0  0  0  0  0  0
   57.7330   31.6000   44.9160 C   0  0  0  0  0  0  0  0  0  0  0  0
   58.3080   32.8760   45.3630 C   0  0  0  0  0  0  0  0  0  0  0  0
   58.7900   33.8940   44.5500 C   0  0  0  0  0  0  0  0  0  0  0  0
   59.2780   34.9910   45.2730 C   0  0  0  0  0  0  0  0  0  0  0  0
   59.1820   34.8380   46.6500 C   0  0  0  0  0  0  0  0  0  0  0  0
   58.4890   33.3400   46.9680 S   0  0  0  0  0  0  0  0  0  0  0  0
   58.4430   30.5340   44.5080 N   0  0  0  0  0  0  0  0  0  0  0  0
   57.6415   27.2088   46.9551 H   0  0  0  0  0  0  0  0  0  0  0  0
   56.4112   27.9406   45.8701 H   0  0  0  0  0  0  0  0  0  0  0  0
   56.6647   26.1623   45.8701 H   0  0  0  0  0  0  0  0  0  0  0  0
   58.3595   26.3040   44.4055 H   0  0  0  0  0  0  0  0  0  0  0  0
   59.5050   27.7015   46.5631 H   0  0  0  0  0  0  0  0  0  0  0  0
   60.3525   27.0291   45.1291 H   0  0  0  0  0  0  0  0  0  0  0  0
   59.8066   28.7405   45.1291 H   0  0  0  0  0  0  0  0  0  0  0  0
   58.5349   28.2732   42.9701 H   0  0  0  0  0  0  0  0  0  0  0  0
   56.8036   27.8391   43.3529 H   0  0  0  0  0  0  0  0  0  0  0  0
   58.7888   33.8442   43.4511 H   0  0  0  0  0  0  0  0  0  0  0  0
   59.6975   35.8885   44.7949 H   0  0  0  0  0  0  0  0  0  0  0  0
   59.5043   35.5716   47.4036 H   0  0  0  0  0  0  0  0  0  0  0  0
   59.4800   30.4200   44.4420 H   0  0  0  0  0  0  0  0  0  0  0  0
  1  2  1  0
  2  3  1  0
  2  4  1  0
  4  5  1  0
  5  6  2  0
  6  7  1  0
  7  8  1  0
  8  9  1  0
  9 10  2  0
 10 11  1  0
 11 12  2  0
 12 13  1  0
  8 14  2  0
 14  5  1  0
 13  9  1  0
  1 15  1  0
  1 16  1  0
  1 17  1  0
  2 18  1  0
  3 19  1  0
  3 20  1  0
  3 21  1  0
  4 22  1  0
  4 23  1  0
 10 24  1  0
 11 25  1  0
 12 26  1  0
 14 27  1  0
M  CHG  1  14   1
M  END
>  <UniqueID>  (17) 
17

>  <SMILES>  (17) 
CC(C)Cc1noc(-c2cccs2)[nH+]1

>  <Energy>  (17) 
80.65213477390157

>  <Genealogy>  (17) 
CC(C)Cc1noc(-c2cccs2)[nH+]1 (protonated)
CC(C)Cc1noc(-c2cccs2)[nH+]1 (3D coordinates assigned)
CC(C)Cc1noc(-c2cccs2)[nH+]1 (optimized conformer: 80.65213477390157 kcal/mol)

>  <smiles>  (17) 
CC(C)Cc1noc(-c2cccs2)n1

>  <score_type>  (17) 
oracle

>  <origin>  (17) 
adg

>  <m_score__min__energy>  (17) 
-4.96

>  <m_primary>  (17) 
energy

$$$$
17:0
     RDKit          3D

 56 58  0  0  0  0  0  0  0  0999 V2000
   66.1490   32.1650   50.1930 C   0  0  0  0  0  0  0  0  0  0  0  0
   65.1660   33.2080   49.6520 C   0  0  0  0  0  0  0  0  0  0  0  0
   64.1720   32.6380   48.7020 N   0  0  0  0  0  0  0  0  0  0  0  0
   63.3250   33.7410   48.1780 C   0  0  0  0  0  0  0  0  0  0  0  0
   63.3480   33.8200   46.6460 C   0  0  0  0  0  0  0  0  0  0  0  0
   63.3340   31.5840   49.3530 C   0  0  0  0  0  0  0  0  0  0  0  0
   61.8450   31.6390   48.9350 C   0  0  0  0  0  0  0  0  0  0  0  0
   61.5330   30.8780   47.6330 C   0  0  0  0  0  0  0  0  0  0  0  0
   60.1640   30.3600   47.6270 N   0  0  0  0  0  0  0  0  0  0  0  0
   59.3120   30.5140   46.4770 C   0  0  0  0  0  0  0  0  0  0  0  0
   58.7630   31.7700   46.1620 C   0  0  0  0  0  0  0  0  0  0  0  0
   58.9590   32.8810   47.0100 C   0  0  0  0  0  0  0  0  0  0  0  0
   58.3880   34.1150   46.7130 C   0  0  0  0  0  0  0  0  0  0  0  0
   57.6010   34.2620   45.5770 C   0  0  0  0  0  0  0  0  0  0  0  0
   57.4010   33.1820   44.7180 C   0  0  0  0  0  0  0  0  0  0  0  0
   58.0040   31.9230   44.9710 C   0  0  0  0  0  0  0  0  0  0  0  0
   57.8590   30.8600   44.1000 N   0  0  0  0  0  0  0  0  0  0  0  0
   57.3380   31.0880   42.7330 C   0  0  0  0  0  0  0  0  0  0  0  0
   58.2190   29.5860   44.4990 C   0  0  0  0  0  0  0  0  0  0  0  0
   57.8280   28.4370   43.7650 C   0  0  0  0  0  0  0  0  0  0  0  0
   58.2320   27.1530   44.1530 C   0  0  0  0  0  0  0  0  0  0  0  0
   57.7790   25.9510   43.3770 C   0  0  0  0  0  0  0  0  0  0  0  0
   58.9870   26.9910   45.3160 C   0  0  0  0  0  0  0  0  0  0  0  0
   59.3510   28.0980   46.0770 C   0  0  0  0  0  0  0  0  0  0  0  0
   58.9770   29.3990   45.6850 C   0  0  0  0  0  0  0  0  0  0  0  0
   66.1331   32.1819   51.2928 H   0  0  0  0  0  0  0  0  0  0  0  0
   65.8563   31.1661   49.8374 H   0  0  0  0  0  0  0  0  0  0  0  0
   67.1635   32.3981   49.8374 H   0  0  0  0  0  0  0  0  0  0  0  0
   64.6245   33.6516   50.5005 H   0  0  0  0  0  0  0  0  0  0  0  0
   65.7537   33.9568   49.1007 H   0  0  0  0  0  0  0  0  0  0  0  0
   64.7070   32.2390   47.8980 H   0  0  0  0  0  0  0  0  0  0  0  0
   62.2884   33.5773   48.5076 H   0  0  0  0  0  0  0  0  0  0  0  0
   63.7279   34.6872   48.5683 H   0  0  0  0  0  0  0  0  0  0  0  0
   63.6430   34.8332   46.3355 H   0  0  0  0  0  0  0  0  0  0  0  0
   64.0711   33.0907   46.2520 H   0  0  0  0  0  0  0  0  0  0  0  0
   62.3464   33.5928   46.2520 H   0  0  0  0  0  0  0  0  0  0  0  0
   63.7374   30.5983   49.0779 H   0  0  0  0  0  0  0  0  0  0  0  0
   63.3739   31.7609   50.4379 H   0  0  0  0  0  0  0  0  0  0  0  0
   61.2418   31.2020   49.7444 H   0  0  0  0  0  0  0  0  0  0  0  0
   61.6040   32.6965   48.7519 H   0  0  0  0  0  0  0  0  0  0  0  0
   61.6598   31.5617   46.7807 H   0  0  0  0  0  0  0  0  0  0  0  0
   62.2240   30.0254   47.5586 H   0  0  0  0  0  0  0  0  0  0  0  0
   59.7600   29.9730   48.5060 H   0  0  0  0  0  0  0  0  0  0  0  0
   59.5709   32.7702   47.9173 H   0  0  0  0  0  0  0  0  0  0  0  0
   58.5597   34.9744   47.3778 H   0  0  0  0  0  0  0  0  0  0  0  0
   57.1345   35.2331   45.3549 H   0  0  0  0  0  0  0  0  0  0  0  0
   56.7651   33.3083   43.8294 H   0  0  0  0  0  0  0  0  0  0  0  0
   56.3318   31.5283   42.7928 H   0  0  0  0  0  0  0  0  0  0  0  0
   58.0077   31.7753   42.1953 H   0  0  0  0  0  0  0  0  0  0  0  0
   57.2875   30.1297   42.1953 H   0  0  0  0  0  0  0  0  0  0  0  0
   57.1950   28.5565   42.8734 H   0  0  0  0  0  0  0  0  0  0  0  0
   57.4792   25.1555   44.0751 H   0  0  0  0  0  0  0  0  0  0  0  0
   56.9224   26.2250   42.7436 H   0  0  0  0  0  0  0  0  0  0  0  0
   58.6033   25.5915   42.7436 H   0  0  0  0  0  0  0  0  0  0  0  0
   59.2957   25.9837   45.6324 H   0  0  0  0  0  0  0  0  0  0  0  0
   59.9382   27.9556   46.9962 H   0  0  0  0  0  0  0  0  0  0  0  0
  1  2  1  0
  2  3  1  0
  3  4  1  0
  4  5  1  0
  3  6  1  0
  6  7  1  0
  7  8  1  0
  8  9  1  0
  9 10  1  0
 10 11  2  0
 11 12  1  0
 12 13  2  0
 13 14  1  0
 14 15  2  0
 15 16  1  0
 16 17  2  0
 17 18  1  0
 17 19  1  0
 19 20  2  0
 20 21  1  0
 21 22  1  0
 21 23  2  0
 23 24  1  0
 24 25  2  0
 25 10  1  0
 16 11  1  0
 25 19  1  0
  1 26  1  0
  1 27  1  0
  1 28  1  0
  2 29  1  0
  2 30  1  0
  3 31  1  0
  4 32  1  0
  4 33  1  0
  5 34  1  0
  5 35  1  0
  5 36  1  0
  6 37  1  0
  6 38  1  0
  7 39  1  0
  7 40  1  0
  8 41  1  0
  8 42  1  0
  9 43  1  0
 12 44  1  0
 13 45  1  0
 14 46  1  0
 15 47  1  0
 18 48  1  0
 18 49  1  0
 18 50  1  0
 20 51  1  0
 22 52  1  0
 22 53  1  0
 22 54  1  0
 23 55  1  0
 24 56  1  0
M  CHG  2   3   1  17   1
M  END
>  <UniqueID>  (18) 
18

>  <SMILES>  (18) 
CC[NH+](CC)CCCNc1c2ccccc2[n+](C)c2cc(C)ccc12

>  <Energy>  (18) 
84.43304269920252

>  <Genealogy>  (18) 
CC[NH+](CC)CCCNc1c2ccccc2[n+](C)c2cc(C)ccc12 (protonated)
CC[NH+](CC)CCCNc1c2ccccc2[n+](C)c2cc(C)ccc12 (3D coordinates assigned)
CC[NH+](CC)CCCNc1c2ccccc2[n+](C)c2cc(C)ccc12 (optimized conformer: 84.43304269920252 kcal/mol)

>  <smiles>  (18) 
CCN(CC)CCCNc1c2ccccc2[n+](C)c2cc(C)ccc12

>  <score_type>  (18) 
oracle

>  <origin>  (18) 
adg

>  <m_score__min__energy>  (18) 
-4.8399999999999999

>  <m_primary>  (18) 
energy

$$$$
18:0
     RDKit          3D

 52 54  0  0  0  0  0  0  0  0999 V2000
   57.6350   29.8240   45.2160 C   0  0  0  0  0  0  0  0  0  0  0  0
   59.0070   30.3430   45.6330 C   0  0  0  0  0  0  0  0  0  0  0  0
   59.5860   29.4770   46.6850 N   0  0  0  0  0  0  0  0  0  0  0  0
   60.3850   28.3640   46.1160 C   0  0  0  0  0  0  0  0  0  0  0  0
   61.0880   28.7060   44.7940 C   0  0  0  0  0  0  0  0  0  0  0  0
   58.5590   29.0460   47.6650 C   0  0  0  0  0  0  0  0  0  0  0  0
   58.9590   29.3840   49.1110 C   0  0  0  0  0  0  0  0  0  0  0  0
   60.4040   29.6410   49.2160 N   0  0  0  0  0  0  0  0  0  0  0  0
   60.7740   30.3600   50.4510 C   0  0  0  0  0  0  0  0  0  0  0  0
   60.2490   31.8100   50.4850 C   0  0  0  0  0  0  0  0  0  0  0  0
   60.1690   32.4300   49.1030 C   0  0  0  0  0  0  0  0  0  0  0  0
   58.8960   32.6530   48.5680 C   0  0  0  0  0  0  0  0  0  0  0  0
   58.7250   33.2600   47.3240 C   0  0  0  0  0  0  0  0  0  0  0  0
   57.4230   33.4630   46.8370 C   0  0  0  0  0  0  0  0  0  0  0  0
   57.2170   34.0670   45.6000 C   0  0  0  0  0  0  0  0  0  0  0  0
   58.3060   34.4750   44.8370 C   0  0  0  0  0  0  0  0  0  0  0  0
   59.6070   34.2830   45.3050 C   0  0  0  0  0  0  0  0  0  0  0  0
   59.8500   33.6710   46.5620 C   0  0  0  0  0  0  0  0  0  0  0  0
   61.1610   33.4560   47.0870 C   0  0  0  0  0  0  0  0  0  0  0  0
   62.3300   33.8450   46.3840 C   0  0  0  0  0  0  0  0  0  0  0  0
   63.5980   33.6300   46.9190 C   0  0  0  0  0  0  0  0  0  0  0  0
   63.7420   33.0270   48.1600 C   0  0  0  0  0  0  0  0  0  0  0  0
   62.6190   32.6300   48.8780 C   0  0  0  0  0  0  0  0  0  0  0  0
   61.3160   32.8320   48.3670 C   0  0  0  0  0  0  0  0  0  0  0  0
   57.0399   29.5989   46.1133 H   0  0  0  0  0  0  0  0  0  0  0  0
   57.1200   30.5894   44.6170 H   0  0  0  0  0  0  0  0  0  0  0  0
   57.7555   28.9093   44.6170 H   0  0  0  0  0  0  0  0  0  0  0  0
   59.6744   30.3474   44.7586 H   0  0  0  0  0  0  0  0  0  0  0  0
   58.8983   31.3634   46.0293 H   0  0  0  0  0  0  0  0  0  0  0  0
   61.1521   28.0790   46.8511 H   0  0  0  0  0  0  0  0  0  0  0  0
   59.6803   27.5481   45.8977 H   0  0  0  0  0  0  0  0  0  0  0  0
   62.0586   29.1782   45.0063 H   0  0  0  0  0  0  0  0  0  0  0  0
   61.2474   27.7847   44.2144 H   0  0  0  0  0  0  0  0  0  0  0  0
   60.4616   29.4000   44.2144 H   0  0  0  0  0  0  0  0  0  0  0  0
   57.6114   29.5535   47.4316 H   0  0  0  0  0  0  0  0  0  0  0  0
   58.4568   27.9534   47.5891 H   0  0  0  0  0  0  0  0  0  0  0  0
   58.4104   30.2807   49.4350 H   0  0  0  0  0  0  0  0  0  0  0  0
   58.7100   28.5251   49.7516 H   0  0  0  0  0  0  0  0  0  0  0  0
   60.7220   30.1700   48.3700 H   0  0  0  0  0  0  0  0  0  0  0  0
   60.3571   29.8161   51.3114 H   0  0  0  0  0  0  0  0  0  0  0  0
   61.8724   30.4070   50.4876 H   0  0  0  0  0  0  0  0  0  0  0  0
   59.2435   31.8110   50.9311 H   0  0  0  0  0  0  0  0  0  0  0  0
   60.9552   32.4079   51.0798 H   0  0  0  0  0  0  0  0  0  0  0  0
   58.0099   32.3427   49.1412 H   0  0  0  0  0  0  0  0  0  0  0  0
   56.5594   33.1421   47.4380 H   0  0  0  0  0  0  0  0  0  0  0  0
   56.1940   34.2215   45.2262 H   0  0  0  0  0  0  0  0  0  0  0  0
   58.1411   34.9516   43.8594 H   0  0  0  0  0  0  0  0  0  0  0  0
   60.4575   34.6114   44.6895 H   0  0  0  0  0  0  0  0  0  0  0  0
   62.2335   34.3249   45.3989 H   0  0  0  0  0  0  0  0  0  0  0  0
   64.4898   33.9400   46.3545 H   0  0  0  0  0  0  0  0  0  0  0  0
   64.7465   32.8625   48.5770 H   0  0  0  0  0  0  0  0  0  0  0  0
   62.7465   32.1508   49.8599 H   0  0  0  0  0  0  0  0  0  0  0  0
  1  2  1  0
  2  3  1  0
  3  4  1  0
  4  5  1  0
  3  6  1  0
  6  7  1  0
  7  8  1  0
  8  9  1  0
  9 10  1  0
 10 11  1  0
 11 12  2  0
 12 13  1  0
 13 14  2  0
 14 15  1  0
 15 16  2  0
 16 17  1  0
 17 18  2  0
 18 19  1  0
 19 20  2  0
 20 21  1  0
 21 22  2  0
 22 23  1  0
 23 24  2  0
 24 11  1  0
 18 13  1  0
 24 19  1  0
  1 25  1  0
  1 26  1  0
  1 27  1  0
  2 28  1  0
  2 29  1  0
  4 30  1  0
  4 31  1  0
  5 32  1  0
  5 33  1  0
  5 34  1  0
  6 35  1  0
  6 36  1  0
  7 37  1  0
  7 38  1  0
  8 39  1  0
  9 40  1  0
  9 41  1  0
 10 42  1  0
 10 43  1  0
 12 44  1  0
 14 45  1  0
 15 46  1  0
 16 47  1  0
 17 48  1  0
 20 49  1  0
 21 50  1  0
 22 51  1  0
 23 52  1  0
M  END
>  <UniqueID>  (19) 
19

>  <SMILES>  (19) 
CCN(CC)CCNCCc1cc2ccccc2c2ccccc12

>  <Energy>  (19) 
68.70246465634317

>  <Genealogy>  (19) 
CCN(CC)CCNCCc1cc2ccccc2c2ccccc12 (3D coordinates assigned)
CCN(CC)CCNCCc1cc2ccccc2c2ccccc12 (optimized conformer: 68.70246465634317 kcal/mol)

>  <smiles>  (19) 
CCN(CC)CCNCCc1cc2ccccc2c2ccccc12

>  <score_type>  (19) 
oracle

>  <origin>  (19) 
adg

>  <m_score__min__energy>  (19) 
-7.5800000000000001

>  <m_primary>  (19) 
energy

$$$$
19:0
     RDKit          3D

 46 48  0  0  0  0  0  0  0  0999 V2000
   60.3400   26.4120   46.9050 C   0  0  0  0  0  0  0  0  0  0  0  0
   59.0350   26.9230   47.5090 C   0  0  0  0  0  0  0  0  0  0  0  0
   58.3350   27.8690   46.5560 C   0  0  0  0  0  0  0  0  0  0  0  0
   57.1450   27.5590   45.8690 C   0  0  0  0  0  0  0  0  0  0  0  0
   56.4090   26.2790   45.7970 C   0  0  0  0  0  0  0  0  0  0  0  0
   57.0730   24.9810   45.4640 C   0  0  0  0  0  0  0  0  0  0  0  0
   55.1640   26.2830   45.9950 O   0  0  0  0  0  0  0  0  0  0  0  0
   56.5620   28.9670   45.1630 S   0  0  0  0  0  0  0  0  0  0  0  0
   57.7920   29.9880   45.6700 C   0  0  0  0  0  0  0  0  0  0  0  0
   57.8570   31.4330   45.3560 C   0  0  0  0  0  0  0  0  0  0  0  0
   57.7680   31.8890   44.0280 C   0  0  0  0  0  0  0  0  0  0  0  0
   57.8330   33.2560   43.7460 C   0  0  0  0  0  0  0  0  0  0  0  0
   57.9740   34.1810   44.7830 C   0  0  0  0  0  0  0  0  0  0  0  0
   58.0470   33.7400   46.1070 C   0  0  0  0  0  0  0  0  0  0  0  0
   58.1790   34.6370   47.1140 F   0  0  0  0  0  0  0  0  0  0  0  0
   57.9840   32.3720   46.3940 C   0  0  0  0  0  0  0  0  0  0  0  0
   58.6920   29.2390   46.4370 C   0  0  0  0  0  0  0  0  0  0  0  0
   59.8310   29.8520   47.1530 C   0  0  0  0  0  0  0  0  0  0  0  0
   60.8770   30.4540   46.4380 C   0  0  0  0  0  0  0  0  0  0  0  0
   61.9370   31.0610   47.1190 C   0  0  0  0  0  0  0  0  0  0  0  0
   61.9550   31.0760   48.5190 C   0  0  0  0  0  0  0  0  0  0  0  0
   63.2850   31.8410   49.3680 S   0  0  0  0  0  0  0  0  0  0  0  0
   62.7350   32.7000   50.8240 C   0  0  0  0  0  0  0  0  0  0  0  0
   64.1610   32.8460   48.3450 O   0  0  0  0  0  0  0  0  0  0  0  0
   60.9100   30.4800   49.2360 C   0  0  0  0  0  0  0  0  0  0  0  0
   59.8500   29.8730   48.5570 C   0  0  0  0  0  0  0  0  0  0  0  0
   61.0357   26.1396   47.7123 H   0  0  0  0  0  0  0  0  0  0  0  0
   60.1350   25.5277   46.2837 H   0  0  0  0  0  0  0  0  0  0  0  0
   60.7899   27.2004   46.2837 H   0  0  0  0  0  0  0  0  0  0  0  0
   58.3752   26.0680   47.7178 H   0  0  0  0  0  0  0  0  0  0  0  0
   59.2652   27.4651   48.4380 H   0  0  0  0  0  0  0  0  0  0  0  0
   57.3410   24.4572   46.3934 H   0  0  0  0  0  0  0  0  0  0  0  0
   56.3836   24.3565   44.8768 H   0  0  0  0  0  0  0  0  0  0  0  0
   57.9828   25.1746   44.8768 H   0  0  0  0  0  0  0  0  0  0  0  0
   57.6467   31.1660   43.2079 H   0  0  0  0  0  0  0  0  0  0  0  0
   57.7730   33.6046   42.7044 H   0  0  0  0  0  0  0  0  0  0  0  0
   58.0276   35.2563   44.5575 H   0  0  0  0  0  0  0  0  0  0  0  0
   58.0342   32.0295   47.4381 H   0  0  0  0  0  0  0  0  0  0  0  0
   60.8634   30.4486   45.3381 H   0  0  0  0  0  0  0  0  0  0  0  0
   62.7577   31.5273   46.5541 H   0  0  0  0  0  0  0  0  0  0  0  0
   63.0796   32.1618   51.7193 H   0  0  0  0  0  0  0  0  0  0  0  0
   63.1489   33.7191   50.8268 H   0  0  0  0  0  0  0  0  0  0  0  0
   61.6362   32.7505   50.8268 H   0  0  0  0  0  0  0  0  0  0  0  0
   64.5520   32.2400   47.6670 H   0  0  0  0  0  0  0  0  0  0  0  0
   60.9236   30.4897   50.3359 H   0  0  0  0  0  0  0  0  0  0  0  0
   59.0285   29.4105   49.1238 H   0  0  0  0  0  0  0  0  0  0  0  0
  1  2  1  0
  2  3  1  0
  3  4  2  0
  4  5  1  0
  5  6  1  0
  5  7  2  0
  4  8  1  0
  8  9  1  0
  9 10  1  0
 10 11  2  0
 11 12  1  0
 12 13  2  0
 13 14  1  0
 14 15  1  0
 14 16  2  0
  9 17  2  0
 17 18  1  0
 18 19  2  0
 19 20  1  0
 20 21  2  0
 21 22  1  0
 22 23  1  0
 22 24  1  6
 21 25  1  0
 25 26  2  0
 17  3  1  0
 26 18  1  0
 16 10  1  0
  1 27  1  0
  1 28  1  0
  1 29  1  0
  2 30  1  0
  2 31  1  0
  6 32  1  0
  6 33  1  0
  6 34  1  0
 11 35  1  0
 12 36  1  0
 13 37  1  0
 16 38  1  0
 19 39  1  0
 20 40  1  0
 23 41  1  0
 23 42  1  0
 23 43  1  0
 24 44  1  0
 25 45  1  0
 26 46  1  0
M  CHG  1  22   1
M  END
>  <UniqueID>  (20) 
20

>  <SMILES>  (20) 
CCc1c(C(C)=O)sc(-c2cccc(F)c2)c1-c1ccc([S@+](C)O)cc1

>  <Energy>  (20) 
79.93145843967777

>  <Genealogy>  (20) 
CCc1c(C(C)=O)sc(-c2cccc(F)c2)c1-c1ccc([S+](C)O)cc1 (protonated)
CCc1c(C(C)=O)sc(-c2cccc(F)c2)c1-c1ccc([S@+](C)O)cc1 (chirality)
CCc1c(C(C)=O)sc(-c2cccc(F)c2)c1-c1ccc([S@+](C)O)cc1 (3D coordinates assigned)
CCc1c(C(C)=O)sc(-c2cccc(F)c2)c1-c1ccc([S@+](C)O)cc1 (optimized conformer: 79.93145843967777 kcal/mol)

>  <smiles>  (20) 
CCc1c(C(C)=O)sc(-c2cccc(F)c2)c1-c1ccc([S+](C)[O-])cc1

>  <score_type>  (20) 
oracle

>  <origin>  (20) 
adg

>  <m_score__min__energy>  (20) 
-7.6100000000000003

>  <m_primary>  (20) 
energy

$$$$
20:0
     RDKit          3D

 40 43  0  0  0  0  0  0  0  0999 V2000
   60.2750   33.6340   48.2560 C   0  0  0  0  0  0  0  0  0  0  0  0
   59.6620   33.8260   46.9410 N   0  0  0  0  0  0  0  0  0  0  0  0
   59.7210   35.0020   46.2730 C   0  0  0  0  0  0  0  0  0  0  0  0
   59.0580   34.9200   45.0670 C   0  0  0  0  0  0  0  0  0  0  0  0
   58.5800   33.6330   45.0070 C   0  0  0  0  0  0  0  0  0  0  0  0
   57.8270   33.0480   44.0080 C   0  0  0  0  0  0  0  0  0  0  0  0
   57.4280   31.7240   44.1730 C   0  0  0  0  0  0  0  0  0  0  0  0
   56.6920   31.1490   43.1850 F   0  0  0  0  0  0  0  0  0  0  0  0
   57.7940   30.9830   45.3270 C   0  0  0  0  0  0  0  0  0  0  0  0
   58.6040   31.5930   46.3520 C   0  0  0  0  0  0  0  0  0  0  0  0
   58.9600   32.9620   46.1490 C   0  0  0  0  0  0  0  0  0  0  0  0
   59.0460   30.8870   47.6340 C   0  0  0  0  0  0  0  0  0  0  0  0
   58.8770   29.3680   47.7570 C   0  0  0  0  0  0  0  0  0  0  0  0
   59.3130   28.6280   46.4950 C   0  0  0  0  0  0  0  0  0  0  0  0
   58.1630   28.4750   45.6050 N   0  0  0  0  0  0  0  0  0  0  0  0
   57.8320   27.1630   45.0310 C   0  0  0  0  0  0  0  0  0  0  0  0
   56.8300   26.4410   45.9390 C   0  0  0  0  0  0  0  0  0  0  0  0
   57.4020   25.3700   46.8560 C   0  0  0  0  0  0  0  0  0  0  0  0
   56.6260   24.9690   45.6110 C   0  0  0  0  0  0  0  0  0  0  0  0
   57.2850   29.5940   45.3870 C   0  0  0  0  0  0  0  0  0  0  0  0
   56.0570   29.3870   45.1750 O   0  0  0  0  0  0  0  0  0  0  0  0
   59.5393   33.8644   49.0407 H   0  0  0  0  0  0  0  0  0  0  0  0
   60.6048   32.5895   48.3579 H   0  0  0  0  0  0  0  0  0  0  0  0
   61.1417   34.3037   48.3579 H   0  0  0  0  0  0  0  0  0  0  0  0
   60.2305   35.9037   46.6435 H   0  0  0  0  0  0  0  0  0  0  0  0
   58.9376   35.7137   44.3149 H   0  0  0  0  0  0  0  0  0  0  0  0
   57.5497   33.6129   43.1058 H   0  0  0  0  0  0  0  0  0  0  0  0
   60.1171   31.1012   47.7640 H   0  0  0  0  0  0  0  0  0  0  0  0
   58.3612   31.2854   48.3971 H   0  0  0  0  0  0  0  0  0  0  0  0
   59.4847   29.0126   48.6022 H   0  0  0  0  0  0  0  0  0  0  0  0
   57.8078   29.1619   47.9132 H   0  0  0  0  0  0  0  0  0  0  0  0
   60.0992   29.2034   45.9844 H   0  0  0  0  0  0  0  0  0  0  0  0
   59.7053   27.6365   46.7652 H   0  0  0  0  0  0  0  0  0  0  0  0
   57.3885   27.3013   44.0339 H   0  0  0  0  0  0  0  0  0  0  0  0
   58.7482   26.5601   44.9468 H   0  0  0  0  0  0  0  0  0  0  0  0
   56.1782   27.3144   46.0883 H   0  0  0  0  0  0  0  0  0  0  0  0
   58.4891   25.2088   46.9021 H   0  0  0  0  0  0  0  0  0  0  0  0
   57.3225   25.1415   47.9291 H   0  0  0  0  0  0  0  0  0  0  0  0
   57.1519   24.5179   44.7567 H   0  0  0  0  0  0  0  0  0  0  0  0
   55.7529   24.3305   45.4107 H   0  0  0  0  0  0  0  0  0  0  0  0
  1  2  1  0
  2  3  1  0
  3  4  2  0
  4  5  1  0
  5  6  2  0
  6  7  1  0
  7  8  1  0
  7  9  2  0
  9 10  1  0
 10 11  2  0
 10 12  1  0
 12 13  1  0
 13 14  1  0
 14 15  1  0
 15 16  1  0
 16 17  1  0
 17 18  1  0
 18 19  1  0
 15 20  1  0
 20 21  2  0
 11  2  1  0
 19 17  1  0
 11  5  1  0
 20  9  1  0
  1 22  1  0
  1 23  1  0
  1 24  1  0
  3 25  1  0
  4 26  1  0
  6 27  1  0
 12 28  1  0
 12 29  1  0
 13 30  1  0
 13 31  1  0
 14 32  1  0
 14 33  1  0
 16 34  1  0
 16 35  1  0
 17 36  1  0
 18 37  1  0
 18 38  1  0
 19 39  1  0
 19 40  1  0
M  END
>  <UniqueID>  (21) 
21

>  <SMILES>  (21) 
Cn1ccc2cc(F)c3c(c21)CCCN(CC1CC1)C3=O

>  <Energy>  (21) 
358.35231126012235

>  <Genealogy>  (21) 
Cn1ccc2cc(F)c3c(c21)CCCN(CC1CC1)C3=O (3D coordinates assigned)
Cn1ccc2cc(F)c3c(c21)CCCN(CC1CC1)C3=O (nonaromatic ring conformer: 358.35231126012235 kcal/mol)

>  <smiles>  (21) 
Cn1ccc2cc(F)c3c(c21)CCCN(CC1CC1)C3=O

>  <score_type>  (21) 
oracle

>  <origin>  (21) 
adg

>  <m_score__min__energy>  (21) 
-5.79

>  <m_primary>  (21) 
energy

$$$$
21:0
     RDKit          3D

 56 58  0  0  0  0  0  0  0  0999 V2000
   63.3090   33.8300   46.3810 C   0  0  0  0  0  0  0  0  0  0  0  0
   63.7010   32.7930   47.4290 C   0  0  0  0  0  0  0  0  0  0  0  0
   62.4910   32.2100   48.0510 N   0  0  0  0  0  0  0  0  0  0  0  0
   61.6660   33.2460   48.7160 C   0  0  0  0  0  0  0  0  0  0  0  0
   62.5020   34.1410   49.6310 C   0  0  0  0  0  0  0  0  0  0  0  0
   61.7370   31.3470   47.1080 C   0  0  0  0  0  0  0  0  0  0  0  0
   60.8550   30.2850   47.7930 C   0  0  0  0  0  0  0  0  0  0  0  0
   59.8890   29.7440   46.8370 N   0  0  0  0  0  0  0  0  0  0  0  0
   59.2950   30.4350   45.8350 C   0  0  0  0  0  0  0  0  0  0  0  0
   58.3860   29.6220   45.1710 C   0  0  0  0  0  0  0  0  0  0  0  0
   57.3410   30.0980   43.7930 S   0  0  0  0  0  0  0  0  0  0  0  0
   57.0230   31.7930   44.4000 C   0  0  0  0  0  0  0  0  0  0  0  0
   58.0850   32.7720   43.8850 C   0  0  0  0  0  0  0  0  0  0  0  0
   58.1880   33.9640   44.7550 N   0  0  0  0  0  0  0  0  0  0  0  0
   59.5970   34.2660   45.1090 C   0  0  0  0  0  0  0  0  0  0  0  0
   59.6890   35.0220   46.4450 C   0  0  0  0  0  0  0  0  0  0  0  0
   59.1660   34.2910   47.5470 O   0  0  0  0  0  0  0  0  0  0  0  0
   58.1180   33.3990   47.1920 C   0  0  0  0  0  0  0  0  0  0  0  0
   57.3200   33.8390   45.9520 C   0  0  0  0  0  0  0  0  0  0  0  0
   58.4190   28.4040   45.8150 C   0  0  0  0  0  0  0  0  0  0  0  0
   57.6910   27.2340   45.5990 C   0  0  0  0  0  0  0  0  0  0  0  0
   57.9360   26.1420   46.4510 C   0  0  0  0  0  0  0  0  0  0  0  0
   58.8840   26.2460   47.4930 C   0  0  0  0  0  0  0  0  0  0  0  0
   59.5970   27.4420   47.6910 C   0  0  0  0  0  0  0  0  0  0  0  0
   59.3420   28.5100   46.8250 C   0  0  0  0  0  0  0  0  0  0  0  0
   62.9629   34.7457   46.8828 H   0  0  0  0  0  0  0  0  0  0  0  0
   64.1809   34.0636   45.7523 H   0  0  0  0  0  0  0  0  0  0  0  0
   62.5006   33.4285   45.7523 H   0  0  0  0  0  0  0  0  0  0  0  0
   64.2834   31.9932   46.9482 H   0  0  0  0  0  0  0  0  0  0  0  0
   64.3044   33.2815   48.2082 H   0  0  0  0  0  0  0  0  0  0  0  0
   61.1907   33.8706   47.9454 H   0  0  0  0  0  0  0  0  0  0  0  0
   60.9124   32.7362   49.3342 H   0  0  0  0  0  0  0  0  0  0  0  0
   62.2788   33.9020   50.6813 H   0  0  0  0  0  0  0  0  0  0  0  0
   63.5707   33.9694   49.4350 H   0  0  0  0  0  0  0  0  0  0  0  0
   62.2580   35.1955   49.4350 H   0  0  0  0  0  0  0  0  0  0  0  0
   61.0892   31.9901   46.4942 H   0  0  0  0  0  0  0  0  0  0  0  0
   62.4835   30.8019   46.5116 H   0  0  0  0  0  0  0  0  0  0  0  0
   61.4914   29.4701   48.1684 H   0  0  0  0  0  0  0  0  0  0  0  0
   60.3130   30.7508   48.6292 H   0  0  0  0  0  0  0  0  0  0  0  0
   59.5022   31.4858   45.5841 H   0  0  0  0  0  0  0  0  0  0  0  0
   56.0329   32.1201   44.0499 H   0  0  0  0  0  0  0  0  0  0  0  0
   57.0605   31.7833   45.4993 H   0  0  0  0  0  0  0  0  0  0  0  0
   59.0594   32.2622   43.8597 H   0  0  0  0  0  0  0  0  0  0  0  0
   57.7912   33.1030   42.8780 H   0  0  0  0  0  0  0  0  0  0  0  0
   60.1555   33.3220   45.1925 H   0  0  0  0  0  0  0  0  0  0  0  0
   60.0238   34.9029   44.3202 H   0  0  0  0  0  0  0  0  0  0  0  0
   60.7470   35.2460   46.6463 H   0  0  0  0  0  0  0  0  0  0  0  0
   59.0818   35.9336   46.3437 H   0  0  0  0  0  0  0  0  0  0  0  0
   58.5574   32.4113   46.9889 H   0  0  0  0  0  0  0  0  0  0  0  0
   57.4132   33.3812   48.0363 H   0  0  0  0  0  0  0  0  0  0  0  0
   56.5378   33.0928   45.7485 H   0  0  0  0  0  0  0  0  0  0  0  0
   56.8801   34.8254   46.1603 H   0  0  0  0  0  0  0  0  0  0  0  0
   56.9497   27.1675   44.7890 H   0  0  0  0  0  0  0  0  0  0  0  0
   57.3857   25.2008   46.3049 H   0  0  0  0  0  0  0  0  0  0  0  0
   59.0658   25.3858   48.1540 H   0  0  0  0  0  0  0  0  0  0  0  0
   60.3334   27.5346   48.5029 H   0  0  0  0  0  0  0  0  0  0  0  0
  1  2  1  0
  2  3  1  0
  3  4  1  0
  4  5  1  0
  3  6  1  0
  6  7  1  0
  7  8  1  0
  8  9  1  0
  9 10  2  0
 10 11  1  0
 11 12  1  0
 12 13  1  0
 13 14  1  0
 14 15  1  0
 15 16  1  0
 16 17  1  0
 17 18  1  0
 18 19  1  0
 10 20  1  0
 20 21  2  0
 21 22  1  0
 22 23  2  0
 23 24  1  0
 24 25  2  0
 25  8  1  0
 19 14  1  0
 25 20  1  0
  1 26  1  0
  1 27  1  0
  1 28  1  0
  2 29  1  0
  2 30  1  0
  4 31  1  0
  4 32  1  0
  5 33  1  0
  5 34  1  0
  5 35  1  0
  6 36  1  0
  6 37  1  0
  7 38  1  0
  7 39  1  0
  9 40  1  0
 12 41  1  0
 12 42  1  0
 13 43  1  0
 13 44  1  0
 15 45  1  0
 15 46  1  0
 16 47  1  0
 16 48  1  0
 18 49  1  0
 18 50  1  0
 19 51  1  0
 19 52  1  0
 21 53  1  0
 22 54  1  0
 23 55  1  0
 24 56  1  0
M  END
>  <UniqueID>  (22) 
22

>  <SMILES>  (22) 
CCN(CC)CCn1cc(SCCN2CCOCC2)c2ccccc21

>  <Energy>  (22) 
98.33946989230415

>  <Genealogy>  (22) 
CCN(CC)CCn1cc(SCCN2CCOCC2)c2ccccc21 (3D coordinates assigned)
CCN(CC)CCn1cc(SCCN2CCOCC2)c2ccccc21 (nonaromatic ring conformer: 98.33946989230415 kcal/mol)

>  <smiles>  (22) 
CCN(CC)CCn1cc(SCCN2CCOCC2)c2ccccc21

>  <score_type>  (22) 
oracle

>  <origin>  (22) 
adg

>  <m_score__min__energy>  (22) 
-7.3499999999999996

>  <m_primary>  (22) 
energy

$$$$
22:0
     RDKit          3D

 44 46  0  0  0  0  0  0  0  0999 V2000
   60.3070   34.2710   48.8380 C   0  0  0  0  0  0  0  0  0  0  0  0
   59.8250   34.1090   47.4240 C   0  0  0  0  0  0  0  0  0  0  0  0
   59.5720   35.2250   46.6260 C   0  0  0  0  0  0  0  0  0  0  0  0
   58.9050   34.7200   45.1710 S   0  0  0  0  0  0  0  0  0  0  0  0
   58.9260   33.0730   45.5280 C   0  0  0  0  0  0  0  0  0  0  0  0
   59.4680   32.8840   46.7950 C   0  0  0  0  0  0  0  0  0  0  0  0
   59.6130   31.5760   47.2890 C   0  0  0  0  0  0  0  0  0  0  0  0
   60.3820   31.3200   48.4750 N   0  0  0  0  0  0  0  0  0  0  0  0
   61.8260   31.0640   48.4290 C   0  0  0  0  0  0  0  0  0  0  0  0
   62.4550   31.6030   47.1280 C   0  0  0  0  0  0  0  0  0  0  0  0
   63.5830   32.5300   47.3840 N   0  0  0  0  0  0  0  0  0  0  0  0
   63.7400   32.7370   48.8350 C   0  0  0  0  0  0  0  0  0  0  0  0
   63.3810   33.8320   46.7200 C   0  0  0  0  0  0  0  0  0  0  0  0
   59.0740   30.5070   46.5340 C   0  0  0  0  0  0  0  0  0  0  0  0
   59.0500   29.1980   47.0560 C   0  0  0  0  0  0  0  0  0  0  0  0
   58.5310   28.1420   46.3100 C   0  0  0  0  0  0  0  0  0  0  0  0
   58.0130   28.3720   45.0400 C   0  0  0  0  0  0  0  0  0  0  0  0
   57.9950   29.6620   44.5110 C   0  0  0  0  0  0  0  0  0  0  0  0
   58.5160   30.7590   45.2430 C   0  0  0  0  0  0  0  0  0  0  0  0
   58.4840   32.0450   44.7370 N   0  0  0  0  0  0  0  0  0  0  0  0
   57.9500   32.3190   43.3890 C   0  0  0  0  0  0  0  0  0  0  0  0
   59.4996   33.9996   49.5340 H   0  0  0  0  0  0  0  0  0  0  0  0
   61.1733   33.6146   49.0076 H   0  0  0  0  0  0  0  0  0  0  0  0
   60.6010   35.3173   49.0076 H   0  0  0  0  0  0  0  0  0  0  0  0
   59.7769   36.2689   46.9057 H   0  0  0  0  0  0  0  0  0  0  0  0
   59.9030   31.3350   49.4020 H   0  0  0  0  0  0  0  0  0  0  0  0
   62.3039   31.5574   49.2881 H   0  0  0  0  0  0  0  0  0  0  0  0
   61.9847   29.9761   48.4639 H   0  0  0  0  0  0  0  0  0  0  0  0
   62.8247   30.7526   46.5363 H   0  0  0  0  0  0  0  0  0  0  0  0
   61.6776   32.1638   46.5885 H   0  0  0  0  0  0  0  0  0  0  0  0
   64.4720   32.1060   47.0250 H   0  0  0  0  0  0  0  0  0  0  0  0
   63.1621   31.9751   49.3787 H   0  0  0  0  0  0  0  0  0  0  0  0
   64.8031   32.6524   49.1045 H   0  0  0  0  0  0  0  0  0  0  0  0
   63.3719   33.7379   49.1045 H   0  0  0  0  0  0  0  0  0  0  0  0
   63.2592   34.6168   47.4811 H   0  0  0  0  0  0  0  0  0  0  0  0
   64.2541   34.0627   46.0919 H   0  0  0  0  0  0  0  0  0  0  0  0
   62.4791   33.7873   46.0919 H   0  0  0  0  0  0  0  0  0  0  0  0
   59.4458   29.0079   48.0646 H   0  0  0  0  0  0  0  0  0  0  0  0
   58.5309   27.1239   46.7265 H   0  0  0  0  0  0  0  0  0  0  0  0
   57.6158   27.5327   44.4503 H   0  0  0  0  0  0  0  0  0  0  0  0
   57.5702   29.8312   43.5106 H   0  0  0  0  0  0  0  0  0  0  0  0
   56.9744   32.8196   43.4759 H   0  0  0  0  0  0  0  0  0  0  0  0
   58.6488   32.9699   42.8431 H   0  0  0  0  0  0  0  0  0  0  0  0
   57.8288   31.3717   42.8431 H   0  0  0  0  0  0  0  0  0  0  0  0
  1  2  1  0
  2  3  2  0
  3  4  1  0
  4  5  1  0
  5  6  2  0
  6  7  1  0
  7  8  1  0
  8  9  1  0
  9 10  1  0
 10 11  1  0
 11 12  1  0
 11 13  1  0
  7 14  2  0
 14 15  1  0
 15 16  2  0
 16 17  1  0
 17 18  2  0
 18 19  1  0
 19 20  2  0
 20 21  1  0
  6  2  1  0
 19 14  1  0
 20  5  1  0
  1 22  1  0
  1 23  1  0
  1 24  1  0
  3 25  1  0
  8 26  1  0
  9 27  1  0
  9 28  1  0
 10 29  1  0
 10 30  1  0
 11 31  1  0
 12 32  1  0
 12 33  1  0
 12 34  1  0
 13 35  1  0
 13 36  1  0
 13 37  1  0
 15 38  1  0
 16 39  1  0
 17 40  1  0
 18 41  1  0
 21 42  1  0
 21 43  1  0
 21 44  1  0
M  CHG  2  11   1  20   1
M  END
>  <UniqueID>  (23) 
23

>  <SMILES>  (23) 
Cc1csc2c1c(NCC[NH+](C)C)c1ccccc1[n+]2C

>  <Energy>  (23) 
94.0461089900744

>  <Genealogy>  (23) 
Cc1csc2c1c(NCC[NH+](C)C)c1ccccc1[n+]2C (protonated)
Cc1csc2c1c(NCC[NH+](C)C)c1ccccc1[n+]2C (3D coordinates assigned)
Cc1csc2c1c(NCC[NH+](C)C)c1ccccc1[n+]2C (optimized conformer: 94.0461089900744 kcal/mol)

>  <smiles>  (23) 
Cc1csc2c1c(NCCN(C)C)c1ccccc1[n+]2C

>  <score_type>  (23) 
oracle

>  <origin>  (23) 
adg

>  <m_score__min__energy>  (23) 
-4.4400000000000004

>  <m_primary>  (23) 
energy

$$$$
23:0
     RDKit          3D

 45 46  0  0  0  0  0  0  0  0999 V2000
   56.5820   30.5790   43.8250 C   0  0  0  0  0  0  0  0  0  0  0  0
   57.2390   31.5770   44.7790 C   0  0  0  0  0  0  0  0  0  0  0  0
   58.2670   32.3860   44.0860 N   0  0  0  0  0  0  0  0  0  0  0  0
   58.0980   32.2620   42.6270 C   0  0  0  0  0  0  0  0  0  0  0  0
   58.2350   33.8120   44.5020 C   0  0  0  0  0  0  0  0  0  0  0  0
   57.7880   33.9230   45.9610 C   0  0  0  0  0  0  0  0  0  0  0  0
   59.0870   34.5910   46.9880 S   0  0  0  0  0  0  0  0  0  0  0  0
   59.6700   36.0380   46.3640 O   0  0  0  0  0  0  0  0  0  0  0  0
   60.3950   33.4430   47.2040 C   0  0  0  0  0  0  0  0  0  0  0  0
   61.7250   33.8570   47.0600 C   0  0  0  0  0  0  0  0  0  0  0  0
   62.7650   32.9330   47.1960 C   0  0  0  0  0  0  0  0  0  0  0  0
   62.4810   31.5910   47.4660 C   0  0  0  0  0  0  0  0  0  0  0  0
   61.1500   31.1620   47.6110 C   0  0  0  0  0  0  0  0  0  0  0  0
   60.8570   29.7800   47.8990 N   0  0  0  0  0  0  0  0  0  0  0  0
   60.0600   29.2180   46.8380 C   0  0  0  0  0  0  0  0  0  0  0  0
   60.5550   29.1740   45.5220 C   0  0  0  0  0  0  0  0  0  0  0  0
   59.7890   28.6100   44.4970 C   0  0  0  0  0  0  0  0  0  0  0  0
   58.5260   28.0810   44.7760 C   0  0  0  0  0  0  0  0  0  0  0  0
   58.0280   28.1120   46.0800 C   0  0  0  0  0  0  0  0  0  0  0  0
   58.7910   28.6740   47.1090 C   0  0  0  0  0  0  0  0  0  0  0  0
   60.1090   32.1050   47.4930 C   0  0  0  0  0  0  0  0  0  0  0  0
   56.0686   29.7992   44.4067 H   0  0  0  0  0  0  0  0  0  0  0  0
   55.8522   31.1038   43.1910 H   0  0  0  0  0  0  0  0  0  0  0  0
   57.3525   30.1161   43.1910 H   0  0  0  0  0  0  0  0  0  0  0  0
   56.4669   32.2483   45.1829 H   0  0  0  0  0  0  0  0  0  0  0  0
   57.7272   31.0142   45.5883 H   0  0  0  0  0  0  0  0  0  0  0  0
   57.2283   31.6239   42.4115 H   0  0  0  0  0  0  0  0  0  0  0  0
   57.9385   33.2589   42.1903 H   0  0  0  0  0  0  0  0  0  0  0  0
   59.0011   31.8107   42.1903 H   0  0  0  0  0  0  0  0  0  0  0  0
   59.2406   34.2449   44.3954 H   0  0  0  0  0  0  0  0  0  0  0  0
   57.5237   34.3576   43.8645 H   0  0  0  0  0  0  0  0  0  0  0  0
   56.9106   34.5840   46.0177 H   0  0  0  0  0  0  0  0  0  0  0  0
   57.5401   32.9154   46.3260 H   0  0  0  0  0  0  0  0  0  0  0  0
   59.3770   36.7240   47.0160 H   0  0  0  0  0  0  0  0  0  0  0  0
   61.9516   34.9106   46.8396 H   0  0  0  0  0  0  0  0  0  0  0  0
   63.8092   33.2625   47.0904 H   0  0  0  0  0  0  0  0  0  0  0  0
   63.3032   30.8670   47.5655 H   0  0  0  0  0  0  0  0  0  0  0  0
   60.3510   29.7090   48.8130 H   0  0  0  0  0  0  0  0  0  0  0  0
   61.7440   29.2310   48.0050 H   0  0  0  0  0  0  0  0  0  0  0  0
   61.5502   29.5856   45.2980 H   0  0  0  0  0  0  0  0  0  0  0  0
   60.1812   28.5827   43.4696 H   0  0  0  0  0  0  0  0  0  0  0  0
   57.9239   27.6400   43.9679 H   0  0  0  0  0  0  0  0  0  0  0  0
   57.0343   27.6939   46.2985 H   0  0  0  0  0  0  0  0  0  0  0  0
   58.3967   28.6907   48.1358 H   0  0  0  0  0  0  0  0  0  0  0  0
   59.0650   31.7864   47.6291 H   0  0  0  0  0  0  0  0  0  0  0  0
  1  2  1  0
  2  3  1  0
  3  4  1  0
  3  5  1  0
  5  6  1  0
  6  7  1  0
  7  8  1  6
  7  9  1  0
  9 10  2  0
 10 11  1  0
 11 12  2  0
 12 13  1  0
 13 14  1  0
 14 15  1  0
 15 16  2  0
 16 17  1  0
 17 18  2  0
 18 19  1  0
 19 20  2  0
 13 21  2  0
 21  9  1  0
 20 15  1  0
  1 22  1  0
  1 23  1  0
  1 24  1  0
  2 25  1  0
  2 26  1  0
  4 27  1  0
  4 28  1  0
  4 29  1  0
  5 30  1  0
  5 31  1  0
  6 32  1  0
  6 33  1  0
  8 34  1  0
 10 35  1  0
 11 36  1  0
 12 37  1  0
 14 38  1  0
 14 39  1  0
 16 40  1  0
 17 41  1  0
 18 42  1  0
 19 43  1  0
 20 44  1  0
 21 45  1  0
M  CHG  2   7   1  14   1
M  END
>  <UniqueID>  (24) 
24

>  <SMILES>  (24) 
CCN(C)CC[S@+](O)c1cccc([NH2+]c2ccccc2)c1

>  <Energy>  (24) 
40.17000691520692

>  <Genealogy>  (24) 
CCN(C)CC[S+](O)c1cccc([NH2+]c2ccccc2)c1 (protonated)
CCN(C)CC[S@+](O)c1cccc([NH2+]c2ccccc2)c1 (chirality)
CCN(C)CC[S@+](O)c1cccc([NH2+]c2ccccc2)c1 (3D coordinates assigned)
CCN(C)CC[S@+](O)c1cccc([NH2+]c2ccccc2)c1 (optimized conformer: 40.17000691520692 kcal/mol)

>  <smiles>  (24) 
CCN(C)CC[S+]([O-])c1cccc(Nc2ccccc2)c1

>  <score_type>  (24) 
oracle

>  <origin>  (24) 
adg

>  <m_score__min__energy>  (24) 
-4.5

>  <m_primary>  (24) 
energy

$$$$
24:0
     RDKit          3D

 54 56  0  0  0  0  0  0  0  0999 V2000
   59.2850   26.5890   46.6150 C   0  0  0  0  0  0  0  0  0  0  0  0
   58.0390   27.3170   46.1160 C   0  0  0  0  0  0  0  0  0  0  0  0
   58.3300   28.7380   45.8640 N   0  0  0  0  0  0  0  0  0  0  0  0
   57.8560   29.3520   44.6140 C   0  0  0  0  0  0  0  0  0  0  0  0
   56.4390   29.8080   44.7670 C   0  0  0  0  0  0  0  0  0  0  0  0
   55.5190   28.9570   44.9010 O   0  0  0  0  0  0  0  0  0  0  0  0
   56.1500   31.2100   44.8440 N   0  0  0  0  0  0  0  0  0  0  0  0
   57.1380   32.2360   45.0000 C   0  0  0  0  0  0  0  0  0  0  0  0
   57.3750   32.7440   46.2860 C   0  0  0  0  0  0  0  0  0  0  0  0
   58.3140   33.7610   46.4830 C   0  0  0  0  0  0  0  0  0  0  0  0
   59.0350   34.2680   45.3990 C   0  0  0  0  0  0  0  0  0  0  0  0
   58.8350   33.7430   44.1180 C   0  0  0  0  0  0  0  0  0  0  0  0
   57.9000   32.7200   43.9110 C   0  0  0  0  0  0  0  0  0  0  0  0
   57.7910   32.0050   42.3050 Cl  0  0  0  0  0  0  0  0  0  0  0  0
   59.1240   29.5210   46.7870 C   0  0  0  0  0  0  0  0  0  0  0  0
   58.9660   29.3640   48.0300 O   0  0  0  0  0  0  0  0  0  0  0  0
   60.1780   30.4850   46.2970 C   0  0  0  0  0  0  0  0  0  0  0  0
   60.8860   31.1150   47.4100 N   0  0  0  0  0  0  0  0  0  0  0  0
   62.3350   31.2770   47.4980 C   0  0  0  0  0  0  0  0  0  0  0  0
   62.5850   32.1900   48.7260 C   0  0  0  0  0  0  0  0  0  0  0  0
   61.2620   32.5340   49.2360 N   0  0  0  0  0  0  0  0  0  0  0  0
   60.9940   33.4220   50.3640 C   0  0  0  0  0  0  0  0  0  0  0  0
   59.8570   32.8830   51.1870 C   0  0  0  0  0  0  0  0  0  0  0  0
   58.8410   33.7380   51.6470 C   0  0  0  0  0  0  0  0  0  0  0  0
   57.7720   33.2240   52.3880 C   0  0  0  0  0  0  0  0  0  0  0  0
   57.7080   31.8560   52.6710 C   0  0  0  0  0  0  0  0  0  0  0  0
   56.6700   31.3600   53.3890 F   0  0  0  0  0  0  0  0  0  0  0  0
   58.7090   30.9990   52.2080 C   0  0  0  0  0  0  0  0  0  0  0  0
   59.7790   31.5090   51.4660 C   0  0  0  0  0  0  0  0  0  0  0  0
   60.2970   31.8930   48.4290 C   0  0  0  0  0  0  0  0  0  0  0  0
   59.0540   32.0140   48.5910 O   0  0  0  0  0  0  0  0  0  0  0  0
   59.2916   26.5852   47.7150 H   0  0  0  0  0  0  0  0  0  0  0  0
   59.2774   25.5532   46.2448 H   0  0  0  0  0  0  0  0  0  0  0  0
   60.1836   27.1042   46.2448 H   0  0  0  0  0  0  0  0  0  0  0  0
   57.6969   26.8477   45.1818 H   0  0  0  0  0  0  0  0  0  0  0  0
   57.2577   27.2483   46.8873 H   0  0  0  0  0  0  0  0  0  0  0  0
   58.4914   30.2161   44.3699 H   0  0  0  0  0  0  0  0  0  0  0  0
   57.9081   28.6073   43.8061 H   0  0  0  0  0  0  0  0  0  0  0  0
   56.8187   32.3398   47.1446 H   0  0  0  0  0  0  0  0  0  0  0  0
   58.4853   34.1624   47.4927 H   0  0  0  0  0  0  0  0  0  0  0  0
   59.7604   35.0805   45.5530 H   0  0  0  0  0  0  0  0  0  0  0  0
   59.4144   34.1350   43.2691 H   0  0  0  0  0  0  0  0  0  0  0  0
   60.9026   29.9374   45.6764 H   0  0  0  0  0  0  0  0  0  0  0  0
   59.6803   31.2736   45.7136 H   0  0  0  0  0  0  0  0  0  0  0  0
   62.8214   30.3009   47.6413 H   0  0  0  0  0  0  0  0  0  0  0  0
   62.7498   31.7141   46.5778 H   0  0  0  0  0  0  0  0  0  0  0  0
   63.1639   31.6531   49.4919 H   0  0  0  0  0  0  0  0  0  0  0  0
   63.1623   33.0864   48.4555 H   0  0  0  0  0  0  0  0  0  0  0  0
   61.8946   33.4952   50.9914 H   0  0  0  0  0  0  0  0  0  0  0  0
   60.7220   34.4171   49.9822 H   0  0  0  0  0  0  0  0  0  0  0  0
   58.8866   34.8141   51.4237 H   0  0  0  0  0  0  0  0  0  0  0  0
   56.9802   33.8970   52.7488 H   0  0  0  0  0  0  0  0  0  0  0  0
   58.6557   29.9224   52.4271 H   0  0  0  0  0  0  0  0  0  0  0  0
   60.5633   30.8306   51.0991 H   0  0  0  0  0  0  0  0  0  0  0  0
  1  2  1  0
  2  3  1  0
  3  4  1  0
  4  5  1  0
  5  6  2  0
  5  7  1  0
  7  8  1  0
  8  9  2  0
  9 10  1  0
 10 11  2  0
 11 12  1  0
 12 13  2  0
 13 14  1  0
  3 15  1  0
 15 16  2  0
 15 17  1  0
 17 18  1  0
 18 19  1  0
 19 20  1  0
 20 21  1  0
 21 22  1  0
 22 23  1  0
 23 24  2  0
 24 25  1  0
 25 26  2  0
 26 27  1  0
 26 28  1  0
 28 29  2  0
 21 30  1  0
 30 31  2  0
 13  8  1  0
 30 18  1  0
 29 23  1  0
  1 32  1  0
  1 33  1  0
  1 34  1  0
  2 35  1  0
  2 36  1  0
  4 37  1  0
  4 38  1  0
  9 39  1  0
 10 40  1  0
 11 41  1  0
 12 42  1  0
 17 43  1  0
 17 44  1  0
 19 45  1  0
 19 46  1  0
 20 47  1  0
 20 48  1  0
 22 49  1  0
 22 50  1  0
 24 51  1  0
 25 52  1  0
 28 53  1  0
 29 54  1  0
M  CHG  1   7  -1
M  END
>  <UniqueID>  (25) 
25

>  <SMILES>  (25) 
CCN(CC(=O)[N-]c1ccccc1Cl)C(=O)CN1CCN(Cc2ccc(F)cc2)C1=O

>  <Energy>  (25) 
67.25242820804438

>  <Genealogy>  (25) 
CCN(CC(=O)[N-]c1ccccc1Cl)C(=O)CN1CCN(Cc2ccc(F)cc2)C1=O (protonated)
CCN(CC(=O)[N-]c1ccccc1Cl)C(=O)CN1CCN(Cc2ccc(F)cc2)C1=O (3D coordinates assigned)
CCN(CC(=O)[N-]c1ccccc1Cl)C(=O)CN1CCN(Cc2ccc(F)cc2)C1=O (nonaromatic ring conformer: 67.25242820804438 kcal/mol)

>  <smiles>  (25) 
CCN(CC(=O)Nc1ccccc1Cl)C(=O)CN1CCN(Cc2ccc(F)cc2)C1=O

>  <score_type>  (25) 
oracle

>  <origin>  (25) 
adg

>  <m_score__min__energy>  (25) 
-11.27

>  <m_primary>  (25) 
energy

$$$$
25:0
     RDKit          3D

 30 31  0  0  0  0  0  0  0  0999 V2000
   56.6410   30.1080   42.5980 C   0  0  0  0  0  0  0  0  0  0  0  0
   56.4000   30.2680   44.0650 C   0  0  0  0  0  0  0  0  0  0  0  0
   55.4320   29.6720   44.6080 O   0  0  0  0  0  0  0  0  0  0  0  0
   57.2860   31.1170   44.8740 C   0  0  0  0  0  0  0  0  0  0  0  0
   57.9490   32.2540   44.4470 C   0  0  0  0  0  0  0  0  0  0  0  0
   58.6370   32.6690   45.5700 C   0  0  0  0  0  0  0  0  0  0  0  0
   59.5690   33.8360   45.6600 C   0  0  0  0  0  0  0  0  0  0  0  0
   60.1280   33.9270   47.0070 N   0  0  0  0  0  0  0  0  0  0  0  0
   59.3810   33.9050   48.1010 N   0  0  0  0  0  0  0  0  0  0  0  0
   60.2100   33.9260   49.1630 C   0  0  0  0  0  0  0  0  0  0  0  0
   59.7490   33.8370   50.5810 C   0  0  0  0  0  0  0  0  0  0  0  0
   61.5220   33.9300   48.7290 C   0  0  0  0  0  0  0  0  0  0  0  0
   62.9720   33.8530   49.7180 Cl  0  0  0  0  0  0  0  0  0  0  0  0
   61.4370   33.9450   47.3510 C   0  0  0  0  0  0  0  0  0  0  0  0
   62.5880   33.8410   46.3960 C   0  0  0  0  0  0  0  0  0  0  0  0
   58.3850   31.8160   46.5790 N   0  0  0  0  0  0  0  0  0  0  0  0
   57.5750   30.9010   46.1380 O   0  0  0  0  0  0  0  0  0  0  0  0
   57.5478   29.5060   42.4389 H   0  0  0  0  0  0  0  0  0  0  0  0
   55.7795   29.6019   42.1379 H   0  0  0  0  0  0  0  0  0  0  0  0
   56.7730   31.0984   42.1379 H   0  0  0  0  0  0  0  0  0  0  0  0
   57.9320   32.7174   43.4495 H   0  0  0  0  0  0  0  0  0  0  0  0
   60.3858   33.7065   44.9347 H   0  0  0  0  0  0  0  0  0  0  0  0
   59.0141   34.7591   45.4364 H   0  0  0  0  0  0  0  0  0  0  0  0
   60.6025   34.0018   51.2551 H   0  0  0  0  0  0  0  0  0  0  0  0
   58.9823   34.6037   50.7661 H   0  0  0  0  0  0  0  0  0  0  0  0
   59.3227   32.8400   50.7661 H   0  0  0  0  0  0  0  0  0  0  0  0
   63.5274   33.7561   46.9619 H   0  0  0  0  0  0  0  0  0  0  0  0
   62.4597   32.9508   45.7627 H   0  0  0  0  0  0  0  0  0  0  0  0
   62.6214   34.7398   45.7627 H   0  0  0  0  0  0  0  0  0  0  0  0
   58.7710   31.8570   47.5490 H   0  0  0  0  0  0  0  0  0  0  0  0
  1  2  1  0
  2  3  2  0
  2  4  1  0
  4  5  2  0
  5  6  1  0
  6  7  1  0
  7  8  1  0
  8  9  1  0
  9 10  2  0
 10 11  1  0
 10 12  1  0
 12 13  1  0
 12 14  2  0
 14 15  1  0
  6 16  2  0
 16 17  1  0
 17  4  1  0
 14  8  1  0
  1 18  1  0
  1 19  1  0
  1 20  1  0
  5 21  1  0
  7 22  1  0
  7 23  1  0
 11 24  1  0
 11 25  1  0
 11 26  1  0
 15 27  1  0
 15 28  1  0
 15 29  1  0
 16 30  1  0
M  CHG  1  16   1
M  END
>  <UniqueID>  (26) 
26

>  <SMILES>  (26) 
CC(=O)c1cc(Cn2nc(C)c(Cl)c2C)[nH+]o1

>  <Energy>  (26) 
84.61863167098993

>  <Genealogy>  (26) 
CC(=O)c1cc(Cn2nc(C)c(Cl)c2C)[nH+]o1 (protonated)
CC(=O)c1cc(Cn2nc(C)c(Cl)c2C)[nH+]o1 (3D coordinates assigned)
CC(=O)c1cc(Cn2nc(C)c(Cl)c2C)[nH+]o1 (optimized conformer: 84.61863167098993 kcal/mol)

>  <smiles>  (26) 
CC(=O)c1cc(Cn2nc(C)c(Cl)c2C)no1

>  <score_type>  (26) 
oracle

>  <origin>  (26) 
adg

>  <m_score__min__energy>  (26) 
-5.1600000000000001

>  <m_primary>  (26) 
energy

$$$$
26:0
     RDKit          3D

 41 41  0  0  0  0  0  0  0  0999 V2000
   59.4360   31.9320   47.6000 C   0  0  0  0  0  0  0  0  0  0  0  0
   58.1520   32.7410   47.4150 C   0  0  0  0  0  0  0  0  0  0  0  0
   58.3560   33.8780   46.4860 N   0  0  0  0  0  0  0  0  0  0  0  0
   59.2060   34.9250   47.0970 C   0  0  0  0  0  0  0  0  0  0  0  0
   59.9920   35.6730   46.0220 C   0  0  0  0  0  0  0  0  0  0  0  0
   58.9140   33.4150   45.1870 C   0  0  0  0  0  0  0  0  0  0  0  0
   57.8170   33.3280   44.1190 C   0  0  0  0  0  0  0  0  0  0  0  0
   57.7990   31.9830   43.4380 C   0  0  0  0  0  0  0  0  0  0  0  0
   57.9690   31.9630   42.1880 O   0  0  0  0  0  0  0  0  0  0  0  0
   57.6460   30.6930   44.1720 C   0  0  0  0  0  0  0  0  0  0  0  0
   56.3940   30.0610   44.3260 C   0  0  0  0  0  0  0  0  0  0  0  0
   56.2790   28.8690   45.0460 C   0  0  0  0  0  0  0  0  0  0  0  0
   57.4120   28.2800   45.6310 C   0  0  0  0  0  0  0  0  0  0  0  0
   57.3390   27.0670   46.3930 N   0  0  0  0  0  0  0  0  0  0  0  0
   56.2250   25.7670   46.1210 S   0  0  0  0  0  0  0  0  0  0  0  0
   56.6810   24.8670   44.6530 C   0  0  0  0  0  0  0  0  0  0  0  0
   56.2020   24.8510   47.3120 O   0  0  0  0  0  0  0  0  0  0  0  0
   54.8520   26.3410   45.9250 O   0  0  0  0  0  0  0  0  0  0  0  0
   58.6570   28.8930   45.4690 C   0  0  0  0  0  0  0  0  0  0  0  0
   58.7750   30.0850   44.7500 C   0  0  0  0  0  0  0  0  0  0  0  0
   59.6378   31.8049   48.6738 H   0  0  0  0  0  0  0  0  0  0  0  0
   59.3183   30.9446   47.1296 H   0  0  0  0  0  0  0  0  0  0  0  0
   60.2758   32.4644   47.1296 H   0  0  0  0  0  0  0  0  0  0  0  0
   57.3702   32.0828   47.0082 H   0  0  0  0  0  0  0  0  0  0  0  0
   57.8537   33.1442   48.3940 H   0  0  0  0  0  0  0  0  0  0  0  0
   58.5679   35.6376   47.6401 H   0  0  0  0  0  0  0  0  0  0  0  0
   59.9160   34.4473   47.7882 H   0  0  0  0  0  0  0  0  0  0  0  0
   60.7094   36.3558   46.5007 H   0  0  0  0  0  0  0  0  0  0  0  0
   60.5355   34.9504   45.3956 H   0  0  0  0  0  0  0  0  0  0  0  0
   59.2971   36.2516   45.3956 H   0  0  0  0  0  0  0  0  0  0  0  0
   59.6857   34.1244   44.8534 H   0  0  0  0  0  0  0  0  0  0  0  0
   59.3470   32.4137   45.3279 H   0  0  0  0  0  0  0  0  0  0  0  0
   56.8410   33.4972   44.5974 H   0  0  0  0  0  0  0  0  0  0  0  0
   58.0233   34.0931   43.3560 H   0  0  0  0  0  0  0  0  0  0  0  0
   55.4982   30.5118   43.8741 H   0  0  0  0  0  0  0  0  0  0  0  0
   55.2953   28.3890   45.1553 H   0  0  0  0  0  0  0  0  0  0  0  0
   57.1612   23.9193   44.9382 H   0  0  0  0  0  0  0  0  0  0  0  0
   55.7805   24.6570   44.0571 H   0  0  0  0  0  0  0  0  0  0  0  0
   57.3829   25.4689   44.0571 H   0  0  0  0  0  0  0  0  0  0  0  0
   59.5527   28.4328   45.9117 H   0  0  0  0  0  0  0  0  0  0  0  0
   59.7633   30.5540   44.6344 H   0  0  0  0  0  0  0  0  0  0  0  0
  1  2  1  0
  2  3  1  0
  3  4  1  0
  4  5  1  0
  3  6  1  0
  6  7  1  0
  7  8  1  0
  8  9  2  0
  8 10  1  0
 10 11  2  0
 11 12  1  0
 12 13  2  0
 13 14  1  0
 14 15  1  0
 15 16  1  0
 15 17  2  0
 15 18  2  0
 13 19  1  0
 19 20  2  0
 20 10  1  0
  1 21  1  0
  1 22  1  0
  1 23  1  0
  2 24  1  0
  2 25  1  0
  4 26  1  0
  4 27  1  0
  5 28  1  0
  5 29  1  0
  5 30  1  0
  6 31  1  0
  6 32  1  0
  7 33  1  0
  7 34  1  0
 11 35  1  0
 12 36  1  0
 16 37  1  0
 16 38  1  0
 16 39  1  0
 19 40  1  0
 20 41  1  0
M  CHG  1  14  -1
M  END
>  <UniqueID>  (27) 
27

>  <SMILES>  (27) 
CCN(CC)CCC(=O)c1ccc([N-]S(C)(=O)=O)cc1

>  <Energy>  (27) 
35.81221448299983

>  <Genealogy>  (27) 
CCN(CC)CCC(=O)c1ccc([N-]S(C)(=O)=O)cc1 (protonated)
CCN(CC)CCC(=O)c1ccc([N-]S(C)(=O)=O)cc1 (3D coordinates assigned)
CCN(CC)CCC(=O)c1ccc([N-]S(C)(=O)=O)cc1 (optimized conformer: 35.81221448299983 kcal/mol)

>  <smiles>  (27) 
CCN(CC)CCC(=O)c1ccc(NS(C)(=O)=O)cc1

>  <score_type>  (27) 
oracle

>  <origin>  (27) 
adg

>  <m_score__min__energy>  (27) 
-8.7799999999999994

>  <m_primary>  (27) 
energy

$$$$
27:0
     RDKit          3D

 53 55  0  0  0  0  0  0  0  0999 V2000
   60.1580   33.7640   50.1750 C   0  0  0  0  0  0  0  0  0  0  0  0
   60.3080   32.3410   50.7070 C   0  0  0  0  0  0  0  0  0  0  0  0
   59.2370   31.4740   50.1640 N   0  0  0  0  0  0  0  0  0  0  0  0
   57.8760   31.9540   50.5110 C   0  0  0  0  0  0  0  0  0  0  0  0
   57.3670   31.4860   51.8850 C   0  0  0  0  0  0  0  0  0  0  0  0
   59.4390   30.0420   50.4760 C   0  0  0  0  0  0  0  0  0  0  0  0
   60.8840   29.6060   50.1790 C   0  0  0  0  0  0  0  0  0  0  0  0
   61.1240   29.4780   48.7390 N   0  0  0  0  0  0  0  0  0  0  0  0
   60.8250   30.5440   47.8190 C   0  0  0  0  0  0  0  0  0  0  0  0
   61.7010   31.6320   47.6820 C   0  0  0  0  0  0  0  0  0  0  0  0
   62.9960   31.6040   48.2370 C   0  0  0  0  0  0  0  0  0  0  0  0
   63.8380   32.7100   48.1330 C   0  0  0  0  0  0  0  0  0  0  0  0
   63.4080   33.8520   47.4660 C   0  0  0  0  0  0  0  0  0  0  0  0
   62.1370   33.8930   46.8930 C   0  0  0  0  0  0  0  0  0  0  0  0
   61.2620   32.7840   46.9840 C   0  0  0  0  0  0  0  0  0  0  0  0
   60.0010   32.8140   46.4280 N   0  0  0  0  0  0  0  0  0  0  0  0
   59.3590   34.1240   46.1950 C   0  0  0  0  0  0  0  0  0  0  0  0
   59.2900   31.6410   46.2690 C   0  0  0  0  0  0  0  0  0  0  0  0
   58.2040   31.5100   45.3500 C   0  0  0  0  0  0  0  0  0  0  0  0
   57.9510   32.6950   43.8450 Br  0  0  0  0  0  0  0  0  0  0  0  0
   57.3770   30.3750   45.3840 C   0  0  0  0  0  0  0  0  0  0  0  0
   56.2970   30.2970   44.4900 O   0  0  0  0  0  0  0  0  0  0  0  0
   56.3470   29.6680   43.2130 C   0  0  0  0  0  0  0  0  0  0  0  0
   57.6570   29.3430   46.2890 C   0  0  0  0  0  0  0  0  0  0  0  0
   58.7920   29.3940   47.0890 C   0  0  0  0  0  0  0  0  0  0  0  0
   59.6410   30.5140   47.0590 C   0  0  0  0  0  0  0  0  0  0  0  0
   60.0841   34.4652   51.0193 H   0  0  0  0  0  0  0  0  0  0  0  0
   61.0341   34.0202   49.5612 H   0  0  0  0  0  0  0  0  0  0  0  0
   59.2477   33.8319   49.5612 H   0  0  0  0  0  0  0  0  0  0  0  0
   61.2870   31.9415   50.4038 H   0  0  0  0  0  0  0  0  0  0  0  0
   60.2320   32.3592   51.8042 H   0  0  0  0  0  0  0  0  0  0  0  0
   57.8874   33.0539   50.5050 H   0  0  0  0  0  0  0  0  0  0  0  0
   57.1928   31.5275   49.7618 H   0  0  0  0  0  0  0  0  0  0  0  0
   57.9276   32.0015   52.6787 H   0  0  0  0  0  0  0  0  0  0  0  0
   56.2968   31.7221   51.9794 H   0  0  0  0  0  0  0  0  0  0  0  0
   57.5126   30.3998   51.9794 H   0  0  0  0  0  0  0  0  0  0  0  0
   59.2253   29.8735   51.5418 H   0  0  0  0  0  0  0  0  0  0  0  0
   58.7599   29.4492   49.8456 H   0  0  0  0  0  0  0  0  0  0  0  0
   61.5750   30.3564   50.5907 H   0  0  0  0  0  0  0  0  0  0  0  0
   61.0490   28.6228   50.6439 H   0  0  0  0  0  0  0  0  0  0  0  0
   61.3830   28.5400   48.3560 H   0  0  0  0  0  0  0  0  0  0  0  0
   63.3459   30.7003   48.7575 H   0  0  0  0  0  0  0  0  0  0  0  0
   64.8432   32.6795   48.5788 H   0  0  0  0  0  0  0  0  0  0  0  0
   64.0722   34.7255   47.3901 H   0  0  0  0  0  0  0  0  0  0  0  0
   61.8100   34.7998   46.3630 H   0  0  0  0  0  0  0  0  0  0  0  0
   59.1277   34.5960   47.1613 H   0  0  0  0  0  0  0  0  0  0  0  0
   60.0422   34.7709   45.6251 H   0  0  0  0  0  0  0  0  0  0  0  0
   58.4291   33.9805   45.6251 H   0  0  0  0  0  0  0  0  0  0  0  0
   56.4335   28.5792   43.3437 H   0  0  0  0  0  0  0  0  0  0  0  0
   55.4277   29.8983   42.6546 H   0  0  0  0  0  0  0  0  0  0  0  0
   57.2184   30.0407   42.6546 H   0  0  0  0  0  0  0  0  0  0  0  0
   56.9728   28.4852   46.3670 H   0  0  0  0  0  0  0  0  0  0  0  0
   59.0286   28.5492   47.7526 H   0  0  0  0  0  0  0  0  0  0  0  0
  1  2  1  0
  2  3  1  0
  3  4  1  0
  4  5  1  0
  3  6  1  0
  6  7  1  0
  7  8  1  0
  8  9  1  0
  9 10  2  0
 10 11  1  0
 11 12  2  0
 12 13  1  0
 13 14  2  0
 14 15  1  0
 15 16  2  0
 16 17  1  0
 16 18  1  0
 18 19  2  0
 19 20  1  0
 19 21  1  0
 21 22  1  0
 22 23  1  0
 21 24  2  0
 24 25  1  0
 25 26  2  0
 26  9  1  0
 15 10  1  0
 26 18  1  0
  1 27  1  0
  1 28  1  0
  1 29  1  0
  2 30  1  0
  2 31  1  0
  4 32  1  0
  4 33  1  0
  5 34  1  0
  5 35  1  0
  5 36  1  0
  6 37  1  0
  6 38  1  0
  7 39  1  0
  7 40  1  0
  8 41  1  0
 11 42  1  0
 12 43  1  0
 13 44  1  0
 14 45  1  0
 17 46  1  0
 17 47  1  0
 17 48  1  0
 23 49  1  0
 23 50  1  0
 23 51  1  0
 24 52  1  0
 25 53  1  0
M  CHG  1  16   1
M  END
>  <UniqueID>  (28) 
28

>  <SMILES>  (28) 
CCN(CC)CCNc1c2ccccc2[n+](C)c2c(Br)c(OC)ccc12

>  <Energy>  (28) 
86.26093502892728

>  <Genealogy>  (28) 
CCN(CC)CCNc1c2ccccc2[n+](C)c2c(Br)c(OC)ccc12 (3D coordinates assigned)
CCN(CC)CCNc1c2ccccc2[n+](C)c2c(Br)c(OC)ccc12 (optimized conformer: 86.26093502892728 kcal/mol)

>  <smiles>  (28) 
CCN(CC)CCNc1c2ccccc2[n+](C)c2c(Br)c(OC)ccc12

>  <score_type>  (28) 
oracle

>  <origin>  (28) 
adg

>  <m_score__min__energy>  (28) 
-5.6500000000000004

>  <m_primary>  (28) 
energy

$$$$
28:0
     RDKit          3D

 52 54  0  0  0  0  0  0  0  0999 V2000
   63.3590   33.4500   46.7570 C   0  0  0  0  0  0  0  0  0  0  0  0
   63.4350   32.3400   47.8120 C   0  0  0  0  0  0  0  0  0  0  0  0
   62.6450   32.6480   49.0300 N   0  0  2  0  0  0  0  0  0  0  0  0
   62.5710   34.1090   49.2290 C   0  0  0  0  0  0  0  0  0  0  0  0
   63.1080   31.9500   50.2600 C   0  0  0  0  0  0  0  0  0  0  0  0
   61.9840   31.2370   51.0550 C   0  0  0  0  0  0  0  0  0  0  0  0
   60.8620   30.8220   50.1970 N   0  0  0  0  0  0  0  0  0  0  0  0
   61.1180   29.5920   49.4310 C   0  0  0  0  0  0  0  0  0  0  0  0
   60.1880   29.4590   48.2140 C   0  0  0  0  0  0  0  0  0  0  0  0
   59.3220   30.6300   48.0520 N   0  0  0  0  0  0  0  0  0  0  0  0
   58.9240   31.1450   46.7680 C   0  0  0  0  0  0  0  0  0  0  0  0
   59.1060   32.5050   46.4330 C   0  0  0  0  0  0  0  0  0  0  0  0
   59.7100   33.3990   47.3400 C   0  0  0  0  0  0  0  0  0  0  0  0
   59.8560   34.7470   47.0200 C   0  0  0  0  0  0  0  0  0  0  0  0
   59.3960   35.2310   45.8010 C   0  0  0  0  0  0  0  0  0  0  0  0
   58.8120   34.3660   44.8760 C   0  0  0  0  0  0  0  0  0  0  0  0
   58.6800   32.9810   45.1490 C   0  0  0  0  0  0  0  0  0  0  0  0
   58.1410   32.1040   44.2180 N   0  0  0  0  0  0  0  0  0  0  0  0
   57.8320   32.5490   42.8450 C   0  0  0  0  0  0  0  0  0  0  0  0
   57.8860   30.8060   44.5970 C   0  0  0  0  0  0  0  0  0  0  0  0
   57.1910   29.8350   43.8440 C   0  0  0  0  0  0  0  0  0  0  0  0
   57.0650   28.6140   44.4980 C   0  0  0  0  0  0  0  0  0  0  0  0
   57.7930   28.7340   46.0090 S   0  0  0  0  0  0  0  0  0  0  0  0
   58.2850   30.3320   45.8380 C   0  0  0  0  0  0  0  0  0  0  0  0
   63.2921   34.4274   47.2573 H   0  0  0  0  0  0  0  0  0  0  0  0
   64.2612   33.4208   46.1284 H   0  0  0  0  0  0  0  0  0  0  0  0
   62.4692   33.2981   46.1284 H   0  0  0  0  0  0  0  0  0  0  0  0
   63.0509   31.4087   47.3703 H   0  0  0  0  0  0  0  0  0  0  0  0
   64.4878   32.2441   48.1160 H   0  0  0  0  0  0  0  0  0  0  0  0
   61.6630   32.3290   48.8550 H   0  0  0  0  0  0  0  0  0  0  0  0
   62.5597   34.3322   50.3061 H   0  0  0  0  0  0  0  0  0  0  0  0
   63.4461   34.5871   48.7646 H   0  0  0  0  0  0  0  0  0  0  0  0
   61.6521   34.4962   48.7646 H   0  0  0  0  0  0  0  0  0  0  0  0
   63.8535   31.1960   49.9674 H   0  0  0  0  0  0  0  0  0  0  0  0
   63.5185   32.7248   50.9242 H   0  0  0  0  0  0  0  0  0  0  0  0
   62.4065   30.3443   51.5394 H   0  0  0  0  0  0  0  0  0  0  0  0
   61.5927   31.9516   51.7941 H   0  0  0  0  0  0  0  0  0  0  0  0
   60.6280   31.5920   49.5280 H   0  0  0  0  0  0  0  0  0  0  0  0
   62.1604   29.6042   49.0801 H   0  0  0  0  0  0  0  0  0  0  0  0
   60.9280   28.7360   50.0952 H   0  0  0  0  0  0  0  0  0  0  0  0
   60.8024   29.3442   47.3088 H   0  0  0  0  0  0  0  0  0  0  0  0
   59.5446   28.5811   48.3734 H   0  0  0  0  0  0  0  0  0  0  0  0
   59.1020   31.1910   48.9060 H   0  0  0  0  0  0  0  0  0  0  0  0
   60.0700   33.0283   48.3111 H   0  0  0  0  0  0  0  0  0  0  0  0
   60.3371   35.4309   47.7347 H   0  0  0  0  0  0  0  0  0  0  0  0
   59.4930   36.3010   45.5648 H   0  0  0  0  0  0  0  0  0  0  0  0
   58.4475   34.7652   43.9180 H   0  0  0  0  0  0  0  0  0  0  0  0
   57.2050   33.4519   42.8846 H   0  0  0  0  0  0  0  0  0  0  0  0
   58.7681   32.7756   42.3136 H   0  0  0  0  0  0  0  0  0  0  0  0
   57.2926   31.7511   42.3136 H   0  0  0  0  0  0  0  0  0  0  0  0
   56.7884   30.0255   42.8382 H   0  0  0  0  0  0  0  0  0  0  0  0
   56.5709   27.7182   44.0937 H   0  0  0  0  0  0  0  0  0  0  0  0
  1  2  1  0
  2  3  1  0
  3  4  1  0
  3  5  1  0
  5  6  1  0
  6  7  1  0
  7  8  1  0
  8  9  1  0
  9 10  1  0
 10 11  1  0
 11 12  2  0
 12 13  1  0
 13 14  2  0
 14 15  1  0
 15 16  2  0
 16 17  1  0
 17 18  2  0
 18 19  1  0
 18 20  1  0
 20 21  1  0
 21 22  2  0
 22 23  1  0
 23 24  1  0
 24 11  1  0
 17 12  1  0
 24 20  2  0
  1 25  1  0
  1 26  1  0
  1 27  1  0
  2 28  1  0
  2 29  1  0
  3 30  1  6
  4 31  1  0
  4 32  1  0
  4 33  1  0
  5 34  1  0
  5 35  1  0
  6 36  1  0
  6 37  1  0
  7 38  1  0
  8 39  1  0
  8 40  1  0
  9 41  1  0
  9 42  1  0
 10 43  1  0
 13 44  1  0
 14 45  1  0
 15 46  1  0
 16 47  1  0
 19 48  1  0
 19 49  1  0
 19 50  1  0
 21 51  1  0
 22 52  1  0
M  CHG  2   3   1  18   1
M  END
>  <UniqueID>  (29) 
29

>  <SMILES>  (29) 
CC[N@H+](C)CCNCCNc1c2ccccc2[n+](C)c2ccsc12

>  <Energy>  (29) 
101.98422885607225

>  <Genealogy>  (29) 
CC[NH+](C)CCNCCNc1c2ccccc2[n+](C)c2ccsc12 (protonated)
CC[N@H+](C)CCNCCNc1c2ccccc2[n+](C)c2ccsc12 (chirality)
CC[N@H+](C)CCNCCNc1c2ccccc2[n+](C)c2ccsc12 (3D coordinates assigned)
CC[N@H+](C)CCNCCNc1c2ccccc2[n+](C)c2ccsc12 (optimized conformer: 101.98422885607225 kcal/mol)

>  <smiles>  (29) 
CCN(C)CCNCCNc1c2ccccc2[n+](C)c2ccsc12

>  <score_type>  (29) 
oracle

>  <origin>  (29) 
adg

>  <m_score__min__energy>  (29) 
-3.98

>  <m_primary>  (29) 
energy

$$$$
29:0
     RDKit          3D

 58 61  0  0  0  0  0  0  0  0999 V2000
   59.6960   33.7680   50.5790 C   0  0  0  0  0  0  0  0  0  0  0  0
   58.8190   33.0870   51.6350 C   0  0  0  0  0  0  0  0  0  0  0  0
   59.5410   32.0140   52.3680 N   0  0  2  0  0  0  0  0  0  0  0  0
   60.9870   32.3110   52.4230 C   0  0  0  0  0  0  0  0  0  0  0  0
   59.3330   30.6940   51.7170 C   0  0  0  0  0  0  0  0  0  0  0  0
   60.6380   29.8820   51.6050 C   0  0  0  0  0  0  0  0  0  0  0  0
   61.0030   29.6860   50.2000 N   0  0  0  0  0  0  0  0  0  0  0  0
   61.1800   30.7790   49.2800 C   0  0  0  0  0  0  0  0  0  0  0  0
   60.1800   31.0680   48.3580 C   0  0  0  0  0  0  0  0  0  0  0  0
   60.3180   32.1190   47.4350 C   0  0  0  0  0  0  0  0  0  0  0  0
   59.3330   32.3410   46.4170 C   0  0  0  0  0  0  0  0  0  0  0  0
   58.4120   31.3500   45.9590 C   0  0  0  0  0  0  0  0  0  0  0  0
   58.5140   30.0170   46.3680 O   0  0  0  0  0  0  0  0  0  0  0  0
   59.2520   29.0560   45.6240 C   0  0  0  0  0  0  0  0  0  0  0  0
   57.4040   31.6830   45.0360 C   0  0  0  0  0  0  0  0  0  0  0  0
   56.4720   30.6960   44.6770 O   0  0  0  0  0  0  0  0  0  0  0  0
   56.4820   29.9840   43.4430 C   0  0  0  0  0  0  0  0  0  0  0  0
   57.3580   32.9760   44.4950 C   0  0  0  0  0  0  0  0  0  0  0  0
   58.3190   33.9160   44.8440 C   0  0  0  0  0  0  0  0  0  0  0  0
   59.3140   33.6020   45.7790 C   0  0  0  0  0  0  0  0  0  0  0  0
   60.2950   34.5400   46.0710 C   0  0  0  0  0  0  0  0  0  0  0  0
   61.3270   34.2170   46.9400 C   0  0  0  0  0  0  0  0  0  0  0  0
   61.3790   33.0010   47.5820 N   0  0  0  0  0  0  0  0  0  0  0  0
   62.4450   32.6770   48.4120 C   0  0  0  0  0  0  0  0  0  0  0  0
   63.6720   33.3950   48.3900 C   0  0  0  0  0  0  0  0  0  0  0  0
   64.7260   33.0510   49.2360 C   0  0  0  0  0  0  0  0  0  0  0  0
   64.6060   31.9750   50.1040 C   0  0  0  0  0  0  0  0  0  0  0  0
   63.4350   31.2220   50.1240 C   0  0  0  0  0  0  0  0  0  0  0  0
   62.3510   31.5560   49.2850 C   0  0  0  0  0  0  0  0  0  0  0  0
   60.4704   34.3693   51.0778 H   0  0  0  0  0  0  0  0  0  0  0  0
   60.1745   33.0024   49.9506 H   0  0  0  0  0  0  0  0  0  0  0  0
   59.0728   34.4212   49.9506 H   0  0  0  0  0  0  0  0  0  0  0  0
   58.4848   33.8452   52.3585 H   0  0  0  0  0  0  0  0  0  0  0  0
   57.9685   32.6225   51.1145 H   0  0  0  0  0  0  0  0  0  0  0  0
   59.1930   31.9630   53.3560 H   0  0  0  0  0  0  0  0  0  0  0  0
   61.3081   32.3770   53.4730 H   0  0  0  0  0  0  0  0  0  0  0  0
   61.5455   31.5088   51.9185 H   0  0  0  0  0  0  0  0  0  0  0  0
   61.1841   33.2684   51.9185 H   0  0  0  0  0  0  0  0  0  0  0  0
   58.6082   30.1176   52.3107 H   0  0  0  0  0  0  0  0  0  0  0  0
   58.9636   30.8775   50.6972 H   0  0  0  0  0  0  0  0  0  0  0  0
   61.4467   30.4246   52.1165 H   0  0  0  0  0  0  0  0  0  0  0  0
   60.4854   28.8982   52.0728 H   0  0  0  0  0  0  0  0  0  0  0  0
   61.0970   28.7050   49.8500 H   0  0  0  0  0  0  0  0  0  0  0  0
   59.2622   30.4617   48.3509 H   0  0  0  0  0  0  0  0  0  0  0  0
   59.7728   28.3778   46.3159 H   0  0  0  0  0  0  0  0  0  0  0  0
   58.5647   28.4763   44.9902 H   0  0  0  0  0  0  0  0  0  0  0  0
   59.9894   29.5704   44.9902 H   0  0  0  0  0  0  0  0  0  0  0  0
   56.4972   28.9026   43.6438 H   0  0  0  0  0  0  0  0  0  0  0  0
   55.5802   30.2372   42.8662 H   0  0  0  0  0  0  0  0  0  0  0  0
   57.3763   30.2625   42.8662 H   0  0  0  0  0  0  0  0  0  0  0  0
   56.5573   33.2469   43.7911 H   0  0  0  0  0  0  0  0  0  0  0  0
   58.2988   34.9145   44.3829 H   0  0  0  0  0  0  0  0  0  0  0  0
   60.2540   35.5394   45.6133 H   0  0  0  0  0  0  0  0  0  0  0  0
   62.1248   34.9524   47.1206 H   0  0  0  0  0  0  0  0  0  0  0  0
   63.7922   34.2373   47.6929 H   0  0  0  0  0  0  0  0  0  0  0  0
   65.6575   33.6358   49.2151 H   0  0  0  0  0  0  0  0  0  0  0  0
   65.4369   31.7167   50.7770 H   0  0  0  0  0  0  0  0  0  0  0  0
   63.3543   30.3584   50.8005 H   0  0  0  0  0  0  0  0  0  0  0  0
  1  2  1  0
  2  3  1  0
  3  4  1  0
  3  5  1  0
  5  6  1  0
  6  7  1  0
  7  8  1  0
  8  9  2  0
  9 10  1  0
 10 11  2  0
 11 12  1  0
 12 13  1  0
 13 14  1  0
 12 15  2  0
 15 16  1  0
 16 17  1  0
 15 18  1  0
 18 19  2  0
 19 20  1  0
 20 21  2  0
 21 22  1  0
 22 23  2  0
 23 24  1  0
 24 25  2  0
 25 26  1  0
 26 27  2  0
 27 28  1  0
 28 29  2  0
 29  8  1  0
 23 10  1  0
 29 24  1  0
 20 11  1  0
  1 30  1  0
  1 31  1  0
  1 32  1  0
  2 33  1  0
  2 34  1  0
  3 35  1  1
  4 36  1  0
  4 37  1  0
  4 38  1  0
  5 39  1  0
  5 40  1  0
  6 41  1  0
  6 42  1  0
  7 43  1  0
  9 44  1  0
 14 45  1  0
 14 46  1  0
 14 47  1  0
 17 48  1  0
 17 49  1  0
 17 50  1  0
 18 51  1  0
 19 52  1  0
 21 53  1  0
 22 54  1  0
 25 55  1  0
 26 56  1  0
 27 57  1  0
 28 58  1  0
M  CHG  2   3   1  23   1
M  END
>  <UniqueID>  (30) 
30

>  <SMILES>  (30) 
CC[N@H+](C)CCNc1cc2c3c(OC)c(OC)ccc3cc[n+]2c2ccccc12

>  <Energy>  (30) 
99.82103672140539

>  <Genealogy>  (30) 
CC[NH+](C)CCNc1cc2c3c(OC)c(OC)ccc3cc[n+]2c2ccccc12 (protonated)
CC[N@H+](C)CCNc1cc2c3c(OC)c(OC)ccc3cc[n+]2c2ccccc12 (chirality)
CC[N@H+](C)CCNc1cc2c3c(OC)c(OC)ccc3cc[n+]2c2ccccc12 (3D coordinates assigned)
CC[N@H+](C)CCNc1cc2c3c(OC)c(OC)ccc3cc[n+]2c2ccccc12 (optimized conformer: 99.82103672140539 kcal/mol)

>  <smiles>  (30) 
CCN(C)CCNc1cc2c3c(OC)c(OC)ccc3cc[n+]2c2ccccc12

>  <score_type>  (30) 
oracle

>  <origin>  (30) 
adg

>  <m_score__min__energy>  (30) 
-4.8499999999999996

>  <m_primary>  (30) 
energy

$$$$
30:0
     RDKit          3D

 65 68  0  0  0  0  0  0  0  0999 V2000
   53.3060   24.4350   45.3780 C   0  0  0  0  0  0  0  0  0  0  0  0
   54.2820   25.2680   45.9940 O   0  0  0  0  0  0  0  0  0  0  0  0
   55.6690   25.0800   45.8890 C   0  0  0  0  0  0  0  0  0  0  0  0
   56.2610   23.8040   45.9680 C   0  0  0  0  0  0  0  0  0  0  0  0
   57.6460   23.6620   45.8540 C   0  0  0  0  0  0  0  0  0  0  0  0
   58.4550   24.7840   45.6660 C   0  0  0  0  0  0  0  0  0  0  0  0
   57.8820   26.0620   45.6010 C   0  0  0  0  0  0  0  0  0  0  0  0
   56.4840   26.2040   45.6950 C   0  0  0  0  0  0  0  0  0  0  0  0
   55.9030   27.4750   45.6210 O   0  0  0  0  0  0  0  0  0  0  0  0
   56.6450   28.6400   45.2610 C   0  0  0  0  0  0  0  0  0  0  0  0
   58.0710   28.5680   45.8390 C   0  0  2  0  0  0  0  0  0  0  0  0
   58.9280   29.7910   45.4330 C   0  0  0  0  0  0  0  0  0  0  0  0
   58.1990   30.7890   44.5120 C   0  0  0  0  0  0  0  0  0  0  0  0
   57.5040   31.8530   45.2720 N   0  0  0  0  0  0  0  0  0  0  0  0
   58.1150   32.0560   46.6110 C   0  0  0  0  0  0  0  0  0  0  0  0
   57.8330   33.4600   47.1650 C   0  0  0  0  0  0  0  0  0  0  0  0
   58.3570   34.5180   46.2710 N   0  0  0  0  0  0  0  0  0  0  0  0
   59.5420   35.2400   46.7850 C   0  0  0  0  0  0  0  0  0  0  0  0
   60.8730   34.4730   46.6260 C   0  0  0  0  0  0  0  0  0  0  0  0
   61.0050   33.4730   47.7140 N   0  0  0  0  0  0  0  0  0  0  0  0
   61.7690   32.2740   47.3080 C   0  0  0  0  0  0  0  0  0  0  0  0
   63.2780   32.5560   47.1290 C   0  0  0  0  0  0  0  0  0  0  0  0
   63.7740   33.7250   47.9940 C   0  0  0  0  0  0  0  0  0  0  0  0
   62.9720   33.8270   49.2880 C   0  0  0  0  0  0  0  0  0  0  0  0
   61.4680   34.0340   49.0110 C   0  0  0  0  0  0  0  0  0  0  0  0
   58.4710   34.1270   44.8490 C   0  0  0  0  0  0  0  0  0  0  0  0
   57.3910   33.1040   44.4760 C   0  0  0  0  0  0  0  0  0  0  0  0
   58.7510   27.2700   45.3590 C   0  0  0  0  0  0  0  0  0  0  0  0
   52.7132   23.9290   46.1542 H   0  0  0  0  0  0  0  0  0  0  0  0
   52.6422   25.0493   44.7518 H   0  0  0  0  0  0  0  0  0  0  0  0
   53.8083   23.6829   44.7518 H   0  0  0  0  0  0  0  0  0  0  0  0
   55.6300   22.9159   46.1201 H   0  0  0  0  0  0  0  0  0  0  0  0
   58.1009   22.6622   45.9126 H   0  0  0  0  0  0  0  0  0  0  0  0
   59.5442   24.6652   45.5687 H   0  0  0  0  0  0  0  0  0  0  0  0
   56.7013   28.7095   44.1646 H   0  0  0  0  0  0  0  0  0  0  0  0
   56.1383   29.5265   45.6703 H   0  0  0  0  0  0  0  0  0  0  0  0
   57.9912   28.5735   46.9361 H   0  0  0  0  0  0  0  0  0  0  0  0
   59.2293   30.3215   46.3483 H   0  0  0  0  0  0  0  0  0  0  0  0
   59.7872   29.4035   44.8659 H   0  0  0  0  0  0  0  0  0  0  0  0
   58.9367   31.2566   43.8433 H   0  0  0  0  0  0  0  0  0  0  0  0
   57.4395   30.2301   43.9456 H   0  0  0  0  0  0  0  0  0  0  0  0
   57.7023   31.3103   47.3064 H   0  0  0  0  0  0  0  0  0  0  0  0
   59.2044   31.9439   46.5079 H   0  0  0  0  0  0  0  0  0  0  0  0
   56.7458   33.5894   47.2712 H   0  0  0  0  0  0  0  0  0  0  0  0
   58.3383   33.5523   48.1377 H   0  0  0  0  0  0  0  0  0  0  0  0
   59.6268   36.1930   46.2422 H   0  0  0  0  0  0  0  0  0  0  0  0
   59.3839   35.3753   47.8651 H   0  0  0  0  0  0  0  0  0  0  0  0
   60.8854   33.9594   45.6534 H   0  0  0  0  0  0  0  0  0  0  0  0
   61.7118   35.1827   46.6788 H   0  0  0  0  0  0  0  0  0  0  0  0
   61.6454   31.5006   48.0804 H   0  0  0  0  0  0  0  0  0  0  0  0
   61.3762   31.9457   46.3344 H   0  0  0  0  0  0  0  0  0  0  0  0
   63.8395   31.6515   47.4058 H   0  0  0  0  0  0  0  0  0  0  0  0
   63.4399   32.8319   46.0765 H   0  0  0  0  0  0  0  0  0  0  0  0
   64.8344   33.5660   48.2397 H   0  0  0  0  0  0  0  0  0  0  0  0
   63.6453   34.6591   47.4276 H   0  0  0  0  0  0  0  0  0  0  0  0
   63.1043   32.8991   49.8637 H   0  0  0  0  0  0  0  0  0  0  0  0
   63.3401   34.6963   49.8526 H   0  0  0  0  0  0  0  0  0  0  0  0
   60.8986   33.5511   49.8188 H   0  0  0  0  0  0  0  0  0  0  0  0
   61.3016   35.1203   48.9634 H   0  0  0  0  0  0  0  0  0  0  0  0
   58.3537   35.0210   44.2189 H   0  0  0  0  0  0  0  0  0  0  0  0
   59.4588   33.6709   44.6874 H   0  0  0  0  0  0  0  0  0  0  0  0
   56.4022   33.5508   44.6567 H   0  0  0  0  0  0  0  0  0  0  0  0
   57.5245   32.8431   43.4158 H   0  0  0  0  0  0  0  0  0  0  0  0
   58.9550   27.3521   44.2812 H   0  0  0  0  0  0  0  0  0  0  0  0
   59.6833   27.1409   45.9283 H   0  0  0  0  0  0  0  0  0  0  0  0
  1  2  1  0
  2  3  1  0
  3  4  2  0
  4  5  1  0
  5  6  2  0
  6  7  1  0
  7  8  2  0
  8  9  1  0
  9 10  1  0
 10 11  1  0
 11 12  1  0
 12 13  1  0
 13 14  1  0
 14 15  1  0
 15 16  1  0
 16 17  1  0
 17 18  1  0
 18 19  1  0
 19 20  1  0
 20 21  1  0
 21 22  1  0
 22 23  1  0
 23 24  1  0
 24 25  1  0
 17 26  1  0
 26 27  1  0
 11 28  1  0
  8  3  1  0
 27 14  1  0
 28  7  1  0
 25 20  1  0
  1 29  1  0
  1 30  1  0
  1 31  1  0
  4 32  1  0
  5 33  1  0
  6 34  1  0
 10 35  1  0
 10 36  1  0
 11 37  1  1
 12 38  1  0
 12 39  1  0
 13 40  1  0
 13 41  1  0
 15 42  1  0
 15 43  1  0
 16 44  1  0
 16 45  1  0
 18 46  1  0
 18 47  1  0
 19 48  1  0
 19 49  1  0
 21 50  1  0
 21 51  1  0
 22 52  1  0
 22 53  1  0
 23 54  1  0
 23 55  1  0
 24 56  1  0
 24 57  1  0
 25 58  1  0
 25 59  1  0
 26 60  1  0
 26 61  1  0
 27 62  1  0
 27 63  1  0
 28 64  1  0
 28 65  1  0
M  END
>  <UniqueID>  (31) 
31

>  <SMILES>  (31) 
COc1cccc2c1OC[C@H](CCN1CCN(CCN3CCCCC3)CC1)C2

>  <Energy>  (31) 
87.95320616543975

>  <Genealogy>  (31) 
COc1cccc2c1OC[C@H](CCN1CCN(CCN3CCCCC3)CC1)C2 (chirality)
COc1cccc2c1OC[C@H](CCN1CCN(CCN3CCCCC3)CC1)C2 (3D coordinates assigned)
COc1cccc2c1OC[C@H](CCN1CCN(CCN3CCCCC3)CC1)C2 (nonaromatic ring conformer: 87.95320616543975 kcal/mol)

>  <smiles>  (31) 
COc1cccc2c1OCC(CCN1CCN(CCN3CCCCC3)CC1)C2

>  <score_type>  (31) 
oracle

>  <origin>  (31) 
adg

>  <m_score__min__energy>  (31) 
-10.24

>  <m_primary>  (31) 
energy

$$$$
31:0
     RDKit          3D

 43 45  0  0  0  0  0  0  0  0999 V2000
   55.6640   29.7280   43.3670 C   0  0  0  0  0  0  0  0  0  0  0  0
   56.6130   29.8210   44.5590 C   0  0  0  0  0  0  0  0  0  0  0  0
   57.9160   30.3780   44.1340 N   0  0  0  0  0  0  0  0  0  0  0  0
   58.8290   30.5960   45.2750 C   0  0  0  0  0  0  0  0  0  0  0  0
   58.3840   31.7830   46.1550 C   0  0  0  0  0  0  0  0  0  0  0  0
   57.7880   32.8970   45.3710 N   0  0  0  0  0  0  0  0  0  0  0  0
   57.9400   34.2240   46.0290 C   0  0  0  0  0  0  0  0  0  0  0  0
   59.3770   34.8030   46.1040 C   0  0  0  0  0  0  0  0  0  0  0  0
   60.1030   34.3580   47.2970 N   0  0  0  0  0  0  0  0  0  0  0  0
   59.6000   34.3290   48.5560 C   0  0  0  0  0  0  0  0  0  0  0  0
   60.5470   33.8540   49.4540 C   0  0  0  0  0  0  0  0  0  0  0  0
   61.6700   33.6040   48.6990 C   0  0  0  0  0  0  0  0  0  0  0  0
   62.9220   33.1250   49.0820 C   0  0  0  0  0  0  0  0  0  0  0  0
   63.9030   32.9820   48.0860 C   0  0  0  0  0  0  0  0  0  0  0  0
   63.6180   33.3240   46.7480 C   0  0  0  0  0  0  0  0  0  0  0  0
   62.3470   33.8090   46.3900 C   0  0  0  0  0  0  0  0  0  0  0  0
   61.3810   33.9280   47.3960 C   0  0  0  0  0  0  0  0  0  0  0  0
   58.2170   32.8880   43.9580 C   0  0  0  0  0  0  0  0  0  0  0  0
   57.7820   31.5790   43.2670 C   0  0  0  0  0  0  0  0  0  0  0  0
   54.6301   29.6267   43.7285 H   0  0  0  0  0  0  0  0  0  0  0  0
   55.7514   30.6390   42.7568 H   0  0  0  0  0  0  0  0  0  0  0  0
   55.9266   28.8513   42.7568 H   0  0  0  0  0  0  0  0  0  0  0  0
   56.1709   30.4751   45.3249 H   0  0  0  0  0  0  0  0  0  0  0  0
   56.7711   28.8133   44.9707 H   0  0  0  0  0  0  0  0  0  0  0  0
   58.8500   29.6854   45.8917 H   0  0  0  0  0  0  0  0  0  0  0  0
   59.8260   30.8277   44.8720 H   0  0  0  0  0  0  0  0  0  0  0  0
   57.6360   31.4230   46.8767 H   0  0  0  0  0  0  0  0  0  0  0  0
   59.2815   32.1762   46.6549 H   0  0  0  0  0  0  0  0  0  0  0  0
   56.7530   32.7270   45.3590 H   0  0  0  0  0  0  0  0  0  0  0  0
   57.3190   34.9437   45.4755 H   0  0  0  0  0  0  0  0  0  0  0  0
   57.6371   34.0650   47.0745 H   0  0  0  0  0  0  0  0  0  0  0  0
   59.9338   34.4801   45.2120 H   0  0  0  0  0  0  0  0  0  0  0  0
   59.2923   35.8985   46.1552 H   0  0  0  0  0  0  0  0  0  0  0  0
   58.5806   34.6395   48.8289 H   0  0  0  0  0  0  0  0  0  0  0  0
   60.4253   33.7086   50.5375 H   0  0  0  0  0  0  0  0  0  0  0  0
   63.1351   32.8673   50.1300 H   0  0  0  0  0  0  0  0  0  0  0  0
   64.8999   32.6007   48.3519 H   0  0  0  0  0  0  0  0  0  0  0  0
   64.3956   33.2107   45.9782 H   0  0  0  0  0  0  0  0  0  0  0  0
   62.1190   34.0865   45.3503 H   0  0  0  0  0  0  0  0  0  0  0  0
   57.7600   33.7416   43.4360 H   0  0  0  0  0  0  0  0  0  0  0  0
   59.3139   32.9617   43.9198 H   0  0  0  0  0  0  0  0  0  0  0  0
   56.7280   31.6767   42.9679 H   0  0  0  0  0  0  0  0  0  0  0  0
   58.4483   31.4314   42.4043 H   0  0  0  0  0  0  0  0  0  0  0  0
  1  2  1  0
  2  3  1  0
  3  4  1  0
  4  5  1  0
  5  6  1  0
  6  7  1  0
  7  8  1  0
  8  9  1  0
  9 10  1  0
 10 11  2  0
 11 12  1  0
 12 13  2  0
 13 14  1  0
 14 15  2  0
 15 16  1  0
 16 17  2  0
  6 18  1  0
 18 19  1  0
 19  3  1  0
 17  9  1  0
 17 12  1  0
  1 20  1  0
  1 21  1  0
  1 22  1  0
  2 23  1  0
  2 24  1  0
  4 25  1  0
  4 26  1  0
  5 27  1  0
  5 28  1  0
  6 29  1  0
  7 30  1  0
  7 31  1  0
  8 32  1  0
  8 33  1  0
 10 34  1  0
 11 35  1  0
 13 36  1  0
 14 37  1  0
 15 38  1  0
 16 39  1  0
 18 40  1  0
 18 41  1  0
 19 42  1  0
 19 43  1  0
M  CHG  1   6   1
M  END
>  <UniqueID>  (32) 
32

>  <SMILES>  (32) 
CCN1CC[NH+](CCn2ccc3ccccc32)CC1

>  <Energy>  (32) 
91.97982289921087

>  <Genealogy>  (32) 
CCN1CC[NH+](CCn2ccc3ccccc32)CC1 (protonated)
CCN1CC[NH+](CCn2ccc3ccccc32)CC1 (3D coordinates assigned)
CCN1CC[NH+](CCn2ccc3ccccc32)CC1 (nonaromatic ring conformer: 91.97982289921087 kcal/mol)

>  <smiles>  (32) 
CCN1CCN(CCn2ccc3ccccc32)CC1

>  <score_type>  (32) 
oracle

>  <origin>  (32) 
adg

>  <m_score__min__energy>  (32) 
-5.2300000000000004

>  <m_primary>  (32) 
energy

$$$$
