0:0
     RDKit          3D

 49 50  0  0  0  0  0  0  0  0999 V2000
   60.9519   34.3288   50.8787 H   0  0  0  0  0  0  0  0  0  0  0  0
   60.0250   33.8110   50.5910 C   0  0  0  0  0  0  0  0  0  0  0  0
   58.9080   33.9060   51.4230 O   0  0  0  0  0  0  0  0  0  0  0  0
   58.8240   33.1790   52.6390 C   0  0  0  0  0  0  0  0  0  0  0  0
   58.9043   33.8739   53.4879 H   0  0  0  0  0  0  0  0  0  0  0  0
   57.8591   32.6529   52.6858 H   0  0  0  0  0  0  0  0  0  0  0  0
   59.6435   32.4467   52.6858 H   0  0  0  0  0  0  0  0  0  0  0  0
   59.9990   33.1060   49.4510 C   0  0  0  0  0  0  0  0  0  0  0  0
   58.8580   32.2310   49.0740 C   0  0  0  0  0  0  0  0  0  0  0  0
   57.8880   32.7190   48.4310 O   0  0  0  0  0  0  0  0  0  0  0  0
   58.8610   30.8690   49.3970 O   0  0  0  0  0  0  0  0  0  0  0  0
   59.8340   29.9640   48.8910 C   0  0  0  0  0  0  0  0  0  0  0  0
   60.3551   29.4793   49.7297 H   0  0  0  0  0  0  0  0  0  0  0  0
   59.3381   29.1987   48.2759 H   0  0  0  0  0  0  0  0  0  0  0  0
   60.5615   30.5140   48.2759 H   0  0  0  0  0  0  0  0  0  0  0  0
   61.1570   33.1950   48.5300 C   0  0  0  0  0  0  0  0  0  0  0  0
   62.3870   32.6670   48.9560 C   0  0  0  0  0  0  0  0  0  0  0  0
   62.4653   32.2018   49.9497 H   0  0  0  0  0  0  0  0  0  0  0  0
   63.5100   32.7270   48.1310 C   0  0  0  0  0  0  0  0  0  0  0  0
   64.4682   32.3117   48.4766 H   0  0  0  0  0  0  0  0  0  0  0  0
   63.4200   33.3120   46.8700 C   0  0  0  0  0  0  0  0  0  0  0  0
   64.3055   33.3522   46.2187 H   0  0  0  0  0  0  0  0  0  0  0  0
   62.2080   33.8470   46.4320 C   0  0  0  0  0  0  0  0  0  0  0  0
   62.1440   34.2994   45.4314 H   0  0  0  0  0  0  0  0  0  0  0  0
   61.0670   33.8150   47.2540 C   0  0  0  0  0  0  0  0  0  0  0  0
   59.7780   34.4110   46.7190 C   0  0  0  0  0  0  0  0  0  0  0  0
   59.8411   35.5072   46.7850 H   0  0  0  0  0  0  0  0  0  0  0  0
   58.9487   34.0189   47.3261 H   0  0  0  0  0  0  0  0  0  0  0  0
   59.5350   34.0460   45.3600 O   0  0  0  0  0  0  0  0  0  0  0  0
   58.8610   32.8910   44.9330 C   0  0  0  0  0  0  0  0  0  0  0  0
   58.8960   31.7640   45.7600 C   0  0  0  0  0  0  0  0  0  0  0  0
   59.4824   31.7884   46.6903 H   0  0  0  0  0  0  0  0  0  0  0  0
   58.1930   30.6080   45.4150 C   0  0  0  0  0  0  0  0  0  0  0  0
   58.2189   29.7322   46.0800 H   0  0  0  0  0  0  0  0  0  0  0  0
   57.4540   30.5590   44.2240 C   0  0  0  0  0  0  0  0  0  0  0  0
   56.6410   29.3350   43.8780 C   0  0  0  0  0  0  0  0  0  0  0  0
   55.7661   29.6443   43.2873 H   0  0  0  0  0  0  0  0  0  0  0  0
   56.3340   28.8523   44.8176 H   0  0  0  0  0  0  0  0  0  0  0  0
   57.4220   28.3610   43.0980 N   0  0  0  0  0  0  0  0  0  0  0  0
   57.9620   28.8800   42.3670 H   0  0  0  0  0  0  0  0  0  0  0  0
   56.7820   27.6870   42.6150 H   0  0  0  0  0  0  0  0  0  0  0  0
   58.3740   27.6170   43.9310 C   0  0  0  0  0  0  0  0  0  0  0  0
   58.1480   27.7936   44.9930 H   0  0  0  0  0  0  0  0  0  0  0  0
   58.2907   26.5422   43.7122 H   0  0  0  0  0  0  0  0  0  0  0  0
   59.3968   27.9575   43.7122 H   0  0  0  0  0  0  0  0  0  0  0  0
   57.4370   31.6790   43.3790 C   0  0  0  0  0  0  0  0  0  0  0  0
   56.8667   31.6461   42.4390 H   0  0  0  0  0  0  0  0  0  0  0  0
   58.1410   32.8370   43.7250 C   0  0  0  0  0  0  0  0  0  0  0  0
   58.1319   33.7069   43.0518 H   0  0  0  0  0  0  0  0  0  0  0  0
  1  2  1  0
  2  3  1  0
  3  4  1  0
  4  5  1  0
  4  6  1  0
  4  7  1  0
  2  8  2  0
  8  9  1  0
  9 10  2  0
  9 11  1  0
 11 12  1  0
 12 13  1  0
 12 14  1  0
 12 15  1  0
  8 16  1  0
 16 17  2  0
 17 18  1  0
 17 19  1  0
 19 20  1  0
 19 21  2  0
 21 22  1  0
 21 23  1  0
 23 24  1  0
 23 25  2  0
 25 26  1  0
 26 27  1  0
 26 28  1  0
 26 29  1  0
 29 30  1  0
 30 31  2  0
 31 32  1  0
 31 33  1  0
 33 34  1  0
 33 35  2  0
 35 36  1  0
 36 37  1  0
 36 38  1  0
 36 39  1  0
 39 40  1  0
 39 41  1  0
 39 42  1  0
 42 43  1  0
 42 44  1  0
 42 45  1  0
 35 46  1  0
 46 47  1  0
 46 48  2  0
 48 49  1  0
 25 16  1  0
 48 30  1  0
M  CHG  1  39   1
M  END
>  <UniqueID>  (1) 
1

>  <SMILES>  (1) 
C[NH2+]Cc1ccc(OCc2ccccc2/C(=C/OC)C(=O)OC)cc1

>  <Energy>  (1) 
48.105028125903225

>  <Genealogy>  (1) 
C[NH2+]Cc1ccc(OCc2ccccc2C(=COC)C(=O)OC)cc1 (protonated)
C[NH2+]Cc1ccc(OCc2ccccc2/C(=C/OC)C(=O)OC)cc1 (cis-trans isomerization)
C[NH2+]Cc1ccc(OCc2ccccc2/C(=C/OC)C(=O)OC)cc1 (3D coordinates assigned)
C[NH2+]Cc1ccc(OCc2ccccc2/C(=C/OC)C(=O)OC)cc1 (optimized conformer: 48.105028125903225 kcal/mol)

>  <smiles>  (1) 
CNCc1ccc(OCc2ccccc2C(=COC)C(=O)OC)cc1

>  <score_type>  (1) 
oracle

>  <origin>  (1) 
adg

>  <m_score__min__energy>  (1) 
-5.7400000000000002

>  <m_primary>  (1) 
energy

$$$$
1:0
     RDKit          3D

 48 50  0  0  0  0  0  0  0  0999 V2000
   56.9060   30.3580   44.0270 C   0  0  0  0  0  0  0  0  0  0  0  0
   56.6310   29.2790   44.8700 C   0  0  0  0  0  0  0  0  0  0  0  0
   57.5210   28.9450   45.8940 C   0  0  0  0  0  0  0  0  0  0  0  0
   58.7120   29.6740   46.0680 C   0  0  0  0  0  0  0  0  0  0  0  0
   59.6530   29.3290   47.2060 C   0  0  0  0  0  0  0  0  0  0  0  0
   59.9290   30.4760   48.1140 N   0  0  0  0  0  0  0  0  0  0  0  0
   58.9080   30.5750   49.1910 C   0  0  0  0  0  0  0  0  0  0  0  0
   58.5050   32.0290   49.5250 C   0  0  0  0  0  0  0  0  0  0  0  0
   59.3110   32.9760   48.8220 O   0  0  0  0  0  0  0  0  0  0  0  0
   59.0230   33.5170   47.5590 C   0  0  0  0  0  0  0  0  0  0  0  0
   57.7280   33.3520   47.0500 C   0  0  0  0  0  0  0  0  0  0  0  0
   57.3850   33.8730   45.7990 C   0  0  0  0  0  0  0  0  0  0  0  0
   58.3370   34.5630   45.0440 C   0  0  0  0  0  0  0  0  0  0  0  0
   59.6330   34.7300   45.5390 C   0  0  0  0  0  0  0  0  0  0  0  0
   59.9800   34.2100   46.7890 C   0  0  0  0  0  0  0  0  0  0  0  0
   61.3070   30.4450   48.6820 C   0  0  0  0  0  0  0  0  0  0  0  0
   62.1600   31.6520   48.3310 C   0  0  0  0  0  0  0  0  0  0  0  0
   62.8870   31.6920   47.1280 C   0  0  0  0  0  0  0  0  0  0  0  0
   63.6690   32.8080   46.8110 C   0  0  0  0  0  0  0  0  0  0  0  0
   63.7490   33.8820   47.6980 C   0  0  0  0  0  0  0  0  0  0  0  0
   63.0580   33.8390   48.9110 C   0  0  0  0  0  0  0  0  0  0  0  0
   62.2740   32.7260   49.2320 C   0  0  0  0  0  0  0  0  0  0  0  0
   58.9590   30.7830   45.2380 C   0  0  0  0  0  0  0  0  0  0  0  0
   58.0650   31.1130   44.2160 C   0  0  0  0  0  0  0  0  0  0  0  0
   56.2097   30.6129   43.2145 H   0  0  0  0  0  0  0  0  0  0  0  0
   55.7122   28.6911   44.7276 H   0  0  0  0  0  0  0  0  0  0  0  0
   57.2893   28.1072   46.5681 H   0  0  0  0  0  0  0  0  0  0  0  0
   59.2030   28.5174   47.7965 H   0  0  0  0  0  0  0  0  0  0  0  0
   60.6121   29.0335   46.7557 H   0  0  0  0  0  0  0  0  0  0  0  0
   59.8700   31.3610   47.5590 H   0  0  0  0  0  0  0  0  0  0  0  0
   58.0086   30.0293   48.8697 H   0  0  0  0  0  0  0  0  0  0  0  0
   59.3534   30.1452   50.1003 H   0  0  0  0  0  0  0  0  0  0  0  0
   57.4519   32.1801   49.2454 H   0  0  0  0  0  0  0  0  0  0  0  0
   58.6533   32.1865   50.6035 H   0  0  0  0  0  0  0  0  0  0  0  0
   56.9752   32.8081   47.6395 H   0  0  0  0  0  0  0  0  0  0  0  0
   56.3652   33.7397   45.4088 H   0  0  0  0  0  0  0  0  0  0  0  0
   58.0664   34.9745   44.0604 H   0  0  0  0  0  0  0  0  0  0  0  0
   60.3821   35.2722   44.9433 H   0  0  0  0  0  0  0  0  0  0  0  0
   61.0023   34.3416   47.1733 H   0  0  0  0  0  0  0  0  0  0  0  0
   61.2259   30.3884   49.7775 H   0  0  0  0  0  0  0  0  0  0  0  0
   61.8072   29.5696   48.2421 H   0  0  0  0  0  0  0  0  0  0  0  0
   62.8406   30.8412   46.4323 H   0  0  0  0  0  0  0  0  0  0  0  0
   64.2219   32.8387   45.8605 H   0  0  0  0  0  0  0  0  0  0  0  0
   64.3563   34.7627   47.4420 H   0  0  0  0  0  0  0  0  0  0  0  0
   63.1304   34.6814   49.6147 H   0  0  0  0  0  0  0  0  0  0  0  0
   61.7434   32.6905   50.1949 H   0  0  0  0  0  0  0  0  0  0  0  0
   59.8606   31.3934   45.3945 H   0  0  0  0  0  0  0  0  0  0  0  0
   58.2750   31.9697   43.5588 H   0  0  0  0  0  0  0  0  0  0  0  0
  1  2  2  0
  2  3  1  0
  3  4  2  0
  4  5  1  0
  5  6  1  0
  6  7  1  0
  7  8  1  0
  8  9  1  0
  9 10  1  0
 10 11  2  0
 11 12  1  0
 12 13  2  0
 13 14  1  0
 14 15  2  0
  6 16  1  0
 16 17  1  0
 17 18  2  0
 18 19  1  0
 19 20  2  0
 20 21  1  0
 21 22  2  0
  4 23  1  0
 23 24  2  0
 24  1  1  0
 15 10  1  0
 22 17  1  0
  1 25  1  0
  2 26  1  0
  3 27  1  0
  5 28  1  0
  5 29  1  0
  6 30  1  0
  7 31  1  0
  7 32  1  0
  8 33  1  0
  8 34  1  0
 11 35  1  0
 12 36  1  0
 13 37  1  0
 14 38  1  0
 15 39  1  0
 16 40  1  0
 16 41  1  0
 18 42  1  0
 19 43  1  0
 20 44  1  0
 21 45  1  0
 22 46  1  0
 23 47  1  0
 24 48  1  0
M  CHG  1   6   1
M  END
>  <UniqueID>  (2) 
2

>  <SMILES>  (2) 
c1ccc(C[NH+](CCOc2ccccc2)Cc2ccccc2)cc1

>  <Energy>  (2) 
57.22294743919715

>  <Genealogy>  (2) 
c1ccc(C[NH+](CCOc2ccccc2)Cc2ccccc2)cc1 (protonated)
c1ccc(C[NH+](CCOc2ccccc2)Cc2ccccc2)cc1 (3D coordinates assigned)
c1ccc(C[NH+](CCOc2ccccc2)Cc2ccccc2)cc1 (optimized conformer: 57.22294743919715 kcal/mol)

>  <smiles>  (2) 
c1ccc(CN(CCOc2ccccc2)Cc2ccccc2)cc1

>  <score_type>  (2) 
oracle

>  <origin>  (2) 
adg

>  <m_score__min__energy>  (2) 
-5.4500000000000002

>  <m_primary>  (2) 
energy

$$$$
2:0
     RDKit          3D

 52 52  0  0  0  0  0  0  0  0999 V2000
   56.6530   22.2970   43.0410 C   0  0  0  0  0  0  0  0  0  0  0  0
   56.3220   23.6020   43.7590 C   0  0  0  0  0  0  0  0  0  0  0  0
   57.5240   24.1110   44.5620 C   0  0  0  0  0  0  0  0  0  0  0  0
   57.3300   23.8530   46.0610 C   0  0  0  0  0  0  0  0  0  0  0  0
   56.4910   24.8880   46.6620 N   0  0  0  0  0  0  0  0  0  0  0  0
   56.3150   26.2250   46.1710 C   0  0  0  0  0  0  0  0  0  0  0  0
   55.1430   26.6660   46.0360 O   0  0  0  0  0  0  0  0  0  0  0  0
   57.4830   27.1330   45.8530 C   0  0  2  0  0  0  0  0  0  0  0  0
   58.6230   26.9370   46.8650 C   0  0  0  0  0  0  0  0  0  0  0  0
   59.3360   28.2320   47.1590 C   0  0  0  0  0  0  0  0  0  0  0  0
   60.1160   28.8540   46.1720 C   0  0  0  0  0  0  0  0  0  0  0  0
   60.8070   30.0300   46.4680 C   0  0  0  0  0  0  0  0  0  0  0  0
   60.7180   30.5710   47.7520 C   0  0  0  0  0  0  0  0  0  0  0  0
   59.9690   29.9500   48.7030 N   0  0  0  0  0  0  0  0  0  0  0  0
   59.2860   28.8040   48.4390 C   0  0  0  0  0  0  0  0  0  0  0  0
   57.0700   28.5350   45.8720 N   0  0  0  0  0  0  0  0  0  0  0  0
   56.4070   29.1950   44.7890 C   0  0  0  0  0  0  0  0  0  0  0  0
   55.1570   29.3590   44.8040 O   0  0  0  0  0  0  0  0  0  0  0  0
   57.1990   29.6210   43.5920 C   0  0  0  0  0  0  0  0  0  0  0  0
   57.3010   31.1520   43.5110 C   0  0  0  0  0  0  0  0  0  0  0  0
   56.8690   31.7910   44.7650 N   0  0  0  0  0  0  0  0  0  0  0  0
   58.0020   32.0860   45.6550 C   0  0  0  0  0  0  0  0  0  0  0  0
   58.0930   33.5940   45.9180 C   0  0  0  0  0  0  0  0  0  0  0  0
   58.9610   33.9290   47.1300 C   0  0  0  0  0  0  0  0  0  0  0  0
   56.8525   21.5104   43.7836 H   0  0  0  0  0  0  0  0  0  0  0  0
   55.8020   21.9991   42.4109 H   0  0  0  0  0  0  0  0  0  0  0  0
   57.5431   22.4407   42.4109 H   0  0  0  0  0  0  0  0  0  0  0  0
   56.0408   24.3606   43.0137 H   0  0  0  0  0  0  0  0  0  0  0  0
   55.4906   23.4164   44.4549 H   0  0  0  0  0  0  0  0  0  0  0  0
   58.4311   23.5903   44.2214 H   0  0  0  0  0  0  0  0  0  0  0  0
   57.6199   25.1950   44.4017 H   0  0  0  0  0  0  0  0  0  0  0  0
   56.8487   22.8736   46.1989 H   0  0  0  0  0  0  0  0  0  0  0  0
   58.3145   23.8686   46.5515 H   0  0  0  0  0  0  0  0  0  0  0  0
   57.8399   26.8686   44.8467 H   0  0  0  0  0  0  0  0  0  0  0  0
   58.2041   26.5401   47.8015 H   0  0  0  0  0  0  0  0  0  0  0  0
   59.3507   26.2358   46.4304 H   0  0  0  0  0  0  0  0  0  0  0  0
   60.1828   28.4150   45.1656 H   0  0  0  0  0  0  0  0  0  0  0  0
   61.4156   30.5256   45.6973 H   0  0  0  0  0  0  0  0  0  0  0  0
   61.2540   31.5003   47.9950 H   0  0  0  0  0  0  0  0  0  0  0  0
   58.6927   28.3242   49.2313 H   0  0  0  0  0  0  0  0  0  0  0  0
   58.2115   29.1969   43.6619 H   0  0  0  0  0  0  0  0  0  0  0  0
   56.6883   29.2571   42.6882 H   0  0  0  0  0  0  0  0  0  0  0  0
   58.3462   31.4300   43.3103 H   0  0  0  0  0  0  0  0  0  0  0  0
   56.6402   31.4986   42.7028 H   0  0  0  0  0  0  0  0  0  0  0  0
   56.2380   31.1180   45.2610 H   0  0  0  0  0  0  0  0  0  0  0  0
   57.8602   31.5589   46.6100 H   0  0  0  0  0  0  0  0  0  0  0  0
   58.9322   31.7497   45.1738 H   0  0  0  0  0  0  0  0  0  0  0  0
   58.5242   34.0807   45.0308 H   0  0  0  0  0  0  0  0  0  0  0  0
   57.0759   33.9572   46.1267 H   0  0  0  0  0  0  0  0  0  0  0  0
   58.4018   33.7132   48.0524 H   0  0  0  0  0  0  0  0  0  0  0  0
   59.8764   33.3196   47.1051 H   0  0  0  0  0  0  0  0  0  0  0  0
   59.2296   34.9954   47.1051 H   0  0  0  0  0  0  0  0  0  0  0  0
  1  2  1  0
  2  3  1  0
  3  4  1  0
  4  5  1  0
  5  6  1  0
  6  7  2  0
  6  8  1  0
  8  9  1  0
  9 10  1  0
 10 11  2  0
 11 12  1  0
 12 13  2  0
 13 14  1  0
 14 15  2  0
  8 16  1  0
 16 17  1  0
 17 18  2  0
 17 19  1  0
 19 20  1  0
 20 21  1  0
 21 22  1  0
 22 23  1  0
 23 24  1  0
 15 10  1  0
  1 25  1  0
  1 26  1  0
  1 27  1  0
  2 28  1  0
  2 29  1  0
  3 30  1  0
  3 31  1  0
  4 32  1  0
  4 33  1  0
  8 34  1  6
  9 35  1  0
  9 36  1  0
 11 37  1  0
 12 38  1  0
 13 39  1  0
 15 40  1  0
 19 41  1  0
 19 42  1  0
 20 43  1  0
 20 44  1  0
 21 45  1  0
 22 46  1  0
 22 47  1  0
 23 48  1  0
 23 49  1  0
 24 50  1  0
 24 51  1  0
 24 52  1  0
M  CHG  2   5  -1  16  -1
M  END
>  <UniqueID>  (3) 
3

>  <SMILES>  (3) 
CCCC[N-]C(=O)[C@H](Cc1cccnc1)[N-]C(=O)CCNCCC

>  <Energy>  (3) 
28.56895418380725

>  <Genealogy>  (3) 
CCCC[N-]C(=O)C(Cc1cccnc1)[N-]C(=O)CCNCCC (protonated)
CCCC[N-]C(=O)[C@H](Cc1cccnc1)[N-]C(=O)CCNCCC (chirality)
CCCC[N-]C(=O)[C@H](Cc1cccnc1)[N-]C(=O)CCNCCC (3D coordinates assigned)
CCCC[N-]C(=O)[C@H](Cc1cccnc1)[N-]C(=O)CCNCCC (optimized conformer: 28.56895418380725 kcal/mol)

>  <smiles>  (3) 
CCCCNC(=O)C(Cc1cccnc1)NC(=O)CCNCCC

>  <score_type>  (3) 
oracle

>  <origin>  (3) 
adg

>  <m_score__min__energy>  (3) 
-11.17

>  <m_primary>  (3) 
energy

$$$$
3:0
     RDKit          3D

 34 36  0  0  0  0  0  0  0  0999 V2000
   64.5940   32.8230   49.5010 Cl  0  0  0  0  0  0  0  0  0  0  0  0
   63.1960   33.2200   48.5180 C   0  0  0  0  0  0  0  0  0  0  0  0
   61.9220   33.2540   49.0950 C   0  0  0  0  0  0  0  0  0  0  0  0
   60.8070   33.5720   48.3130 C   0  0  0  0  0  0  0  0  0  0  0  0
   60.9620   33.8700   46.9500 C   0  0  0  0  0  0  0  0  0  0  0  0
   59.8240   34.1880   46.1370 N   0  0  0  0  0  0  0  0  0  0  0  0
   59.6370   35.3400   45.5190 N   0  0  0  0  0  0  0  0  0  0  0  0
   58.4860   35.3180   44.8680 N   0  0  0  0  0  0  0  0  0  0  0  0
   57.8930   34.1480   45.0630 N   0  0  0  0  0  0  0  0  0  0  0  0
   58.7310   33.4460   45.8540 C   0  0  0  0  0  0  0  0  0  0  0  0
   58.3910   32.0930   46.4360 C   0  0  0  0  0  0  0  0  0  0  0  0
   57.6070   31.2370   45.5190 N   0  0  0  0  0  0  0  0  0  0  0  0
   57.7560   31.6360   44.1020 C   0  0  0  0  0  0  0  0  0  0  0  0
   57.0440   30.6660   43.1440 C   0  0  0  0  0  0  0  0  0  0  0  0
   55.6310   29.8460   43.9560 S   0  0  0  0  0  0  0  0  0  0  0  0
   56.6410   28.9790   45.2220 C   0  0  0  0  0  0  0  0  0  0  0  0
   57.8470   29.7960   45.7170 C   0  0  0  0  0  0  0  0  0  0  0  0
   62.2390   33.8100   46.3730 C   0  0  0  0  0  0  0  0  0  0  0  0
   63.3530   33.4950   47.1570 C   0  0  0  0  0  0  0  0  0  0  0  0
   61.7972   33.0304   50.1648 H   0  0  0  0  0  0  0  0  0  0  0  0
   59.8054   33.5887   48.7674 H   0  0  0  0  0  0  0  0  0  0  0  0
   60.3000   36.1470   45.5300 H   0  0  0  0  0  0  0  0  0  0  0  0
   59.3291   31.5734   46.6808 H   0  0  0  0  0  0  0  0  0  0  0  0
   57.7683   32.2702   47.3253 H   0  0  0  0  0  0  0  0  0  0  0  0
   57.3279   32.6407   43.9706 H   0  0  0  0  0  0  0  0  0  0  0  0
   58.8288   31.6213   43.8595 H   0  0  0  0  0  0  0  0  0  0  0  0
   56.6787   31.2280   42.2718 H   0  0  0  0  0  0  0  0  0  0  0  0
   57.7633   29.8926   42.8366 H   0  0  0  0  0  0  0  0  0  0  0  0
   55.9971   28.7529   46.0847 H   0  0  0  0  0  0  0  0  0  0  0  0
   57.0410   28.0709   44.7473 H   0  0  0  0  0  0  0  0  0  0  0  0
   58.0039   29.5984   46.7877 H   0  0  0  0  0  0  0  0  0  0  0  0
   58.7380   29.5004   45.1437 H   0  0  0  0  0  0  0  0  0  0  0  0
   62.3646   34.0117   45.2990 H   0  0  0  0  0  0  0  0  0  0  0  0
   64.3540   33.4636   46.7020 H   0  0  0  0  0  0  0  0  0  0  0  0
  1  2  1  0
  2  3  2  0
  3  4  1  0
  4  5  2  0
  5  6  1  0
  6  7  1  0
  7  8  2  0
  8  9  1  0
  9 10  2  0
 10 11  1  0
 11 12  1  0
 12 13  1  0
 13 14  1  0
 14 15  1  0
 15 16  1  0
 16 17  1  0
  5 18  1  0
 18 19  2  0
 19  2  1  0
 10  6  1  0
 17 12  1  0
  3 20  1  0
  4 21  1  0
  7 22  1  0
 11 23  1  0
 11 24  1  0
 13 25  1  0
 13 26  1  0
 14 27  1  0
 14 28  1  0
 16 29  1  0
 16 30  1  0
 17 31  1  0
 17 32  1  0
 18 33  1  0
 19 34  1  0
M  CHG  1   7   1
M  END
>  <UniqueID>  (4) 
4

>  <SMILES>  (4) 
Clc1ccc(-n2[nH+]nnc2CN2CCSCC2)cc1

>  <Energy>  (4) 
87.54668307268017

>  <Genealogy>  (4) 
Clc1ccc(-n2[nH+]nnc2CN2CCSCC2)cc1 (protonated)
Clc1ccc(-n2[nH+]nnc2CN2CCSCC2)cc1 (3D coordinates assigned)
Clc1ccc(-n2[nH+]nnc2CN2CCSCC2)cc1 (nonaromatic ring conformer: 87.54668307268017 kcal/mol)

>  <smiles>  (4) 
Clc1ccc(-n2nnnc2CN2CCSCC2)cc1

>  <score_type>  (4) 
oracle

>  <origin>  (4) 
adg

>  <m_score__min__energy>  (4) 
-6.4400000000000004

>  <m_primary>  (4) 
energy

$$$$
4:0
     RDKit          3D

 52 54  0  0  0  0  0  0  0  0999 V2000
   58.5720   33.6910   46.2910 C   0  0  0  0  0  0  0  0  0  0  0  0
   59.6940   34.2380   47.1690 C   0  0  0  0  0  0  0  0  0  0  0  0
   59.5070   33.8220   48.6310 C   0  0  0  0  0  0  0  0  0  0  0  0
   58.4660   32.7060   48.7550 C   0  0  0  0  0  0  0  0  0  0  0  0
   58.5220   32.0910   50.0780 N   0  0  0  0  0  0  0  0  0  0  0  0
   58.6270   30.6890   50.3630 C   0  0  0  0  0  0  0  0  0  0  0  0
   57.6430   30.1090   50.8940 O   0  0  0  0  0  0  0  0  0  0  0  0
   59.8460   29.8770   50.0120 C   0  0  0  0  0  0  0  0  0  0  0  0
   60.4750   30.4030   48.7940 N   0  0  0  0  0  0  0  0  0  0  0  0
   60.2150   30.0510   47.5040 C   0  0  0  0  0  0  0  0  0  0  0  0
   59.1270   29.1530   47.0670 C   0  0  0  0  0  0  0  0  0  0  0  0
   59.0960   27.8190   47.4890 C   0  0  0  0  0  0  0  0  0  0  0  0
   58.0580   26.9770   47.0860 C   0  0  0  0  0  0  0  0  0  0  0  0
   57.0240   27.4640   46.2640 C   0  0  0  0  0  0  0  0  0  0  0  0
   55.9660   26.6460   45.8350 O   0  0  0  0  0  0  0  0  0  0  0  0
   56.0650   25.2410   45.6310 C   0  0  0  0  0  0  0  0  0  0  0  0
   57.0370   28.8070   45.8550 C   0  0  0  0  0  0  0  0  0  0  0  0
   55.9890   29.2660   45.0420 O   0  0  0  0  0  0  0  0  0  0  0  0
   56.1580   29.7940   43.7300 C   0  0  0  0  0  0  0  0  0  0  0  0
   58.0890   29.6500   46.2660 C   0  0  0  0  0  0  0  0  0  0  0  0
   61.1450   30.6190   46.6370 C   0  0  0  0  0  0  0  0  0  0  0  0
   61.9950   31.3420   47.4440 C   0  0  0  0  0  0  0  0  0  0  0  0
   63.1240   32.0900   47.1170 C   0  0  0  0  0  0  0  0  0  0  0  0
   63.8370   32.6950   48.1670 C   0  0  0  0  0  0  0  0  0  0  0  0
   63.4150   32.5330   49.5050 C   0  0  0  0  0  0  0  0  0  0  0  0
   62.2730   31.7670   49.8040 C   0  0  0  0  0  0  0  0  0  0  0  0
   61.5730   31.1860   48.7400 C   0  0  0  0  0  0  0  0  0  0  0  0
   57.7661   33.2981   46.9283 H   0  0  0  0  0  0  0  0  0  0  0  0
   58.1770   34.4976   45.6559 H   0  0  0  0  0  0  0  0  0  0  0  0
   58.9642   32.8830   45.6559 H   0  0  0  0  0  0  0  0  0  0  0  0
   60.6563   33.8483   46.8055 H   0  0  0  0  0  0  0  0  0  0  0  0
   59.6745   35.3365   47.1145 H   0  0  0  0  0  0  0  0  0  0  0  0
   60.4679   33.4635   49.0287 H   0  0  0  0  0  0  0  0  0  0  0  0
   59.1553   34.6943   49.2014 H   0  0  0  0  0  0  0  0  0  0  0  0
   57.4630   33.1288   48.5957 H   0  0  0  0  0  0  0  0  0  0  0  0
   58.6812   31.9368   47.9987 H   0  0  0  0  0  0  0  0  0  0  0  0
   60.5659   29.9257   50.8423 H   0  0  0  0  0  0  0  0  0  0  0  0
   59.5431   28.8342   49.8367 H   0  0  0  0  0  0  0  0  0  0  0  0
   59.8930   27.4323   48.1411 H   0  0  0  0  0  0  0  0  0  0  0  0
   58.0479   25.9267   47.4127 H   0  0  0  0  0  0  0  0  0  0  0  0
   56.1010   24.7307   46.6048 H   0  0  0  0  0  0  0  0  0  0  0  0
   55.1894   24.8900   45.0653 H   0  0  0  0  0  0  0  0  0  0  0  0
   56.9812   25.0163   45.0653 H   0  0  0  0  0  0  0  0  0  0  0  0
   56.4927   30.8398   43.7959 H   0  0  0  0  0  0  0  0  0  0  0  0
   56.9113   29.2012   43.1904 H   0  0  0  0  0  0  0  0  0  0  0  0
   55.2005   29.7488   43.1904 H   0  0  0  0  0  0  0  0  0  0  0  0
   58.0958   30.7054   45.9562 H   0  0  0  0  0  0  0  0  0  0  0  0
   61.1908   30.5130   45.5431 H   0  0  0  0  0  0  0  0  0  0  0  0
   63.4470   32.2035   46.0716 H   0  0  0  0  0  0  0  0  0  0  0  0
   64.7294   33.2985   47.9449 H   0  0  0  0  0  0  0  0  0  0  0  0
   63.9825   33.0086   50.3185 H   0  0  0  0  0  0  0  0  0  0  0  0
   61.9401   31.6288   50.8433 H   0  0  0  0  0  0  0  0  0  0  0  0
  1  2  1  0
  2  3  1  0
  3  4  1  0
  4  5  1  0
  5  6  1  0
  6  7  2  0
  6  8  1  0
  8  9  1  0
  9 10  1  0
 10 11  1  0
 11 12  2  0
 12 13  1  0
 13 14  2  0
 14 15  1  0
 15 16  1  0
 14 17  1  0
 17 18  1  0
 18 19  1  0
 17 20  2  0
 10 21  2  0
 21 22  1  0
 22 23  2  0
 23 24  1  0
 24 25  2  0
 25 26  1  0
 26 27  2  0
 27  9  1  0
 20 11  1  0
 27 22  1  0
  1 28  1  0
  1 29  1  0
  1 30  1  0
  2 31  1  0
  2 32  1  0
  3 33  1  0
  3 34  1  0
  4 35  1  0
  4 36  1  0
  8 37  1  0
  8 38  1  0
 12 39  1  0
 13 40  1  0
 16 41  1  0
 16 42  1  0
 16 43  1  0
 19 44  1  0
 19 45  1  0
 19 46  1  0
 20 47  1  0
 21 48  1  0
 23 49  1  0
 24 50  1  0
 25 51  1  0
 26 52  1  0
M  CHG  1   5  -1
M  END
>  <UniqueID>  (5) 
5

>  <SMILES>  (5) 
CCCC[N-]C(=O)Cn1c(-c2ccc(OC)c(OC)c2)cc2ccccc21

>  <Energy>  (5) 
83.09236010744168

>  <Genealogy>  (5) 
CCCC[N-]C(=O)Cn1c(-c2ccc(OC)c(OC)c2)cc2ccccc21 (protonated)
CCCC[N-]C(=O)Cn1c(-c2ccc(OC)c(OC)c2)cc2ccccc21 (3D coordinates assigned)
CCCC[N-]C(=O)Cn1c(-c2ccc(OC)c(OC)c2)cc2ccccc21 (optimized conformer: 83.09236010744168 kcal/mol)

>  <smiles>  (5) 
CCCCNC(=O)Cn1c(-c2ccc(OC)c(OC)c2)cc2ccccc21

>  <score_type>  (5) 
oracle

>  <origin>  (5) 
adg

>  <m_score__min__energy>  (5) 
-9.1600000000000001

>  <m_primary>  (5) 
energy

$$$$
5:0
     RDKit          3D

 41 44  0  0  0  0  0  0  0  0999 V2000
   54.7470   26.3170   45.9960 O   0  0  0  0  0  0  0  0  0  0  0  0
   56.0040   26.3910   45.9170 C   0  0  0  0  0  0  0  0  0  0  0  0
   56.6480   27.6700   45.9800 N   0  0  0  0  0  0  0  0  0  0  0  0
   56.7850   28.5630   44.8350 C   0  0  0  0  0  0  0  0  0  0  0  0
   57.4270   29.8510   45.2580 C   0  0  0  0  0  0  0  0  0  0  0  0
   58.5620   29.8540   46.0810 C   0  0  0  0  0  0  0  0  0  0  0  0
   59.1570   31.0700   46.4230 C   0  0  0  0  0  0  0  0  0  0  0  0
   58.6200   32.2710   45.9440 C   0  0  0  0  0  0  0  0  0  0  0  0
   59.3590   33.8180   46.3330 S   0  0  0  0  0  0  0  0  0  0  0  0
   58.4960   34.5910   47.2920 O   0  0  0  0  0  0  0  0  0  0  0  0
   59.5140   34.6260   45.0760 O   0  0  0  0  0  0  0  0  0  0  0  0
   60.9260   33.5320   47.0810 C   0  0  0  0  0  0  0  0  0  0  0  0
   62.1120   33.7720   46.3700 C   0  0  0  0  0  0  0  0  0  0  0  0
   63.3520   33.5190   46.9660 C   0  0  0  0  0  0  0  0  0  0  0  0
   63.4130   33.0210   48.2720 C   0  0  0  0  0  0  0  0  0  0  0  0
   64.6150   32.7750   48.8480 F   0  0  0  0  0  0  0  0  0  0  0  0
   62.2340   32.7750   48.9820 C   0  0  0  0  0  0  0  0  0  0  0  0
   60.9930   33.0290   48.3880 C   0  0  0  0  0  0  0  0  0  0  0  0
   57.4880   32.2260   45.1230 C   0  0  0  0  0  0  0  0  0  0  0  0
   56.9260   31.0300   44.7990 N   0  0  0  0  0  0  0  0  0  0  0  0
   56.8100   25.1600   45.7570 C   0  0  0  0  0  0  0  0  0  0  0  0
   56.1800   23.8990   45.5510 C   0  0  0  0  0  0  0  0  0  0  0  0
   56.9220   22.7600   45.3980 N   0  0  0  0  0  0  0  0  0  0  0  0
   58.2730   22.8480   45.4490 C   0  0  0  0  0  0  0  0  0  0  0  0
   59.1480   21.8400   45.3070 N   0  0  0  0  0  0  0  0  0  0  0  0
   60.3630   22.3750   45.4120 N   0  0  0  0  0  0  0  0  0  0  0  0
   60.2530   23.7100   45.6170 C   0  0  0  0  0  0  0  0  0  0  0  0
   58.9180   24.0260   45.6400 C   0  0  0  0  0  0  0  0  0  0  0  0
   58.2240   25.2180   45.8000 C   0  0  0  0  0  0  0  0  0  0  0  0
   57.4098   28.0795   44.0696 H   0  0  0  0  0  0  0  0  0  0  0  0
   55.7871   28.7766   44.4244 H   0  0  0  0  0  0  0  0  0  0  0  0
   58.9799   28.9072   46.4538 H   0  0  0  0  0  0  0  0  0  0  0  0
   60.0475   31.0844   47.0686 H   0  0  0  0  0  0  0  0  0  0  0  0
   62.0664   34.1599   45.3417 H   0  0  0  0  0  0  0  0  0  0  0  0
   64.2798   33.7117   46.4074 H   0  0  0  0  0  0  0  0  0  0  0  0
   62.2821   32.3816   50.0081 H   0  0  0  0  0  0  0  0  0  0  0  0
   60.0668   32.8334   48.9483 H   0  0  0  0  0  0  0  0  0  0  0  0
   57.0514   33.1596   44.7386 H   0  0  0  0  0  0  0  0  0  0  0  0
   55.0822   23.8404   45.5145 H   0  0  0  0  0  0  0  0  0  0  0  0
   61.0871   24.4160   45.7428 H   0  0  0  0  0  0  0  0  0  0  0  0
   58.7523   26.1704   45.9542 H   0  0  0  0  0  0  0  0  0  0  0  0
  1  2  2  0
  2  3  1  0
  3  4  1  0
  4  5  1  0
  5  6  2  0
  6  7  1  0
  7  8  2  0
  8  9  1  0
  9 10  2  0
  9 11  2  0
  9 12  1  0
 12 13  2  0
 13 14  1  0
 14 15  2  0
 15 16  1  0
 15 17  1  0
 17 18  2  0
  8 19  1  0
 19 20  2  0
  2 21  1  0
 21 22  2  0
 22 23  1  0
 23 24  2  0
 24 25  1  0
 25 26  1  0
 26 27  2  0
 27 28  1  0
 28 29  2  0
 20  5  1  0
 29 21  1  0
 18 12  1  0
 28 24  1  0
  4 30  1  0
  4 31  1  0
  6 32  1  0
  7 33  1  0
 13 34  1  0
 14 35  1  0
 17 36  1  0
 18 37  1  0
 19 38  1  0
 22 39  1  0
 27 40  1  0
 29 41  1  0
M  CHG  2   3  -1  25  -1
M  END
>  <UniqueID>  (6) 
6

>  <SMILES>  (6) 
O=C([N-]Cc1ccc(S(=O)(=O)c2ccc(F)cc2)cn1)c1cnc2[n-]ncc2c1

>  <Energy>  (6) 
86.95386566457043

>  <Genealogy>  (6) 
O=C([N-]Cc1ccc(S(=O)(=O)c2ccc(F)cc2)cn1)c1cnc2[n-]ncc2c1 (protonated)
O=C([N-]Cc1ccc(S(=O)(=O)c2ccc(F)cc2)cn1)c1cnc2[n-]ncc2c1 (3D coordinates assigned)
O=C([N-]Cc1ccc(S(=O)(=O)c2ccc(F)cc2)cn1)c1cnc2[n-]ncc2c1 (optimized conformer: 86.95386566457043 kcal/mol)

>  <smiles>  (6) 
O=C(NCc1ccc(S(=O)(=O)c2ccc(F)cc2)cn1)c1cnc2[nH]ncc2c1

>  <score_type>  (6) 
oracle

>  <origin>  (6) 
adg

>  <m_score__min__energy>  (6) 
-13.1

>  <m_primary>  (6) 
energy

$$$$
6:0
     RDKit          3D

 46 48  0  0  0  0  0  0  0  0999 V2000
   59.2060   34.7960   45.2740 C   0  0  0  0  0  0  0  0  0  0  0  0
   58.2750   34.1900   46.3210 C   0  0  0  0  0  0  0  0  0  0  0  0
   58.8460   32.9630   46.9010 N   0  0  0  0  0  0  0  0  0  0  0  0
   58.2330   31.6450   46.6520 C   0  0  0  0  0  0  0  0  0  0  0  0
   58.3550   31.1870   45.1780 C   0  0  0  0  0  0  0  0  0  0  0  0
   58.7510   29.7020   45.0600 C   0  0  0  0  0  0  0  0  0  0  0  0
   57.6100   28.7570   45.4940 C   0  0  0  0  0  0  0  0  0  0  0  0
   56.2570   29.2510   45.1610 N   0  0  0  0  0  0  0  0  0  0  0  0
   56.2540   30.2010   44.0430 C   0  0  0  0  0  0  0  0  0  0  0  0
   57.0470   31.4750   44.3880 C   0  0  0  0  0  0  0  0  0  0  0  0
   59.6710   33.0990   48.0700 C   0  0  0  0  0  0  0  0  0  0  0  0
   59.0770   33.1550   49.2910 N   0  0  0  0  0  0  0  0  0  0  0  0
   59.8060   33.2830   50.4270 C   0  0  0  0  0  0  0  0  0  0  0  0
   61.1600   33.3520   50.3650 N   0  0  0  0  0  0  0  0  0  0  0  0
   61.8130   33.2750   49.1720 C   0  0  0  0  0  0  0  0  0  0  0  0
   61.0750   33.1700   47.9740 C   0  0  0  0  0  0  0  0  0  0  0  0
   61.7890   32.9930   46.6530 C   0  0  0  0  0  0  0  0  0  0  0  0
   63.2500   33.4350   46.7340 C   0  0  0  0  0  0  0  0  0  0  0  0
   63.8830   32.8320   47.9100 N   0  0  0  0  0  0  0  0  0  0  0  0
   63.3170   33.4000   49.1400 C   0  0  0  0  0  0  0  0  0  0  0  0
   60.0258   35.3296   45.7772 H   0  0  0  0  0  0  0  0  0  0  0  0
   59.6215   33.9948   44.6452 H   0  0  0  0  0  0  0  0  0  0  0  0
   58.6416   35.5003   44.6452 H   0  0  0  0  0  0  0  0  0  0  0  0
   58.1134   34.9241   47.1242 H   0  0  0  0  0  0  0  0  0  0  0  0
   57.3244   33.9319   45.8314 H   0  0  0  0  0  0  0  0  0  0  0  0
   58.7301   30.9012   47.2920 H   0  0  0  0  0  0  0  0  0  0  0  0
   57.1606   31.7337   46.8802 H   0  0  0  0  0  0  0  0  0  0  0  0
   59.1668   31.7776   44.7282 H   0  0  0  0  0  0  0  0  0  0  0  0
   59.0100   29.4868   44.0128 H   0  0  0  0  0  0  0  0  0  0  0  0
   59.6067   29.5269   45.7287 H   0  0  0  0  0  0  0  0  0  0  0  0
   57.7561   27.7874   44.9954 H   0  0  0  0  0  0  0  0  0  0  0  0
   57.6595   28.6829   46.5904 H   0  0  0  0  0  0  0  0  0  0  0  0
   55.8400   29.7200   45.9990 H   0  0  0  0  0  0  0  0  0  0  0  0
   56.7107   29.7217   43.1645 H   0  0  0  0  0  0  0  0  0  0  0  0
   55.2126   30.4868   43.8336 H   0  0  0  0  0  0  0  0  0  0  0  0
   57.3101   31.9875   43.4510 H   0  0  0  0  0  0  0  0  0  0  0  0
   56.4059   32.0949   45.0319 H   0  0  0  0  0  0  0  0  0  0  0  0
   59.2985   33.3311   51.4018 H   0  0  0  0  0  0  0  0  0  0  0  0
   61.7000   33.4600   51.2530 H   0  0  0  0  0  0  0  0  0  0  0  0
   61.7535   31.9310   46.3685 H   0  0  0  0  0  0  0  0  0  0  0  0
   61.2830   33.6199   45.9040 H   0  0  0  0  0  0  0  0  0  0  0  0
   63.7809   33.1115   45.8265 H   0  0  0  0  0  0  0  0  0  0  0  0
   63.2954   34.5309   46.8171 H   0  0  0  0  0  0  0  0  0  0  0  0
   64.9010   33.0760   47.8860 H   0  0  0  0  0  0  0  0  0  0  0  0
   63.7375   32.8668   50.0053 H   0  0  0  0  0  0  0  0  0  0  0  0
   63.5731   34.4693   49.1734 H   0  0  0  0  0  0  0  0  0  0  0  0
  1  2  1  0
  2  3  1  0
  3  4  1  0
  4  5  1  0
  5  6  1  0
  6  7  1  0
  7  8  1  0
  8  9  1  0
  9 10  1  0
  3 11  1  0
 11 12  2  0
 12 13  1  0
 13 14  2  0
 14 15  1  0
 15 16  2  0
 16 17  1  0
 17 18  1  0
 18 19  1  0
 19 20  1  0
 10  5  1  0
 16 11  1  0
 20 15  1  0
  1 21  1  0
  1 22  1  0
  1 23  1  0
  2 24  1  0
  2 25  1  0
  4 26  1  0
  4 27  1  0
  5 28  1  0
  6 29  1  0
  6 30  1  0
  7 31  1  0
  7 32  1  0
  8 33  1  0
  9 34  1  0
  9 35  1  0
 10 36  1  0
 10 37  1  0
 13 38  1  0
 14 39  1  0
 17 40  1  0
 17 41  1  0
 18 42  1  0
 18 43  1  0
 19 44  1  0
 20 45  1  0
 20 46  1  0
M  CHG  1  14   1
M  END
>  <UniqueID>  (7) 
7

>  <SMILES>  (7) 
CCN(CC1CCNCC1)c1nc[nH+]c2c1CCNC2

>  <Energy>  (7) 
55.03976897118101

>  <Genealogy>  (7) 
CCN(CC1CCNCC1)c1nc[nH+]c2c1CCNC2 (protonated)
CCN(CC1CCNCC1)c1nc[nH+]c2c1CCNC2 (3D coordinates assigned)
CCN(CC1CCNCC1)c1nc[nH+]c2c1CCNC2 (nonaromatic ring conformer: 55.03976897118101 kcal/mol)

>  <smiles>  (7) 
CCN(CC1CCNCC1)c1ncnc2c1CCNC2

>  <score_type>  (7) 
oracle

>  <origin>  (7) 
adg

>  <m_score__min__energy>  (7) 
-6.5700000000000003

>  <m_primary>  (7) 
energy

$$$$
7:0
     RDKit          3D

 68 71  0  0  0  0  0  0  0  0999 V2000
   65.5990   32.7180   50.1010 C   0  0  0  0  0  0  0  0  0  0  0  0
   64.3540   33.3180   49.4400 C   0  0  0  0  0  0  0  0  0  0  0  0
   63.7850   32.5020   48.3390 N   0  0  0  0  0  0  0  0  0  0  0  0
   63.7580   33.1080   46.9900 C   0  0  0  0  0  0  0  0  0  0  0  0
   62.4690   33.8950   46.7700 C   0  0  0  0  0  0  0  0  0  0  0  0
   62.5920   31.6960   48.6850 C   0  0  0  0  0  0  0  0  0  0  0  0
   61.9670   30.9320   47.4980 C   0  0  0  0  0  0  0  0  0  0  0  0
   60.6630   30.3600   47.8410 N   0  0  0  0  0  0  0  0  0  0  0  0
   59.6420   30.2520   46.8360 C   0  0  0  0  0  0  0  0  0  0  0  0
   59.0250   31.4020   46.3170 C   0  0  0  0  0  0  0  0  0  0  0  0
   59.3290   32.6810   46.8300 C   0  0  0  0  0  0  0  0  0  0  0  0
   58.6730   33.8140   46.3550 C   0  0  0  0  0  0  0  0  0  0  0  0
   57.6930   33.6920   45.3760 C   0  0  0  0  0  0  0  0  0  0  0  0
   57.3810   32.4400   44.8490 C   0  0  0  0  0  0  0  0  0  0  0  0
   58.0620   31.2720   45.2810 C   0  0  0  0  0  0  0  0  0  0  0  0
   57.7980   30.0310   44.7320 N   0  0  0  0  0  0  0  0  0  0  0  0
   57.0460   29.9290   43.4620 C   0  0  0  0  0  0  0  0  0  0  0  0
   58.2630   28.8880   45.3540 C   0  0  0  0  0  0  0  0  0  0  0  0
   57.8010   27.5970   44.9880 C   0  0  0  0  0  0  0  0  0  0  0  0
   58.3080   26.4390   45.5980 C   0  0  0  0  0  0  0  0  0  0  0  0
   57.8570   25.1290   45.2060 N   0  0  0  0  0  0  0  0  0  0  0  0
   56.4820   24.7780   44.9780 C   0  0  0  0  0  0  0  0  0  0  0  0
   55.4650   25.1950   45.8540 C   0  0  0  0  0  0  0  0  0  0  0  0
   54.1350   24.8330   45.6190 C   0  0  0  0  0  0  0  0  0  0  0  0
   53.8040   24.0190   44.5200 C   0  0  0  0  0  0  0  0  0  0  0  0
   52.4410   23.6620   44.2340 N   0  0  0  0  0  0  0  0  0  0  0  0
   51.6370   22.8090   45.0640 C   0  0  0  0  0  0  0  0  0  0  0  0
   50.1730   22.6790   44.7940 C   0  0  0  0  0  0  0  0  0  0  0  0
   52.1610   22.1310   45.9890 O   0  0  0  0  0  0  0  0  0  0  0  0
   54.8210   23.5990   43.6510 C   0  0  0  0  0  0  0  0  0  0  0  0
   56.1510   23.9620   43.8870 C   0  0  0  0  0  0  0  0  0  0  0  0
   59.3120   26.5560   46.5580 C   0  0  0  0  0  0  0  0  0  0  0  0
   59.7590   27.8100   46.9620 C   0  0  0  0  0  0  0  0  0  0  0  0
   59.2230   28.9840   46.3950 C   0  0  0  0  0  0  0  0  0  0  0  0
   65.4939   32.7687   51.1948 H   0  0  0  0  0  0  0  0  0  0  0  0
   65.7086   31.6682   49.7914 H   0  0  0  0  0  0  0  0  0  0  0  0
   66.4885   33.2863   49.7914 H   0  0  0  0  0  0  0  0  0  0  0  0
   63.5802   33.4393   50.2124 H   0  0  0  0  0  0  0  0  0  0  0  0
   64.6685   34.2716   48.9908 H   0  0  0  0  0  0  0  0  0  0  0  0
   64.6168   33.7871   46.8834 H   0  0  0  0  0  0  0  0  0  0  0  0
   63.8088   32.3024   46.2427 H   0  0  0  0  0  0  0  0  0  0  0  0
   62.0317   34.1620   47.7434 H   0  0  0  0  0  0  0  0  0  0  0  0
   62.6911   34.8117   46.2040 H   0  0  0  0  0  0  0  0  0  0  0  0
   61.7551   33.2786   46.2040 H   0  0  0  0  0  0  0  0  0  0  0  0
   62.8840   30.9617   49.4502 H   0  0  0  0  0  0  0  0  0  0  0  0
   61.8279   32.4048   49.0369 H   0  0  0  0  0  0  0  0  0  0  0  0
   61.8395   31.6274   46.6553 H   0  0  0  0  0  0  0  0  0  0  0  0
   62.6420   30.1052   47.2320 H   0  0  0  0  0  0  0  0  0  0  0  0
   60.5530   29.7860   48.7070 H   0  0  0  0  0  0  0  0  0  0  0  0
   60.0932   32.7843   47.6144 H   0  0  0  0  0  0  0  0  0  0  0  0
   58.9303   34.8061   46.7545 H   0  0  0  0  0  0  0  0  0  0  0  0
   57.1626   34.5861   45.0165 H   0  0  0  0  0  0  0  0  0  0  0  0
   56.5937   32.3557   44.0854 H   0  0  0  0  0  0  0  0  0  0  0  0
   55.9774   29.7841   43.6792 H   0  0  0  0  0  0  0  0  0  0  0  0
   57.1800   30.8535   42.8813 H   0  0  0  0  0  0  0  0  0  0  0  0
   57.4214   29.0736   42.8813 H   0  0  0  0  0  0  0  0  0  0  0  0
   57.0293   27.5019   44.2099 H   0  0  0  0  0  0  0  0  0  0  0  0
   58.5780   24.3820   45.0800 H   0  0  0  0  0  0  0  0  0  0  0  0
   55.7171   25.8103   46.7303 H   0  0  0  0  0  0  0  0  0  0  0  0
   53.3437   25.1863   46.2965 H   0  0  0  0  0  0  0  0  0  0  0  0
   52.0290   23.9840   43.3290 H   0  0  0  0  0  0  0  0  0  0  0  0
   49.6271   22.6305   45.7478 H   0  0  0  0  0  0  0  0  0  0  0  0
   49.8277   23.5500   44.2177 H   0  0  0  0  0  0  0  0  0  0  0  0
   49.9865   21.7608   44.2177 H   0  0  0  0  0  0  0  0  0  0  0  0
   54.5711   22.9794   42.7771 H   0  0  0  0  0  0  0  0  0  0  0  0
   56.9427   23.6048   43.2120 H   0  0  0  0  0  0  0  0  0  0  0  0
   59.7539   25.6504   46.9992 H   0  0  0  0  0  0  0  0  0  0  0  0
   60.5399   27.8863   47.7330 H   0  0  0  0  0  0  0  0  0  0  0  0
  1  2  1  0
  2  3  1  0
  3  4  1  0
  4  5  1  0
  3  6  1  0
  6  7  1  0
  7  8  1  0
  8  9  1  0
  9 10  2  0
 10 11  1  0
 11 12  2  0
 12 13  1  0
 13 14  2  0
 14 15  1  0
 15 16  2  0
 16 17  1  0
 16 18  1  0
 18 19  2  0
 19 20  1  0
 20 21  1  0
 21 22  1  0
 22 23  2  0
 23 24  1  0
 24 25  2  0
 25 26  1  0
 26 27  1  0
 27 28  1  0
 27 29  2  0
 25 30  1  0
 30 31  2  0
 20 32  2  0
 32 33  1  0
 33 34  2  0
 34  9  1  0
 15 10  1  0
 34 18  1  0
 31 22  1  0
  1 35  1  0
  1 36  1  0
  1 37  1  0
  2 38  1  0
  2 39  1  0
  4 40  1  0
  4 41  1  0
  5 42  1  0
  5 43  1  0
  5 44  1  0
  6 45  1  0
  6 46  1  0
  7 47  1  0
  7 48  1  0
  8 49  1  0
 11 50  1  0
 12 51  1  0
 13 52  1  0
 14 53  1  0
 17 54  1  0
 17 55  1  0
 17 56  1  0
 19 57  1  0
 21 58  1  0
 23 59  1  0
 24 60  1  0
 26 61  1  0
 28 62  1  0
 28 63  1  0
 28 64  1  0
 30 65  1  0
 31 66  1  0
 32 67  1  0
 33 68  1  0
M  CHG  1  16   1
M  END
>  <UniqueID>  (8) 
8

>  <SMILES>  (8) 
CCN(CC)CCNc1c2ccccc2[n+](C)c2cc(Nc3ccc(NC(C)=O)cc3)ccc12

>  <Energy>  (8) 
111.26171429860004

>  <Genealogy>  (8) 
CCN(CC)CCNc1c2ccccc2[n+](C)c2cc(Nc3ccc(NC(C)=O)cc3)ccc12 (3D coordinates assigned)
CCN(CC)CCNc1c2ccccc2[n+](C)c2cc(Nc3ccc(NC(C)=O)cc3)ccc12 (optimized conformer: 111.26171429860004 kcal/mol)

>  <smiles>  (8) 
CCN(CC)CCNc1c2ccccc2[n+](C)c2cc(Nc3ccc(NC(C)=O)cc3)ccc12

>  <score_type>  (8) 
oracle

>  <origin>  (8) 
adg

>  <m_score__min__energy>  (8) 
-7.21

>  <m_primary>  (8) 
energy

$$$$
8:0
     RDKit          3D

 52 54  0  0  0  0  0  0  0  0999 V2000
   65.2033   33.3922   47.2141 H   0  0  0  0  0  0  0  0  0  0  0  0
   64.1340   33.4440   47.4670 C   0  0  0  0  0  0  0  0  0  0  0  0
   63.7160   33.2230   48.7840 C   0  0  0  0  0  0  0  0  0  0  0  0
   64.6900   32.9530   49.8100 C   0  0  0  0  0  0  0  0  0  0  0  0
   65.4730   32.7360   50.6340 N   0  0  0  0  0  0  0  0  0  0  0  0
   62.3530   33.2720   49.1070 C   0  0  0  0  0  0  0  0  0  0  0  0
   62.0319   33.1105   50.1466 H   0  0  0  0  0  0  0  0  0  0  0  0
   61.3900   33.5270   48.1080 C   0  0  0  0  0  0  0  0  0  0  0  0
   59.9970   33.5780   48.3760 C   0  0  0  0  0  0  0  0  0  0  0  0
   59.4140   33.2440   49.6920 C   0  0  0  0  0  0  0  0  0  0  0  0
   59.6510   33.9520   50.8180 N   0  0  0  0  0  0  0  0  0  0  0  0
   58.8750   33.3620   51.7510 C   0  0  0  0  0  0  0  0  0  0  0  0
   58.8391   33.6760   52.8046 H   0  0  0  0  0  0  0  0  0  0  0  0
   58.1490   32.3450   51.2470 N   0  0  0  0  0  0  0  0  0  0  0  0
   57.2560   31.4580   51.9800 C   0  0  0  0  0  0  0  0  0  0  0  0
   57.4015   31.6025   53.0607 H   0  0  0  0  0  0  0  0  0  0  0  0
   56.2131   31.6880   51.7164 H   0  0  0  0  0  0  0  0  0  0  0  0
   57.4790   30.4136   51.7164 H   0  0  0  0  0  0  0  0  0  0  0  0
   58.4810   32.2580   49.9500 C   0  0  0  0  0  0  0  0  0  0  0  0
   58.0829   31.5336   49.2242 H   0  0  0  0  0  0  0  0  0  0  0  0
   59.1170   33.9370   47.3420 C   0  0  0  0  0  0  0  0  0  0  0  0
   58.0388   34.0184   47.5439 H   0  0  0  0  0  0  0  0  0  0  0  0
   59.6050   34.1910   46.0590 C   0  0  0  0  0  0  0  0  0  0  0  0
   58.7740   34.5040   45.1070 N   0  0  0  0  0  0  0  0  0  0  0  0
   57.3180   34.5010   45.2420 C   0  0  0  0  0  0  0  0  0  0  0  0
   56.8670   34.8630   44.3063 H   0  0  0  0  0  0  0  0  0  0  0  0
   57.0369   35.1586   46.0778 H   0  0  0  0  0  0  0  0  0  0  0  0
   56.8080   33.0830   45.5330 C   0  0  0  0  0  0  0  0  0  0  0  0
   55.7175   33.0627   45.3902 H   0  0  0  0  0  0  0  0  0  0  0  0
   57.0814   32.8321   46.5685 H   0  0  0  0  0  0  0  0  0  0  0  0
   57.4450   32.0380   44.6130 C   0  0  0  0  0  0  0  0  0  0  0  0
   58.5404   32.1118   44.6811 H   0  0  0  0  0  0  0  0  0  0  0  0
   57.1226   32.2234   43.5778 H   0  0  0  0  0  0  0  0  0  0  0  0
   57.0170   30.6740   45.0210 N   0  0  0  0  0  0  0  0  0  0  0  0
   56.0420   30.0940   44.0690 C   0  0  0  0  0  0  0  0  0  0  0  0
   55.1310   30.7104   44.0633 H   0  0  0  0  0  0  0  0  0  0  0  0
   55.8034   29.0677   44.3850 H   0  0  0  0  0  0  0  0  0  0  0  0
   56.6300   30.0530   42.6600 C   0  0  0  0  0  0  0  0  0  0  0  0
   57.7256   29.9766   42.7220 H   0  0  0  0  0  0  0  0  0  0  0  0
   56.2315   29.1805   42.1216 H   0  0  0  0  0  0  0  0  0  0  0  0
   56.3564   30.9724   42.1216 H   0  0  0  0  0  0  0  0  0  0  0  0
   58.1730   29.7710   45.2310 C   0  0  0  0  0  0  0  0  0  0  0  0
   57.8430   28.8862   45.7952 H   0  0  0  0  0  0  0  0  0  0  0  0
   58.5710   29.4700   44.2507 H   0  0  0  0  0  0  0  0  0  0  0  0
   59.2750   30.4830   46.0130 C   0  0  0  0  0  0  0  0  0  0  0  0
   59.0936   30.3658   47.0916 H   0  0  0  0  0  0  0  0  0  0  0  0
   60.2500   30.0436   45.7553 H   0  0  0  0  0  0  0  0  0  0  0  0
   59.2751   31.5524   45.7553 H   0  0  0  0  0  0  0  0  0  0  0  0
   60.9400   34.1050   45.8160 N   0  0  0  0  0  0  0  0  0  0  0  0
   61.8350   33.7850   46.7870 C   0  0  0  0  0  0  0  0  0  0  0  0
   63.1960   33.7300   46.4740 C   0  0  0  0  0  0  0  0  0  0  0  0
   63.5289   33.9127   45.4416 H   0  0  0  0  0  0  0  0  0  0  0  0
  1  2  1  0
  2  3  2  0
  3  4  1  0
  4  5  3  0
  3  6  1  0
  6  7  1  0
  6  8  2  0
  8  9  1  0
  9 10  1  0
 10 11  1  0
 11 12  2  0
 12 13  1  0
 12 14  1  0
 14 15  1  0
 15 16  1  0
 15 17  1  0
 15 18  1  0
 14 19  1  0
 19 20  1  0
  9 21  2  0
 21 22  1  0
 21 23  1  0
 23 24  2  0
 24 25  1  0
 25 26  1  0
 25 27  1  0
 25 28  1  0
 28 29  1  0
 28 30  1  0
 28 31  1  0
 31 32  1  0
 31 33  1  0
 31 34  1  0
 34 35  1  0
 35 36  1  0
 35 37  1  0
 35 38  1  0
 38 39  1  0
 38 40  1  0
 38 41  1  0
 34 42  1  0
 42 43  1  0
 42 44  1  0
 42 45  1  0
 45 46  1  0
 45 47  1  0
 45 48  1  0
 23 49  1  0
 49 50  1  0
 50 51  2  0
 51 52  1  0
 51  2  1  0
 50  8  1  0
 19 10  2  0
M  CHG  1  49  -1
M  END
>  <UniqueID>  (9) 
9

>  <SMILES>  (9) 
CCN(CC)CCC/N=c1/cc(-c2cn(C)cn2)c2cc(C#N)ccc2[n-]1

>  <Energy>  (9) 
87.229562027256

>  <Genealogy>  (9) 
CCN(CC)CCCN=c1cc(-c2cn(C)cn2)c2cc(C#N)ccc2[n-]1 (protonated)
CCN(CC)CCC/N=c1/cc(-c2cn(C)cn2)c2cc(C#N)ccc2[n-]1 (cis-trans isomerization)
CCN(CC)CCC/N=c1/cc(-c2cn(C)cn2)c2cc(C#N)ccc2[n-]1 (3D coordinates assigned)
CCN(CC)CCC/N=c1/cc(-c2cn(C)cn2)c2cc(C#N)ccc2[n-]1 (optimized conformer: 87.229562027256 kcal/mol)

>  <smiles>  (9) 
CCN(CC)CCCN=c1cc(-c2cn(C)cn2)c2cc(C#N)ccc2[nH]1

>  <score_type>  (9) 
oracle

>  <origin>  (9) 
adg

>  <m_score__min__energy>  (9) 
-8.8300000000000001

>  <m_primary>  (9) 
energy

$$$$
9:0
     RDKit          3D

 44 46  0  0  0  0  0  0  0  0999 V2000
   59.7960   29.7800   47.1750 C   0  0  0  0  0  0  0  0  0  0  0  0
   59.8060   29.9930   45.6660 C   0  0  0  0  0  0  0  0  0  0  0  0
   58.4570   30.3020   45.1750 N   0  0  0  0  0  0  0  0  0  0  0  0
   57.5370   29.4390   44.6980 C   0  0  0  0  0  0  0  0  0  0  0  0
   57.8240   27.6970   44.3700 S   0  0  0  0  0  0  0  0  0  0  0  0
   57.1370   27.0970   45.9550 C   0  0  0  0  0  0  0  0  0  0  0  0
   56.2370   25.9260   45.7010 C   0  0  0  0  0  0  0  0  0  0  0  0
   55.0140   26.0080   45.9970 O   0  0  0  0  0  0  0  0  0  0  0  0
   56.7640   24.7140   45.1410 N   0  0  0  0  0  0  0  0  0  0  0  0
   55.8870   23.6280   44.6860 C   0  0  0  0  0  0  0  0  0  0  0  0
   56.3200   22.2870   45.2790 C   0  0  0  0  0  0  0  0  0  0  0  0
   57.2120   21.6510   44.2320 C   0  0  0  0  0  0  0  0  0  0  0  0
   56.6460   22.1110   42.9000 C   0  0  0  0  0  0  0  0  0  0  0  0
   55.9850   23.4610   43.1610 C   0  0  0  0  0  0  0  0  0  0  0  0
   56.3500   30.0400   44.4880 N   0  0  0  0  0  0  0  0  0  0  0  0
   56.4930   31.3070   44.8430 N   0  0  0  0  0  0  0  0  0  0  0  0
   57.7680   31.4650   45.2530 C   0  0  0  0  0  0  0  0  0  0  0  0
   58.2880   32.7460   45.7650 C   0  0  0  0  0  0  0  0  0  0  0  0
   58.7630   33.7150   44.8710 C   0  0  0  0  0  0  0  0  0  0  0  0
   59.2640   34.9260   45.3550 C   0  0  0  0  0  0  0  0  0  0  0  0
   59.2990   35.1490   46.7330 C   0  0  0  0  0  0  0  0  0  0  0  0
   58.8600   34.1880   47.5890 N   0  0  0  0  0  0  0  0  0  0  0  0
   58.3640   33.0030   47.1420 C   0  0  0  0  0  0  0  0  0  0  0  0
   59.8417   30.7545   47.6832 H   0  0  0  0  0  0  0  0  0  0  0  0
   58.8724   29.2580   47.4655 H   0  0  0  0  0  0  0  0  0  0  0  0
   60.6667   29.1738   47.4655 H   0  0  0  0  0  0  0  0  0  0  0  0
   60.4784   30.8293   45.4241 H   0  0  0  0  0  0  0  0  0  0  0  0
   60.1550   29.0692   45.1814 H   0  0  0  0  0  0  0  0  0  0  0  0
   57.9595   26.7898   46.6177 H   0  0  0  0  0  0  0  0  0  0  0  0
   56.5614   27.9036   46.4326 H   0  0  0  0  0  0  0  0  0  0  0  0
   57.8010   24.6140   45.0580 H   0  0  0  0  0  0  0  0  0  0  0  0
   54.8679   23.8936   45.0036 H   0  0  0  0  0  0  0  0  0  0  0  0
   56.8763   22.4422   46.2152 H   0  0  0  0  0  0  0  0  0  0  0  0
   55.4566   21.6499   45.5214 H   0  0  0  0  0  0  0  0  0  0  0  0
   58.2507   21.9935   44.3495 H   0  0  0  0  0  0  0  0  0  0  0  0
   57.2301   20.5544   44.3162 H   0  0  0  0  0  0  0  0  0  0  0  0
   57.4525   22.2182   42.1597 H   0  0  0  0  0  0  0  0  0  0  0  0
   55.9256   21.3833   42.4982 H   0  0  0  0  0  0  0  0  0  0  0  0
   56.5949   24.2693   42.7312 H   0  0  0  0  0  0  0  0  0  0  0  0
   54.9886   23.5057   42.6971 H   0  0  0  0  0  0  0  0  0  0  0  0
   58.7414   33.5221   43.7883 H   0  0  0  0  0  0  0  0  0  0  0  0
   59.6270   35.6956   44.6580 H   0  0  0  0  0  0  0  0  0  0  0  0
   59.6818   36.1023   47.1262 H   0  0  0  0  0  0  0  0  0  0  0  0
   58.0218   32.2447   47.8616 H   0  0  0  0  0  0  0  0  0  0  0  0
  1  2  1  0
  2  3  1  0
  3  4  1  0
  4  5  1  0
  5  6  1  0
  6  7  1  0
  7  8  2  0
  7  9  1  0
  9 10  1  0
 10 11  1  0
 11 12  1  0
 12 13  1  0
 13 14  1  0
  4 15  2  0
 15 16  1  0
 16 17  2  0
 17 18  1  0
 18 19  2  0
 19 20  1  0
 20 21  2  0
 21 22  1  0
 22 23  2  0
 17  3  1  0
 23 18  1  0
 14 10  1  0
  1 24  1  0
  1 25  1  0
  1 26  1  0
  2 27  1  0
  2 28  1  0
  6 29  1  0
  6 30  1  0
  9 31  1  0
 10 32  1  0
 11 33  1  0
 11 34  1  0
 12 35  1  0
 12 36  1  0
 13 37  1  0
 13 38  1  0
 14 39  1  0
 14 40  1  0
 19 41  1  0
 20 42  1  0
 21 43  1  0
 23 44  1  0
M  END
>  <UniqueID>  (10) 
10

>  <SMILES>  (10) 
CCn1c(SCC(=O)NC2CCCC2)nnc1-c1cccnc1

>  <Energy>  (10) 
76.30733317606474

>  <Genealogy>  (10) 
CCn1c(SCC(=O)NC2CCCC2)nnc1-c1cccnc1 (3D coordinates assigned)
CCn1c(SCC(=O)NC2CCCC2)nnc1-c1cccnc1 (nonaromatic ring conformer: 76.30733317606474 kcal/mol)

>  <smiles>  (10) 
CCn1c(SCC(=O)NC2CCCC2)nnc1-c1cccnc1

>  <score_type>  (10) 
oracle

>  <origin>  (10) 
adg

>  <m_score__min__energy>  (10) 
-8.5299999999999994

>  <m_primary>  (10) 
energy

$$$$
10:0
     RDKit          3D

 42 45  0  0  0  0  0  0  0  0999 V2000
   58.8390   32.4730   45.3660 C   0  0  0  0  0  0  0  0  0  0  0  0
   57.9820   31.5190   44.5880 C   0  0  0  0  0  0  0  0  0  0  0  0
   57.7870   31.7060   43.2110 C   0  0  0  0  0  0  0  0  0  0  0  0
   56.9500   30.8460   42.4970 C   0  0  0  0  0  0  0  0  0  0  0  0
   56.2990   29.7960   43.1510 C   0  0  0  0  0  0  0  0  0  0  0  0
   56.4930   29.5930   44.5280 C   0  0  0  0  0  0  0  0  0  0  0  0
   55.8090   28.5500   45.2370 N   0  0  0  0  0  0  0  0  0  0  0  0
   56.3550   27.2810   45.6190 C   0  0  0  0  0  0  0  0  0  0  0  0
   55.6950   26.5460   46.3990 O   0  0  0  0  0  0  0  0  0  0  0  0
   57.7140   26.8260   45.1570 C   0  0  0  0  0  0  0  0  0  0  0  0
   58.7400   27.8130   45.5340 N   0  0  0  0  0  0  0  0  0  0  0  0
   59.5970   28.2780   44.5790 C   0  0  0  0  0  0  0  0  0  0  0  0
   60.5670   29.1740   44.8950 N   0  0  0  0  0  0  0  0  0  0  0  0
   60.7170   29.6250   46.1660 C   0  0  0  0  0  0  0  0  0  0  0  0
   61.6940   30.5180   46.4500 N   0  0  0  0  0  0  0  0  0  0  0  0
   61.8820   30.9910   47.7080 C   0  0  0  0  0  0  0  0  0  0  0  0
   62.9070   31.9130   47.9400 C   0  0  0  0  0  0  0  0  0  0  0  0
   63.1110   32.4070   49.2260 C   0  0  0  0  0  0  0  0  0  0  0  0
   62.2920   31.9790   50.2650 C   0  0  0  0  0  0  0  0  0  0  0  0
   61.2750   31.0580   50.0080 C   0  0  0  0  0  0  0  0  0  0  0  0
   61.0710   30.5680   48.7410 N   0  0  0  0  0  0  0  0  0  0  0  0
   60.0680   29.6620   48.4930 C   0  0  0  0  0  0  0  0  0  0  0  0
   59.3210   29.2700   49.4340 O   0  0  0  0  0  0  0  0  0  0  0  0
   59.8680   29.1660   47.1830 C   0  0  0  0  0  0  0  0  0  0  0  0
   58.8650   28.2330   46.8350 C   0  0  0  0  0  0  0  0  0  0  0  0
   58.0840   27.7790   47.7180 O   0  0  0  0  0  0  0  0  0  0  0  0
   57.3120   30.4740   45.2450 C   0  0  0  0  0  0  0  0  0  0  0  0
   58.6890   32.3060   46.4429 H   0  0  0  0  0  0  0  0  0  0  0  0
   59.8964   32.3061   45.1128 H   0  0  0  0  0  0  0  0  0  0  0  0
   58.5601   33.5065   45.1128 H   0  0  0  0  0  0  0  0  0  0  0  0
   58.2950   32.5325   42.6925 H   0  0  0  0  0  0  0  0  0  0  0  0
   56.8026   30.9952   41.4172 H   0  0  0  0  0  0  0  0  0  0  0  0
   55.6331   29.1269   42.5863 H   0  0  0  0  0  0  0  0  0  0  0  0
   57.9513   25.8593   45.6251 H   0  0  0  0  0  0  0  0  0  0  0  0
   57.7030   26.7224   44.0619 H   0  0  0  0  0  0  0  0  0  0  0  0
   59.5009   27.9231   43.5423 H   0  0  0  0  0  0  0  0  0  0  0  0
   61.2060   29.5150   44.1420 H   0  0  0  0  0  0  0  0  0  0  0  0
   63.5489   32.2464   47.1113 H   0  0  0  0  0  0  0  0  0  0  0  0
   63.9156   33.1318   49.4188 H   0  0  0  0  0  0  0  0  0  0  0  0
   62.4447   32.3641   51.2840 H   0  0  0  0  0  0  0  0  0  0  0  0
   60.6283   30.7201   50.8311 H   0  0  0  0  0  0  0  0  0  0  0  0
   57.4315   30.3466   46.3310 H   0  0  0  0  0  0  0  0  0  0  0  0
  1  2  1  0
  2  3  2  0
  3  4  1  0
  4  5  2  0
  5  6  1  0
  6  7  1  0
  7  8  1  0
  8  9  2  0
  8 10  1  0
 10 11  1  0
 11 12  1  0
 12 13  2  0
 13 14  1  0
 14 15  1  0
 15 16  2  0
 16 17  1  0
 17 18  2  0
 18 19  1  0
 19 20  2  0
 20 21  1  0
 21 22  1  0
 22 23  2  0
 22 24  1  0
 24 25  1  0
 25 26  2  0
  6 27  2  0
 27  2  1  0
 25 11  1  0
 24 14  2  0
 21 16  1  0
  1 28  1  0
  1 29  1  0
  1 30  1  0
  3 31  1  0
  4 32  1  0
  5 33  1  0
 10 34  1  0
 10 35  1  0
 12 36  1  0
 13 37  1  0
 17 38  1  0
 18 39  1  0
 19 40  1  0
 20 41  1  0
 27 42  1  0
M  CHG  2   7  -1  13   1
M  END
>  <UniqueID>  (11) 
11

>  <SMILES>  (11) 
Cc1cccc([N-]C(=O)Cn2c[nH+]c3nc4ccccn4c(=O)c3c2=O)c1

>  <Energy>  (11) 
63.59663770410607

>  <Genealogy>  (11) 
Cc1cccc([N-]C(=O)Cn2c[nH+]c3nc4ccccn4c(=O)c3c2=O)c1 (protonated)
Cc1cccc([N-]C(=O)Cn2c[nH+]c3nc4ccccn4c(=O)c3c2=O)c1 (3D coordinates assigned)
Cc1cccc([N-]C(=O)Cn2c[nH+]c3nc4ccccn4c(=O)c3c2=O)c1 (optimized conformer: 63.59663770410607 kcal/mol)

>  <smiles>  (11) 
Cc1cccc(NC(=O)Cn2cnc3nc4ccccn4c(=O)c3c2=O)c1

>  <score_type>  (11) 
oracle

>  <origin>  (11) 
adg

>  <m_score__min__energy>  (11) 
-8.7699999999999996

>  <m_primary>  (11) 
energy

$$$$
11:0
     RDKit          3D

 53 55  0  0  0  0  0  0  0  0999 V2000
   58.1030   27.6360   44.6320 C   0  0  0  0  0  0  0  0  0  0  0  0
   56.9800   27.7500   45.6500 C   0  0  0  0  0  0  0  0  0  0  0  0
   55.9920   28.6280   45.1520 O   0  0  0  0  0  0  0  0  0  0  0  0
   56.4710   29.3290   44.0210 C   0  0  0  0  0  0  0  0  0  0  0  0
   56.1680   30.8390   44.1130 C   0  0  0  0  0  0  0  0  0  0  0  0
   57.0130   31.5890   45.0670 N   0  0  0  0  0  0  0  0  0  0  0  0
   58.4580   31.3170   44.9580 C   0  0  0  0  0  0  0  0  0  0  0  0
   59.2130   32.1510   45.9960 C   0  0  0  0  0  0  0  0  0  0  0  0
   59.0410   33.6110   45.7770 N   0  0  0  0  0  0  0  0  0  0  0  0
   59.0800   34.3630   47.0490 C   0  0  0  0  0  0  0  0  0  0  0  0
   60.3580   34.0800   47.7990 C   0  0  0  0  0  0  0  0  0  0  0  0
   60.3830   34.1070   49.1990 C   0  0  0  0  0  0  0  0  0  0  0  0
   61.5600   33.8100   49.8870 C   0  0  0  0  0  0  0  0  0  0  0  0
   62.7320   33.4750   49.1920 C   0  0  0  0  0  0  0  0  0  0  0  0
   63.9150   33.1420   49.9390 N   0  0  0  0  0  0  0  0  0  0  0  0
   64.6880   32.0500   49.7730 C   0  0  0  0  0  0  0  0  0  0  0  0
   65.7630   32.1490   50.6290 C   0  0  0  0  0  0  0  0  0  0  0  0
   65.6630   33.3050   51.3120 N   0  0  0  0  0  0  0  0  0  0  0  0
   64.5370   33.8940   50.8690 C   0  0  0  0  0  0  0  0  0  0  0  0
   62.7240   33.4790   47.7750 C   0  0  0  0  0  0  0  0  0  0  0  0
   63.9620   33.1810   46.9740 C   0  0  0  0  0  0  0  0  0  0  0  0
   61.5280   33.7610   47.0950 C   0  0  0  0  0  0  0  0  0  0  0  0
   57.8440   33.9620   44.9710 C   0  0  0  0  0  0  0  0  0  0  0  0
   56.6570   33.0190   45.2350 C   0  0  0  0  0  0  0  0  0  0  0  0
   59.0649   27.5384   45.1566 H   0  0  0  0  0  0  0  0  0  0  0  0
   57.9377   26.7500   44.0014 H   0  0  0  0  0  0  0  0  0  0  0  0
   58.1191   28.5371   44.0014 H   0  0  0  0  0  0  0  0  0  0  0  0
   56.5376   26.7579   45.8231 H   0  0  0  0  0  0  0  0  0  0  0  0
   57.3779   28.1397   46.5986 H   0  0  0  0  0  0  0  0  0  0  0  0
   57.5595   29.1879   43.9492 H   0  0  0  0  0  0  0  0  0  0  0  0
   55.9615   28.9314   43.1309 H   0  0  0  0  0  0  0  0  0  0  0  0
   56.3100   31.2770   43.1140 H   0  0  0  0  0  0  0  0  0  0  0  0
   55.1360   30.9234   44.4843 H   0  0  0  0  0  0  0  0  0  0  0  0
   58.6448   30.2483   45.1398 H   0  0  0  0  0  0  0  0  0  0  0  0
   58.8065   31.5833   43.9492 H   0  0  0  0  0  0  0  0  0  0  0  0
   58.8356   31.8963   46.9974 H   0  0  0  0  0  0  0  0  0  0  0  0
   60.2841   31.9194   45.9005 H   0  0  0  0  0  0  0  0  0  0  0  0
   59.0192   35.4399   46.8334 H   0  0  0  0  0  0  0  0  0  0  0  0
   58.2289   34.0487   47.6710 H   0  0  0  0  0  0  0  0  0  0  0  0
   59.4712   34.3633   49.7584 H   0  0  0  0  0  0  0  0  0  0  0  0
   61.5692   33.8388   50.9866 H   0  0  0  0  0  0  0  0  0  0  0  0
   64.4939   31.2226   49.0746 H   0  0  0  0  0  0  0  0  0  0  0  0
   66.5684   31.4075   50.7365 H   0  0  0  0  0  0  0  0  0  0  0  0
   66.3320   33.6780   52.0220 H   0  0  0  0  0  0  0  0  0  0  0  0
   64.1695   34.8688   51.2222 H   0  0  0  0  0  0  0  0  0  0  0  0
   64.8006   32.9791   47.6566 H   0  0  0  0  0  0  0  0  0  0  0  0
   63.7851   32.2998   46.3398 H   0  0  0  0  0  0  0  0  0  0  0  0
   64.2055   34.0462   46.3398 H   0  0  0  0  0  0  0  0  0  0  0  0
   61.5088   33.7312   45.9956 H   0  0  0  0  0  0  0  0  0  0  0  0
   57.5402   34.9894   45.2201 H   0  0  0  0  0  0  0  0  0  0  0  0
   58.1166   33.8662   43.9096 H   0  0  0  0  0  0  0  0  0  0  0  0
   56.3059   33.1754   46.2657 H   0  0  0  0  0  0  0  0  0  0  0  0
   55.8750   33.2553   44.4983 H   0  0  0  0  0  0  0  0  0  0  0  0
  1  2  1  0
  2  3  1  0
  3  4  1  0
  4  5  1  0
  5  6  1  0
  6  7  1  0
  7  8  1  0
  8  9  1  0
  9 10  1  0
 10 11  1  0
 11 12  2  0
 12 13  1  0
 13 14  2  0
 14 15  1  0
 15 16  1  0
 16 17  2  0
 17 18  1  0
 18 19  2  0
 14 20  1  0
 20 21  1  0
 20 22  2  0
  9 23  1  0
 23 24  1  0
 24  6  1  0
 22 11  1  0
 19 15  1  0
  1 25  1  0
  1 26  1  0
  1 27  1  0
  2 28  1  0
  2 29  1  0
  4 30  1  0
  4 31  1  0
  5 32  1  0
  5 33  1  0
  7 34  1  0
  7 35  1  0
  8 36  1  0
  8 37  1  0
 10 38  1  0
 10 39  1  0
 12 40  1  0
 13 41  1  0
 16 42  1  0
 17 43  1  0
 18 44  1  0
 19 45  1  0
 21 46  1  0
 21 47  1  0
 21 48  1  0
 22 49  1  0
 23 50  1  0
 23 51  1  0
 24 52  1  0
 24 53  1  0
M  CHG  1  18   1
M  END
>  <UniqueID>  (12) 
12

>  <SMILES>  (12) 
CCOCCN1CCN(Cc2ccc(-n3cc[nH+]c3)c(C)c2)CC1

>  <Energy>  (12) 
104.01303169857152

>  <Genealogy>  (12) 
CCOCCN1CCN(Cc2ccc(-n3cc[nH+]c3)c(C)c2)CC1 (protonated)
CCOCCN1CCN(Cc2ccc(-n3cc[nH+]c3)c(C)c2)CC1 (3D coordinates assigned)
CCOCCN1CCN(Cc2ccc(-n3cc[nH+]c3)c(C)c2)CC1 (nonaromatic ring conformer: 104.01303169857152 kcal/mol)

>  <smiles>  (12) 
CCOCCN1CCN(Cc2ccc(-n3ccnc3)c(C)c2)CC1

>  <score_type>  (12) 
oracle

>  <origin>  (12) 
adg

>  <m_score__min__energy>  (12) 
-6.4800000000000004

>  <m_primary>  (12) 
energy

$$$$
12:0
     RDKit          3D

 56 58  0  0  0  0  0  0  0  0999 V2000
   61.7340   32.4390   52.4430 C   0  0  0  0  0  0  0  0  0  0  0  0
   61.9350   33.5400   51.5620 O   0  0  0  0  0  0  0  0  0  0  0  0
   62.5430   33.4510   50.2990 C   0  0  0  0  0  0  0  0  0  0  0  0
   63.9120   33.1470   50.1590 C   0  0  0  0  0  0  0  0  0  0  0  0
   64.4940   33.0790   48.8950 C   0  0  0  0  0  0  0  0  0  0  0  0
   63.7260   33.3110   47.7550 C   0  0  0  0  0  0  0  0  0  0  0  0
   62.3660   33.6290   47.8670 C   0  0  0  0  0  0  0  0  0  0  0  0
   61.7590   33.6740   49.1480 C   0  0  0  0  0  0  0  0  0  0  0  0
   60.3060   34.0750   49.3090 C   0  0  0  0  0  0  0  0  0  0  0  0
   59.4990   33.9440   48.0150 C   0  0  0  0  0  0  0  0  0  0  0  0
   60.2550   34.5920   46.8450 C   0  0  2  0  0  0  0  0  0  0  0  0
   59.3930   34.6180   45.5690 C   0  0  0  0  0  0  0  0  0  0  0  0
   58.3190   33.6120   45.6660 N   0  0  0  0  0  0  0  0  0  0  0  0
   57.6200   33.4000   44.3880 C   0  0  0  0  0  0  0  0  0  0  0  0
   57.3970   31.9100   44.1130 C   0  0  0  0  0  0  0  0  0  0  0  0
   57.2620   31.1770   45.3320 O   0  0  0  0  0  0  0  0  0  0  0  0
   57.7010   29.8570   45.5210 C   0  0  0  0  0  0  0  0  0  0  0  0
   59.0030   29.6610   46.0120 C   0  0  0  0  0  0  0  0  0  0  0  0
   59.7900   30.7900   46.2940 O   0  0  0  0  0  0  0  0  0  0  0  0
   60.9830   30.7650   47.0740 C   0  0  0  0  0  0  0  0  0  0  0  0
   59.4890   28.3530   46.1940 C   0  0  0  0  0  0  0  0  0  0  0  0
   58.6820   27.2550   45.8970 C   0  0  0  0  0  0  0  0  0  0  0  0
   57.3810   27.4460   45.4360 C   0  0  0  0  0  0  0  0  0  0  0  0
   56.8690   28.7460   45.2570 C   0  0  0  0  0  0  0  0  0  0  0  0
   55.5410   28.9600   44.8530 O   0  0  0  0  0  0  0  0  0  0  0  0
   55.1530   29.6780   43.6850 C   0  0  0  0  0  0  0  0  0  0  0  0
   61.5630   33.8220   46.6010 C   0  0  0  0  0  0  0  0  0  0  0  0
   61.7975   32.7866   53.4847 H   0  0  0  0  0  0  0  0  0  0  0  0
   60.7411   32.0013   52.2623 H   0  0  0  0  0  0  0  0  0  0  0  0
   62.5082   31.6787   52.2623 H   0  0  0  0  0  0  0  0  0  0  0  0
   64.5250   32.9622   51.0535 H   0  0  0  0  0  0  0  0  0  0  0  0
   65.5635   32.8414   48.7962 H   0  0  0  0  0  0  0  0  0  0  0  0
   64.1910   33.2439   46.7604 H   0  0  0  0  0  0  0  0  0  0  0  0
   59.8479   33.4307   50.0738 H   0  0  0  0  0  0  0  0  0  0  0  0
   60.2892   35.1358   49.5995 H   0  0  0  0  0  0  0  0  0  0  0  0
   59.3361   32.8785   47.7956 H   0  0  0  0  0  0  0  0  0  0  0  0
   58.5335   34.4552   48.1431 H   0  0  0  0  0  0  0  0  0  0  0  0
   60.4865   35.6355   47.1050 H   0  0  0  0  0  0  0  0  0  0  0  0
   58.9473   35.6167   45.4507 H   0  0  0  0  0  0  0  0  0  0  0  0
   60.0268   34.3873   44.7000 H   0  0  0  0  0  0  0  0  0  0  0  0
   58.7460   32.6980   45.9450 H   0  0  0  0  0  0  0  0  0  0  0  0
   56.6445   33.9069   44.4254 H   0  0  0  0  0  0  0  0  0  0  0  0
   58.2432   33.8114   43.5803 H   0  0  0  0  0  0  0  0  0  0  0  0
   56.4807   31.7878   43.5169 H   0  0  0  0  0  0  0  0  0  0  0  0
   58.2685   31.5212   43.5660 H   0  0  0  0  0  0  0  0  0  0  0  0
   60.7225   30.7705   48.1427 H   0  0  0  0  0  0  0  0  0  0  0  0
   61.5547   29.8547   46.8406 H   0  0  0  0  0  0  0  0  0  0  0  0
   61.5923   31.6506   46.8406 H   0  0  0  0  0  0  0  0  0  0  0  0
   60.5099   28.1959   46.5722 H   0  0  0  0  0  0  0  0  0  0  0  0
   59.0736   26.2353   46.0270 H   0  0  0  0  0  0  0  0  0  0  0  0
   56.7488   26.5747   45.2101 H   0  0  0  0  0  0  0  0  0  0  0  0
   54.6490   30.6107   43.9785 H   0  0  0  0  0  0  0  0  0  0  0  0
   56.0454   29.9158   43.0874 H   0  0  0  0  0  0  0  0  0  0  0  0
   54.4651   29.0618   43.0874 H   0  0  0  0  0  0  0  0  0  0  0  0
   61.3181   32.8338   46.1845 H   0  0  0  0  0  0  0  0  0  0  0  0
   62.1745   34.4143   45.9044 H   0  0  0  0  0  0  0  0  0  0  0  0
  1  2  1  0
  2  3  1  0
  3  4  2  0
  4  5  1  0
  5  6  2  0
  6  7  1  0
  7  8  2  0
  8  9  1  0
  9 10  1  0
 10 11  1  0
 11 12  1  0
 12 13  1  0
 13 14  1  0
 14 15  1  0
 15 16  1  0
 16 17  1  0
 17 18  2  0
 18 19  1  0
 19 20  1  0
 18 21  1  0
 21 22  2  0
 22 23  1  0
 23 24  2  0
 24 25  1  0
 25 26  1  0
 11 27  1  0
  8  3  1  0
 24 17  1  0
 27  7  1  0
  1 28  1  0
  1 29  1  0
  1 30  1  0
  4 31  1  0
  5 32  1  0
  6 33  1  0
  9 34  1  0
  9 35  1  0
 10 36  1  0
 10 37  1  0
 11 38  1  1
 12 39  1  0
 12 40  1  0
 13 41  1  0
 14 42  1  0
 14 43  1  0
 15 44  1  0
 15 45  1  0
 20 46  1  0
 20 47  1  0
 20 48  1  0
 21 49  1  0
 22 50  1  0
 23 51  1  0
 26 52  1  0
 26 53  1  0
 26 54  1  0
 27 55  1  0
 27 56  1  0
M  END
>  <UniqueID>  (13) 
13

>  <SMILES>  (13) 
COc1cccc2c1CC[C@H](CNCCOc1c(OC)cccc1OC)C2

>  <Energy>  (13) 
57.350289106957035

>  <Genealogy>  (13) 
COc1cccc2c1CC[C@H](CNCCOc1c(OC)cccc1OC)C2 (chirality)
COc1cccc2c1CC[C@H](CNCCOc1c(OC)cccc1OC)C2 (3D coordinates assigned)
COc1cccc2c1CC[C@H](CNCCOc1c(OC)cccc1OC)C2 (nonaromatic ring conformer: 57.350289106957035 kcal/mol)

>  <smiles>  (13) 
COc1cccc2c1CCC(CNCCOc1c(OC)cccc1OC)C2

>  <score_type>  (13) 
oracle

>  <origin>  (13) 
adg

>  <m_score__min__energy>  (13) 
-8.4499999999999993

>  <m_primary>  (13) 
energy

$$$$
13:0
     RDKit          3D

 36 38  0  0  0  0  0  0  0  0999 V2000
   56.5730   29.6800   42.8100 C   0  0  0  0  0  0  0  0  0  0  0  0
   55.5260   29.9870   43.8730 C   0  0  0  0  0  0  0  0  0  0  0  0
   55.5220   28.9570   44.9080 N   0  0  0  0  0  0  0  0  0  0  0  0
   56.6840   28.2710   45.3900 C   0  0  0  0  0  0  0  0  0  0  0  0
   56.7660   27.0240   45.2340 O   0  0  0  0  0  0  0  0  0  0  0  0
   57.7950   28.9860   46.0490 C   0  0  0  0  0  0  0  0  0  0  0  0
   57.9630   30.3500   45.7760 C   0  0  0  0  0  0  0  0  0  0  0  0
   58.9880   31.0760   46.4040 C   0  0  0  0  0  0  0  0  0  0  0  0
   59.1860   32.5250   46.1560 C   0  0  0  0  0  0  0  0  0  0  0  0
   58.3990   33.2190   45.2170 C   0  0  0  0  0  0  0  0  0  0  0  0
   58.6040   34.5850   45.0190 C   0  0  0  0  0  0  0  0  0  0  0  0
   59.5780   35.2550   45.7550 C   0  0  0  0  0  0  0  0  0  0  0  0
   60.3360   34.5470   46.6870 C   0  0  0  0  0  0  0  0  0  0  0  0
   60.1270   33.2140   46.8720 N   0  0  0  0  0  0  0  0  0  0  0  0
   59.8350   30.4300   47.2500 N   0  0  0  0  0  0  0  0  0  0  0  0
   59.7230   29.1040   47.5250 C   0  0  0  0  0  0  0  0  0  0  0  0
   60.6350   28.5000   48.3980 C   0  0  0  0  0  0  0  0  0  0  0  0
   60.5410   27.1340   48.6740 C   0  0  0  0  0  0  0  0  0  0  0  0
   59.5410   26.3650   48.0750 C   0  0  0  0  0  0  0  0  0  0  0  0
   58.6250   26.9570   47.2020 C   0  0  0  0  0  0  0  0  0  0  0  0
   58.6960   28.3380   46.9240 C   0  0  0  0  0  0  0  0  0  0  0  0
   57.5195   29.4025   43.2970 H   0  0  0  0  0  0  0  0  0  0  0  0
   56.2251   28.8461   42.1827 H   0  0  0  0  0  0  0  0  0  0  0  0
   56.7305   30.5698   42.1827 H   0  0  0  0  0  0  0  0  0  0  0  0
   55.7534   30.9600   44.3331 H   0  0  0  0  0  0  0  0  0  0  0  0
   54.5352   30.0119   43.3959 H   0  0  0  0  0  0  0  0  0  0  0  0
   57.2895   30.8540   45.0672 H   0  0  0  0  0  0  0  0  0  0  0  0
   57.6265   32.6870   44.6424 H   0  0  0  0  0  0  0  0  0  0  0  0
   57.9970   35.1319   44.2825 H   0  0  0  0  0  0  0  0  0  0  0  0
   59.7476   36.3311   45.6028 H   0  0  0  0  0  0  0  0  0  0  0  0
   61.1061   35.0674   47.2753 H   0  0  0  0  0  0  0  0  0  0  0  0
   60.7190   32.7180   47.5760 H   0  0  0  0  0  0  0  0  0  0  0  0
   61.4270   29.1019   48.8675 H   0  0  0  0  0  0  0  0  0  0  0  0
   61.2561   26.6630   49.3645 H   0  0  0  0  0  0  0  0  0  0  0  0
   59.4743   25.2886   48.2915 H   0  0  0  0  0  0  0  0  0  0  0  0
   57.8444   26.3430   46.7290 H   0  0  0  0  0  0  0  0  0  0  0  0
  1  2  1  0
  2  3  1  0
  3  4  1  0
  4  5  2  0
  4  6  1  0
  6  7  2  0
  7  8  1  0
  8  9  1  0
  9 10  2  0
 10 11  1  0
 11 12  2  0
 12 13  1  0
 13 14  2  0
  8 15  2  0
 15 16  1  0
 16 17  2  0
 17 18  1  0
 18 19  2  0
 19 20  1  0
 20 21  2  0
 21  6  1  0
 14  9  1  0
 21 16  1  0
  1 22  1  0
  1 23  1  0
  1 24  1  0
  2 25  1  0
  2 26  1  0
  7 27  1  0
 10 28  1  0
 11 29  1  0
 12 30  1  0
 13 31  1  0
 14 32  1  0
 17 33  1  0
 18 34  1  0
 19 35  1  0
 20 36  1  0
M  CHG  2   3  -1  14   1
M  END
>  <UniqueID>  (14) 
14

>  <SMILES>  (14) 
CC[N-]C(=O)c1cc(-c2cccc[nH+]2)nc2ccccc12

>  <Energy>  (14) 
49.11247603152262

>  <Genealogy>  (14) 
CC[N-]C(=O)c1cc(-c2cccc[nH+]2)nc2ccccc12 (protonated)
CC[N-]C(=O)c1cc(-c2cccc[nH+]2)nc2ccccc12 (3D coordinates assigned)
CC[N-]C(=O)c1cc(-c2cccc[nH+]2)nc2ccccc12 (optimized conformer: 49.11247603152262 kcal/mol)

>  <smiles>  (14) 
CCNC(=O)c1cc(-c2ccccn2)nc2ccccc12

>  <score_type>  (14) 
oracle

>  <origin>  (14) 
adg

>  <m_score__min__energy>  (14) 
-7.8399999999999999

>  <m_primary>  (14) 
energy

$$$$
14:0
     RDKit          3D

 69 72  0  0  0  0  0  0  0  0999 V2000
   63.3370   33.8550   46.0100 C   0  0  0  0  0  0  0  0  0  0  0  0
   63.3210   33.2270   47.3710 C   0  0  0  0  0  0  0  0  0  0  0  0
   62.8520   31.9200   47.5360 C   0  0  0  0  0  0  0  0  0  0  0  0
   62.8460   31.3290   48.7960 C   0  0  0  0  0  0  0  0  0  0  0  0
   63.2990   32.0330   49.9280 C   0  0  0  0  0  0  0  0  0  0  0  0
   63.3020   31.3770   51.2150 N   0  0  0  0  0  0  0  0  0  0  0  0
   62.2790   31.7180   52.2210 C   0  0  0  0  0  0  0  0  0  0  0  0
   61.5980   30.4400   52.7470 C   0  0  0  0  0  0  0  0  0  0  0  0
   61.6750   29.4020   51.7100 N   0  0  0  0  0  0  0  0  0  0  0  0
   60.5720   29.1220   50.8130 C   0  0  0  0  0  0  0  0  0  0  0  0
   60.7910   28.5550   49.7080 O   0  0  0  0  0  0  0  0  0  0  0  0
   59.1440   29.4610   51.1490 C   0  0  0  0  0  0  0  0  0  0  0  0
   58.9610   30.8570   51.3730 O   0  0  0  0  0  0  0  0  0  0  0  0
   58.0900   31.6780   50.6490 C   0  0  0  0  0  0  0  0  0  0  0  0
   56.8550   31.6850   50.9010 O   0  0  0  0  0  0  0  0  0  0  0  0
   58.6360   32.5100   49.5570 C   0  0  0  0  0  0  0  0  0  0  0  0
   59.6820   33.4010   49.8230 C   0  0  0  0  0  0  0  0  0  0  0  0
   60.2290   34.1760   48.8010 C   0  0  0  0  0  0  0  0  0  0  0  0
   59.7550   34.0670   47.4870 C   0  0  0  0  0  0  0  0  0  0  0  0
   60.3810   34.9270   46.4200 C   0  0  0  0  0  0  0  0  0  0  0  0
   58.6790   33.1870   47.2090 C   0  0  0  0  0  0  0  0  0  0  0  0
   58.0190   33.0160   45.5710 S   0  0  0  0  0  0  0  0  0  0  0  0
   58.3300   34.2750   44.8080 O   0  0  0  0  0  0  0  0  0  0  0  0
   56.5290   32.8340   45.6440 O   0  0  0  0  0  0  0  0  0  0  0  0
   58.7290   31.6410   44.7470 N   0  0  0  0  0  0  0  0  0  0  0  0
   58.7670   30.4390   45.6120 C   0  0  0  0  0  0  0  0  0  0  0  0
   57.6580   29.4270   45.2770 C   0  0  0  0  0  0  0  0  0  0  0  0
   56.4840   30.1040   44.8930 O   0  0  0  0  0  0  0  0  0  0  0  0
   56.6660   30.7260   43.6340 C   0  0  0  0  0  0  0  0  0  0  0  0
   58.0550   31.3870   43.4570 C   0  0  0  0  0  0  0  0  0  0  0  0
   58.1420   32.4040   48.2460 C   0  0  0  0  0  0  0  0  0  0  0  0
   63.0370   28.9310   51.3930 C   0  0  0  0  0  0  0  0  0  0  0  0
   64.0300   30.1120   51.3960 C   0  0  0  0  0  0  0  0  0  0  0  0
   63.7440   33.3670   49.7730 C   0  0  0  0  0  0  0  0  0  0  0  0
   64.2160   34.1820   50.9460 C   0  0  0  0  0  0  0  0  0  0  0  0
   63.7360   33.9560   48.4950 C   0  0  0  0  0  0  0  0  0  0  0  0
   63.3649   34.9499   46.1117 H   0  0  0  0  0  0  0  0  0  0  0  0
   64.2268   33.5151   45.4598 H   0  0  0  0  0  0  0  0  0  0  0  0
   62.4311   33.5608   45.4598 H   0  0  0  0  0  0  0  0  0  0  0  0
   62.4859   31.3561   46.6654 H   0  0  0  0  0  0  0  0  0  0  0  0
   62.4821   30.2971   48.9091 H   0  0  0  0  0  0  0  0  0  0  0  0
   62.7567   32.2458   53.0596 H   0  0  0  0  0  0  0  0  0  0  0  0
   61.5190   32.3616   51.7539 H   0  0  0  0  0  0  0  0  0  0  0  0
   62.1126   30.0939   53.6556 H   0  0  0  0  0  0  0  0  0  0  0  0
   60.5456   30.6495   52.9890 H   0  0  0  0  0  0  0  0  0  0  0  0
   58.4997   29.1486   50.3139 H   0  0  0  0  0  0  0  0  0  0  0  0
   58.8805   28.9324   52.0770 H   0  0  0  0  0  0  0  0  0  0  0  0
   60.0757   33.4906   50.8462 H   0  0  0  0  0  0  0  0  0  0  0  0
   61.0420   34.8810   49.0290 H   0  0  0  0  0  0  0  0  0  0  0  0
   60.9656   35.7301   46.8925 H   0  0  0  0  0  0  0  0  0  0  0  0
   61.0434   34.3108   45.7942 H   0  0  0  0  0  0  0  0  0  0  0  0
   59.5911   35.3680   45.7942 H   0  0  0  0  0  0  0  0  0  0  0  0
   59.7422   29.9460   45.4857 H   0  0  0  0  0  0  0  0  0  0  0  0
   58.6087   30.7721   46.6483 H   0  0  0  0  0  0  0  0  0  0  0  0
   57.9921   28.7813   44.4515 H   0  0  0  0  0  0  0  0  0  0  0  0
   57.4466   28.8170   46.1676 H   0  0  0  0  0  0  0  0  0  0  0  0
   56.5422   29.9644   42.8500 H   0  0  0  0  0  0  0  0  0  0  0  0
   55.9181   31.5295   43.5632 H   0  0  0  0  0  0  0  0  0  0  0  0
   58.6885   30.7206   42.8532 H   0  0  0  0  0  0  0  0  0  0  0  0
   57.9027   32.3577   42.9625 H   0  0  0  0  0  0  0  0  0  0  0  0
   57.3253   31.7000   48.0283 H   0  0  0  0  0  0  0  0  0  0  0  0
   63.3496   28.1930   52.1464 H   0  0  0  0  0  0  0  0  0  0  0  0
   63.0318   28.4723   50.3932 H   0  0  0  0  0  0  0  0  0  0  0  0
   64.5676   30.1344   52.3554 H   0  0  0  0  0  0  0  0  0  0  0  0
   64.7470   29.9850   50.5715 H   0  0  0  0  0  0  0  0  0  0  0  0
   63.9258   33.6809   51.8812 H   0  0  0  0  0  0  0  0  0  0  0  0
   65.3109   34.2804   50.9073 H   0  0  0  0  0  0  0  0  0  0  0  0
   63.7565   35.1807   50.9073 H   0  0  0  0  0  0  0  0  0  0  0  0
   64.0591   35.0007   48.3761 H   0  0  0  0  0  0  0  0  0  0  0  0
  1  2  1  0
  2  3  2  0
  3  4  1  0
  4  5  2  0
  5  6  1  0
  6  7  1  0
  7  8  1  0
  8  9  1  0
  9 10  1  0
 10 11  2  0
 10 12  1  0
 12 13  1  0
 13 14  1  0
 14 15  2  0
 14 16  1  0
 16 17  2  0
 17 18  1  0
 18 19  2  0
 19 20  1  0
 19 21  1  0
 21 22  1  0
 22 23  2  0
 22 24  2  0
 22 25  1  0
 25 26  1  0
 26 27  1  0
 27 28  1  0
 28 29  1  0
 29 30  1  0
 21 31  2  0
  9 32  1  0
 32 33  1  0
  5 34  1  0
 34 35  1  0
 34 36  2  0
 36  2  1  0
 33  6  1  0
 31 16  1  0
 30 25  1  0
  1 37  1  0
  1 38  1  0
  1 39  1  0
  3 40  1  0
  4 41  1  0
  7 42  1  0
  7 43  1  0
  8 44  1  0
  8 45  1  0
 12 46  1  0
 12 47  1  0
 17 48  1  0
 18 49  1  0
 20 50  1  0
 20 51  1  0
 20 52  1  0
 26 53  1  0
 26 54  1  0
 27 55  1  0
 27 56  1  0
 29 57  1  0
 29 58  1  0
 30 59  1  0
 30 60  1  0
 31 61  1  0
 32 62  1  0
 32 63  1  0
 33 64  1  0
 33 65  1  0
 35 66  1  0
 35 67  1  0
 35 68  1  0
 36 69  1  0
M  END
>  <UniqueID>  (15) 
15

>  <SMILES>  (15) 
Cc1ccc(N2CCN(C(=O)COC(=O)c3ccc(C)c(S(=O)(=O)N4CCOCC4)c3)CC2)c(C)c1

>  <Energy>  (15) 
88.02561378049855

>  <Genealogy>  (15) 
Cc1ccc(N2CCN(C(=O)COC(=O)c3ccc(C)c(S(=O)(=O)N4CCOCC4)c3)CC2)c(C)c1 (3D coordinates assigned)
Cc1ccc(N2CCN(C(=O)COC(=O)c3ccc(C)c(S(=O)(=O)N4CCOCC4)c3)CC2)c(C)c1 (nonaromatic ring conformer: 88.02561378049855 kcal/mol)

>  <smiles>  (15) 
Cc1ccc(N2CCN(C(=O)COC(=O)c3ccc(C)c(S(=O)(=O)N4CCOCC4)c3)CC2)c(C)c1

>  <score_type>  (15) 
oracle

>  <origin>  (15) 
adg

>  <m_score__min__energy>  (15) 
-10.19

>  <m_primary>  (15) 
energy

$$$$
15:0
     RDKit          3D

 49 51  0  0  0  0  0  0  0  0999 V2000
   58.1420   32.3340   41.8750 C   0  0  0  0  0  0  0  0  0  0  0  0
   58.0820   32.6490   43.3410 C   0  0  0  0  0  0  0  0  0  0  0  0
   58.6440   33.8110   43.7750 N   0  0  0  0  0  0  0  0  0  0  0  0
   58.6420   34.1720   45.0850 C   0  0  0  0  0  0  0  0  0  0  0  0
   58.0520   33.3440   46.0360 C   0  0  0  0  0  0  0  0  0  0  0  0
   57.4720   32.1430   45.6310 C   0  0  0  0  0  0  0  0  0  0  0  0
   57.4900   31.7670   44.2780 C   0  0  0  0  0  0  0  0  0  0  0  0
   56.8200   30.4740   43.8710 C   0  0  0  0  0  0  0  0  0  0  0  0
   57.8260   29.4670   43.4970 N   0  0  0  0  0  0  0  0  0  0  0  0
   57.9820   28.4940   44.5580 C   0  0  0  0  0  0  0  0  0  0  0  0
   57.9730   28.9520   45.8860 C   0  0  0  0  0  0  0  0  0  0  0  0
   58.1100   28.0690   46.9470 C   0  0  0  0  0  0  0  0  0  0  0  0
   58.2760   26.7110   46.7060 C   0  0  0  0  0  0  0  0  0  0  0  0
   58.3020   26.2000   45.3960 C   0  0  0  0  0  0  0  0  0  0  0  0
   58.5360   24.6970   45.2500 C   0  0  0  0  0  0  0  0  0  0  0  0
   57.6350   24.0290   44.2820 N   0  0  0  0  0  0  0  0  0  0  0  0
   57.8970   22.5890   44.1270 C   0  0  0  0  0  0  0  0  0  0  0  0
   56.9860   22.0260   43.0290 C   0  0  0  0  0  0  0  0  0  0  0  0
   55.6230   22.2490   43.3420 O   0  0  0  0  0  0  0  0  0  0  0  0
   55.3700   23.6400   43.4290 C   0  0  0  0  0  0  0  0  0  0  0  0
   56.2070   24.2710   44.5490 C   0  0  0  0  0  0  0  0  0  0  0  0
   58.1070   27.0950   44.2970 C   0  0  0  0  0  0  0  0  0  0  0  0
   58.0800   26.6100   42.8590 C   0  0  0  0  0  0  0  0  0  0  0  0
   58.3462   31.2618   41.7384 H   0  0  0  0  0  0  0  0  0  0  0  0
   57.1796   32.5866   41.4060 H   0  0  0  0  0  0  0  0  0  0  0  0
   58.9442   32.9227   41.4060 H   0  0  0  0  0  0  0  0  0  0  0  0
   59.1071   35.1196   45.3944 H   0  0  0  0  0  0  0  0  0  0  0  0
   58.0436   33.6348   47.0968 H   0  0  0  0  0  0  0  0  0  0  0  0
   56.9977   31.4862   46.3751 H   0  0  0  0  0  0  0  0  0  0  0  0
   56.2239   30.0943   44.7139 H   0  0  0  0  0  0  0  0  0  0  0  0
   56.1712   30.6674   43.0040 H   0  0  0  0  0  0  0  0  0  0  0  0
   58.7440   29.9440   43.3300 H   0  0  0  0  0  0  0  0  0  0  0  0
   57.5690   29.0090   42.5930 H   0  0  0  0  0  0  0  0  0  0  0  0
   57.8555   30.0270   46.0875 H   0  0  0  0  0  0  0  0  0  0  0  0
   58.0872   28.4446   47.9806 H   0  0  0  0  0  0  0  0  0  0  0  0
   58.3893   26.0222   47.5561 H   0  0  0  0  0  0  0  0  0  0  0  0
   59.5733   24.5408   44.9190 H   0  0  0  0  0  0  0  0  0  0  0  0
   58.3279   24.2497   46.2332 H   0  0  0  0  0  0  0  0  0  0  0  0
   58.9495   22.4346   43.8469 H   0  0  0  0  0  0  0  0  0  0  0  0
   57.6942   22.0721   45.0766 H   0  0  0  0  0  0  0  0  0  0  0  0
   57.2225   22.5208   42.0755 H   0  0  0  0  0  0  0  0  0  0  0  0
   57.1567   20.9421   42.9511 H   0  0  0  0  0  0  0  0  0  0  0  0
   55.6297   24.1154   42.4717 H   0  0  0  0  0  0  0  0  0  0  0  0
   54.3040   23.7937   43.6528 H   0  0  0  0  0  0  0  0  0  0  0  0
   56.0177   25.3540   44.5841 H   0  0  0  0  0  0  0  0  0  0  0  0
   55.9305   23.8222   45.5144 H   0  0  0  0  0  0  0  0  0  0  0  0
   58.0189   25.5118   42.8435 H   0  0  0  0  0  0  0  0  0  0  0  0
   57.2040   27.0333   42.3457 H   0  0  0  0  0  0  0  0  0  0  0  0
   58.9975   26.9334   42.3457 H   0  0  0  0  0  0  0  0  0  0  0  0
  1  2  1  0
  2  3  2  0
  3  4  1  0
  4  5  2  0
  5  6  1  0
  6  7  2  0
  7  8  1  0
  8  9  1  0
  9 10  1  0
 10 11  2  0
 11 12  1  0
 12 13  2  0
 13 14  1  0
 14 15  1  0
 15 16  1  0
 16 17  1  0
 17 18  1  0
 18 19  1  0
 19 20  1  0
 20 21  1  0
 14 22  2  0
 22 23  1  0
  7  2  1  0
 22 10  1  0
 21 16  1  0
  1 24  1  0
  1 25  1  0
  1 26  1  0
  4 27  1  0
  5 28  1  0
  6 29  1  0
  8 30  1  0
  8 31  1  0
  9 32  1  0
  9 33  1  0
 11 34  1  0
 12 35  1  0
 13 36  1  0
 15 37  1  0
 15 38  1  0
 17 39  1  0
 17 40  1  0
 18 41  1  0
 18 42  1  0
 20 43  1  0
 20 44  1  0
 21 45  1  0
 21 46  1  0
 23 47  1  0
 23 48  1  0
 23 49  1  0
M  CHG  1   9   1
M  END
>  <UniqueID>  (16) 
16

>  <SMILES>  (16) 
Cc1ncccc1C[NH2+]c1cccc(CN2CCOCC2)c1C

>  <Energy>  (16) 
62.51045324281791

>  <Genealogy>  (16) 
Cc1ncccc1C[NH2+]c1cccc(CN2CCOCC2)c1C (protonated)
Cc1ncccc1C[NH2+]c1cccc(CN2CCOCC2)c1C (3D coordinates assigned)
Cc1ncccc1C[NH2+]c1cccc(CN2CCOCC2)c1C (nonaromatic ring conformer: 62.51045324281791 kcal/mol)

>  <smiles>  (16) 
Cc1ncccc1CNc1cccc(CN2CCOCC2)c1C

>  <score_type>  (16) 
oracle

>  <origin>  (16) 
adg

>  <m_score__min__energy>  (16) 
-6.6799999999999997

>  <m_primary>  (16) 
energy

$$$$
16:0
     RDKit          3D

 37 39  0  0  0  0  0  0  0  0999 V2000
   56.9690   27.4390   45.5610 F   0  0  0  0  0  0  0  0  0  0  0  0
   57.1330   28.7460   45.2400 C   0  0  0  0  0  0  0  0  0  0  0  0
   58.3910   29.3440   45.3350 C   0  0  0  0  0  0  0  0  0  0  0  0
   58.5470   30.6910   45.0010 C   0  0  0  0  0  0  0  0  0  0  0  0
   57.4360   31.4250   44.5720 C   0  0  0  0  0  0  0  0  0  0  0  0
   57.5920   32.7730   44.2370 O   0  0  0  0  0  0  0  0  0  0  0  0
   57.3140   33.8310   45.1480 C   0  0  0  0  0  0  0  0  0  0  0  0
   58.2600   33.7480   46.3040 C   0  0  0  0  0  0  0  0  0  0  0  0
   59.3120   34.6620   46.4340 C   0  0  0  0  0  0  0  0  0  0  0  0
   60.1500   34.5830   47.5470 C   0  0  0  0  0  0  0  0  0  0  0  0
   59.9290   33.6070   48.5200 C   0  0  0  0  0  0  0  0  0  0  0  0
   58.8570   32.7080   48.3700 C   0  0  0  0  0  0  0  0  0  0  0  0
   58.5800   31.6910   49.3590 N   0  0  0  0  0  0  0  0  0  0  0  0
   57.7980   32.0000   50.5640 C   0  0  0  0  0  0  0  0  0  0  0  0
   58.1470   31.0250   51.6930 C   0  0  0  0  0  0  0  0  0  0  0  0
   58.0610   29.6870   51.2480 O   0  0  0  0  0  0  0  0  0  0  0  0
   59.0530   29.4510   50.2690 C   0  0  0  0  0  0  0  0  0  0  0  0
   58.7820   30.2780   49.0100 C   0  0  0  0  0  0  0  0  0  0  0  0
   58.0560   32.8130   47.2730 N   0  0  0  0  0  0  0  0  0  0  0  0
   56.2180   30.8190   44.4870 N   0  0  0  0  0  0  0  0  0  0  0  0
   56.0450   29.5090   44.8090 C   0  0  0  0  0  0  0  0  0  0  0  0
   59.2571   28.7556   45.6721 H   0  0  0  0  0  0  0  0  0  0  0  0
   59.5343   31.1704   45.0746 H   0  0  0  0  0  0  0  0  0  0  0  0
   57.4401   34.7976   44.6384 H   0  0  0  0  0  0  0  0  0  0  0  0
   56.2793   33.7431   45.5109 H   0  0  0  0  0  0  0  0  0  0  0  0
   59.4763   35.4338   45.6676 H   0  0  0  0  0  0  0  0  0  0  0  0
   60.9852   35.2903   47.6576 H   0  0  0  0  0  0  0  0  0  0  0  0
   60.5883   33.5411   49.3980 H   0  0  0  0  0  0  0  0  0  0  0  0
   58.0237   33.0264   50.8890 H   0  0  0  0  0  0  0  0  0  0  0  0
   56.7278   31.9043   50.3286 H   0  0  0  0  0  0  0  0  0  0  0  0
   59.1724   31.2248   52.0373 H   0  0  0  0  0  0  0  0  0  0  0  0
   57.4308   31.1686   52.5154 H   0  0  0  0  0  0  0  0  0  0  0  0
   60.0360   29.7279   50.6777 H   0  0  0  0  0  0  0  0  0  0  0  0
   59.0365   28.3844   50.0004 H   0  0  0  0  0  0  0  0  0  0  0  0
   59.6409   30.1923   48.3282 H   0  0  0  0  0  0  0  0  0  0  0  0
   57.8726   29.8974   48.5220 H   0  0  0  0  0  0  0  0  0  0  0  0
   55.0484   29.0502   44.7301 H   0  0  0  0  0  0  0  0  0  0  0  0
  1  2  1  0
  2  3  2  0
  3  4  1  0
  4  5  2  0
  5  6  1  0
  6  7  1  0
  7  8  1  0
  8  9  2  0
  9 10  1  0
 10 11  2  0
 11 12  1  0
 12 13  1  0
 13 14  1  0
 14 15  1  0
 15 16  1  0
 16 17  1  0
 17 18  1  0
 12 19  2  0
  5 20  1  0
 20 21  2  0
 21  2  1  0
 19  8  1  0
 18 13  1  0
  3 22  1  0
  4 23  1  0
  7 24  1  0
  7 25  1  0
  9 26  1  0
 10 27  1  0
 11 28  1  0
 14 29  1  0
 14 30  1  0
 15 31  1  0
 15 32  1  0
 17 33  1  0
 17 34  1  0
 18 35  1  0
 18 36  1  0
 21 37  1  0
M  END
>  <UniqueID>  (17) 
17

>  <SMILES>  (17) 
Fc1ccc(OCc2cccc(N3CCOCC3)n2)nc1

>  <Energy>  (17) 
41.12930336329411

>  <Genealogy>  (17) 
Fc1ccc(OCc2cccc(N3CCOCC3)n2)nc1 (3D coordinates assigned)
Fc1ccc(OCc2cccc(N3CCOCC3)n2)nc1 (nonaromatic ring conformer: 41.12930336329411 kcal/mol)

>  <smiles>  (17) 
Fc1ccc(OCc2cccc(N3CCOCC3)n2)nc1

>  <score_type>  (17) 
oracle

>  <origin>  (17) 
adg

>  <m_score__min__energy>  (17) 
-7.3499999999999996

>  <m_primary>  (17) 
energy

$$$$
17:0
     RDKit          3D

 52 55  0  0  0  0  0  0  0  0999 V2000
   58.7000   34.6460   44.8940 C   0  0  0  0  0  0  0  0  0  0  0  0
   59.5990   35.2000   45.8480 O   0  0  0  0  0  0  0  0  0  0  0  0
   60.3720   34.4400   46.7400 C   0  0  0  0  0  0  0  0  0  0  0  0
   59.9060   34.2700   48.0490 C   0  0  0  0  0  0  0  0  0  0  0  0
   60.6350   33.5080   48.9670 C   0  0  0  0  0  0  0  0  0  0  0  0
   61.8320   32.8900   48.5820 C   0  0  0  0  0  0  0  0  0  0  0  0
   62.5790   32.0990   49.5240 N   0  0  0  0  0  0  0  0  0  0  0  0
   64.0230   32.3180   49.6420 C   0  0  0  0  0  0  0  0  0  0  0  0
   61.9720   31.0020   50.2430 C   0  0  0  0  0  0  0  0  0  0  0  0
   62.0660   30.9540   51.4990 O   0  0  0  0  0  0  0  0  0  0  0  0
   61.2520   29.8750   49.5380 C   0  0  0  0  0  0  0  0  0  0  0  0
   60.1330   30.3710   48.7140 N   0  0  2  0  0  0  0  0  0  0  0  0
   58.9380   29.6440   49.0100 C   0  0  0  0  0  0  0  0  0  0  0  0
   58.3560   29.7230   50.1220 O   0  0  0  0  0  0  0  0  0  0  0  0
   58.4170   28.8600   47.9490 N   0  0  0  0  0  0  0  0  0  0  0  0
   59.2530   29.0910   46.7820 C   0  0  1  0  0  0  0  0  0  0  0  0
   59.9230   27.7620   46.3360 C   0  0  0  0  0  0  0  0  0  0  0  0
   59.0930   26.8930   45.3600 C   0  0  0  0  0  0  0  0  0  0  0  0
   57.6390   27.3490   45.1990 C   0  0  0  0  0  0  0  0  0  0  0  0
   57.5880   28.8240   44.9150 C   0  0  0  0  0  0  0  0  0  0  0  0
   56.7180   29.3390   43.9430 C   0  0  0  0  0  0  0  0  0  0  0  0
   56.6410   30.7170   43.7270 C   0  0  0  0  0  0  0  0  0  0  0  0
   57.4150   31.5880   44.4940 C   0  0  0  0  0  0  0  0  0  0  0  0
   58.2790   31.0860   45.4730 C   0  0  0  0  0  0  0  0  0  0  0  0
   58.3920   29.6940   45.6800 C   0  0  0  0  0  0  0  0  0  0  0  0
   60.2990   30.0350   47.3260 C   0  0  0  0  0  0  0  0  0  0  0  0
   61.1930   30.5090   46.6410 O   0  0  0  0  0  0  0  0  0  0  0  0
   62.3140   33.0770   47.2780 C   0  0  0  0  0  0  0  0  0  0  0  0
   61.5910   33.8440   46.3630 C   0  0  0  0  0  0  0  0  0  0  0  0
   57.8765   34.1385   45.4178 H   0  0  0  0  0  0  0  0  0  0  0  0
   58.2931   35.4502   44.2634 H   0  0  0  0  0  0  0  0  0  0  0  0
   59.2355   33.9210   44.2634 H   0  0  0  0  0  0  0  0  0  0  0  0
   58.9600   34.7390   48.3574 H   0  0  0  0  0  0  0  0  0  0  0  0
   60.2667   33.3931   49.9971 H   0  0  0  0  0  0  0  0  0  0  0  0
   64.3018   32.3603   50.7052 H   0  0  0  0  0  0  0  0  0  0  0  0
   64.5603   31.4911   49.1547 H   0  0  0  0  0  0  0  0  0  0  0  0
   64.2910   33.2671   49.1547 H   0  0  0  0  0  0  0  0  0  0  0  0
   61.9660   29.3474   48.8885 H   0  0  0  0  0  0  0  0  0  0  0  0
   60.8406   29.2002   50.3031 H   0  0  0  0  0  0  0  0  0  0  0  0
   59.9600   31.3960   48.8240 H   0  0  0  0  0  0  0  0  0  0  0  0
   60.8745   28.0107   45.8433 H   0  0  0  0  0  0  0  0  0  0  0  0
   60.0412   27.1614   47.2499 H   0  0  0  0  0  0  0  0  0  0  0  0
   59.5765   26.9248   44.3725 H   0  0  0  0  0  0  0  0  0  0  0  0
   59.0624   25.8790   45.7853 H   0  0  0  0  0  0  0  0  0  0  0  0
   57.1765   26.8017   44.3644 H   0  0  0  0  0  0  0  0  0  0  0  0
   57.0921   27.1430   46.1309 H   0  0  0  0  0  0  0  0  0  0  0  0
   56.0940   28.6554   43.3486 H   0  0  0  0  0  0  0  0  0  0  0  0
   55.9698   31.1154   42.9519 H   0  0  0  0  0  0  0  0  0  0  0  0
   57.3457   32.6733   44.3284 H   0  0  0  0  0  0  0  0  0  0  0  0
   58.8738   31.7799   46.0851 H   0  0  0  0  0  0  0  0  0  0  0  0
   63.2662   32.6170   46.9751 H   0  0  0  0  0  0  0  0  0  0  0  0
   61.9754   33.9837   45.3419 H   0  0  0  0  0  0  0  0  0  0  0  0
  1  2  1  0
  2  3  1  0
  3  4  2  0
  4  5  1  0
  5  6  2  0
  6  7  1  0
  7  8  1  0
  7  9  1  0
  9 10  2  0
  9 11  1  0
 11 12  1  0
 12 13  1  0
 13 14  2  0
 13 15  1  0
 16 15  1  1
 16 17  1  0
 17 18  1  0
 18 19  1  0
 19 20  1  0
 20 21  2  0
 21 22  1  0
 22 23  2  0
 23 24  1  0
 24 25  2  0
 16 26  1  0
 26 27  2  0
  6 28  1  0
 28 29  2  0
 29  3  1  0
 26 12  1  0
 25 16  1  0
 25 20  1  0
  1 30  1  0
  1 31  1  0
  1 32  1  0
  4 33  1  0
  5 34  1  0
  8 35  1  0
  8 36  1  0
  8 37  1  0
 11 38  1  0
 11 39  1  0
 12 40  1  6
 17 41  1  0
 17 42  1  0
 18 43  1  0
 18 44  1  0
 19 45  1  0
 19 46  1  0
 21 47  1  0
 22 48  1  0
 23 49  1  0
 24 50  1  0
 28 51  1  0
 29 52  1  0
M  CHG  2  12   1  15  -1
M  END
>  <UniqueID>  (18) 
18

>  <SMILES>  (18) 
COc1ccc(N(C)C(=O)C[N@@H+]2C(=O)[N-][C@]3(CCCc4ccccc43)C2=O)cc1

>  <Energy>  (18) 
79.3947949010055

>  <Genealogy>  (18) 
COc1ccc(N(C)C(=O)C[NH+]2C(=O)[N-]C3(CCCc4ccccc43)C2=O)cc1 (protonated)
COc1ccc(N(C)C(=O)C[N@@H+]2C(=O)[N-][C@]3(CCCc4ccccc43)C2=O)cc1 (chirality)
COc1ccc(N(C)C(=O)C[N@@H+]2C(=O)[N-][C@]3(CCCc4ccccc43)C2=O)cc1 (3D coordinates assigned)
COc1ccc(N(C)C(=O)C[N@@H+]2C(=O)[N-][C@]3(CCCc4ccccc43)C2=O)cc1 (nonaromatic ring conformer: 79.3947949010055 kcal/mol)

>  <smiles>  (18) 
COc1ccc(N(C)C(=O)CN2C(=O)NC3(CCCc4ccccc43)C2=O)cc1

>  <score_type>  (18) 
oracle

>  <origin>  (18) 
adg

>  <m_score__min__energy>  (18) 
-8.8100000000000005

>  <m_primary>  (18) 
energy

$$$$
18:0
     RDKit          3D

 48 49  0  0  0  0  0  0  0  0999 V2000
   59.8730   29.1630   46.2530 C   0  0  0  0  0  0  0  0  0  0  0  0
   59.5440   29.6250   44.8370 C   0  0  0  0  0  0  0  0  0  0  0  0
   58.1090   29.8800   44.7010 N   0  0  0  0  0  0  0  0  0  0  0  0
   57.1670   28.9620   44.4290 C   0  0  0  0  0  0  0  0  0  0  0  0
   55.9560   29.6080   44.3220 C   0  0  0  0  0  0  0  0  0  0  0  0
   56.1290   30.9310   44.5190 N   0  0  0  0  0  0  0  0  0  0  0  0
   57.4530   31.0630   44.7470 C   0  0  0  0  0  0  0  0  0  0  0  0
   58.1030   32.3940   44.9980 C   0  0  0  0  0  0  0  0  0  0  0  0
   58.8040   32.3950   46.2990 N   0  0  0  0  0  0  0  0  0  0  0  0
   58.0720   33.1800   47.3220 C   0  0  0  0  0  0  0  0  0  0  0  0
   58.6800   33.1050   48.7380 C   0  0  0  0  0  0  0  0  0  0  0  0
   59.7180   34.2000   49.0590 C   0  0  0  0  0  0  0  0  0  0  0  0
   60.8510   34.1900   48.1150 N   0  0  0  0  0  0  0  0  0  0  0  0
   62.2080   34.1930   48.6260 C   0  0  0  0  0  0  0  0  0  0  0  0
   62.4250   34.4490   49.8420 O   0  0  0  0  0  0  0  0  0  0  0  0
   63.3910   33.8640   47.7520 C   0  0  0  0  0  0  0  0  0  0  0  0
   63.8570   32.4840   47.9990 N   0  0  0  0  0  0  0  0  0  0  0  0
   64.5640   32.4130   49.2870 C   0  0  0  0  0  0  0  0  0  0  0  0
   62.7280   31.5380   48.0020 C   0  0  0  0  0  0  0  0  0  0  0  0
   60.6110   34.1320   46.6570 C   0  0  0  0  0  0  0  0  0  0  0  0
   60.2430   32.7270   46.1410 C   0  0  0  0  0  0  0  0  0  0  0  0
   59.3936   29.8362   46.9790 H   0  0  0  0  0  0  0  0  0  0  0  0
   59.4997   28.1389   46.4006 H   0  0  0  0  0  0  0  0  0  0  0  0
   60.9629   29.1808   46.4006 H   0  0  0  0  0  0  0  0  0  0  0  0
   60.0981   30.5502   44.6202 H   0  0  0  0  0  0  0  0  0  0  0  0
   59.8334   28.8346   44.1288 H   0  0  0  0  0  0  0  0  0  0  0  0
   57.3342   27.8811   44.3120 H   0  0  0  0  0  0  0  0  0  0  0  0
   54.9938   29.1195   44.1084 H   0  0  0  0  0  0  0  0  0  0  0  0
   58.8283   32.5987   44.1967 H   0  0  0  0  0  0  0  0  0  0  0  0
   57.3243   33.1707   45.0149 H   0  0  0  0  0  0  0  0  0  0  0  0
   58.0639   34.2337   47.0064 H   0  0  0  0  0  0  0  0  0  0  0  0
   57.0639   32.7450   47.3896 H   0  0  0  0  0  0  0  0  0  0  0  0
   57.8600   33.1876   49.4666 H   0  0  0  0  0  0  0  0  0  0  0  0
   59.2166   32.1463   48.7925 H   0  0  0  0  0  0  0  0  0  0  0  0
   59.2240   35.1816   49.0086 H   0  0  0  0  0  0  0  0  0  0  0  0
   60.1161   34.0023   50.0652 H   0  0  0  0  0  0  0  0  0  0  0  0
   63.0981   33.9624   46.6963 H   0  0  0  0  0  0  0  0  0  0  0  0
   64.2090   34.5604   47.9884 H   0  0  0  0  0  0  0  0  0  0  0  0
   63.8367   32.4860   50.1090 H   0  0  0  0  0  0  0  0  0  0  0  0
   65.1023   31.4563   49.3576 H   0  0  0  0  0  0  0  0  0  0  0  0
   65.2817   33.2436   49.3576 H   0  0  0  0  0  0  0  0  0  0  0  0
   62.4486   31.3039   49.0398 H   0  0  0  0  0  0  0  0  0  0  0  0
   61.8693   31.9902   47.4842 H   0  0  0  0  0  0  0  0  0  0  0  0
   63.0230   30.6134   47.4842 H   0  0  0  0  0  0  0  0  0  0  0  0
   59.7857   34.8175   46.4141 H   0  0  0  0  0  0  0  0  0  0  0  0
   61.5536   34.4161   46.1663 H   0  0  0  0  0  0  0  0  0  0  0  0
   60.4978   32.6710   45.0724 H   0  0  0  0  0  0  0  0  0  0  0  0
   60.8099   32.0025   46.7441 H   0  0  0  0  0  0  0  0  0  0  0  0
  1  2  1  0
  2  3  1  0
  3  4  1  0
  4  5  2  0
  5  6  1  0
  6  7  2  0
  7  8  1  0
  8  9  1  0
  9 10  1  0
 10 11  1  0
 11 12  1  0
 12 13  1  0
 13 14  1  0
 14 15  2  0
 14 16  1  0
 16 17  1  0
 17 18  1  0
 17 19  1  0
 13 20  1  0
 20 21  1  0
  7  3  1  0
 21  9  1  0
  1 22  1  0
  1 23  1  0
  1 24  1  0
  2 25  1  0
  2 26  1  0
  4 27  1  0
  5 28  1  0
  8 29  1  0
  8 30  1  0
 10 31  1  0
 10 32  1  0
 11 33  1  0
 11 34  1  0
 12 35  1  0
 12 36  1  0
 16 37  1  0
 16 38  1  0
 18 39  1  0
 18 40  1  0
 18 41  1  0
 19 42  1  0
 19 43  1  0
 19 44  1  0
 20 45  1  0
 20 46  1  0
 21 47  1  0
 21 48  1  0
M  END
>  <UniqueID>  (19) 
19

>  <SMILES>  (19) 
CCn1ccnc1CN1CCCN(C(=O)CN(C)C)CC1

>  <Energy>  (19) 
82.62404709168594

>  <Genealogy>  (19) 
CCn1ccnc1CN1CCCN(C(=O)CN(C)C)CC1 (3D coordinates assigned)
CCn1ccnc1CN1CCCN(C(=O)CN(C)C)CC1 (nonaromatic ring conformer: 82.62404709168594 kcal/mol)

>  <smiles>  (19) 
CCn1ccnc1CN1CCCN(C(=O)CN(C)C)CC1

>  <score_type>  (19) 
oracle

>  <origin>  (19) 
adg

>  <m_score__min__energy>  (19) 
-4.5099999999999998

>  <m_primary>  (19) 
energy

$$$$
19:0
     RDKit          3D

 36 38  0  0  0  0  0  0  0  0999 V2000
   59.6271   32.5091   47.5982 H   0  0  0  0  0  0  0  0  0  0  0  0
   58.9950   32.6210   46.7050 C   0  0  0  0  0  0  0  0  0  0  0  0
   58.2150   31.5470   46.2620 C   0  0  0  0  0  0  0  0  0  0  0  0
   58.2497   30.5863   46.7967 H   0  0  0  0  0  0  0  0  0  0  0  0
   57.3870   31.6930   45.1350 C   0  0  0  0  0  0  0  0  0  0  0  0
   56.6250   30.5890   44.6250 N   0  0  0  0  0  0  0  0  0  0  0  0
   56.9940   29.3410   44.5480 C   0  0  0  0  0  0  0  0  0  0  0  0
   56.7850   28.5380   45.6230 N   0  0  0  0  0  0  0  0  0  0  0  0
   57.1500   27.2310   45.6160 C   0  0  0  0  0  0  0  0  0  0  0  0
   56.9090   26.4340   46.7380 C   0  0  0  0  0  0  0  0  0  0  0  0
   56.4259   26.8699   47.6249 H   0  0  0  0  0  0  0  0  0  0  0  0
   57.2810   25.0760   46.7400 C   0  0  0  0  0  0  0  0  0  0  0  0
   57.0540   24.2430   47.8480 O   0  0  0  0  0  0  0  0  0  0  0  0
   56.0870   23.1980   47.8880 C   0  0  0  0  0  0  0  0  0  0  0  0
   55.8579   22.9504   48.9350 H   0  0  0  0  0  0  0  0  0  0  0  0
   55.1690   23.5283   47.3800 H   0  0  0  0  0  0  0  0  0  0  0  0
   56.4874   22.3083   47.3800 H   0  0  0  0  0  0  0  0  0  0  0  0
   57.8970   24.5200   45.6070 C   0  0  0  0  0  0  0  0  0  0  0  0
   58.2540   23.1630   45.6430 O   0  0  0  0  0  0  0  0  0  0  0  0
   58.5840   22.3830   44.4980 C   0  0  0  0  0  0  0  0  0  0  0  0
   58.9938   21.4143   44.8200 H   0  0  0  0  0  0  0  0  0  0  0  0
   57.6794   22.2162   43.8948 H   0  0  0  0  0  0  0  0  0  0  0  0
   59.3337   22.9161   43.8948 H   0  0  0  0  0  0  0  0  0  0  0  0
   58.1400   25.3280   44.4770 C   0  0  0  0  0  0  0  0  0  0  0  0
   58.6235   24.8950   43.5889 H   0  0  0  0  0  0  0  0  0  0  0  0
   57.7680   26.6830   44.4790 C   0  0  0  0  0  0  0  0  0  0  0  0
   57.9980   27.5290   43.3810 C   0  0  0  0  0  0  0  0  0  0  0  0
   58.5640   27.0930   42.3420 O   0  0  0  0  0  0  0  0  0  0  0  0
   57.6150   28.8350   43.4380 N   0  0  0  0  0  0  0  0  0  0  0  0
   57.8450   29.4440   42.6220 H   0  0  0  0  0  0  0  0  0  0  0  0
   57.3970   32.9020   44.4260 C   0  0  0  0  0  0  0  0  0  0  0  0
   56.7891   33.0082   43.5154 H   0  0  0  0  0  0  0  0  0  0  0  0
   58.1770   33.9740   44.8720 C   0  0  0  0  0  0  0  0  0  0  0  0
   58.1650   34.9273   44.3234 H   0  0  0  0  0  0  0  0  0  0  0  0
   58.9720   33.8360   46.0140 C   0  0  0  0  0  0  0  0  0  0  0  0
   59.7290   34.8750   46.4430 F   0  0  0  0  0  0  0  0  0  0  0  0
  1  2  1  0
  2  3  2  0
  3  4  1  0
  3  5  1  0
  5  6  1  0
  6  7  2  0
  7  8  1  0
  8  9  1  0
  9 10  2  0
 10 11  1  0
 10 12  1  0
 12 13  1  0
 13 14  1  0
 14 15  1  0
 14 16  1  0
 14 17  1  0
 12 18  2  0
 18 19  1  0
 19 20  1  0
 20 21  1  0
 20 22  1  0
 20 23  1  0
 18 24  1  0
 24 25  1  0
 24 26  2  0
 26 27  1  0
 27 28  2  0
 27 29  1  0
 29 30  1  0
  5 31  2  0
 31 32  1  0
 31 33  1  0
 33 34  1  0
 33 35  2  0
 35 36  1  0
 35  2  1  0
 29  7  1  0
 26  9  1  0
M  CHG  1   8  -1
M  END
>  <UniqueID>  (20) 
20

>  <SMILES>  (20) 
COc1cc2[n-]/c(=N/c3ccc(F)cc3)[nH]c(=O)c2cc1OC

>  <Energy>  (20) 
51.28939337142845

>  <Genealogy>  (20) 
COc1cc2[n-]c(=Nc3ccc(F)cc3)[nH]c(=O)c2cc1OC (protonated)
COc1cc2[n-]/c(=N/c3ccc(F)cc3)[nH]c(=O)c2cc1OC (cis-trans isomerization)
COc1cc2[n-]/c(=N/c3ccc(F)cc3)[nH]c(=O)c2cc1OC (3D coordinates assigned)
COc1cc2[n-]/c(=N/c3ccc(F)cc3)[nH]c(=O)c2cc1OC (optimized conformer: 51.28939337142845 kcal/mol)

>  <smiles>  (20) 
COc1cc2[nH]c(=Nc3ccc(F)cc3)[nH]c(=O)c2cc1OC

>  <score_type>  (20) 
oracle

>  <origin>  (20) 
adg

>  <m_score__min__energy>  (20) 
-8.1500000000000004

>  <m_primary>  (20) 
energy

$$$$
20:0
     RDKit          3D

 39 40  0  0  0  0  0  0  0  0999 V2000
   57.5830   32.7470   44.7780 C   0  0  0  0  0  0  0  0  0  0  0  0
   57.8060   31.9350   45.9870 N   0  0  0  0  0  0  0  0  0  0  0  0
   57.7180   32.7930   47.1830 C   0  0  0  0  0  0  0  0  0  0  0  0
   59.1190   31.2530   45.9020 C   0  0  0  0  0  0  0  0  0  0  0  0
   59.3060   30.1940   47.0100 C   0  0  0  0  0  0  0  0  0  0  0  0
   60.2610   29.0610   46.5830 C   0  0  0  0  0  0  0  0  0  0  0  0
   60.0660   28.6170   45.1240 C   0  0  0  0  0  0  0  0  0  0  0  0
   58.6660   28.2540   44.8400 N   0  0  0  0  0  0  0  0  0  0  0  0
   57.8520   29.1890   44.0460 C   0  0  0  0  0  0  0  0  0  0  0  0
   56.4790   29.3340   44.6320 C   0  0  0  0  0  0  0  0  0  0  0  0
   55.8180   30.3890   44.4460 O   0  0  0  0  0  0  0  0  0  0  0  0
   55.8910   28.2430   45.3370 N   0  0  0  0  0  0  0  0  0  0  0  0
   56.6560   27.0740   45.6330 C   0  0  0  0  0  0  0  0  0  0  0  0
   56.0280   25.9630   46.2080 C   0  0  0  0  0  0  0  0  0  0  0  0
   56.7670   24.8180   46.5060 C   0  0  0  0  0  0  0  0  0  0  0  0
   58.1340   24.7760   46.2230 C   0  0  0  0  0  0  0  0  0  0  0  0
   58.7710   25.8840   45.6560 C   0  0  0  0  0  0  0  0  0  0  0  0
   58.0420   27.0580   45.3740 C   0  0  0  0  0  0  0  0  0  0  0  0
   57.3021   33.7697   45.0699 H   0  0  0  0  0  0  0  0  0  0  0  0
   58.5063   32.7766   44.1808 H   0  0  0  0  0  0  0  0  0  0  0  0
   56.7741   32.3009   44.1808 H   0  0  0  0  0  0  0  0  0  0  0  0
   57.0440   31.2170   46.0320 H   0  0  0  0  0  0  0  0  0  0  0  0
   57.7819   32.1696   48.0870 H   0  0  0  0  0  0  0  0  0  0  0  0
   58.5467   33.5164   47.1771 H   0  0  0  0  0  0  0  0  0  0  0  0
   56.7597   33.3331   47.1771 H   0  0  0  0  0  0  0  0  0  0  0  0
   59.1967   30.7573   44.9231 H   0  0  0  0  0  0  0  0  0  0  0  0
   59.9014   32.0152   46.0316 H   0  0  0  0  0  0  0  0  0  0  0  0
   59.7182   30.6860   47.9033 H   0  0  0  0  0  0  0  0  0  0  0  0
   58.3229   29.7453   47.2154 H   0  0  0  0  0  0  0  0  0  0  0  0
   61.2961   29.4125   46.7053 H   0  0  0  0  0  0  0  0  0  0  0  0
   60.0397   28.1918   47.2198 H   0  0  0  0  0  0  0  0  0  0  0  0
   60.3608   29.4423   44.4592 H   0  0  0  0  0  0  0  0  0  0  0  0
   60.6892   27.7268   44.9535 H   0  0  0  0  0  0  0  0  0  0  0  0
   58.3437   30.1729   44.0328 H   0  0  0  0  0  0  0  0  0  0  0  0
   57.7580   28.7927   43.0242 H   0  0  0  0  0  0  0  0  0  0  0  0
   54.9501   25.9929   46.4252 H   0  0  0  0  0  0  0  0  0  0  0  0
   56.2731   23.9483   46.9638 H   0  0  0  0  0  0  0  0  0  0  0  0
   58.7120   23.8673   46.4471 H   0  0  0  0  0  0  0  0  0  0  0  0
   59.8463   25.8398   45.4287 H   0  0  0  0  0  0  0  0  0  0  0  0
  1  2  1  0
  2  3  1  0
  2  4  1  0
  4  5  1  0
  5  6  1  0
  6  7  1  0
  7  8  1  0
  8  9  1  0
  9 10  1  0
 10 11  2  0
 10 12  1  0
 12 13  1  0
 13 14  2  0
 14 15  1  0
 15 16  2  0
 16 17  1  0
 17 18  2  0
 18  8  1  0
 18 13  1  0
  1 19  1  0
  1 20  1  0
  1 21  1  0
  2 22  1  0
  3 23  1  0
  3 24  1  0
  3 25  1  0
  4 26  1  0
  4 27  1  0
  5 28  1  0
  5 29  1  0
  6 30  1  0
  6 31  1  0
  7 32  1  0
  7 33  1  0
  9 34  1  0
  9 35  1  0
 14 36  1  0
 15 37  1  0
 16 38  1  0
 17 39  1  0
M  CHG  2   2   1  12  -1
M  END
>  <UniqueID>  (21) 
21

>  <SMILES>  (21) 
C[NH+](C)CCCCN1CC(=O)[N-]c2ccccc21

>  <Energy>  (21) 
37.73154248269427

>  <Genealogy>  (21) 
C[NH+](C)CCCCN1CC(=O)[N-]c2ccccc21 (protonated)
C[NH+](C)CCCCN1CC(=O)[N-]c2ccccc21 (3D coordinates assigned)
C[NH+](C)CCCCN1CC(=O)[N-]c2ccccc21 (nonaromatic ring conformer: 37.73154248269427 kcal/mol)

>  <smiles>  (21) 
CN(C)CCCCN1CC(=O)Nc2ccccc21

>  <score_type>  (21) 
oracle

>  <origin>  (21) 
adg

>  <m_score__min__energy>  (21) 
-6.0999999999999996

>  <m_primary>  (21) 
energy

$$$$
21:0
     RDKit          3D

 57 58  0  0  0  0  0  0  0  0999 V2000
   59.8970   32.8860   50.8350 C   0  0  0  0  0  0  0  0  0  0  0  0
   61.0830   31.9140   50.7570 C   0  0  0  0  0  0  0  0  0  0  0  0
   61.9570   32.1670   49.5820 N   0  0  0  0  0  0  0  0  0  0  0  0
   63.2850   32.7490   49.9330 C   0  0  0  0  0  0  0  0  0  0  0  0
   64.1880   33.1070   48.7370 C   0  0  0  0  0  0  0  0  0  0  0  0
   62.0190   31.0280   48.6190 C   0  0  0  0  0  0  0  0  0  0  0  0
   61.2720   31.2060   47.2810 C   0  0  0  0  0  0  0  0  0  0  0  0
   60.2960   32.2450   47.3200 O   0  0  0  0  0  0  0  0  0  0  0  0
   60.6130   33.6060   47.2220 C   0  0  0  0  0  0  0  0  0  0  0  0
   61.8210   33.9690   47.1710 O   0  0  0  0  0  0  0  0  0  0  0  0
   59.5150   34.6330   47.0250 C   0  0  0  0  0  0  0  0  0  0  0  0
   58.0930   34.0260   47.1900 C   0  0  0  0  0  0  0  0  0  0  0  0
   57.3350   33.8490   45.8620 C   0  0  0  0  0  0  0  0  0  0  0  0
   58.2670   33.5470   44.7690 N   0  0  0  0  0  0  0  0  0  0  0  0
   57.9910   32.4910   43.8280 C   0  0  0  0  0  0  0  0  0  0  0  0
   58.2230   32.6810   42.6020 O   0  0  0  0  0  0  0  0  0  0  0  0
   57.4640   31.1760   44.2640 C   0  0  0  0  0  0  0  0  0  0  0  0
   56.2160   30.7150   43.8100 C   0  0  0  0  0  0  0  0  0  0  0  0
   55.7130   29.4850   44.2430 C   0  0  0  0  0  0  0  0  0  0  0  0
   56.4480   28.6960   45.1470 C   0  0  0  0  0  0  0  0  0  0  0  0
   55.9850   27.4560   45.6120 O   0  0  0  0  0  0  0  0  0  0  0  0
   56.8250   26.3480   45.9190 C   0  0  0  0  0  0  0  0  0  0  0  0
   57.6840   29.1610   45.6070 C   0  0  0  0  0  0  0  0  0  0  0  0
   58.1880   30.3910   45.1760 C   0  0  0  0  0  0  0  0  0  0  0  0
   59.3500   34.4960   44.4790 C   0  0  0  0  0  0  0  0  0  0  0  0
   59.6520   35.3970   45.6880 C   0  0  0  0  0  0  0  0  0  0  0  0
   59.6545   33.0847   51.8894 H   0  0  0  0  0  0  0  0  0  0  0  0
   60.1627   33.8295   50.3357 H   0  0  0  0  0  0  0  0  0  0  0  0
   59.0241   32.4402   50.3357 H   0  0  0  0  0  0  0  0  0  0  0  0
   61.6846   32.0191   51.6719 H   0  0  0  0  0  0  0  0  0  0  0  0
   60.6733   30.8984   50.6532 H   0  0  0  0  0  0  0  0  0  0  0  0
   61.4900   32.9340   49.0410 H   0  0  0  0  0  0  0  0  0  0  0  0
   63.1103   33.6673   50.5128 H   0  0  0  0  0  0  0  0  0  0  0  0
   63.8196   31.9672   50.4924 H   0  0  0  0  0  0  0  0  0  0  0  0
   65.1513   33.4889   49.1062 H   0  0  0  0  0  0  0  0  0  0  0  0
   64.3597   32.2089   48.1255 H   0  0  0  0  0  0  0  0  0  0  0  0
   63.6977   33.8788   48.1255 H   0  0  0  0  0  0  0  0  0  0  0  0
   63.0787   30.8461   48.3867 H   0  0  0  0  0  0  0  0  0  0  0  0
   61.5081   30.1956   49.1250 H   0  0  0  0  0  0  0  0  0  0  0  0
   62.0072   31.4453   46.4986 H   0  0  0  0  0  0  0  0  0  0  0  0
   60.7417   30.2649   47.0733 H   0  0  0  0  0  0  0  0  0  0  0  0
   59.6456   35.3690   47.8320 H   0  0  0  0  0  0  0  0  0  0  0  0
   58.1901   33.0400   47.6679 H   0  0  0  0  0  0  0  0  0  0  0  0
   57.5113   34.7337   47.7990 H   0  0  0  0  0  0  0  0  0  0  0  0
   56.6172   33.0217   45.9634 H   0  0  0  0  0  0  0  0  0  0  0  0
   56.8074   34.7855   45.6283 H   0  0  0  0  0  0  0  0  0  0  0  0
   55.6306   31.3273   43.1083 H   0  0  0  0  0  0  0  0  0  0  0  0
   54.7381   29.1321   43.8754 H   0  0  0  0  0  0  0  0  0  0  0  0
   56.9062   26.2409   47.0108 H   0  0  0  0  0  0  0  0  0  0  0  0
   56.3931   25.4310   45.4917 H   0  0  0  0  0  0  0  0  0  0  0  0
   57.8246   26.5162   45.4917 H   0  0  0  0  0  0  0  0  0  0  0  0
   58.2654   28.5524   46.3153 H   0  0  0  0  0  0  0  0  0  0  0  0
   59.1581   30.7466   45.5535 H   0  0  0  0  0  0  0  0  0  0  0  0
   60.2580   33.9326   44.2180 H   0  0  0  0  0  0  0  0  0  0  0  0
   59.0315   35.1367   43.6435 H   0  0  0  0  0  0  0  0  0  0  0  0
   60.6802   35.7777   45.5997 H   0  0  0  0  0  0  0  0  0  0  0  0
   58.9229   36.2207   45.6898 H   0  0  0  0  0  0  0  0  0  0  0  0
  1  2  1  0
  2  3  1  0
  3  4  1  0
  4  5  1  0
  3  6  1  0
  6  7  1  0
  7  8  1  0
  8  9  1  0
  9 10  2  0
  9 11  1  0
 11 12  1  0
 12 13  1  0
 13 14  1  0
 14 15  1  0
 15 16  2  0
 15 17  1  0
 17 18  2  0
 18 19  1  0
 19 20  2  0
 20 21  1  0
 21 22  1  0
 20 23  1  0
 23 24  2  0
 14 25  1  0
 25 26  1  0
 26 11  1  0
 24 17  1  0
  1 27  1  0
  1 28  1  0
  1 29  1  0
  2 30  1  0
  2 31  1  0
  3 32  1  0
  4 33  1  0
  4 34  1  0
  5 35  1  0
  5 36  1  0
  5 37  1  0
  6 38  1  0
  6 39  1  0
  7 40  1  0
  7 41  1  0
 11 42  1  0
 12 43  1  0
 12 44  1  0
 13 45  1  0
 13 46  1  0
 18 47  1  0
 19 48  1  0
 22 49  1  0
 22 50  1  0
 22 51  1  0
 23 52  1  0
 24 53  1  0
 25 54  1  0
 25 55  1  0
 26 56  1  0
 26 57  1  0
M  CHG  1   3   1
M  END
>  <UniqueID>  (22) 
22

>  <SMILES>  (22) 
CC[NH+](CC)CCOC(=O)C1CCN(C(=O)c2ccc(OC)cc2)CC1

>  <Energy>  (22) 
69.49948085673371

>  <Genealogy>  (22) 
CC[NH+](CC)CCOC(=O)C1CCN(C(=O)c2ccc(OC)cc2)CC1 (protonated)
CC[NH+](CC)CCOC(=O)C1CCN(C(=O)c2ccc(OC)cc2)CC1 (3D coordinates assigned)
CC[NH+](CC)CCOC(=O)C1CCN(C(=O)c2ccc(OC)cc2)CC1 (nonaromatic ring conformer: 69.49948085673371 kcal/mol)

>  <smiles>  (22) 
CCN(CC)CCOC(=O)C1CCN(C(=O)c2ccc(OC)cc2)CC1

>  <score_type>  (22) 
oracle

>  <origin>  (22) 
adg

>  <m_score__min__energy>  (22) 
-5.8099999999999996

>  <m_primary>  (22) 
energy

$$$$
22:0
     RDKit          3D

 36 38  0  0  0  0  0  0  0  0999 V2000
   60.0360   34.1960   49.3780 C   0  0  0  0  0  0  0  0  0  0  0  0
   59.8920   34.9250   47.7180 S   0  0  0  0  0  0  0  0  0  0  0  0
   59.4670   33.3610   46.9470 C   0  0  0  0  0  0  0  0  0  0  0  0
   60.0310   32.1940   47.3190 N   0  0  0  0  0  0  0  0  0  0  0  0
   59.4500   31.2710   46.5250 C   0  0  0  0  0  0  0  0  0  0  0  0
   59.7600   29.8270   46.6180 C   0  0  0  0  0  0  0  0  0  0  0  0
   59.4890   29.1330   47.8090 C   0  0  0  0  0  0  0  0  0  0  0  0
   59.7670   27.7660   47.9110 C   0  0  0  0  0  0  0  0  0  0  0  0
   60.3060   27.0790   46.8210 C   0  0  0  0  0  0  0  0  0  0  0  0
   60.5600   27.7550   45.6240 C   0  0  0  0  0  0  0  0  0  0  0  0
   60.2820   29.1200   45.5190 C   0  0  0  0  0  0  0  0  0  0  0  0
   58.5390   31.8960   45.6820 C   0  0  0  0  0  0  0  0  0  0  0  0
   57.7510   31.2690   44.5990 C   0  0  0  0  0  0  0  0  0  0  0  0
   56.9890   30.1170   44.8500 C   0  0  0  0  0  0  0  0  0  0  0  0
   56.2530   29.5220   43.8220 C   0  0  0  0  0  0  0  0  0  0  0  0
   56.2730   30.0710   42.5360 C   0  0  0  0  0  0  0  0  0  0  0  0
   57.0310   31.2170   42.2790 C   0  0  0  0  0  0  0  0  0  0  0  0
   57.7670   31.8160   43.3050 C   0  0  0  0  0  0  0  0  0  0  0  0
   58.5680   33.2190   45.9500 N   0  0  0  0  0  0  0  0  0  0  0  0
   57.7760   34.2770   45.3180 C   0  0  0  0  0  0  0  0  0  0  0  0
   59.8816   34.9777   50.1364 H   0  0  0  0  0  0  0  0  0  0  0  0
   59.2756   33.4107   49.5008 H   0  0  0  0  0  0  0  0  0  0  0  0
   61.0379   33.7588   49.5008 H   0  0  0  0  0  0  0  0  0  0  0  0
   59.0554   29.6680   48.6668 H   0  0  0  0  0  0  0  0  0  0  0  0
   59.5610   27.2317   48.8502 H   0  0  0  0  0  0  0  0  0  0  0  0
   60.5308   26.0054   46.9044 H   0  0  0  0  0  0  0  0  0  0  0  0
   60.9791   27.2117   44.7642 H   0  0  0  0  0  0  0  0  0  0  0  0
   60.4723   29.6453   44.5715 H   0  0  0  0  0  0  0  0  0  0  0  0
   56.9712   29.6811   45.8598 H   0  0  0  0  0  0  0  0  0  0  0  0
   55.6568   28.6201   44.0247 H   0  0  0  0  0  0  0  0  0  0  0  0
   55.6930   29.6016   41.7277 H   0  0  0  0  0  0  0  0  0  0  0  0
   57.0482   31.6482   41.2672 H   0  0  0  0  0  0  0  0  0  0  0  0
   58.3608   32.7187   43.0987 H   0  0  0  0  0  0  0  0  0  0  0  0
   57.3096   34.9000   46.0954 H   0  0  0  0  0  0  0  0  0  0  0  0
   58.4308   34.9010   44.6920 H   0  0  0  0  0  0  0  0  0  0  0  0
   56.9928   33.8245   44.6920 H   0  0  0  0  0  0  0  0  0  0  0  0
  1  2  1  0
  2  3  1  0
  3  4  2  0
  4  5  1  0
  5  6  1  0
  6  7  2  0
  7  8  1  0
  8  9  2  0
  9 10  1  0
 10 11  2  0
  5 12  2  0
 12 13  1  0
 13 14  2  0
 14 15  1  0
 15 16  2  0
 16 17  1  0
 17 18  2  0
 12 19  1  0
 19 20  1  0
 19  3  1  0
 11  6  1  0
 18 13  1  0
  1 21  1  0
  1 22  1  0
  1 23  1  0
  7 24  1  0
  8 25  1  0
  9 26  1  0
 10 27  1  0
 11 28  1  0
 14 29  1  0
 15 30  1  0
 16 31  1  0
 17 32  1  0
 18 33  1  0
 20 34  1  0
 20 35  1  0
 20 36  1  0
M  END
>  <UniqueID>  (23) 
23

>  <SMILES>  (23) 
CSc1nc(-c2ccccc2)c(-c2ccccc2)n1C

>  <Energy>  (23) 
72.80004281575613

>  <Genealogy>  (23) 
CSc1nc(-c2ccccc2)c(-c2ccccc2)n1C (3D coordinates assigned)
CSc1nc(-c2ccccc2)c(-c2ccccc2)n1C (optimized conformer: 72.80004281575613 kcal/mol)

>  <smiles>  (23) 
CSc1nc(-c2ccccc2)c(-c2ccccc2)n1C

>  <score_type>  (23) 
oracle

>  <origin>  (23) 
adg

>  <m_score__min__energy>  (23) 
-6.79

>  <m_primary>  (23) 
energy

$$$$
23:0
     RDKit          3D

 47 51  0  0  0  0  0  0  0  0999 V2000
   59.2740   34.8560   55.8110 C   0  0  0  0  0  0  0  0  0  0  0  0
   58.5870   33.6550   55.4730 O   0  0  0  0  0  0  0  0  0  0  0  0
   58.7030   32.9990   54.2380 C   0  0  0  0  0  0  0  0  0  0  0  0
   58.3540   31.6460   54.0660 C   0  0  0  0  0  0  0  0  0  0  0  0
   58.4890   31.0350   52.8170 C   0  0  0  0  0  0  0  0  0  0  0  0
   58.9790   31.7600   51.7190 C   0  0  0  0  0  0  0  0  0  0  0  0
   59.1130   31.1250   50.4320 N   0  0  0  0  0  0  0  0  0  0  0  0
   59.3680   29.8340   50.2630 N   0  0  0  0  0  0  0  0  0  0  0  0
   59.4890   29.5790   48.9470 C   0  0  0  0  0  0  0  0  0  0  0  0
   59.7150   27.8340   48.2050 Br  0  0  0  0  0  0  0  0  0  0  0  0
   59.2940   30.7540   48.2510 C   0  0  0  0  0  0  0  0  0  0  0  0
   59.0920   31.7190   49.2160 C   0  0  0  0  0  0  0  0  0  0  0  0
   59.0800   33.0050   49.0530 N   0  0  0  0  0  0  0  0  0  0  0  0
   59.4330   33.7500   47.8470 C   0  0  1  0  0  0  0  0  0  0  0  0
   60.9470   33.8250   47.7080 C   0  0  0  0  0  0  0  0  0  0  0  0
   61.7280   33.7890   48.8790 C   0  0  0  0  0  0  0  0  0  0  0  0
   63.1240   33.7880   48.8070 C   0  0  0  0  0  0  0  0  0  0  0  0
   63.7600   33.8130   47.5650 C   0  0  0  0  0  0  0  0  0  0  0  0
   63.0030   33.8380   46.3930 C   0  0  0  0  0  0  0  0  0  0  0  0
   61.6060   33.8400   46.4600 C   0  0  0  0  0  0  0  0  0  0  0  0
   58.7050   33.2890   46.5950 C   0  0  0  0  0  0  0  0  0  0  0  0
   58.2140   34.2860   45.7250 C   0  0  0  0  0  0  0  0  0  0  0  0
   57.6220   33.9520   44.5070 C   0  0  0  0  0  0  0  0  0  0  0  0
   57.5290   32.6190   44.1220 C   0  0  0  0  0  0  0  0  0  0  0  0
   58.0220   31.6180   44.9570 C   0  0  0  0  0  0  0  0  0  0  0  0
   58.6020   31.9290   46.1960 C   0  0  0  0  0  0  0  0  0  0  0  0
   59.0770   30.8200   46.9740 N   0  0  0  0  0  0  0  0  0  0  0  0
   59.3210   33.1120   51.8910 C   0  0  0  0  0  0  0  0  0  0  0  0
   59.1820   33.7230   53.1410 C   0  0  0  0  0  0  0  0  0  0  0  0
   59.3287   34.9515   56.9055 H   0  0  0  0  0  0  0  0  0  0  0  0
   60.2916   34.8260   55.3943 H   0  0  0  0  0  0  0  0  0  0  0  0
   58.7323   35.7180   55.3943 H   0  0  0  0  0  0  0  0  0  0  0  0
   57.9729   31.0667   54.9199 H   0  0  0  0  0  0  0  0  0  0  0  0
   58.2094   29.9784   52.6929 H   0  0  0  0  0  0  0  0  0  0  0  0
   59.4290   29.1260   51.0310 H   0  0  0  0  0  0  0  0  0  0  0  0
   59.0639   34.7792   47.9676 H   0  0  0  0  0  0  0  0  0  0  0  0
   61.2341   33.7614   49.8615 H   0  0  0  0  0  0  0  0  0  0  0  0
   63.7218   33.7675   49.7301 H   0  0  0  0  0  0  0  0  0  0  0  0
   64.8586   33.8130   47.5099 H   0  0  0  0  0  0  0  0  0  0  0  0
   63.5058   33.8562   45.4148 H   0  0  0  0  0  0  0  0  0  0  0  0
   61.0157   33.8534   45.5319 H   0  0  0  0  0  0  0  0  0  0  0  0
   58.2996   35.3443   46.0123 H   0  0  0  0  0  0  0  0  0  0  0  0
   57.2288   34.7428   43.8512 H   0  0  0  0  0  0  0  0  0  0  0  0
   57.0668   32.3549   43.1594 H   0  0  0  0  0  0  0  0  0  0  0  0
   57.9553   30.5670   44.6394 H   0  0  0  0  0  0  0  0  0  0  0  0
   59.7002   33.6930   51.0374 H   0  0  0  0  0  0  0  0  0  0  0  0
   59.4517   34.7824   53.2629 H   0  0  0  0  0  0  0  0  0  0  0  0
  1  2  1  0
  2  3  1  0
  3  4  2  0
  4  5  1  0
  5  6  2  0
  6  7  1  0
  7  8  1  0
  8  9  2  0
  9 10  1  0
  9 11  1  0
 11 12  1  0
 12 13  2  0
 13 14  1  0
 14 15  1  0
 15 16  2  0
 16 17  1  0
 17 18  2  0
 18 19  1  0
 19 20  2  0
 14 21  1  0
 21 22  2  0
 22 23  1  0
 23 24  2  0
 24 25  1  0
 25 26  2  0
 26 27  1  0
  6 28  1  0
 28 29  2  0
 29  3  1  0
 12  7  1  0
 20 15  1  0
 26 21  1  0
 27 11  2  0
  1 30  1  0
  1 31  1  0
  1 32  1  0
  4 33  1  0
  5 34  1  0
  8 35  1  0
 14 36  1  1
 16 37  1  0
 17 38  1  0
 18 39  1  0
 19 40  1  0
 20 41  1  0
 22 42  1  0
 23 43  1  0
 24 44  1  0
 25 45  1  0
 28 46  1  0
 29 47  1  0
M  CHG  1   8   1
M  END
>  <UniqueID>  (24) 
24

>  <SMILES>  (24) 
COc1ccc(-n2[nH+]c(Br)c3c2=N[C@@H](c2ccccc2)c2ccccc2N=3)cc1

>  <Energy>  (24) 
111.99456501470323

>  <Genealogy>  (24) 
COc1ccc(-n2[nH+]c(Br)c3c2=NC(c2ccccc2)c2ccccc2N=3)cc1 (protonated)
COc1ccc(-n2[nH+]c(Br)c3c2=N[C@@H](c2ccccc2)c2ccccc2N=3)cc1 (chirality)
COc1ccc(-n2[nH+]c(Br)c3c2=N[C@@H](c2ccccc2)c2ccccc2N=3)cc1 (3D coordinates assigned)
COc1ccc(-n2[nH+]c(Br)c3c2=N[C@@H](c2ccccc2)c2ccccc2N=3)cc1 (nonaromatic ring conformer: 111.99456501470323 kcal/mol)

>  <smiles>  (24) 
COc1ccc(-n2nc(Br)c3c2=NC(c2ccccc2)c2ccccc2N=3)cc1

>  <score_type>  (24) 
oracle

>  <origin>  (24) 
adg

>  <m_score__min__energy>  (24) 
-7.0499999999999998

>  <m_primary>  (24) 
energy

$$$$
24:0
     RDKit          3D

 31 32  0  0  0  0  0  0  0  0999 V2000
   63.9840   32.8030   48.9090 C   0  0  0  0  0  0  0  0  0  0  0  0
   63.7060   32.5420   47.4850 N   0  0  0  0  0  0  0  0  0  0  0  0
   63.6240   33.8230   46.7570 C   0  0  0  0  0  0  0  0  0  0  0  0
   62.4550   31.7560   47.3540 C   0  0  0  0  0  0  0  0  0  0  0  0
   61.3590   32.2290   48.3240 C   0  0  0  0  0  0  0  0  0  0  0  0
   60.4500   33.2140   47.6500 C   0  0  0  0  0  0  0  0  0  0  0  0
   60.3510   34.5750   47.9240 C   0  0  0  0  0  0  0  0  0  0  0  0
   59.3740   35.1370   47.1770 N   0  0  0  0  0  0  0  0  0  0  0  0
   58.8470   34.1410   46.4440 C   0  0  0  0  0  0  0  0  0  0  0  0
   57.7940   34.2270   45.5340 C   0  0  0  0  0  0  0  0  0  0  0  0
   57.3840   33.0460   44.8880 C   0  0  0  0  0  0  0  0  0  0  0  0
   58.0270   31.8170   45.1660 C   0  0  0  0  0  0  0  0  0  0  0  0
   57.6190   30.6880   44.5390 F   0  0  0  0  0  0  0  0  0  0  0  0
   59.0870   31.7610   46.0910 C   0  0  0  0  0  0  0  0  0  0  0  0
   59.4740   32.9500   46.7100 C   0  0  0  0  0  0  0  0  0  0  0  0
   63.3228   32.1822   49.5314 H   0  0  0  0  0  0  0  0  0  0  0  0
   65.0331   32.5560   49.1291 H   0  0  0  0  0  0  0  0  0  0  0  0
   63.8036   33.8656   49.1291 H   0  0  0  0  0  0  0  0  0  0  0  0
   64.5080   31.9890   47.1010 H   0  0  0  0  0  0  0  0  0  0  0  0
   63.5709   34.6519   47.4782 H   0  0  0  0  0  0  0  0  0  0  0  0
   64.5163   33.9434   46.1251 H   0  0  0  0  0  0  0  0  0  0  0  0
   62.7237   33.8286   46.1251 H   0  0  0  0  0  0  0  0  0  0  0  0
   62.0818   31.8557   46.3241 H   0  0  0  0  0  0  0  0  0  0  0  0
   62.6900   30.7097   47.5990 H   0  0  0  0  0  0  0  0  0  0  0  0
   60.7701   31.3612   48.6557 H   0  0  0  0  0  0  0  0  0  0  0  0
   61.8346   32.7170   49.1875 H   0  0  0  0  0  0  0  0  0  0  0  0
   60.9790   35.1170   48.6464 H   0  0  0  0  0  0  0  0  0  0  0  0
   59.0810   36.1390   47.1830 H   0  0  0  0  0  0  0  0  0  0  0  0
   57.2995   35.1876   45.3276 H   0  0  0  0  0  0  0  0  0  0  0  0
   56.5581   33.0787   44.1621 H   0  0  0  0  0  0  0  0  0  0  0  0
   59.5933   30.8112   46.3181 H   0  0  0  0  0  0  0  0  0  0  0  0
  1  2  1  0
  2  3  1  0
  2  4  1  0
  4  5  1  0
  5  6  1  0
  6  7  2  0
  7  8  1  0
  8  9  1  0
  9 10  2  0
 10 11  1  0
 11 12  2  0
 12 13  1  0
 12 14  1  0
 14 15  2  0
 15  6  1  0
 15  9  1  0
  1 16  1  0
  1 17  1  0
  1 18  1  0
  2 19  1  0
  3 20  1  0
  3 21  1  0
  3 22  1  0
  4 23  1  0
  4 24  1  0
  5 25  1  0
  5 26  1  0
  7 27  1  0
  8 28  1  0
 10 29  1  0
 11 30  1  0
 14 31  1  0
M  CHG  1   2   1
M  END
>  <UniqueID>  (25) 
25

>  <SMILES>  (25) 
C[NH+](C)CCc1c[nH]c2ccc(F)cc12

>  <Energy>  (25) 
61.97591750804487

>  <Genealogy>  (25) 
C[NH+](C)CCc1c[nH]c2ccc(F)cc12 (protonated)
C[NH+](C)CCc1c[nH]c2ccc(F)cc12 (3D coordinates assigned)
C[NH+](C)CCc1c[nH]c2ccc(F)cc12 (optimized conformer: 61.97591750804487 kcal/mol)

>  <smiles>  (25) 
CN(C)CCc1c[nH]c2ccc(F)cc12

>  <score_type>  (25) 
oracle

>  <origin>  (25) 
adg

>  <m_score__min__energy>  (25) 
-4.29

>  <m_primary>  (25) 
energy

$$$$
25:0
     RDKit          3D

 36 38  0  0  0  0  0  0  0  0999 V2000
   57.2560   26.3200   46.7530 O   0  0  0  0  0  0  0  0  0  0  0  0
   56.5140   27.0460   46.0400 C   0  0  0  0  0  0  0  0  0  0  0  0
   55.1750   26.6990   45.9050 O   0  0  0  0  0  0  0  0  0  0  0  0
   57.0370   28.2790   45.3910 C   0  0  0  0  0  0  0  0  0  0  0  0
   56.1900   28.9840   44.5160 C   0  0  0  0  0  0  0  0  0  0  0  0
   56.6020   30.1830   43.9320 C   0  0  0  0  0  0  0  0  0  0  0  0
   57.8640   30.7030   44.2170 C   0  0  0  0  0  0  0  0  0  0  0  0
   58.7260   30.0160   45.0700 C   0  0  0  0  0  0  0  0  0  0  0  0
   58.3370   28.7970   45.6460 C   0  0  0  0  0  0  0  0  0  0  0  0
   59.3340   28.0760   46.4600 C   0  0  0  0  0  0  0  0  0  0  0  0
   59.9350   26.9760   46.0840 O   0  0  0  0  0  0  0  0  0  0  0  0
   60.7710   26.6460   47.0450 C   0  0  0  0  0  0  0  0  0  0  0  0
   60.7370   27.5110   48.0830 N   0  0  0  0  0  0  0  0  0  0  0  0
   59.8120   28.4150   47.7110 C   0  0  0  0  0  0  0  0  0  0  0  0
   59.3830   29.5390   48.5550 C   0  0  0  0  0  0  0  0  0  0  0  0
   58.4910   29.3570   49.4270 O   0  0  0  0  0  0  0  0  0  0  0  0
   59.9450   30.8400   48.3590 N   0  0  0  0  0  0  0  0  0  0  0  0
   59.2980   32.0790   48.7700 C   0  0  0  0  0  0  0  0  0  0  0  0
   59.0160   32.9300   47.5650 C   0  0  0  0  0  0  0  0  0  0  0  0
   60.0100   33.7710   47.0370 C   0  0  0  0  0  0  0  0  0  0  0  0
   59.7510   34.5350   45.8950 C   0  0  0  0  0  0  0  0  0  0  0  0
   58.5030   34.4600   45.2690 C   0  0  0  0  0  0  0  0  0  0  0  0
   57.5140   33.6160   45.7820 C   0  0  0  0  0  0  0  0  0  0  0  0
   57.7700   32.8470   46.9210 C   0  0  0  0  0  0  0  0  0  0  0  0
   55.1903   28.5851   44.2893 H   0  0  0  0  0  0  0  0  0  0  0  0
   55.9298   30.7187   43.2456 H   0  0  0  0  0  0  0  0  0  0  0  0
   58.1796   31.6564   43.7682 H   0  0  0  0  0  0  0  0  0  0  0  0
   59.7192   30.4327   45.2935 H   0  0  0  0  0  0  0  0  0  0  0  0
   61.4258   25.7629   47.0077 H   0  0  0  0  0  0  0  0  0  0  0  0
   58.3525   31.8451   49.2812 H   0  0  0  0  0  0  0  0  0  0  0  0
   59.9634   32.6267   49.4536 H   0  0  0  0  0  0  0  0  0  0  0  0
   60.9949   33.8285   47.5235 H   0  0  0  0  0  0  0  0  0  0  0  0
   60.5304   35.1962   45.4883 H   0  0  0  0  0  0  0  0  0  0  0  0
   58.2996   35.0650   44.3731 H   0  0  0  0  0  0  0  0  0  0  0  0
   56.5326   33.5568   45.2887 H   0  0  0  0  0  0  0  0  0  0  0  0
   56.9933   32.1747   47.3144 H   0  0  0  0  0  0  0  0  0  0  0  0
  1  2  2  0
  2  3  1  0
  2  4  1  0
  4  5  2  0
  5  6  1  0
  6  7  2  0
  7  8  1  0
  8  9  2  0
  9 10  1  0
 10 11  1  0
 11 12  1  0
 12 13  2  0
 13 14  1  0
 14 15  1  0
 15 16  2  0
 15 17  1  0
 17 18  1  0
 18 19  1  0
 19 20  2  0
 20 21  1  0
 21 22  2  0
 22 23  1  0
 23 24  2  0
  9  4  1  0
 14 10  2  0
 24 19  1  0
  5 25  1  0
  6 26  1  0
  7 27  1  0
  8 28  1  0
 12 29  1  0
 18 30  1  0
 18 31  1  0
 20 32  1  0
 21 33  1  0
 22 34  1  0
 23 35  1  0
 24 36  1  0
M  CHG  2   3  -1  17  -1
M  END
>  <UniqueID>  (26) 
26

>  <SMILES>  (26) 
O=C([O-])c1ccccc1-c1ocnc1C(=O)[N-]Cc1ccccc1

>  <Energy>  (26) 
74.63109191582363

>  <Genealogy>  (26) 
O=C([O-])c1ccccc1-c1ocnc1C(=O)[N-]Cc1ccccc1 (protonated)
O=C([O-])c1ccccc1-c1ocnc1C(=O)[N-]Cc1ccccc1 (3D coordinates assigned)
O=C([O-])c1ccccc1-c1ocnc1C(=O)[N-]Cc1ccccc1 (optimized conformer: 74.63109191582363 kcal/mol)

>  <smiles>  (26) 
O=C(O)c1ccccc1-c1ocnc1C(=O)NCc1ccccc1

>  <score_type>  (26) 
oracle

>  <origin>  (26) 
adg

>  <m_score__min__energy>  (26) 
-11.24

>  <m_primary>  (26) 
energy

$$$$
26:0
     RDKit          3D

 51 53  0  0  0  0  0  0  0  0999 V2000
   61.7890   33.8770   47.2670 C   0  0  0  0  0  0  0  0  0  0  0  0
   60.9280   33.9010   46.0040 C   0  0  0  0  0  0  0  0  0  0  0  0
   59.5070   34.1320   46.3450 N   0  0  0  0  0  0  0  0  0  0  0  0
   58.6610   34.2520   45.1330 C   0  0  0  0  0  0  0  0  0  0  0  0
   58.3880   32.8830   44.4870 C   0  0  0  0  0  0  0  0  0  0  0  0
   58.0050   31.8970   45.5020 N   0  0  0  0  0  0  0  0  0  0  0  0
   57.5280   30.6080   45.0900 C   0  0  0  0  0  0  0  0  0  0  0  0
   56.3000   30.4670   44.8420 O   0  0  0  0  0  0  0  0  0  0  0  0
   58.4580   29.4190   44.9100 C   0  0  0  0  0  0  0  0  0  0  0  0
   58.0190   28.2290   45.7800 C   0  0  0  0  0  0  0  0  0  0  0  0
   58.1460   28.5620   47.2720 C   0  0  0  0  0  0  0  0  0  0  0  0
   59.3780   29.3120   47.5710 N   0  0  0  0  0  0  0  0  0  0  0  0
   59.5420   29.8610   48.9000 C   0  0  0  0  0  0  0  0  0  0  0  0
   58.5280   30.0750   49.6150 O   0  0  0  0  0  0  0  0  0  0  0  0
   60.8700   30.2040   49.4510 C   0  0  0  0  0  0  0  0  0  0  0  0
   61.6370   31.2380   48.8900 C   0  0  0  0  0  0  0  0  0  0  0  0
   62.8910   31.5560   49.4240 C   0  0  0  0  0  0  0  0  0  0  0  0
   63.3900   30.8390   50.5160 C   0  0  0  0  0  0  0  0  0  0  0  0
   65.0990   31.2760   51.2470 Br  0  0  0  0  0  0  0  0  0  0  0  0
   62.6390   29.7950   51.0670 C   0  0  0  0  0  0  0  0  0  0  0  0
   61.3880   29.4730   50.5330 C   0  0  0  0  0  0  0  0  0  0  0  0
   60.4620   29.3840   46.5750 C   0  0  0  0  0  0  0  0  0  0  0  0
   59.9550   29.7270   45.1580 C   0  0  0  0  0  0  0  0  0  0  0  0
   57.7790   32.3460   46.8740 C   0  0  0  0  0  0  0  0  0  0  0  0
   58.9940   33.1560   47.3510 C   0  0  0  0  0  0  0  0  0  0  0  0
   61.1390   33.8951   48.1542 H   0  0  0  0  0  0  0  0  0  0  0  0
   62.3987   32.9615   47.2778 H   0  0  0  0  0  0  0  0  0  0  0  0
   62.4488   34.7571   47.2778 H   0  0  0  0  0  0  0  0  0  0  0  0
   61.2771   34.7089   45.3441 H   0  0  0  0  0  0  0  0  0  0  0  0
   61.0168   32.9291   45.4966 H   0  0  0  0  0  0  0  0  0  0  0  0
   57.7013   34.7109   45.4130 H   0  0  0  0  0  0  0  0  0  0  0  0
   59.1988   34.8732   44.4017 H   0  0  0  0  0  0  0  0  0  0  0  0
   57.5717   32.9849   43.7567 H   0  0  0  0  0  0  0  0  0  0  0  0
   59.3060   32.5384   43.9885 H   0  0  0  0  0  0  0  0  0  0  0  0
   58.3701   29.1574   43.8452 H   0  0  0  0  0  0  0  0  0  0  0  0
   56.9704   27.9856   45.5538 H   0  0  0  0  0  0  0  0  0  0  0  0
   58.6708   27.3718   45.5557 H   0  0  0  0  0  0  0  0  0  0  0  0
   57.2796   29.1684   47.5748 H   0  0  0  0  0  0  0  0  0  0  0  0
   58.1842   27.6136   47.8280 H   0  0  0  0  0  0  0  0  0  0  0  0
   61.2506   31.8004   48.0272 H   0  0  0  0  0  0  0  0  0  0  0  0
   63.4848   32.3709   48.9842 H   0  0  0  0  0  0  0  0  0  0  0  0
   63.0338   29.2266   51.9220 H   0  0  0  0  0  0  0  0  0  0  0  0
   60.8066   28.6435   50.9619 H   0  0  0  0  0  0  0  0  0  0  0  0
   61.1763   30.1593   46.8893 H   0  0  0  0  0  0  0  0  0  0  0  0
   60.9312   28.3903   46.5258 H   0  0  0  0  0  0  0  0  0  0  0  0
   60.1156   30.8019   44.9883 H   0  0  0  0  0  0  0  0  0  0  0  0
   60.5209   29.0879   44.4643 H   0  0  0  0  0  0  0  0  0  0  0  0
   56.8793   32.9778   46.9101 H   0  0  0  0  0  0  0  0  0  0  0  0
   57.6387   31.4731   47.5285 H   0  0  0  0  0  0  0  0  0  0  0  0
   58.7057   33.7113   48.2557 H   0  0  0  0  0  0  0  0  0  0  0  0
   59.8039   32.4350   47.5360 H   0  0  0  0  0  0  0  0  0  0  0  0
  1  2  1  0
  2  3  1  0
  3  4  1  0
  4  5  1  0
  5  6  1  0
  6  7  1  0
  7  8  2  0
  7  9  1  0
  9 10  1  0
 10 11  1  0
 11 12  1  0
 12 13  1  0
 13 14  2  0
 13 15  1  0
 15 16  2  0
 16 17  1  0
 17 18  2  0
 18 19  1  0
 18 20  1  0
 20 21  2  0
 12 22  1  0
 22 23  1  0
  6 24  1  0
 24 25  1  0
 25  3  1  0
 23  9  1  0
 21 15  1  0
  1 26  1  0
  1 27  1  0
  1 28  1  0
  2 29  1  0
  2 30  1  0
  4 31  1  0
  4 32  1  0
  5 33  1  0
  5 34  1  0
  9 35  1  0
 10 36  1  0
 10 37  1  0
 11 38  1  0
 11 39  1  0
 16 40  1  0
 17 41  1  0
 20 42  1  0
 21 43  1  0
 22 44  1  0
 22 45  1  0
 23 46  1  0
 23 47  1  0
 24 48  1  0
 24 49  1  0
 25 50  1  0
 25 51  1  0
M  END
>  <UniqueID>  (27) 
27

>  <SMILES>  (27) 
CCN1CCN(C(=O)C2CCN(C(=O)c3ccc(Br)cc3)CC2)CC1

>  <Energy>  (27) 
69.5243289151684

>  <Genealogy>  (27) 
CCN1CCN(C(=O)C2CCN(C(=O)c3ccc(Br)cc3)CC2)CC1 (3D coordinates assigned)
CCN1CCN(C(=O)C2CCN(C(=O)c3ccc(Br)cc3)CC2)CC1 (nonaromatic ring conformer: 69.5243289151684 kcal/mol)

>  <smiles>  (27) 
CCN1CCN(C(=O)C2CCN(C(=O)c3ccc(Br)cc3)CC2)CC1

>  <score_type>  (27) 
oracle

>  <origin>  (27) 
adg

>  <m_score__min__energy>  (27) 
-7.5899999999999999

>  <m_primary>  (27) 
energy

$$$$
27:0
     RDKit          3D

 48 51  0  0  1  0  0  0  0  0999 V2000
   63.4610   33.5390   47.6150 C   0  0  0  0  0  0  0  0  0  0  0  0
   62.2030   33.4830   48.3770 C   0  0  0  0  0  0  0  0  0  0  0  0
   62.1560   33.2460   49.6270 O   0  0  0  0  0  0  0  0  0  0  0  0
   60.9880   33.7030   47.6760 N   0  0  0  0  0  0  0  0  0  0  0  0
   60.9300   33.9820   46.2480 C   0  0  0  0  0  0  0  0  0  0  0  0
   59.9690   35.1460   46.1470 C   0  0  0  0  0  0  0  0  0  0  0  0
   58.5710   34.5900   46.2780 C   0  0  0  0  0  0  0  0  0  0  0  0
   58.1520   34.0940   44.9160 C   0  0  0  0  0  0  0  0  0  0  0  0
   58.6680   32.7870   44.6070 N   0  0  0  0  0  0  0  0  0  0  0  0
   57.9690   31.7290   44.7040 C   0  0  0  0  0  0  0  0  0  0  0  0
   56.7150   31.6340   44.1470 C   0  0  0  0  0  0  0  0  0  0  0  0
   56.0250   30.4500   44.2980 C   0  0  0  0  0  0  0  0  0  0  0  0
   56.5740   29.4060   44.9800 N   0  0  0  0  0  0  0  0  0  0  0  0
   56.0950   28.1850   45.2480 N   0  0  0  0  0  0  0  0  0  0  0  0
   57.0220   27.5170   45.9580 C   0  0  0  0  0  0  0  0  0  0  0  0
   56.8510   26.1500   46.4290 C   0  0  0  0  0  0  0  0  0  0  0  0
   57.8630   25.3310   46.8850 C   0  0  0  0  0  0  0  0  0  0  0  0
   57.3380   24.1460   47.2330 N   0  0  0  0  0  0  0  0  0  0  0  0
   56.0110   24.2500   46.9870 C   0  0  0  0  0  0  0  0  0  0  0  0
   54.9600   23.2050   47.2010 C   0  0  0  0  0  0  0  0  0  0  0  0
   55.7390   25.4520   46.5070 O   0  0  0  0  0  0  0  0  0  0  0  0
   58.1240   28.3240   46.1540 C   0  0  0  0  0  0  0  0  0  0  0  0
   57.8170   29.5140   45.5280 C   0  0  0  0  0  0  0  0  0  0  0  0
   58.4690   30.6810   45.3650 N   0  0  0  0  0  0  0  0  0  0  0  0
   58.5810   33.4950   47.3050 C   0  0  0  0  0  0  0  0  0  0  0  0
   59.6810   33.6650   48.3550 C   0  0  0  0  0  0  0  0  0  0  0  0
   64.3108   33.5768   48.3125 H   0  0  0  0  0  0  0  0  0  0  0  0
   63.5461   32.6438   46.9815 H   0  0  0  0  0  0  0  0  0  0  0  0
   63.4663   34.4383   46.9815 H   0  0  0  0  0  0  0  0  0  0  0  0
   61.9223   34.2583   45.8620 H   0  0  0  0  0  0  0  0  0  0  0  0
   60.6081   33.1118   45.6571 H   0  0  0  0  0  0  0  0  0  0  0  0
   60.1645   35.8662   46.9552 H   0  0  0  0  0  0  0  0  0  0  0  0
   60.0909   35.6682   45.1865 H   0  0  0  0  0  0  0  0  0  0  0  0
   57.8501   35.3498   46.6142 H   0  0  0  0  0  0  0  0  0  0  0  0
   57.0533   34.0537   44.8811 H   0  0  0  0  0  0  0  0  0  0  0  0
   58.5629   34.7926   44.1723 H   0  0  0  0  0  0  0  0  0  0  0  0
   56.2751   32.4788   43.5967 H   0  0  0  0  0  0  0  0  0  0  0  0
   55.0199   30.3470   43.8630 H   0  0  0  0  0  0  0  0  0  0  0  0
   55.1430   27.8590   44.9280 H   0  0  0  0  0  0  0  0  0  0  0  0
   58.9263   25.6045   46.9524 H   0  0  0  0  0  0  0  0  0  0  0  0
   54.8078   23.0536   48.2798 H   0  0  0  0  0  0  0  0  0  0  0  0
   54.0168   23.5338   46.7402 H   0  0  0  0  0  0  0  0  0  0  0  0
   55.2834   22.2600   46.7402 H   0  0  0  0  0  0  0  0  0  0  0  0
   59.0489   28.0722   46.6937 H   0  0  0  0  0  0  0  0  0  0  0  0
   57.6073   33.4864   47.8167 H   0  0  0  0  0  0  0  0  0  0  0  0
   58.7771   32.5511   46.7753 H   0  0  0  0  0  0  0  0  0  0  0  0
   59.5237   34.6041   48.9057 H   0  0  0  0  0  0  0  0  0  0  0  0
   59.6534   32.8235   49.0629 H   0  0  0  0  0  0  0  0  0  0  0  0
  1  2  1  0
  2  3  2  0
  2  4  1  0
  4  5  1  0
  5  6  1  0
  6  7  1  0
  7  8  1  0
  8  9  1  0
  9 10  2  0
 10 11  1  0
 11 12  2  0
 12 13  1  0
 13 14  1  0
 14 15  1  0
 15 16  1  0
 16 17  2  0
 17 18  1  0
 18 19  2  0
 19 20  1  0
 19 21  1  0
 15 22  2  0
 22 23  1  0
 23 24  2  0
  7 25  1  0
 25 26  1  0
 26  4  1  0
 24 10  1  0
 23 13  1  0
 21 16  1  0
  1 27  1  0
  1 28  1  0
  1 29  1  0
  5 30  1  0
  5 31  1  0
  6 32  1  0
  6 33  1  0
  7 34  1  0
  8 35  1  0
  8 36  1  0
 11 37  1  0
 12 38  1  0
 14 39  1  0
 17 40  1  0
 20 41  1  0
 20 42  1  0
 20 43  1  0
 22 44  1  0
 25 45  1  0
 25 46  1  0
 26 47  1  0
 26 48  1  0
M  END
>  <smiles>  (28) 
CC(=O)N1CCC(CN=c2ccn3[nH]c(-c4cnc(C)o4)cc3n2)CC1

>  <score_type>  (28) 
oracle

>  <origin>  (28) 
adg

>  <m_score__min__energy>  (28) 
-8.9600000000000009

>  <m_primary>  (28) 
energy

$$$$
28:0
     RDKit          3D

 47 48  0  0  0  0  0  0  0  0999 V2000
   55.9080   29.7180   43.1500 C   0  0  0  0  0  0  0  0  0  0  0  0
   56.0890   29.2960   44.4990 O   0  0  0  0  0  0  0  0  0  0  0  0
   57.2460   29.5390   45.2550 C   0  0  0  0  0  0  0  0  0  0  0  0
   57.7090   28.6440   46.2380 C   0  0  0  0  0  0  0  0  0  0  0  0
   58.8700   28.9310   46.9660 C   0  0  0  0  0  0  0  0  0  0  0  0
   59.5870   30.1160   46.7180 C   0  0  0  0  0  0  0  0  0  0  0  0
   60.7600   30.4490   47.4100 O   0  0  0  0  0  0  0  0  0  0  0  0
   60.8220   30.7490   48.8030 C   0  0  0  0  0  0  0  0  0  0  0  0
   59.4280   31.1290   49.2940 C   0  0  0  0  0  0  0  0  0  0  0  0
   59.2840   32.6470   49.4720 C   0  0  0  0  0  0  0  0  0  0  0  0
   59.2120   33.3290   48.1240 C   0  0  0  0  0  0  0  0  0  0  0  0
   57.9550   33.4380   47.4960 C   0  0  0  0  0  0  0  0  0  0  0  0
   57.8370   34.0290   46.2400 C   0  0  0  0  0  0  0  0  0  0  0  0
   58.9720   34.5140   45.5880 C   0  0  0  0  0  0  0  0  0  0  0  0
   60.2280   34.4110   46.1900 C   0  0  0  0  0  0  0  0  0  0  0  0
   60.3670   33.8240   47.4590 C   0  0  0  0  0  0  0  0  0  0  0  0
   61.7220   33.7620   48.0630 C   0  0  0  0  0  0  0  0  0  0  0  0
   62.0290   34.5760   48.9820 O   0  0  0  0  0  0  0  0  0  0  0  0
   62.7210   32.8580   47.5360 N   0  0  0  0  0  0  0  0  0  0  0  0
   63.3910   33.4720   46.3780 C   0  0  0  0  0  0  0  0  0  0  0  0
   63.6980   32.4850   48.5700 C   0  0  0  0  0  0  0  0  0  0  0  0
   59.1230   31.0050   45.7420 C   0  0  0  0  0  0  0  0  0  0  0  0
   57.9610   30.7190   45.0170 C   0  0  0  0  0  0  0  0  0  0  0  0
   55.4744   30.7289   43.1371 H   0  0  0  0  0  0  0  0  0  0  0  0
   56.8804   29.7295   42.6358 H   0  0  0  0  0  0  0  0  0  0  0  0
   55.2295   29.0214   42.6358 H   0  0  0  0  0  0  0  0  0  0  0  0
   57.1556   27.7140   46.4352 H   0  0  0  0  0  0  0  0  0  0  0  0
   59.2229   28.2276   47.7346 H   0  0  0  0  0  0  0  0  0  0  0  0
   61.1790   29.8666   49.3544 H   0  0  0  0  0  0  0  0  0  0  0  0
   61.5154   31.5861   48.9715 H   0  0  0  0  0  0  0  0  0  0  0  0
   58.6850   30.7839   48.5600 H   0  0  0  0  0  0  0  0  0  0  0  0
   59.2665   30.6518   50.2719 H   0  0  0  0  0  0  0  0  0  0  0  0
   58.3643   32.8606   50.0363 H   0  0  0  0  0  0  0  0  0  0  0  0
   60.1589   33.0277   50.0194 H   0  0  0  0  0  0  0  0  0  0  0  0
   57.0580   33.0525   48.0027 H   0  0  0  0  0  0  0  0  0  0  0  0
   56.8498   34.1134   45.7622 H   0  0  0  0  0  0  0  0  0  0  0  0
   58.8767   34.9793   44.5958 H   0  0  0  0  0  0  0  0  0  0  0  0
   61.1165   34.7929   45.6659 H   0  0  0  0  0  0  0  0  0  0  0  0
   62.2640   31.9750   47.2120 H   0  0  0  0  0  0  0  0  0  0  0  0
   64.1594   34.1761   46.7298 H   0  0  0  0  0  0  0  0  0  0  0  0
   63.8640   32.6872   45.7694 H   0  0  0  0  0  0  0  0  0  0  0  0
   62.6503   34.0115   45.7694 H   0  0  0  0  0  0  0  0  0  0  0  0
   63.2604   32.6521   49.5653 H   0  0  0  0  0  0  0  0  0  0  0  0
   63.9619   31.4229   48.4591 H   0  0  0  0  0  0  0  0  0  0  0  0
   64.6025   33.1010   48.4591 H   0  0  0  0  0  0  0  0  0  0  0  0
   59.6756   31.9351   45.5434 H   0  0  0  0  0  0  0  0  0  0  0  0
   57.6062   31.4271   44.2537 H   0  0  0  0  0  0  0  0  0  0  0  0
  1  2  1  0
  2  3  1  0
  3  4  2  0
  4  5  1  0
  5  6  2  0
  6  7  1  0
  7  8  1  0
  8  9  1  0
  9 10  1  0
 10 11  1  0
 11 12  2  0
 12 13  1  0
 13 14  2  0
 14 15  1  0
 15 16  2  0
 16 17  1  0
 17 18  2  0
 17 19  1  0
 19 20  1  0
 19 21  1  0
  6 22  1  0
 22 23  2  0
 23  3  1  0
 16 11  1  0
  1 24  1  0
  1 25  1  0
  1 26  1  0
  4 27  1  0
  5 28  1  0
  8 29  1  0
  8 30  1  0
  9 31  1  0
  9 32  1  0
 10 33  1  0
 10 34  1  0
 12 35  1  0
 13 36  1  0
 14 37  1  0
 15 38  1  0
 19 39  1  0
 20 40  1  0
 20 41  1  0
 20 42  1  0
 21 43  1  0
 21 44  1  0
 21 45  1  0
 22 46  1  0
 23 47  1  0
M  CHG  1  19   1
M  END
>  <UniqueID>  (29) 
28

>  <SMILES>  (29) 
COc1ccc(OCCCc2ccccc2C(=O)[NH+](C)C)cc1

>  <Energy>  (29) 
49.244141612069576

>  <Genealogy>  (29) 
COc1ccc(OCCCc2ccccc2C(=O)[NH+](C)C)cc1 (protonated)
COc1ccc(OCCCc2ccccc2C(=O)[NH+](C)C)cc1 (3D coordinates assigned)
COc1ccc(OCCCc2ccccc2C(=O)[NH+](C)C)cc1 (optimized conformer: 49.244141612069576 kcal/mol)

>  <smiles>  (29) 
COc1ccc(OCCCc2ccccc2C(=O)N(C)C)cc1

>  <score_type>  (29) 
oracle

>  <origin>  (29) 
adg

>  <m_score__min__energy>  (29) 
-6.54

>  <m_primary>  (29) 
energy

$$$$
29:0
     RDKit          3D

 41 43  0  0  0  0  0  0  0  0999 V2000
   63.3290   33.4770   46.7090 C   0  0  0  0  0  0  0  0  0  0  0  0
   63.1650   33.0980   47.9850 C   0  0  0  0  0  0  0  0  0  0  0  0
   64.3500   33.1060   48.9120 C   0  0  0  0  0  0  0  0  0  0  0  0
   61.8160   32.6320   48.4860 C   0  0  0  0  0  0  0  0  0  0  0  0
   60.7450   33.0640   47.5790 N   0  0  0  0  0  0  0  0  0  0  0  0
   60.3940   34.4900   47.4540 C   0  0  0  0  0  0  0  0  0  0  0  0
   58.8920   34.6730   47.1590 C   0  0  0  0  0  0  0  0  0  0  0  0
   58.4690   33.8810   45.9080 C   0  0  0  0  0  0  0  0  0  0  0  0
   58.9870   32.5180   45.9900 N   0  0  0  0  0  0  0  0  0  0  0  0
   60.0460   32.1330   46.7340 C   0  0  0  0  0  0  0  0  0  0  0  0
   60.3330   30.8140   46.6080 N   0  0  0  0  0  0  0  0  0  0  0  0
   59.4190   30.3760   45.7200 C   0  0  0  0  0  0  0  0  0  0  0  0
   59.2640   29.0910   45.2150 C   0  0  0  0  0  0  0  0  0  0  0  0
   58.2310   28.8640   44.2740 C   0  0  0  0  0  0  0  0  0  0  0  0
   58.0410   27.4790   43.7150 C   0  0  0  0  0  0  0  0  0  0  0  0
   57.3800   29.9450   43.8750 C   0  0  0  0  0  0  0  0  0  0  0  0
   56.2750   29.7330   42.8740 C   0  0  0  0  0  0  0  0  0  0  0  0
   57.5790   31.2350   44.4180 C   0  0  0  0  0  0  0  0  0  0  0  0
   58.6070   31.4060   45.3400 C   0  0  0  0  0  0  0  0  0  0  0  0
   62.4712   33.4760   46.0204 H   0  0  0  0  0  0  0  0  0  0  0  0
   64.3213   33.7889   46.3511 H   0  0  0  0  0  0  0  0  0  0  0  0
   63.9998   33.1036   49.9548 H   0  0  0  0  0  0  0  0  0  0  0  0
   64.9643   32.2120   48.7295 H   0  0  0  0  0  0  0  0  0  0  0  0
   64.9522   34.0082   48.7295 H   0  0  0  0  0  0  0  0  0  0  0  0
   61.8143   31.5338   48.5487 H   0  0  0  0  0  0  0  0  0  0  0  0
   61.6370   33.0725   49.4779 H   0  0  0  0  0  0  0  0  0  0  0  0
   60.6395   35.0034   48.3954 H   0  0  0  0  0  0  0  0  0  0  0  0
   60.9668   34.9167   46.6174 H   0  0  0  0  0  0  0  0  0  0  0  0
   58.3109   34.3169   48.0224 H   0  0  0  0  0  0  0  0  0  0  0  0
   58.7008   35.7407   46.9761 H   0  0  0  0  0  0  0  0  0  0  0  0
   57.3710   33.8519   45.8476 H   0  0  0  0  0  0  0  0  0  0  0  0
   58.8754   34.3719   45.0114 H   0  0  0  0  0  0  0  0  0  0  0  0
   61.0780   30.2560   47.0770 H   0  0  0  0  0  0  0  0  0  0  0  0
   59.9252   28.2731   45.5372 H   0  0  0  0  0  0  0  0  0  0  0  0
   57.9424   26.7602   44.5418 H   0  0  0  0  0  0  0  0  0  0  0  0
   57.1311   27.4545   43.0974 H   0  0  0  0  0  0  0  0  0  0  0  0
   58.9107   27.2104   43.0974 H   0  0  0  0  0  0  0  0  0  0  0  0
   55.3290   29.5515   43.4051 H   0  0  0  0  0  0  0  0  0  0  0  0
   56.1752   30.6284   42.2429 H   0  0  0  0  0  0  0  0  0  0  0  0
   56.5137   28.8643   42.2429 H   0  0  0  0  0  0  0  0  0  0  0  0
   56.9397   32.0791   44.1202 H   0  0  0  0  0  0  0  0  0  0  0  0
  1  2  2  0
  2  3  1  0
  2  4  1  0
  4  5  1  0
  5  6  1  0
  6  7  1  0
  7  8  1  0
  8  9  1  0
  9 10  1  0
 10 11  2  0
 11 12  1  0
 12 13  2  0
 13 14  1  0
 14 15  1  0
 14 16  2  0
 16 17  1  0
 16 18  1  0
 18 19  2  0
 10  5  1  0
 19 12  1  0
 19  9  1  0
  1 20  1  0
  1 21  1  0
  3 22  1  0
  3 23  1  0
  3 24  1  0
  4 25  1  0
  4 26  1  0
  6 27  1  0
  6 28  1  0
  7 29  1  0
  7 30  1  0
  8 31  1  0
  8 32  1  0
 11 33  1  0
 13 34  1  0
 15 35  1  0
 15 36  1  0
 15 37  1  0
 17 38  1  0
 17 39  1  0
 17 40  1  0
 18 41  1  0
M  CHG  1  11   1
M  END
>  <UniqueID>  (30) 
29

>  <SMILES>  (30) 
C=C(C)CN1CCCn2c1[nH+]c1cc(C)c(C)cc12

>  <Energy>  (30) 
76.21385953741333

>  <Genealogy>  (30) 
C=C(C)CN1CCCn2c1[nH+]c1cc(C)c(C)cc12 (protonated)
C=C(C)CN1CCCn2c1[nH+]c1cc(C)c(C)cc12 (3D coordinates assigned)
C=C(C)CN1CCCn2c1[nH+]c1cc(C)c(C)cc12 (nonaromatic ring conformer: 76.21385953741333 kcal/mol)

>  <smiles>  (30) 
C=C(C)CN1CCCn2c1nc1cc(C)c(C)cc12

>  <score_type>  (30) 
oracle

>  <origin>  (30) 
adg

>  <m_score__min__energy>  (30) 
-5.6200000000000001

>  <m_primary>  (30) 
energy

$$$$
30:0
     RDKit          3D

 27 27  0  0  0  0  0  0  0  0999 V2000
   56.4680   30.0750   42.5540 C   0  0  0  0  0  0  0  0  0  0  0  0
   57.3180   29.9070   43.8080 C   0  0  0  0  0  0  0  0  0  0  0  0
   56.5270   29.2420   44.9010 C   0  0  0  0  0  0  0  0  0  0  0  0
   55.2710   29.3270   44.8880 O   0  0  0  0  0  0  0  0  0  0  0  0
   57.1640   28.5980   46.0120 N   0  0  0  0  0  0  0  0  0  0  0  0
   57.9800   27.4270   45.9180 C   0  0  0  0  0  0  0  0  0  0  0  0
   59.3460   27.4190   45.7610 C   0  0  0  0  0  0  0  0  0  0  0  0
   59.7670   26.1400   45.7150 N   0  0  0  0  0  0  0  0  0  0  0  0
   58.7130   25.3480   45.8610 N   0  0  0  0  0  0  0  0  0  0  0  0
   58.8280   23.8890   45.8560 C   0  0  0  0  0  0  0  0  0  0  0  0
   58.1250   23.3070   44.6360 C   0  0  0  0  0  0  0  0  0  0  0  0
   57.5900   26.1000   45.9940 C   0  0  0  0  0  0  0  0  0  0  0  0
   56.2260   25.5960   46.2680 C   0  0  0  0  0  0  0  0  0  0  0  0
   55.0920   26.4220   46.0160 N   0  0  0  0  0  0  0  0  0  0  0  0
   56.0490   24.4350   46.7220 O   0  0  0  0  0  0  0  0  0  0  0  0
   55.4265   30.2809   42.8419 H   0  0  0  0  0  0  0  0  0  0  0  0
   56.8562   30.9138   41.9576 H   0  0  0  0  0  0  0  0  0  0  0  0
   56.5079   29.1516   41.9576 H   0  0  0  0  0  0  0  0  0  0  0  0
   58.1954   29.2879   43.5693 H   0  0  0  0  0  0  0  0  0  0  0  0
   57.6357   30.9010   44.1558 H   0  0  0  0  0  0  0  0  0  0  0  0
   59.9882   28.3088   45.6855 H   0  0  0  0  0  0  0  0  0  0  0  0
   59.8914   23.6090   45.8299 H   0  0  0  0  0  0  0  0  0  0  0  0
   58.3552   23.4898   46.7655 H   0  0  0  0  0  0  0  0  0  0  0  0
   57.3161   22.6374   44.9636 H   0  0  0  0  0  0  0  0  0  0  0  0
   57.7029   24.1235   44.0318 H   0  0  0  0  0  0  0  0  0  0  0  0
   58.8484   22.7399   44.0318 H   0  0  0  0  0  0  0  0  0  0  0  0
   55.1750   27.4630   46.0120 H   0  0  0  0  0  0  0  0  0  0  0  0
  1  2  1  0
  2  3  1  0
  3  4  2  0
  3  5  1  0
  5  6  1  0
  6  7  1  0
  7  8  2  0
  8  9  1  0
  9 10  1  0
 10 11  1  0
  9 12  1  0
 12 13  1  0
 13 14  1  0
 13 15  2  0
 12  6  2  0
  1 16  1  0
  1 17  1  0
  1 18  1  0
  2 19  1  0
  2 20  1  0
  7 21  1  0
 10 22  1  0
 10 23  1  0
 11 24  1  0
 11 25  1  0
 11 26  1  0
 14 27  1  0
M  CHG  2   5  -1  14  -1
M  END
>  <UniqueID>  (31) 
30

>  <SMILES>  (31) 
CCC(=O)[N-]c1cnn(CC)c1C([NH-])=O

>  <Energy>  (31) 
57.35947394880944

>  <Genealogy>  (31) 
CCC(=O)[N-]c1cnn(CC)c1C([NH-])=O (protonated)
CCC(=O)[N-]c1cnn(CC)c1C([NH-])=O (3D coordinates assigned)
CCC(=O)[N-]c1cnn(CC)c1C([NH-])=O (optimized conformer: 57.35947394880944 kcal/mol)

>  <smiles>  (31) 
CCC(=O)Nc1cnn(CC)c1C(N)=O

>  <score_type>  (31) 
oracle

>  <origin>  (31) 
adg

>  <m_score__min__energy>  (31) 
-10.890000000000001

>  <m_primary>  (31) 
energy

$$$$
31:0
     RDKit          3D

 38 41  0  0  0  0  0  0  0  0999 V2000
   55.3490   25.3170   45.6510 C   0  0  0  0  0  0  0  0  0  0  0  0
   55.5610   26.7090   45.8660 O   0  0  0  0  0  0  0  0  0  0  0  0
   56.7780   27.3700   45.6430 C   0  0  0  0  0  0  0  0  0  0  0  0
   57.9390   26.5980   45.5290 C   0  0  0  0  0  0  0  0  0  0  0  0
   59.1760   27.2070   45.3100 C   0  0  0  0  0  0  0  0  0  0  0  0
   59.2650   28.5960   45.2020 C   0  0  0  0  0  0  0  0  0  0  0  0
   58.1120   29.3940   45.3110 C   0  0  0  0  0  0  0  0  0  0  0  0
   58.2060   30.8720   45.1960 C   0  0  0  0  0  0  0  0  0  0  0  0
   57.3040   31.5910   44.3660 C   0  0  0  0  0  0  0  0  0  0  0  0
   57.3980   32.9480   44.2420 N   0  0  0  0  0  0  0  0  0  0  0  0
   58.3540   33.6120   44.9350 C   0  0  0  0  0  0  0  0  0  0  0  0
   58.5870   34.9320   44.8860 N   0  0  0  0  0  0  0  0  0  0  0  0
   59.6450   35.1460   45.7010 C   0  0  0  0  0  0  0  0  0  0  0  0
   60.0720   33.9490   46.2770 C   0  0  0  0  0  0  0  0  0  0  0  0
   61.1930   33.7890   47.2280 C   0  0  0  0  0  0  0  0  0  0  0  0
   62.4750   33.4660   46.7570 C   0  0  0  0  0  0  0  0  0  0  0  0
   63.5290   33.3280   47.6620 C   0  0  0  0  0  0  0  0  0  0  0  0
   63.3170   33.5190   48.9920 N   0  0  0  0  0  0  0  0  0  0  0  0
   62.0890   33.8480   49.4750 C   0  0  0  0  0  0  0  0  0  0  0  0
   61.0080   33.9950   48.6030 C   0  0  0  0  0  0  0  0  0  0  0  0
   59.2330   32.9720   45.7620 C   0  0  0  0  0  0  0  0  0  0  0  0
   59.2010   31.5860   45.9020 C   0  0  0  0  0  0  0  0  0  0  0  0
   56.8690   28.7720   45.5330 C   0  0  0  0  0  0  0  0  0  0  0  0
   55.2709   24.8039   46.6209 H   0  0  0  0  0  0  0  0  0  0  0  0
   54.4183   25.1713   45.0831 H   0  0  0  0  0  0  0  0  0  0  0  0
   56.1941   24.9008   45.0831 H   0  0  0  0  0  0  0  0  0  0  0  0
   57.8768   25.5029   45.6125 H   0  0  0  0  0  0  0  0  0  0  0  0
   60.0829   26.5908   45.2223 H   0  0  0  0  0  0  0  0  0  0  0  0
   60.2431   29.0693   45.0306 H   0  0  0  0  0  0  0  0  0  0  0  0
   56.5206   31.0482   43.8168 H   0  0  0  0  0  0  0  0  0  0  0  0
   58.0680   35.6450   44.3280 H   0  0  0  0  0  0  0  0  0  0  0  0
   60.1053   36.1281   45.8844 H   0  0  0  0  0  0  0  0  0  0  0  0
   62.6484   33.3223   45.6803 H   0  0  0  0  0  0  0  0  0  0  0  0
   64.5332   33.0642   47.2987 H   0  0  0  0  0  0  0  0  0  0  0  0
   61.9468   33.9987   50.5553 H   0  0  0  0  0  0  0  0  0  0  0  0
   60.0169   34.2708   48.9924 H   0  0  0  0  0  0  0  0  0  0  0  0
   59.9274   31.0637   46.5420 H   0  0  0  0  0  0  0  0  0  0  0  0
   55.9605   29.3858   45.6214 H   0  0  0  0  0  0  0  0  0  0  0  0
  1  2  1  0
  2  3  1  0
  3  4  2  0
  4  5  1  0
  5  6  2  0
  6  7  1  0
  7  8  1  0
  8  9  2  0
  9 10  1  0
 10 11  2  0
 11 12  1  0
 12 13  1  0
 13 14  2  0
 14 15  1  0
 15 16  2  0
 16 17  1  0
 17 18  2  0
 18 19  1  0
 19 20  2  0
 14 21  1  0
 21 22  2  0
  7 23  2  0
 23  3  1  0
 22  8  1  0
 21 11  1  0
 20 15  1  0
  1 24  1  0
  1 25  1  0
  1 26  1  0
  4 27  1  0
  5 28  1  0
  6 29  1  0
  9 30  1  0
 12 31  1  0
 13 32  1  0
 16 33  1  0
 17 34  1  0
 19 35  1  0
 20 36  1  0
 22 37  1  0
 23 38  1  0
M  END
>  <UniqueID>  (32) 
31

>  <SMILES>  (32) 
COc1cccc(-c2cnc3[nH]cc(-c4ccncc4)c3c2)c1

>  <Energy>  (32) 
87.48161556427833

>  <Genealogy>  (32) 
COc1cccc(-c2cnc3[nH]cc(-c4ccncc4)c3c2)c1 (3D coordinates assigned)
COc1cccc(-c2cnc3[nH]cc(-c4ccncc4)c3c2)c1 (optimized conformer: 87.48161556427833 kcal/mol)

>  <smiles>  (32) 
COc1cccc(-c2cnc3[nH]cc(-c4ccncc4)c3c2)c1

>  <score_type>  (32) 
oracle

>  <origin>  (32) 
adg

>  <m_score__min__energy>  (32) 
-8.0399999999999991

>  <m_primary>  (32) 
energy

$$$$
32:0
     RDKit          3D

 30 30  0  0  0  0  0  0  0  0999 V2000
   59.5630   34.7010   46.1160 C   0  0  0  0  0  0  0  0  0  0  0  0
   59.3100   33.4540   45.2690 C   0  0  0  0  0  0  0  0  0  0  0  0
   58.1500   33.6400   44.3690 N   0  0  0  0  0  0  0  0  0  0  0  0
   57.0070   34.2130   45.1010 C   0  0  0  0  0  0  0  0  0  0  0  0
   57.7690   32.4180   43.6200 C   0  0  0  0  0  0  0  0  0  0  0  0
   57.6430   31.1880   44.4830 C   0  0  0  0  0  0  0  0  0  0  0  0
   57.1000   31.2780   45.6180 O   0  0  0  0  0  0  0  0  0  0  0  0
   58.1690   29.9300   44.0270 N   0  0  0  0  0  0  0  0  0  0  0  0
   58.0540   28.7120   44.7770 C   0  0  0  0  0  0  0  0  0  0  0  0
   56.8050   28.2580   45.2440 C   0  0  0  0  0  0  0  0  0  0  0  0
   55.6690   28.9480   44.9690 F   0  0  0  0  0  0  0  0  0  0  0  0
   56.7160   27.0580   45.9580 C   0  0  0  0  0  0  0  0  0  0  0  0
   57.8630   26.2990   46.2000 C   0  0  0  0  0  0  0  0  0  0  0  0
   59.1010   26.7310   45.7190 C   0  0  0  0  0  0  0  0  0  0  0  0
   59.1980   27.9280   45.0040 C   0  0  0  0  0  0  0  0  0  0  0  0
   60.4090   28.3360   44.5470 F   0  0  0  0  0  0  0  0  0  0  0  0
   59.5094   34.4369   47.1825 H   0  0  0  0  0  0  0  0  0  0  0  0
   60.5610   35.1032   45.8875 H   0  0  0  0  0  0  0  0  0  0  0  0
   58.8006   35.4603   45.8875 H   0  0  0  0  0  0  0  0  0  0  0  0
   60.2038   33.2455   44.6627 H   0  0  0  0  0  0  0  0  0  0  0  0
   59.0930   32.6139   45.9451 H   0  0  0  0  0  0  0  0  0  0  0  0
   57.1832   34.1247   46.1832 H   0  0  0  0  0  0  0  0  0  0  0  0
   56.8947   35.2740   44.8332 H   0  0  0  0  0  0  0  0  0  0  0  0
   56.0897   33.6682   44.8332 H   0  0  0  0  0  0  0  0  0  0  0  0
   56.8004   32.5991   43.1312 H   0  0  0  0  0  0  0  0  0  0  0  0
   58.5754   32.2209   42.8983 H   0  0  0  0  0  0  0  0  0  0  0  0
   58.7830   29.9290   43.1810 H   0  0  0  0  0  0  0  0  0  0  0  0
   55.7403   26.7116   46.3296 H   0  0  0  0  0  0  0  0  0  0  0  0
   57.7914   25.3607   46.7696 H   0  0  0  0  0  0  0  0  0  0  0  0
   60.0021   26.1276   45.9034 H   0  0  0  0  0  0  0  0  0  0  0  0
  1  2  1  0
  2  3  1  0
  3  4  1  0
  3  5  1  0
  5  6  1  0
  6  7  2  0
  6  8  1  0
  8  9  1  0
  9 10  2  0
 10 11  1  0
 10 12  1  0
 12 13  2  0
 13 14  1  0
 14 15  2  0
 15 16  1  0
 15  9  1  0
  1 17  1  0
  1 18  1  0
  1 19  1  0
  2 20  1  0
  2 21  1  0
  4 22  1  0
  4 23  1  0
  4 24  1  0
  5 25  1  0
  5 26  1  0
  8 27  1  0
 12 28  1  0
 13 29  1  0
 14 30  1  0
M  END
>  <UniqueID>  (33) 
32

>  <SMILES>  (33) 
CCN(C)CC(=O)Nc1c(F)cccc1F

>  <Energy>  (33) 
33.41074606474206

>  <Genealogy>  (33) 
CCN(C)CC(=O)Nc1c(F)cccc1F (3D coordinates assigned)
CCN(C)CC(=O)Nc1c(F)cccc1F (optimized conformer: 33.41074606474206 kcal/mol)

>  <smiles>  (33) 
CCN(C)CC(=O)Nc1c(F)cccc1F

>  <score_type>  (33) 
oracle

>  <origin>  (33) 
adg

>  <m_score__min__energy>  (33) 
-5.4900000000000002

>  <m_primary>  (33) 
energy

$$$$
33:0
     RDKit          3D

 58 61  0  0  0  0  0  0  0  0999 V2000
   67.7140   28.1800   50.7760 C   0  0  0  0  0  0  0  0  0  0  0  0
   66.5510   28.5680   51.6980 C   0  0  0  0  0  0  0  0  0  0  0  0
   66.4860   30.0300   51.9500 N   0  0  0  0  0  0  0  0  0  0  0  0
   67.1370   30.7930   50.8490 C   0  0  0  0  0  0  0  0  0  0  0  0
   66.6760   32.2590   50.8220 C   0  0  0  0  0  0  0  0  0  0  0  0
   65.2080   32.3810   50.6630 N   0  0  0  0  0  0  0  0  0  0  0  0
   64.7720   33.0360   49.4100 C   0  0  0  0  0  0  0  0  0  0  0  0
   63.2690   33.0730   49.2260 C   0  0  0  0  0  0  0  0  0  0  0  0
   62.6960   32.8620   47.9640 C   0  0  0  0  0  0  0  0  0  0  0  0
   61.3120   32.9110   47.7970 C   0  0  0  0  0  0  0  0  0  0  0  0
   60.4630   33.1890   48.8840 C   0  0  0  0  0  0  0  0  0  0  0  0
   61.0460   33.4660   50.1450 C   0  0  0  0  0  0  0  0  0  0  0  0
   62.4330   33.3820   50.3090 C   0  0  0  0  0  0  0  0  0  0  0  0
   60.2550   33.8840   51.2630 N   0  0  0  0  0  0  0  0  0  0  0  0
   59.3490   33.0110   51.9410 C   0  0  0  0  0  0  0  0  0  0  0  0
   59.6760   32.5250   53.0560 O   0  0  0  0  0  0  0  0  0  0  0  0
   58.0140   32.6840   51.3460 C   0  0  0  0  0  0  0  0  0  0  0  0
   58.1730   31.7870   49.7600 S   0  0  0  0  0  0  0  0  0  0  0  0
   58.9540   33.0790   48.6940 C   0  0  2  0  0  0  0  0  0  0  0  0
   58.5610   33.0360   47.2160 C   0  0  0  0  0  0  0  0  0  0  0  0
   58.2730   34.2070   46.4780 C   0  0  0  0  0  0  0  0  0  0  0  0
   57.9150   34.1340   45.1320 C   0  0  0  0  0  0  0  0  0  0  0  0
   57.8510   32.9020   44.4890 C   0  0  0  0  0  0  0  0  0  0  0  0
   58.1560   31.7340   45.1860 C   0  0  0  0  0  0  0  0  0  0  0  0
   58.5200   31.7870   46.5460 C   0  0  0  0  0  0  0  0  0  0  0  0
   58.8540   30.6230   47.2580 O   0  0  0  0  0  0  0  0  0  0  0  0
   60.0240   29.8440   47.0370 C   0  0  0  0  0  0  0  0  0  0  0  0
   64.4500   31.1550   50.9910 C   0  0  0  0  0  0  0  0  0  0  0  0
   65.0780   30.4570   52.2040 C   0  0  0  0  0  0  0  0  0  0  0  0
   68.5833   27.8900   51.3845 H   0  0  0  0  0  0  0  0  0  0  0  0
   67.4121   27.3339   50.1412 H   0  0  0  0  0  0  0  0  0  0  0  0
   67.9806   29.0379   50.1412 H   0  0  0  0  0  0  0  0  0  0  0  0
   65.6083   28.2489   51.2295 H   0  0  0  0  0  0  0  0  0  0  0  0
   66.7120   28.0698   52.6654 H   0  0  0  0  0  0  0  0  0  0  0  0
   67.0250   30.2210   52.8290 H   0  0  0  0  0  0  0  0  0  0  0  0
   68.2273   30.7649   50.9922 H   0  0  0  0  0  0  0  0  0  0  0  0
   66.8522   30.3268   49.8943 H   0  0  0  0  0  0  0  0  0  0  0  0
   66.9714   32.7407   51.7658 H   0  0  0  0  0  0  0  0  0  0  0  0
   67.1510   32.7466   49.9579 H   0  0  0  0  0  0  0  0  0  0  0  0
   65.1460   34.0705   49.4120 H   0  0  0  0  0  0  0  0  0  0  0  0
   65.1801   32.4402   48.5802 H   0  0  0  0  0  0  0  0  0  0  0  0
   63.3430   32.6561   47.0986 H   0  0  0  0  0  0  0  0  0  0  0  0
   60.8786   32.7299   46.8023 H   0  0  0  0  0  0  0  0  0  0  0  0
   62.8738   33.5607   51.3008 H   0  0  0  0  0  0  0  0  0  0  0  0
   57.4534   32.0565   52.0544 H   0  0  0  0  0  0  0  0  0  0  0  0
   57.4879   33.6300   51.1505 H   0  0  0  0  0  0  0  0  0  0  0  0
   58.5119   34.0129   49.0713 H   0  0  0  0  0  0  0  0  0  0  0  0
   58.3320   35.1882   46.9717 H   0  0  0  0  0  0  0  0  0  0  0  0
   57.6823   35.0545   44.5765 H   0  0  0  0  0  0  0  0  0  0  0  0
   57.5595   32.8495   43.4296 H   0  0  0  0  0  0  0  0  0  0  0  0
   58.1121   30.7634   44.6702 H   0  0  0  0  0  0  0  0  0  0  0  0
   60.4596   29.5540   48.0046 H   0  0  0  0  0  0  0  0  0  0  0  0
   59.7607   28.9403   46.4678 H   0  0  0  0  0  0  0  0  0  0  0  0
   60.7562   30.4355   46.4678 H   0  0  0  0  0  0  0  0  0  0  0  0
   63.4086   31.4222   51.2236 H   0  0  0  0  0  0  0  0  0  0  0  0
   64.4771   30.4728   50.1285 H   0  0  0  0  0  0  0  0  0  0  0  0
   65.0682   31.1527   53.0560 H   0  0  0  0  0  0  0  0  0  0  0  0
   64.4866   29.5536   52.4141 H   0  0  0  0  0  0  0  0  0  0  0  0
  1  2  1  0
  2  3  1  0
  3  4  1  0
  4  5  1  0
  5  6  1  0
  6  7  1  0
  7  8  1  0
  8  9  2  0
  9 10  1  0
 10 11  2  0
 11 12  1  0
 12 13  2  0
 12 14  1  0
 14 15  1  0
 15 16  2  0
 15 17  1  0
 17 18  1  0
 18 19  1  0
 19 20  1  0
 20 21  2  0
 21 22  1  0
 22 23  2  0
 23 24  1  0
 24 25  2  0
 25 26  1  0
 26 27  1  0
  6 28  1  0
 28 29  1  0
 29  3  1  0
 13  8  1  0
 25 20  1  0
 19 11  1  0
  1 30  1  0
  1 31  1  0
  1 32  1  0
  2 33  1  0
  2 34  1  0
  3 35  1  0
  4 36  1  0
  4 37  1  0
  5 38  1  0
  5 39  1  0
  7 40  1  0
  7 41  1  0
  9 42  1  0
 10 43  1  0
 13 44  1  0
 17 45  1  0
 17 46  1  0
 19 47  1  1
 21 48  1  0
 22 49  1  0
 23 50  1  0
 24 51  1  0
 27 52  1  0
 27 53  1  0
 27 54  1  0
 28 55  1  0
 28 56  1  0
 29 57  1  0
 29 58  1  0
M  CHG  2   3   1  14  -1
M  END
>  <UniqueID>  (34) 
33

>  <SMILES>  (34) 
CC[NH+]1CCN(Cc2ccc3c(c2)[N-]C(=O)CS[C@@H]3c2ccccc2OC)CC1

>  <Energy>  (34) 
86.96058666266731

>  <Genealogy>  (34) 
CC[NH+]1CCN(Cc2ccc3c(c2)[N-]C(=O)CSC3c2ccccc2OC)CC1 (protonated)
CC[NH+]1CCN(Cc2ccc3c(c2)[N-]C(=O)CS[C@@H]3c2ccccc2OC)CC1 (chirality)
CC[NH+]1CCN(Cc2ccc3c(c2)[N-]C(=O)CS[C@@H]3c2ccccc2OC)CC1 (3D coordinates assigned)
CC[NH+]1CCN(Cc2ccc3c(c2)[N-]C(=O)CS[C@@H]3c2ccccc2OC)CC1 (nonaromatic ring conformer: 86.96058666266731 kcal/mol)

>  <smiles>  (34) 
CCN1CCN(Cc2ccc3c(c2)NC(=O)CSC3c2ccccc2OC)CC1

>  <score_type>  (34) 
oracle

>  <origin>  (34) 
adg

>  <m_score__min__energy>  (34) 
-6.1699999999999999

>  <m_primary>  (34) 
energy

$$$$
34:0
     RDKit          3D

 49 52  0  0  0  0  0  0  0  0999 V2000
   65.7859   32.6802   48.7848 H   0  0  0  0  0  0  0  0  0  0  0  0
   64.8010   32.9940   49.1610 C   0  0  0  0  0  0  0  0  0  0  0  0
   63.6820   32.9170   48.3260 C   0  0  0  0  0  0  0  0  0  0  0  0
   63.7935   32.5397   47.2988 H   0  0  0  0  0  0  0  0  0  0  0  0
   62.4170   33.3170   48.7870 C   0  0  0  0  0  0  0  0  0  0  0  0
   61.2470   33.2260   47.8820 C   0  0  0  0  0  0  0  0  0  0  0  0
   60.8230   32.0870   47.3590 O   0  0  0  0  0  0  0  0  0  0  0  0
   59.7790   32.3530   46.6130 C   0  0  0  0  0  0  0  0  0  0  0  0
   59.0120   31.4570   45.8730 C   0  0  0  0  0  0  0  0  0  0  0  0
   59.2484   30.3827   45.8674 H   0  0  0  0  0  0  0  0  0  0  0  0
   57.9200   31.9640   45.1280 C   0  0  0  0  0  0  0  0  0  0  0  0
   57.0790   31.0390   44.3280 C   0  0  0  0  0  0  0  0  0  0  0  0
   55.9380   30.6060   44.7450 N   0  0  0  0  0  0  0  0  0  0  0  0
   55.3470   29.7180   43.7530 C   0  0  0  0  0  0  0  0  0  0  0  0
   55.1851   28.7167   44.1786 H   0  0  0  0  0  0  0  0  0  0  0  0
   54.3657   30.0778   43.4100 H   0  0  0  0  0  0  0  0  0  0  0  0
   56.3700   29.6590   42.6100 C   0  0  0  0  0  0  0  0  0  0  0  0
   56.7399   28.6328   42.4683 H   0  0  0  0  0  0  0  0  0  0  0  0
   55.9439   29.9635   41.6427 H   0  0  0  0  0  0  0  0  0  0  0  0
   57.4360   30.5350   43.0520 N   0  0  0  0  0  0  0  0  0  0  0  0
   58.3280   30.6920   42.5370 H   0  0  0  0  0  0  0  0  0  0  0  0
   57.6410   33.3580   45.1660 C   0  0  0  0  0  0  0  0  0  0  0  0
   56.7903   33.7575   44.5944 H   0  0  0  0  0  0  0  0  0  0  0  0
   58.4400   34.2330   45.9260 C   0  0  0  0  0  0  0  0  0  0  0  0
   58.2295   35.3122   45.9564 H   0  0  0  0  0  0  0  0  0  0  0  0
   59.5040   33.6890   46.6370 C   0  0  0  0  0  0  0  0  0  0  0  0
   60.4390   34.2820   47.4530 C   0  0  0  0  0  0  0  0  0  0  0  0
   60.5301   35.3477   47.7100 H   0  0  0  0  0  0  0  0  0  0  0  0
   62.2940   33.7970   50.1020 C   0  0  0  0  0  0  0  0  0  0  0  0
   61.3101   34.1154   50.4770 H   0  0  0  0  0  0  0  0  0  0  0  0
   63.4120   33.8730   50.9370 C   0  0  0  0  0  0  0  0  0  0  0  0
   63.3014   34.2523   51.9636 H   0  0  0  0  0  0  0  0  0  0  0  0
   64.6760   33.4690   50.4760 C   0  0  0  0  0  0  0  0  0  0  0  0
   65.8690   33.5550   51.3560 C   0  0  0  0  0  0  0  0  0  0  0  0
   66.4150   34.8540   51.6420 N   0  0  0  0  0  0  0  0  0  0  0  0
   67.2650   35.0100   52.2210 H   0  0  0  0  0  0  0  0  0  0  0  0
   65.9270   35.7130   51.3030 H   0  0  0  0  0  0  0  0  0  0  0  0
   66.3920   32.4570   51.8480 N   0  0  0  0  0  0  0  0  0  0  0  0
   66.2780   32.2570   52.8680 H   0  0  0  0  0  0  0  0  0  0  0  0
   67.1400   31.4410   51.0980 C   0  0  0  0  0  0  0  0  0  0  0  0
   68.1832   31.4342   51.4467 H   0  0  0  0  0  0  0  0  0  0  0  0
   67.0885   31.6917   50.0282 H   0  0  0  0  0  0  0  0  0  0  0  0
   66.5380   30.0450   51.2970 C   0  0  0  0  0  0  0  0  0  0  0  0
   65.6446   29.9545   50.6617 H   0  0  0  0  0  0  0  0  0  0  0  0
   66.2943   29.9404   52.3646 H   0  0  0  0  0  0  0  0  0  0  0  0
   67.5070   28.9220   50.9370 C   0  0  0  0  0  0  0  0  0  0  0  0
   67.8996   28.4670   51.8584 H   0  0  0  0  0  0  0  0  0  0  0  0
   66.9799   28.1581   50.3466 H   0  0  0  0  0  0  0  0  0  0  0  0
   68.3399   29.3316   50.3466 H   0  0  0  0  0  0  0  0  0  0  0  0
  1  2  1  0
  2  3  2  0
  3  4  1  0
  3  5  1  0
  5  6  1  0
  6  7  1  0
  7  8  1  0
  8  9  2  0
  9 10  1  0
  9 11  1  0
 11 12  1  0
 12 13  2  0
 13 14  1  0
 14 15  1  0
 14 16  1  0
 14 17  1  0
 17 18  1  0
 17 19  1  0
 17 20  1  0
 20 21  1  0
 11 22  2  0
 22 23  1  0
 22 24  1  0
 24 25  1  0
 24 26  2  0
 26 27  1  0
 27 28  1  0
  5 29  2  0
 29 30  1  0
 29 31  1  0
 31 32  1  0
 31 33  2  0
 33 34  1  0
 34 35  1  0
 35 36  1  0
 35 37  1  0
 34 38  2  0
 38 39  1  0
 38 40  1  0
 40 41  1  0
 40 42  1  0
 40 43  1  0
 43 44  1  0
 43 45  1  0
 43 46  1  0
 46 47  1  0
 46 48  1  0
 46 49  1  0
 33  2  1  0
 27  6  2  0
 26  8  1  0
 20 12  1  0
M  CHG  1  38   1
M  END
>  <UniqueID>  (35) 
34

>  <SMILES>  (35) 
CCC/[NH+]=C(\N)c1ccc(-c2cc3ccc(C4=NCCN4)cc3o2)cc1

>  <Energy>  (35) 
102.15745321666088

>  <Genealogy>  (35) 
CCC[NH+]=C(N)c1ccc(-c2cc3ccc(C4=NCCN4)cc3o2)cc1 (protonated)
CCC/[NH+]=C(\N)c1ccc(-c2cc3ccc(C4=NCCN4)cc3o2)cc1 (cis-trans isomerization)
CCC/[NH+]=C(\N)c1ccc(-c2cc3ccc(C4=NCCN4)cc3o2)cc1 (3D coordinates assigned)
CCC/[NH+]=C(\N)c1ccc(-c2cc3ccc(C4=NCCN4)cc3o2)cc1 (nonaromatic ring conformer: 102.15745321666088 kcal/mol)

>  <smiles>  (35) 
CCCN=C(N)c1ccc(-c2cc3ccc(C4=NCCN4)cc3o2)cc1

>  <score_type>  (35) 
oracle

>  <origin>  (35) 
adg

>  <m_score__min__energy>  (35) 
-6.7300000000000004

>  <m_primary>  (35) 
energy

$$$$
35:0
     RDKit          3D

 46 48  0  0  0  0  0  0  0  0999 V2000
   61.5420   30.5120   47.2600 C   0  0  0  0  0  0  0  0  0  0  0  0
   62.2480   31.7490   47.2440 O   0  0  0  0  0  0  0  0  0  0  0  0
   62.7670   32.3880   48.3820 C   0  0  0  0  0  0  0  0  0  0  0  0
   64.1440   32.3580   48.6840 C   0  0  0  0  0  0  0  0  0  0  0  0
   64.6310   33.0030   49.8240 C   0  0  0  0  0  0  0  0  0  0  0  0
   63.7570   33.6810   50.6720 C   0  0  0  0  0  0  0  0  0  0  0  0
   62.3910   33.7190   50.3850 C   0  0  0  0  0  0  0  0  0  0  0  0
   61.8850   33.0730   49.2440 C   0  0  0  0  0  0  0  0  0  0  0  0
   60.4030   33.1490   48.9360 C   0  0  0  0  0  0  0  0  0  0  0  0
   60.1400   33.2530   47.4780 N   0  0  0  0  0  0  0  0  0  0  0  0
   60.1870   34.6690   47.0230 C   0  0  0  0  0  0  0  0  0  0  0  0
   59.3780   34.8750   45.7370 C   0  0  0  0  0  0  0  0  0  0  0  0
   57.9360   34.5960   45.9550 N   0  0  0  0  0  0  0  0  0  0  0  0
   57.2550   34.2550   44.6890 C   0  0  0  0  0  0  0  0  0  0  0  0
   57.3460   32.7850   44.4110 C   0  0  0  0  0  0  0  0  0  0  0  0
   58.2180   32.1840   43.5230 C   0  0  0  0  0  0  0  0  0  0  0  0
   57.9730   30.8290   43.6120 C   0  0  0  0  0  0  0  0  0  0  0  0
   56.9680   30.7010   44.5530 C   0  0  0  0  0  0  0  0  0  0  0  0
   56.3810   29.4720   44.9830 N   0  0  0  0  0  0  0  0  0  0  0  0
   55.1530   29.2800   44.8690 O   0  0  0  0  0  0  0  0  0  0  0  0
   57.1730   28.4880   45.5250 O   0  0  0  0  0  0  0  0  0  0  0  0
   56.6130   31.8770   45.0150 O   0  0  0  0  0  0  0  0  0  0  0  0
   57.6900   33.5670   46.9980 C   0  0  0  0  0  0  0  0  0  0  0  0
   58.8610   32.5760   47.1220 C   0  0  0  0  0  0  0  0  0  0  0  0
   61.3660   30.2037   48.3011 H   0  0  0  0  0  0  0  0  0  0  0  0
   60.5773   30.6337   46.7456 H   0  0  0  0  0  0  0  0  0  0  0  0
   62.1374   29.7433   46.7456 H   0  0  0  0  0  0  0  0  0  0  0  0
   64.8385   31.8241   48.0187 H   0  0  0  0  0  0  0  0  0  0  0  0
   65.7066   32.9756   50.0526 H   0  0  0  0  0  0  0  0  0  0  0  0
   64.1440   34.1870   51.5688 H   0  0  0  0  0  0  0  0  0  0  0  0
   61.7064   34.2581   51.0564 H   0  0  0  0  0  0  0  0  0  0  0  0
   59.9138   32.2421   49.3209 H   0  0  0  0  0  0  0  0  0  0  0  0
   60.0029   34.0533   49.4177 H   0  0  0  0  0  0  0  0  0  0  0  0
   60.9040   32.7350   46.9800 H   0  0  0  0  0  0  0  0  0  0  0  0
   59.7717   35.3119   47.8130 H   0  0  0  0  0  0  0  0  0  0  0  0
   61.2354   34.9295   46.8157 H   0  0  0  0  0  0  0  0  0  0  0  0
   59.4948   35.9167   45.4034 H   0  0  0  0  0  0  0  0  0  0  0  0
   59.7548   34.1771   44.9748 H   0  0  0  0  0  0  0  0  0  0  0  0
   56.1958   34.5429   44.7611 H   0  0  0  0  0  0  0  0  0  0  0  0
   57.7463   34.7986   43.8685 H   0  0  0  0  0  0  0  0  0  0  0  0
   58.9558   32.6833   42.8778 H   0  0  0  0  0  0  0  0  0  0  0  0
   58.4710   30.0227   43.0535 H   0  0  0  0  0  0  0  0  0  0  0  0
   57.5472   34.0701   47.9657 H   0  0  0  0  0  0  0  0  0  0  0  0
   56.7944   32.9981   46.7076 H   0  0  0  0  0  0  0  0  0  0  0  0
   58.6206   31.8405   47.9038 H   0  0  0  0  0  0  0  0  0  0  0  0
   58.9974   32.0924   46.1435 H   0  0  0  0  0  0  0  0  0  0  0  0
  1  2  1  0
  2  3  1  0
  3  4  2  0
  4  5  1  0
  5  6  2  0
  6  7  1  0
  7  8  2  0
  8  9  1  0
  9 10  1  0
 10 11  1  0
 11 12  1  0
 12 13  1  0
 13 14  1  0
 14 15  1  0
 15 16  2  0
 16 17  1  0
 17 18  2  0
 18 19  1  0
 19 20  2  0
 19 21  1  0
 18 22  1  0
 13 23  1  0
 23 24  1  0
  8  3  1  0
 24 10  1  0
 22 15  1  0
  1 25  1  0
  1 26  1  0
  1 27  1  0
  4 28  1  0
  5 29  1  0
  6 30  1  0
  7 31  1  0
  9 32  1  0
  9 33  1  0
 10 34  1  0
 11 35  1  0
 11 36  1  0
 12 37  1  0
 12 38  1  0
 14 39  1  0
 14 40  1  0
 16 41  1  0
 17 42  1  0
 23 43  1  0
 23 44  1  0
 24 45  1  0
 24 46  1  0
M  CHG  3  10   1  19   1  21  -1
M  END
>  <UniqueID>  (36) 
35

>  <SMILES>  (36) 
COc1ccccc1C[NH+]1CCN(Cc2ccc([N+](=O)[O-])o2)CC1

>  <Energy>  (36) 
86.08074816587754

>  <Genealogy>  (36) 
COc1ccccc1C[NH+]1CCN(Cc2ccc([N+](=O)[O-])o2)CC1 (protonated)
COc1ccccc1C[NH+]1CCN(Cc2ccc([N+](=O)[O-])o2)CC1 (3D coordinates assigned)
COc1ccccc1C[NH+]1CCN(Cc2ccc([N+](=O)[O-])o2)CC1 (nonaromatic ring conformer: 86.08074816587754 kcal/mol)

>  <smiles>  (36) 
COc1ccccc1CN1CCN(Cc2ccc([N+](=O)[O-])o2)CC1

>  <score_type>  (36) 
oracle

>  <origin>  (36) 
adg

>  <m_score__min__energy>  (36) 
-6.8499999999999996

>  <m_primary>  (36) 
energy

$$$$
36:0
     RDKit          3D

 50 52  0  0  1  0  0  0  0  0999 V2000
   57.3490   25.2160   44.3770 C   0  0  0  0  0  0  0  0  0  0  0  0
   56.7260   25.8490   45.5800 C   0  0  0  0  0  0  0  0  0  0  0  0
   57.6190   25.8700   46.7780 C   0  0  0  0  0  0  0  0  0  0  0  0
   58.9630   26.5130   46.5180 C   0  0  0  0  0  0  0  0  0  0  0  0
   58.9930   27.8920   46.9630 N   0  0  0  0  0  0  0  0  0  0  0  0
   59.5110   28.4470   48.0510 C   0  0  0  0  0  0  0  0  0  0  0  0
   59.3030   29.7900   48.0570 N   0  0  0  0  0  0  0  0  0  0  0  0
   58.6290   30.0700   46.9280 C   0  0  0  0  0  0  0  0  0  0  0  0
   58.1550   31.2540   46.4150 C   0  0  0  0  0  0  0  0  0  0  0  0
   58.3080   32.3880   47.0100 N   0  0  0  0  0  0  0  0  0  0  0  0
   59.6050   32.7630   47.5060 C   0  0  0  0  0  0  0  0  0  0  0  0
   59.5450   33.2680   48.9350 C   0  0  0  0  0  0  0  0  0  0  0  0
   60.7650   34.1300   49.1630 C   0  0  0  0  0  0  0  0  0  0  0  0
   62.0520   33.4200   48.8570 C   0  0  0  0  0  0  0  0  0  0  0  0
   62.6040   33.7580   47.4930 C   0  0  0  0  0  0  0  0  0  0  0  0
   61.6380   33.5220   46.3790 C   0  0  0  0  0  0  0  0  0  0  0  0
   60.2250   33.8790   46.6960 C   0  0  0  0  0  0  0  0  0  0  0  0
   57.4960   31.2330   45.2240 N   0  0  0  0  0  0  0  0  0  0  0  0
   57.3050   30.0760   44.5520 C   0  0  0  0  0  0  0  0  0  0  0  0
   56.4200   30.1910   43.0000 S   0  0  0  0  0  0  0  0  0  0  0  0
   57.0670   31.5100   41.9630 C   0  0  0  0  0  0  0  0  0  0  0  0
   57.7620   28.9070   45.0420 N   0  0  0  0  0  0  0  0  0  0  0  0
   58.4260   28.8940   46.2290 C   0  0  0  0  0  0  0  0  0  0  0  0
   58.0870   24.4661   44.6980 H   0  0  0  0  0  0  0  0  0  0  0  0
   56.5690   24.7281   43.7740 H   0  0  0  0  0  0  0  0  0  0  0  0
   57.8493   25.9881   43.7740 H   0  0  0  0  0  0  0  0  0  0  0  0
   56.4588   26.8858   45.3278 H   0  0  0  0  0  0  0  0  0  0  0  0
   55.8477   25.2418   45.8443 H   0  0  0  0  0  0  0  0  0  0  0  0
   57.1141   26.4303   47.5787 H   0  0  0  0  0  0  0  0  0  0  0  0
   57.8099   24.8233   47.0574 H   0  0  0  0  0  0  0  0  0  0  0  0
   59.7385   25.9480   47.0559 H   0  0  0  0  0  0  0  0  0  0  0  0
   59.1456   26.4988   45.4334 H   0  0  0  0  0  0  0  0  0  0  0  0
   60.0383   27.8941   48.8424 H   0  0  0  0  0  0  0  0  0  0  0  0
   60.2069   31.8449   47.4363 H   0  0  0  0  0  0  0  0  0  0  0  0
   58.6317   33.8623   49.0854 H   0  0  0  0  0  0  0  0  0  0  0  0
   59.5270   32.4265   49.6432 H   0  0  0  0  0  0  0  0  0  0  0  0
   60.6925   35.0175   48.5172 H   0  0  0  0  0  0  0  0  0  0  0  0
   60.7832   34.3979   50.2297 H   0  0  0  0  0  0  0  0  0  0  0  0
   62.7966   33.7020   49.6159 H   0  0  0  0  0  0  0  0  0  0  0  0
   61.8421   32.3403   48.8680 H   0  0  0  0  0  0  0  0  0  0  0  0
   62.8881   34.8206   47.4870 H   0  0  0  0  0  0  0  0  0  0  0  0
   63.4628   33.0928   47.3200 H   0  0  0  0  0  0  0  0  0  0  0  0
   61.9579   34.1224   45.5146 H   0  0  0  0  0  0  0  0  0  0  0  0
   61.6491   32.4400   46.1809 H   0  0  0  0  0  0  0  0  0  0  0  0
   60.2020   34.8129   47.2768 H   0  0  0  0  0  0  0  0  0  0  0  0
   59.6591   34.0198   45.7633 H   0  0  0  0  0  0  0  0  0  0  0  0
   57.4623   32.3159   42.5988 H   0  0  0  0  0  0  0  0  0  0  0  0
   57.8736   31.1149   41.3279 H   0  0  0  0  0  0  0  0  0  0  0  0
   56.2609   31.9060   41.3279 H   0  0  0  0  0  0  0  0  0  0  0  0
   57.6020   28.0260   44.5050 H   0  0  0  0  0  0  0  0  0  0  0  0
  1  2  1  0
  2  3  1  0
  3  4  1  0
  4  5  1  0
  5  6  1  0
  6  7  2  0
  7  8  1  0
  8  9  1  0
  9 10  2  0
 10 11  1  0
 11 12  1  0
 12 13  1  0
 13 14  1  0
 14 15  1  0
 15 16  1  0
 16 17  1  0
  9 18  1  0
 18 19  2  0
 19 20  1  0
 20 21  1  0
 19 22  1  0
 22 23  1  0
 23  5  1  0
 23  8  2  0
 17 11  1  0
  1 24  1  0
  1 25  1  0
  1 26  1  0
  2 27  1  0
  2 28  1  0
  3 29  1  0
  3 30  1  0
  4 31  1  0
  4 32  1  0
  6 33  1  0
 11 34  1  0
 12 35  1  0
 12 36  1  0
 13 37  1  0
 13 38  1  0
 14 39  1  0
 14 40  1  0
 15 41  1  0
 15 42  1  0
 16 43  1  0
 16 44  1  0
 17 45  1  0
 17 46  1  0
 21 47  1  0
 21 48  1  0
 21 49  1  0
 22 50  1  0
M  END
>  <smiles>  (37) 
CCCCn1cnc2c(=NC3CCCCCC3)nc(SC)[nH]c21

>  <score_type>  (37) 
oracle

>  <origin>  (37) 
adg

>  <m_score__min__energy>  (37) 
-5.6299999999999999

>  <m_primary>  (37) 
energy

$$$$
37:0
     RDKit          3D

 42 44  0  0  0  0  0  0  0  0999 V2000
   56.6250   30.7480   44.5520 O   0  0  0  0  0  0  0  0  0  0  0  0
   57.3970   30.0380   45.2540 C   0  0  0  0  0  0  0  0  0  0  0  0
   57.4930   28.5820   44.9660 C   0  0  0  0  0  0  0  0  0  0  0  0
   57.0270   27.6520   45.9150 C   0  0  0  0  0  0  0  0  0  0  0  0
   57.1010   26.2790   45.6640 C   0  0  0  0  0  0  0  0  0  0  0  0
   57.6380   25.8150   44.4610 C   0  0  0  0  0  0  0  0  0  0  0  0
   57.7300   24.0910   44.1460 Cl  0  0  0  0  0  0  0  0  0  0  0  0
   58.0960   26.7260   43.5060 C   0  0  0  0  0  0  0  0  0  0  0  0
   58.0230   28.1000   43.7520 C   0  0  0  0  0  0  0  0  0  0  0  0
   58.2200   30.7090   46.3360 C   0  0  2  0  0  0  0  0  0  0  0  0
   57.8500   32.2070   46.4950 C   0  0  0  0  0  0  0  0  0  0  0  0
   58.8100   33.1160   45.7110 C   0  0  0  0  0  0  0  0  0  0  0  0
   60.2340   32.9560   46.1280 N   0  0  1  0  0  0  0  0  0  0  0  0
   60.6230   33.9990   47.0600 C   0  0  0  0  0  0  0  0  0  0  0  0
   59.9430   35.0620   47.1220 O   0  0  0  0  0  0  0  0  0  0  0  0
   61.7890   33.8450   47.9710 C   0  0  0  0  0  0  0  0  0  0  0  0
   61.6210   34.0440   49.3550 C   0  0  0  0  0  0  0  0  0  0  0  0
   62.7000   33.8990   50.2320 C   0  0  0  0  0  0  0  0  0  0  0  0
   63.9600   33.5470   49.7410 C   0  0  0  0  0  0  0  0  0  0  0  0
   65.3130   33.3640   50.8430 Cl  0  0  0  0  0  0  0  0  0  0  0  0
   64.1390   33.3350   48.3720 C   0  0  0  0  0  0  0  0  0  0  0  0
   63.0620   33.4800   47.4910 C   0  0  0  0  0  0  0  0  0  0  0  0
   60.5500   31.6260   46.7100 C   0  0  0  0  0  0  0  0  0  0  0  0
   59.7280   30.5120   46.0550 C   0  0  0  0  0  0  0  0  0  0  0  0
   56.6003   28.0097   46.8637 H   0  0  0  0  0  0  0  0  0  0  0  0
   56.7358   25.5629   46.4149 H   0  0  0  0  0  0  0  0  0  0  0  0
   58.5156   26.3607   42.5571 H   0  0  0  0  0  0  0  0  0  0  0  0
   58.3818   28.8104   42.9927 H   0  0  0  0  0  0  0  0  0  0  0  0
   57.9851   30.2291   47.2975 H   0  0  0  0  0  0  0  0  0  0  0  0
   56.8270   32.3630   46.1221 H   0  0  0  0  0  0  0  0  0  0  0  0
   57.9250   32.4675   47.5611 H   0  0  0  0  0  0  0  0  0  0  0  0
   58.7283   32.8728   44.6413 H   0  0  0  0  0  0  0  0  0  0  0  0
   58.5210   34.1570   45.9180 H   0  0  0  0  0  0  0  0  0  0  0  0
   60.7980   33.0620   45.2530 H   0  0  0  0  0  0  0  0  0  0  0  0
   60.6310   34.3162   49.7498 H   0  0  0  0  0  0  0  0  0  0  0  0
   62.5569   34.0623   51.3104 H   0  0  0  0  0  0  0  0  0  0  0  0
   65.1296   33.0532   47.9856 H   0  0  0  0  0  0  0  0  0  0  0  0
   63.2105   33.3076   46.4148 H   0  0  0  0  0  0  0  0  0  0  0  0
   61.6192   31.4158   46.5595 H   0  0  0  0  0  0  0  0  0  0  0  0
   60.3007   31.6521   47.7810 H   0  0  0  0  0  0  0  0  0  0  0  0
   59.8982   30.5287   44.9684 H   0  0  0  0  0  0  0  0  0  0  0  0
   60.0431   29.5456   46.4755 H   0  0  0  0  0  0  0  0  0  0  0  0
  1  2  2  0
  2  3  1  0
  3  4  2  0
  4  5  1  0
  5  6  2  0
  6  7  1  0
  6  8  1  0
  8  9  2  0
  2 10  1  0
 10 11  1  0
 11 12  1  0
 12 13  1  0
 13 14  1  0
 14 15  2  0
 14 16  1  0
 16 17  2  0
 17 18  1  0
 18 19  2  0
 19 20  1  0
 19 21  1  0
 21 22  2  0
 13 23  1  0
 23 24  1  0
  9  3  1  0
 24 10  1  0
 22 16  1  0
  4 25  1  0
  5 26  1  0
  8 27  1  0
  9 28  1  0
 10 29  1  1
 11 30  1  0
 11 31  1  0
 12 32  1  0
 12 33  1  0
 13 34  1  6
 17 35  1  0
 18 36  1  0
 21 37  1  0
 22 38  1  0
 23 39  1  0
 23 40  1  0
 24 41  1  0
 24 42  1  0
M  CHG  1  13   1
M  END
>  <UniqueID>  (38) 
36

>  <SMILES>  (38) 
O=C(c1ccc(Cl)cc1)C1CC[NH+](C(=O)c2ccc(Cl)cc2)CC1

>  <Energy>  (38) 
59.3404689621948

>  <Genealogy>  (38) 
O=C(c1ccc(Cl)cc1)C1CC[NH+](C(=O)c2ccc(Cl)cc2)CC1 (protonated)
O=C(c1ccc(Cl)cc1)C1CC[NH+](C(=O)c2ccc(Cl)cc2)CC1 (3D coordinates assigned)
O=C(c1ccc(Cl)cc1)C1CC[NH+](C(=O)c2ccc(Cl)cc2)CC1 (nonaromatic ring conformer: 59.3404689621948 kcal/mol)

>  <smiles>  (38) 
O=C(c1ccc(Cl)cc1)C1CCN(C(=O)c2ccc(Cl)cc2)CC1

>  <score_type>  (38) 
oracle

>  <origin>  (38) 
adg

>  <m_score__min__energy>  (38) 
-7.9500000000000002

>  <m_primary>  (38) 
energy

$$$$
38:0
     RDKit          3D

 51 53  0  0  0  0  0  0  0  0999 V2000
   59.2630   34.8540   45.2780 C   0  0  0  0  0  0  0  0  0  0  0  0
   60.2420   34.8830   46.3120 O   0  0  0  0  0  0  0  0  0  0  0  0
   61.0880   33.8100   46.6340 C   0  0  0  0  0  0  0  0  0  0  0  0
   62.4500   34.0710   46.8110 C   0  0  0  0  0  0  0  0  0  0  0  0
   63.3340   33.0390   47.1260 C   0  0  0  0  0  0  0  0  0  0  0  0
   62.8640   31.7320   47.2740 C   0  0  0  0  0  0  0  0  0  0  0  0
   61.4950   31.4450   47.1150 C   0  0  0  0  0  0  0  0  0  0  0  0
   60.9780   30.0600   47.2480 C   0  0  0  0  0  0  0  0  0  0  0  0
   60.4180   29.3740   46.1570 C   0  0  0  0  0  0  0  0  0  0  0  0
   59.8840   28.0900   46.3410 C   0  0  0  0  0  0  0  0  0  0  0  0
   59.1970   27.3870   45.1990 C   0  0  0  0  0  0  0  0  0  0  0  0
   57.7510   27.2120   45.4730 N   0  0  0  0  0  0  0  0  0  0  0  0
   57.5010   26.0660   46.3770 C   0  0  0  0  0  0  0  0  0  0  0  0
   56.0930   25.5410   46.2870 C   0  0  0  0  0  0  0  0  0  0  0  0
   55.0180   26.4250   45.9820 N   0  0  0  0  0  0  0  0  0  0  0  0
   55.8610   24.3200   46.4940 O   0  0  0  0  0  0  0  0  0  0  0  0
   57.1000   28.4540   45.9580 C   0  0  0  0  0  0  0  0  0  0  0  0
   57.1850   29.5360   44.9140 C   0  0  0  0  0  0  0  0  0  0  0  0
   57.7810   30.7730   45.2030 C   0  0  0  0  0  0  0  0  0  0  0  0
   57.8980   31.7410   44.2040 C   0  0  0  0  0  0  0  0  0  0  0  0
   57.4040   31.4700   42.9260 C   0  0  0  0  0  0  0  0  0  0  0  0
   56.8130   30.2740   42.6650 N   0  0  0  0  0  0  0  0  0  0  0  0
   56.6900   29.3140   43.6200 C   0  0  0  0  0  0  0  0  0  0  0  0
   59.9710   27.4860   47.6020 C   0  0  0  0  0  0  0  0  0  0  0  0
   60.5680   28.1800   48.6590 C   0  0  0  0  0  0  0  0  0  0  0  0
   60.6240   27.5760   50.0260 C   0  0  0  0  0  0  0  0  0  0  0  0
   61.0390   29.4400   48.4590 N   0  0  0  0  0  0  0  0  0  0  0  0
   60.6140   32.4920   46.7840 C   0  0  0  0  0  0  0  0  0  0  0  0
   58.2584   34.8242   45.7250 H   0  0  0  0  0  0  0  0  0  0  0  0
   59.3607   35.7554   44.6552 H   0  0  0  0  0  0  0  0  0  0  0  0
   59.4139   33.9599   44.6552 H   0  0  0  0  0  0  0  0  0  0  0  0
   62.8275   35.0983   46.7010 H   0  0  0  0  0  0  0  0  0  0  0  0
   64.4044   33.2551   47.2582 H   0  0  0  0  0  0  0  0  0  0  0  0
   63.5678   30.9221   47.5162 H   0  0  0  0  0  0  0  0  0  0  0  0
   60.3984   29.8423   45.1619 H   0  0  0  0  0  0  0  0  0  0  0  0
   59.3195   27.9844   44.2835 H   0  0  0  0  0  0  0  0  0  0  0  0
   59.6522   26.3932   45.0758 H   0  0  0  0  0  0  0  0  0  0  0  0
   58.1951   25.2542   46.1138 H   0  0  0  0  0  0  0  0  0  0  0  0
   57.6544   26.4203   47.4070 H   0  0  0  0  0  0  0  0  0  0  0  0
   55.1500   27.4610   46.0190 H   0  0  0  0  0  0  0  0  0  0  0  0
   56.0426   28.2461   46.1787 H   0  0  0  0  0  0  0  0  0  0  0  0
   57.6170   28.7952   46.8670 H   0  0  0  0  0  0  0  0  0  0  0  0
   58.1558   30.9799   46.2163 H   0  0  0  0  0  0  0  0  0  0  0  0
   58.3748   32.7082   44.4213 H   0  0  0  0  0  0  0  0  0  0  0  0
   57.4932   32.2245   42.1305 H   0  0  0  0  0  0  0  0  0  0  0  0
   56.2004   28.3594   43.3771 H   0  0  0  0  0  0  0  0  0  0  0  0
   59.5725   26.4729   47.7595 H   0  0  0  0  0  0  0  0  0  0  0  0
   60.5502   28.3718   50.7818 H   0  0  0  0  0  0  0  0  0  0  0  0
   59.7872   26.8730   50.1508 H   0  0  0  0  0  0  0  0  0  0  0  0
   61.5758   27.0389   50.1508 H   0  0  0  0  0  0  0  0  0  0  0  0
   59.5444   32.2787   46.6410 H   0  0  0  0  0  0  0  0  0  0  0  0
  1  2  1  0
  2  3  1  0
  3  4  2  0
  4  5  1  0
  5  6  2  0
  6  7  1  0
  7  8  1  0
  8  9  2  0
  9 10  1  0
 10 11  1  0
 11 12  1  0
 12 13  1  0
 13 14  1  0
 14 15  1  0
 14 16  2  0
 12 17  1  0
 17 18  1  0
 18 19  2  0
 19 20  1  0
 20 21  2  0
 21 22  1  0
 22 23  2  0
 10 24  2  0
 24 25  1  0
 25 26  1  0
 25 27  2  0
  7 28  2  0
 28  3  1  0
 27  8  1  0
 23 18  1  0
  1 29  1  0
  1 30  1  0
  1 31  1  0
  4 32  1  0
  5 33  1  0
  6 34  1  0
  9 35  1  0
 11 36  1  0
 11 37  1  0
 13 38  1  0
 13 39  1  0
 15 40  1  0
 17 41  1  0
 17 42  1  0
 19 43  1  0
 20 44  1  0
 21 45  1  0
 23 46  1  0
 24 47  1  0
 26 48  1  0
 26 49  1  0
 26 50  1  0
 28 51  1  0
M  CHG  1  15  -1
M  END
>  <UniqueID>  (39) 
37

>  <SMILES>  (39) 
COc1cccc(-c2cc(CN(CC([NH-])=O)Cc3cccnc3)cc(C)n2)c1

>  <Energy>  (39) 
55.013333451431826

>  <Genealogy>  (39) 
COc1cccc(-c2cc(CN(CC([NH-])=O)Cc3cccnc3)cc(C)n2)c1 (protonated)
COc1cccc(-c2cc(CN(CC([NH-])=O)Cc3cccnc3)cc(C)n2)c1 (3D coordinates assigned)
COc1cccc(-c2cc(CN(CC([NH-])=O)Cc3cccnc3)cc(C)n2)c1 (optimized conformer: 55.013333451431826 kcal/mol)

>  <smiles>  (39) 
COc1cccc(-c2cc(CN(CC(N)=O)Cc3cccnc3)cc(C)n2)c1

>  <score_type>  (39) 
oracle

>  <origin>  (39) 
adg

>  <m_score__min__energy>  (39) 
-12.77

>  <m_primary>  (39) 
energy

$$$$
39:0
     RDKit          3D

 36 39  0  0  0  0  0  0  0  0999 V2000
   57.8850   31.6890   42.4730 C   0  0  0  0  0  0  0  0  0  0  0  0
   56.6450   30.8230   42.2840 C   0  0  0  0  0  0  0  0  0  0  0  0
   56.7510   29.6210   43.0410 O   0  0  0  0  0  0  0  0  0  0  0  0
   56.5370   29.5580   44.4240 C   0  0  0  0  0  0  0  0  0  0  0  0
   55.3670   29.4850   44.8890 O   0  0  0  0  0  0  0  0  0  0  0  0
   57.6910   29.5700   45.3430 C   0  0  0  0  0  0  0  0  0  0  0  0
   58.1960   30.7860   45.8240 C   0  0  0  0  0  0  0  0  0  0  0  0
   59.2540   30.8120   46.7110 C   0  0  0  0  0  0  0  0  0  0  0  0
   59.8470   29.6820   47.1610 N   0  0  0  0  0  0  0  0  0  0  0  0
   59.4100   28.4680   46.7200 C   0  0  0  0  0  0  0  0  0  0  0  0
   60.0410   27.3070   47.1800 C   0  0  0  0  0  0  0  0  0  0  0  0
   59.6240   26.0540   46.7300 C   0  0  0  0  0  0  0  0  0  0  0  0
   58.5790   25.9490   45.8090 C   0  0  0  0  0  0  0  0  0  0  0  0
   58.0800   24.3690   45.2340 Cl  0  0  0  0  0  0  0  0  0  0  0  0
   57.9350   27.0980   45.3380 C   0  0  0  0  0  0  0  0  0  0  0  0
   58.3230   28.3760   45.7940 C   0  0  0  0  0  0  0  0  0  0  0  0
   59.5450   32.1880   47.0920 C   0  0  0  0  0  0  0  0  0  0  0  0
   60.5100   32.7030   47.9550 C   0  0  0  0  0  0  0  0  0  0  0  0
   60.5520   34.0960   48.1450 C   0  0  0  0  0  0  0  0  0  0  0  0
   59.6360   34.9360   47.4770 C   0  0  0  0  0  0  0  0  0  0  0  0
   58.6690   34.3940   46.6130 C   0  0  0  0  0  0  0  0  0  0  0  0
   58.6470   33.0110   46.4380 C   0  0  0  0  0  0  0  0  0  0  0  0
   57.7630   32.1770   45.6260 C   0  0  0  0  0  0  0  0  0  0  0  0
   56.7960   32.5790   44.9280 O   0  0  0  0  0  0  0  0  0  0  0  0
   58.0779   31.8237   43.5476 H   0  0  0  0  0  0  0  0  0  0  0  0
   58.7503   31.1978   42.0039 H   0  0  0  0  0  0  0  0  0  0  0  0
   57.7218   32.6705   42.0039 H   0  0  0  0  0  0  0  0  0  0  0  0
   55.7590   31.3831   42.6176 H   0  0  0  0  0  0  0  0  0  0  0  0
   56.5534   30.5636   41.2189 H   0  0  0  0  0  0  0  0  0  0  0  0
   60.8695   27.3825   47.8996 H   0  0  0  0  0  0  0  0  0  0  0  0
   60.1200   25.1453   47.1019 H   0  0  0  0  0  0  0  0  0  0  0  0
   57.1192   27.0046   44.6060 H   0  0  0  0  0  0  0  0  0  0  0  0
   61.2184   32.0395   48.4727 H   0  0  0  0  0  0  0  0  0  0  0  0
   61.3037   34.5333   48.8186 H   0  0  0  0  0  0  0  0  0  0  0  0
   59.6791   36.0239   47.6337 H   0  0  0  0  0  0  0  0  0  0  0  0
   57.9504   35.0422   46.0900 H   0  0  0  0  0  0  0  0  0  0  0  0
  1  2  1  0
  2  3  1  0
  3  4  1  0
  4  5  2  0
  4  6  1  0
  6  7  2  0
  7  8  1  0
  8  9  2  0
  9 10  1  0
 10 11  2  0
 11 12  1  0
 12 13  2  0
 13 14  1  0
 13 15  1  0
 15 16  2  0
  8 17  1  0
 17 18  2  0
 18 19  1  0
 19 20  2  0
 20 21  1  0
 21 22  2  0
 22 23  1  0
 23 24  2  0
 16  6  1  0
 22 17  1  0
 23  7  1  0
 16 10  1  0
  1 25  1  0
  1 26  1  0
  1 27  1  0
  2 28  1  0
  2 29  1  0
 11 30  1  0
 12 31  1  0
 15 32  1  0
 18 33  1  0
 19 34  1  0
 20 35  1  0
 21 36  1  0
M  END
>  <UniqueID>  (40) 
38

>  <SMILES>  (40) 
CCOC(=O)c1c2c(nc3ccc(Cl)cc13)-c1ccccc1C2=O

>  <Energy>  (40) 
82.05590388675749

>  <Genealogy>  (40) 
CCOC(=O)c1c2c(nc3ccc(Cl)cc13)-c1ccccc1C2=O (3D coordinates assigned)
CCOC(=O)c1c2c(nc3ccc(Cl)cc13)-c1ccccc1C2=O (nonaromatic ring conformer: 82.05590388675749 kcal/mol)

>  <smiles>  (40) 
CCOC(=O)c1c2c(nc3ccc(Cl)cc13)-c1ccccc1C2=O

>  <score_type>  (40) 
oracle

>  <origin>  (40) 
adg

>  <m_score__min__energy>  (40) 
-8.5500000000000007

>  <m_primary>  (40) 
energy

$$$$
40:0
     RDKit          3D

 38 41  0  0  0  0  0  0  0  0999 V2000
   65.6820   32.3580   50.4270 C   0  0  0  0  0  0  0  0  0  0  0  0
   65.1580   33.1670   49.3780 O   0  0  0  0  0  0  0  0  0  0  0  0
   63.9480   32.9140   48.7160 C   0  0  0  0  0  0  0  0  0  0  0  0
   63.2270   34.0160   48.1950 C   0  0  0  0  0  0  0  0  0  0  0  0
   62.0070   33.8300   47.5200 C   0  0  0  0  0  0  0  0  0  0  0  0
   61.5390   32.5230   47.3730 C   0  0  0  0  0  0  0  0  0  0  0  0
   62.2220   31.4580   47.8850 C   0  0  0  0  0  0  0  0  0  0  0  0
   63.4310   31.6050   48.5610 C   0  0  0  0  0  0  0  0  0  0  0  0
   61.5370   30.3270   47.6530 N   0  0  0  0  0  0  0  0  0  0  0  0
   60.4310   30.7310   46.9800 C   0  0  0  0  0  0  0  0  0  0  0  0
   59.4250   29.7730   46.4760 C   0  0  0  0  0  0  0  0  0  0  0  0
   58.8880   29.8830   45.1830 C   0  0  0  0  0  0  0  0  0  0  0  0
   57.9550   28.9410   44.7440 C   0  0  0  0  0  0  0  0  0  0  0  0
   57.5790   27.8930   45.5850 C   0  0  0  0  0  0  0  0  0  0  0  0
   58.1500   27.7980   46.8550 C   0  0  0  0  0  0  0  0  0  0  0  0
   59.0540   28.7270   47.2660 N   0  0  0  0  0  0  0  0  0  0  0  0
   60.3980   32.0850   46.8010 N   0  0  0  0  0  0  0  0  0  0  0  0
   59.3500   32.8970   46.2460 C   0  0  0  0  0  0  0  0  0  0  0  0
   59.6510   33.9700   45.3930 C   0  0  0  0  0  0  0  0  0  0  0  0
   58.6120   34.7400   44.8680 C   0  0  0  0  0  0  0  0  0  0  0  0
   57.2890   34.4320   45.1860 C   0  0  0  0  0  0  0  0  0  0  0  0
   57.0240   33.3500   46.0290 C   0  0  0  0  0  0  0  0  0  0  0  0
   58.0500   32.6130   46.5340 N   0  0  0  0  0  0  0  0  0  0  0  0
   65.4017   32.7907   51.3987 H   0  0  0  0  0  0  0  0  0  0  0  0
   65.2706   31.3410   50.3461 H   0  0  0  0  0  0  0  0  0  0  0  0
   66.7783   32.3176   50.3461 H   0  0  0  0  0  0  0  0  0  0  0  0
   63.6272   35.0330   48.3201 H   0  0  0  0  0  0  0  0  0  0  0  0
   61.4411   34.6851   47.1216 H   0  0  0  0  0  0  0  0  0  0  0  0
   63.9670   30.7320   48.9617 H   0  0  0  0  0  0  0  0  0  0  0  0
   61.8080   29.3530   47.9170 H   0  0  0  0  0  0  0  0  0  0  0  0
   59.1998   30.7045   44.5213 H   0  0  0  0  0  0  0  0  0  0  0  0
   57.5178   29.0250   43.7381 H   0  0  0  0  0  0  0  0  0  0  0  0
   56.8404   27.1496   45.2506 H   0  0  0  0  0  0  0  0  0  0  0  0
   57.8686   26.9712   47.5238 H   0  0  0  0  0  0  0  0  0  0  0  0
   60.6962   34.2020   45.1405 H   0  0  0  0  0  0  0  0  0  0  0  0
   58.8359   35.5884   44.2046 H   0  0  0  0  0  0  0  0  0  0  0  0
   56.4640   35.0342   44.7777 H   0  0  0  0  0  0  0  0  0  0  0  0
   55.9852   33.0938   46.2846 H   0  0  0  0  0  0  0  0  0  0  0  0
  1  2  1  0
  2  3  1  0
  3  4  2  0
  4  5  1  0
  5  6  2  0
  6  7  1  0
  7  8  2  0
  7  9  1  0
  9 10  2  0
 10 11  1  0
 11 12  2  0
 12 13  1  0
 13 14  2  0
 14 15  1  0
 15 16  2  0
 10 17  1  0
 17 18  1  0
 18 19  2  0
 19 20  1  0
 20 21  2  0
 21 22  1  0
 22 23  2  0
  8  3  1  0
 16 11  1  0
 23 18  1  0
 17  6  1  0
  1 24  1  0
  1 25  1  0
  1 26  1  0
  4 27  1  0
  5 28  1  0
  8 29  1  0
  9 30  1  0
 12 31  1  0
 13 32  1  0
 14 33  1  0
 15 34  1  0
 19 35  1  0
 20 36  1  0
 21 37  1  0
 22 38  1  0
M  CHG  1   9   1
M  END
>  <UniqueID>  (41) 
39

>  <SMILES>  (41) 
COc1ccc2c(c1)[nH+]c(-c1ccccn1)n2-c1ccccn1

>  <Energy>  (41) 
91.37268051268379

>  <Genealogy>  (41) 
COc1ccc2c(c1)[nH+]c(-c1ccccn1)n2-c1ccccn1 (protonated)
COc1ccc2c(c1)[nH+]c(-c1ccccn1)n2-c1ccccn1 (3D coordinates assigned)
COc1ccc2c(c1)[nH+]c(-c1ccccn1)n2-c1ccccn1 (optimized conformer: 91.37268051268379 kcal/mol)

>  <smiles>  (41) 
COc1ccc2c(c1)nc(-c1ccccn1)n2-c1ccccn1

>  <score_type>  (41) 
oracle

>  <origin>  (41) 
adg

>  <m_score__min__energy>  (41) 
-5.2999999999999998

>  <m_primary>  (41) 
energy

$$$$
41:0
     RDKit          3D

 33 33  0  0  0  0  0  0  0  0999 V2000
   58.3315   29.2773   44.3034 H   0  0  0  0  0  0  0  0  0  0  0  0
   57.4870   29.9810   44.2630 C   0  0  0  0  0  0  0  0  0  0  0  0
   56.1510   29.5170   44.6740 C   0  0  0  0  0  0  0  0  0  0  0  0
   55.1670   30.2780   44.4830 O   0  0  0  0  0  0  0  0  0  0  0  0
   55.9210   28.2240   45.2520 N   0  0  0  0  0  0  0  0  0  0  0  0
   56.9210   27.3620   45.8820 C   0  0  0  0  0  0  0  0  0  0  0  0
   56.8454   27.4642   46.9746 H   0  0  0  0  0  0  0  0  0  0  0  0
   57.9169   27.6704   45.5312 H   0  0  0  0  0  0  0  0  0  0  0  0
   56.7060   25.8910   45.5010 C   0  0  0  0  0  0  0  0  0  0  0  0
   57.6585   25.3506   45.6047 H   0  0  0  0  0  0  0  0  0  0  0  0
   56.3474   25.8492   44.4619 H   0  0  0  0  0  0  0  0  0  0  0  0
   55.6930   25.2550   46.3720 N   0  0  0  0  0  0  0  0  0  0  0  0
   54.7340   24.4630   45.5830 C   0  0  0  0  0  0  0  0  0  0  0  0
   54.0669   23.9121   46.2623 H   0  0  0  0  0  0  0  0  0  0  0  0
   54.1375   25.1352   44.9487 H   0  0  0  0  0  0  0  0  0  0  0  0
   55.2814   23.7502   44.9487 H   0  0  0  0  0  0  0  0  0  0  0  0
   56.3420   24.3890   47.3690 C   0  0  0  0  0  0  0  0  0  0  0  0
   56.0823   24.7355   48.3802 H   0  0  0  0  0  0  0  0  0  0  0  0
   55.9957   23.3534   47.2361 H   0  0  0  0  0  0  0  0  0  0  0  0
   57.4331   24.4307   47.2361 H   0  0  0  0  0  0  0  0  0  0  0  0
   57.7050   31.2320   43.8420 C   0  0  0  0  0  0  0  0  0  0  0  0
   57.5746   31.4469   42.7711 H   0  0  0  0  0  0  0  0  0  0  0  0
   58.1120   32.3470   44.7320 C   0  0  0  0  0  0  0  0  0  0  0  0
   58.0700   32.1430   46.1220 C   0  0  0  0  0  0  0  0  0  0  0  0
   57.7367   31.1736   46.5208 H   0  0  0  0  0  0  0  0  0  0  0  0
   58.4480   33.1610   47.0020 C   0  0  0  0  0  0  0  0  0  0  0  0
   58.4179   32.9870   48.0877 H   0  0  0  0  0  0  0  0  0  0  0  0
   58.8640   34.3990   46.5060 C   0  0  0  0  0  0  0  0  0  0  0  0
   59.2280   35.3850   47.3610 F   0  0  0  0  0  0  0  0  0  0  0  0
   58.8960   34.6210   45.1280 C   0  0  0  0  0  0  0  0  0  0  0  0
   59.2178   35.5977   44.7374 H   0  0  0  0  0  0  0  0  0  0  0  0
   58.5200   33.6050   44.2420 C   0  0  0  0  0  0  0  0  0  0  0  0
   58.5428   33.7886   43.1577 H   0  0  0  0  0  0  0  0  0  0  0  0
  1  2  1  0
  2  3  1  0
  3  4  2  0
  3  5  1  0
  5  6  1  0
  6  7  1  0
  6  8  1  0
  6  9  1  0
  9 10  1  0
  9 11  1  0
  9 12  1  0
 12 13  1  0
 13 14  1  0
 13 15  1  0
 13 16  1  0
 12 17  1  0
 17 18  1  0
 17 19  1  0
 17 20  1  0
  2 21  2  0
 21 22  1  0
 21 23  1  0
 23 24  2  0
 24 25  1  0
 24 26  1  0
 26 27  1  0
 26 28  2  0
 28 29  1  0
 28 30  1  0
 30 31  1  0
 30 32  2  0
 32 33  1  0
 32 23  1  0
M  CHG  1   5  -1
M  END
>  <UniqueID>  (42) 
40

>  <SMILES>  (42) 
CN(C)CC[N-]C(=O)/C=C/c1ccc(F)cc1

>  <Energy>  (42) 
34.47794272945209

>  <Genealogy>  (42) 
CN(C)CC[N-]C(=O)C=Cc1ccc(F)cc1 (protonated)
CN(C)CC[N-]C(=O)/C=C/c1ccc(F)cc1 (cis-trans isomerization)
CN(C)CC[N-]C(=O)/C=C/c1ccc(F)cc1 (3D coordinates assigned)
CN(C)CC[N-]C(=O)/C=C/c1ccc(F)cc1 (optimized conformer: 34.47794272945209 kcal/mol)

>  <smiles>  (42) 
CN(C)CCNC(=O)C=Cc1ccc(F)cc1

>  <score_type>  (42) 
oracle

>  <origin>  (42) 
adg

>  <m_score__min__energy>  (42) 
-8.4100000000000001

>  <m_primary>  (42) 
energy

$$$$
42:0
     RDKit          3D

 34 37  0  0  0  0  0  0  0  0999 V2000
   57.0560   23.9470   43.7160 C   0  0  0  0  0  0  0  0  0  0  0  0
   57.3910   25.3530   44.1170 C   0  0  0  0  0  0  0  0  0  0  0  0
   57.2460   25.7610   45.4510 C   0  0  0  0  0  0  0  0  0  0  0  0
   57.5220   27.0810   45.8180 C   0  0  0  0  0  0  0  0  0  0  0  0
   57.9390   28.0170   44.8550 C   0  0  0  0  0  0  0  0  0  0  0  0
   58.2170   29.3810   45.2240 N   0  0  0  0  0  0  0  0  0  0  0  0
   59.3350   29.7790   45.8300 N   0  0  0  0  0  0  0  0  0  0  0  0
   59.2510   31.1110   46.0270 C   0  0  0  0  0  0  0  0  0  0  0  0
   58.0570   31.5730   45.5430 C   0  0  0  0  0  0  0  0  0  0  0  0
   57.7060   32.9150   45.6260 C   0  0  0  0  0  0  0  0  0  0  0  0
   58.5960   33.7740   46.2030 N   0  0  0  0  0  0  0  0  0  0  0  0
   59.8050   33.3520   46.6970 C   0  0  0  0  0  0  0  0  0  0  0  0
   60.6830   34.2710   47.2800 C   0  0  0  0  0  0  0  0  0  0  0  0
   61.9140   33.8410   47.7850 C   0  0  0  0  0  0  0  0  0  0  0  0
   62.2780   32.4910   47.7120 C   0  0  0  0  0  0  0  0  0  0  0  0
   63.4730   32.0860   48.2050 F   0  0  0  0  0  0  0  0  0  0  0  0
   61.4110   31.5580   47.1320 C   0  0  0  0  0  0  0  0  0  0  0  0
   60.1740   31.9790   46.6210 C   0  0  0  0  0  0  0  0  0  0  0  0
   57.4190   30.4630   45.0430 C   0  0  0  0  0  0  0  0  0  0  0  0
   56.2680   30.4380   44.5330 O   0  0  0  0  0  0  0  0  0  0  0  0
   58.0580   27.6090   43.5160 C   0  0  0  0  0  0  0  0  0  0  0  0
   57.7830   26.2890   43.1490 C   0  0  0  0  0  0  0  0  0  0  0  0
   56.9098   23.3336   44.6173 H   0  0  0  0  0  0  0  0  0  0  0  0
   56.1326   23.9463   43.1183 H   0  0  0  0  0  0  0  0  0  0  0  0
   57.8799   23.5300   43.1183 H   0  0  0  0  0  0  0  0  0  0  0  0
   56.9137   25.0391   46.2115 H   0  0  0  0  0  0  0  0  0  0  0  0
   57.4122   27.3900   46.8680 H   0  0  0  0  0  0  0  0  0  0  0  0
   60.1350   29.1560   46.0810 H   0  0  0  0  0  0  0  0  0  0  0  0
   56.7410   33.2738   45.2388 H   0  0  0  0  0  0  0  0  0  0  0  0
   60.4050   35.3335   47.3414 H   0  0  0  0  0  0  0  0  0  0  0  0
   62.6009   34.5681   48.2426 H   0  0  0  0  0  0  0  0  0  0  0  0
   61.6985   30.4977   47.0769 H   0  0  0  0  0  0  0  0  0  0  0  0
   58.3702   28.3344   42.7503 H   0  0  0  0  0  0  0  0  0  0  0  0
   57.8744   25.9828   42.0964 H   0  0  0  0  0  0  0  0  0  0  0  0
  1  2  1  0
  2  3  2  0
  3  4  1  0
  4  5  2  0
  5  6  1  0
  6  7  1  0
  7  8  1  0
  8  9  2  0
  9 10  1  0
 10 11  2  0
 11 12  1  0
 12 13  2  0
 13 14  1  0
 14 15  2  0
 15 16  1  0
 15 17  1  0
 17 18  2  0
  9 19  1  0
 19 20  2  0
  5 21  1  0
 21 22  2  0
 22  2  1  0
 19  6  1  0
 18  8  1  0
 18 12  1  0
  1 23  1  0
  1 24  1  0
  1 25  1  0
  3 26  1  0
  4 27  1  0
  7 28  1  0
 10 29  1  0
 13 30  1  0
 14 31  1  0
 17 32  1  0
 21 33  1  0
 22 34  1  0
M  END
>  <UniqueID>  (43) 
41

>  <SMILES>  (43) 
Cc1ccc(-n2[nH]c3c(cnc4ccc(F)cc43)c2=O)cc1

>  <Energy>  (43) 
88.8655117599624

>  <Genealogy>  (43) 
Cc1ccc(-n2[nH]c3c(cnc4ccc(F)cc43)c2=O)cc1 (3D coordinates assigned)
Cc1ccc(-n2[nH]c3c(cnc4ccc(F)cc43)c2=O)cc1 (optimized conformer: 88.8655117599624 kcal/mol)

>  <smiles>  (43) 
Cc1ccc(-n2[nH]c3c(cnc4ccc(F)cc43)c2=O)cc1

>  <score_type>  (43) 
oracle

>  <origin>  (43) 
adg

>  <m_score__min__energy>  (43) 
-7.2699999999999996

>  <m_primary>  (43) 
energy

$$$$
43:0
     RDKit          3D

 57 60  0  0  0  0  0  0  0  0999 V2000
   59.3310   34.9600   46.4060 C   0  0  0  0  0  0  0  0  0  0  0  0
   60.6470   34.2120   46.5940 C   0  0  0  0  0  0  0  0  0  0  0  0
   60.7170   33.5490   47.9770 C   0  0  0  0  0  0  0  0  0  0  0  0
   61.6380   32.3870   47.9590 N   0  0  0  0  0  0  0  0  0  0  0  0
   61.6400   31.6270   49.2320 C   0  0  0  0  0  0  0  0  0  0  0  0
   60.4150   30.7090   49.3680 C   0  0  0  0  0  0  0  0  0  0  0  0
   60.1500   29.9940   48.1180 N   0  0  0  0  0  0  0  0  0  0  0  0
   58.9890   29.1440   48.0220 C   0  0  0  0  0  0  0  0  0  0  0  0
   58.5120   28.6180   49.0630 O   0  0  0  0  0  0  0  0  0  0  0  0
   58.3390   28.8680   46.7210 C   0  0  0  0  0  0  0  0  0  0  0  0
   57.9700   27.5500   46.4300 C   0  0  0  0  0  0  0  0  0  0  0  0
   57.4090   27.2300   45.1860 C   0  0  0  0  0  0  0  0  0  0  0  0
   57.0280   25.8290   44.8740 C   0  0  0  0  0  0  0  0  0  0  0  0
   57.3920   25.2400   43.6510 C   0  0  0  0  0  0  0  0  0  0  0  0
   57.0280   23.9210   43.3610 C   0  0  0  0  0  0  0  0  0  0  0  0
   56.2920   23.1670   44.2930 C   0  0  0  0  0  0  0  0  0  0  0  0
   55.9040   21.8410   44.0510 O   0  0  0  0  0  0  0  0  0  0  0  0
   56.8090   20.7480   43.9310 C   0  0  0  0  0  0  0  0  0  0  0  0
   55.9280   23.7540   45.5100 C   0  0  0  0  0  0  0  0  0  0  0  0
   56.2900   25.0720   45.8010 C   0  0  0  0  0  0  0  0  0  0  0  0
   57.2180   28.2160   44.2600 N   0  0  0  0  0  0  0  0  0  0  0  0
   57.5400   29.5170   44.5150 C   0  0  0  0  0  0  0  0  0  0  0  0
   57.3110   30.5010   43.5390 C   0  0  0  0  0  0  0  0  0  0  0  0
   57.6140   31.8380   43.8020 C   0  0  0  0  0  0  0  0  0  0  0  0
   58.1360   32.2080   45.0410 C   0  0  0  0  0  0  0  0  0  0  0  0
   58.3690   31.2420   46.0220 C   0  0  0  0  0  0  0  0  0  0  0  0
   58.0990   29.8810   45.7650 C   0  0  0  0  0  0  0  0  0  0  0  0
   61.1390   30.0690   47.0380 C   0  0  0  0  0  0  0  0  0  0  0  0
   61.4800   31.5380   46.7430 C   0  0  0  0  0  0  0  0  0  0  0  0
   58.9035   35.2030   47.3900 H   0  0  0  0  0  0  0  0  0  0  0  0
   59.5140   35.8891   45.8462 H   0  0  0  0  0  0  0  0  0  0  0  0
   58.6264   34.3274   45.8462 H   0  0  0  0  0  0  0  0  0  0  0  0
   60.7321   33.4357   45.8194 H   0  0  0  0  0  0  0  0  0  0  0  0
   61.4726   34.9343   46.5122 H   0  0  0  0  0  0  0  0  0  0  0  0
   61.0784   34.2840   48.7112 H   0  0  0  0  0  0  0  0  0  0  0  0
   59.7113   33.1970   48.2501 H   0  0  0  0  0  0  0  0  0  0  0  0
   62.5500   31.0104   49.2739 H   0  0  0  0  0  0  0  0  0  0  0  0
   61.6076   32.3541   50.0568 H   0  0  0  0  0  0  0  0  0  0  0  0
   60.6016   29.9772   50.1677 H   0  0  0  0  0  0  0  0  0  0  0  0
   59.5388   31.3293   49.6079 H   0  0  0  0  0  0  0  0  0  0  0  0
   58.1210   26.7609   47.1814 H   0  0  0  0  0  0  0  0  0  0  0  0
   57.9679   25.8211   42.9157 H   0  0  0  0  0  0  0  0  0  0  0  0
   57.3185   23.4714   42.4000 H   0  0  0  0  0  0  0  0  0  0  0  0
   57.0977   20.3993   44.9335 H   0  0  0  0  0  0  0  0  0  0  0  0
   56.3224   19.9274   43.3834 H   0  0  0  0  0  0  0  0  0  0  0  0
   57.7059   21.0730   43.3834 H   0  0  0  0  0  0  0  0  0  0  0  0
   55.3515   23.1725   46.2445 H   0  0  0  0  0  0  0  0  0  0  0  0
   55.9957   25.5201   46.7615 H   0  0  0  0  0  0  0  0  0  0  0  0
   56.8250   27.9650   43.3230 H   0  0  0  0  0  0  0  0  0  0  0  0
   56.8910   30.2166   42.5629 H   0  0  0  0  0  0  0  0  0  0  0  0
   57.4405   32.6019   43.0297 H   0  0  0  0  0  0  0  0  0  0  0  0
   58.3649   33.2642   45.2462 H   0  0  0  0  0  0  0  0  0  0  0  0
   58.7659   31.5442   47.0024 H   0  0  0  0  0  0  0  0  0  0  0  0
   62.0522   29.5364   47.3419 H   0  0  0  0  0  0  0  0  0  0  0  0
   60.7222   29.6047   46.1320 H   0  0  0  0  0  0  0  0  0  0  0  0
   62.4235   31.5660   46.1782 H   0  0  0  0  0  0  0  0  0  0  0  0
   60.6314   31.9513   46.1781 H   0  0  0  0  0  0  0  0  0  0  0  0
  1  2  1  0
  2  3  1  0
  3  4  1  0
  4  5  1  0
  5  6  1  0
  6  7  1  0
  7  8  1  0
  8  9  2  0
  8 10  1  0
 10 11  2  0
 11 12  1  0
 12 13  1  0
 13 14  2  0
 14 15  1  0
 15 16  2  0
 16 17  1  0
 17 18  1  0
 16 19  1  0
 19 20  2  0
 12 21  2  0
 21 22  1  0
 22 23  2  0
 23 24  1  0
 24 25  2  0
 25 26  1  0
 26 27  2  0
  7 28  1  0
 28 29  1  0
 29  4  1  0
 27 10  1  0
 20 13  1  0
 27 22  1  0
  1 30  1  0
  1 31  1  0
  1 32  1  0
  2 33  1  0
  2 34  1  0
  3 35  1  0
  3 36  1  0
  5 37  1  0
  5 38  1  0
  6 39  1  0
  6 40  1  0
 11 41  1  0
 14 42  1  0
 15 43  1  0
 18 44  1  0
 18 45  1  0
 18 46  1  0
 19 47  1  0
 20 48  1  0
 21 49  1  0
 23 50  1  0
 24 51  1  0
 25 52  1  0
 26 53  1  0
 28 54  1  0
 28 55  1  0
 29 56  1  0
 29 57  1  0
M  CHG  1  21   1
M  END
>  <UniqueID>  (44) 
42

>  <SMILES>  (44) 
CCCN1CCN(C(=O)c2cc(-c3ccc(OC)cc3)[nH+]c3ccccc23)CC1

>  <Energy>  (44) 
80.17136327248922

>  <Genealogy>  (44) 
CCCN1CCN(C(=O)c2cc(-c3ccc(OC)cc3)[nH+]c3ccccc23)CC1 (protonated)
CCCN1CCN(C(=O)c2cc(-c3ccc(OC)cc3)[nH+]c3ccccc23)CC1 (3D coordinates assigned)
CCCN1CCN(C(=O)c2cc(-c3ccc(OC)cc3)[nH+]c3ccccc23)CC1 (nonaromatic ring conformer: 80.17136327248922 kcal/mol)

>  <smiles>  (44) 
CCCN1CCN(C(=O)c2cc(-c3ccc(OC)cc3)nc3ccccc23)CC1

>  <score_type>  (44) 
oracle

>  <origin>  (44) 
adg

>  <m_score__min__energy>  (44) 
-6.7300000000000004

>  <m_primary>  (44) 
energy

$$$$
44:0
     RDKit          3D

 51 52  0  0  0  0  0  0  0  0999 V2000
   58.4270   25.6800   46.9650 C   0  0  0  0  0  0  0  0  0  0  0  0
   58.9540   26.2710   45.6620 C   0  0  0  0  0  0  0  0  0  0  0  0
   57.8240   26.8970   44.8390 C   0  0  0  0  0  0  0  0  0  0  0  0
   56.6050   27.1880   45.7180 C   0  0  0  0  0  0  0  0  0  0  0  0
   55.8890   28.3230   45.2350 O   0  0  0  0  0  0  0  0  0  0  0  0
   56.4470   29.3990   44.5210 C   0  0  0  0  0  0  0  0  0  0  0  0
   56.0450   29.7230   43.2060 C   0  0  0  0  0  0  0  0  0  0  0  0
   56.6450   30.7870   42.5240 C   0  0  0  0  0  0  0  0  0  0  0  0
   57.6510   31.5340   43.1380 C   0  0  0  0  0  0  0  0  0  0  0  0
   58.0460   31.2330   44.4420 C   0  0  0  0  0  0  0  0  0  0  0  0
   57.4250   30.1870   45.1520 C   0  0  0  0  0  0  0  0  0  0  0  0
   57.8280   29.8580   46.4890 N   0  0  0  0  0  0  0  0  0  0  0  0
   59.1610   29.5630   46.9310 C   0  0  0  0  0  0  0  0  0  0  0  0
   60.1310   30.0270   46.2740 O   0  0  0  0  0  0  0  0  0  0  0  0
   59.4240   28.7120   48.1510 C   0  0  0  0  0  0  0  0  0  0  0  0
   59.1550   29.4520   49.4750 C   0  0  0  0  0  0  0  0  0  0  0  0
   60.3960   29.6180   50.3730 C   0  0  0  0  0  0  0  0  0  0  0  0
   60.6940   31.0760   50.7360 C   0  0  0  0  0  0  0  0  0  0  0  0
   59.6060   31.9120   50.3480 O   0  0  0  0  0  0  0  0  0  0  0  0
   59.4930   32.5350   49.0960 C   0  0  0  0  0  0  0  0  0  0  0  0
   58.2420   32.5440   48.4690 C   0  0  0  0  0  0  0  0  0  0  0  0
   58.0710   33.1580   47.2230 C   0  0  0  0  0  0  0  0  0  0  0  0
   59.1560   33.7730   46.5910 C   0  0  0  0  0  0  0  0  0  0  0  0
   58.9210   34.6180   44.8920 Br  0  0  0  0  0  0  0  0  0  0  0  0
   60.4120   33.7700   47.2060 C   0  0  0  0  0  0  0  0  0  0  0  0
   60.5840   33.1530   48.4520 C   0  0  0  0  0  0  0  0  0  0  0  0
   58.8901   26.1994   47.8169 H   0  0  0  0  0  0  0  0  0  0  0  0
   57.3350   25.8049   47.0091 H   0  0  0  0  0  0  0  0  0  0  0  0
   58.6757   24.6094   47.0091 H   0  0  0  0  0  0  0  0  0  0  0  0
   59.6993   27.0457   45.8953 H   0  0  0  0  0  0  0  0  0  0  0  0
   59.4071   25.4613   45.0711 H   0  0  0  0  0  0  0  0  0  0  0  0
   58.1806   27.8380   44.3947 H   0  0  0  0  0  0  0  0  0  0  0  0
   57.5284   26.1882   44.0514 H   0  0  0  0  0  0  0  0  0  0  0  0
   55.9390   26.3125   45.7116 H   0  0  0  0  0  0  0  0  0  0  0  0
   56.9512   27.3997   46.7404 H   0  0  0  0  0  0  0  0  0  0  0  0
   55.2554   29.1351   42.7153 H   0  0  0  0  0  0  0  0  0  0  0  0
   56.3231   31.0352   41.5018 H   0  0  0  0  0  0  0  0  0  0  0  0
   58.1326   32.3600   42.5942 H   0  0  0  0  0  0  0  0  0  0  0  0
   58.8476   31.8164   44.9186 H   0  0  0  0  0  0  0  0  0  0  0  0
   58.7731   27.8264   48.1067 H   0  0  0  0  0  0  0  0  0  0  0  0
   60.4901   28.4415   48.1379 H   0  0  0  0  0  0  0  0  0  0  0  0
   58.7657   30.4529   49.2371 H   0  0  0  0  0  0  0  0  0  0  0  0
   58.4384   28.8371   50.0392 H   0  0  0  0  0  0  0  0  0  0  0  0
   60.2314   29.0539   51.3029 H   0  0  0  0  0  0  0  0  0  0  0  0
   61.2599   29.2417   49.8056 H   0  0  0  0  0  0  0  0  0  0  0  0
   60.8446   31.1565   51.8227 H   0  0  0  0  0  0  0  0  0  0  0  0
   61.6021   31.3995   50.2062 H   0  0  0  0  0  0  0  0  0  0  0  0
   57.3836   32.0632   48.9609 H   0  0  0  0  0  0  0  0  0  0  0  0
   57.0824   33.1567   46.7406 H   0  0  0  0  0  0  0  0  0  0  0  0
   61.2669   34.2532   46.7103 H   0  0  0  0  0  0  0  0  0  0  0  0
   61.5748   33.1508   48.9298 H   0  0  0  0  0  0  0  0  0  0  0  0
  1  2  1  0
  2  3  1  0
  3  4  1  0
  4  5  1  0
  5  6  1  0
  6  7  2  0
  7  8  1  0
  8  9  2  0
  9 10  1  0
 10 11  2  0
 11 12  1  0
 12 13  1  0
 13 14  2  0
 13 15  1  0
 15 16  1  0
 16 17  1  0
 17 18  1  0
 18 19  1  0
 19 20  1  0
 20 21  2  0
 21 22  1  0
 22 23  2  0
 23 24  1  0
 23 25  1  0
 25 26  2  0
 11  6  1  0
 26 20  1  0
  1 27  1  0
  1 28  1  0
  1 29  1  0
  2 30  1  0
  2 31  1  0
  3 32  1  0
  3 33  1  0
  4 34  1  0
  4 35  1  0
  7 36  1  0
  8 37  1  0
  9 38  1  0
 10 39  1  0
 15 40  1  0
 15 41  1  0
 16 42  1  0
 16 43  1  0
 17 44  1  0
 17 45  1  0
 18 46  1  0
 18 47  1  0
 21 48  1  0
 22 49  1  0
 25 50  1  0
 26 51  1  0
M  CHG  1  12  -1
M  END
>  <UniqueID>  (45) 
43

>  <SMILES>  (45) 
CCCCOc1ccccc1[N-]C(=O)CCCCOc1ccc(Br)cc1

>  <Energy>  (45) 
42.23487862353096

>  <Genealogy>  (45) 
CCCCOc1ccccc1[N-]C(=O)CCCCOc1ccc(Br)cc1 (protonated)
CCCCOc1ccccc1[N-]C(=O)CCCCOc1ccc(Br)cc1 (3D coordinates assigned)
CCCCOc1ccccc1[N-]C(=O)CCCCOc1ccc(Br)cc1 (optimized conformer: 42.23487862353096 kcal/mol)

>  <smiles>  (45) 
CCCCOc1ccccc1NC(=O)CCCCOc1ccc(Br)cc1

>  <score_type>  (45) 
oracle

>  <origin>  (45) 
adg

>  <m_score__min__energy>  (45) 
-10.779999999999999

>  <m_primary>  (45) 
energy

$$$$
45:0
     RDKit          3D

 46 47  0  0  0  0  0  0  0  0999 V2000
   59.2550   34.8590   44.8680 C   0  0  0  0  0  0  0  0  0  0  0  0
   57.9700   34.1920   45.3830 C   0  0  0  0  0  0  0  0  0  0  0  0
   58.0290   32.7070   45.4270 N   0  0  2  0  0  0  0  0  0  0  0  0
   56.8000   32.1040   44.8360 C   0  0  0  0  0  0  0  0  0  0  0  0
   57.0600   30.7470   44.1500 C   0  0  0  0  0  0  0  0  0  0  0  0
   55.7640   29.9340   44.0660 C   0  0  0  0  0  0  0  0  0  0  0  0
   55.6530   29.0060   45.1880 N   0  0  0  0  0  0  0  0  0  0  0  0
   56.6360   28.0450   45.5950 C   0  0  0  0  0  0  0  0  0  0  0  0
   56.2500   26.9180   46.0000 O   0  0  0  0  0  0  0  0  0  0  0  0
   58.0840   28.3390   45.5630 C   0  0  0  0  0  0  0  0  0  0  0  0
   58.7040   28.9390   46.6740 C   0  0  0  0  0  0  0  0  0  0  0  0
   57.9930   29.2200   47.7960 F   0  0  0  0  0  0  0  0  0  0  0  0
   60.0740   29.2160   46.6530 C   0  0  0  0  0  0  0  0  0  0  0  0
   60.8410   28.8710   45.5400 C   0  0  0  0  0  0  0  0  0  0  0  0
   60.2450   28.2360   44.4500 C   0  0  0  0  0  0  0  0  0  0  0  0
   58.8720   27.9620   44.4540 C   0  0  0  0  0  0  0  0  0  0  0  0
   58.1720   27.1510   43.0580 Cl  0  0  0  0  0  0  0  0  0  0  0  0
   58.2960   32.2320   46.8120 C   0  0  0  0  0  0  0  0  0  0  0  0
   59.5960   32.7550   47.3750 C   0  0  0  0  0  0  0  0  0  0  0  0
   59.5940   33.6330   48.4750 C   0  0  0  0  0  0  0  0  0  0  0  0
   60.7920   34.1860   48.9380 C   0  0  0  0  0  0  0  0  0  0  0  0
   62.0020   33.8550   48.3190 C   0  0  0  0  0  0  0  0  0  0  0  0
   62.0130   32.9840   47.2270 C   0  0  0  0  0  0  0  0  0  0  0  0
   60.8170   32.4430   46.7490 C   0  0  0  0  0  0  0  0  0  0  0  0
   59.8701   35.1783   45.7222 H   0  0  0  0  0  0  0  0  0  0  0  0
   59.8211   34.1409   44.2566 H   0  0  0  0  0  0  0  0  0  0  0  0
   58.9936   35.7352   44.2566 H   0  0  0  0  0  0  0  0  0  0  0  0
   57.7748   34.5597   46.4012 H   0  0  0  0  0  0  0  0  0  0  0  0
   57.1713   34.4555   44.6740 H   0  0  0  0  0  0  0  0  0  0  0  0
   58.8460   32.4570   44.8210 H   0  0  0  0  0  0  0  0  0  0  0  0
   56.0628   31.9547   45.6387 H   0  0  0  0  0  0  0  0  0  0  0  0
   56.4343   32.7966   44.0636 H   0  0  0  0  0  0  0  0  0  0  0  0
   57.4445   30.9221   43.1344 H   0  0  0  0  0  0  0  0  0  0  0  0
   57.7969   30.1837   44.7413 H   0  0  0  0  0  0  0  0  0  0  0  0
   54.9062   30.6224   44.0827 H   0  0  0  0  0  0  0  0  0  0  0  0
   55.7752   29.3535   43.1317 H   0  0  0  0  0  0  0  0  0  0  0  0
   60.5481   29.7069   47.5157 H   0  0  0  0  0  0  0  0  0  0  0  0
   61.9168   29.0998   45.5217 H   0  0  0  0  0  0  0  0  0  0  0  0
   60.8574   27.9490   43.5825 H   0  0  0  0  0  0  0  0  0  0  0  0
   57.4733   32.5655   47.4616 H   0  0  0  0  0  0  0  0  0  0  0  0
   58.3712   31.1352   46.7749 H   0  0  0  0  0  0  0  0  0  0  0  0
   58.6460   33.8853   48.9726 H   0  0  0  0  0  0  0  0  0  0  0  0
   60.7829   34.8820   49.7898 H   0  0  0  0  0  0  0  0  0  0  0  0
   62.9451   34.2807   48.6923 H   0  0  0  0  0  0  0  0  0  0  0  0
   62.9655   32.7235   46.7424 H   0  0  0  0  0  0  0  0  0  0  0  0
   60.8298   31.7699   45.8791 H   0  0  0  0  0  0  0  0  0  0  0  0
  1  2  1  0
  2  3  1  0
  3  4  1  0
  4  5  1  0
  5  6  1  0
  6  7  1  0
  7  8  1  0
  8  9  2  0
  8 10  1  0
 10 11  2  0
 11 12  1  0
 11 13  1  0
 13 14  2  0
 14 15  1  0
 15 16  2  0
 16 17  1  0
  3 18  1  0
 18 19  1  0
 19 20  2  0
 20 21  1  0
 21 22  2  0
 22 23  1  0
 23 24  2  0
 16 10  1  0
 24 19  1  0
  1 25  1  0
  1 26  1  0
  1 27  1  0
  2 28  1  0
  2 29  1  0
  3 30  1  6
  4 31  1  0
  4 32  1  0
  5 33  1  0
  5 34  1  0
  6 35  1  0
  6 36  1  0
 13 37  1  0
 14 38  1  0
 15 39  1  0
 18 40  1  0
 18 41  1  0
 20 42  1  0
 21 43  1  0
 22 44  1  0
 23 45  1  0
 24 46  1  0
M  CHG  2   3   1   7  -1
M  END
>  <UniqueID>  (46) 
44

>  <SMILES>  (46) 
CC[N@H+](CCC[N-]C(=O)c1c(F)cccc1Cl)Cc1ccccc1

>  <Energy>  (46) 
51.816149061500695

>  <Genealogy>  (46) 
CC[NH+](CCC[N-]C(=O)c1c(F)cccc1Cl)Cc1ccccc1 (protonated)
CC[N@H+](CCC[N-]C(=O)c1c(F)cccc1Cl)Cc1ccccc1 (chirality)
CC[N@H+](CCC[N-]C(=O)c1c(F)cccc1Cl)Cc1ccccc1 (3D coordinates assigned)
CC[N@H+](CCC[N-]C(=O)c1c(F)cccc1Cl)Cc1ccccc1 (optimized conformer: 51.816149061500695 kcal/mol)

>  <smiles>  (46) 
CCN(CCCNC(=O)c1c(F)cccc1Cl)Cc1ccccc1

>  <score_type>  (46) 
oracle

>  <origin>  (46) 
adg

>  <m_score__min__energy>  (46) 
-7.4000000000000004

>  <m_primary>  (46) 
energy

$$$$
46:0
     RDKit          3D

 58 60  0  0  0  0  0  0  0  0999 V2000
   57.3950   32.7030   45.1550 C   0  0  0  0  0  0  0  0  0  0  0  0
   57.0230   31.3610   45.3780 O   0  0  0  0  0  0  0  0  0  0  0  0
   57.1960   30.6060   44.1920 C   0  0  1  0  0  0  0  0  0  0  0  0
   58.5570   30.2420   44.0590 O   0  0  0  0  0  0  0  0  0  0  0  0
   58.6420   28.8370   44.1570 C   0  0  1  0  0  0  0  0  0  0  0  0
   59.9080   28.4190   44.9390 C   0  0  0  0  0  0  0  0  0  0  0  0
   59.9720   28.9780   46.3050 N   0  0  0  0  0  0  0  0  0  0  0  0
   59.9580   27.9870   47.3980 C   0  0  0  0  0  0  0  0  0  0  0  0
   59.5230   28.5790   48.7420 C   0  0  0  0  0  0  0  0  0  0  0  0
   58.9440   29.8600   48.5170 O   0  0  0  0  0  0  0  0  0  0  0  0
   58.9220   30.9050   49.4540 C   0  0  0  0  0  0  0  0  0  0  0  0
   58.6320   30.6760   50.8120 C   0  0  0  0  0  0  0  0  0  0  0  0
   58.6340   31.7330   51.7240 C   0  0  0  0  0  0  0  0  0  0  0  0
   58.9410   33.0330   51.3000 C   0  0  0  0  0  0  0  0  0  0  0  0
   58.9120   34.1710   52.2770 C   0  0  0  0  0  0  0  0  0  0  0  0
   59.2140   33.2700   49.9460 C   0  0  0  0  0  0  0  0  0  0  0  0
   59.2050   32.2150   49.0170 C   0  0  0  0  0  0  0  0  0  0  0  0
   59.5580   32.4840   47.5740 C   0  0  0  0  0  0  0  0  0  0  0  0
   61.0440   32.6770   47.4180 C   0  0  0  0  0  0  0  0  0  0  0  0
   61.9400   31.8040   48.0600 C   0  0  0  0  0  0  0  0  0  0  0  0
   63.3190   31.9540   47.8820 C   0  0  0  0  0  0  0  0  0  0  0  0
   63.8140   32.9720   47.0620 C   0  0  0  0  0  0  0  0  0  0  0  0
   62.9300   33.8450   46.4220 C   0  0  0  0  0  0  0  0  0  0  0  0
   61.5510   33.7020   46.6010 C   0  0  0  0  0  0  0  0  0  0  0  0
   57.3430   28.3110   44.7680 C   0  0  1  0  0  0  0  0  0  0  0  0
   57.3980   28.3310   46.1740 O   0  0  0  0  0  0  0  0  0  0  0  0
   56.3580   29.3290   44.2590 C   0  0  1  0  0  0  0  0  0  0  0  0
   55.2450   29.4530   45.1080 O   0  0  0  0  0  0  0  0  0  0  0  0
   57.5355   33.2099   46.1211 H   0  0  0  0  0  0  0  0  0  0  0  0
   58.3353   32.7330   44.5850 H   0  0  0  0  0  0  0  0  0  0  0  0
   56.6043   33.2128   44.5850 H   0  0  0  0  0  0  0  0  0  0  0  0
   56.8781   31.2161   43.3337 H   0  0  0  0  0  0  0  0  0  0  0  0
   58.7502   28.3828   43.1610 H   0  0  0  0  0  0  0  0  0  0  0  0
   59.9253   27.3215   45.0114 H   0  0  0  0  0  0  0  0  0  0  0  0
   60.7730   28.8161   44.3876 H   0  0  0  0  0  0  0  0  0  0  0  0
   60.8430   29.5520   46.3950 H   0  0  0  0  0  0  0  0  0  0  0  0
   59.1610   29.6280   46.4330 H   0  0  0  0  0  0  0  0  0  0  0  0
   59.2609   27.1796   47.1293 H   0  0  0  0  0  0  0  0  0  0  0  0
   60.9876   27.6195   47.5200 H   0  0  0  0  0  0  0  0  0  0  0  0
   58.7823   27.9170   49.2144 H   0  0  0  0  0  0  0  0  0  0  0  0
   60.3948   28.6759   49.4057 H   0  0  0  0  0  0  0  0  0  0  0  0
   58.4022   29.6572   51.1572 H   0  0  0  0  0  0  0  0  0  0  0  0
   58.3934   31.5445   52.7807 H   0  0  0  0  0  0  0  0  0  0  0  0
   58.9221   33.7739   53.3028 H   0  0  0  0  0  0  0  0  0  0  0  0
   59.7942   34.8096   52.1223 H   0  0  0  0  0  0  0  0  0  0  0  0
   57.9985   34.7639   52.1223 H   0  0  0  0  0  0  0  0  0  0  0  0
   59.4376   34.2922   49.6066 H   0  0  0  0  0  0  0  0  0  0  0  0
   59.2379   31.6304   46.9585 H   0  0  0  0  0  0  0  0  0  0  0  0
   59.0455   33.4014   47.2489 H   0  0  0  0  0  0  0  0  0  0  0  0
   61.5549   31.0001   48.7046 H   0  0  0  0  0  0  0  0  0  0  0  0
   64.0155   31.2695   48.3883 H   0  0  0  0  0  0  0  0  0  0  0  0
   64.8989   33.0860   46.9205 H   0  0  0  0  0  0  0  0  0  0  0  0
   63.3199   34.6458   45.7765 H   0  0  0  0  0  0  0  0  0  0  0  0
   60.8593   34.3952   46.0999 H   0  0  0  0  0  0  0  0  0  0  0  0
   57.1070   27.2693   44.5049 H   0  0  0  0  0  0  0  0  0  0  0  0
   57.0130   29.2000   46.4620 H   0  0  0  0  0  0  0  0  0  0  0  0
   55.9145   29.0620   43.2884 H   0  0  0  0  0  0  0  0  0  0  0  0
   55.6000   29.7110   45.9980 H   0  0  0  0  0  0  0  0  0  0  0  0
  1  2  1  0
  2  3  1  0
  3  4  1  0
  4  5  1  0
  5  6  1  0
  6  7  1  0
  7  8  1  0
  8  9  1  0
  9 10  1  0
 10 11  1  0
 11 12  2  0
 12 13  1  0
 13 14  2  0
 14 15  1  0
 14 16  1  0
 16 17  2  0
 17 18  1  0
 18 19  1  0
 19 20  2  0
 20 21  1  0
 21 22  2  0
 22 23  1  0
 23 24  2  0
  5 25  1  0
 25 26  1  0
 25 27  1  0
 27 28  1  0
 27  3  1  0
 17 11  1  0
 24 19  1  0
  1 29  1  0
  1 30  1  0
  1 31  1  0
  3 32  1  6
  5 33  1  6
  6 34  1  0
  6 35  1  0
  7 36  1  0
  7 37  1  0
  8 38  1  0
  8 39  1  0
  9 40  1  0
  9 41  1  0
 12 42  1  0
 13 43  1  0
 15 44  1  0
 15 45  1  0
 15 46  1  0
 16 47  1  0
 18 48  1  0
 18 49  1  0
 20 50  1  0
 21 51  1  0
 22 52  1  0
 23 53  1  0
 24 54  1  0
 25 55  1  6
 26 56  1  0
 27 57  1  6
 28 58  1  0
M  CHG  1   7   1
M  END
>  <UniqueID>  (47) 
45

>  <SMILES>  (47) 
CO[C@H]1O[C@@H](C[NH2+]CCOc2ccc(C)cc2Cc2ccccc2)C(O)C1O

>  <Energy>  (47) 
60.79327650042266

>  <Genealogy>  (47) 
COC1OC(C[NH2+]CCOc2ccc(C)cc2Cc2ccccc2)C(O)C1O (protonated)
CO[C@H]1O[C@@H](C[NH2+]CCOc2ccc(C)cc2Cc2ccccc2)C(O)C1O (chirality)
CO[C@H]1O[C@@H](C[NH2+]CCOc2ccc(C)cc2Cc2ccccc2)C(O)C1O (3D coordinates assigned)
CO[C@H]1O[C@@H](C[NH2+]CCOc2ccc(C)cc2Cc2ccccc2)C(O)C1O (nonaromatic ring conformer: 60.79327650042266 kcal/mol)

>  <smiles>  (47) 
COC1OC(CNCCOc2ccc(C)cc2Cc2ccccc2)C(O)C1O

>  <score_type>  (47) 
oracle

>  <origin>  (47) 
adg

>  <m_score__min__energy>  (47) 
-6.4199999999999999

>  <m_primary>  (47) 
energy

$$$$
47:0
     RDKit          3D

 51 52  0  0  0  0  0  0  0  0999 V2000
   57.5110   33.7860   46.7430 C   0  0  0  0  0  0  0  0  0  0  0  0
   58.6210   33.0260   46.0100 C   0  0  0  0  0  0  0  0  0  0  0  0
   59.1610   33.8520   44.8380 C   0  0  0  0  0  0  0  0  0  0  0  0
   58.1100   31.6940   45.5220 C   0  0  0  0  0  0  0  0  0  0  0  0
   56.9670   31.5540   44.8140 N   0  0  0  0  0  0  0  0  0  0  0  0
   56.7990   30.2650   44.5660 N   0  0  0  0  0  0  0  0  0  0  0  0
   55.6790   29.7270   43.8040 C   0  0  0  0  0  0  0  0  0  0  0  0
   57.8250   29.5700   45.0920 C   0  0  0  0  0  0  0  0  0  0  0  0
   57.9490   28.1420   45.0440 N   0  0  0  0  0  0  0  0  0  0  0  0
   57.9100   27.3630   46.2800 C   0  0  0  0  0  0  0  0  0  0  0  0
   58.3990   27.5120   43.8030 C   0  0  0  0  0  0  0  0  0  0  0  0
   58.6970   30.4460   45.7140 C   0  0  0  0  0  0  0  0  0  0  0  0
   60.0110   30.1170   46.3770 C   0  0  0  0  0  0  0  0  0  0  0  0
   59.8460   29.7500   47.7950 N   0  0  0  0  0  0  0  0  0  0  0  0
   61.0230   30.0920   48.6320 C   0  0  0  0  0  0  0  0  0  0  0  0
   61.6140   31.4360   48.2420 C   0  0  0  0  0  0  0  0  0  0  0  0
   62.8040   31.4410   47.4920 C   0  0  0  0  0  0  0  0  0  0  0  0
   63.3730   32.6360   47.0590 C   0  0  0  0  0  0  0  0  0  0  0  0
   62.7650   33.8490   47.3670 C   0  0  0  0  0  0  0  0  0  0  0  0
   61.5850   33.8720   48.1100 C   0  0  0  0  0  0  0  0  0  0  0  0
   60.9820   32.6760   48.5520 C   0  0  0  0  0  0  0  0  0  0  0  0
   59.7120   32.7450   49.3810 C   0  0  0  0  0  0  0  0  0  0  0  0
   59.3090   34.0570   49.5320 F   0  0  0  0  0  0  0  0  0  0  0  0
   59.8950   32.2140   50.6470 F   0  0  0  0  0  0  0  0  0  0  0  0
   58.7110   32.0250   48.7550 F   0  0  0  0  0  0  0  0  0  0  0  0
   57.6548   33.6876   47.8291 H   0  0  0  0  0  0  0  0  0  0  0  0
   57.5480   34.8491   46.4631 H   0  0  0  0  0  0  0  0  0  0  0  0
   56.5332   33.3670   46.4631 H   0  0  0  0  0  0  0  0  0  0  0  0
   59.4450   32.8501   46.7171 H   0  0  0  0  0  0  0  0  0  0  0  0
   59.7243   34.7137   45.2255 H   0  0  0  0  0  0  0  0  0  0  0  0
   59.8249   33.2262   44.2235 H   0  0  0  0  0  0  0  0  0  0  0  0
   58.3214   34.2091   44.2235 H   0  0  0  0  0  0  0  0  0  0  0  0
   54.9085   29.3569   44.4964 H   0  0  0  0  0  0  0  0  0  0  0  0
   55.2527   30.5186   43.1703 H   0  0  0  0  0  0  0  0  0  0  0  0
   56.0305   28.8995   43.1703 H   0  0  0  0  0  0  0  0  0  0  0  0
   57.9441   28.0435   47.1435 H   0  0  0  0  0  0  0  0  0  0  0  0
   56.9813   26.7745   46.3134 H   0  0  0  0  0  0  0  0  0  0  0  0
   58.7753   26.6847   46.3134 H   0  0  0  0  0  0  0  0  0  0  0  0
   59.0232   26.6381   44.0408 H   0  0  0  0  0  0  0  0  0  0  0  0
   57.5252   27.1900   43.2174 H   0  0  0  0  0  0  0  0  0  0  0  0
   58.9869   28.2341   43.2174 H   0  0  0  0  0  0  0  0  0  0  0  0
   60.4741   29.2730   45.8448 H   0  0  0  0  0  0  0  0  0  0  0  0
   60.6440   31.0156   46.3336 H   0  0  0  0  0  0  0  0  0  0  0  0
   58.9690   30.1760   48.1690 H   0  0  0  0  0  0  0  0  0  0  0  0
   59.7090   28.7130   47.8280 H   0  0  0  0  0  0  0  0  0  0  0  0
   60.7121   30.1310   49.6864 H   0  0  0  0  0  0  0  0  0  0  0  0
   61.7913   29.3201   48.4777 H   0  0  0  0  0  0  0  0  0  0  0  0
   63.2923   30.4870   47.2439 H   0  0  0  0  0  0  0  0  0  0  0  0
   64.3038   32.6209   46.4730 H   0  0  0  0  0  0  0  0  0  0  0  0
   63.2160   34.7918   47.0238 H   0  0  0  0  0  0  0  0  0  0  0  0
   61.1176   34.8372   48.3550 H   0  0  0  0  0  0  0  0  0  0  0  0
  1  2  1  0
  2  3  1  0
  2  4  1  0
  4  5  2  0
  5  6  1  0
  6  7  1  0
  6  8  1  0
  8  9  1  0
  9 10  1  0
  9 11  1  0
  8 12  2  0
 12 13  1  0
 13 14  1  0
 14 15  1  0
 15 16  1  0
 16 17  2  0
 17 18  1  0
 18 19  2  0
 19 20  1  0
 20 21  2  0
 21 22  1  0
 22 23  1  0
 22 24  1  0
 22 25  1  0
 12  4  1  0
 21 16  1  0
  1 26  1  0
  1 27  1  0
  1 28  1  0
  2 29  1  0
  3 30  1  0
  3 31  1  0
  3 32  1  0
  7 33  1  0
  7 34  1  0
  7 35  1  0
 10 36  1  0
 10 37  1  0
 10 38  1  0
 11 39  1  0
 11 40  1  0
 11 41  1  0
 13 42  1  0
 13 43  1  0
 14 44  1  0
 14 45  1  0
 15 46  1  0
 15 47  1  0
 17 48  1  0
 18 49  1  0
 19 50  1  0
 20 51  1  0
M  CHG  1  14   1
M  END
>  <UniqueID>  (48) 
46

>  <SMILES>  (48) 
CC(C)c1nn(C)c(N(C)C)c1C[NH2+]Cc1ccccc1C(F)(F)F

>  <Energy>  (48) 
81.03372980861606

>  <Genealogy>  (48) 
CC(C)c1nn(C)c(N(C)C)c1C[NH2+]Cc1ccccc1C(F)(F)F (protonated)
CC(C)c1nn(C)c(N(C)C)c1C[NH2+]Cc1ccccc1C(F)(F)F (3D coordinates assigned)
CC(C)c1nn(C)c(N(C)C)c1C[NH2+]Cc1ccccc1C(F)(F)F (optimized conformer: 81.03372980861606 kcal/mol)

>  <smiles>  (48) 
CC(C)c1nn(C)c(N(C)C)c1CNCc1ccccc1C(F)(F)F

>  <score_type>  (48) 
oracle

>  <origin>  (48) 
adg

>  <m_score__min__energy>  (48) 
-5.1600000000000001

>  <m_primary>  (48) 
energy

$$$$
48:0
     RDKit          3D

 72 77  0  0  0  0  0  0  0  0999 V2000
   56.8320   23.5294   47.2056 H   0  0  0  0  0  0  0  0  0  0  0  0
   57.0910   24.3970   46.5810 C   0  0  0  0  0  0  0  0  0  0  0  0
   57.4590   25.6040   47.1800 C   0  0  0  0  0  0  0  0  0  0  0  0
   57.4845   25.6876   48.2765 H   0  0  0  0  0  0  0  0  0  0  0  0
   57.7950   26.7060   46.3880 C   0  0  0  0  0  0  0  0  0  0  0  0
   58.0710   27.6575   46.8660 H   0  0  0  0  0  0  0  0  0  0  0  0
   57.7830   26.6080   44.9870 C   0  0  0  0  0  0  0  0  0  0  0  0
   58.1320   27.8240   44.1630 C   0  0  2  0  0  0  0  0  0  0  0  0
   57.9024   27.6175   43.1072 H   0  0  0  0  0  0  0  0  0  0  0  0
   59.5100   28.0960   44.2860 O   0  0  0  0  0  0  0  0  0  0  0  0
   59.6240   29.4700   44.5080 C   0  0  2  0  0  0  0  0  0  0  0  0
   60.2195   30.0166   43.7619 H   0  0  0  0  0  0  0  0  0  0  0  0
   60.4180   29.7190   45.8100 C   0  0  0  0  0  0  0  0  0  0  0  0
   61.1749   28.9280   45.9168 H   0  0  0  0  0  0  0  0  0  0  0  0
   60.8774   30.7155   45.7324 H   0  0  0  0  0  0  0  0  0  0  0  0
   59.5670   29.7170   47.0030 N   0  0  0  0  0  0  0  0  0  0  0  0
   59.8350   29.2600   48.1980 C   0  0  0  0  0  0  0  0  0  0  0  0
   60.4700   28.0170   48.4010 C   0  0  0  0  0  0  0  0  0  0  0  0
   60.7626   27.4016   47.5375 H   0  0  0  0  0  0  0  0  0  0  0  0
   60.7270   27.5680   49.6960 C   0  0  0  0  0  0  0  0  0  0  0  0
   61.2104   26.5917   49.8483 H   0  0  0  0  0  0  0  0  0  0  0  0
   60.3860   28.3250   50.7710 N   0  0  0  0  0  0  0  0  0  0  0  0
   60.5930   27.9550   51.7270 H   0  0  0  0  0  0  0  0  0  0  0  0
   59.7870   29.5410   50.6240 C   0  0  0  0  0  0  0  0  0  0  0  0
   59.4570   30.3030   51.7560 C   0  0  0  0  0  0  0  0  0  0  0  0
   59.6883   29.9192   52.7606 H   0  0  0  0  0  0  0  0  0  0  0  0
   58.8370   31.5450   51.6130 C   0  0  0  0  0  0  0  0  0  0  0  0
   58.5842   32.1382   52.5042 H   0  0  0  0  0  0  0  0  0  0  0  0
   58.5370   32.0360   50.3410 C   0  0  0  0  0  0  0  0  0  0  0  0
   58.0471   33.0150   50.2334 H   0  0  0  0  0  0  0  0  0  0  0  0
   58.8560   31.2900   49.2050 C   0  0  0  0  0  0  0  0  0  0  0  0
   58.6121   31.6828   48.2069 H   0  0  0  0  0  0  0  0  0  0  0  0
   59.4890   30.0360   49.3290 C   0  0  0  0  0  0  0  0  0  0  0  0
   58.2040   30.0330   44.4120 C   0  0  2  0  0  0  0  0  0  0  0  0
   58.1488   30.5648   43.4507 H   0  0  0  0  0  0  0  0  0  0  0  0
   57.7820   31.1220   45.4180 C   0  0  0  0  0  0  0  0  0  0  0  0
   58.6475   31.3718   46.0493 H   0  0  0  0  0  0  0  0  0  0  0  0
   56.9472   30.7199   46.0109 H   0  0  0  0  0  0  0  0  0  0  0  0
   57.3040   32.3620   44.7560 N   0  0  0  0  0  0  0  0  0  0  0  0
   56.6980   33.3470   45.6800 C   0  0  0  0  0  0  0  0  0  0  0  0
   55.8803   32.8593   46.2310 H   0  0  0  0  0  0  0  0  0  0  0  0
   56.3286   34.1908   45.0787 H   0  0  0  0  0  0  0  0  0  0  0  0
   57.7170   33.8990   46.6920 C   0  0  0  0  0  0  0  0  0  0  0  0
   57.6949   33.2806   47.6014 H   0  0  0  0  0  0  0  0  0  0  0  0
   57.4506   34.9387   46.9327 H   0  0  0  0  0  0  0  0  0  0  0  0
   59.0700   33.8760   46.1260 N   0  0  0  0  0  0  0  0  0  0  0  0
   60.2100   33.7490   46.9930 C   0  0  0  0  0  0  0  0  0  0  0  0
   61.4010   33.1750   46.5220 C   0  0  0  0  0  0  0  0  0  0  0  0
   61.4549   32.7948   45.4912 H   0  0  0  0  0  0  0  0  0  0  0  0
   62.5190   33.0840   47.3560 C   0  0  0  0  0  0  0  0  0  0  0  0
   63.4423   32.6175   46.9819 H   0  0  0  0  0  0  0  0  0  0  0  0
   62.4730   33.5820   48.6640 C   0  0  0  0  0  0  0  0  0  0  0  0
   63.6260   33.4830   49.4560 O   0  0  0  0  0  0  0  0  0  0  0  0
   64.5290   32.3820   49.4270 C   0  0  0  0  0  0  0  0  0  0  0  0
   64.7749   32.0822   50.4564 H   0  0  0  0  0  0  0  0  0  0  0  0
   64.0603   31.5372   48.9011 H   0  0  0  0  0  0  0  0  0  0  0  0
   65.4492   32.6763   48.9011 H   0  0  0  0  0  0  0  0  0  0  0  0
   61.2820   34.1640   49.1350 C   0  0  0  0  0  0  0  0  0  0  0  0
   61.2330   34.5570   50.1612 H   0  0  0  0  0  0  0  0  0  0  0  0
   60.1600   34.2450   48.3040 C   0  0  0  0  0  0  0  0  0  0  0  0
   59.2325   34.7006   48.6810 H   0  0  0  0  0  0  0  0  0  0  0  0
   59.2370   34.0050   44.6760 C   0  0  0  0  0  0  0  0  0  0  0  0
   60.2916   33.8260   44.4194 H   0  0  0  0  0  0  0  0  0  0  0  0
   58.9313   35.0194   44.3802 H   0  0  0  0  0  0  0  0  0  0  0  0
   58.3540   32.9880   43.9160 C   0  0  0  0  0  0  0  0  0  0  0  0
   59.0028   32.1921   43.5214 H   0  0  0  0  0  0  0  0  0  0  0  0
   57.8380   33.5440   43.1194 H   0  0  0  0  0  0  0  0  0  0  0  0
   57.3590   28.9360   44.5480 O   0  0  0  0  0  0  0  0  0  0  0  0
   57.3930   25.3910   44.3920 C   0  0  0  0  0  0  0  0  0  0  0  0
   57.3565   25.3046   43.2960 H   0  0  0  0  0  0  0  0  0  0  0  0
   57.0520   24.2920   45.1890 C   0  0  0  0  0  0  0  0  0  0  0  0
   56.7528   23.3440   44.7181 H   0  0  0  0  0  0  0  0  0  0  0  0
  1  2  1  0
  2  3  2  0
  3  4  1  0
  3  5  1  0
  5  6  1  0
  5  7  2  0
  7  8  1  0
  8  9  1  6
  8 10  1  0
 10 11  1  0
 11 12  1  6
 11 13  1  0
 13 14  1  0
 13 15  1  0
 13 16  1  0
 16 17  2  0
 17 18  1  0
 18 19  1  0
 18 20  2  0
 20 21  1  0
 20 22  1  0
 22 23  1  0
 22 24  1  0
 24 25  2  0
 25 26  1  0
 25 27  1  0
 27 28  1  0
 27 29  2  0
 29 30  1  0
 29 31  1  0
 31 32  1  0
 31 33  2  0
 11 34  1  0
 34 35  1  6
 34 36  1  0
 36 37  1  0
 36 38  1  0
 36 39  1  0
 39 40  1  0
 40 41  1  0
 40 42  1  0
 40 43  1  0
 43 44  1  0
 43 45  1  0
 43 46  1  0
 46 47  1  0
 47 48  2  0
 48 49  1  0
 48 50  1  0
 50 51  1  0
 50 52  2  0
 52 53  1  0
 53 54  1  0
 54 55  1  0
 54 56  1  0
 54 57  1  0
 52 58  1  0
 58 59  1  0
 58 60  2  0
 60 61  1  0
 46 62  1  0
 62 63  1  0
 62 64  1  0
 62 65  1  0
 65 66  1  0
 65 67  1  0
 34 68  1  0
  7 69  1  0
 69 70  1  0
 69 71  2  0
 71 72  1  0
 71  2  1  0
 68  8  1  0
 33 17  1  0
 65 39  1  0
 33 24  1  0
 60 47  1  0
M  END
>  <UniqueID>  (49) 
47

>  <SMILES>  (49) 
COc1ccc(N2CCN(C[C@@H]3O[C@H](c4ccccc4)OC3C/N=c3\cc[nH]c4ccccc34)CC2)cc1

>  <Energy>  (49) 
94.50904635601441

>  <Genealogy>  (49) 
COc1ccc(N2CCN(C[C@@H]3O[C@H](c4ccccc4)OC3CN=c3cc[nH]c4ccccc34)CC2)cc1 (chirality)
COc1ccc(N2CCN(C[C@@H]3O[C@H](c4ccccc4)OC3C/N=c3\cc[nH]c4ccccc34)CC2)cc1 (cis-trans isomerization)
COc1ccc(N2CCN(C[C@@H]3O[C@H](c4ccccc4)OC3C/N=c3\cc[nH]c4ccccc34)CC2)cc1 (3D coordinates assigned)
COc1ccc(N2CCN(C[C@@H]3O[C@H](c4ccccc4)OC3C/N=c3\cc[nH]c4ccccc34)CC2)cc1 (nonaromatic ring conformer: 94.50904635601441 kcal/mol)

>  <smiles>  (49) 
COc1ccc(N2CCN(CC3OC(c4ccccc4)OC3CN=c3cc[nH]c4ccccc34)CC2)cc1

>  <score_type>  (49) 
oracle

>  <origin>  (49) 
adg

>  <m_score__min__energy>  (49) 
-9.3000000000000007

>  <m_primary>  (49) 
energy

$$$$
