0:0
     RDKit          3D

 51 51  0  0  0  0  0  0  0  0999 V2000
   58.8930   28.9470   48.2710 C   0  0  0  0  0  0  0  0  0  0  0  0
   60.0630   28.8760   47.2740 C   0  0  0  0  0  0  0  0  0  0  0  0
   59.8270   28.0430   46.0530 N   0  0  0  0  0  0  0  0  0  0  0  0
   60.5990   28.6150   44.9160 C   0  0  0  0  0  0  0  0  0  0  0  0
   60.3730   26.6840   46.3060 C   0  0  0  0  0  0  0  0  0  0  0  0
   58.3860   27.9650   45.6310 C   0  0  0  0  0  0  0  0  0  0  0  0
   58.0780   27.7750   44.1170 C   0  0  0  0  0  0  0  0  0  0  0  0
   57.3590   28.9540   43.4420 C   0  0  0  0  0  0  0  0  0  0  0  0
   56.2910   29.4930   44.3440 C   0  0  0  0  0  0  0  0  0  0  0  0
   55.5250   28.6960   44.9480 O   0  0  0  0  0  0  0  0  0  0  0  0
   56.1500   30.9090   44.5120 N   0  0  0  0  0  0  0  0  0  0  0  0
   57.1420   31.7840   45.0680 C   0  0  0  0  0  0  0  0  0  0  0  0
   58.1710   31.2420   45.8390 C   0  0  0  0  0  0  0  0  0  0  0  0
   59.1490   32.0640   46.4090 C   0  0  0  0  0  0  0  0  0  0  0  0
   59.1170   33.4770   46.2360 C   0  0  0  0  0  0  0  0  0  0  0  0
   60.1430   34.3800   46.7970 N   0  0  0  0  0  0  0  0  0  0  0  0
   60.0270   34.5650   48.2690 C   0  0  0  0  0  0  0  0  0  0  0  0
   60.0210   35.7200   46.1680 C   0  0  0  0  0  0  0  0  0  0  0  0
   61.4910   33.8250   46.5210 C   0  0  0  0  0  0  0  0  0  0  0  0
   58.0420   34.0040   45.4750 C   0  0  0  0  0  0  0  0  0  0  0  0
   57.0730   33.1740   44.9040 C   0  0  0  0  0  0  0  0  0  0  0  0
   59.2849   28.9232   49.2985 H   0  0  0  0  0  0  0  0  0  0  0  0
   58.3333   29.8808   48.1136 H   0  0  0  0  0  0  0  0  0  0  0  0
   58.2245   28.0878   48.1136 H   0  0  0  0  0  0  0  0  0  0  0  0
   60.2891   29.9010   46.9450 H   0  0  0  0  0  0  0  0  0  0  0  0
   60.8876   28.3882   47.8144 H   0  0  0  0  0  0  0  0  0  0  0  0
   61.4256   29.2275   45.3053 H   0  0  0  0  0  0  0  0  0  0  0  0
   61.0056   27.7985   44.3012 H   0  0  0  0  0  0  0  0  0  0  0  0
   59.9362   29.2417   44.3012 H   0  0  0  0  0  0  0  0  0  0  0  0
   60.4419   26.5125   47.3904 H   0  0  0  0  0  0  0  0  0  0  0  0
   59.7072   25.9320   45.8574 H   0  0  0  0  0  0  0  0  0  0  0  0
   61.3740   26.6017   45.8574 H   0  0  0  0  0  0  0  0  0  0  0  0
   57.9338   27.1168   46.1659 H   0  0  0  0  0  0  0  0  0  0  0  0
   57.9744   28.9559   45.8732 H   0  0  0  0  0  0  0  0  0  0  0  0
   59.0318   27.6134   43.5934 H   0  0  0  0  0  0  0  0  0  0  0  0
   57.3896   26.9196   44.0507 H   0  0  0  0  0  0  0  0  0  0  0  0
   58.0880   29.7490   43.2264 H   0  0  0  0  0  0  0  0  0  0  0  0
   56.8968   28.6050   42.5068 H   0  0  0  0  0  0  0  0  0  0  0  0
   58.2137   30.1548   46.0006 H   0  0  0  0  0  0  0  0  0  0  0  0
   59.9573   31.6106   47.0015 H   0  0  0  0  0  0  0  0  0  0  0  0
   60.5434   33.7414   48.7839 H   0  0  0  0  0  0  0  0  0  0  0  0
   60.4869   35.5223   48.5556 H   0  0  0  0  0  0  0  0  0  0  0  0
   58.9650   34.5680   48.5556 H   0  0  0  0  0  0  0  0  0  0  0  0
   59.9511   36.4882   46.9522 H   0  0  0  0  0  0  0  0  0  0  0  0
   60.9052   35.9135   45.5430 H   0  0  0  0  0  0  0  0  0  0  0  0
   59.1163   35.7507   45.5430 H   0  0  0  0  0  0  0  0  0  0  0  0
   62.0025   33.6144   47.4718 H   0  0  0  0  0  0  0  0  0  0  0  0
   61.3930   32.8941   45.9433 H   0  0  0  0  0  0  0  0  0  0  0  0
   62.0769   34.5551   45.9433 H   0  0  0  0  0  0  0  0  0  0  0  0
   57.9692   35.0921   45.3308 H   0  0  0  0  0  0  0  0  0  0  0  0
   56.2505   33.6151   44.3218 H   0  0  0  0  0  0  0  0  0  0  0  0
  1  2  1  0
  2  3  1  0
  3  4  1  0
  3  5  1  0
  3  6  1  0
  6  7  1  0
  7  8  1  0
  8  9  1  0
  9 10  2  0
  9 11  1  0
 11 12  1  0
 12 13  2  0
 13 14  1  0
 14 15  2  0
 15 16  1  0
 16 17  1  0
 16 18  1  0
 16 19  1  0
 15 20  1  0
 20 21  2  0
 21 12  1  0
  1 22  1  0
  1 23  1  0
  1 24  1  0
  2 25  1  0
  2 26  1  0
  4 27  1  0
  4 28  1  0
  4 29  1  0
  5 30  1  0
  5 31  1  0
  5 32  1  0
  6 33  1  0
  6 34  1  0
  7 35  1  0
  7 36  1  0
  8 37  1  0
  8 38  1  0
 13 39  1  0
 14 40  1  0
 17 41  1  0
 17 42  1  0
 17 43  1  0
 18 44  1  0
 18 45  1  0
 18 46  1  0
 19 47  1  0
 19 48  1  0
 19 49  1  0
 20 50  1  0
 21 51  1  0
M  CHG  3   3   1  11  -1  16   1
M  END
>  <UniqueID>  (1) 
1

>  <SMILES>  (1) 
CC[N+](C)(C)CCCC(=O)[N-]c1ccc([N+](C)(C)C)cc1

>  <Energy>  (1) 
75.85746390244685

>  <Genealogy>  (1) 
CC[N+](C)(C)CCCC(=O)[N-]c1ccc([N+](C)(C)C)cc1 (protonated)
CC[N+](C)(C)CCCC(=O)[N-]c1ccc([N+](C)(C)C)cc1 (3D coordinates assigned)
CC[N+](C)(C)CCCC(=O)[N-]c1ccc([N+](C)(C)C)cc1 (optimized conformer: 75.85746390244685 kcal/mol)

>  <smiles>  (1) 
CC[N+](C)(C)CCCC(=O)Nc1ccc([N+](C)(C)C)cc1

>  <score_type>  (1) 
oracle

>  <origin>  (1) 
adg

>  <m_score__min__energy>  (1) 
-4.9800000000000004

>  <m_primary>  (1) 
energy

$$$$
1:0
     RDKit          3D

 75 78  0  0  0  0  0  0  0  0999 V2000
   63.2320   32.9200   47.8970 C   0  0  0  0  0  0  0  0  0  0  0  0
   62.5970   32.3720   49.1680 C   0  0  0  0  0  0  0  0  0  0  0  0
   61.7670   33.4220   49.8050 N   0  0  0  0  0  0  0  0  0  0  0  0
   62.3580   33.8430   51.0850 C   0  0  0  0  0  0  0  0  0  0  0  0
   61.5800   34.5860   48.9160 C   0  0  0  0  0  0  0  0  0  0  0  0
   60.2920   34.4200   48.0970 C   0  0  0  0  0  0  0  0  0  0  0  0
   59.3680   33.4880   48.7480 N   0  0  0  0  0  0  0  0  0  0  0  0
   59.0130   32.2380   48.1420 C   0  0  0  0  0  0  0  0  0  0  0  0
   58.4880   32.2370   46.8250 C   0  0  0  0  0  0  0  0  0  0  0  0
   57.8850   33.3940   46.2890 C   0  0  0  0  0  0  0  0  0  0  0  0
   57.4070   33.4080   44.9800 C   0  0  0  0  0  0  0  0  0  0  0  0
   57.5370   32.2810   44.1760 C   0  0  0  0  0  0  0  0  0  0  0  0
   58.1480   31.1290   44.6710 C   0  0  0  0  0  0  0  0  0  0  0  0
   58.6320   31.0720   46.0020 C   0  0  0  0  0  0  0  0  0  0  0  0
   59.2890   29.9550   46.4870 N   0  0  0  0  0  0  0  0  0  0  0  0
   59.4740   28.7530   45.6510 C   0  0  0  0  0  0  0  0  0  0  0  0
   59.7630   29.9940   47.7710 C   0  0  0  0  0  0  0  0  0  0  0  0
   60.5500   29.0860   48.3680 N   0  0  0  0  0  0  0  0  0  0  0  0
   60.7220   29.5670   49.6160 C   0  0  0  0  0  0  0  0  0  0  0  0
   61.4180   28.8130   50.6200 N   0  0  0  0  0  0  0  0  0  0  0  0
   62.6090   29.4110   51.2370 C   0  0  0  0  0  0  0  0  0  0  0  0
   62.3050   29.9540   52.6310 C   0  0  0  0  0  0  0  0  0  0  0  0
   60.6660   27.7690   51.3280 C   0  0  0  0  0  0  0  0  0  0  0  0
   61.1160   26.3850   50.8810 C   0  0  0  0  0  0  0  0  0  0  0  0
   60.0650   30.7380   49.8600 N   0  0  0  0  0  0  0  0  0  0  0  0
   59.4650   30.9650   51.2000 C   0  0  1  0  0  0  0  0  0  0  0  0
   59.9270   32.1780   51.7450 O   0  0  0  0  0  0  0  0  0  0  0  0
   58.9680   32.6150   52.6890 C   0  0  1  0  0  0  0  0  0  0  0  0
   58.6110   34.0770   52.3820 C   0  0  0  0  0  0  0  0  0  0  0  0
   59.2620   34.5080   51.2170 O   0  0  0  0  0  0  0  0  0  0  0  0
   57.7460   31.6890   52.6210 C   0  0  2  0  0  0  0  0  0  0  0  0
   57.7970   30.7640   53.6790 O   0  0  0  0  0  0  0  0  0  0  0  0
   57.9510   31.0040   51.2900 C   0  0  2  0  0  0  0  0  0  0  0  0
   57.3950   29.7140   51.2570 O   0  0  0  0  0  0  0  0  0  0  0  0
   59.5200   31.0260   48.6390 C   0  0  0  0  0  0  0  0  0  0  0  0
   64.0402   33.6175   48.1622 H   0  0  0  0  0  0  0  0  0  0  0  0
   63.6440   32.0892   47.3053 H   0  0  0  0  0  0  0  0  0  0  0  0
   62.4704   33.4491   47.3053 H   0  0  0  0  0  0  0  0  0  0  0  0
   61.9643   31.5078   48.9173 H   0  0  0  0  0  0  0  0  0  0  0  0
   63.3885   32.0605   49.8654 H   0  0  0  0  0  0  0  0  0  0  0  0
   61.7704   33.4245   51.9154 H   0  0  0  0  0  0  0  0  0  0  0  0
   63.3938   33.4781   51.1483 H   0  0  0  0  0  0  0  0  0  0  0  0
   62.3516   34.9412   51.1483 H   0  0  0  0  0  0  0  0  0  0  0  0
   61.5102   35.5006   49.5232 H   0  0  0  0  0  0  0  0  0  0  0  0
   62.4371   34.6578   48.2302 H   0  0  0  0  0  0  0  0  0  0  0  0
   59.8020   35.3996   47.9960 H   0  0  0  0  0  0  0  0  0  0  0  0
   60.5567   34.0157   47.1088 H   0  0  0  0  0  0  0  0  0  0  0  0
   58.8920   33.7880   49.6280 H   0  0  0  0  0  0  0  0  0  0  0  0
   57.7909   34.2960   46.9116 H   0  0  0  0  0  0  0  0  0  0  0  0
   56.9255   34.3132   44.5817 H   0  0  0  0  0  0  0  0  0  0  0  0
   57.1560   32.2980   43.1442 H   0  0  0  0  0  0  0  0  0  0  0  0
   58.2560   30.2505   44.0179 H   0  0  0  0  0  0  0  0  0  0  0  0
   59.6093   27.8737   46.2979 H   0  0  0  0  0  0  0  0  0  0  0  0
   58.5876   28.6081   45.0160 H   0  0  0  0  0  0  0  0  0  0  0  0
   60.3630   28.8813   45.0160 H   0  0  0  0  0  0  0  0  0  0  0  0
   60.9570   28.2030   47.9940 H   0  0  0  0  0  0  0  0  0  0  0  0
   63.3939   28.6443   51.3155 H   0  0  0  0  0  0  0  0  0  0  0  0
   62.9408   30.2484   50.6056 H   0  0  0  0  0  0  0  0  0  0  0  0
   62.6946   29.2581   53.3886 H   0  0  0  0  0  0  0  0  0  0  0  0
   62.7844   30.9363   52.7544 H   0  0  0  0  0  0  0  0  0  0  0  0
   61.2170   30.0588   52.7544 H   0  0  0  0  0  0  0  0  0  0  0  0
   60.8361   27.8721   52.4099 H   0  0  0  0  0  0  0  0  0  0  0  0
   59.5968   27.8850   51.0971 H   0  0  0  0  0  0  0  0  0  0  0  0
   61.3185   25.7621   51.7647 H   0  0  0  0  0  0  0  0  0  0  0  0
   60.3232   25.9187   50.2777 H   0  0  0  0  0  0  0  0  0  0  0  0
   62.0314   26.4742   50.2777 H   0  0  0  0  0  0  0  0  0  0  0  0
   59.7884   30.0715   51.7541 H   0  0  0  0  0  0  0  0  0  0  0  0
   59.3629   32.5704   53.7147 H   0  0  0  0  0  0  0  0  0  0  0  0
   57.5234   34.1620   52.2413 H   0  0  0  0  0  0  0  0  0  0  0  0
   58.9352   34.7064   53.2239 H   0  0  0  0  0  0  0  0  0  0  0  0
   59.9900   33.8600   51.0300 H   0  0  0  0  0  0  0  0  0  0  0  0
   56.7747   32.1984   52.7055 H   0  0  0  0  0  0  0  0  0  0  0  0
   58.1060   29.9030   53.2930 H   0  0  0  0  0  0  0  0  0  0  0  0
   57.4606   31.5195   50.4511 H   0  0  0  0  0  0  0  0  0  0  0  0
   56.8940   29.6050   52.1050 H   0  0  0  0  0  0  0  0  0  0  0  0
  1  2  1  0
  2  3  1  0
  3  4  1  0
  3  5  1  0
  5  6  1  0
  6  7  1  0
  7  8  1  0
  8  9  2  0
  9 10  1  0
 10 11  2  0
 11 12  1  0
 12 13  2  0
 13 14  1  0
 14 15  2  0
 15 16  1  0
 15 17  1  0
 17 18  1  0
 18 19  2  0
 19 20  1  0
 20 21  1  0
 21 22  1  0
 20 23  1  0
 23 24  1  0
 19 25  1  0
 25 26  1  0
 26 27  1  0
 27 28  1  0
 28 29  1  0
 29 30  1  0
 28 31  1  0
 31 32  1  0
 31 33  1  0
 33 34  1  0
 25 35  1  0
 35  8  1  0
 14  9  1  0
 35 17  2  0
 33 26  1  0
  1 36  1  0
  1 37  1  0
  1 38  1  0
  2 39  1  0
  2 40  1  0
  4 41  1  0
  4 42  1  0
  4 43  1  0
  5 44  1  0
  5 45  1  0
  6 46  1  0
  6 47  1  0
  7 48  1  0
 10 49  1  0
 11 50  1  0
 12 51  1  0
 13 52  1  0
 16 53  1  0
 16 54  1  0
 16 55  1  0
 18 56  1  0
 21 57  1  0
 21 58  1  0
 22 59  1  0
 22 60  1  0
 22 61  1  0
 23 62  1  0
 23 63  1  0
 24 64  1  0
 24 65  1  0
 24 66  1  0
 26 67  1  1
 28 68  1  1
 29 69  1  0
 29 70  1  0
 30 71  1  0
 31 72  1  6
 32 73  1  0
 33 74  1  6
 34 75  1  0
M  CHG  2  15   1  18   1
M  END
>  <UniqueID>  (2) 
2

>  <SMILES>  (2) 
CCN(C)CCNc1c2ccccc2[n+](C)c2[nH+]c(N(CC)CC)n([C@H]3O[C@@H](CO)C(O)C3O)c12

>  <Energy>  (2) 
149.05471204422562

>  <Genealogy>  (2) 
CCN(C)CCNc1c2ccccc2[n+](C)c2[nH+]c(N(CC)CC)n(C3OC(CO)C(O)C3O)c12 (protonated)
CCN(C)CCNc1c2ccccc2[n+](C)c2[nH+]c(N(CC)CC)n([C@H]3O[C@@H](CO)C(O)C3O)c12 (chirality)
CCN(C)CCNc1c2ccccc2[n+](C)c2[nH+]c(N(CC)CC)n([C@H]3O[C@@H](CO)C(O)C3O)c12 (3D coordinates assigned)
CCN(C)CCNc1c2ccccc2[n+](C)c2[nH+]c(N(CC)CC)n([C@H]3O[C@@H](CO)C(O)C3O)c12 (nonaromatic ring conformer: 149.05471204422562 kcal/mol)

>  <smiles>  (2) 
CCN(C)CCNc1c2ccccc2[n+](C)c2nc(N(CC)CC)n(C3OC(CO)C(O)C3O)c12

>  <score_type>  (2) 
oracle

>  <origin>  (2) 
adg

>  <m_score__min__energy>  (2) 
-3.8300000000000001

>  <m_primary>  (2) 
energy

$$$$
2:0
     RDKit          3D

 43 44  0  0  0  0  0  0  0  0999 V2000
   56.5124   22.3962   46.9221 H   0  0  0  0  0  0  0  0  0  0  0  0
   56.8320   23.3800   46.5480 C   0  0  0  0  0  0  0  0  0  0  0  0
   58.1480   23.5550   46.0750 C   0  0  0  0  0  0  0  0  0  0  0  0
   58.8488   22.7072   46.0802 H   0  0  0  0  0  0  0  0  0  0  0  0
   58.5690   24.8070   45.5970 C   0  0  0  0  0  0  0  0  0  0  0  0
   59.5936   24.9547   45.2251 H   0  0  0  0  0  0  0  0  0  0  0  0
   57.6530   25.8560   45.6070 C   0  0  0  0  0  0  0  0  0  0  0  0
   57.8610   27.4350   45.0730 S   0  0  0  0  0  0  0  0  0  0  0  0
   56.2630   27.8350   45.4550 C   0  0  0  0  0  0  0  0  0  0  0  0
   55.7540   29.0120   45.2430 N   0  0  0  0  0  0  0  0  0  0  0  0
   55.7410   29.6950   43.9480 C   0  0  0  0  0  0  0  0  0  0  0  0
   54.8611   30.3531   43.8965 H   0  0  0  0  0  0  0  0  0  0  0  0
   55.7009   28.9378   43.1512 H   0  0  0  0  0  0  0  0  0  0  0  0
   57.0070   30.5350   43.7620 C   0  0  0  0  0  0  0  0  0  0  0  0
   56.9794   31.0277   42.7789 H   0  0  0  0  0  0  0  0  0  0  0  0
   57.8917   29.8839   43.8202 H   0  0  0  0  0  0  0  0  0  0  0  0
   57.0740   31.5130   44.7770 O   0  0  0  0  0  0  0  0  0  0  0  0
   57.7320   32.6650   44.2970 C   0  0  0  0  0  0  0  0  0  0  0  0
   57.3676   32.9044   43.2871 H   0  0  0  0  0  0  0  0  0  0  0  0
   58.8163   32.4843   44.2553 H   0  0  0  0  0  0  0  0  0  0  0  0
   57.4380   33.8320   45.2380 C   0  0  0  0  0  0  0  0  0  0  0  0
   56.6016   34.4218   44.8348 H   0  0  0  0  0  0  0  0  0  0  0  0
   58.3366   34.4611   45.3205 H   0  0  0  0  0  0  0  0  0  0  0  0
   57.0930   33.3500   46.5230 O   0  0  0  0  0  0  0  0  0  0  0  0
   58.1340   33.5920   47.4470 C   0  0  0  0  0  0  0  0  0  0  0  0
   57.7852   34.2902   48.2221 H   0  0  0  0  0  0  0  0  0  0  0  0
   58.9981   34.0334   46.9288 H   0  0  0  0  0  0  0  0  0  0  0  0
   58.5370   32.2700   48.0920 C   0  0  0  0  0  0  0  0  0  0  0  0
   57.8921   32.0799   48.9626 H   0  0  0  0  0  0  0  0  0  0  0  0
   59.5889   32.3328   48.4077 H   0  0  0  0  0  0  0  0  0  0  0  0
   58.3920   31.1660   47.1310 N   0  0  0  0  0  0  0  0  0  0  0  0
   57.6760   31.4250   46.4130 H   0  0  0  0  0  0  0  0  0  0  0  0
   59.6620   30.8290   46.4630 C   0  0  0  0  0  0  0  0  0  0  0  0
   60.4583   31.4672   46.8737 H   0  0  0  0  0  0  0  0  0  0  0  0
   59.5304   30.9968   45.3839 H   0  0  0  0  0  0  0  0  0  0  0  0
   60.0520   29.3620   46.6660 C   0  0  0  0  0  0  0  0  0  0  0  0
   60.1101   29.1436   47.7425 H   0  0  0  0  0  0  0  0  0  0  0  0
   59.2950   28.7136   46.2006 H   0  0  0  0  0  0  0  0  0  0  0  0
   61.0310   29.1751   46.2006 H   0  0  0  0  0  0  0  0  0  0  0  0
   55.5700   26.7970   45.9860 N   0  0  0  0  0  0  0  0  0  0  0  0
   56.3540   25.6920   46.0660 C   0  0  0  0  0  0  0  0  0  0  0  0
   55.9250   24.4540   46.5450 C   0  0  0  0  0  0  0  0  0  0  0  0
   54.8970   24.3208   46.9132 H   0  0  0  0  0  0  0  0  0  0  0  0
  1  2  1  0
  2  3  2  0
  3  4  1  0
  3  5  1  0
  5  6  1  0
  5  7  2  0
  7  8  1  0
  8  9  1  0
  9 10  2  0
 10 11  1  0
 11 12  1  0
 11 13  1  0
 11 14  1  0
 14 15  1  0
 14 16  1  0
 14 17  1  0
 17 18  1  0
 18 19  1  0
 18 20  1  0
 18 21  1  0
 21 22  1  0
 21 23  1  0
 21 24  1  0
 24 25  1  0
 25 26  1  0
 25 27  1  0
 25 28  1  0
 28 29  1  0
 28 30  1  0
 28 31  1  0
 31 32  1  0
 31 33  1  0
 33 34  1  0
 33 35  1  0
 33 36  1  0
 36 37  1  0
 36 38  1  0
 36 39  1  0
  9 40  1  0
 40 41  1  0
 41 42  2  0
 42 43  1  0
 42  2  1  0
 41  7  1  0
M  CHG  1  40  -1
M  END
>  <UniqueID>  (3) 
3

>  <SMILES>  (3) 
CCNCCOCCOCC/N=c1\[n-]c2ccccc2s1

>  <Energy>  (3) 
68.38849835324834

>  <Genealogy>  (3) 
CCNCCOCCOCCN=c1[n-]c2ccccc2s1 (protonated)
CCNCCOCCOCC/N=c1\[n-]c2ccccc2s1 (cis-trans isomerization)
CCNCCOCCOCC/N=c1\[n-]c2ccccc2s1 (3D coordinates assigned)
CCNCCOCCOCC/N=c1\[n-]c2ccccc2s1 (optimized conformer: 68.38849835324834 kcal/mol)

>  <smiles>  (3) 
CCNCCOCCOCCN=c1[nH]c2ccccc2s1

>  <score_type>  (3) 
oracle

>  <origin>  (3) 
adg

>  <m_score__min__energy>  (3) 
-8.0899999999999999

>  <m_primary>  (3) 
energy

$$$$
3:0
     RDKit          3D

 57 59  0  0  0  0  0  0  0  0999 V2000
   58.5090   34.2320   52.7190 C   0  0  0  0  0  0  0  0  0  0  0  0
   58.8070   33.1060   51.7320 C   0  0  0  0  0  0  0  0  0  0  0  0
   60.0600   33.3690   51.0080 N   0  0  0  0  0  0  0  0  0  0  0  0
   59.8340   34.2260   49.8350 C   0  0  0  0  0  0  0  0  0  0  0  0
   61.1370   34.4080   49.0550 C   0  0  0  0  0  0  0  0  0  0  0  0
   62.0750   33.4090   49.4170 O   0  0  0  0  0  0  0  0  0  0  0  0
   63.2640   33.5120   48.6570 C   0  0  0  0  0  0  0  0  0  0  0  0
   63.0570   32.9800   47.2290 C   0  0  0  0  0  0  0  0  0  0  0  0
   62.3950   31.5920   47.1840 C   0  0  0  0  0  0  0  0  0  0  0  0
   61.0570   31.5650   47.7910 N   0  0  0  0  0  0  0  0  0  0  0  0
   59.8240   31.3230   47.0760 C   0  0  0  0  0  0  0  0  0  0  0  0
   59.2300   30.0430   47.0630 C   0  0  0  0  0  0  0  0  0  0  0  0
   59.7380   28.9230   47.8880 C   0  0  0  0  0  0  0  0  0  0  0  0
   59.8370   27.6500   47.3010 C   0  0  0  0  0  0  0  0  0  0  0  0
   60.3600   26.5750   48.0240 C   0  0  0  0  0  0  0  0  0  0  0  0
   60.7840   26.7580   49.3390 C   0  0  0  0  0  0  0  0  0  0  0  0
   60.6790   28.0120   49.9420 C   0  0  0  0  0  0  0  0  0  0  0  0
   60.1430   29.1040   49.2370 C   0  0  0  0  0  0  0  0  0  0  0  0
   60.0180   30.3740   49.9030 N   0  0  0  0  0  0  0  0  0  0  0  0
   60.9220   30.7970   50.6510 O   0  0  0  0  0  0  0  0  0  0  0  0
   58.9440   31.1910   49.6310 O   0  0  0  0  0  0  0  0  0  0  0  0
   58.0810   29.8290   46.3010 C   0  0  0  0  0  0  0  0  0  0  0  0
   57.4890   30.8310   45.6000 N   0  0  0  0  0  0  0  0  0  0  0  0
   56.3610   30.4770   44.8820 O   0  0  0  0  0  0  0  0  0  0  0  0
   57.9980   32.1130   45.6350 C   0  0  0  0  0  0  0  0  0  0  0  0
   57.3880   33.1790   44.9330 C   0  0  0  0  0  0  0  0  0  0  0  0
   57.9290   34.4640   44.9700 C   0  0  0  0  0  0  0  0  0  0  0  0
   59.0800   34.7200   45.7040 C   0  0  0  0  0  0  0  0  0  0  0  0
   59.6990   33.6940   46.4120 C   0  0  0  0  0  0  0  0  0  0  0  0
   59.1780   32.3810   46.3910 C   0  0  0  0  0  0  0  0  0  0  0  0
   58.6090   33.8543   53.7473 H   0  0  0  0  0  0  0  0  0  0  0  0
   59.2199   35.0563   52.5604 H   0  0  0  0  0  0  0  0  0  0  0  0
   57.4834   34.5967   52.5604 H   0  0  0  0  0  0  0  0  0  0  0  0
   58.8999   32.1582   52.2824 H   0  0  0  0  0  0  0  0  0  0  0  0
   57.9838   33.0453   51.0049 H   0  0  0  0  0  0  0  0  0  0  0  0
   60.4260   32.4490   50.6630 H   0  0  0  0  0  0  0  0  0  0  0  0
   59.0822   33.7580   49.1825 H   0  0  0  0  0  0  0  0  0  0  0  0
   59.4774   35.2102   50.1729 H   0  0  0  0  0  0  0  0  0  0  0  0
   60.9274   34.3346   47.9776 H   0  0  0  0  0  0  0  0  0  0  0  0
   61.5592   35.3956   49.2924 H   0  0  0  0  0  0  0  0  0  0  0  0
   63.5675   34.5681   48.6063 H   0  0  0  0  0  0  0  0  0  0  0  0
   64.0435   32.9083   49.1448 H   0  0  0  0  0  0  0  0  0  0  0  0
   62.4181   33.6889   46.6820 H   0  0  0  0  0  0  0  0  0  0  0  0
   64.0527   32.8798   46.7723 H   0  0  0  0  0  0  0  0  0  0  0  0
   62.3075   31.2811   46.1325 H   0  0  0  0  0  0  0  0  0  0  0  0
   63.0306   30.9094   47.7671 H   0  0  0  0  0  0  0  0  0  0  0  0
   61.0040   31.7640   48.8150 H   0  0  0  0  0  0  0  0  0  0  0  0
   59.5003   27.4989   46.2648 H   0  0  0  0  0  0  0  0  0  0  0  0
   60.4372   25.5831   47.5549 H   0  0  0  0  0  0  0  0  0  0  0  0
   61.2026   25.9115   49.9031 H   0  0  0  0  0  0  0  0  0  0  0  0
   61.0190   28.1475   50.9793 H   0  0  0  0  0  0  0  0  0  0  0  0
   57.6422   28.8209   46.2668 H   0  0  0  0  0  0  0  0  0  0  0  0
   55.4190   30.4990   45.2420 H   0  0  0  0  0  0  0  0  0  0  0  0
   56.4743   32.9918   44.3498 H   0  0  0  0  0  0  0  0  0  0  0  0
   57.4415   35.2790   44.4149 H   0  0  0  0  0  0  0  0  0  0  0  0
   59.5030   35.7352   45.7258 H   0  0  0  0  0  0  0  0  0  0  0  0
   60.6063   33.9084   46.9959 H   0  0  0  0  0  0  0  0  0  0  0  0
  1  2  1  0
  2  3  1  0
  3  4  1  0
  4  5  1  0
  5  6  1  0
  6  7  1  0
  7  8  1  0
  8  9  1  0
  9 10  1  0
 10 11  1  0
 11 12  2  0
 12 13  1  0
 13 14  2  0
 14 15  1  0
 15 16  2  0
 16 17  1  0
 17 18  2  0
 18 19  1  0
 19 20  2  0
 19 21  1  0
 12 22  1  0
 22 23  2  0
 23 24  1  0
 23 25  1  0
 25 26  2  0
 26 27  1  0
 27 28  2  0
 28 29  1  0
 29 30  2  0
 30 11  1  0
 18 13  1  0
 30 25  1  0
  1 31  1  0
  1 32  1  0
  1 33  1  0
  2 34  1  0
  2 35  1  0
  3 36  1  0
  4 37  1  0
  4 38  1  0
  5 39  1  0
  5 40  1  0
  7 41  1  0
  7 42  1  0
  8 43  1  0
  8 44  1  0
  9 45  1  0
  9 46  1  0
 10 47  1  0
 14 48  1  0
 15 49  1  0
 16 50  1  0
 17 51  1  0
 22 52  1  0
 24 53  1  0
 26 54  1  0
 27 55  1  0
 28 56  1  0
 29 57  1  0
M  CHG  3  19   1  21  -1  23   1
M  END
>  <UniqueID>  (4) 
4

>  <SMILES>  (4) 
CCNCCOCCCNc1c(-c2ccccc2[N+](=O)[O-])c[n+](O)c2ccccc12

>  <Energy>  (4) 
77.0273203966893

>  <Genealogy>  (4) 
CCNCCOCCCNc1c(-c2ccccc2[N+](=O)[O-])c[n+](O)c2ccccc12 (protonated)
CCNCCOCCCNc1c(-c2ccccc2[N+](=O)[O-])c[n+](O)c2ccccc12 (3D coordinates assigned)
CCNCCOCCCNc1c(-c2ccccc2[N+](=O)[O-])c[n+](O)c2ccccc12 (optimized conformer: 77.0273203966893 kcal/mol)

>  <smiles>  (4) 
CCNCCOCCCNc1c(-c2ccccc2[N+](=O)[O-])c[n+]([O-])c2ccccc12

>  <score_type>  (4) 
oracle

>  <origin>  (4) 
adg

>  <m_score__min__energy>  (4) 
-4.8200000000000003

>  <m_primary>  (4) 
energy

$$$$
4:0
     RDKit          3D

 55 58  0  0  0  0  0  0  0  0999 V2000
   55.1260   24.0600   44.9080 C   0  0  0  0  0  0  0  0  0  0  0  0
   54.2520   25.1010   45.5960 C   0  0  0  0  0  0  0  0  0  0  0  0
   55.0700   26.2540   45.9920 N   0  0  0  0  0  0  0  0  0  0  0  0
   56.4910   25.9820   45.7440 C   0  0  0  0  0  0  0  0  0  0  0  0
   57.2940   26.1680   47.0290 C   0  0  0  0  0  0  0  0  0  0  0  0
   58.1570   27.2730   46.8750 O   0  0  0  0  0  0  0  0  0  0  0  0
   59.4990   26.8340   46.9010 C   0  0  0  0  0  0  0  0  0  0  0  0
   60.4100   28.0070   47.2680 C   0  0  0  0  0  0  0  0  0  0  0  0
   59.7290   28.9510   48.1710 N   0  0  0  0  0  0  0  0  0  0  0  0
   60.0910   30.3140   47.8460 C   0  0  0  0  0  0  0  0  0  0  0  0
   61.0930   31.0210   48.5770 C   0  0  0  0  0  0  0  0  0  0  0  0
   61.6770   30.4760   49.7450 C   0  0  0  0  0  0  0  0  0  0  0  0
   62.6350   31.1830   50.4670 C   0  0  0  0  0  0  0  0  0  0  0  0
   63.0300   32.4480   50.0550 C   0  0  0  0  0  0  0  0  0  0  0  0
   62.4730   33.0190   48.9120 C   0  0  0  0  0  0  0  0  0  0  0  0
   61.5090   32.3250   48.1390 C   0  0  0  0  0  0  0  0  0  0  0  0
   60.9610   32.8910   47.0010 N   0  0  0  0  0  0  0  0  0  0  0  0
   61.4750   34.1590   46.4490 C   0  0  0  0  0  0  0  0  0  0  0  0
   59.9040   32.2610   46.4030 C   0  0  0  0  0  0  0  0  0  0  0  0
   59.1490   32.7600   45.3950 N   0  0  0  0  0  0  0  0  0  0  0  0
   58.2230   31.8200   45.1440 C   0  0  0  0  0  0  0  0  0  0  0  0
   57.2000   31.9050   44.2020 C   0  0  0  0  0  0  0  0  0  0  0  0
   56.2930   30.8400   44.1090 C   0  0  0  0  0  0  0  0  0  0  0  0
   56.4150   29.7240   44.9620 C   0  0  0  0  0  0  0  0  0  0  0  0
   55.4980   28.6840   44.8700 O   0  0  0  0  0  0  0  0  0  0  0  0
   57.4510   29.6610   45.9100 C   0  0  0  0  0  0  0  0  0  0  0  0
   58.3650   30.7250   45.9750 C   0  0  0  0  0  0  0  0  0  0  0  0
   59.4600   31.0090   46.7970 C   0  0  0  0  0  0  0  0  0  0  0  0
   55.6375   23.4508   45.6677 H   0  0  0  0  0  0  0  0  0  0  0  0
   54.4979   23.4113   44.2798 H   0  0  0  0  0  0  0  0  0  0  0  0
   55.8736   24.5663   44.2798 H   0  0  0  0  0  0  0  0  0  0  0  0
   53.4648   25.4326   44.9029 H   0  0  0  0  0  0  0  0  0  0  0  0
   53.7940   24.6560   46.4916 H   0  0  0  0  0  0  0  0  0  0  0  0
   54.7880   27.0640   45.3890 H   0  0  0  0  0  0  0  0  0  0  0  0
   56.6067   24.9471   45.3895 H   0  0  0  0  0  0  0  0  0  0  0  0
   56.8637   26.6829   44.9825 H   0  0  0  0  0  0  0  0  0  0  0  0
   56.6081   26.3500   47.8695 H   0  0  0  0  0  0  0  0  0  0  0  0
   57.8831   25.2619   47.2337 H   0  0  0  0  0  0  0  0  0  0  0  0
   59.6095   26.0353   47.6493 H   0  0  0  0  0  0  0  0  0  0  0  0
   59.7786   26.4476   45.9098 H   0  0  0  0  0  0  0  0  0  0  0  0
   61.3100   27.6191   47.7675 H   0  0  0  0  0  0  0  0  0  0  0  0
   60.6774   28.5413   46.3444 H   0  0  0  0  0  0  0  0  0  0  0  0
   59.9580   28.7530   49.1690 H   0  0  0  0  0  0  0  0  0  0  0  0
   58.6930   28.8250   48.1220 H   0  0  0  0  0  0  0  0  0  0  0  0
   61.3691   29.4773   50.0883 H   0  0  0  0  0  0  0  0  0  0  0  0
   63.0808   30.7367   51.3682 H   0  0  0  0  0  0  0  0  0  0  0  0
   63.7850   33.0018   50.6323 H   0  0  0  0  0  0  0  0  0  0  0  0
   62.7875   34.0271   48.6042 H   0  0  0  0  0  0  0  0  0  0  0  0
   61.7485   34.8337   47.2736 H   0  0  0  0  0  0  0  0  0  0  0  0
   62.3622   33.9569   45.8309 H   0  0  0  0  0  0  0  0  0  0  0  0
   60.6975   34.6317   45.8309 H   0  0  0  0  0  0  0  0  0  0  0  0
   59.2080   33.6910   44.9300 H   0  0  0  0  0  0  0  0  0  0  0  0
   57.1064   32.7847   43.5483 H   0  0  0  0  0  0  0  0  0  0  0  0
   55.4820   30.8752   43.3667 H   0  0  0  0  0  0  0  0  0  0  0  0
   57.5436   28.7978   46.5855 H   0  0  0  0  0  0  0  0  0  0  0  0
  1  2  1  0
  2  3  1  0
  3  4  1  0
  4  5  1  0
  5  6  1  0
  6  7  1  0
  7  8  1  0
  8  9  1  0
  9 10  1  0
 10 11  2  0
 11 12  1  0
 12 13  2  0
 13 14  1  0
 14 15  2  0
 15 16  1  0
 16 17  2  0
 17 18  1  0
 17 19  1  0
 19 20  1  0
 20 21  1  0
 21 22  2  0
 22 23  1  0
 23 24  2  0
 24 25  1  0
 24 26  1  0
 26 27  2  0
 27 28  1  0
 28 10  1  0
 16 11  1  0
 28 19  2  0
 27 21  1  0
  1 29  1  0
  1 30  1  0
  1 31  1  0
  2 32  1  0
  2 33  1  0
  3 34  1  0
  4 35  1  0
  4 36  1  0
  5 37  1  0
  5 38  1  0
  7 39  1  0
  7 40  1  0
  8 41  1  0
  8 42  1  0
  9 43  1  0
  9 44  1  0
 12 45  1  0
 13 46  1  0
 14 47  1  0
 15 48  1  0
 18 49  1  0
 18 50  1  0
 18 51  1  0
 20 52  1  0
 22 53  1  0
 23 54  1  0
 26 55  1  0
M  CHG  3   9   1  17   1  25  -1
M  END
>  <UniqueID>  (5) 
5

>  <SMILES>  (5) 
CCNCCOCC[NH2+]c1c2ccccc2[n+](C)c2[nH]c3ccc([O-])cc3c12

>  <Energy>  (5) 
108.80072186866745

>  <Genealogy>  (5) 
CCNCCOCC[NH2+]c1c2ccccc2[n+](C)c2[nH]c3ccc([O-])cc3c12 (protonated)
CCNCCOCC[NH2+]c1c2ccccc2[n+](C)c2[nH]c3ccc([O-])cc3c12 (3D coordinates assigned)
CCNCCOCC[NH2+]c1c2ccccc2[n+](C)c2[nH]c3ccc([O-])cc3c12 (optimized conformer: 108.80072186866745 kcal/mol)

>  <smiles>  (5) 
CCNCCOCCNc1c2ccccc2[n+](C)c2[nH]c3ccc(O)cc3c12

>  <score_type>  (5) 
oracle

>  <origin>  (5) 
adg

>  <m_score__min__energy>  (5) 
-7.7400000000000002

>  <m_primary>  (5) 
energy

$$$$
5:0
     RDKit          3D

 60 62  0  0  0  0  0  0  0  0999 V2000
   59.9370   34.9540   47.0770 C   0  0  0  0  0  0  0  0  0  0  0  0
   59.7430   34.0960   45.8250 C   0  0  0  0  0  0  0  0  0  0  0  0
   58.7440   33.0350   46.0170 N   0  0  0  0  0  0  0  0  0  0  0  0
   57.3830   33.4650   45.6710 C   0  0  0  0  0  0  0  0  0  0  0  0
   56.6840   32.3740   44.8600 C   0  0  0  0  0  0  0  0  0  0  0  0
   57.6110   31.8490   43.8420 N   0  0  0  0  0  0  0  0  0  0  0  0
   57.3200   30.4600   43.4600 C   0  0  0  0  0  0  0  0  0  0  0  0
   58.2290   29.4630   44.2050 C   0  0  0  0  0  0  0  0  0  0  0  0
   58.8370   30.0350   45.4200 N   0  0  0  0  0  0  0  0  0  0  0  0
   58.8240   29.0880   46.5420 C   0  0  0  0  0  0  0  0  0  0  0  0
   59.0730   29.8160   47.8780 C   0  0  0  0  0  0  0  0  0  0  0  0
   59.3320   31.2640   47.7230 N   0  0  0  0  0  0  0  0  0  0  0  0
   60.0790   31.8360   48.8400 C   0  0  0  0  0  0  0  0  0  0  0  0
   61.4330   32.2400   48.6570 C   0  0  0  0  0  0  0  0  0  0  0  0
   62.0920   32.0970   47.4080 C   0  0  0  0  0  0  0  0  0  0  0  0
   63.4300   32.4450   47.2520 C   0  0  0  0  0  0  0  0  0  0  0  0
   64.1550   32.9230   48.3320 C   0  0  0  0  0  0  0  0  0  0  0  0
   63.5370   33.0870   49.5680 C   0  0  0  0  0  0  0  0  0  0  0  0
   62.1600   32.7900   49.7500 C   0  0  0  0  0  0  0  0  0  0  0  0
   61.5380   33.0140   50.9600 N   0  0  0  0  0  0  0  0  0  0  0  0
   62.2050   33.8500   51.9870 C   0  0  0  0  0  0  0  0  0  0  0  0
   60.2910   32.4800   51.2100 C   0  0  0  0  0  0  0  0  0  0  0  0
   59.7650   32.4440   52.5270 C   0  0  0  0  0  0  0  0  0  0  0  0
   58.4830   31.9740   52.7830 C   0  0  0  0  0  0  0  0  0  0  0  0
   57.6930   31.5160   51.7420 C   0  0  0  0  0  0  0  0  0  0  0  0
   56.0600   30.9610   52.0660 Cl  0  0  0  0  0  0  0  0  0  0  0  0
   58.1960   31.4840   50.4440 C   0  0  0  0  0  0  0  0  0  0  0  0
   59.5130   31.9290   50.1480 C   0  0  0  0  0  0  0  0  0  0  0  0
   59.7963   34.3319   47.9732 H   0  0  0  0  0  0  0  0  0  0  0  0
   60.9531   35.3754   47.0789 H   0  0  0  0  0  0  0  0  0  0  0  0
   59.2010   35.7715   47.0789 H   0  0  0  0  0  0  0  0  0  0  0  0
   59.4136   34.7452   45.0004 H   0  0  0  0  0  0  0  0  0  0  0  0
   60.7048   33.6118   45.6002 H   0  0  0  0  0  0  0  0  0  0  0  0
   59.0030   32.2060   45.4300 H   0  0  0  0  0  0  0  0  0  0  0  0
   56.8146   33.6546   46.5935 H   0  0  0  0  0  0  0  0  0  0  0  0
   57.4352   34.3855   45.0710 H   0  0  0  0  0  0  0  0  0  0  0  0
   56.3762   31.5586   45.5311 H   0  0  0  0  0  0  0  0  0  0  0  0
   55.7969   32.7962   44.3653 H   0  0  0  0  0  0  0  0  0  0  0  0
   58.5800   31.8740   44.2390 H   0  0  0  0  0  0  0  0  0  0  0  0
   56.2707   30.2358   43.7022 H   0  0  0  0  0  0  0  0  0  0  0  0
   57.5060   30.3543   42.3810 H   0  0  0  0  0  0  0  0  0  0  0  0
   57.6278   28.5878   44.4925 H   0  0  0  0  0  0  0  0  0  0  0  0
   59.0486   29.1920   43.5232 H   0  0  0  0  0  0  0  0  0  0  0  0
   58.3480   30.9180   45.6910 H   0  0  0  0  0  0  0  0  0  0  0  0
   57.8446   28.5887   46.5808 H   0  0  0  0  0  0  0  0  0  0  0  0
   59.6251   28.3500   46.3888 H   0  0  0  0  0  0  0  0  0  0  0  0
   58.1854   29.6875   48.5149 H   0  0  0  0  0  0  0  0  0  0  0  0
   59.9753   29.3725   48.3242 H   0  0  0  0  0  0  0  0  0  0  0  0
   59.7530   31.4460   46.7910 H   0  0  0  0  0  0  0  0  0  0  0  0
   58.4180   31.7630   47.6320 H   0  0  0  0  0  0  0  0  0  0  0  0
   61.5336   31.7031   46.5460 H   0  0  0  0  0  0  0  0  0  0  0  0
   63.9134   32.3405   46.2694 H   0  0  0  0  0  0  0  0  0  0  0  0
   65.2195   33.1729   48.2122 H   0  0  0  0  0  0  0  0  0  0  0  0
   64.1266   33.4540   50.4210 H   0  0  0  0  0  0  0  0  0  0  0  0
   61.9219   33.4952   52.9890 H   0  0  0  0  0  0  0  0  0  0  0  0
   63.2960   33.7773   51.8669 H   0  0  0  0  0  0  0  0  0  0  0  0
   61.8919   34.8976   51.8669 H   0  0  0  0  0  0  0  0  0  0  0  0
   60.3859   32.7960   53.3640 H   0  0  0  0  0  0  0  0  0  0  0  0
   58.0955   31.9657   53.8125 H   0  0  0  0  0  0  0  0  0  0  0  0
   57.5602   31.1060   49.6298 H   0  0  0  0  0  0  0  0  0  0  0  0
  1  2  1  0
  2  3  1  0
  3  4  1  0
  4  5  1  0
  5  6  1  0
  6  7  1  0
  7  8  1  0
  8  9  1  0
  9 10  1  0
 10 11  1  0
 11 12  1  0
 12 13  1  0
 13 14  2  0
 14 15  1  0
 15 16  2  0
 16 17  1  0
 17 18  2  0
 18 19  1  0
 19 20  2  0
 20 21  1  0
 20 22  1  0
 22 23  2  0
 23 24  1  0
 24 25  2  0
 25 26  1  0
 25 27  1  0
 27 28  2  0
 28 13  1  0
 19 14  1  0
 28 22  1  0
  1 29  1  0
  1 30  1  0
  1 31  1  0
  2 32  1  0
  2 33  1  0
  3 34  1  0
  4 35  1  0
  4 36  1  0
  5 37  1  0
  5 38  1  0
  6 39  1  0
  7 40  1  0
  7 41  1  0
  8 42  1  0
  8 43  1  0
  9 44  1  0
 10 45  1  0
 10 46  1  0
 11 47  1  0
 11 48  1  0
 12 49  1  0
 12 50  1  0
 15 51  1  0
 16 52  1  0
 17 53  1  0
 18 54  1  0
 21 55  1  0
 21 56  1  0
 21 57  1  0
 23 58  1  0
 24 59  1  0
 27 60  1  0
M  CHG  2  12   1  20   1
M  END
>  <UniqueID>  (6) 
6

>  <SMILES>  (6) 
CCNCCNCCNCC[NH2+]c1c2ccccc2[n+](C)c2ccc(Cl)cc12

>  <Energy>  (6) 
81.74353026194215

>  <Genealogy>  (6) 
CCNCCNCCNCC[NH2+]c1c2ccccc2[n+](C)c2ccc(Cl)cc12 (protonated)
CCNCCNCCNCC[NH2+]c1c2ccccc2[n+](C)c2ccc(Cl)cc12 (3D coordinates assigned)
CCNCCNCCNCC[NH2+]c1c2ccccc2[n+](C)c2ccc(Cl)cc12 (optimized conformer: 81.74353026194215 kcal/mol)

>  <smiles>  (6) 
CCNCCNCCNCCNc1c2ccccc2[n+](C)c2ccc(Cl)cc12

>  <score_type>  (6) 
oracle

>  <origin>  (6) 
adg

>  <m_score__min__energy>  (6) 
-4

>  <m_primary>  (6) 
energy

$$$$
6:0
     RDKit          3D

 72 75  0  0  0  0  0  0  0  0999 V2000
   63.3340   32.6980   47.3270 C   0  0  0  0  0  0  0  0  0  0  0  0
   63.6690   32.1810   48.7220 C   0  0  0  0  0  0  0  0  0  0  0  0
   62.6220   31.2610   49.1810 N   0  0  0  0  0  0  0  0  0  0  0  0
   62.9530   30.7340   50.5100 C   0  0  0  0  0  0  0  0  0  0  0  0
   62.0260   29.5720   50.8550 C   0  0  0  0  0  0  0  0  0  0  0  0
   61.3270   29.1750   49.6950 O   0  0  0  0  0  0  0  0  0  0  0  0
   60.0190   28.7790   50.0460 C   0  0  0  0  0  0  0  0  0  0  0  0
   59.0660   29.1160   48.8990 C   0  0  0  0  0  0  0  0  0  0  0  0
   59.7660   29.8410   47.8300 N   0  0  0  0  0  0  0  0  0  0  0  0
   59.1170   30.8960   47.0980 C   0  0  0  0  0  0  0  0  0  0  0  0
   58.5040   30.5850   45.8620 C   0  0  0  0  0  0  0  0  0  0  0  0
   58.5790   29.2850   45.3130 C   0  0  0  0  0  0  0  0  0  0  0  0
   57.9410   28.9740   44.1150 C   0  0  0  0  0  0  0  0  0  0  0  0
   57.2490   29.9560   43.4200 C   0  0  0  0  0  0  0  0  0  0  0  0
   57.2110   31.2600   43.9070 C   0  0  0  0  0  0  0  0  0  0  0  0
   57.8430   31.6040   45.1300 C   0  0  0  0  0  0  0  0  0  0  0  0
   57.8890   32.9070   45.5730 N   0  0  0  0  0  0  0  0  0  0  0  0
   57.0270   33.9360   44.9530 C   0  0  0  0  0  0  0  0  0  0  0  0
   58.7540   33.2560   46.5880 C   0  0  0  0  0  0  0  0  0  0  0  0
   59.1900   34.5920   46.7330 C   0  0  0  0  0  0  0  0  0  0  0  0
   60.0470   34.9590   47.7580 C   0  0  0  0  0  0  0  0  0  0  0  0
   60.3990   34.0360   48.7280 C   0  0  0  0  0  0  0  0  0  0  0  0
   59.9260   32.7130   48.6780 C   0  0  0  0  0  0  0  0  0  0  0  0
   59.9890   31.9430   49.9090 N   0  0  0  0  0  0  0  0  0  0  0  0
   60.1950   32.7990   51.0940 C   0  0  0  0  0  0  0  0  0  0  0  0
   60.0790   32.0080   52.4120 C   0  0  0  0  0  0  0  0  0  0  0  0
   58.7280   32.1740   52.9950 N   0  0  0  0  0  0  0  0  0  0  0  0
   58.2350   30.9230   53.6070 C   0  0  0  0  0  0  0  0  0  0  0  0
   57.8760   29.8610   52.5390 C   0  0  0  0  0  0  0  0  0  0  0  0
   57.7440   30.4050   51.2380 O   0  0  0  0  0  0  0  0  0  0  0  0
   56.9770   31.5880   51.2840 C   0  0  0  0  0  0  0  0  0  0  0  0
   57.7480   32.7050   52.0160 C   0  0  0  0  0  0  0  0  0  0  0  0
   59.2550   32.2630   47.4850 C   0  0  0  0  0  0  0  0  0  0  0  0
   62.7376   33.6185   47.4105 H   0  0  0  0  0  0  0  0  0  0  0  0
   64.2651   32.9126   46.7821 H   0  0  0  0  0  0  0  0  0  0  0  0
   62.7577   31.9358   46.7821 H   0  0  0  0  0  0  0  0  0  0  0  0
   64.6324   31.6509   48.6924 H   0  0  0  0  0  0  0  0  0  0  0  0
   63.7324   33.0315   49.4167 H   0  0  0  0  0  0  0  0  0  0  0  0
   62.5910   30.4540   48.5140 H   0  0  0  0  0  0  0  0  0  0  0  0
   63.9952   30.3822   50.5134 H   0  0  0  0  0  0  0  0  0  0  0  0
   62.8266   31.5315   51.2570 H   0  0  0  0  0  0  0  0  0  0  0  0
   62.6203   28.7273   51.2335 H   0  0  0  0  0  0  0  0  0  0  0  0
   61.3097   29.8879   51.6278 H   0  0  0  0  0  0  0  0  0  0  0  0
   60.0006   27.6952   50.2330 H   0  0  0  0  0  0  0  0  0  0  0  0
   59.7040   29.3106   50.9561 H   0  0  0  0  0  0  0  0  0  0  0  0
   58.6516   28.1830   48.4895 H   0  0  0  0  0  0  0  0  0  0  0  0
   58.2609   29.7564   49.2884 H   0  0  0  0  0  0  0  0  0  0  0  0
   60.8020   29.7400   47.7240 H   0  0  0  0  0  0  0  0  0  0  0  0
   59.1502   28.5067   45.8402 H   0  0  0  0  0  0  0  0  0  0  0  0
   57.9855   27.9487   43.7190 H   0  0  0  0  0  0  0  0  0  0  0  0
   56.7300   29.7039   42.4835 H   0  0  0  0  0  0  0  0  0  0  0  0
   56.6824   32.0362   43.3342 H   0  0  0  0  0  0  0  0  0  0  0  0
   56.5340   34.5245   45.7408 H   0  0  0  0  0  0  0  0  0  0  0  0
   57.6414   34.6012   44.3285 H   0  0  0  0  0  0  0  0  0  0  0  0
   56.2644   33.4477   44.3285 H   0  0  0  0  0  0  0  0  0  0  0  0
   58.8430   35.3541   46.0197 H   0  0  0  0  0  0  0  0  0  0  0  0
   60.4473   35.9827   47.8010 H   0  0  0  0  0  0  0  0  0  0  0  0
   61.0600   34.3430   49.5519 H   0  0  0  0  0  0  0  0  0  0  0  0
   60.7770   31.2580   49.8410 H   0  0  0  0  0  0  0  0  0  0  0  0
   59.1290   31.4110   50.1050 H   0  0  0  0  0  0  0  0  0  0  0  0
   61.1980   33.2471   51.0371 H   0  0  0  0  0  0  0  0  0  0  0  0
   59.4108   33.5704   51.0934 H   0  0  0  0  0  0  0  0  0  0  0  0
   60.2591   30.9414   52.2119 H   0  0  0  0  0  0  0  0  0  0  0  0
   60.8251   32.3895   53.1246 H   0  0  0  0  0  0  0  0  0  0  0  0
   59.0175   30.5161   54.2643 H   0  0  0  0  0  0  0  0  0  0  0  0
   57.3227   31.1575   54.1751 H   0  0  0  0  0  0  0  0  0  0  0  0
   58.6698   29.0997   52.5214 H   0  0  0  0  0  0  0  0  0  0  0  0
   56.9014   29.4329   52.8163 H   0  0  0  0  0  0  0  0  0  0  0  0
   56.7543   31.9149   50.2576 H   0  0  0  0  0  0  0  0  0  0  0  0
   56.0433   31.3850   51.8290 H   0  0  0  0  0  0  0  0  0  0  0  0
   58.2864   33.3085   51.2704 H   0  0  0  0  0  0  0  0  0  0  0  0
   57.0144   33.3073   52.5719 H   0  0  0  0  0  0  0  0  0  0  0  0
  1  2  1  0
  2  3  1  0
  3  4  1  0
  4  5  1  0
  5  6  1  0
  6  7  1  0
  7  8  1  0
  8  9  1  0
  9 10  1  0
 10 11  2  0
 11 12  1  0
 12 13  2  0
 13 14  1  0
 14 15  2  0
 15 16  1  0
 16 17  2  0
 17 18  1  0
 17 19  1  0
 19 20  2  0
 20 21  1  0
 21 22  2  0
 22 23  1  0
 23 24  1  0
 24 25  1  0
 25 26  1  0
 26 27  1  0
 27 28  1  0
 28 29  1  0
 29 30  1  0
 30 31  1  0
 31 32  1  0
 23 33  2  0
 33 10  1  0
 16 11  1  0
 33 19  1  0
 32 27  1  0
  1 34  1  0
  1 35  1  0
  1 36  1  0
  2 37  1  0
  2 38  1  0
  3 39  1  0
  4 40  1  0
  4 41  1  0
  5 42  1  0
  5 43  1  0
  7 44  1  0
  7 45  1  0
  8 46  1  0
  8 47  1  0
  9 48  1  0
 12 49  1  0
 13 50  1  0
 14 51  1  0
 15 52  1  0
 18 53  1  0
 18 54  1  0
 18 55  1  0
 20 56  1  0
 21 57  1  0
 22 58  1  0
 24 59  1  0
 24 60  1  0
 25 61  1  0
 25 62  1  0
 26 63  1  0
 26 64  1  0
 28 65  1  0
 28 66  1  0
 29 67  1  0
 29 68  1  0
 31 69  1  0
 31 70  1  0
 32 71  1  0
 32 72  1  0
M  CHG  2  17   1  24   1
M  END
>  <UniqueID>  (7) 
7

>  <SMILES>  (7) 
CCNCCOCCNc1c2ccccc2[n+](C)c2cccc([NH2+]CCN3CCOCC3)c12

>  <Energy>  (7) 
121.17351323768696

>  <Genealogy>  (7) 
CCNCCOCCNc1c2ccccc2[n+](C)c2cccc([NH2+]CCN3CCOCC3)c12 (protonated)
CCNCCOCCNc1c2ccccc2[n+](C)c2cccc([NH2+]CCN3CCOCC3)c12 (3D coordinates assigned)
CCNCCOCCNc1c2ccccc2[n+](C)c2cccc([NH2+]CCN3CCOCC3)c12 (nonaromatic ring conformer: 121.17351323768696 kcal/mol)

>  <smiles>  (7) 
CCNCCOCCNc1c2ccccc2[n+](C)c2cccc(NCCN3CCOCC3)c12

>  <score_type>  (7) 
oracle

>  <origin>  (7) 
adg

>  <m_score__min__energy>  (7) 
-4.71

>  <m_primary>  (7) 
energy

$$$$
7:0
     RDKit          3D

 51 53  0  0  0  0  0  0  0  0999 V2000
   56.4870   30.8390   43.7550 C   0  0  0  0  0  0  0  0  0  0  0  0
   57.7100   30.9060   44.5890 N   0  0  0  0  0  0  0  0  0  0  0  0
   58.3670   29.7400   44.9510 C   0  0  0  0  0  0  0  0  0  0  0  0
   59.3070   29.7760   46.0320 C   0  0  0  0  0  0  0  0  0  0  0  0
   59.7390   31.0340   46.5040 C   0  0  0  0  0  0  0  0  0  0  0  0
   60.7620   31.1120   47.5090 N   0  0  0  0  0  0  0  0  0  0  0  0
   62.1740   31.1540   47.1310 C   0  0  0  0  0  0  0  0  0  0  0  0
   63.0380   31.6250   48.3130 C   0  0  0  0  0  0  0  0  0  0  0  0
   63.8230   32.8420   47.9930 N   0  0  0  0  0  0  0  0  0  0  0  0
   63.3140   33.4530   46.7520 C   0  0  0  0  0  0  0  0  0  0  0  0
   63.7650   33.8310   49.0870 C   0  0  0  0  0  0  0  0  0  0  0  0
   59.1990   32.2150   45.9790 C   0  0  0  0  0  0  0  0  0  0  0  0
   59.6520   33.4770   46.4210 C   0  0  0  0  0  0  0  0  0  0  0  0
   59.1300   34.6500   45.8800 C   0  0  0  0  0  0  0  0  0  0  0  0
   58.1580   34.5860   44.8900 C   0  0  0  0  0  0  0  0  0  0  0  0
   57.6880   33.3490   44.4480 C   0  0  0  0  0  0  0  0  0  0  0  0
   58.1810   32.1370   44.9990 C   0  0  0  0  0  0  0  0  0  0  0  0
   59.9230   28.5380   46.6860 C   0  0  0  0  0  0  0  0  0  0  0  0
   58.9210   27.4750   47.1450 C   0  0  0  0  0  0  0  0  0  0  0  0
   58.3840   26.6640   45.9640 C   0  0  0  0  0  0  0  0  0  0  0  0
   58.8440   27.2120   44.6090 C   0  0  0  0  0  0  0  0  0  0  0  0
   58.0430   28.4480   44.1900 C   0  0  0  0  0  0  0  0  0  0  0  0
   55.6016   30.7905   44.4059 H   0  0  0  0  0  0  0  0  0  0  0  0
   56.4267   31.7352   43.1200 H   0  0  0  0  0  0  0  0  0  0  0  0
   56.5249   29.9416   43.1200 H   0  0  0  0  0  0  0  0  0  0  0  0
   60.4690   31.2330   48.5050 H   0  0  0  0  0  0  0  0  0  0  0  0
   62.4965   30.1475   46.8261 H   0  0  0  0  0  0  0  0  0  0  0  0
   62.2968   31.8620   46.2982 H   0  0  0  0  0  0  0  0  0  0  0  0
   62.3792   31.8443   49.1662 H   0  0  0  0  0  0  0  0  0  0  0  0
   63.7500   30.8202   48.5483 H   0  0  0  0  0  0  0  0  0  0  0  0
   64.8240   32.5800   47.8320 H   0  0  0  0  0  0  0  0  0  0  0  0
   62.6285   34.2759   47.0028 H   0  0  0  0  0  0  0  0  0  0  0  0
   64.1569   33.8444   46.1635 H   0  0  0  0  0  0  0  0  0  0  0  0
   62.7768   32.6947   46.1635 H   0  0  0  0  0  0  0  0  0  0  0  0
   63.7956   33.3093   50.0549 H   0  0  0  0  0  0  0  0  0  0  0  0
   64.6247   34.5130   49.0107 H   0  0  0  0  0  0  0  0  0  0  0  0
   62.8315   34.4078   49.0107 H   0  0  0  0  0  0  0  0  0  0  0  0
   60.4255   33.5348   47.2010 H   0  0  0  0  0  0  0  0  0  0  0  0
   59.4878   35.6270   46.2370 H   0  0  0  0  0  0  0  0  0  0  0  0
   57.7578   35.5129   44.4533 H   0  0  0  0  0  0  0  0  0  0  0  0
   56.9223   33.3121   43.6591 H   0  0  0  0  0  0  0  0  0  0  0  0
   60.6037   28.0720   45.9583 H   0  0  0  0  0  0  0  0  0  0  0  0
   60.4283   28.8936   47.5960 H   0  0  0  0  0  0  0  0  0  0  0  0
   59.4205   26.7933   47.8492 H   0  0  0  0  0  0  0  0  0  0  0  0
   58.0739   27.9845   47.6276 H   0  0  0  0  0  0  0  0  0  0  0  0
   58.7360   25.6264   46.0612 H   0  0  0  0  0  0  0  0  0  0  0  0
   57.2861   26.7268   45.9911 H   0  0  0  0  0  0  0  0  0  0  0  0
   59.9075   27.4844   44.6783 H   0  0  0  0  0  0  0  0  0  0  0  0
   58.6829   26.4295   43.8529 H   0  0  0  0  0  0  0  0  0  0  0  0
   58.2336   28.6281   43.1217 H   0  0  0  0  0  0  0  0  0  0  0  0
   56.9929   28.2180   44.4231 H   0  0  0  0  0  0  0  0  0  0  0  0
  1  2  1  0
  2  3  2  0
  3  4  1  0
  4  5  2  0
  5  6  1  0
  6  7  1  0
  7  8  1  0
  8  9  1  0
  9 10  1  0
  9 11  1  0
  5 12  1  0
 12 13  2  0
 13 14  1  0
 14 15  2  0
 15 16  1  0
 16 17  2  0
  4 18  1  0
 18 19  1  0
 19 20  1  0
 20 21  1  0
 21 22  1  0
 17  2  1  0
 22  3  1  0
 17 12  1  0
  1 23  1  0
  1 24  1  0
  1 25  1  0
  6 26  1  0
  7 27  1  0
  7 28  1  0
  8 29  1  0
  8 30  1  0
  9 31  1  0
 10 32  1  0
 10 33  1  0
 10 34  1  0
 11 35  1  0
 11 36  1  0
 11 37  1  0
 13 38  1  0
 14 39  1  0
 15 40  1  0
 16 41  1  0
 18 42  1  0
 18 43  1  0
 19 44  1  0
 19 45  1  0
 20 46  1  0
 20 47  1  0
 21 48  1  0
 21 49  1  0
 22 50  1  0
 22 51  1  0
M  CHG  2   2   1   9   1
M  END
>  <UniqueID>  (8) 
8

>  <SMILES>  (8) 
C[n+]1c2c(c(NCC[NH+](C)C)c3ccccc31)CCCCC2

>  <Energy>  (8) 
81.61455196601756

>  <Genealogy>  (8) 
C[n+]1c2c(c(NCC[NH+](C)C)c3ccccc31)CCCCC2 (protonated)
C[n+]1c2c(c(NCC[NH+](C)C)c3ccccc31)CCCCC2 (3D coordinates assigned)
C[n+]1c2c(c(NCC[NH+](C)C)c3ccccc31)CCCCC2 (nonaromatic ring conformer: 81.61455196601756 kcal/mol)

>  <smiles>  (8) 
CN(C)CCNc1c2c([n+](C)c3ccccc13)CCCCC2

>  <score_type>  (8) 
oracle

>  <origin>  (8) 
adg

>  <m_score__min__energy>  (8) 
-2.9900000000000002

>  <m_primary>  (8) 
energy

$$$$
8:0
     RDKit          3D

 39 40  0  0  0  0  0  0  0  0999 V2000
   57.2670   31.0200   43.1760 C   0  0  0  0  0  0  0  0  0  0  0  0
   56.1460   30.4320   44.0250 C   0  0  0  0  0  0  0  0  0  0  0  0
   56.6490   29.9980   45.2880 O   0  0  0  0  0  0  0  0  0  0  0  0
   57.2200   28.7380   45.5090 C   0  0  0  0  0  0  0  0  0  0  0  0
   56.4320   27.6300   45.6110 N   0  0  0  0  0  0  0  0  0  0  0  0
   56.9530   26.3900   45.8090 C   0  0  0  0  0  0  0  0  0  0  0  0
   58.3340   26.2220   45.9060 C   0  0  0  0  0  0  0  0  0  0  0  0
   59.1680   27.3350   45.8040 C   0  0  0  0  0  0  0  0  0  0  0  0
   58.6180   28.6120   45.6160 C   0  0  0  0  0  0  0  0  0  0  0  0
   59.5180   29.8130   45.4780 C   0  0  0  0  0  0  0  0  0  0  0  0
   59.8290   30.4120   46.8600 C   0  0  0  0  0  0  0  0  0  0  0  0
   58.6170   30.7070   47.6450 N   0  0  0  0  0  0  0  0  0  0  0  0
   58.5480   32.0950   48.1310 C   0  0  0  0  0  0  0  0  0  0  0  0
   58.6750   33.0830   47.0010 C   0  0  0  0  0  0  0  0  0  0  0  0
   57.7670   33.0510   45.9310 C   0  0  0  0  0  0  0  0  0  0  0  0
   57.8670   33.9860   44.8940 C   0  0  0  0  0  0  0  0  0  0  0  0
   58.8710   34.9580   44.9220 C   0  0  0  0  0  0  0  0  0  0  0  0
   59.7760   34.9980   45.9860 C   0  0  0  0  0  0  0  0  0  0  0  0
   59.6800   34.0660   47.0250 C   0  0  0  0  0  0  0  0  0  0  0  0
   58.0482   31.4298   43.8331 H   0  0  0  0  0  0  0  0  0  0  0  0
   57.6981   30.2319   42.5411 H   0  0  0  0  0  0  0  0  0  0  0  0
   56.8637   31.8227   42.5411 H   0  0  0  0  0  0  0  0  0  0  0  0
   55.3745   31.1991   44.1871 H   0  0  0  0  0  0  0  0  0  0  0  0
   55.7170   29.5674   43.4974 H   0  0  0  0  0  0  0  0  0  0  0  0
   56.2856   25.5196   45.8926 H   0  0  0  0  0  0  0  0  0  0  0  0
   58.7616   25.2205   46.0616 H   0  0  0  0  0  0  0  0  0  0  0  0
   60.2590   27.2115   45.8711 H   0  0  0  0  0  0  0  0  0  0  0  0
   60.4582   29.5077   44.9954 H   0  0  0  0  0  0  0  0  0  0  0  0
   59.0083   30.5723   44.8667 H   0  0  0  0  0  0  0  0  0  0  0  0
   60.4451   29.6950   47.4224 H   0  0  0  0  0  0  0  0  0  0  0  0
   60.3547   31.3641   46.6955 H   0  0  0  0  0  0  0  0  0  0  0  0
   57.7740   30.5200   47.0540 H   0  0  0  0  0  0  0  0  0  0  0  0
   57.5822   32.2498   48.6342 H   0  0  0  0  0  0  0  0  0  0  0  0
   59.3834   32.2585   48.8277 H   0  0  0  0  0  0  0  0  0  0  0  0
   56.9743   32.2887   45.9073 H   0  0  0  0  0  0  0  0  0  0  0  0
   57.1547   33.9557   44.0563 H   0  0  0  0  0  0  0  0  0  0  0  0
   58.9488   35.6918   44.1062 H   0  0  0  0  0  0  0  0  0  0  0  0
   60.5654   35.7638   46.0067 H   0  0  0  0  0  0  0  0  0  0  0  0
   60.3923   34.1024   47.8625 H   0  0  0  0  0  0  0  0  0  0  0  0
  1  2  1  0
  2  3  1  0
  3  4  1  0
  4  5  2  0
  5  6  1  0
  6  7  2  0
  7  8  1  0
  8  9  2  0
  9 10  1  0
 10 11  1  0
 11 12  1  0
 12 13  1  0
 13 14  1  0
 14 15  2  0
 15 16  1  0
 16 17  2  0
 17 18  1  0
 18 19  2  0
  9  4  1  0
 19 14  1  0
  1 20  1  0
  1 21  1  0
  1 22  1  0
  2 23  1  0
  2 24  1  0
  6 25  1  0
  7 26  1  0
  8 27  1  0
 10 28  1  0
 10 29  1  0
 11 30  1  0
 11 31  1  0
 12 32  1  0
 13 33  1  0
 13 34  1  0
 15 35  1  0
 16 36  1  0
 17 37  1  0
 18 38  1  0
 19 39  1  0
M  END
>  <UniqueID>  (9) 
9

>  <SMILES>  (9) 
CCOc1ncccc1CCNCc1ccccc1

>  <Energy>  (9) 
33.28967204762939

>  <Genealogy>  (9) 
CCOc1ncccc1CCNCc1ccccc1 (3D coordinates assigned)
CCOc1ncccc1CCNCc1ccccc1 (optimized conformer: 33.28967204762939 kcal/mol)

>  <smiles>  (9) 
CCOc1ncccc1CCNCc1ccccc1

>  <score_type>  (9) 
oracle

>  <origin>  (9) 
adg

>  <m_score__min__energy>  (9) 
-7.0099999999999998

>  <m_primary>  (9) 
energy

$$$$
9:0
     RDKit          3D

 95 98  0  0  0  0  0  0  0  0999 V2000
   53.5750   22.5370   47.2400 C   0  0  0  0  0  0  0  0  0  0  0  0
   52.3610   22.0980   46.4240 C   0  0  0  0  0  0  0  0  0  0  0  0
   52.2040   22.9380   45.2170 N   0  0  0  0  0  0  0  0  0  0  0  0
   50.8270   23.4570   45.0530 C   0  0  0  0  0  0  0  0  0  0  0  0
   50.6920   24.5270   43.9570 C   0  0  0  0  0  0  0  0  0  0  0  0
   53.2400   23.9920   45.0840 C   0  0  0  0  0  0  0  0  0  0  0  0
   54.0850   23.7200   43.8410 C   0  0  0  0  0  0  0  0  0  0  0  0
   55.2970   23.1000   44.2310 O   0  0  0  0  0  0  0  0  0  0  0  0
   56.3320   24.0510   44.3830 C   0  0  0  0  0  0  0  0  0  0  0  0
   56.6260   24.3580   45.8620 C   0  0  0  0  0  0  0  0  0  0  0  0
   55.8820   25.4640   46.3460 O   0  0  0  0  0  0  0  0  0  0  0  0
   56.6290   26.6680   46.3170 C   0  0  0  0  0  0  0  0  0  0  0  0
   58.0340   26.5230   46.9210 C   0  0  0  0  0  0  0  0  0  0  0  0
   58.9610   27.4990   46.3510 N   0  0  0  0  0  0  0  0  0  0  0  0
   58.6510   28.9020   46.3160 C   0  0  0  0  0  0  0  0  0  0  0  0
   58.0110   29.4550   45.1940 C   0  0  0  0  0  0  0  0  0  0  0  0
   57.6130   28.6390   44.1130 C   0  0  0  0  0  0  0  0  0  0  0  0
   56.9270   29.1810   43.0300 C   0  0  0  0  0  0  0  0  0  0  0  0
   56.6260   30.5360   43.0050 C   0  0  0  0  0  0  0  0  0  0  0  0
   57.0340   31.3660   44.0490 C   0  0  0  0  0  0  0  0  0  0  0  0
   57.7660   30.8520   45.1480 C   0  0  0  0  0  0  0  0  0  0  0  0
   58.2290   31.6710   46.1620 N   0  0  0  0  0  0  0  0  0  0  0  0
   58.2680   33.1370   45.9730 C   0  0  0  0  0  0  0  0  0  0  0  0
   58.6850   31.1150   47.3440 C   0  0  0  0  0  0  0  0  0  0  0  0
   58.9020   31.9060   48.5030 C   0  0  0  0  0  0  0  0  0  0  0  0
   59.4050   31.3420   49.6890 C   0  0  0  0  0  0  0  0  0  0  0  0
   59.6570   32.0970   50.8470 O   0  0  0  0  0  0  0  0  0  0  0  0
   60.1780   33.4250   50.8820 C   0  0  0  0  0  0  0  0  0  0  0  0
   61.5420   33.4470   51.6160 C   0  0  0  0  0  0  0  0  0  0  0  0
   62.7430   33.6160   50.7350 N   0  0  0  0  0  0  0  0  0  0  0  0
   63.8010   34.3550   51.4770 C   0  0  0  0  0  0  0  0  0  0  0  0
   63.2650   32.2770   50.3030 C   0  0  0  0  0  0  0  0  0  0  0  0
   63.9330   32.3250   48.9140 C   0  0  0  0  0  0  0  0  0  0  0  0
   62.9660   32.7160   47.8380 N   0  0  0  0  0  0  0  0  0  0  0  0
   63.7060   33.4200   46.7580 C   0  0  0  0  0  0  0  0  0  0  0  0
   62.3560   31.4970   47.2500 C   0  0  0  0  0  0  0  0  0  0  0  0
   61.8760   33.5990   48.3590 C   0  0  0  0  0  0  0  0  0  0  0  0
   62.3460   34.4540   49.5520 C   0  0  0  0  0  0  0  0  0  0  0  0
   59.6540   29.9750   49.7380 C   0  0  0  0  0  0  0  0  0  0  0  0
   59.4070   29.1670   48.6330 C   0  0  0  0  0  0  0  0  0  0  0  0
   58.9270   29.7200   47.4260 C   0  0  0  0  0  0  0  0  0  0  0  0
   53.3454   22.4540   48.3126 H   0  0  0  0  0  0  0  0  0  0  0  0
   54.4324   21.8920   46.9976 H   0  0  0  0  0  0  0  0  0  0  0  0
   53.8216   23.5812   46.9976 H   0  0  0  0  0  0  0  0  0  0  0  0
   52.4926   21.0495   46.1184 H   0  0  0  0  0  0  0  0  0  0  0  0
   51.4610   22.2068   47.0471 H   0  0  0  0  0  0  0  0  0  0  0  0
   50.1672   22.6146   44.7980 H   0  0  0  0  0  0  0  0  0  0  0  0
   50.5506   23.9364   46.0037 H   0  0  0  0  0  0  0  0  0  0  0  0
   50.5673   25.5156   44.4231 H   0  0  0  0  0  0  0  0  0  0  0  0
   51.5972   24.5279   43.3319 H   0  0  0  0  0  0  0  0  0  0  0  0
   49.8150   24.3030   43.3319 H   0  0  0  0  0  0  0  0  0  0  0  0
   52.7540   24.9743   44.9894 H   0  0  0  0  0  0  0  0  0  0  0  0
   53.8853   23.9870   45.9748 H   0  0  0  0  0  0  0  0  0  0  0  0
   53.5340   23.0554   43.1593 H   0  0  0  0  0  0  0  0  0  0  0  0
   54.3024   24.6675   43.3262 H   0  0  0  0  0  0  0  0  0  0  0  0
   57.2461   23.6578   43.9142 H   0  0  0  0  0  0  0  0  0  0  0  0
   56.0059   24.9851   43.9023 H   0  0  0  0  0  0  0  0  0  0  0  0
   56.3726   23.4723   46.4631 H   0  0  0  0  0  0  0  0  0  0  0  0
   57.6932   24.6115   45.9447 H   0  0  0  0  0  0  0  0  0  0  0  0
   56.7300   26.9917   45.2706 H   0  0  0  0  0  0  0  0  0  0  0  0
   56.0855   27.4048   46.9267 H   0  0  0  0  0  0  0  0  0  0  0  0
   57.9743   26.6782   48.0084 H   0  0  0  0  0  0  0  0  0  0  0  0
   58.4079   25.5142   46.6916 H   0  0  0  0  0  0  0  0  0  0  0  0
   59.9120   27.1830   46.0520 H   0  0  0  0  0  0  0  0  0  0  0  0
   57.8473   27.5643   44.1267 H   0  0  0  0  0  0  0  0  0  0  0  0
   56.6231   28.5351   42.1931 H   0  0  0  0  0  0  0  0  0  0  0  0
   56.0635   30.9567   42.1585 H   0  0  0  0  0  0  0  0  0  0  0  0
   56.7835   32.4367   44.0187 H   0  0  0  0  0  0  0  0  0  0  0  0
   58.2812   33.6330   46.9547 H   0  0  0  0  0  0  0  0  0  0  0  0
   59.1737   33.4104   45.4118 H   0  0  0  0  0  0  0  0  0  0  0  0
   57.3781   33.4582   45.4118 H   0  0  0  0  0  0  0  0  0  0  0  0
   58.6721   32.9813   48.4726 H   0  0  0  0  0  0  0  0  0  0  0  0
   60.3136   33.7891   49.8529 H   0  0  0  0  0  0  0  0  0  0  0  0
   59.4709   34.0732   51.4204 H   0  0  0  0  0  0  0  0  0  0  0  0
   61.5277   34.2802   52.3340 H   0  0  0  0  0  0  0  0  0  0  0  0
   61.6485   32.4590   52.0878 H   0  0  0  0  0  0  0  0  0  0  0  0
   63.6378   34.2410   52.5588 H   0  0  0  0  0  0  0  0  0  0  0  0
   64.7878   33.9487   51.2102 H   0  0  0  0  0  0  0  0  0  0  0  0
   63.7592   35.4213   51.2102 H   0  0  0  0  0  0  0  0  0  0  0  0
   64.0061   31.9328   51.0394 H   0  0  0  0  0  0  0  0  0  0  0  0
   62.4092   31.5888   50.2393 H   0  0  0  0  0  0  0  0  0  0  0  0
   64.7519   33.0591   48.9391 H   0  0  0  0  0  0  0  0  0  0  0  0
   64.3083   31.3171   48.6830 H   0  0  0  0  0  0  0  0  0  0  0  0
   64.4345   34.1130   47.2042 H   0  0  0  0  0  0  0  0  0  0  0  0
   64.2346   32.6833   46.1353 H   0  0  0  0  0  0  0  0  0  0  0  0
   62.9965   33.9847   46.1353 H   0  0  0  0  0  0  0  0  0  0  0  0
   62.0215   30.8286   48.0570 H   0  0  0  0  0  0  0  0  0  0  0  0
   61.4941   31.7815   46.6286 H   0  0  0  0  0  0  0  0  0  0  0  0
   63.1004   30.9777   46.6286 H   0  0  0  0  0  0  0  0  0  0  0  0
   61.5445   34.2681   47.5513 H   0  0  0  0  0  0  0  0  0  0  0  0
   61.0539   32.9554   48.7053 H   0  0  0  0  0  0  0  0  0  0  0  0
   63.2125   35.0541   49.2372 H   0  0  0  0  0  0  0  0  0  0  0  0
   61.5047   35.0924   49.8598 H   0  0  0  0  0  0  0  0  0  0  0  0
   60.0508   29.5273   50.6611 H   0  0  0  0  0  0  0  0  0  0  0  0
   59.5879   28.0841   48.7004 H   0  0  0  0  0  0  0  0  0  0  0  0
  1  2  1  0
  2  3  1  0
  3  4  1  0
  4  5  1  0
  3  6  1  0
  6  7  1  0
  7  8  1  0
  8  9  1  0
  9 10  1  0
 10 11  1  0
 11 12  1  0
 12 13  1  0
 13 14  1  0
 14 15  1  0
 15 16  2  0
 16 17  1  0
 17 18  2  0
 18 19  1  0
 19 20  2  0
 20 21  1  0
 21 22  2  0
 22 23  1  0
 22 24  1  0
 24 25  2  0
 25 26  1  0
 26 27  1  0
 27 28  1  0
 28 29  1  0
 29 30  1  0
 30 31  1  0
 30 32  1  0
 32 33  1  0
 33 34  1  0
 34 35  1  0
 34 36  1  0
 34 37  1  0
 37 38  1  0
 26 39  2  0
 39 40  1  0
 40 41  2  0
 41 15  1  0
 21 16  1  0
 41 24  1  0
 38 30  1  0
  1 42  1  0
  1 43  1  0
  1 44  1  0
  2 45  1  0
  2 46  1  0
  4 47  1  0
  4 48  1  0
  5 49  1  0
  5 50  1  0
  5 51  1  0
  6 52  1  0
  6 53  1  0
  7 54  1  0
  7 55  1  0
  9 56  1  0
  9 57  1  0
 10 58  1  0
 10 59  1  0
 12 60  1  0
 12 61  1  0
 13 62  1  0
 13 63  1  0
 14 64  1  0
 17 65  1  0
 18 66  1  0
 19 67  1  0
 20 68  1  0
 23 69  1  0
 23 70  1  0
 23 71  1  0
 25 72  1  0
 28 73  1  0
 28 74  1  0
 29 75  1  0
 29 76  1  0
 31 77  1  0
 31 78  1  0
 31 79  1  0
 32 80  1  0
 32 81  1  0
 33 82  1  0
 33 83  1  0
 35 84  1  0
 35 85  1  0
 35 86  1  0
 36 87  1  0
 36 88  1  0
 36 89  1  0
 37 90  1  0
 37 91  1  0
 38 92  1  0
 38 93  1  0
 39 94  1  0
 40 95  1  0
M  CHG  3  22   1  30   1  34   1
M  END
>  <UniqueID>  (10) 
10

>  <SMILES>  (10) 
CCN(CC)CCOCCOCCNc1c2ccccc2[n+](C)c2cc(OCC[N+]3(C)CC[N+](C)(C)CC3)ccc12

>  <Energy>  (10) 
151.80919247250927

>  <Genealogy>  (10) 
CCN(CC)CCOCCOCCNc1c2ccccc2[n+](C)c2cc(OCC[N+]3(C)CC[N+](C)(C)CC3)ccc12 (3D coordinates assigned)
CCN(CC)CCOCCOCCNc1c2ccccc2[n+](C)c2cc(OCC[N+]3(C)CC[N+](C)(C)CC3)ccc12 (nonaromatic ring conformer: 151.80919247250927 kcal/mol)

>  <smiles>  (10) 
CCN(CC)CCOCCOCCNc1c2ccccc2[n+](C)c2cc(OCC[N+]3(C)CC[N+](C)(C)CC3)ccc12

>  <score_type>  (10) 
oracle

>  <origin>  (10) 
adg

>  <m_score__min__energy>  (10) 
-4.6600000000000001

>  <m_primary>  (10) 
energy

$$$$
10:0
     RDKit          3D

 40 42  0  0  0  0  0  0  0  0999 V2000
   56.8230   30.6810   42.8080 C   0  0  0  0  0  0  0  0  0  0  0  0
   56.6410   29.4200   43.6580 C   0  0  0  0  0  0  0  0  0  0  0  0
   57.9630   28.7720   44.1280 C   0  0  2  0  0  0  0  0  0  0  0  0
   58.1210   27.3420   43.6050 C   0  0  0  0  0  0  0  0  0  0  0  0
   58.1330   28.7730   45.9550 S   0  0  0  0  0  0  0  0  0  0  0  0
   58.6440   30.4840   46.0730 C   0  0  0  0  0  0  0  0  0  0  0  0
   59.8770   30.7860   46.6270 N   0  0  0  0  0  0  0  0  0  0  0  0
   60.3540   32.0700   46.7570 C   0  0  0  0  0  0  0  0  0  0  0  0
   61.6470   32.3310   47.3450 N   0  0  0  0  0  0  0  0  0  0  0  0
   62.2620   31.3630   48.2630 C   0  0  0  0  0  0  0  0  0  0  0  0
   63.3210   32.0390   49.1400 C   0  0  0  0  0  0  0  0  0  0  0  0
   64.2190   32.7950   48.3550 O   0  0  0  0  0  0  0  0  0  0  0  0
   63.5270   33.8760   47.7640 C   0  0  0  0  0  0  0  0  0  0  0  0
   62.4960   33.3730   46.7510 C   0  0  0  0  0  0  0  0  0  0  0  0
   59.5030   33.0630   46.3020 C   0  0  0  0  0  0  0  0  0  0  0  0
   59.2370   34.6640   46.0800 S   0  0  0  0  0  0  0  0  0  0  0  0
   57.8360   34.0210   45.4930 N   0  0  0  0  0  0  0  0  0  0  0  0
   56.6470   34.5870   44.8800 C   0  0  0  0  0  0  0  0  0  0  0  0
   58.2600   32.7290   45.7570 C   0  0  0  0  0  0  0  0  0  0  0  0
   57.8000   31.4720   45.6270 N   0  0  0  0  0  0  0  0  0  0  0  0
   56.9488   31.5525   43.4672 H   0  0  0  0  0  0  0  0  0  0  0  0
   57.7144   30.5698   42.1731 H   0  0  0  0  0  0  0  0  0  0  0  0
   55.9365   30.8264   42.1731 H   0  0  0  0  0  0  0  0  0  0  0  0
   56.0528   29.6870   44.5484 H   0  0  0  0  0  0  0  0  0  0  0  0
   56.1379   28.6797   43.0186 H   0  0  0  0  0  0  0  0  0  0  0  0
   58.7632   29.3960   43.7034 H   0  0  0  0  0  0  0  0  0  0  0  0
   58.1978   26.6473   44.4544 H   0  0  0  0  0  0  0  0  0  0  0  0
   57.2467   27.0769   42.9924 H   0  0  0  0  0  0  0  0  0  0  0  0
   59.0321   27.2742   42.9924 H   0  0  0  0  0  0  0  0  0  0  0  0
   61.4819   30.9320   48.9077 H   0  0  0  0  0  0  0  0  0  0  0  0
   62.7479   30.5748   47.6692 H   0  0  0  0  0  0  0  0  0  0  0  0
   62.8214   32.7058   49.8582 H   0  0  0  0  0  0  0  0  0  0  0  0
   63.8882   31.2592   49.6693 H   0  0  0  0  0  0  0  0  0  0  0  0
   63.0113   34.4470   48.5501 H   0  0  0  0  0  0  0  0  0  0  0  0
   64.2531   34.5151   47.2402 H   0  0  0  0  0  0  0  0  0  0  0  0
   61.8639   34.2146   46.4315 H   0  0  0  0  0  0  0  0  0  0  0  0
   63.0283   32.9453   45.8886 H   0  0  0  0  0  0  0  0  0  0  0  0
   55.9517   34.9180   45.6655 H   0  0  0  0  0  0  0  0  0  0  0  0
   56.9305   35.4468   44.2552 H   0  0  0  0  0  0  0  0  0  0  0  0
   56.1584   33.8249   44.2552 H   0  0  0  0  0  0  0  0  0  0  0  0
  1  2  1  0
  2  3  1  0
  3  4  1  0
  3  5  1  0
  5  6  1  0
  6  7  2  0
  7  8  1  0
  8  9  1  0
  9 10  1  0
 10 11  1  0
 11 12  1  0
 12 13  1  0
 13 14  1  0
  8 15  2  0
 15 16  1  0
 16 17  1  0
 17 18  1  0
 17 19  1  0
 19 20  2  0
 20  6  1  0
 14  9  1  0
 19 15  1  0
  1 21  1  0
  1 22  1  0
  1 23  1  0
  2 24  1  0
  2 25  1  0
  3 26  1  6
  4 27  1  0
  4 28  1  0
  4 29  1  0
 10 30  1  0
 10 31  1  0
 11 32  1  0
 11 33  1  0
 13 34  1  0
 13 35  1  0
 14 36  1  0
 14 37  1  0
 18 38  1  0
 18 39  1  0
 18 40  1  0
M  END
>  <UniqueID>  (11) 
11

>  <SMILES>  (11) 
CC[C@H](C)Sc1nc(N2CCOCC2)c2sn(C)c2n1

>  <Energy>  (11) 
65.05608533871107

>  <Genealogy>  (11) 
CC[C@H](C)Sc1nc(N2CCOCC2)c2sn(C)c2n1 (chirality)
CC[C@H](C)Sc1nc(N2CCOCC2)c2sn(C)c2n1 (3D coordinates assigned)
CC[C@H](C)Sc1nc(N2CCOCC2)c2sn(C)c2n1 (nonaromatic ring conformer: 65.05608533871107 kcal/mol)

>  <smiles>  (11) 
CCC(C)Sc1nc(N2CCOCC2)c2sn(C)c2n1

>  <score_type>  (11) 
oracle

>  <origin>  (11) 
adg

>  <m_score__min__energy>  (11) 
-6.5300000000000002

>  <m_primary>  (11) 
energy

$$$$
12:0
     RDKit          3D

 69 71  0  0  0  0  0  0  0  0999 V2000
   65.4980   32.7490   49.7600 C   0  0  0  0  0  0  0  0  0  0  0  0
   64.0560   32.5590   50.2160 C   0  0  0  0  0  0  0  0  0  0  0  0
   63.1490   33.3540   49.3580 N   0  0  0  0  0  0  0  0  0  0  0  0
   62.7120   34.5780   50.0540 C   0  0  0  0  0  0  0  0  0  0  0  0
   63.7710   33.6940   48.0590 C   0  0  0  0  0  0  0  0  0  0  0  0
   63.3170   32.7240   46.9540 C   0  0  0  0  0  0  0  0  0  0  0  0
   62.6940   31.4250   47.5010 C   0  0  0  0  0  0  0  0  0  0  0  0
   61.3540   31.6510   48.0850 N   0  0  0  0  0  0  0  0  0  0  0  0
   60.3050   31.5060   47.0870 C   0  0  0  0  0  0  0  0  0  0  0  0
   59.8200   32.6690   46.4120 C   0  0  0  0  0  0  0  0  0  0  0  0
   60.3100   33.9700   46.7090 C   0  0  0  0  0  0  0  0  0  0  0  0
   59.8220   35.0960   46.0530 C   0  0  0  0  0  0  0  0  0  0  0  0
   58.8560   34.9650   45.0710 C   0  0  0  0  0  0  0  0  0  0  0  0
   58.3720   33.7050   44.7360 C   0  0  0  0  0  0  0  0  0  0  0  0
   58.8310   32.5370   45.4010 C   0  0  0  0  0  0  0  0  0  0  0  0
   58.3740   31.2920   45.0390 N   0  0  0  0  0  0  0  0  0  0  0  0
   57.1810   31.1640   44.1710 C   0  0  0  0  0  0  0  0  0  0  0  0
   59.0150   30.1610   45.4930 C   0  0  0  0  0  0  0  0  0  0  0  0
   58.8690   28.9370   44.8010 C   0  0  0  0  0  0  0  0  0  0  0  0
   59.4390   27.7710   45.2790 C   0  0  0  0  0  0  0  0  0  0  0  0
   60.0910   27.7700   46.4980 C   0  0  0  0  0  0  0  0  0  0  0  0
   60.2600   28.9560   47.2350 C   0  0  0  0  0  0  0  0  0  0  0  0
   60.6530   28.8450   48.6230 N   0  0  0  0  0  0  0  0  0  0  0  0
   59.7570   29.0150   49.7740 C   0  0  0  0  0  0  0  0  0  0  0  0
   58.6560   30.0530   49.5000 C   0  0  0  0  0  0  0  0  0  0  0  0
   58.7570   31.2610   50.4570 C   0  0  0  0  0  0  0  0  0  0  0  0
   59.9580   32.1010   50.2560 N   0  0  0  0  0  0  0  0  0  0  0  0
   60.9570   31.9350   51.3250 C   0  0  0  0  0  0  0  0  0  0  0  0
   59.6380   33.5200   50.0380 C   0  0  0  0  0  0  0  0  0  0  0  0
   59.8590   30.2120   46.6440 C   0  0  0  0  0  0  0  0  0  0  0  0
   66.1525   32.8352   50.6399 H   0  0  0  0  0  0  0  0  0  0  0  0
   65.8084   31.8840   49.1555 H   0  0  0  0  0  0  0  0  0  0  0  0
   65.5738   33.6649   49.1555 H   0  0  0  0  0  0  0  0  0  0  0  0
   63.7875   31.4948   50.1435 H   0  0  0  0  0  0  0  0  0  0  0  0
   63.9577   32.8963   51.2584 H   0  0  0  0  0  0  0  0  0  0  0  0
   62.7679   34.4213   51.1413 H   0  0  0  0  0  0  0  0  0  0  0  0
   63.3669   35.4150   49.7700 H   0  0  0  0  0  0  0  0  0  0  0  0
   61.6752   34.8110   49.7700 H   0  0  0  0  0  0  0  0  0  0  0  0
   63.4811   34.7176   47.7793 H   0  0  0  0  0  0  0  0  0  0  0  0
   64.8631   33.6154   48.1645 H   0  0  0  0  0  0  0  0  0  0  0  0
   62.5693   33.2331   46.3281 H   0  0  0  0  0  0  0  0  0  0  0  0
   64.2125   32.4399   46.3819 H   0  0  0  0  0  0  0  0  0  0  0  0
   62.6041   30.7011   46.6777 H   0  0  0  0  0  0  0  0  0  0  0  0
   63.3501   31.0452   48.2980 H   0  0  0  0  0  0  0  0  0  0  0  0
   61.1870   30.9820   48.8690 H   0  0  0  0  0  0  0  0  0  0  0  0
   61.2960   32.5670   48.5660 H   0  0  0  0  0  0  0  0  0  0  0  0
   61.0916   34.0891   47.4737 H   0  0  0  0  0  0  0  0  0  0  0  0
   60.2052   36.0930   46.3158 H   0  0  0  0  0  0  0  0  0  0  0  0
   58.4710   35.8572   44.5555 H   0  0  0  0  0  0  0  0  0  0  0  0
   57.6186   33.6111   43.9400 H   0  0  0  0  0  0  0  0  0  0  0  0
   56.2812   31.0675   44.7964 H   0  0  0  0  0  0  0  0  0  0  0  0
   57.0920   32.0578   43.5360 H   0  0  0  0  0  0  0  0  0  0  0  0
   57.2836   30.2717   43.5360 H   0  0  0  0  0  0  0  0  0  0  0  0
   58.2914   28.9114   43.8652 H   0  0  0  0  0  0  0  0  0  0  0  0
   59.3735   26.8447   44.6894 H   0  0  0  0  0  0  0  0  0  0  0  0
   60.4848   26.8244   46.8989 H   0  0  0  0  0  0  0  0  0  0  0  0
   61.6670   28.8510   48.8440 H   0  0  0  0  0  0  0  0  0  0  0  0
   59.2845   28.0481   50.0018 H   0  0  0  0  0  0  0  0  0  0  0  0
   60.3585   29.3742   50.6221 H   0  0  0  0  0  0  0  0  0  0  0  0
   58.7529   30.4101   48.4641 H   0  0  0  0  0  0  0  0  0  0  0  0
   57.6814   29.5690   49.6613 H   0  0  0  0  0  0  0  0  0  0  0  0
   57.8677   31.8915   50.3102 H   0  0  0  0  0  0  0  0  0  0  0  0
   58.8280   30.8501   51.4749 H   0  0  0  0  0  0  0  0  0  0  0  0
   60.4630   32.0171   52.3044 H   0  0  0  0  0  0  0  0  0  0  0  0
   61.4299   30.9460   51.2346 H   0  0  0  0  0  0  0  0  0  0  0  0
   61.7243   32.7180   51.2346 H   0  0  0  0  0  0  0  0  0  0  0  0
   59.5244   34.0237   51.0093 H   0  0  0  0  0  0  0  0  0  0  0  0
   60.4513   33.9963   49.4708 H   0  0  0  0  0  0  0  0  0  0  0  0
   58.6990   33.6012   49.4708 H   0  0  0  0  0  0  0  0  0  0  0  0
  1  2  1  0
  2  3  1  0
  3  4  1  0
  3  5  1  0
  5  6  1  0
  6  7  1  0
  7  8  1  0
  8  9  1  0
  9 10  2  0
 10 11  1  0
 11 12  2  0
 12 13  1  0
 13 14  2  0
 14 15  1  0
 15 16  2  0
 16 17  1  0
 16 18  1  0
 18 19  2  0
 19 20  1  0
 20 21  2  0
 21 22  1  0
 22 23  1  0
 23 24  1  0
 24 25  1  0
 25 26  1  0
 26 27  1  0
 27 28  1  0
 27 29  1  0
 22 30  2  0
 30  9  1  0
 15 10  1  0
 30 18  1  0
  1 31  1  0
  1 32  1  0
  1 33  1  0
  2 34  1  0
  2 35  1  0
  4 36  1  0
  4 37  1  0
  4 38  1  0
  5 39  1  0
  5 40  1  0
  6 41  1  0
  6 42  1  0
  7 43  1  0
  7 44  1  0
  8 45  1  0
  8 46  1  0
 11 47  1  0
 12 48  1  0
 13 49  1  0
 14 50  1  0
 17 51  1  0
 17 52  1  0
 17 53  1  0
 19 54  1  0
 20 55  1  0
 21 56  1  0
 23 57  1  0
 24 58  1  0
 24 59  1  0
 25 60  1  0
 25 61  1  0
 26 62  1  0
 26 63  1  0
 28 64  1  0
 28 65  1  0
 28 66  1  0
 29 67  1  0
 29 68  1  0
 29 69  1  0
M  CHG  2   8   1  16   1
M  END
>  <UniqueID>  (12) 
12

>  <SMILES>  (12) 
CCN(C)CCC[NH2+]c1c2ccccc2[n+](C)c2cccc(NCCCN(C)C)c12

>  <Energy>  (12) 
107.66624880006175

>  <Genealogy>  (12) 
CCN(C)CCC[NH2+]c1c2ccccc2[n+](C)c2cccc(NCCCN(C)C)c12 (protonated)
CCN(C)CCC[NH2+]c1c2ccccc2[n+](C)c2cccc(NCCCN(C)C)c12 (3D coordinates assigned)
CCN(C)CCC[NH2+]c1c2ccccc2[n+](C)c2cccc(NCCCN(C)C)c12 (optimized conformer: 107.66624880006175 kcal/mol)

>  <smiles>  (12) 
CCN(C)CCCNc1c2ccccc2[n+](C)c2cccc(NCCCN(C)C)c12

>  <score_type>  (12) 
oracle

>  <origin>  (12) 
adg

>  <m_score__min__energy>  (12) 
-3.7000000000000002

>  <m_primary>  (12) 
energy

$$$$
13:0
     RDKit          3D

 66 68  0  0  0  0  0  0  0  0999 V2000
   57.7370   31.7470   43.8690 C   0  0  0  0  0  0  0  0  0  0  0  0
   56.6480   30.7610   44.3000 C   0  0  0  0  0  0  0  0  0  0  0  0
   57.0190   29.9310   45.4680 N   0  0  0  0  0  0  0  0  0  0  0  0
   57.0070   28.4810   45.2070 C   0  0  0  0  0  0  0  0  0  0  0  0
   58.1570   30.4340   46.2760 C   0  0  0  0  0  0  0  0  0  0  0  0
   58.8950   29.3520   47.0930 C   0  0  0  0  0  0  0  0  0  0  0  0
   58.7170   29.5830   48.4780 O   0  0  0  0  0  0  0  0  0  0  0  0
   59.4660   28.6570   49.2410 C   0  0  0  0  0  0  0  0  0  0  0  0
   59.2860   28.9750   50.7190 C   0  0  0  0  0  0  0  0  0  0  0  0
   58.1340   29.7710   50.8910 O   0  0  0  0  0  0  0  0  0  0  0  0
   58.3930   30.6460   51.9010 N   0  0  0  0  0  0  0  0  0  0  0  0
   57.7320   31.9160   51.5860 C   0  0  0  0  0  0  0  0  0  0  0  0
   58.4810   32.6990   50.5000 C   0  0  0  0  0  0  0  0  0  0  0  0
   59.5330   31.8920   49.8770 N   0  0  0  0  0  0  0  0  0  0  0  0
   60.4770   32.4530   48.9490 C   0  0  0  0  0  0  0  0  0  0  0  0
   60.0060   33.1800   47.8380 C   0  0  0  0  0  0  0  0  0  0  0  0
   58.6250   33.2510   47.5520 C   0  0  0  0  0  0  0  0  0  0  0  0
   58.1500   34.0390   46.5080 C   0  0  0  0  0  0  0  0  0  0  0  0
   59.0380   34.7720   45.7320 C   0  0  0  0  0  0  0  0  0  0  0  0
   60.4070   34.6870   45.9680 C   0  0  0  0  0  0  0  0  0  0  0  0
   60.9270   33.8490   46.9910 C   0  0  0  0  0  0  0  0  0  0  0  0
   62.2840   33.6970   47.1850 N   0  0  0  0  0  0  0  0  0  0  0  0
   63.2310   34.1770   46.1530 C   0  0  0  0  0  0  0  0  0  0  0  0
   62.7610   33.0570   48.3150 C   0  0  0  0  0  0  0  0  0  0  0  0
   64.1360   33.1020   48.6560 C   0  0  0  0  0  0  0  0  0  0  0  0
   64.6340   32.3920   49.7380 C   0  0  0  0  0  0  0  0  0  0  0  0
   63.7870   31.6210   50.5170 C   0  0  0  0  0  0  0  0  0  0  0  0
   62.4050   31.5940   50.2640 C   0  0  0  0  0  0  0  0  0  0  0  0
   61.5560   30.8200   51.0770 O   0  0  0  0  0  0  0  0  0  0  0  0
   61.8780   30.3350   52.3770 C   0  0  0  0  0  0  0  0  0  0  0  0
   61.8720   32.3520   49.1810 C   0  0  0  0  0  0  0  0  0  0  0  0
   58.2142   32.1791   44.7609 H   0  0  0  0  0  0  0  0  0  0  0  0
   58.4924   31.2194   43.2682 H   0  0  0  0  0  0  0  0  0  0  0  0
   57.2868   32.5510   43.2682 H   0  0  0  0  0  0  0  0  0  0  0  0
   55.7438   31.3332   44.5549 H   0  0  0  0  0  0  0  0  0  0  0  0
   56.4884   30.0728   43.4569 H   0  0  0  0  0  0  0  0  0  0  0  0
   57.0025   27.9364   46.1627 H   0  0  0  0  0  0  0  0  0  0  0  0
   56.1067   28.2194   44.6317 H   0  0  0  0  0  0  0  0  0  0  0  0
   57.9029   28.2046   44.6317 H   0  0  0  0  0  0  0  0  0  0  0  0
   58.8817   30.9019   45.5934 H   0  0  0  0  0  0  0  0  0  0  0  0
   57.7326   31.1393   47.0057 H   0  0  0  0  0  0  0  0  0  0  0  0
   58.4911   28.3621   46.8343 H   0  0  0  0  0  0  0  0  0  0  0  0
   59.9685   29.3916   46.8563 H   0  0  0  0  0  0  0  0  0  0  0  0
   59.1095   27.6366   49.0369 H   0  0  0  0  0  0  0  0  0  0  0  0
   60.5303   28.7272   48.9719 H   0  0  0  0  0  0  0  0  0  0  0  0
   59.1725   28.0384   51.2846 H   0  0  0  0  0  0  0  0  0  0  0  0
   60.1674   29.5206   51.0871 H   0  0  0  0  0  0  0  0  0  0  0  0
   59.4270   30.8330   51.8930 H   0  0  0  0  0  0  0  0  0  0  0  0
   56.7112   31.7073   51.2333 H   0  0  0  0  0  0  0  0  0  0  0  0
   57.7195   32.5286   52.4995 H   0  0  0  0  0  0  0  0  0  0  0  0
   57.7639   33.0089   49.7256 H   0  0  0  0  0  0  0  0  0  0  0  0
   58.9539   33.5727   50.9723 H   0  0  0  0  0  0  0  0  0  0  0  0
   59.5180   30.8570   50.0130 H   0  0  0  0  0  0  0  0  0  0  0  0
   57.9145   32.6752   48.1632 H   0  0  0  0  0  0  0  0  0  0  0  0
   57.0712   34.0812   46.2975 H   0  0  0  0  0  0  0  0  0  0  0  0
   58.6587   35.4212   44.9291 H   0  0  0  0  0  0  0  0  0  0  0  0
   61.0991   35.2793   45.3514 H   0  0  0  0  0  0  0  0  0  0  0  0
   64.1103   34.6227   46.6411 H   0  0  0  0  0  0  0  0  0  0  0  0
   63.5492   33.3313   45.5256 H   0  0  0  0  0  0  0  0  0  0  0  0
   62.7371   34.9336   45.5256 H   0  0  0  0  0  0  0  0  0  0  0  0
   64.8218   33.7124   48.0502 H   0  0  0  0  0  0  0  0  0  0  0  0
   65.7062   32.4413   49.9787 H   0  0  0  0  0  0  0  0  0  0  0  0
   64.2007   31.0234   51.3426 H   0  0  0  0  0  0  0  0  0  0  0  0
   61.4374   30.9987   53.1355 H   0  0  0  0  0  0  0  0  0  0  0  0
   61.4744   29.3191   52.4997 H   0  0  0  0  0  0  0  0  0  0  0  0
   62.9709   30.3126   52.4997 H   0  0  0  0  0  0  0  0  0  0  0  0
  1  2  1  0
  2  3  1  0
  3  4  1  0
  3  5  1  0
  5  6  1  0
  6  7  1  0
  7  8  1  0
  8  9  1  0
  9 10  1  0
 10 11  1  0
 11 12  1  0
 12 13  1  0
 13 14  1  0
 14 15  1  0
 15 16  2  0
 16 17  1  0
 17 18  2  0
 18 19  1  0
 19 20  2  0
 20 21  1  0
 21 22  2  0
 22 23  1  0
 22 24  1  0
 24 25  2  0
 25 26  1  0
 26 27  2  0
 27 28  1  0
 28 29  1  0
 29 30  1  0
 28 31  2  0
 31 15  1  0
 21 16  1  0
 31 24  1  0
  1 32  1  0
  1 33  1  0
  1 34  1  0
  2 35  1  0
  2 36  1  0
  4 37  1  0
  4 38  1  0
  4 39  1  0
  5 40  1  0
  5 41  1  0
  6 42  1  0
  6 43  1  0
  8 44  1  0
  8 45  1  0
  9 46  1  0
  9 47  1  0
 11 48  1  0
 12 49  1  0
 12 50  1  0
 13 51  1  0
 13 52  1  0
 14 53  1  0
 17 54  1  0
 18 55  1  0
 19 56  1  0
 20 57  1  0
 23 58  1  0
 23 59  1  0
 23 60  1  0
 25 61  1  0
 26 62  1  0
 27 63  1  0
 30 64  1  0
 30 65  1  0
 30 66  1  0
M  CHG  1  22   1
M  END
>  <UniqueID>  (13) 
13

>  <SMILES>  (13) 
CCN(C)CCOCCONCCNc1c2ccccc2[n+](C)c2cccc(OC)c12

>  <Energy>  (13) 
93.45208734119882

>  <Genealogy>  (13) 
CCN(C)CCOCCONCCNc1c2ccccc2[n+](C)c2cccc(OC)c12 (3D coordinates assigned)
CCN(C)CCOCCONCCNc1c2ccccc2[n+](C)c2cccc(OC)c12 (optimized conformer: 93.45208734119882 kcal/mol)

>  <smiles>  (13) 
CCN(C)CCOCCONCCNc1c2ccccc2[n+](C)c2cccc(OC)c12

>  <score_type>  (13) 
oracle

>  <origin>  (13) 
adg

>  <m_score__min__energy>  (13) 
-6.6799999999999997

>  <m_primary>  (13) 
energy

$$$$
14:0
     RDKit          3D

 56 56  0  0  0  0  0  0  0  0999 V2000
   59.5850   33.4690   50.6510 C   0  0  0  0  0  0  0  0  0  0  0  0
   60.8950   32.7370   50.9350 C   0  0  0  0  0  0  0  0  0  0  0  0
   61.8470   32.9150   49.8280 N   0  0  0  0  0  0  0  0  0  0  0  0
   63.1360   32.2800   50.1480 C   0  0  0  0  0  0  0  0  0  0  0  0
   64.2580   32.8130   49.2520 C   0  0  0  0  0  0  0  0  0  0  0  0
   63.7570   33.8360   48.4180 O   0  0  0  0  0  0  0  0  0  0  0  0
   63.5870   33.3620   47.0950 C   0  0  0  0  0  0  0  0  0  0  0  0
   62.1240   33.5030   46.6390 C   0  0  0  0  0  0  0  0  0  0  0  0
   61.2500   34.1660   47.6250 N   0  0  0  0  0  0  0  0  0  0  0  0
   60.1330   34.9290   47.0420 C   0  0  0  0  0  0  0  0  0  0  0  0
   58.7700   34.2320   47.2240 C   0  0  0  0  0  0  0  0  0  0  0  0
   58.3410   33.3000   46.0920 C   0  0  0  0  0  0  0  0  0  0  0  0
   58.1620   33.8090   44.7940 C   0  0  0  0  0  0  0  0  0  0  0  0
   57.7730   32.9850   43.7470 C   0  0  0  0  0  0  0  0  0  0  0  0
   57.5700   31.6110   43.9460 C   0  0  0  0  0  0  0  0  0  0  0  0
   57.1470   30.7880   42.8900 O   0  0  0  0  0  0  0  0  0  0  0  0
   56.1910   29.7380   43.0030 C   0  0  0  0  0  0  0  0  0  0  0  0
   57.8020   31.0570   45.2290 C   0  0  0  0  0  0  0  0  0  0  0  0
   57.6390   29.6850   45.5120 O   0  0  0  0  0  0  0  0  0  0  0  0
   58.5380   28.6300   45.1820 C   0  0  0  0  0  0  0  0  0  0  0  0
   58.2230   31.8960   46.2930 C   0  0  0  0  0  0  0  0  0  0  0  0
   58.5370   31.2560   47.6360 C   0  0  0  0  0  0  0  0  0  0  0  0
   59.9750   30.7460   47.6830 C   0  0  0  0  0  0  0  0  0  0  0  0
   59.1022   33.7388   51.6018 H   0  0  0  0  0  0  0  0  0  0  0  0
   59.7928   34.3817   50.0733 H   0  0  0  0  0  0  0  0  0  0  0  0
   58.9166   32.8137   50.0733 H   0  0  0  0  0  0  0  0  0  0  0  0
   61.3381   33.1372   51.8588 H   0  0  0  0  0  0  0  0  0  0  0  0
   60.6809   31.6637   51.0449 H   0  0  0  0  0  0  0  0  0  0  0  0
   61.9930   33.9390   49.6640 H   0  0  0  0  0  0  0  0  0  0  0  0
   61.4510   32.4780   48.9630 H   0  0  0  0  0  0  0  0  0  0  0  0
   63.3870   32.4886   51.1985 H   0  0  0  0  0  0  0  0  0  0  0  0
   63.0409   31.1975   49.9775 H   0  0  0  0  0  0  0  0  0  0  0  0
   65.0664   33.2162   49.8796 H   0  0  0  0  0  0  0  0  0  0  0  0
   64.6466   31.9937   48.6294 H   0  0  0  0  0  0  0  0  0  0  0  0
   64.2314   33.9438   46.4195 H   0  0  0  0  0  0  0  0  0  0  0  0
   63.8600   32.2967   47.0680 H   0  0  0  0  0  0  0  0  0  0  0  0
   62.1064   34.0917   45.7100 H   0  0  0  0  0  0  0  0  0  0  0  0
   61.7336   32.4838   46.5018 H   0  0  0  0  0  0  0  0  0  0  0  0
   61.8260   34.8150   48.2100 H   0  0  0  0  0  0  0  0  0  0  0  0
   60.0904   35.9151   47.5276 H   0  0  0  0  0  0  0  0  0  0  0  0
   60.3191   35.0123   45.9611 H   0  0  0  0  0  0  0  0  0  0  0  0
   58.8154   33.6394   48.1496 H   0  0  0  0  0  0  0  0  0  0  0  0
   58.0231   35.0393   47.2443 H   0  0  0  0  0  0  0  0  0  0  0  0
   58.3332   34.8790   44.6047 H   0  0  0  0  0  0  0  0  0  0  0  0
   57.6216   33.4156   42.7462 H   0  0  0  0  0  0  0  0  0  0  0  0
   56.0003   29.5286   44.0659 H   0  0  0  0  0  0  0  0  0  0  0  0
   55.2531   30.0420   42.5152 H   0  0  0  0  0  0  0  0  0  0  0  0
   56.5813   28.8327   42.5152 H   0  0  0  0  0  0  0  0  0  0  0  0
   58.9251   28.1757   46.1060 H   0  0  0  0  0  0  0  0  0  0  0  0
   58.0078   27.8674   44.5926 H   0  0  0  0  0  0  0  0  0  0  0  0
   59.3751   29.0324   44.5926 H   0  0  0  0  0  0  0  0  0  0  0  0
   58.3952   32.0029   48.4310 H   0  0  0  0  0  0  0  0  0  0  0  0
   57.8599   30.4013   47.7808 H   0  0  0  0  0  0  0  0  0  0  0  0
   60.2903   30.6342   48.7309 H   0  0  0  0  0  0  0  0  0  0  0  0
   60.0352   29.7717   47.1760 H   0  0  0  0  0  0  0  0  0  0  0  0
   60.6357   31.4646   47.1760 H   0  0  0  0  0  0  0  0  0  0  0  0
  1  2  1  0
  2  3  1  0
  3  4  1  0
  4  5  1  0
  5  6  1  0
  6  7  1  0
  7  8  1  0
  8  9  1  0
  9 10  1  0
 10 11  1  0
 11 12  1  0
 12 13  2  0
 13 14  1  0
 14 15  2  0
 15 16  1  0
 16 17  1  0
 15 18  1  0
 18 19  1  0
 19 20  1  0
 18 21  2  0
 21 22  1  0
 22 23  1  0
 21 12  1  0
  1 24  1  0
  1 25  1  0
  1 26  1  0
  2 27  1  0
  2 28  1  0
  3 29  1  0
  3 30  1  0
  4 31  1  0
  4 32  1  0
  5 33  1  0
  5 34  1  0
  7 35  1  0
  7 36  1  0
  8 37  1  0
  8 38  1  0
  9 39  1  0
 10 40  1  0
 10 41  1  0
 11 42  1  0
 11 43  1  0
 13 44  1  0
 14 45  1  0
 17 46  1  0
 17 47  1  0
 17 48  1  0
 20 49  1  0
 20 50  1  0
 20 51  1  0
 22 52  1  0
 22 53  1  0
 23 54  1  0
 23 55  1  0
 23 56  1  0
M  CHG  1   3   1
M  END
>  <UniqueID>  (14) 
14

>  <SMILES>  (14) 
CC[NH2+]CCOCCNCCc1ccc(OC)c(OC)c1CC

>  <Energy>  (14) 
53.62334152263767

>  <Genealogy>  (14) 
CC[NH2+]CCOCCNCCc1ccc(OC)c(OC)c1CC (protonated)
CC[NH2+]CCOCCNCCc1ccc(OC)c(OC)c1CC (3D coordinates assigned)
CC[NH2+]CCOCCNCCc1ccc(OC)c(OC)c1CC (optimized conformer: 53.62334152263767 kcal/mol)

>  <smiles>  (14) 
CCNCCOCCNCCc1ccc(OC)c(OC)c1CC

>  <score_type>  (14) 
oracle

>  <origin>  (14) 
adg

>  <m_score__min__energy>  (14) 
-3.9700000000000002

>  <m_primary>  (14) 
energy

$$$$
15:0
     RDKit          3D

 54 56  0  0  0  0  0  0  0  0999 V2000
   63.3250   33.8860   46.4180 C   0  0  0  0  0  0  0  0  0  0  0  0
   62.8130   32.6160   47.1070 C   0  0  0  0  0  0  0  0  0  0  0  0
   63.7450   32.1160   48.1330 N   0  0  0  0  0  0  0  0  0  0  0  0
   64.3070   33.2060   48.9500 C   0  0  0  0  0  0  0  0  0  0  0  0
   63.4500   33.4730   50.1910 C   0  0  0  0  0  0  0  0  0  0  0  0
   62.1880   32.8560   50.0380 O   0  0  0  0  0  0  0  0  0  0  0  0
   61.1790   33.8450   50.0160 C   0  0  0  0  0  0  0  0  0  0  0  0
   59.9360   33.3250   50.7400 C   0  0  0  0  0  0  0  0  0  0  0  0
   59.0520   32.4500   49.8420 C   0  0  0  0  0  0  0  0  0  0  0  0
   59.8460   31.7790   48.8090 N   0  0  0  0  0  0  0  0  0  0  0  0
   59.3460   31.6120   47.4700 C   0  0  0  0  0  0  0  0  0  0  0  0
   59.2200   32.7190   46.6130 C   0  0  0  0  0  0  0  0  0  0  0  0
   59.7030   33.9880   46.9940 C   0  0  0  0  0  0  0  0  0  0  0  0
   59.6060   35.0760   46.1300 C   0  0  0  0  0  0  0  0  0  0  0  0
   59.0390   34.9150   44.8710 C   0  0  0  0  0  0  0  0  0  0  0  0
   58.5450   33.6730   44.4760 C   0  0  0  0  0  0  0  0  0  0  0  0
   58.5970   32.5550   45.3460 C   0  0  0  0  0  0  0  0  0  0  0  0
   58.0740   31.3270   44.9850 N   0  0  0  0  0  0  0  0  0  0  0  0
   57.1680   31.2210   43.8190 C   0  0  0  0  0  0  0  0  0  0  0  0
   58.3910   30.2000   45.7210 C   0  0  0  0  0  0  0  0  0  0  0  0
   58.1310   28.8930   45.2330 C   0  0  0  0  0  0  0  0  0  0  0  0
   58.4400   27.7660   45.9940 C   0  0  0  0  0  0  0  0  0  0  0  0
   58.0740   26.0210   45.3060 Br  0  0  0  0  0  0  0  0  0  0  0  0
   59.0300   27.9070   47.2450 C   0  0  0  0  0  0  0  0  0  0  0  0
   59.3260   29.1760   47.7370 C   0  0  0  0  0  0  0  0  0  0  0  0
   59.0150   30.3310   46.9900 C   0  0  0  0  0  0  0  0  0  0  0  0
   63.6218   34.6221   47.1796 H   0  0  0  0  0  0  0  0  0  0  0  0
   64.1933   33.6378   45.7900 H   0  0  0  0  0  0  0  0  0  0  0  0
   62.5273   34.3094   45.7900 H   0  0  0  0  0  0  0  0  0  0  0  0
   61.8480   32.8389   47.5856 H   0  0  0  0  0  0  0  0  0  0  0  0
   62.7124   31.8359   46.3381 H   0  0  0  0  0  0  0  0  0  0  0  0
   64.5180   31.5710   47.6820 H   0  0  0  0  0  0  0  0  0  0  0  0
   63.2120   31.4660   48.7590 H   0  0  0  0  0  0  0  0  0  0  0  0
   65.3221   32.9272   49.2692 H   0  0  0  0  0  0  0  0  0  0  0  0
   64.3273   34.1210   48.3398 H   0  0  0  0  0  0  0  0  0  0  0  0
   63.9532   33.0619   51.0786 H   0  0  0  0  0  0  0  0  0  0  0  0
   63.3136   34.5576   50.3140 H   0  0  0  0  0  0  0  0  0  0  0  0
   61.5440   34.7519   50.5203 H   0  0  0  0  0  0  0  0  0  0  0  0
   60.9222   34.0822   48.9730 H   0  0  0  0  0  0  0  0  0  0  0  0
   60.2570   32.7286   51.6067 H   0  0  0  0  0  0  0  0  0  0  0  0
   59.3396   34.1973   51.0457 H   0  0  0  0  0  0  0  0  0  0  0  0
   58.5527   31.6900   50.4610 H   0  0  0  0  0  0  0  0  0  0  0  0
   58.3110   33.0953   49.3475 H   0  0  0  0  0  0  0  0  0  0  0  0
   60.8330   31.5090   49.0270 H   0  0  0  0  0  0  0  0  0  0  0  0
   60.1617   34.1200   47.9851 H   0  0  0  0  0  0  0  0  0  0  0  0
   59.9780   36.0625   46.4438 H   0  0  0  0  0  0  0  0  0  0  0  0
   58.9800   35.7716   44.1835 H   0  0  0  0  0  0  0  0  0  0  0  0
   58.1078   33.5585   43.4731 H   0  0  0  0  0  0  0  0  0  0  0  0
   56.1323   31.0998   44.1692 H   0  0  0  0  0  0  0  0  0  0  0  0
   57.2449   32.1343   43.2107 H   0  0  0  0  0  0  0  0  0  0  0  0
   57.4536   30.3501   43.2107 H   0  0  0  0  0  0  0  0  0  0  0  0
   57.6784   28.7669   44.2384 H   0  0  0  0  0  0  0  0  0  0  0  0
   59.2631   27.0160   47.8465 H   0  0  0  0  0  0  0  0  0  0  0  0
   59.8083   29.2785   48.7203 H   0  0  0  0  0  0  0  0  0  0  0  0
  1  2  1  0
  2  3  1  0
  3  4  1  0
  4  5  1  0
  5  6  1  0
  6  7  1  0
  7  8  1  0
  8  9  1  0
  9 10  1  0
 10 11  1  0
 11 12  2  0
 12 13  1  0
 13 14  2  0
 14 15  1  0
 15 16  2  0
 16 17  1  0
 17 18  2  0
 18 19  1  0
 18 20  1  0
 20 21  2  0
 21 22  1  0
 22 23  1  0
 22 24  2  0
 24 25  1  0
 25 26  2  0
 26 11  1  0
 17 12  1  0
 26 20  1  0
  1 27  1  0
  1 28  1  0
  1 29  1  0
  2 30  1  0
  2 31  1  0
  3 32  1  0
  3 33  1  0
  4 34  1  0
  4 35  1  0
  5 36  1  0
  5 37  1  0
  7 38  1  0
  7 39  1  0
  8 40  1  0
  8 41  1  0
  9 42  1  0
  9 43  1  0
 10 44  1  0
 13 45  1  0
 14 46  1  0
 15 47  1  0
 16 48  1  0
 19 49  1  0
 19 50  1  0
 19 51  1  0
 21 52  1  0
 24 53  1  0
 25 54  1  0
M  CHG  2   3   1  18   1
M  END
>  <UniqueID>  (15) 
15

>  <SMILES>  (15) 
CC[NH2+]CCOCCCNc1c2ccccc2[n+](C)c2cc(Br)ccc12

>  <Energy>  (15) 
74.78421501824248

>  <Genealogy>  (15) 
CC[NH2+]CCOCCCNc1c2ccccc2[n+](C)c2cc(Br)ccc12 (protonated)
CC[NH2+]CCOCCCNc1c2ccccc2[n+](C)c2cc(Br)ccc12 (3D coordinates assigned)
CC[NH2+]CCOCCCNc1c2ccccc2[n+](C)c2cc(Br)ccc12 (optimized conformer: 74.78421501824248 kcal/mol)

>  <smiles>  (15) 
CCNCCOCCCNc1c2ccccc2[n+](C)c2cc(Br)ccc12

>  <score_type>  (15) 
oracle

>  <origin>  (15) 
adg

>  <m_score__min__energy>  (15) 
-4.8499999999999996

>  <m_primary>  (15) 
energy

$$$$
16:0
     RDKit          3D

 58 60  0  0  0  0  0  0  0  0999 V2000
   60.4360   29.3400   45.6160 C   0  0  0  0  0  0  0  0  0  0  0  0
   59.6480   30.2100   46.5920 C   0  0  0  0  0  0  0  0  0  0  0  0
   58.1490   30.2020   46.2500 C   0  0  0  0  0  0  0  0  0  0  0  0
   57.6510   31.4850   45.7000 N   0  0  0  0  0  0  0  0  0  0  0  0
   57.0700   31.3940   44.3370 C   0  0  0  0  0  0  0  0  0  0  0  0
   56.2130   30.1350   44.0740 C   0  0  0  0  0  0  0  0  0  0  0  0
   56.2920   29.7170   42.6080 C   0  0  0  0  0  0  0  0  0  0  0  0
   58.5320   32.6410   45.9830 C   0  0  0  0  0  0  0  0  0  0  0  0
   57.9370   33.5860   47.0450 C   0  0  0  0  0  0  0  0  0  0  0  0
   58.9550   34.2180   47.9140 N   0  0  0  0  0  0  0  0  0  0  0  0
   59.8860   33.2470   48.4820 C   0  0  0  0  0  0  0  0  0  0  0  0
   61.2150   33.1570   47.9770 C   0  0  0  0  0  0  0  0  0  0  0  0
   61.6620   33.9660   46.8990 C   0  0  0  0  0  0  0  0  0  0  0  0
   62.9440   33.8270   46.3750 C   0  0  0  0  0  0  0  0  0  0  0  0
   63.8090   32.8790   46.8960 C   0  0  0  0  0  0  0  0  0  0  0  0
   63.4110   32.0850   47.9670 C   0  0  0  0  0  0  0  0  0  0  0  0
   62.1280   32.2330   48.5560 C   0  0  0  0  0  0  0  0  0  0  0  0
   61.7620   31.4890   49.6580 N   0  0  0  0  0  0  0  0  0  0  0  0
   62.7970   30.7870   50.4510 C   0  0  0  0  0  0  0  0  0  0  0  0
   60.4400   31.4270   50.0430 C   0  0  0  0  0  0  0  0  0  0  0  0
   59.9970   30.4490   50.9700 C   0  0  0  0  0  0  0  0  0  0  0  0
   58.6850   30.4260   51.4280 C   0  0  0  0  0  0  0  0  0  0  0  0
   57.7710   31.3690   50.9750 C   0  0  0  0  0  0  0  0  0  0  0  0
   56.4270   31.3580   51.4700 N   0  0  0  0  0  0  0  0  0  0  0  0
   58.1650   32.3130   50.0230 C   0  0  0  0  0  0  0  0  0  0  0  0
   59.4860   32.3420   49.5080 C   0  0  0  0  0  0  0  0  0  0  0  0
   61.0704   28.6396   46.1790 H   0  0  0  0  0  0  0  0  0  0  0  0
   59.7370   28.7738   44.9829 H   0  0  0  0  0  0  0  0  0  0  0  0
   61.0684   29.9797   44.9829 H   0  0  0  0  0  0  0  0  0  0  0  0
   59.7864   29.8223   47.6121 H   0  0  0  0  0  0  0  0  0  0  0  0
   60.0188   31.2430   46.5190 H   0  0  0  0  0  0  0  0  0  0  0  0
   57.9679   29.4127   45.5056 H   0  0  0  0  0  0  0  0  0  0  0  0
   57.6079   30.0271   47.1916 H   0  0  0  0  0  0  0  0  0  0  0  0
   56.4353   32.2781   44.1771 H   0  0  0  0  0  0  0  0  0  0  0  0
   57.9218   31.3360   43.6434 H   0  0  0  0  0  0  0  0  0  0  0  0
   56.5809   29.3113   44.7034 H   0  0  0  0  0  0  0  0  0  0  0  0
   55.1654   30.3667   44.3168 H   0  0  0  0  0  0  0  0  0  0  0  0
   56.4959   28.6379   42.5449 H   0  0  0  0  0  0  0  0  0  0  0  0
   55.3360   29.9391   42.1113 H   0  0  0  0  0  0  0  0  0  0  0  0
   57.1010   30.2727   42.1113 H   0  0  0  0  0  0  0  0  0  0  0  0
   59.5006   32.2667   46.3460 H   0  0  0  0  0  0  0  0  0  0  0  0
   58.6453   33.2130   45.0503 H   0  0  0  0  0  0  0  0  0  0  0  0
   57.3785   34.3809   46.5291 H   0  0  0  0  0  0  0  0  0  0  0  0
   57.2928   32.9755   47.6948 H   0  0  0  0  0  0  0  0  0  0  0  0
   58.5050   34.8330   48.6220 H   0  0  0  0  0  0  0  0  0  0  0  0
   59.4950   34.9140   47.3510 H   0  0  0  0  0  0  0  0  0  0  0  0
   60.9822   34.7168   46.4699 H   0  0  0  0  0  0  0  0  0  0  0  0
   63.2708   34.4713   45.5455 H   0  0  0  0  0  0  0  0  0  0  0  0
   64.8121   32.7537   46.4624 H   0  0  0  0  0  0  0  0  0  0  0  0
   64.1035   31.3285   48.3647 H   0  0  0  0  0  0  0  0  0  0  0  0
   62.5937   30.9249   51.5232 H   0  0  0  0  0  0  0  0  0  0  0  0
   62.7789   29.7140   50.2094 H   0  0  0  0  0  0  0  0  0  0  0  0
   63.7872   31.2006   50.2094 H   0  0  0  0  0  0  0  0  0  0  0  0
   60.7074   29.6923   51.3343 H   0  0  0  0  0  0  0  0  0  0  0  0
   58.3696   29.6593   52.1509 H   0  0  0  0  0  0  0  0  0  0  0  0
   56.2190   31.0460   52.4450 H   0  0  0  0  0  0  0  0  0  0  0  0
   55.6310   31.6680   50.8690 H   0  0  0  0  0  0  0  0  0  0  0  0
   57.4328   33.0514   49.6644 H   0  0  0  0  0  0  0  0  0  0  0  0
  1  2  1  0
  2  3  1  0
  3  4  1  0
  4  5  1  0
  5  6  1  0
  6  7  1  0
  4  8  1  0
  8  9  1  0
  9 10  1  0
 10 11  1  0
 11 12  2  0
 12 13  1  0
 13 14  2  0
 14 15  1  0
 15 16  2  0
 16 17  1  0
 17 18  2  0
 18 19  1  0
 18 20  1  0
 20 21  2  0
 21 22  1  0
 22 23  2  0
 23 24  1  0
 23 25  1  0
 25 26  2  0
 26 11  1  0
 17 12  1  0
 26 20  1  0
  1 27  1  0
  1 28  1  0
  1 29  1  0
  2 30  1  0
  2 31  1  0
  3 32  1  0
  3 33  1  0
  5 34  1  0
  5 35  1  0
  6 36  1  0
  6 37  1  0
  7 38  1  0
  7 39  1  0
  7 40  1  0
  8 41  1  0
  8 42  1  0
  9 43  1  0
  9 44  1  0
 10 45  1  0
 10 46  1  0
 13 47  1  0
 14 48  1  0
 15 49  1  0
 16 50  1  0
 19 51  1  0
 19 52  1  0
 19 53  1  0
 21 54  1  0
 22 55  1  0
 24 56  1  0
 24 57  1  0
 25 58  1  0
M  CHG  2  10   1  18   1
M  END
>  <UniqueID>  (16) 
16

>  <SMILES>  (16) 
CCCN(CCC)CC[NH2+]c1c2ccccc2[n+](C)c2ccc(N)cc12

>  <Energy>  (16) 
88.35565981177626

>  <Genealogy>  (16) 
CCCN(CCC)CC[NH2+]c1c2ccccc2[n+](C)c2ccc(N)cc12 (protonated)
CCCN(CCC)CC[NH2+]c1c2ccccc2[n+](C)c2ccc(N)cc12 (3D coordinates assigned)
CCCN(CCC)CC[NH2+]c1c2ccccc2[n+](C)c2ccc(N)cc12 (optimized conformer: 88.35565981177626 kcal/mol)

>  <smiles>  (16) 
CCCN(CCC)CCNc1c2ccccc2[n+](C)c2ccc(N)cc12

>  <score_type>  (16) 
oracle

>  <origin>  (16) 
adg

>  <m_score__min__energy>  (16) 
-4.1100000000000003

>  <m_primary>  (16) 
energy

$$$$
17:0
     RDKit          3D

 32 33  0  0  0  0  0  0  0  0999 V2000
   58.1280   29.3350   44.8210 C   0  0  0  0  0  0  0  0  0  0  0  0
   58.3560   30.6990   45.3910 C   0  0  0  0  0  0  0  0  0  0  0  0
   59.5730   31.0230   45.9870 C   0  0  0  0  0  0  0  0  0  0  0  0
   59.7610   32.3160   46.4830 C   0  0  0  0  0  0  0  0  0  0  0  0
   61.0340   32.6530   47.0570 N   0  0  0  0  0  0  0  0  0  0  0  0
   61.5570   31.8500   48.1670 C   0  0  0  0  0  0  0  0  0  0  0  0
   63.0020   32.2490   48.4820 C   0  0  0  0  0  0  0  0  0  0  0  0
   63.7630   32.4020   47.2350 N   0  0  0  0  0  0  0  0  0  0  0  0
   63.2670   33.5080   46.3860 C   0  0  0  0  0  0  0  0  0  0  0  0
   61.7700   33.8290   46.5840 C   0  0  0  0  0  0  0  0  0  0  0  0
   58.7470   33.2410   46.4000 N   0  0  0  0  0  0  0  0  0  0  0  0
   58.9310   34.5990   46.9370 C   0  0  0  0  0  0  0  0  0  0  0  0
   57.5740   32.9020   45.7700 C   0  0  0  0  0  0  0  0  0  0  0  0
   56.6470   33.7460   45.6330 O   0  0  0  0  0  0  0  0  0  0  0  0
   57.3930   31.6470   45.2820 N   0  0  0  0  0  0  0  0  0  0  0  0
   58.0070   28.6108   45.6401 H   0  0  0  0  0  0  0  0  0  0  0  0
   57.2188   29.3436   44.2019 H   0  0  0  0  0  0  0  0  0  0  0  0
   58.9905   29.0475   44.2019 H   0  0  0  0  0  0  0  0  0  0  0  0
   60.3735   30.2727   46.0659 H   0  0  0  0  0  0  0  0  0  0  0  0
   60.9334   32.0143   49.0582 H   0  0  0  0  0  0  0  0  0  0  0  0
   61.5351   30.7883   47.8800 H   0  0  0  0  0  0  0  0  0  0  0  0
   63.0055   33.2025   49.0305 H   0  0  0  0  0  0  0  0  0  0  0  0
   63.4681   31.4643   49.0960 H   0  0  0  0  0  0  0  0  0  0  0  0
   63.7210   31.5040   46.6960 H   0  0  0  0  0  0  0  0  0  0  0  0
   64.7660   32.5790   47.4740 H   0  0  0  0  0  0  0  0  0  0  0  0
   63.8485   34.4117   46.6207 H   0  0  0  0  0  0  0  0  0  0  0  0
   63.3879   33.1859   45.3412 H   0  0  0  0  0  0  0  0  0  0  0  0
   61.6710   34.6362   47.3247 H   0  0  0  0  0  0  0  0  0  0  0  0
   61.3488   34.1374   45.6158 H   0  0  0  0  0  0  0  0  0  0  0  0
   58.9260   34.5623   48.0364 H   0  0  0  0  0  0  0  0  0  0  0  0
   59.8923   35.0042   46.5880 H   0  0  0  0  0  0  0  0  0  0  0  0
   58.1122   35.2454   46.5880 H   0  0  0  0  0  0  0  0  0  0  0  0
  1  2  1  0
  2  3  1  0
  3  4  2  0
  4  5  1  0
  5  6  1  0
  6  7  1  0
  7  8  1  0
  8  9  1  0
  9 10  1  0
  4 11  1  0
 11 12  1  0
 11 13  1  0
 13 14  2  0
 13 15  1  0
 15  2  2  0
 10  5  1  0
  1 16  1  0
  1 17  1  0
  1 18  1  0
  3 19  1  0
  6 20  1  0
  6 21  1  0
  7 22  1  0
  7 23  1  0
  8 24  1  0
  8 25  1  0
  9 26  1  0
  9 27  1  0
 10 28  1  0
 10 29  1  0
 12 30  1  0
 12 31  1  0
 12 32  1  0
M  CHG  1   8   1
M  END
>  <UniqueID>  (17) 
17

>  <SMILES>  (17) 
Cc1cc(N2CC[NH2+]CC2)n(C)c(=O)n1

>  <Energy>  (17) 
42.459259891641395

>  <Genealogy>  (17) 
Cc1cc(N2CC[NH2+]CC2)n(C)c(=O)n1 (protonated)
Cc1cc(N2CC[NH2+]CC2)n(C)c(=O)n1 (3D coordinates assigned)
Cc1cc(N2CC[NH2+]CC2)n(C)c(=O)n1 (nonaromatic ring conformer: 42.459259891641395 kcal/mol)

>  <smiles>  (17) 
Cc1cc(N2CCNCC2)n(C)c(=O)n1

>  <score_type>  (17) 
oracle

>  <origin>  (17) 
adg

>  <m_score__min__energy>  (17) 
-4.3700000000000001

>  <m_primary>  (17) 
energy

$$$$
18:0
     RDKit          3D

 30 30  0  0  0  0  0  0  0  0999 V2000
   56.5280   24.5690   45.0100 C   0  0  0  0  0  0  0  0  0  0  0  0
   55.4510   25.3640   45.6800 C   0  0  0  0  0  0  0  0  0  0  0  0
   54.3680   24.8010   45.9890 O   0  0  0  0  0  0  0  0  0  0  0  0
   55.6240   26.7530   45.9770 N   0  0  0  0  0  0  0  0  0  0  0  0
   56.9230   27.3930   46.1470 C   0  0  0  0  0  0  0  0  0  0  0  0
   57.2550   28.2580   44.9290 C   0  0  0  0  0  0  0  0  0  0  0  0
   56.3340   29.4460   44.8100 C   0  0  0  0  0  0  0  0  0  0  0  0
   55.1420   29.3390   45.2010 O   0  0  0  0  0  0  0  0  0  0  0  0
   56.8020   30.7350   44.3840 N   0  0  0  0  0  0  0  0  0  0  0  0
   57.4300   31.7360   45.1960 C   0  0  0  0  0  0  0  0  0  0  0  0
   58.1700   31.3980   46.3400 C   0  0  0  0  0  0  0  0  0  0  0  0
   58.8010   32.3950   47.0920 C   0  0  0  0  0  0  0  0  0  0  0  0
   58.7070   33.7400   46.7040 C   0  0  0  0  0  0  0  0  0  0  0  0
   59.4180   34.8040   47.4860 C   0  0  0  0  0  0  0  0  0  0  0  0
   58.0090   34.0700   45.5330 C   0  0  0  0  0  0  0  0  0  0  0  0
   57.3780   33.0730   44.7830 C   0  0  0  0  0  0  0  0  0  0  0  0
   57.1653   24.0986   45.7733 H   0  0  0  0  0  0  0  0  0  0  0  0
   56.0717   23.7895   44.3822 H   0  0  0  0  0  0  0  0  0  0  0  0
   57.1385   25.2347   44.3822 H   0  0  0  0  0  0  0  0  0  0  0  0
   56.9001   28.0264   47.0460 H   0  0  0  0  0  0  0  0  0  0  0  0
   57.6932   26.6147   46.2525 H   0  0  0  0  0  0  0  0  0  0  0  0
   58.2899   28.6192   45.0217 H   0  0  0  0  0  0  0  0  0  0  0  0
   57.1280   27.6389   44.0287 H   0  0  0  0  0  0  0  0  0  0  0  0
   58.2541   30.3449   46.6465 H   0  0  0  0  0  0  0  0  0  0  0  0
   59.3732   32.1231   47.9913 H   0  0  0  0  0  0  0  0  0  0  0  0
   59.2914   34.6145   48.5621 H   0  0  0  0  0  0  0  0  0  0  0  0
   60.4888   34.7899   47.2347 H   0  0  0  0  0  0  0  0  0  0  0  0
   58.9953   35.7880   47.2347 H   0  0  0  0  0  0  0  0  0  0  0  0
   57.9578   35.1181   45.2032 H   0  0  0  0  0  0  0  0  0  0  0  0
   56.8375   33.3404   43.8630 H   0  0  0  0  0  0  0  0  0  0  0  0
  1  2  1  0
  2  3  2  0
  2  4  1  0
  4  5  1  0
  5  6  1  0
  6  7  1  0
  7  8  2  0
  7  9  1  0
  9 10  1  0
 10 11  2  0
 11 12  1  0
 12 13  2  0
 13 14  1  0
 13 15  1  0
 15 16  2  0
 16 10  1  0
  1 17  1  0
  1 18  1  0
  1 19  1  0
  5 20  1  0
  5 21  1  0
  6 22  1  0
  6 23  1  0
 11 24  1  0
 12 25  1  0
 14 26  1  0
 14 27  1  0
 14 28  1  0
 15 29  1  0
 16 30  1  0
M  CHG  2   4  -1   9  -1
M  END
>  <UniqueID>  (18) 
18

>  <SMILES>  (18) 
CC(=O)[N-]CCC(=O)[N-]c1ccc(C)cc1

>  <Energy>  (18) 
26.48556841413997

>  <Genealogy>  (18) 
CC(=O)[N-]CCC(=O)[N-]c1ccc(C)cc1 (protonated)
CC(=O)[N-]CCC(=O)[N-]c1ccc(C)cc1 (3D coordinates assigned)
CC(=O)[N-]CCC(=O)[N-]c1ccc(C)cc1 (optimized conformer: 26.48556841413997 kcal/mol)

>  <smiles>  (18) 
CC(=O)NCCC(=O)Nc1ccc(C)cc1

>  <score_type>  (18) 
oracle

>  <origin>  (18) 
adg

>  <m_score__min__energy>  (18) 
-10.4

>  <m_primary>  (18) 
energy

$$$$
19:0
     RDKit          3D

 56 58  0  0  0  0  0  0  0  0999 V2000
   57.7480   25.8160   43.6590 C   0  0  0  0  0  0  0  0  0  0  0  0
   58.1070   27.0430   42.8120 C   0  0  0  0  0  0  0  0  0  0  0  0
   58.4710   28.2250   43.6410 N   0  0  0  0  0  0  0  0  0  0  0  0
   59.5340   27.8750   44.6240 C   0  0  0  0  0  0  0  0  0  0  0  0
   60.6470   28.9250   44.7590 C   0  0  0  0  0  0  0  0  0  0  0  0
   57.2630   28.8280   44.2630 C   0  0  0  0  0  0  0  0  0  0  0  0
   57.1830   30.3540   44.0780 C   0  0  0  0  0  0  0  0  0  0  0  0
   57.0440   31.0070   45.3420 O   0  0  0  0  0  0  0  0  0  0  0  0
   58.1430   31.5010   46.0610 C   0  0  0  0  0  0  0  0  0  0  0  0
   58.5550   32.8440   45.9150 C   0  0  0  0  0  0  0  0  0  0  0  0
   57.7020   33.8050   45.1160 C   0  0  0  0  0  0  0  0  0  0  0  0
   59.7570   33.2830   46.5240 C   0  0  0  0  0  0  0  0  0  0  0  0
   60.2620   34.6940   46.2830 C   0  0  0  0  0  0  0  0  0  0  0  0
   60.4580   32.4140   47.3990 C   0  0  0  0  0  0  0  0  0  0  0  0
   61.6740   32.8960   48.0980 C   0  0  0  0  0  0  0  0  0  0  0  0
   62.9440   32.6630   47.5470 C   0  0  0  0  0  0  0  0  0  0  0  0
   64.0890   33.1210   48.2050 C   0  0  0  0  0  0  0  0  0  0  0  0
   63.9710   33.8150   49.4130 C   0  0  0  0  0  0  0  0  0  0  0  0
   62.7080   34.0520   49.9650 C   0  0  0  0  0  0  0  0  0  0  0  0
   61.5610   33.5940   49.3100 C   0  0  0  0  0  0  0  0  0  0  0  0
   59.9860   31.0960   47.6190 C   0  0  0  0  0  0  0  0  0  0  0  0
   60.6440   30.2130   48.5070 C   0  0  0  0  0  0  0  0  0  0  0  0
   60.1710   28.9150   48.7030 C   0  0  0  0  0  0  0  0  0  0  0  0
   59.0370   28.4740   48.0290 C   0  0  0  0  0  0  0  0  0  0  0  0
   58.3660   29.3290   47.1560 C   0  0  0  0  0  0  0  0  0  0  0  0
   58.8280   30.6440   46.9390 C   0  0  0  0  0  0  0  0  0  0  0  0
   57.8230   26.0724   44.7261 H   0  0  0  0  0  0  0  0  0  0  0  0
   56.7197   25.5000   43.4292 H   0  0  0  0  0  0  0  0  0  0  0  0
   58.4438   24.9955   43.4292 H   0  0  0  0  0  0  0  0  0  0  0  0
   58.9612   26.7883   42.1674 H   0  0  0  0  0  0  0  0  0  0  0  0
   57.2186   27.3114   42.2214 H   0  0  0  0  0  0  0  0  0  0  0  0
   58.8940   28.9450   43.0060 H   0  0  0  0  0  0  0  0  0  0  0  0
   59.0620   27.7460   45.6092 H   0  0  0  0  0  0  0  0  0  0  0  0
   60.0132   26.9569   44.2532 H   0  0  0  0  0  0  0  0  0  0  0  0
   60.8464   29.1131   45.8243 H   0  0  0  0  0  0  0  0  0  0  0  0
   61.5622   28.5536   44.2747 H   0  0  0  0  0  0  0  0  0  0  0  0
   60.3295   29.8602   44.2747 H   0  0  0  0  0  0  0  0  0  0  0  0
   56.3711   28.3734   43.8070 H   0  0  0  0  0  0  0  0  0  0  0  0
   57.3199   28.6324   45.3440 H   0  0  0  0  0  0  0  0  0  0  0  0
   58.1020   30.7075   43.5875 H   0  0  0  0  0  0  0  0  0  0  0  0
   56.3058   30.5908   43.4579 H   0  0  0  0  0  0  0  0  0  0  0  0
   57.1318   34.4474   45.8031 H   0  0  0  0  0  0  0  0  0  0  0  0
   58.3488   34.4293   44.4820 H   0  0  0  0  0  0  0  0  0  0  0  0
   57.0054   33.2369   44.4820 H   0  0  0  0  0  0  0  0  0  0  0  0
   60.4395   35.1899   47.2487 H   0  0  0  0  0  0  0  0  0  0  0  0
   61.2019   34.6547   45.7128 H   0  0  0  0  0  0  0  0  0  0  0  0
   59.5106   35.2600   45.7128 H   0  0  0  0  0  0  0  0  0  0  0  0
   63.0382   32.1190   46.5956 H   0  0  0  0  0  0  0  0  0  0  0  0
   65.0831   32.9354   47.7723 H   0  0  0  0  0  0  0  0  0  0  0  0
   64.8727   34.1751   49.9299 H   0  0  0  0  0  0  0  0  0  0  0  0
   62.6171   34.5990   50.9150 H   0  0  0  0  0  0  0  0  0  0  0  0
   60.5683   33.7811   49.7454 H   0  0  0  0  0  0  0  0  0  0  0  0
   61.5386   30.5535   49.0491 H   0  0  0  0  0  0  0  0  0  0  0  0
   60.6966   28.2383   49.3928 H   0  0  0  0  0  0  0  0  0  0  0  0
   58.6691   27.4491   48.1851 H   0  0  0  0  0  0  0  0  0  0  0  0
   57.4668   28.9745   46.6308 H   0  0  0  0  0  0  0  0  0  0  0  0
  1  2  1  0
  2  3  1  0
  3  4  1  0
  4  5  1  0
  3  6  1  0
  6  7  1  0
  7  8  1  0
  8  9  1  0
  9 10  2  0
 10 11  1  0
 10 12  1  0
 12 13  1  0
 12 14  2  0
 14 15  1  0
 15 16  2  0
 16 17  1  0
 17 18  2  0
 18 19  1  0
 19 20  2  0
 14 21  1  0
 21 22  2  0
 22 23  1  0
 23 24  2  0
 24 25  1  0
 25 26  2  0
 26  9  1  0
 20 15  1  0
 26 21  1  0
  1 27  1  0
  1 28  1  0
  1 29  1  0
  2 30  1  0
  2 31  1  0
  3 32  1  0
  4 33  1  0
  4 34  1  0
  5 35  1  0
  5 36  1  0
  5 37  1  0
  6 38  1  0
  6 39  1  0
  7 40  1  0
  7 41  1  0
 11 42  1  0
 11 43  1  0
 11 44  1  0
 13 45  1  0
 13 46  1  0
 13 47  1  0
 16 48  1  0
 17 49  1  0
 18 50  1  0
 19 51  1  0
 20 52  1  0
 22 53  1  0
 23 54  1  0
 24 55  1  0
 25 56  1  0
M  CHG  1   3   1
M  END
>  <UniqueID>  (19) 
19

>  <SMILES>  (19) 
CC[NH+](CC)CCOc1c(C)c(C)c(-c2ccccc2)c2ccccc12

>  <Energy>  (19) 
82.02214740303314

>  <Genealogy>  (19) 
CC[NH+](CC)CCOc1c(C)c(C)c(-c2ccccc2)c2ccccc12 (protonated)
CC[NH+](CC)CCOc1c(C)c(C)c(-c2ccccc2)c2ccccc12 (3D coordinates assigned)
CC[NH+](CC)CCOc1c(C)c(C)c(-c2ccccc2)c2ccccc12 (optimized conformer: 82.02214740303314 kcal/mol)

>  <smiles>  (19) 
CCN(CC)CCOc1c(C)c(C)c(-c2ccccc2)c2ccccc12

>  <score_type>  (19) 
oracle

>  <origin>  (19) 
adg

>  <m_score__min__energy>  (19) 
-6.9100000000000001

>  <m_primary>  (19) 
energy

$$$$
20:0
     RDKit          3D

 42 45  0  0  0  0  0  0  0  0999 V2000
   62.4740   33.8410   46.3710 C   0  0  0  0  0  0  0  0  0  0  0  0
   62.2350   32.9230   47.4830 N   0  0  0  0  0  0  0  0  0  0  0  0
   61.0930   32.2490   47.8020 C   0  0  0  0  0  0  0  0  0  0  0  0
   59.8400   32.3020   47.0270 C   0  0  0  0  0  0  0  0  0  0  0  0
   59.4610   31.1850   46.2690 C   0  0  0  0  0  0  0  0  0  0  0  0
   58.2680   31.2130   45.5230 C   0  0  0  0  0  0  0  0  0  0  0  0
   57.8380   30.0720   44.7420 N   0  0  0  0  0  0  0  0  0  0  0  0
   56.5560   30.1170   44.0240 C   0  0  0  0  0  0  0  0  0  0  0  0
   56.6220   29.3170   42.7060 C   0  0  0  0  0  0  0  0  0  0  0  0
   57.4310   28.0820   42.7700 N   0  0  0  0  0  0  0  0  0  0  0  0
   57.7770   27.6730   44.1360 C   0  0  0  0  0  0  0  0  0  0  0  0
   58.5470   28.7880   44.8480 C   0  0  0  0  0  0  0  0  0  0  0  0
   57.5070   32.3430   45.5430 N   0  0  0  0  0  0  0  0  0  0  0  0
   57.8580   33.4470   46.2540 C   0  0  0  0  0  0  0  0  0  0  0  0
   59.0340   33.4540   47.0060 C   0  0  0  0  0  0  0  0  0  0  0  0
   59.4960   34.9310   47.8450 Cl  0  0  0  0  0  0  0  0  0  0  0  0
   61.2160   31.5320   48.9470 N   0  0  0  0  0  0  0  0  0  0  0  0
   62.4810   31.7480   49.3410 C   0  0  0  0  0  0  0  0  0  0  0  0
   63.1340   31.2420   50.4620 C   0  0  0  0  0  0  0  0  0  0  0  0
   64.4740   31.6230   50.6650 C   0  0  0  0  0  0  0  0  0  0  0  0
   65.1180   32.4920   49.7530 C   0  0  0  0  0  0  0  0  0  0  0  0
   64.4270   32.9860   48.6300 C   0  0  0  0  0  0  0  0  0  0  0  0
   63.1010   32.5870   48.4570 C   0  0  0  0  0  0  0  0  0  0  0  0
   62.7327   34.8348   46.7651 H   0  0  0  0  0  0  0  0  0  0  0  0
   63.3037   33.4632   45.7555 H   0  0  0  0  0  0  0  0  0  0  0  0
   61.5654   33.9158   45.7555 H   0  0  0  0  0  0  0  0  0  0  0  0
   60.0961   30.2869   46.2574 H   0  0  0  0  0  0  0  0  0  0  0  0
   55.7715   29.6878   44.6646 H   0  0  0  0  0  0  0  0  0  0  0  0
   56.3307   31.1661   43.7819 H   0  0  0  0  0  0  0  0  0  0  0  0
   55.5960   29.0396   42.4225 H   0  0  0  0  0  0  0  0  0  0  0  0
   57.1138   29.9713   41.9711 H   0  0  0  0  0  0  0  0  0  0  0  0
   58.3220   28.2330   42.2390 H   0  0  0  0  0  0  0  0  0  0  0  0
   56.8542   27.4563   44.6942 H   0  0  0  0  0  0  0  0  0  0  0  0
   58.4106   26.7750   44.0899 H   0  0  0  0  0  0  0  0  0  0  0  0
   58.6585   28.5258   45.9105 H   0  0  0  0  0  0  0  0  0  0  0  0
   59.5323   28.8924   44.3701 H   0  0  0  0  0  0  0  0  0  0  0  0
   57.2131   34.3380   46.2367 H   0  0  0  0  0  0  0  0  0  0  0  0
   60.4930   30.9400   49.4130 H   0  0  0  0  0  0  0  0  0  0  0  0
   62.6209   30.5684   51.1641 H   0  0  0  0  0  0  0  0  0  0  0  0
   65.0239   31.2426   51.5384 H   0  0  0  0  0  0  0  0  0  0  0  0
   66.1651   32.7835   49.9223 H   0  0  0  0  0  0  0  0  0  0  0  0
   64.9155   33.6630   47.9138 H   0  0  0  0  0  0  0  0  0  0  0  0
  1  2  1  0
  2  3  1  0
  3  4  1  0
  4  5  2  0
  5  6  1  0
  6  7  1  0
  7  8  1  0
  8  9  1  0
  9 10  1  0
 10 11  1  0
 11 12  1  0
  6 13  2  0
 13 14  1  0
 14 15  2  0
 15 16  1  0
  3 17  2  0
 17 18  1  0
 18 19  2  0
 19 20  1  0
 20 21  2  0
 21 22  1  0
 22 23  2  0
 23  2  1  0
 15  4  1  0
 23 18  1  0
 12  7  1  0
  1 24  1  0
  1 25  1  0
  1 26  1  0
  5 27  1  0
  8 28  1  0
  8 29  1  0
  9 30  1  0
  9 31  1  0
 10 32  1  0
 11 33  1  0
 11 34  1  0
 12 35  1  0
 12 36  1  0
 14 37  1  0
 17 38  1  0
 19 39  1  0
 20 40  1  0
 21 41  1  0
 22 42  1  0
M  CHG  1  17   1
M  END
>  <UniqueID>  (20) 
20

>  <SMILES>  (20) 
Cn1c(-c2cc(N3CCNCC3)ncc2Cl)[nH+]c2ccccc21

>  <Energy>  (20) 
98.07768666947322

>  <Genealogy>  (20) 
Cn1c(-c2cc(N3CCNCC3)ncc2Cl)[nH+]c2ccccc21 (protonated)
Cn1c(-c2cc(N3CCNCC3)ncc2Cl)[nH+]c2ccccc21 (3D coordinates assigned)
Cn1c(-c2cc(N3CCNCC3)ncc2Cl)[nH+]c2ccccc21 (nonaromatic ring conformer: 98.07768666947322 kcal/mol)

>  <smiles>  (20) 
Cn1c(-c2cc(N3CCNCC3)ncc2Cl)nc2ccccc21

>  <score_type>  (20) 
oracle

>  <origin>  (20) 
adg

>  <m_score__min__energy>  (20) 
-6.1299999999999999

>  <m_primary>  (20) 
energy

$$$$
21:0
     RDKit          3D

 23 24  0  0  0  0  0  0  0  0999 V2000
   59.2700   34.9380   48.0950 O   0  0  0  0  0  0  0  0  0  0  0  0
   60.0130   34.5120   46.8590 S   0  0  0  0  0  0  0  0  0  0  0  0
   60.2180   35.7230   45.9910 O   0  0  0  0  0  0  0  0  0  0  0  0
   59.0880   33.2950   45.9900 C   0  0  0  0  0  0  0  0  0  0  0  0
   58.5120   33.6010   44.7500 C   0  0  0  0  0  0  0  0  0  0  0  0
   57.7600   32.6380   44.0670 C   0  0  0  0  0  0  0  0  0  0  0  0
   57.5760   31.3690   44.6240 C   0  0  0  0  0  0  0  0  0  0  0  0
   56.5480   30.0560   43.6930 Br  0  0  0  0  0  0  0  0  0  0  0  0
   58.1430   31.0630   45.8660 C   0  0  0  0  0  0  0  0  0  0  0  0
   58.8940   32.0240   46.5500 C   0  0  0  0  0  0  0  0  0  0  0  0
   61.5490   33.8510   47.3040 N   0  0  0  0  0  0  0  0  0  0  0  0
   61.9350   33.4720   48.5350 C   0  0  0  0  0  0  0  0  0  0  0  0
   63.2140   32.9630   48.4380 C   0  0  0  0  0  0  0  0  0  0  0  0
   63.6070   33.0260   47.1500 N   0  0  0  0  0  0  0  0  0  0  0  0
   62.5730   33.5680   46.4800 C   0  0  0  0  0  0  0  0  0  0  0  0
   58.6511   34.6005   44.3121 H   0  0  0  0  0  0  0  0  0  0  0  0
   57.3135   32.8799   43.0912 H   0  0  0  0  0  0  0  0  0  0  0  0
   57.9978   30.0649   46.3050 H   0  0  0  0  0  0  0  0  0  0  0  0
   59.3334   31.7826   47.5291 H   0  0  0  0  0  0  0  0  0  0  0  0
   61.3378   33.5532   49.4552 H   0  0  0  0  0  0  0  0  0  0  0  0
   63.8133   32.5710   49.2730 H   0  0  0  0  0  0  0  0  0  0  0  0
   64.5200   32.7120   46.7530 H   0  0  0  0  0  0  0  0  0  0  0  0
   62.5666   33.7555   45.3961 H   0  0  0  0  0  0  0  0  0  0  0  0
  1  2  2  0
  2  3  2  0
  2  4  1  0
  4  5  2  0
  5  6  1  0
  6  7  2  0
  7  8  1  0
  7  9  1  0
  9 10  2  0
  2 11  1  0
 11 12  1  0
 12 13  2  0
 13 14  1  0
 14 15  2  0
 10  4  1  0
 15 11  1  0
  5 16  1  0
  6 17  1  0
  9 18  1  0
 10 19  1  0
 12 20  1  0
 13 21  1  0
 14 22  1  0
 15 23  1  0
M  CHG  1  14   1
M  END
>  <UniqueID>  (21) 
21

>  <SMILES>  (21) 
O=S(=O)(c1ccc(Br)cc1)n1cc[nH+]c1

>  <Energy>  (21) 
55.493810825693764

>  <Genealogy>  (21) 
O=S(=O)(c1ccc(Br)cc1)n1cc[nH+]c1 (protonated)
O=S(=O)(c1ccc(Br)cc1)n1cc[nH+]c1 (3D coordinates assigned)
O=S(=O)(c1ccc(Br)cc1)n1cc[nH+]c1 (optimized conformer: 55.493810825693764 kcal/mol)

>  <smiles>  (21) 
O=S(=O)(c1ccc(Br)cc1)n1ccnc1

>  <score_type>  (21) 
oracle

>  <origin>  (21) 
adg

>  <m_score__min__energy>  (21) 
-5.6100000000000003

>  <m_primary>  (21) 
energy

$$$$
22:0
     RDKit          3D

 65 67  0  0  0  0  0  0  0  0999 V2000
   59.6590   33.5470   50.4480 C   0  0  0  0  0  0  0  0  0  0  0  0
   59.1030   32.1570   50.7740 C   0  0  0  0  0  0  0  0  0  0  0  0
   59.8710   31.0750   50.1370 N   0  0  0  0  0  0  0  0  0  0  0  0
   59.3420   29.7430   50.4720 C   0  0  0  0  0  0  0  0  0  0  0  0
   60.4370   28.6760   50.3190 C   0  0  0  0  0  0  0  0  0  0  0  0
   61.4820   28.7360   51.4390 C   0  0  0  0  0  0  0  0  0  0  0  0
   61.9550   30.0620   51.5760 O   0  0  0  0  0  0  0  0  0  0  0  0
   63.3710   30.0940   51.5830 C   0  0  0  0  0  0  0  0  0  0  0  0
   63.9050   31.0560   50.5180 C   0  0  0  0  0  0  0  0  0  0  0  0
   62.8480   31.4160   49.6420 O   0  0  0  0  0  0  0  0  0  0  0  0
   63.3290   31.9720   48.4300 C   0  0  0  0  0  0  0  0  0  0  0  0
   62.2200   32.0580   47.3680 C   0  0  0  0  0  0  0  0  0  0  0  0
   60.9080   31.5900   47.8640 N   0  0  0  0  0  0  0  0  0  0  0  0
   59.9630   31.3350   46.7800 C   0  0  0  0  0  0  0  0  0  0  0  0
   59.6510   30.0060   46.3820 C   0  0  0  0  0  0  0  0  0  0  0  0
   58.6130   29.7850   45.4330 C   0  0  0  0  0  0  0  0  0  0  0  0
   58.0490   30.8500   44.7550 N   0  0  0  0  0  0  0  0  0  0  0  0
   57.1240   30.6050   43.6210 C   0  0  0  0  0  0  0  0  0  0  0  0
   58.3380   32.1500   45.1220 C   0  0  0  0  0  0  0  0  0  0  0  0
   57.6630   33.2520   44.5290 C   0  0  0  0  0  0  0  0  0  0  0  0
   57.9870   34.5640   44.8610 C   0  0  0  0  0  0  0  0  0  0  0  0
   58.9780   34.8190   45.7950 C   0  0  0  0  0  0  0  0  0  0  0  0
   59.6340   33.7640   46.4240 C   0  0  0  0  0  0  0  0  0  0  0  0
   59.3180   32.4150   46.1210 C   0  0  0  0  0  0  0  0  0  0  0  0
   58.1490   28.3600   45.1360 C   0  0  0  0  0  0  0  0  0  0  0  0
   58.5930   27.3390   46.1760 C   0  0  0  0  0  0  0  0  0  0  0  0
   60.0900   27.4660   46.3780 C   0  0  0  0  0  0  0  0  0  0  0  0
   60.4200   28.8280   46.9830 C   0  0  0  0  0  0  0  0  0  0  0  0
   59.8740   34.0845   51.3833 H   0  0  0  0  0  0  0  0  0  0  0  0
   60.5850   33.4436   49.8633 H   0  0  0  0  0  0  0  0  0  0  0  0
   58.9172   34.1108   49.8633 H   0  0  0  0  0  0  0  0  0  0  0  0
   59.1306   32.0136   51.8643 H   0  0  0  0  0  0  0  0  0  0  0  0
   58.0756   32.1099   50.3837 H   0  0  0  0  0  0  0  0  0  0  0  0
   60.8710   31.1330   50.4470 H   0  0  0  0  0  0  0  0  0  0  0  0
   58.9829   29.7469   51.5117 H   0  0  0  0  0  0  0  0  0  0  0  0
   58.5151   29.5055   49.7866 H   0  0  0  0  0  0  0  0  0  0  0  0
   59.9646   27.6827   50.3313 H   0  0  0  0  0  0  0  0  0  0  0  0
   60.9570   28.8674   49.3688 H   0  0  0  0  0  0  0  0  0  0  0  0
   61.0240   28.4111   52.3849 H   0  0  0  0  0  0  0  0  0  0  0  0
   62.3229   28.0720   51.1900 H   0  0  0  0  0  0  0  0  0  0  0  0
   63.7182   30.4250   52.5729 H   0  0  0  0  0  0  0  0  0  0  0  0
   63.7448   29.0836   51.3607 H   0  0  0  0  0  0  0  0  0  0  0  0
   64.3034   31.9587   51.0042 H   0  0  0  0  0  0  0  0  0  0  0  0
   64.7076   30.5664   49.9470 H   0  0  0  0  0  0  0  0  0  0  0  0
   63.7125   32.9837   48.6286 H   0  0  0  0  0  0  0  0  0  0  0  0
   64.1256   31.3191   48.0439 H   0  0  0  0  0  0  0  0  0  0  0  0
   62.1207   33.1060   47.0489 H   0  0  0  0  0  0  0  0  0  0  0  0
   62.5104   31.4010   46.5349 H   0  0  0  0  0  0  0  0  0  0  0  0
   61.0340   30.7150   48.4190 H   0  0  0  0  0  0  0  0  0  0  0  0
   60.5520   32.2670   48.5710 H   0  0  0  0  0  0  0  0  0  0  0  0
   56.1292   30.3415   44.0096 H   0  0  0  0  0  0  0  0  0  0  0  0
   57.0486   31.5141   43.0064 H   0  0  0  0  0  0  0  0  0  0  0  0
   57.5085   29.7777   43.0064 H   0  0  0  0  0  0  0  0  0  0  0  0
   56.8681   33.0635   43.7924 H   0  0  0  0  0  0  0  0  0  0  0  0
   57.4558   35.3994   44.3814 H   0  0  0  0  0  0  0  0  0  0  0  0
   59.2472   35.8570   46.0402 H   0  0  0  0  0  0  0  0  0  0  0  0
   60.4124   33.9811   47.1703 H   0  0  0  0  0  0  0  0  0  0  0  0
   57.0499   28.3552   45.0926 H   0  0  0  0  0  0  0  0  0  0  0  0
   58.6095   28.0657   44.1814 H   0  0  0  0  0  0  0  0  0  0  0  0
   58.0742   27.5304   47.1269 H   0  0  0  0  0  0  0  0  0  0  0  0
   58.3474   26.3237   45.8313 H   0  0  0  0  0  0  0  0  0  0  0  0
   60.4348   26.6723   47.0570 H   0  0  0  0  0  0  0  0  0  0  0  0
   60.5956   27.3700   45.4058 H   0  0  0  0  0  0  0  0  0  0  0  0
   60.1950   28.7870   48.0590 H   0  0  0  0  0  0  0  0  0  0  0  0
   61.4826   29.0116   46.7656 H   0  0  0  0  0  0  0  0  0  0  0  0
  1  2  1  0
  2  3  1  0
  3  4  1  0
  4  5  1  0
  5  6  1  0
  6  7  1  0
  7  8  1  0
  8  9  1  0
  9 10  1  0
 10 11  1  0
 11 12  1  0
 12 13  1  0
 13 14  1  0
 14 15  2  0
 15 16  1  0
 16 17  2  0
 17 18  1  0
 17 19  1  0
 19 20  2  0
 20 21  1  0
 21 22  2  0
 22 23  1  0
 23 24  2  0
 16 25  1  0
 25 26  1  0
 26 27  1  0
 27 28  1  0
 24 14  1  0
 28 15  1  0
 24 19  1  0
  1 29  1  0
  1 30  1  0
  1 31  1  0
  2 32  1  0
  2 33  1  0
  3 34  1  0
  4 35  1  0
  4 36  1  0
  5 37  1  0
  5 38  1  0
  6 39  1  0
  6 40  1  0
  8 41  1  0
  8 42  1  0
  9 43  1  0
  9 44  1  0
 11 45  1  0
 11 46  1  0
 12 47  1  0
 12 48  1  0
 13 49  1  0
 13 50  1  0
 18 51  1  0
 18 52  1  0
 18 53  1  0
 20 54  1  0
 21 55  1  0
 22 56  1  0
 23 57  1  0
 25 58  1  0
 25 59  1  0
 26 60  1  0
 26 61  1  0
 27 62  1  0
 27 63  1  0
 28 64  1  0
 28 65  1  0
M  CHG  2  13   1  17   1
M  END
>  <UniqueID>  (22) 
22

>  <SMILES>  (22) 
CCNCCCOCCOCC[NH2+]c1c2c([n+](C)c3ccccc13)CCCC2

>  <Energy>  (22) 
85.93586465517247

>  <Genealogy>  (22) 
CCNCCCOCCOCC[NH2+]c1c2c([n+](C)c3ccccc13)CCCC2 (protonated)
CCNCCCOCCOCC[NH2+]c1c2c([n+](C)c3ccccc13)CCCC2 (3D coordinates assigned)
CCNCCCOCCOCC[NH2+]c1c2c([n+](C)c3ccccc13)CCCC2 (nonaromatic ring conformer: 85.93586465517247 kcal/mol)

>  <smiles>  (22) 
CCNCCCOCCOCCNc1c2c([n+](C)c3ccccc13)CCCC2

>  <score_type>  (22) 
oracle

>  <origin>  (22) 
adg

>  <m_score__min__energy>  (22) 
-3.3599999999999999

>  <m_primary>  (22) 
energy

$$$$
23:0
     RDKit          3D

 41 42  0  0  0  0  0  0  0  0999 V2000
   56.2550   29.4840   43.7530 C   0  0  0  0  0  0  0  0  0  0  0  0
   56.7800   29.8860   45.0140 O   0  0  0  0  0  0  0  0  0  0  0  0
   57.4320   31.1080   45.2540 C   0  0  0  0  0  0  0  0  0  0  0  0
   57.2010   32.2430   44.4530 C   0  0  0  0  0  0  0  0  0  0  0  0
   57.8620   33.4440   44.7200 C   0  0  0  0  0  0  0  0  0  0  0  0
   58.7580   33.5290   45.7870 C   0  0  0  0  0  0  0  0  0  0  0  0
   59.6570   35.1740   46.1510 Br  0  0  0  0  0  0  0  0  0  0  0  0
   58.9970   32.4100   46.5890 C   0  0  0  0  0  0  0  0  0  0  0  0
   58.3410   31.1950   46.3300 C   0  0  0  0  0  0  0  0  0  0  0  0
   58.5950   29.9990   47.2140 C   0  0  0  0  0  0  0  0  0  0  0  0
   59.6720   29.1620   46.6420 N   0  0  0  0  0  0  0  0  0  0  0  0
   59.6120   29.0630   45.1620 C   0  0  0  0  0  0  0  0  0  0  0  0
   59.1400   27.6850   44.6530 C   0  0  0  0  0  0  0  0  0  0  0  0
   58.0830   27.1360   45.5260 N   0  0  0  0  0  0  0  0  0  0  0  0
   57.5390   25.8870   44.9350 C   0  0  0  0  0  0  0  0  0  0  0  0
   56.1700   25.4960   45.5160 C   0  0  0  0  0  0  0  0  0  0  0  0
   55.5070   26.6230   46.0180 O   0  0  0  0  0  0  0  0  0  0  0  0
   58.5870   26.9170   46.9100 C   0  0  0  0  0  0  0  0  0  0  0  0
   59.7630   27.8420   47.2930 C   0  0  0  0  0  0  0  0  0  0  0  0
   55.3906   28.8221   43.9099 H   0  0  0  0  0  0  0  0  0  0  0  0
   55.9384   30.3728   43.1875 H   0  0  0  0  0  0  0  0  0  0  0  0
   57.0305   28.9466   43.1875 H   0  0  0  0  0  0  0  0  0  0  0  0
   56.4952   32.1832   43.6114 H   0  0  0  0  0  0  0  0  0  0  0  0
   57.6761   34.3249   44.0880 H   0  0  0  0  0  0  0  0  0  0  0  0
   59.7037   32.4809   47.4290 H   0  0  0  0  0  0  0  0  0  0  0  0
   58.8950   30.3437   48.2146 H   0  0  0  0  0  0  0  0  0  0  0  0
   57.6741   29.4015   47.2837 H   0  0  0  0  0  0  0  0  0  0  0  0
   58.9147   29.8283   44.7904 H   0  0  0  0  0  0  0  0  0  0  0  0
   60.6355   29.2117   44.7873 H   0  0  0  0  0  0  0  0  0  0  0  0
   58.7441   27.7940   43.6325 H   0  0  0  0  0  0  0  0  0  0  0  0
   59.9964   26.9947   44.6604 H   0  0  0  0  0  0  0  0  0  0  0  0
   57.3050   27.8360   45.5530 H   0  0  0  0  0  0  0  0  0  0  0  0
   57.4316   26.0302   43.8497 H   0  0  0  0  0  0  0  0  0  0  0  0
   58.2424   25.0756   45.1736 H   0  0  0  0  0  0  0  0  0  0  0  0
   55.5582   25.0397   44.7239 H   0  0  0  0  0  0  0  0  0  0  0  0
   56.3247   24.7807   46.3372 H   0  0  0  0  0  0  0  0  0  0  0  0
   55.1020   26.3440   46.8800 H   0  0  0  0  0  0  0  0  0  0  0  0
   57.7605   27.0958   47.6135 H   0  0  0  0  0  0  0  0  0  0  0  0
   58.9606   25.8835   46.9576 H   0  0  0  0  0  0  0  0  0  0  0  0
   59.7601   27.9846   48.3837 H   0  0  0  0  0  0  0  0  0  0  0  0
   60.6927   27.3625   46.9529 H   0  0  0  0  0  0  0  0  0  0  0  0
  1  2  1  0
  2  3  1  0
  3  4  2  0
  4  5  1  0
  5  6  2  0
  6  7  1  0
  6  8  1  0
  8  9  2  0
  9 10  1  0
 10 11  1  0
 11 12  1  0
 12 13  1  0
 13 14  1  0
 14 15  1  0
 15 16  1  0
 16 17  1  0
 14 18  1  0
 18 19  1  0
  9  3  1  0
 19 11  1  0
  1 20  1  0
  1 21  1  0
  1 22  1  0
  4 23  1  0
  5 24  1  0
  8 25  1  0
 10 26  1  0
 10 27  1  0
 12 28  1  0
 12 29  1  0
 13 30  1  0
 13 31  1  0
 14 32  1  0
 15 33  1  0
 15 34  1  0
 16 35  1  0
 16 36  1  0
 17 37  1  0
 18 38  1  0
 18 39  1  0
 19 40  1  0
 19 41  1  0
M  CHG  1  14   1
M  END
>  <UniqueID>  (23) 
23

>  <SMILES>  (23) 
COc1ccc(Br)cc1CN1CC[NH+](CCO)CC1

>  <Energy>  (23) 
51.63362654057297

>  <Genealogy>  (23) 
COc1ccc(Br)cc1CN1CC[NH+](CCO)CC1 (protonated)
COc1ccc(Br)cc1CN1CC[NH+](CCO)CC1 (3D coordinates assigned)
COc1ccc(Br)cc1CN1CC[NH+](CCO)CC1 (nonaromatic ring conformer: 51.63362654057297 kcal/mol)

>  <smiles>  (23) 
COc1ccc(Br)cc1CN1CCN(CCO)CC1

>  <score_type>  (23) 
oracle

>  <origin>  (23) 
adg

>  <m_score__min__energy>  (23) 
-5.46

>  <m_primary>  (23) 
energy

$$$$
