0:0
     RDKit          3D

 99103  0  0  0  0  0  0  0  0999 V2000
   59.3010   34.4960   53.7870 C   0  0  0  0  0  0  0  0  0  0  0  0
   58.2050   34.0520   52.8020 C   0  0  0  0  0  0  0  0  0  0  0  0
   58.6300   33.0490   51.7810 N   0  0  0  0  0  0  0  0  0  0  0  0
   58.7110   31.6660   52.3330 C   0  0  0  0  0  0  0  0  0  0  0  0
   57.5020   30.7700   52.0360 C   0  0  0  0  0  0  0  0  0  0  0  0
   59.8160   33.4790   50.9910 C   0  0  0  0  0  0  0  0  0  0  0  0
   59.6000   33.4860   49.4640 C   0  0  0  0  0  0  0  0  0  0  0  0
   58.5040   32.6000   49.0700 N   0  0  0  0  0  0  0  0  0  0  0  0
   58.6020   31.7620   47.9080 C   0  0  0  0  0  0  0  0  0  0  0  0
   58.2690   32.2700   46.6420 C   0  0  0  0  0  0  0  0  0  0  0  0
   57.7970   33.5910   46.4960 C   0  0  0  0  0  0  0  0  0  0  0  0
   57.5420   34.1230   45.2370 C   0  0  0  0  0  0  0  0  0  0  0  0
   57.7560   33.3540   44.1010 C   0  0  0  0  0  0  0  0  0  0  0  0
   58.2010   32.0370   44.2180 C   0  0  0  0  0  0  0  0  0  0  0  0
   58.4390   31.4550   45.4920 C   0  0  0  0  0  0  0  0  0  0  0  0
   58.8500   30.1400   45.6260 N   0  0  0  0  0  0  0  0  0  0  0  0
   58.7770   29.2200   44.4670 C   0  0  0  0  0  0  0  0  0  0  0  0
   59.2980   29.6750   46.8500 C   0  0  0  0  0  0  0  0  0  0  0  0
   59.9620   28.4280   46.9830 C   0  0  0  0  0  0  0  0  0  0  0  0
   60.3630   27.9500   48.2330 C   0  0  0  0  0  0  0  0  0  0  0  0
   60.0910   28.6890   49.3900 C   0  0  0  0  0  0  0  0  0  0  0  0
   60.4450   28.2610   50.6760 O   0  0  0  0  0  0  0  0  0  0  0  0
   61.1170   27.0460   51.0050 C   0  0  0  0  0  0  0  0  0  0  0  0
   61.4010   26.9560   52.5270 C   0  0  0  0  0  0  0  0  0  0  0  0
   62.5020   27.8490   53.0280 N   0  0  1  0  0  0  0  0  0  0  0  0
   63.5310   27.0120   53.7070 C   0  0  0  0  0  0  0  0  0  0  0  0
   63.1080   28.5160   51.8380 C   0  0  0  0  0  0  0  0  0  0  0  0
   64.1020   29.6480   52.1890 C   0  0  0  0  0  0  0  0  0  0  0  0
   63.5290   30.6750   53.1060 N   0  0  1  0  0  0  0  0  0  0  0  0
   64.6400   31.5420   53.5840 C   0  0  0  0  0  0  0  0  0  0  0  0
   62.4760   31.5220   52.4490 C   0  0  0  0  0  0  0  0  0  0  0  0
   62.7800   31.9230   51.0120 C   0  0  0  0  0  0  0  0  0  0  0  0
   62.2650   31.1840   49.9350 C   0  0  0  0  0  0  0  0  0  0  0  0
   62.5700   31.5420   48.6180 C   0  0  0  0  0  0  0  0  0  0  0  0
   63.3740   32.6650   48.3580 C   0  0  0  0  0  0  0  0  0  0  0  0
   63.6840   33.0770   46.9390 C   0  0  0  0  0  0  0  0  0  0  0  0
   62.5210   33.8610   46.3170 C   0  0  0  0  0  0  0  0  0  0  0  0
   61.3200   33.1400   46.4300 O   0  0  0  0  0  0  0  0  0  0  0  0
   63.8440   33.4350   49.4290 C   0  0  0  0  0  0  0  0  0  0  0  0
   63.5630   33.0610   50.7450 C   0  0  0  0  0  0  0  0  0  0  0  0
   62.9570   29.9950   54.3020 C   0  0  0  0  0  0  0  0  0  0  0  0
   61.9480   28.8790   53.9520 C   0  0  0  0  0  0  0  0  0  0  0  0
   59.4550   29.9230   49.2750 C   0  0  0  0  0  0  0  0  0  0  0  0
   59.1160   30.4590   48.0180 C   0  0  0  0  0  0  0  0  0  0  0  0
   58.9469   34.3526   54.8185 H   0  0  0  0  0  0  0  0  0  0  0  0
   60.2069   33.8940   53.6232 H   0  0  0  0  0  0  0  0  0  0  0  0
   59.5325   35.5588   53.6232 H   0  0  0  0  0  0  0  0  0  0  0  0
   57.3814   33.6145   53.3853 H   0  0  0  0  0  0  0  0  0  0  0  0
   57.9187   34.9535   52.2405 H   0  0  0  0  0  0  0  0  0  0  0  0
   57.8320   33.0130   51.1060 H   0  0  0  0  0  0  0  0  0  0  0  0
   59.6041   31.1830   51.9099 H   0  0  0  0  0  0  0  0  0  0  0  0
   58.7463   31.7766   53.4269 H   0  0  0  0  0  0  0  0  0  0  0  0
   57.0517   30.4362   52.9825 H   0  0  0  0  0  0  0  0  0  0  0  0
   56.7589   31.3372   51.4563 H   0  0  0  0  0  0  0  0  0  0  0  0
   57.8284   29.8940   51.4563 H   0  0  0  0  0  0  0  0  0  0  0  0
   60.0861   34.4982   51.3043 H   0  0  0  0  0  0  0  0  0  0  0  0
   60.6084   32.7428   51.1911 H   0  0  0  0  0  0  0  0  0  0  0  0
   59.3637   34.5109   49.1418 H   0  0  0  0  0  0  0  0  0  0  0  0
   60.5223   33.1258   48.9848 H   0  0  0  0  0  0  0  0  0  0  0  0
   57.5900   32.6550   49.5740 H   0  0  0  0  0  0  0  0  0  0  0  0
   57.6283   34.2088   47.3904 H   0  0  0  0  0  0  0  0  0  0  0  0
   57.1704   35.1539   45.1409 H   0  0  0  0  0  0  0  0  0  0  0  0
   57.5740   33.7847   43.1053 H   0  0  0  0  0  0  0  0  0  0  0  0
   58.3702   31.4399   43.3098 H   0  0  0  0  0  0  0  0  0  0  0  0
   58.6948   28.1836   44.8262 H   0  0  0  0  0  0  0  0  0  0  0  0
   57.8957   29.4677   43.8571 H   0  0  0  0  0  0  0  0  0  0  0  0
   59.6864   29.3256   43.8571 H   0  0  0  0  0  0  0  0  0  0  0  0
   60.1649   27.8263   46.0848 H   0  0  0  0  0  0  0  0  0  0  0  0
   60.8942   26.9897   48.3081 H   0  0  0  0  0  0  0  0  0  0  0  0
   60.4866   26.1953   50.7068 H   0  0  0  0  0  0  0  0  0  0  0  0
   62.0777   27.0236   50.4697 H   0  0  0  0  0  0  0  0  0  0  0  0
   60.4773   27.2224   53.0616 H   0  0  0  0  0  0  0  0  0  0  0  0
   61.7360   25.9251   52.7140 H   0  0  0  0  0  0  0  0  0  0  0  0
   63.4176   27.1042   54.7972 H   0  0  0  0  0  0  0  0  0  0  0  0
   63.4008   25.9602   53.4125 H   0  0  0  0  0  0  0  0  0  0  0  0
   64.5342   27.3537   53.4125 H   0  0  0  0  0  0  0  0  0  0  0  0
   63.6433   27.7555   51.2506 H   0  0  0  0  0  0  0  0  0  0  0  0
   62.2823   28.9799   51.2785 H   0  0  0  0  0  0  0  0  0  0  0  0
   64.9830   29.2010   52.6728 H   0  0  0  0  0  0  0  0  0  0  0  0
   64.3585   30.1584   51.2490 H   0  0  0  0  0  0  0  0  0  0  0  0
   64.6511   31.5507   54.6839 H   0  0  0  0  0  0  0  0  0  0  0  0
   65.5976   31.1500   53.2107 H   0  0  0  0  0  0  0  0  0  0  0  0
   64.4925   32.5662   53.2107 H   0  0  0  0  0  0  0  0  0  0  0  0
   61.5317   30.9579   52.4538 H   0  0  0  0  0  0  0  0  0  0  0  0
   62.4277   32.4570   53.0265 H   0  0  0  0  0  0  0  0  0  0  0  0
   61.6166   30.3168   50.1286 H   0  0  0  0  0  0  0  0  0  0  0  0
   62.1792   30.9425   47.7826 H   0  0  0  0  0  0  0  0  0  0  0  0
   64.5834   33.7104   46.9386 H   0  0  0  0  0  0  0  0  0  0  0  0
   63.8468   32.1675   46.3421 H   0  0  0  0  0  0  0  0  0  0  0  0
   62.4147   34.8238   46.8383 H   0  0  0  0  0  0  0  0  0  0  0  0
   62.7356   34.0262   45.2509 H   0  0  0  0  0  0  0  0  0  0  0  0
   60.7410   33.4300   45.6790 H   0  0  0  0  0  0  0  0  0  0  0  0
   64.4380   34.3398   49.2327 H   0  0  0  0  0  0  0  0  0  0  0  0
   63.9568   33.6606   51.5789 H   0  0  0  0  0  0  0  0  0  0  0  0
   63.7822   29.5504   54.8777 H   0  0  0  0  0  0  0  0  0  0  0  0
   62.4104   30.7569   54.8771 H   0  0  0  0  0  0  0  0  0  0  0  0
   61.6404   28.3822   54.8839 H   0  0  0  0  0  0  0  0  0  0  0  0
   61.1016   29.3563   53.4365 H   0  0  0  0  0  0  0  0  0  0  0  0
   59.2125   30.4906   50.1855 H   0  0  0  0  0  0  0  0  0  0  0  0
  1  2  1  0
  2  3  1  0
  3  4  1  0
  4  5  1  0
  3  6  1  0
  6  7  1  0
  7  8  1  0
  8  9  1  0
  9 10  2  0
 10 11  1  0
 11 12  2  0
 12 13  1  0
 13 14  2  0
 14 15  1  0
 15 16  2  0
 16 17  1  0
 16 18  1  0
 18 19  2  0
 19 20  1  0
 20 21  2  0
 21 22  1  0
 22 23  1  0
 23 24  1  0
 25 24  1  6
 25 26  1  0
 25 27  1  0
 27 28  1  0
 28 29  1  0
 29 30  1  1
 29 31  1  0
 31 32  1  0
 32 33  2  0
 33 34  1  0
 34 35  2  0
 35 36  1  0
 36 37  1  0
 37 38  1  0
 35 39  1  0
 39 40  2  0
 29 41  1  0
 41 42  1  0
 21 43  1  0
 43 44  2  0
 44  9  1  0
 15 10  1  0
 44 18  1  0
 42 25  1  0
 40 32  1  0
  1 45  1  0
  1 46  1  0
  1 47  1  0
  2 48  1  0
  2 49  1  0
  3 50  1  0
  4 51  1  0
  4 52  1  0
  5 53  1  0
  5 54  1  0
  5 55  1  0
  6 56  1  0
  6 57  1  0
  7 58  1  0
  7 59  1  0
  8 60  1  0
 11 61  1  0
 12 62  1  0
 13 63  1  0
 14 64  1  0
 17 65  1  0
 17 66  1  0
 17 67  1  0
 19 68  1  0
 20 69  1  0
 23 70  1  0
 23 71  1  0
 24 72  1  0
 24 73  1  0
 26 74  1  0
 26 75  1  0
 26 76  1  0
 27 77  1  0
 27 78  1  0
 28 79  1  0
 28 80  1  0
 30 81  1  0
 30 82  1  0
 30 83  1  0
 31 84  1  0
 31 85  1  0
 33 86  1  0
 34 87  1  0
 36 88  1  0
 36 89  1  0
 37 90  1  0
 37 91  1  0
 38 92  1  0
 39 93  1  0
 40 94  1  0
 41 95  1  0
 41 96  1  0
 42 97  1  0
 42 98  1  0
 43 99  1  0
M  CHG  4   3   1  16   1  25   1  29   1
M  END
>  <UniqueID>  (1) 
1

>  <SMILES>  (1) 
CC[NH+](CC)CCNc1c2ccccc2[n+](C)c2ccc(OCC[N+]3(C)CC[N+](C)(Cc4ccc(CCO)cc4)CC3)cc12

>  <Energy>  (1) 
160.36210557698743

>  <Genealogy>  (1) 
CC[NH+](CC)CCNc1c2ccccc2[n+](C)c2ccc(OCC[N+]3(C)CC[N+](C)(Cc4ccc(CCO)cc4)CC3)cc12 (protonated)
CC[NH+](CC)CCNc1c2ccccc2[n+](C)c2ccc(OCC[N+]3(C)CC[N+](C)(Cc4ccc(CCO)cc4)CC3)cc12 (3D coordinates assigned)
CC[NH+](CC)CCNc1c2ccccc2[n+](C)c2ccc(OCC[N+]3(C)CC[N+](C)(Cc4ccc(CCO)cc4)CC3)cc12 (nonaromatic ring conformer: 160.36210557698743 kcal/mol)

>  <smiles>  (1) 
CCN(CC)CCNc1c2ccccc2[n+](C)c2ccc(OCC[N+]3(C)CC[N+](C)(Cc4ccc(CCO)cc4)CC3)cc12

>  <score_type>  (1) 
oracle

>  <origin>  (1) 
adg

>  <m_score__min__energy>  (1) 
-4.1699999999999999

>  <m_primary>  (1) 
energy

$$$$
1:0
     RDKit          3D

 46 47  0  0  0  0  0  0  0  0999 V2000
   57.5090   32.3070   42.8020 C   0  0  0  0  0  0  0  0  0  0  0  0
   58.5260   32.9880   43.7180 C   0  0  0  0  0  0  0  0  0  0  0  0
   57.8700   33.9530   44.7180 C   0  0  0  0  0  0  0  0  0  0  0  0
   57.5190   33.2770   46.0500 C   0  0  0  0  0  0  0  0  0  0  0  0
   58.4180   32.1350   46.2890 N   0  0  0  0  0  0  0  0  0  0  0  0
   59.5940   32.3620   46.8870 N   0  0  0  0  0  0  0  0  0  0  0  0
   60.4800   31.3610   47.1270 C   0  0  0  0  0  0  0  0  0  0  0  0
   61.8020   31.6600   47.7720 C   0  0  0  0  0  0  0  0  0  0  0  0
   60.1840   30.0670   46.7050 C   0  0  0  0  0  0  0  0  0  0  0  0
   58.9650   29.7900   46.0590 C   0  0  0  0  0  0  0  0  0  0  0  0
   58.6290   28.3590   45.5830 C   0  0  1  0  0  0  0  0  0  0  0  0
   58.7710   28.2760   44.0460 C   0  0  0  0  0  0  0  0  0  0  0  0
   59.5680   27.3350   46.2780 C   0  0  0  0  0  0  0  0  0  0  0  0
   59.0710   25.9330   46.0850 C   0  0  0  0  0  0  0  0  0  0  0  0
   59.8890   24.9730   46.1140 O   0  0  0  0  0  0  0  0  0  0  0  0
   57.6610   25.6930   45.9290 N   0  0  0  0  0  0  0  0  0  0  0  0
   57.1450   24.3310   45.7690 C   0  0  0  0  0  0  0  0  0  0  0  0
   56.7680   26.8210   46.0350 C   0  0  0  0  0  0  0  0  0  0  0  0
   55.3810   26.6380   46.3350 N   0  0  0  0  0  0  0  0  0  0  0  0
   57.2320   28.0310   45.9130 N   0  0  0  0  0  0  0  0  0  0  0  0
   58.0810   30.8770   45.8540 C   0  0  0  0  0  0  0  0  0  0  0  0
   56.9800   30.6960   45.2630 O   0  0  0  0  0  0  0  0  0  0  0  0
   56.7487   31.7979   43.4126 H   0  0  0  0  0  0  0  0  0  0  0  0
   57.0235   33.0628   42.1671 H   0  0  0  0  0  0  0  0  0  0  0  0
   58.0230   31.5703   42.1671 H   0  0  0  0  0  0  0  0  0  0  0  0
   59.0676   32.2131   44.2802 H   0  0  0  0  0  0  0  0  0  0  0  0
   59.2033   33.5775   43.0826 H   0  0  0  0  0  0  0  0  0  0  0  0
   58.5663   34.7812   44.9164 H   0  0  0  0  0  0  0  0  0  0  0  0
   56.9313   34.3095   44.2688 H   0  0  0  0  0  0  0  0  0  0  0  0
   57.6293   34.0045   46.8677 H   0  0  0  0  0  0  0  0  0  0  0  0
   56.4807   32.9160   46.0086 H   0  0  0  0  0  0  0  0  0  0  0  0
   59.8470   33.3340   47.1780 H   0  0  0  0  0  0  0  0  0  0  0  0
   61.6903   31.6347   48.8660 H   0  0  0  0  0  0  0  0  0  0  0  0
   62.5404   30.9062   47.4613 H   0  0  0  0  0  0  0  0  0  0  0  0
   62.1441   32.6582   47.4613 H   0  0  0  0  0  0  0  0  0  0  0  0
   60.9076   29.2567   46.8778 H   0  0  0  0  0  0  0  0  0  0  0  0
   59.6950   27.7359   43.7918 H   0  0  0  0  0  0  0  0  0  0  0  0
   57.9063   27.7411   43.6262 H   0  0  0  0  0  0  0  0  0  0  0  0
   58.8128   29.2919   43.6262 H   0  0  0  0  0  0  0  0  0  0  0  0
   60.5765   27.4217   45.8473 H   0  0  0  0  0  0  0  0  0  0  0  0
   59.5892   27.5541   47.3557 H   0  0  0  0  0  0  0  0  0  0  0  0
   56.9758   23.8843   46.7599 H   0  0  0  0  0  0  0  0  0  0  0  0
   56.1960   24.3613   45.2135 H   0  0  0  0  0  0  0  0  0  0  0  0
   57.8758   23.7249   45.2135 H   0  0  0  0  0  0  0  0  0  0  0  0
   54.7460   27.4650   46.3940 H   0  0  0  0  0  0  0  0  0  0  0  0
   54.9850   25.6970   46.5510 H   0  0  0  0  0  0  0  0  0  0  0  0
  1  2  1  0
  2  3  1  0
  3  4  1  0
  4  5  1  0
  5  6  1  0
  6  7  2  0
  7  8  1  0
  7  9  1  0
  9 10  2  0
 10 11  1  0
 11 12  1  6
 11 13  1  0
 13 14  1  0
 14 15  2  0
 14 16  1  0
 16 17  1  0
 16 18  1  0
 18 19  1  0
 18 20  2  0
 10 21  1  0
 21 22  2  0
 21  5  1  0
 20 11  1  0
  1 23  1  0
  1 24  1  0
  1 25  1  0
  2 26  1  0
  2 27  1  0
  3 28  1  0
  3 29  1  0
  4 30  1  0
  4 31  1  0
  6 32  1  0
  8 33  1  0
  8 34  1  0
  8 35  1  0
  9 36  1  0
 12 37  1  0
 12 38  1  0
 12 39  1  0
 13 40  1  0
 13 41  1  0
 17 42  1  0
 17 43  1  0
 17 44  1  0
 19 45  1  0
 19 46  1  0
M  CHG  1   6   1
M  END
>  <UniqueID>  (2) 
2

>  <SMILES>  (2) 
CCCCn1[nH+]c(C)cc([C@@]2(C)CC(=O)N(C)C(N)=N2)c1=O

>  <Energy>  (2) 
45.38756329264298

>  <Genealogy>  (2) 
CCCCn1[nH+]c(C)cc(C2(C)CC(=O)N(C)C(N)=N2)c1=O (protonated)
CCCCn1[nH+]c(C)cc([C@@]2(C)CC(=O)N(C)C(N)=N2)c1=O (chirality)
CCCCn1[nH+]c(C)cc([C@@]2(C)CC(=O)N(C)C(N)=N2)c1=O (3D coordinates assigned)
CCCCn1[nH+]c(C)cc([C@@]2(C)CC(=O)N(C)C(N)=N2)c1=O (nonaromatic ring conformer: 45.38756329264298 kcal/mol)

>  <smiles>  (2) 
CCCCn1nc(C)cc(C2(C)CC(=O)N(C)C(N)=N2)c1=O

>  <score_type>  (2) 
oracle

>  <origin>  (2) 
adg

>  <m_score__min__energy>  (2) 
-6.6900000000000004

>  <m_primary>  (2) 
energy

$$$$
2:0
     RDKit          3D

 45 47  0  0  1  0  0  0  0  0999 V2000
   59.1800   29.2360   48.7100 C   0  0  0  0  0  0  0  0  0  0  0  0
   60.4660   28.4560   48.5450 C   0  0  0  0  0  0  0  0  0  0  0  0
   60.2130   26.9610   48.5830 C   0  0  0  0  0  0  0  0  0  0  0  0
   60.3700   26.3750   47.2680 N   0  0  0  0  0  0  0  0  0  0  0  0
   59.4640   26.4290   46.3490 C   0  0  0  0  0  0  0  0  0  0  0  0
   59.0270   27.6460   45.9810 N   0  0  0  0  0  0  0  0  0  0  0  0
   58.0830   27.7000   45.0220 C   0  0  0  0  0  0  0  0  0  0  0  0
   57.5640   28.9620   44.5730 N   0  0  0  0  0  0  0  0  0  0  0  0
   56.7520   29.1860   43.3680 C   0  0  0  0  0  0  0  0  0  0  0  0
   56.9380   30.6320   43.0170 C   0  0  0  0  0  0  0  0  0  0  0  0
   57.3050   31.2820   44.3230 C   0  0  0  0  0  0  0  0  0  0  0  0
   57.7670   30.2200   45.2530 C   0  0  0  0  0  0  0  0  0  0  0  0
   57.5990   26.5700   44.4580 N   0  0  0  0  0  0  0  0  0  0  0  0
   58.0280   25.3450   44.8170 C   0  0  0  0  0  0  0  0  0  0  0  0
   57.5340   24.1430   44.2380 N   0  0  0  0  0  0  0  0  0  0  0  0
   56.3560   24.2030   43.3660 C   0  0  0  0  0  0  0  0  0  0  0  0
   55.5100   23.0020   43.7110 C   0  0  0  0  0  0  0  0  0  0  0  0
   56.2690   21.8840   43.3860 O   0  0  0  0  0  0  0  0  0  0  0  0
   57.3480   21.6900   44.1970 C   0  0  0  0  0  0  0  0  0  0  0  0
   58.1780   22.8950   44.5040 C   0  0  0  0  0  0  0  0  0  0  0  0
   58.9790   25.2980   45.7830 N   0  0  0  0  0  0  0  0  0  0  0  0
   58.9651   29.3664   49.7809 H   0  0  0  0  0  0  0  0  0  0  0  0
   59.2858   30.2223   48.2345 H   0  0  0  0  0  0  0  0  0  0  0  0
   58.3542   28.6864   48.2345 H   0  0  0  0  0  0  0  0  0  0  0  0
   60.9223   28.7177   47.5789 H   0  0  0  0  0  0  0  0  0  0  0  0
   61.1383   28.7154   49.3761 H   0  0  0  0  0  0  0  0  0  0  0  0
   60.9294   26.4923   49.2737 H   0  0  0  0  0  0  0  0  0  0  0  0
   59.1812   26.7885   48.9229 H   0  0  0  0  0  0  0  0  0  0  0  0
   57.1004   28.5438   42.5457 H   0  0  0  0  0  0  0  0  0  0  0  0
   55.6932   28.9429   43.5407 H   0  0  0  0  0  0  0  0  0  0  0  0
   57.7450   30.7542   42.2796 H   0  0  0  0  0  0  0  0  0  0  0  0
   56.0397   31.0752   42.5625 H   0  0  0  0  0  0  0  0  0  0  0  0
   58.1109   32.0132   44.1621 H   0  0  0  0  0  0  0  0  0  0  0  0
   56.4353   31.8066   44.7453 H   0  0  0  0  0  0  0  0  0  0  0  0
   58.8329   30.3575   45.4873 H   0  0  0  0  0  0  0  0  0  0  0  0
   57.2115   30.2532   46.2019 H   0  0  0  0  0  0  0  0  0  0  0  0
   56.8680   26.6010   43.7140 H   0  0  0  0  0  0  0  0  0  0  0  0
   55.7934   25.1302   43.5496 H   0  0  0  0  0  0  0  0  0  0  0  0
   56.6444   24.1964   42.3045 H   0  0  0  0  0  0  0  0  0  0  0  0
   55.2703   23.0007   44.7846 H   0  0  0  0  0  0  0  0  0  0  0  0
   54.5576   23.0124   43.1607 H   0  0  0  0  0  0  0  0  0  0  0  0
   56.9800   21.2858   45.1516 H   0  0  0  0  0  0  0  0  0  0  0  0
   58.0126   21.0135   43.6397 H   0  0  0  0  0  0  0  0  0  0  0  0
   58.4436   22.8662   45.5711 H   0  0  0  0  0  0  0  0  0  0  0  0
   59.0542   22.8480   43.8407 H   0  0  0  0  0  0  0  0  0  0  0  0
  1  2  1  0
  2  3  1  0
  3  4  1  0
  4  5  2  0
  5  6  1  0
  6  7  2  0
  7  8  1  0
  8  9  1  0
  9 10  1  0
 10 11  1  0
 11 12  1  0
  7 13  1  0
 13 14  1  0
 14 15  1  0
 15 16  1  0
 16 17  1  0
 17 18  1  0
 18 19  1  0
 19 20  1  0
 14 21  2  0
 21  5  1  0
 12  8  1  0
 20 15  1  0
  1 22  1  0
  1 23  1  0
  1 24  1  0
  2 25  1  0
  2 26  1  0
  3 27  1  0
  3 28  1  0
  9 29  1  0
  9 30  1  0
 10 31  1  0
 10 32  1  0
 11 33  1  0
 11 34  1  0
 12 35  1  0
 12 36  1  0
 13 37  1  0
 16 38  1  0
 16 39  1  0
 17 40  1  0
 17 41  1  0
 19 42  1  0
 19 43  1  0
 20 44  1  0
 20 45  1  0
M  END
>  <smiles>  (3) 
CCCN=c1nc(N2CCCC2)[nH]c(N2CCOCC2)n1

>  <score_type>  (3) 
oracle

>  <origin>  (3) 
adg

>  <m_score__min__energy>  (3) 
-6.0599999999999996

>  <m_primary>  (3) 
energy

$$$$
3:0
     RDKit          3D

 77 79  0  0  0  0  0  0  0  0999 V2000
   57.4420   30.9200   51.3410 C   0  0  0  0  0  0  0  0  0  0  0  0
   58.3590   31.8150   50.5060 C   0  0  0  0  0  0  0  0  0  0  0  0
   59.6370   32.1490   51.1730 N   0  0  0  0  0  0  0  0  0  0  0  0
   59.7530   33.5600   51.6270 C   0  0  0  0  0  0  0  0  0  0  0  0
   58.5290   34.1050   52.3790 C   0  0  0  0  0  0  0  0  0  0  0  0
   60.1260   31.1050   52.1010 C   0  0  0  0  0  0  0  0  0  0  0  0
   61.2690   30.2960   51.4610 C   0  0  0  0  0  0  0  0  0  0  0  0
   61.1270   30.1380   50.0020 N   0  0  0  0  0  0  0  0  0  0  0  0
   60.5660   28.8450   49.5720 C   0  0  0  0  0  0  0  0  0  0  0  0
   59.5000   29.0110   48.4820 C   0  0  0  0  0  0  0  0  0  0  0  0
   60.0900   29.5830   47.2640 N   0  0  0  0  0  0  0  0  0  0  0  0
   59.4810   30.6770   46.5440 C   0  0  0  0  0  0  0  0  0  0  0  0
   58.4460   30.4030   45.6130 C   0  0  0  0  0  0  0  0  0  0  0  0
   58.0210   29.0790   45.3550 C   0  0  0  0  0  0  0  0  0  0  0  0
   57.0250   28.8090   44.4200 C   0  0  0  0  0  0  0  0  0  0  0  0
   56.4030   29.8510   43.7480 C   0  0  0  0  0  0  0  0  0  0  0  0
   56.7570   31.1690   44.0260 C   0  0  0  0  0  0  0  0  0  0  0  0
   57.7810   31.4750   44.9610 C   0  0  0  0  0  0  0  0  0  0  0  0
   58.0790   32.7780   45.2970 N   0  0  0  0  0  0  0  0  0  0  0  0
   57.5310   33.8980   44.4970 C   0  0  0  0  0  0  0  0  0  0  0  0
   58.8740   33.0410   46.3910 C   0  0  0  0  0  0  0  0  0  0  0  0
   58.8280   34.3010   47.0340 C   0  0  0  0  0  0  0  0  0  0  0  0
   59.6390   34.5760   48.1250 C   0  0  0  0  0  0  0  0  0  0  0  0
   60.5970   33.6600   48.5270 C   0  0  0  0  0  0  0  0  0  0  0  0
   60.7450   32.4320   47.8570 C   0  0  0  0  0  0  0  0  0  0  0  0
   61.9340   31.6320   48.1010 N   0  0  0  0  0  0  0  0  0  0  0  0
   63.0700   31.9160   47.1960 C   0  0  0  0  0  0  0  0  0  0  0  0
   63.7640   33.2730   47.4580 C   0  0  0  0  0  0  0  0  0  0  0  0
   64.4090   33.4060   48.8510 C   0  0  0  0  0  0  0  0  0  0  0  0
   63.5540   32.8540   49.9260 N   0  0  0  0  0  0  0  0  0  0  0  0
   63.1430   33.9070   50.8720 C   0  0  0  0  0  0  0  0  0  0  0  0
   64.2830   31.8000   50.6520 C   0  0  0  0  0  0  0  0  0  0  0  0
   59.7250   32.0300   46.9260 C   0  0  0  0  0  0  0  0  0  0  0  0
   57.6274   31.1009   52.4101 H   0  0  0  0  0  0  0  0  0  0  0  0
   56.3922   31.1504   51.1067 H   0  0  0  0  0  0  0  0  0  0  0  0
   57.6469   29.8649   51.1067 H   0  0  0  0  0  0  0  0  0  0  0  0
   58.5853   31.2958   49.5630 H   0  0  0  0  0  0  0  0  0  0  0  0
   57.8235   32.7626   50.3471 H   0  0  0  0  0  0  0  0  0  0  0  0
   60.6237   33.6325   52.2953 H   0  0  0  0  0  0  0  0  0  0  0  0
   59.8487   34.1684   50.7156 H   0  0  0  0  0  0  0  0  0  0  0  0
   58.7006   34.0286   53.4628 H   0  0  0  0  0  0  0  0  0  0  0  0
   58.3704   35.1588   52.1063 H   0  0  0  0  0  0  0  0  0  0  0  0
   57.6397   33.5178   52.1063 H   0  0  0  0  0  0  0  0  0  0  0  0
   60.4939   31.5836   53.0206 H   0  0  0  0  0  0  0  0  0  0  0  0
   59.2958   30.4209   52.3310 H   0  0  0  0  0  0  0  0  0  0  0  0
   62.2187   30.8120   51.6653 H   0  0  0  0  0  0  0  0  0  0  0  0
   61.2410   29.2885   51.9017 H   0  0  0  0  0  0  0  0  0  0  0  0
   60.5040   30.8990   49.6450 H   0  0  0  0  0  0  0  0  0  0  0  0
   61.3802   28.2185   49.1790 H   0  0  0  0  0  0  0  0  0  0  0  0
   60.0872   28.3771   50.4448 H   0  0  0  0  0  0  0  0  0  0  0  0
   59.0675   28.0274   48.2466 H   0  0  0  0  0  0  0  0  0  0  0  0
   58.7188   29.6919   48.8509 H   0  0  0  0  0  0  0  0  0  0  0  0
   60.8230   29.0240   46.7710 H   0  0  0  0  0  0  0  0  0  0  0  0
   58.4861   28.2466   45.9034 H   0  0  0  0  0  0  0  0  0  0  0  0
   56.7314   27.7691   44.2142 H   0  0  0  0  0  0  0  0  0  0  0  0
   55.6300   29.6363   42.9954 H   0  0  0  0  0  0  0  0  0  0  0  0
   56.2335   31.9884   43.5116 H   0  0  0  0  0  0  0  0  0  0  0  0
   57.1492   34.6783   45.1719 H   0  0  0  0  0  0  0  0  0  0  0  0
   58.3252   34.3184   43.8626 H   0  0  0  0  0  0  0  0  0  0  0  0
   56.7117   33.5289   43.8626 H   0  0  0  0  0  0  0  0  0  0  0  0
   58.1387   35.0738   46.6629 H   0  0  0  0  0  0  0  0  0  0  0  0
   59.5212   35.5231   48.6719 H   0  0  0  0  0  0  0  0  0  0  0  0
   61.2499   33.8956   49.3804 H   0  0  0  0  0  0  0  0  0  0  0  0
   61.7260   30.6280   47.9570 H   0  0  0  0  0  0  0  0  0  0  0  0
   62.2440   31.7800   49.0890 H   0  0  0  0  0  0  0  0  0  0  0  0
   63.8165   31.1173   47.3180 H   0  0  0  0  0  0  0  0  0  0  0  0
   62.6588   31.9623   46.1768 H   0  0  0  0  0  0  0  0  0  0  0  0
   64.5511   33.4074   46.7014 H   0  0  0  0  0  0  0  0  0  0  0  0
   62.9777   34.0404   47.4043 H   0  0  0  0  0  0  0  0  0  0  0  0
   65.3670   32.8653   48.8494 H   0  0  0  0  0  0  0  0  0  0  0  0
   64.5503   34.4780   49.0532 H   0  0  0  0  0  0  0  0  0  0  0  0
   63.2828   33.5489   51.9026 H   0  0  0  0  0  0  0  0  0  0  0  0
   63.7564   34.8055   50.7097 H   0  0  0  0  0  0  0  0  0  0  0  0
   62.0831   34.1524   50.7097 H   0  0  0  0  0  0  0  0  0  0  0  0
   64.1737   31.9580   51.7351 H   0  0  0  0  0  0  0  0  0  0  0  0
   63.8712   30.8165   50.3816 H   0  0  0  0  0  0  0  0  0  0  0  0
   65.3485   31.8383   50.3816 H   0  0  0  0  0  0  0  0  0  0  0  0
  1  2  1  0
  2  3  1  0
  3  4  1  0
  4  5  1  0
  3  6  1  0
  6  7  1  0
  7  8  1  0
  8  9  1  0
  9 10  1  0
 10 11  1  0
 11 12  1  0
 12 13  2  0
 13 14  1  0
 14 15  2  0
 15 16  1  0
 16 17  2  0
 17 18  1  0
 18 19  2  0
 19 20  1  0
 19 21  1  0
 21 22  2  0
 22 23  1  0
 23 24  2  0
 24 25  1  0
 25 26  1  0
 26 27  1  0
 27 28  1  0
 28 29  1  0
 29 30  1  0
 30 31  1  0
 30 32  1  0
 25 33  2  0
 33 12  1  0
 18 13  1  0
 33 21  1  0
  1 34  1  0
  1 35  1  0
  1 36  1  0
  2 37  1  0
  2 38  1  0
  4 39  1  0
  4 40  1  0
  5 41  1  0
  5 42  1  0
  5 43  1  0
  6 44  1  0
  6 45  1  0
  7 46  1  0
  7 47  1  0
  8 48  1  0
  9 49  1  0
  9 50  1  0
 10 51  1  0
 10 52  1  0
 11 53  1  0
 14 54  1  0
 15 55  1  0
 16 56  1  0
 17 57  1  0
 20 58  1  0
 20 59  1  0
 20 60  1  0
 22 61  1  0
 23 62  1  0
 24 63  1  0
 26 64  1  0
 26 65  1  0
 27 66  1  0
 27 67  1  0
 28 68  1  0
 28 69  1  0
 29 70  1  0
 29 71  1  0
 31 72  1  0
 31 73  1  0
 31 74  1  0
 32 75  1  0
 32 76  1  0
 32 77  1  0
M  CHG  2  19   1  26   1
M  END
>  <UniqueID>  (4) 
3

>  <SMILES>  (4) 
CCN(CC)CCNCCNc1c2ccccc2[n+](C)c2cccc([NH2+]CCCN(C)C)c12

>  <Energy>  (4) 
120.72022871068884

>  <Genealogy>  (4) 
CCN(CC)CCNCCNc1c2ccccc2[n+](C)c2cccc([NH2+]CCCN(C)C)c12 (protonated)
CCN(CC)CCNCCNc1c2ccccc2[n+](C)c2cccc([NH2+]CCCN(C)C)c12 (3D coordinates assigned)
CCN(CC)CCNCCNc1c2ccccc2[n+](C)c2cccc([NH2+]CCCN(C)C)c12 (optimized conformer: 120.72022871068884 kcal/mol)

>  <smiles>  (4) 
CCN(CC)CCNCCNc1c2ccccc2[n+](C)c2cccc(NCCCN(C)C)c12

>  <score_type>  (4) 
oracle

>  <origin>  (4) 
adg

>  <m_score__min__energy>  (4) 
-3.5600000000000001

>  <m_primary>  (4) 
energy

$$$$
4:0
     RDKit          3D

 29 29  0  0  0  0  0  0  0  0999 V2000
   55.8690   23.8030   46.6210 C   0  0  0  0  0  0  0  0  0  0  0  0
   56.6910   24.9820   46.3310 N   0  0  0  0  0  0  0  0  0  0  0  0
   58.1550   24.8840   46.3700 C   0  0  0  0  0  0  0  0  0  0  0  0
   56.0380   26.2310   46.0110 C   0  0  0  0  0  0  0  0  0  0  0  0
   54.7790   26.2900   45.9910 O   0  0  0  0  0  0  0  0  0  0  0  0
   56.8160   27.4640   45.6530 C   0  0  0  0  0  0  0  0  0  0  0  0
   55.8900   28.5170   45.2480 N   0  0  0  0  0  0  0  0  0  0  0  0
   56.7630   29.8120   44.4880 S   0  0  0  0  0  0  0  0  0  0  0  0
   55.9750   31.0840   44.6260 O   0  0  0  0  0  0  0  0  0  0  0  0
   56.9370   29.5170   43.0240 O   0  0  0  0  0  0  0  0  0  0  0  0
   58.3350   30.0240   45.2550 C   0  0  0  0  0  0  0  0  0  0  0  0
   58.5210   31.0440   46.1990 C   0  0  0  0  0  0  0  0  0  0  0  0
   59.7610   31.2050   46.8250 C   0  0  0  0  0  0  0  0  0  0  0  0
   60.8190   30.3470   46.5130 C   0  0  0  0  0  0  0  0  0  0  0  0
   60.6380   29.3240   45.5790 C   0  0  0  0  0  0  0  0  0  0  0  0
   59.3980   29.1600   44.9510 C   0  0  0  0  0  0  0  0  0  0  0  0
   55.7808   23.6764   47.7101 H   0  0  0  0  0  0  0  0  0  0  0  0
   54.8680   23.9377   46.1852 H   0  0  0  0  0  0  0  0  0  0  0  0
   56.3415   22.9104   46.1852 H   0  0  0  0  0  0  0  0  0  0  0  0
   58.4932   24.8614   47.4165 H   0  0  0  0  0  0  0  0  0  0  0  0
   58.4745   23.9625   45.8614 H   0  0  0  0  0  0  0  0  0  0  0  0
   58.5945   25.7547   45.8614 H   0  0  0  0  0  0  0  0  0  0  0  0
   57.3952   27.7995   46.5259 H   0  0  0  0  0  0  0  0  0  0  0  0
   57.5036   27.2387   44.8244 H   0  0  0  0  0  0  0  0  0  0  0  0
   57.6892   31.7194   46.4478 H   0  0  0  0  0  0  0  0  0  0  0  0
   59.9037   32.0076   47.5636 H   0  0  0  0  0  0  0  0  0  0  0  0
   61.7951   30.4772   47.0032 H   0  0  0  0  0  0  0  0  0  0  0  0
   61.4705   28.6470   45.3370 H   0  0  0  0  0  0  0  0  0  0  0  0
   59.2565   28.3523   44.2178 H   0  0  0  0  0  0  0  0  0  0  0  0
  1  2  1  0
  2  3  1  0
  2  4  1  0
  4  5  2  0
  4  6  1  0
  6  7  1  0
  7  8  1  0
  8  9  2  0
  8 10  2  0
  8 11  1  0
 11 12  2  0
 12 13  1  0
 13 14  2  0
 14 15  1  0
 15 16  2  0
 16 11  1  0
  1 17  1  0
  1 18  1  0
  1 19  1  0
  3 20  1  0
  3 21  1  0
  3 22  1  0
  6 23  1  0
  6 24  1  0
 12 25  1  0
 13 26  1  0
 14 27  1  0
 15 28  1  0
 16 29  1  0
M  CHG  1   7  -1
M  END
>  <UniqueID>  (5) 
4

>  <SMILES>  (5) 
CN(C)C(=O)C[N-]S(=O)(=O)c1ccccc1

>  <Energy>  (5) 
21.691326768355736

>  <Genealogy>  (5) 
CN(C)C(=O)C[N-]S(=O)(=O)c1ccccc1 (protonated)
CN(C)C(=O)C[N-]S(=O)(=O)c1ccccc1 (3D coordinates assigned)
CN(C)C(=O)C[N-]S(=O)(=O)c1ccccc1 (optimized conformer: 21.691326768355736 kcal/mol)

>  <smiles>  (5) 
CN(C)C(=O)CNS(=O)(=O)c1ccccc1

>  <score_type>  (5) 
oracle

>  <origin>  (5) 
adg

>  <m_score__min__energy>  (5) 
-8.1099999999999994

>  <m_primary>  (5) 
energy

$$$$
5:0
     RDKit          3D

 40 42  0  0  0  0  0  0  0  0999 V2000
   56.9940   21.4500   43.6470 C   0  0  0  0  0  0  0  0  0  0  0  0
   55.8170   22.1300   44.0250 O   0  0  0  0  0  0  0  0  0  0  0  0
   55.5710   21.9600   45.4090 C   0  0  0  0  0  0  0  0  0  0  0  0
   55.2300   23.2980   46.0740 C   0  0  0  0  0  0  0  0  0  0  0  0
   56.3450   24.2530   45.9370 N   0  0  0  0  0  0  0  0  0  0  0  0
   57.6230   23.7710   46.0030 C   0  0  0  0  0  0  0  0  0  0  0  0
   58.7150   24.6210   45.8560 C   0  0  0  0  0  0  0  0  0  0  0  0
   58.5050   25.9780   45.6320 C   0  0  0  0  0  0  0  0  0  0  0  0
   59.5660   26.8070   45.4850 N   0  0  0  0  0  0  0  0  0  0  0  0
   59.4100   28.1350   45.2600 C   0  0  0  0  0  0  0  0  0  0  0  0
   60.6430   28.9800   45.1010 C   0  0  0  0  0  0  0  0  0  0  0  0
   58.1490   28.6740   45.1830 N   0  0  0  0  0  0  0  0  0  0  0  0
   57.9720   30.0840   44.9530 C   0  0  0  0  0  0  0  0  0  0  0  0
   58.1310   30.9980   46.0060 C   0  0  0  0  0  0  0  0  0  0  0  0
   57.9560   32.3660   45.7820 C   0  0  0  0  0  0  0  0  0  0  0  0
   57.6190   32.8280   44.5060 C   0  0  0  0  0  0  0  0  0  0  0  0
   57.4540   31.9220   43.4540 C   0  0  0  0  0  0  0  0  0  0  0  0
   57.6290   30.5520   43.6760 C   0  0  0  0  0  0  0  0  0  0  0  0
   57.0450   27.8720   45.3220 C   0  0  0  0  0  0  0  0  0  0  0  0
   55.8900   28.3800   45.2470 O   0  0  0  0  0  0  0  0  0  0  0  0
   57.1970   26.4860   45.5520 C   0  0  0  0  0  0  0  0  0  0  0  0
   56.1110   25.5880   45.7060 C   0  0  0  0  0  0  0  0  0  0  0  0
   54.9250   26.0130   45.6310 O   0  0  0  0  0  0  0  0  0  0  0  0
   57.5405   21.1343   44.5479 H   0  0  0  0  0  0  0  0  0  0  0  0
   56.7303   20.5651   43.0492 H   0  0  0  0  0  0  0  0  0  0  0  0
   57.6289   22.1205   43.0492 H   0  0  0  0  0  0  0  0  0  0  0  0
   54.7274   21.2667   45.5420 H   0  0  0  0  0  0  0  0  0  0  0  0
   56.4794   21.5559   45.8796 H   0  0  0  0  0  0  0  0  0  0  0  0
   54.3337   23.7198   45.5957 H   0  0  0  0  0  0  0  0  0  0  0  0
   55.0475   23.1220   47.1444 H   0  0  0  0  0  0  0  0  0  0  0  0
   57.7900   22.6974   46.1745 H   0  0  0  0  0  0  0  0  0  0  0  0
   59.7384   24.2223   45.9166 H   0  0  0  0  0  0  0  0  0  0  0  0
   61.0342   29.2481   46.0935 H   0  0  0  0  0  0  0  0  0  0  0  0
   61.4062   28.4142   44.5466 H   0  0  0  0  0  0  0  0  0  0  0  0
   60.3908   29.8960   44.5466 H   0  0  0  0  0  0  0  0  0  0  0  0
   58.3942   30.6363   47.0109 H   0  0  0  0  0  0  0  0  0  0  0  0
   58.0833   33.0795   46.6094 H   0  0  0  0  0  0  0  0  0  0  0  0
   57.4836   33.9053   44.3297 H   0  0  0  0  0  0  0  0  0  0  0  0
   57.1864   32.2867   42.4513 H   0  0  0  0  0  0  0  0  0  0  0  0
   57.4974   29.8404   42.8476 H   0  0  0  0  0  0  0  0  0  0  0  0
  1  2  1  0
  2  3  1  0
  3  4  1  0
  4  5  1  0
  5  6  1  0
  6  7  2  0
  7  8  1  0
  8  9  1  0
  9 10  2  0
 10 11  1  0
 10 12  1  0
 12 13  1  0
 13 14  2  0
 14 15  1  0
 15 16  2  0
 16 17  1  0
 17 18  2  0
 12 19  1  0
 19 20  2  0
 19 21  1  0
 21 22  1  0
 22 23  2  0
 22  5  1  0
 21  8  2  0
 18 13  1  0
  1 24  1  0
  1 25  1  0
  1 26  1  0
  3 27  1  0
  3 28  1  0
  4 29  1  0
  4 30  1  0
  6 31  1  0
  7 32  1  0
 11 33  1  0
 11 34  1  0
 11 35  1  0
 14 36  1  0
 15 37  1  0
 16 38  1  0
 17 39  1  0
 18 40  1  0
M  END
>  <UniqueID>  (6) 
5

>  <SMILES>  (6) 
COCCn1ccc2nc(C)n(-c3ccccc3)c(=O)c2c1=O

>  <Energy>  (6) 
60.45272842250786

>  <Genealogy>  (6) 
COCCn1ccc2nc(C)n(-c3ccccc3)c(=O)c2c1=O (3D coordinates assigned)
COCCn1ccc2nc(C)n(-c3ccccc3)c(=O)c2c1=O (optimized conformer: 60.45272842250786 kcal/mol)

>  <smiles>  (6) 
COCCn1ccc2nc(C)n(-c3ccccc3)c(=O)c2c1=O

>  <score_type>  (6) 
oracle

>  <origin>  (6) 
adg

>  <m_score__min__energy>  (6) 
-7.6200000000000001

>  <m_primary>  (6) 
energy

$$$$
6:0
     RDKit          3D

 37 38  0  0  0  0  0  0  0  0999 V2000
   57.5120   32.0350   41.4540 C   0  0  0  0  0  0  0  0  0  0  0  0
   57.3890   31.7840   42.9200 C   0  0  0  0  0  0  0  0  0  0  0  0
   56.6290   30.8130   43.5430 C   0  0  0  0  0  0  0  0  0  0  0  0
   56.8450   30.8690   44.8720 N   0  0  0  0  0  0  0  0  0  0  0  0
   57.7130   31.8450   45.0960 N   0  0  0  0  0  0  0  0  0  0  0  0
   58.2390   32.1950   46.4140 C   0  0  0  0  0  0  0  0  0  0  0  0
   59.3620   31.2420   46.8500 C   0  0  0  0  0  0  0  0  0  0  0  0
   59.0120   29.8280   46.6360 N   0  0  0  0  0  0  0  0  0  0  0  0
   59.8080   29.1910   45.5740 C   0  0  0  0  0  0  0  0  0  0  0  0
   59.0200   28.0750   44.9520 C   0  0  0  0  0  0  0  0  0  0  0  0
   58.2970   28.1440   43.7740 C   0  0  0  0  0  0  0  0  0  0  0  0
   57.7640   26.9350   43.5260 N   0  0  0  0  0  0  0  0  0  0  0  0
   58.1280   26.0980   44.4850 N   0  0  0  0  0  0  0  0  0  0  0  0
   57.7250   24.6960   44.5410 C   0  0  0  0  0  0  0  0  0  0  0  0
   58.8920   26.7610   45.3820 C   0  0  0  0  0  0  0  0  0  0  0  0
   59.5600   26.1410   46.5740 C   0  0  0  0  0  0  0  0  0  0  0  0
   58.0890   32.4030   43.9290 C   0  0  0  0  0  0  0  0  0  0  0  0
   57.9905   33.0115   41.2881 H   0  0  0  0  0  0  0  0  0  0  0  0
   58.1246   31.2440   40.9967 H   0  0  0  0  0  0  0  0  0  0  0  0
   56.5116   32.0345   40.9967 H   0  0  0  0  0  0  0  0  0  0  0  0
   55.9553   30.1070   43.0354 H   0  0  0  0  0  0  0  0  0  0  0  0
   58.6356   33.2204   46.3786 H   0  0  0  0  0  0  0  0  0  0  0  0
   57.4189   32.1140   47.1426 H   0  0  0  0  0  0  0  0  0  0  0  0
   60.2673   31.4737   46.2697 H   0  0  0  0  0  0  0  0  0  0  0  0
   59.5263   31.3877   47.9279 H   0  0  0  0  0  0  0  0  0  0  0  0
   58.0060   29.8020   46.3460 H   0  0  0  0  0  0  0  0  0  0  0  0
   60.0551   29.9373   44.8046 H   0  0  0  0  0  0  0  0  0  0  0  0
   60.7347   28.7858   46.0064 H   0  0  0  0  0  0  0  0  0  0  0  0
   58.1782   29.0389   43.1454 H   0  0  0  0  0  0  0  0  0  0  0  0
   57.1610   26.6870   42.7080 H   0  0  0  0  0  0  0  0  0  0  0  0
   57.6348   24.3821   45.5914 H   0  0  0  0  0  0  0  0  0  0  0  0
   56.7551   24.5729   44.0369 H   0  0  0  0  0  0  0  0  0  0  0  0
   58.4815   24.0766   44.0369 H   0  0  0  0  0  0  0  0  0  0  0  0
   59.1194   26.5500   47.4952 H   0  0  0  0  0  0  0  0  0  0  0  0
   59.4142   25.0510   46.5503 H   0  0  0  0  0  0  0  0  0  0  0  0
   60.6362   26.3676   46.5503 H   0  0  0  0  0  0  0  0  0  0  0  0
   58.8254   33.2107   43.8051 H   0  0  0  0  0  0  0  0  0  0  0  0
  1  2  1  0
  2  3  1  0
  3  4  2  0
  4  5  1  0
  5  6  1  0
  6  7  1  0
  7  8  1  0
  8  9  1  0
  9 10  1  0
 10 11  1  0
 11 12  2  0
 12 13  1  0
 13 14  1  0
 13 15  1  0
 15 16  1  0
  5 17  1  0
 17  2  2  0
 15 10  2  0
  1 18  1  0
  1 19  1  0
  1 20  1  0
  3 21  1  0
  6 22  1  0
  6 23  1  0
  7 24  1  0
  7 25  1  0
  8 26  1  0
  9 27  1  0
  9 28  1  0
 11 29  1  0
 12 30  1  0
 14 31  1  0
 14 32  1  0
 14 33  1  0
 16 34  1  0
 16 35  1  0
 16 36  1  0
 17 37  1  0
M  CHG  1  12   1
M  END
>  <UniqueID>  (7) 
6

>  <SMILES>  (7) 
Cc1cnn(CCNCc2c[nH+]n(C)c2C)c1

>  <Energy>  (7) 
89.57156667678954

>  <Genealogy>  (7) 
Cc1cnn(CCNCc2c[nH+]n(C)c2C)c1 (protonated)
Cc1cnn(CCNCc2c[nH+]n(C)c2C)c1 (3D coordinates assigned)
Cc1cnn(CCNCc2c[nH+]n(C)c2C)c1 (optimized conformer: 89.57156667678954 kcal/mol)

>  <smiles>  (7) 
Cc1cnn(CCNCc2cnn(C)c2C)c1

>  <score_type>  (7) 
oracle

>  <origin>  (7) 
adg

>  <m_score__min__energy>  (7) 
-5.4100000000000001

>  <m_primary>  (7) 
energy

$$$$
7:0
     RDKit          3D

 75 78  0  0  0  0  0  0  0  0999 V2000
   58.4360   26.1410   46.6670 C   0  0  0  0  0  0  0  0  0  0  0  0
   59.5930   27.0400   46.8060 N   0  0  0  0  0  0  0  0  0  0  0  0
   60.8190   26.3370   46.3860 C   0  0  0  0  0  0  0  0  0  0  0  0
   59.7070   27.5330   48.1980 C   0  0  0  0  0  0  0  0  0  0  0  0
   59.9390   29.0480   48.2120 C   0  0  0  0  0  0  0  0  0  0  0  0
   60.2470   29.5380   46.8700 N   0  0  0  0  0  0  0  0  0  0  0  0
   59.5390   30.6460   46.2950 C   0  0  0  0  0  0  0  0  0  0  0  0
   58.5960   30.4060   45.2860 C   0  0  0  0  0  0  0  0  0  0  0  0
   58.3700   29.1040   44.7900 C   0  0  0  0  0  0  0  0  0  0  0  0
   57.3960   28.8710   43.8220 C   0  0  0  0  0  0  0  0  0  0  0  0
   56.6230   29.9210   43.3470 C   0  0  0  0  0  0  0  0  0  0  0  0
   56.8320   31.2160   43.8230 C   0  0  0  0  0  0  0  0  0  0  0  0
   57.8410   31.4900   44.7820 C   0  0  0  0  0  0  0  0  0  0  0  0
   58.0750   32.7650   45.2570 N   0  0  0  0  0  0  0  0  0  0  0  0
   57.4790   33.9360   44.5750 C   0  0  0  0  0  0  0  0  0  0  0  0
   58.8830   32.9420   46.3670 C   0  0  0  0  0  0  0  0  0  0  0  0
   58.9190   34.1790   47.0560 C   0  0  0  0  0  0  0  0  0  0  0  0
   59.7580   34.3540   48.1500 C   0  0  0  0  0  0  0  0  0  0  0  0
   60.5870   33.3220   48.5740 C   0  0  0  0  0  0  0  0  0  0  0  0
   61.4340   33.5640   49.6680 O   0  0  0  0  0  0  0  0  0  0  0  0
   62.5230   34.4880   49.7360 C   0  0  0  0  0  0  0  0  0  0  0  0
   63.6330   33.9710   50.6950 C   0  0  0  0  0  0  0  0  0  0  0  0
   64.4730   32.8380   50.1770 N   0  0  0  0  0  0  0  0  0  0  0  0
   64.1560   32.6110   48.7440 C   0  0  0  0  0  0  0  0  0  0  0  0
   64.1010   31.5930   50.9350 C   0  0  0  0  0  0  0  0  0  0  0  0
   65.0050   31.3580   52.1600 C   0  0  0  0  0  0  0  0  0  0  0  0
   66.4330   31.1340   51.7710 N   0  0  0  0  0  0  0  0  0  0  0  0
   66.6640   29.6820   51.5500 C   0  0  0  0  0  0  0  0  0  0  0  0
   67.3090   31.5660   52.8860 C   0  0  0  0  0  0  0  0  0  0  0  0
   66.7920   31.8830   50.5240 C   0  0  0  0  0  0  0  0  0  0  0  0
   65.9330   33.1490   50.3290 C   0  0  0  0  0  0  0  0  0  0  0  0
   60.5520   32.1110   47.8670 C   0  0  0  0  0  0  0  0  0  0  0  0
   59.6620   31.9010   46.8370 N   0  0  0  0  0  0  0  0  0  0  0  0
   58.0704   25.8569   47.6648 H   0  0  0  0  0  0  0  0  0  0  0  0
   57.6354   26.6563   46.1161 H   0  0  0  0  0  0  0  0  0  0  0  0
   58.7375   25.2379   46.1161 H   0  0  0  0  0  0  0  0  0  0  0  0
   61.3802   26.0152   47.2757 H   0  0  0  0  0  0  0  0  0  0  0  0
   60.5490   25.4565   45.7845 H   0  0  0  0  0  0  0  0  0  0  0  0
   61.4425   27.0148   45.7845 H   0  0  0  0  0  0  0  0  0  0  0  0
   58.7781   27.3037   48.7407 H   0  0  0  0  0  0  0  0  0  0  0  0
   60.5609   27.0372   48.6829 H   0  0  0  0  0  0  0  0  0  0  0  0
   59.0309   29.5486   48.5792 H   0  0  0  0  0  0  0  0  0  0  0  0
   60.7909   29.2683   48.8721 H   0  0  0  0  0  0  0  0  0  0  0  0
   60.9560   29.0510   46.2710 H   0  0  0  0  0  0  0  0  0  0  0  0
   58.9694   28.2645   45.1720 H   0  0  0  0  0  0  0  0  0  0  0  0
   57.2394   27.8538   43.4337 H   0  0  0  0  0  0  0  0  0  0  0  0
   55.8439   29.7321   42.5937 H   0  0  0  0  0  0  0  0  0  0  0  0
   56.2041   32.0379   43.4485 H   0  0  0  0  0  0  0  0  0  0  0  0
   57.1147   34.6518   45.3266 H   0  0  0  0  0  0  0  0  0  0  0  0
   58.2402   34.4205   43.9458 H   0  0  0  0  0  0  0  0  0  0  0  0
   56.6393   33.6057   43.9458 H   0  0  0  0  0  0  0  0  0  0  0  0
   58.2776   35.0080   46.7224 H   0  0  0  0  0  0  0  0  0  0  0  0
   59.7661   35.3157   48.6840 H   0  0  0  0  0  0  0  0  0  0  0  0
   62.9484   34.6174   48.7299 H   0  0  0  0  0  0  0  0  0  0  0  0
   62.1457   35.4469   50.1209 H   0  0  0  0  0  0  0  0  0  0  0  0
   64.3043   34.8133   50.9186 H   0  0  0  0  0  0  0  0  0  0  0  0
   63.1049   33.5722   51.5737 H   0  0  0  0  0  0  0  0  0  0  0  0
   63.2641   31.9723   48.6625 H   0  0  0  0  0  0  0  0  0  0  0  0
   63.9616   33.5765   48.2541 H   0  0  0  0  0  0  0  0  0  0  0  0
   65.0074   32.1160   48.2541 H   0  0  0  0  0  0  0  0  0  0  0  0
   63.0597   31.6859   51.2772 H   0  0  0  0  0  0  0  0  0  0  0  0
   64.2278   30.7369   50.2560 H   0  0  0  0  0  0  0  0  0  0  0  0
   64.9500   32.2395   52.8157 H   0  0  0  0  0  0  0  0  0  0  0  0
   64.6485   30.4542   52.6758 H   0  0  0  0  0  0  0  0  0  0  0  0
   66.7452   29.1717   52.5211 H   0  0  0  0  0  0  0  0  0  0  0  0
   65.8219   29.2589   50.9827 H   0  0  0  0  0  0  0  0  0  0  0  0
   67.5959   29.5411   50.9827 H   0  0  0  0  0  0  0  0  0  0  0  0
   66.8260   31.3278   53.8452 H   0  0  0  0  0  0  0  0  0  0  0  0
   68.2728   31.0399   52.8201 H   0  0  0  0  0  0  0  0  0  0  0  0
   67.4783   32.6509   52.8201 H   0  0  0  0  0  0  0  0  0  0  0  0
   67.8496   32.1796   50.5825 H   0  0  0  0  0  0  0  0  0  0  0  0
   66.6061   31.2172   49.6683 H   0  0  0  0  0  0  0  0  0  0  0  0
   66.0648   33.8024   51.2041 H   0  0  0  0  0  0  0  0  0  0  0  0
   66.2674   33.6390   49.4027 H   0  0  0  0  0  0  0  0  0  0  0  0
   61.2528   31.3090   48.1420 H   0  0  0  0  0  0  0  0  0  0  0  0
  1  2  1  0
  2  3  1  0
  2  4  1  0
  4  5  1  0
  5  6  1  0
  6  7  1  0
  7  8  2  0
  8  9  1  0
  9 10  2  0
 10 11  1  0
 11 12  2  0
 12 13  1  0
 13 14  2  0
 14 15  1  0
 14 16  1  0
 16 17  2  0
 17 18  1  0
 18 19  2  0
 19 20  1  0
 20 21  1  0
 21 22  1  0
 22 23  1  0
 23 24  1  0
 23 25  1  0
 25 26  1  0
 26 27  1  0
 27 28  1  0
 27 29  1  0
 27 30  1  0
 30 31  1  0
 19 32  1  0
 32 33  2  0
 33  7  1  0
 13  8  1  0
 33 16  1  0
 31 23  1  0
  1 34  1  0
  1 35  1  0
  1 36  1  0
  3 37  1  0
  3 38  1  0
  3 39  1  0
  4 40  1  0
  4 41  1  0
  5 42  1  0
  5 43  1  0
  6 44  1  0
  9 45  1  0
 10 46  1  0
 11 47  1  0
 12 48  1  0
 15 49  1  0
 15 50  1  0
 15 51  1  0
 17 52  1  0
 18 53  1  0
 21 54  1  0
 21 55  1  0
 22 56  1  0
 22 57  1  0
 24 58  1  0
 24 59  1  0
 24 60  1  0
 25 61  1  0
 25 62  1  0
 26 63  1  0
 26 64  1  0
 28 65  1  0
 28 66  1  0
 28 67  1  0
 29 68  1  0
 29 69  1  0
 29 70  1  0
 30 71  1  0
 30 72  1  0
 31 73  1  0
 31 74  1  0
 32 75  1  0
M  CHG  4  14   1  23   1  27   1  33   1
M  END
>  <UniqueID>  (8) 
7

>  <SMILES>  (8) 
CN(C)CCNc1c2ccccc2[n+](C)c2ccc(OCC[N+]3(C)CC[N+](C)(C)CC3)c[n+]12

>  <Energy>  (8) 
134.35631211139983

>  <Genealogy>  (8) 
CN(C)CCNc1c2ccccc2[n+](C)c2ccc(OCC[N+]3(C)CC[N+](C)(C)CC3)c[n+]12 (3D coordinates assigned)
CN(C)CCNc1c2ccccc2[n+](C)c2ccc(OCC[N+]3(C)CC[N+](C)(C)CC3)c[n+]12 (nonaromatic ring conformer: 134.35631211139983 kcal/mol)

>  <smiles>  (8) 
CN(C)CCNc1c2ccccc2[n+](C)c2ccc(OCC[N+]3(C)CC[N+](C)(C)CC3)c[n+]12

>  <score_type>  (8) 
oracle

>  <origin>  (8) 
adg

>  <m_score__min__energy>  (8) 
-2.46

>  <m_primary>  (8) 
energy

$$$$
8:0
     RDKit          3D

 61 62  0  0  0  0  0  0  0  0999 V2000
   57.4130   28.5600   44.1750 C   0  0  0  0  0  0  0  0  0  0  0  0
   56.9990   29.5800   45.2260 C   0  0  0  0  0  0  0  0  0  0  0  0
   56.7810   30.8950   44.5770 N   0  0  0  0  0  0  0  0  0  0  0  0
   56.6340   30.7830   43.1040 C   0  0  0  0  0  0  0  0  0  0  0  0
   57.4410   31.8200   42.3100 C   0  0  0  0  0  0  0  0  0  0  0  0
   57.7540   31.9120   45.0380 C   0  0  0  0  0  0  0  0  0  0  0  0
   57.0770   33.0920   45.7540 C   0  0  0  0  0  0  0  0  0  0  0  0
   57.9840   33.7120   46.6460 O   0  0  0  0  0  0  0  0  0  0  0  0
   58.8150   34.6570   45.9920 C   0  0  0  0  0  0  0  0  0  0  0  0
   60.2720   34.3330   46.2980 C   0  0  0  0  0  0  0  0  0  0  0  0
   60.3310   33.6150   47.5260 O   0  0  0  0  0  0  0  0  0  0  0  0
   60.0830   32.2470   47.6410 C   0  0  0  0  0  0  0  0  0  0  0  0
   59.4070   31.7830   48.7650 C   0  0  0  0  0  0  0  0  0  0  0  0
   59.0960   30.4180   48.9030 C   0  0  0  0  0  0  0  0  0  0  0  0
   58.4010   29.9490   50.0830 N   0  0  0  0  0  0  0  0  0  0  0  0
   59.0430   29.7190   51.3810 C   0  0  0  0  0  0  0  0  0  0  0  0
   58.0120   29.7300   52.5200 C   0  0  0  0  0  0  0  0  0  0  0  0
   56.6640   30.0390   51.9950 N   0  0  0  0  0  0  0  0  0  0  0  0
   56.4040   31.4880   52.0240 C   0  0  0  0  0  0  0  0  0  0  0  0
   55.6360   29.3390   52.7820 C   0  0  0  0  0  0  0  0  0  0  0  0
   59.4920   29.5270   47.8680 C   0  0  0  0  0  0  0  0  0  0  0  0
   59.1830   28.1490   47.8810 C   0  0  0  0  0  0  0  0  0  0  0  0
   59.6060   27.3170   46.8400 C   0  0  0  0  0  0  0  0  0  0  0  0
   60.3290   27.8410   45.7670 C   0  0  0  0  0  0  0  0  0  0  0  0
   60.6250   29.2020   45.7230 C   0  0  0  0  0  0  0  0  0  0  0  0
   60.2080   30.0480   46.7580 C   0  0  0  0  0  0  0  0  0  0  0  0
   60.4760   31.3770   46.6760 N   0  0  0  0  0  0  0  0  0  0  0  0
   57.7821   27.6507   44.6719 H   0  0  0  0  0  0  0  0  0  0  0  0
   56.5459   28.3083   43.5467 H   0  0  0  0  0  0  0  0  0  0  0  0
   58.2103   28.9838   43.5467 H   0  0  0  0  0  0  0  0  0  0  0  0
   56.0677   29.2508   45.7101 H   0  0  0  0  0  0  0  0  0  0  0  0
   57.7923   29.6707   45.9826 H   0  0  0  0  0  0  0  0  0  0  0  0
   56.9672   29.7799   42.7994 H   0  0  0  0  0  0  0  0  0  0  0  0
   55.5734   30.9671   42.8774 H   0  0  0  0  0  0  0  0  0  0  0  0
   57.9631   32.4909   43.0080 H   0  0  0  0  0  0  0  0  0  0  0  0
   58.1778   31.3044   41.6766 H   0  0  0  0  0  0  0  0  0  0  0  0
   56.7602   32.4076   41.6766 H   0  0  0  0  0  0  0  0  0  0  0  0
   58.4599   31.4350   45.7339 H   0  0  0  0  0  0  0  0  0  0  0  0
   58.2678   32.3097   44.1504 H   0  0  0  0  0  0  0  0  0  0  0  0
   56.7438   33.8270   45.0065 H   0  0  0  0  0  0  0  0  0  0  0  0
   56.2146   32.7167   46.3246 H   0  0  0  0  0  0  0  0  0  0  0  0
   58.6464   34.6071   44.9061 H   0  0  0  0  0  0  0  0  0  0  0  0
   58.5771   35.6701   46.3484 H   0  0  0  0  0  0  0  0  0  0  0  0
   60.6924   33.7178   45.4888 H   0  0  0  0  0  0  0  0  0  0  0  0
   60.8541   35.2629   46.3788 H   0  0  0  0  0  0  0  0  0  0  0  0
   59.1127   32.4908   49.5539 H   0  0  0  0  0  0  0  0  0  0  0  0
   57.3970   29.6710   50.0170 H   0  0  0  0  0  0  0  0  0  0  0  0
   59.5480   28.7419   51.3635 H   0  0  0  0  0  0  0  0  0  0  0  0
   59.7679   30.5269   51.5593 H   0  0  0  0  0  0  0  0  0  0  0  0
   57.9949   28.7416   53.0024 H   0  0  0  0  0  0  0  0  0  0  0  0
   58.2957   30.5029   53.2495 H   0  0  0  0  0  0  0  0  0  0  0  0
   56.3429   31.8287   53.0681 H   0  0  0  0  0  0  0  0  0  0  0  0
   57.2215   32.0175   51.5128 H   0  0  0  0  0  0  0  0  0  0  0  0
   55.4534   31.7003   51.5128 H   0  0  0  0  0  0  0  0  0  0  0  0
   55.8383   29.4767   53.8544 H   0  0  0  0  0  0  0  0  0  0  0  0
   54.6452   29.7509   52.5399 H   0  0  0  0  0  0  0  0  0  0  0  0
   55.6562   28.2662   52.5399 H   0  0  0  0  0  0  0  0  0  0  0  0
   58.6051   27.7271   48.7165 H   0  0  0  0  0  0  0  0  0  0  0  0
   59.3677   26.2434   46.8667 H   0  0  0  0  0  0  0  0  0  0  0  0
   60.6654   27.1790   44.9555 H   0  0  0  0  0  0  0  0  0  0  0  0
   61.1882   29.6132   44.8723 H   0  0  0  0  0  0  0  0  0  0  0  0
  1  2  1  0
  2  3  1  0
  3  4  1  0
  4  5  1  0
  3  6  1  0
  6  7  1  0
  7  8  1  0
  8  9  1  0
  9 10  1  0
 10 11  1  0
 11 12  1  0
 12 13  2  0
 13 14  1  0
 14 15  1  0
 15 16  1  0
 16 17  1  0
 17 18  1  0
 18 19  1  0
 18 20  1  0
 14 21  2  0
 21 22  1  0
 22 23  2  0
 23 24  1  0
 24 25  2  0
 25 26  1  0
 26 27  2  0
 27 12  1  0
 26 21  1  0
  1 28  1  0
  1 29  1  0
  1 30  1  0
  2 31  1  0
  2 32  1  0
  4 33  1  0
  4 34  1  0
  5 35  1  0
  5 36  1  0
  5 37  1  0
  6 38  1  0
  6 39  1  0
  7 40  1  0
  7 41  1  0
  9 42  1  0
  9 43  1  0
 10 44  1  0
 10 45  1  0
 13 46  1  0
 15 47  1  0
 16 48  1  0
 16 49  1  0
 17 50  1  0
 17 51  1  0
 19 52  1  0
 19 53  1  0
 19 54  1  0
 20 55  1  0
 20 56  1  0
 20 57  1  0
 22 58  1  0
 23 59  1  0
 24 60  1  0
 25 61  1  0
M  END
>  <UniqueID>  (9) 
8

>  <SMILES>  (9) 
CCN(CC)CCOCCOc1cc(NCCN(C)C)c2ccccc2n1

>  <Energy>  (9) 
64.14609068330849

>  <Genealogy>  (9) 
CCN(CC)CCOCCOc1cc(NCCN(C)C)c2ccccc2n1 (3D coordinates assigned)
CCN(CC)CCOCCOc1cc(NCCN(C)C)c2ccccc2n1 (optimized conformer: 64.14609068330849 kcal/mol)

>  <smiles>  (9) 
CCN(CC)CCOCCOc1cc(NCCN(C)C)c2ccccc2n1

>  <score_type>  (9) 
oracle

>  <origin>  (9) 
adg

>  <m_score__min__energy>  (9) 
-5.9699999999999998

>  <m_primary>  (9) 
energy

$$$$
9:0
     RDKit          3D

 76 79  0  0  0  0  0  0  0  0999 V2000
   65.2560   32.7310   49.8320 C   0  0  0  0  0  0  0  0  0  0  0  0
   64.0530   32.1670   49.0670 C   0  0  0  0  0  0  0  0  0  0  0  0
   64.1200   32.4530   47.6220 N   0  0  0  0  0  0  0  0  0  0  0  0
   62.8730   33.0560   47.1100 C   0  0  0  0  0  0  0  0  0  0  0  0
   62.1700   33.9190   48.1710 C   0  0  0  0  0  0  0  0  0  0  0  0
   60.8480   33.3890   48.5170 N   0  0  0  0  0  0  0  0  0  0  0  0
   60.1660   32.4220   47.7020 C   0  0  0  0  0  0  0  0  0  0  0  0
   59.3930   32.8310   46.6000 C   0  0  0  0  0  0  0  0  0  0  0  0
   59.1500   34.2000   46.3530 C   0  0  0  0  0  0  0  0  0  0  0  0
   58.3530   34.5980   45.2840 C   0  0  0  0  0  0  0  0  0  0  0  0
   57.7650   33.6460   44.4600 C   0  0  0  0  0  0  0  0  0  0  0  0
   57.9790   32.2890   44.6930 C   0  0  0  0  0  0  0  0  0  0  0  0
   58.8130   31.8490   45.7530 C   0  0  0  0  0  0  0  0  0  0  0  0
   59.0420   30.5070   45.9870 N   0  0  0  0  0  0  0  0  0  0  0  0
   58.6920   29.5030   44.9580 C   0  0  0  0  0  0  0  0  0  0  0  0
   59.6080   30.1040   47.1830 C   0  0  0  0  0  0  0  0  0  0  0  0
   59.6090   28.7470   47.5880 C   0  0  0  0  0  0  0  0  0  0  0  0
   60.2190   28.3470   48.7770 C   0  0  0  0  0  0  0  0  0  0  0  0
   60.8370   29.2770   49.6050 C   0  0  0  0  0  0  0  0  0  0  0  0
   61.4180   28.8210   50.7980 O   0  0  0  0  0  0  0  0  0  0  0  0
   61.0460   29.2550   52.1000 C   0  0  0  0  0  0  0  0  0  0  0  0
   62.0580   30.2740   52.6760 C   0  0  0  0  0  0  0  0  0  0  0  0
   61.4930   31.5280   53.2920 N   0  0  0  0  0  0  0  0  0  0  0  0
   62.4170   32.0670   54.3250 C   0  0  0  0  0  0  0  0  0  0  0  0
   61.2630   32.5820   52.2440 C   0  0  0  0  0  0  0  0  0  0  0  0
   59.8390   32.5400   51.6520 C   0  0  0  0  0  0  0  0  0  0  0  0
   58.7880   32.8040   52.6840 N   0  0  0  0  0  0  0  0  0  0  0  0
   57.5400   32.1080   52.2850 C   0  0  0  0  0  0  0  0  0  0  0  0
   58.4970   34.2590   52.7380 C   0  0  0  0  0  0  0  0  0  0  0  0
   59.2110   32.3410   54.0420 C   0  0  0  0  0  0  0  0  0  0  0  0
   60.2010   31.1610   53.9690 C   0  0  0  0  0  0  0  0  0  0  0  0
   60.8400   30.6300   49.2330 C   0  0  0  0  0  0  0  0  0  0  0  0
   60.2030   31.0590   48.0480 C   0  0  0  0  0  0  0  0  0  0  0  0
   65.0752   32.6462   50.9137 H   0  0  0  0  0  0  0  0  0  0  0  0
   66.1592   32.1625   49.5656 H   0  0  0  0  0  0  0  0  0  0  0  0
   65.3967   33.7889   49.5656 H   0  0  0  0  0  0  0  0  0  0  0  0
   64.0232   31.0768   49.2101 H   0  0  0  0  0  0  0  0  0  0  0  0
   63.1478   32.6509   49.4625 H   0  0  0  0  0  0  0  0  0  0  0  0
   64.9180   33.1140   47.4710 H   0  0  0  0  0  0  0  0  0  0  0  0
   64.3270   31.5650   47.1120 H   0  0  0  0  0  0  0  0  0  0  0  0
   63.1145   33.6874   46.2423 H   0  0  0  0  0  0  0  0  0  0  0  0
   62.1910   32.2391   46.8315 H   0  0  0  0  0  0  0  0  0  0  0  0
   62.7917   33.9443   49.0781 H   0  0  0  0  0  0  0  0  0  0  0  0
   62.0349   34.9284   47.7552 H   0  0  0  0  0  0  0  0  0  0  0  0
   60.4330   33.6540   49.4370 H   0  0  0  0  0  0  0  0  0  0  0  0
   59.5953   34.9595   47.0124 H   0  0  0  0  0  0  0  0  0  0  0  0
   58.1881   35.6683   45.0909 H   0  0  0  0  0  0  0  0  0  0  0  0
   57.1287   33.9647   43.6212 H   0  0  0  0  0  0  0  0  0  0  0  0
   57.4928   31.5459   44.0438 H   0  0  0  0  0  0  0  0  0  0  0  0
   58.3679   28.5732   45.4483 H   0  0  0  0  0  0  0  0  0  0  0  0
   57.8759   29.8904   44.3304 H   0  0  0  0  0  0  0  0  0  0  0  0
   59.5721   29.2991   44.3304 H   0  0  0  0  0  0  0  0  0  0  0  0
   59.1194   27.9940   46.9529 H   0  0  0  0  0  0  0  0  0  0  0  0
   60.2109   27.2847   49.0624 H   0  0  0  0  0  0  0  0  0  0  0  0
   60.0544   29.7283   52.0480 H   0  0  0  0  0  0  0  0  0  0  0  0
   61.0301   28.3767   52.7621 H   0  0  0  0  0  0  0  0  0  0  0  0
   62.6429   29.7581   53.4517 H   0  0  0  0  0  0  0  0  0  0  0  0
   62.6395   30.6196   51.8086 H   0  0  0  0  0  0  0  0  0  0  0  0
   62.0225   31.8369   55.3257 H   0  0  0  0  0  0  0  0  0  0  0  0
   63.4085   31.6056   54.2067 H   0  0  0  0  0  0  0  0  0  0  0  0
   62.5034   33.1572   54.2067 H   0  0  0  0  0  0  0  0  0  0  0  0
   61.4249   33.5704   52.6989 H   0  0  0  0  0  0  0  0  0  0  0  0
   61.9679   32.3891   51.4218 H   0  0  0  0  0  0  0  0  0  0  0  0
   59.7607   33.3033   50.8638 H   0  0  0  0  0  0  0  0  0  0  0  0
   59.6707   31.5299   51.2504 H   0  0  0  0  0  0  0  0  0  0  0  0
   56.9880   31.8001   53.1853 H   0  0  0  0  0  0  0  0  0  0  0  0
   56.9159   32.7883   51.6869 H   0  0  0  0  0  0  0  0  0  0  0  0
   57.7908   31.2195   51.6869 H   0  0  0  0  0  0  0  0  0  0  0  0
   58.4325   34.5813   53.7877 H   0  0  0  0  0  0  0  0  0  0  0  0
   59.3021   34.8129   52.2331 H   0  0  0  0  0  0  0  0  0  0  0  0
   57.5407   34.4607   52.2331 H   0  0  0  0  0  0  0  0  0  0  0  0
   59.6943   33.1777   54.5677 H   0  0  0  0  0  0  0  0  0  0  0  0
   58.3138   31.9984   54.5783 H   0  0  0  0  0  0  0  0  0  0  0  0
   60.4232   30.8243   54.9924 H   0  0  0  0  0  0  0  0  0  0  0  0
   59.7277   30.3667   53.3731 H   0  0  0  0  0  0  0  0  0  0  0  0
   61.3459   31.3672   49.8738 H   0  0  0  0  0  0  0  0  0  0  0  0
  1  2  1  0
  2  3  1  0
  3  4  1  0
  4  5  1  0
  5  6  1  0
  6  7  1  0
  7  8  2  0
  8  9  1  0
  9 10  2  0
 10 11  1  0
 11 12  2  0
 12 13  1  0
 13 14  2  0
 14 15  1  0
 14 16  1  0
 16 17  2  0
 17 18  1  0
 18 19  2  0
 19 20  1  0
 20 21  1  0
 21 22  1  0
 22 23  1  0
 23 24  1  0
 23 25  1  0
 25 26  1  0
 26 27  1  0
 27 28  1  0
 27 29  1  0
 27 30  1  0
 30 31  1  0
 19 32  1  0
 32 33  2  0
 33  7  1  0
 13  8  1  0
 33 16  1  0
 31 23  1  0
  1 34  1  0
  1 35  1  0
  1 36  1  0
  2 37  1  0
  2 38  1  0
  3 39  1  0
  3 40  1  0
  4 41  1  0
  4 42  1  0
  5 43  1  0
  5 44  1  0
  6 45  1  0
  9 46  1  0
 10 47  1  0
 11 48  1  0
 12 49  1  0
 15 50  1  0
 15 51  1  0
 15 52  1  0
 17 53  1  0
 18 54  1  0
 21 55  1  0
 21 56  1  0
 22 57  1  0
 22 58  1  0
 24 59  1  0
 24 60  1  0
 24 61  1  0
 25 62  1  0
 25 63  1  0
 26 64  1  0
 26 65  1  0
 28 66  1  0
 28 67  1  0
 28 68  1  0
 29 69  1  0
 29 70  1  0
 29 71  1  0
 30 72  1  0
 30 73  1  0
 31 74  1  0
 31 75  1  0
 32 76  1  0
M  CHG  4   3   1  14   1  23   1  27   1
M  END
>  <UniqueID>  (10) 
9

>  <SMILES>  (10) 
CC[NH2+]CCNc1c2ccccc2[n+](C)c2ccc(OCC[N+]3(C)CC[N+](C)(C)CC3)cc12

>  <Energy>  (10) 
127.74473084050337

>  <Genealogy>  (10) 
CC[NH2+]CCNc1c2ccccc2[n+](C)c2ccc(OCC[N+]3(C)CC[N+](C)(C)CC3)cc12 (protonated)
CC[NH2+]CCNc1c2ccccc2[n+](C)c2ccc(OCC[N+]3(C)CC[N+](C)(C)CC3)cc12 (3D coordinates assigned)
CC[NH2+]CCNc1c2ccccc2[n+](C)c2ccc(OCC[N+]3(C)CC[N+](C)(C)CC3)cc12 (nonaromatic ring conformer: 127.74473084050337 kcal/mol)

>  <smiles>  (10) 
CCNCCNc1c2ccccc2[n+](C)c2ccc(OCC[N+]3(C)CC[N+](C)(C)CC3)cc12

>  <score_type>  (10) 
oracle

>  <origin>  (10) 
adg

>  <m_score__min__energy>  (10) 
-2.46

>  <m_primary>  (10) 
energy

$$$$
10:0
     RDKit          3D

 51 52  0  0  0  0  0  0  0  0999 V2000
   57.4210   31.5900   43.3400 C   0  0  0  0  0  0  0  0  0  0  0  0
   56.9190   30.4040   44.0950 C   0  0  0  0  0  0  0  0  0  0  0  0
   55.6270   30.2180   44.4320 N   0  0  0  0  0  0  0  0  0  0  0  0
   55.5630   29.1000   45.0960 O   0  0  0  0  0  0  0  0  0  0  0  0
   56.7490   28.5460   45.2090 C   0  0  0  0  0  0  0  0  0  0  0  0
   57.0200   27.2740   45.9360 C   0  0  0  0  0  0  0  0  0  0  0  0
   57.6710   29.3420   44.5610 C   0  0  0  0  0  0  0  0  0  0  0  0
   59.1620   29.1650   44.4940 C   0  0  0  0  0  0  0  0  0  0  0  0
   59.8070   29.9150   45.5810 N   0  0  0  0  0  0  0  0  0  0  0  0
   60.0360   29.0700   46.7620 C   0  0  0  0  0  0  0  0  0  0  0  0
   60.7900   29.8200   47.8680 C   0  0  0  0  0  0  0  0  0  0  0  0
   60.9570   31.2370   47.5410 N   0  0  0  0  0  0  0  0  0  0  0  0
   61.9650   32.0380   48.1710 C   0  0  0  0  0  0  0  0  0  0  0  0
   62.8060   31.5000   48.9430 O   0  0  0  0  0  0  0  0  0  0  0  0
   62.0900   33.4990   47.8270 C   0  0  0  0  0  0  0  0  0  0  0  0
   61.5450   33.8650   46.4260 C   0  0  0  0  0  0  0  0  0  0  0  0
   60.1070   34.4450   46.3670 C   0  0  0  0  0  0  0  0  0  0  0  0
   59.2630   34.1730   47.6420 C   0  0  0  0  0  0  0  0  0  0  0  0
   58.2340   33.0590   47.4250 C   0  0  0  0  0  0  0  0  0  0  0  0
   57.2460   33.4070   46.2930 C   0  0  0  0  0  0  0  0  0  0  0  0
   57.8590   34.2920   45.1880 C   0  0  0  0  0  0  0  0  0  0  0  0
   59.3690   34.0680   45.0550 C   0  0  0  0  0  0  0  0  0  0  0  0
   57.7487   32.3643   44.0492 H   0  0  0  0  0  0  0  0  0  0  0  0
   58.2692   31.2897   42.7072 H   0  0  0  0  0  0  0  0  0  0  0  0
   56.6150   31.9899   42.7072 H   0  0  0  0  0  0  0  0  0  0  0  0
   56.9812   27.4559   47.0202 H   0  0  0  0  0  0  0  0  0  0  0  0
   56.2610   26.5264   45.6623 H   0  0  0  0  0  0  0  0  0  0  0  0
   58.0178   26.9007   45.6623 H   0  0  0  0  0  0  0  0  0  0  0  0
   59.4068   28.0972   44.5931 H   0  0  0  0  0  0  0  0  0  0  0  0
   59.5273   29.5437   43.5280 H   0  0  0  0  0  0  0  0  0  0  0  0
   60.7490   30.2210   45.2390 H   0  0  0  0  0  0  0  0  0  0  0  0
   59.0637   28.7397   47.1562 H   0  0  0  0  0  0  0  0  0  0  0  0
   60.6518   28.2128   46.4522 H   0  0  0  0  0  0  0  0  0  0  0  0
   60.2236   29.7347   48.8071 H   0  0  0  0  0  0  0  0  0  0  0  0
   61.7888   29.3703   47.9693 H   0  0  0  0  0  0  0  0  0  0  0  0
   60.3470   31.6780   46.8140 H   0  0  0  0  0  0  0  0  0  0  0  0
   61.5333   34.0798   48.5772 H   0  0  0  0  0  0  0  0  0  0  0  0
   63.1647   33.7336   47.8214 H   0  0  0  0  0  0  0  0  0  0  0  0
   62.2239   34.6121   45.9891 H   0  0  0  0  0  0  0  0  0  0  0  0
   61.4952   32.9128   45.8775 H   0  0  0  0  0  0  0  0  0  0  0  0
   60.2343   35.5374   46.3483 H   0  0  0  0  0  0  0  0  0  0  0  0
   59.9386   33.8777   48.4583 H   0  0  0  0  0  0  0  0  0  0  0  0
   58.7168   35.0951   47.8898 H   0  0  0  0  0  0  0  0  0  0  0  0
   58.7633   32.1309   47.1633 H   0  0  0  0  0  0  0  0  0  0  0  0
   57.6600   32.9367   48.3553 H   0  0  0  0  0  0  0  0  0  0  0  0
   56.8982   32.4695   45.8346 H   0  0  0  0  0  0  0  0  0  0  0  0
   56.4247   33.9808   46.7470 H   0  0  0  0  0  0  0  0  0  0  0  0
   57.3769   34.0502   44.2293 H   0  0  0  0  0  0  0  0  0  0  0  0
   57.6911   35.3447   45.4593 H   0  0  0  0  0  0  0  0  0  0  0  0
   59.5565   33.0079   44.8292 H   0  0  0  0  0  0  0  0  0  0  0  0
   59.7474   34.7085   44.2447 H   0  0  0  0  0  0  0  0  0  0  0  0
  1  2  1  0
  2  3  2  0
  3  4  1  0
  4  5  1  0
  5  6  1  0
  5  7  2  0
  7  8  1  0
  8  9  1  0
  9 10  1  0
 10 11  1  0
 11 12  1  0
 12 13  1  0
 13 14  2  0
 13 15  1  0
 15 16  1  0
 16 17  1  0
 17 18  1  0
 18 19  1  0
 19 20  1  0
 20 21  1  0
 21 22  1  0
  7  2  1  0
 22 17  1  0
  1 23  1  0
  1 24  1  0
  1 25  1  0
  6 26  1  0
  6 27  1  0
  6 28  1  0
  8 29  1  0
  8 30  1  0
  9 31  1  0
 10 32  1  0
 10 33  1  0
 11 34  1  0
 11 35  1  0
 12 36  1  0
 15 37  1  0
 15 38  1  0
 16 39  1  0
 16 40  1  0
 17 41  1  0
 18 42  1  0
 18 43  1  0
 19 44  1  0
 19 45  1  0
 20 46  1  0
 20 47  1  0
 21 48  1  0
 21 49  1  0
 22 50  1  0
 22 51  1  0
M  END
>  <UniqueID>  (11) 
10

>  <SMILES>  (11) 
Cc1noc(C)c1CNCCNC(=O)CCC1CCCCC1

>  <Energy>  (11) 
72.62905911140439

>  <Genealogy>  (11) 
Cc1noc(C)c1CNCCNC(=O)CCC1CCCCC1 (3D coordinates assigned)
Cc1noc(C)c1CNCCNC(=O)CCC1CCCCC1 (nonaromatic ring conformer: 72.62905911140439 kcal/mol)

>  <smiles>  (11) 
Cc1noc(C)c1CNCCNC(=O)CCC1CCCCC1

>  <score_type>  (11) 
oracle

>  <origin>  (11) 
adg

>  <m_score__min__energy>  (11) 
-7.9900000000000002

>  <m_primary>  (11) 
energy

$$$$
11:0
     RDKit          3D

 62 64  0  0  0  0  0  0  0  0999 V2000
   60.2100   29.6270   47.6080 C   0  0  0  0  0  0  0  0  0  0  0  0
   59.4160   29.4270   48.8950 C   0  0  0  0  0  0  0  0  0  0  0  0
   60.0770   30.1250   50.0170 N   0  0  0  0  0  0  0  0  0  0  0  0
   61.5430   30.0100   49.8960 C   0  0  0  0  0  0  0  0  0  0  0  0
   59.6300   29.5930   51.3250 C   0  0  0  0  0  0  0  0  0  0  0  0
   58.1130   29.7000   51.4500 C   0  0  0  0  0  0  0  0  0  0  0  0
   57.6710   30.8840   50.8040 O   0  0  0  0  0  0  0  0  0  0  0  0
   56.7680   31.6050   51.6220 C   0  0  0  0  0  0  0  0  0  0  0  0
   57.4500   32.0340   52.9230 C   0  0  0  0  0  0  0  0  0  0  0  0
   58.7980   32.3660   52.6550 O   0  0  0  0  0  0  0  0  0  0  0  0
   58.9440   33.7580   52.4310 C   0  0  0  0  0  0  0  0  0  0  0  0
   59.3400   34.0810   50.9770 C   0  0  0  0  0  0  0  0  0  0  0  0
   59.1840   32.8970   50.1200 N   0  0  0  0  0  0  0  0  0  0  0  0
   59.9600   33.0420   48.9160 C   0  0  0  0  0  0  0  0  0  0  0  0
   59.4820   33.1810   47.6130 C   0  0  0  0  0  0  0  0  0  0  0  0
   58.0490   33.2020   47.1620 C   0  0  0  0  0  0  0  0  0  0  0  0
   57.9080   32.5340   45.8210 C   0  0  0  0  0  0  0  0  0  0  0  0
   57.8910   33.3100   44.6460 C   0  0  0  0  0  0  0  0  0  0  0  0
   57.7590   32.6960   43.3960 C   0  0  0  0  0  0  0  0  0  0  0  0
   57.6230   31.3060   43.3130 C   0  0  0  0  0  0  0  0  0  0  0  0
   57.6270   30.5290   44.4790 C   0  0  0  0  0  0  0  0  0  0  0  0
   57.7760   31.1380   45.7280 C   0  0  0  0  0  0  0  0  0  0  0  0
   60.5230   33.3740   46.7650 N   0  0  0  0  0  0  0  0  0  0  0  0
   61.6040   33.3510   47.5760 C   0  0  0  0  0  0  0  0  0  0  0  0
   62.9260   33.5070   47.1690 C   0  0  0  0  0  0  0  0  0  0  0  0
   63.9250   33.4650   48.1540 C   0  0  0  0  0  0  0  0  0  0  0  0
   63.5810   33.2610   49.5050 C   0  0  0  0  0  0  0  0  0  0  0  0
   62.2340   33.1130   49.8590 C   0  0  0  0  0  0  0  0  0  0  0  0
   61.2990   33.1600   48.8730 N   0  0  0  0  0  0  0  0  0  0  0  0
   61.2494   29.8888   47.8553 H   0  0  0  0  0  0  0  0  0  0  0  0
   60.1960   28.6973   47.0203 H   0  0  0  0  0  0  0  0  0  0  0  0
   59.7572   30.4392   47.0203 H   0  0  0  0  0  0  0  0  0  0  0  0
   58.4017   29.8316   48.7626 H   0  0  0  0  0  0  0  0  0  0  0  0
   59.3653   28.3518   49.1216 H   0  0  0  0  0  0  0  0  0  0  0  0
   61.9921   29.9748   50.8995 H   0  0  0  0  0  0  0  0  0  0  0  0
   61.7947   29.0894   49.3491 H   0  0  0  0  0  0  0  0  0  0  0  0
   61.9352   30.8801   49.3491 H   0  0  0  0  0  0  0  0  0  0  0  0
   59.9273   28.5372   51.4081 H   0  0  0  0  0  0  0  0  0  0  0  0
   60.0975   30.1806   52.1288 H   0  0  0  0  0  0  0  0  0  0  0  0
   57.6428   28.8256   50.9763 H   0  0  0  0  0  0  0  0  0  0  0  0
   57.8325   29.7339   52.5131 H   0  0  0  0  0  0  0  0  0  0  0  0
   56.4244   32.4992   51.0813 H   0  0  0  0  0  0  0  0  0  0  0  0
   55.9128   30.9573   51.8651 H   0  0  0  0  0  0  0  0  0  0  0  0
   56.9311   32.9104   53.3385 H   0  0  0  0  0  0  0  0  0  0  0  0
   57.4105   31.2092   53.6498 H   0  0  0  0  0  0  0  0  0  0  0  0
   57.9881   34.2540   52.6552 H   0  0  0  0  0  0  0  0  0  0  0  0
   59.7498   34.1204   53.0863 H   0  0  0  0  0  0  0  0  0  0  0  0
   58.6957   34.8881   50.5982 H   0  0  0  0  0  0  0  0  0  0  0  0
   60.3945   34.3936   50.9591 H   0  0  0  0  0  0  0  0  0  0  0  0
   58.1800   32.7580   49.8780 H   0  0  0  0  0  0  0  0  0  0  0  0
   59.5010   32.0430   50.6330 H   0  0  0  0  0  0  0  0  0  0  0  0
   57.4299   32.6690   47.8987 H   0  0  0  0  0  0  0  0  0  0  0  0
   57.7191   34.2477   47.0747 H   0  0  0  0  0  0  0  0  0  0  0  0
   57.9820   34.4043   44.7114 H   0  0  0  0  0  0  0  0  0  0  0  0
   57.7621   33.3050   42.4799 H   0  0  0  0  0  0  0  0  0  0  0  0
   57.5128   30.8225   42.3311 H   0  0  0  0  0  0  0  0  0  0  0  0
   57.5126   29.4371   44.4111 H   0  0  0  0  0  0  0  0  0  0  0  0
   57.7900   30.5234   46.6402 H   0  0  0  0  0  0  0  0  0  0  0  0
   63.1796   33.6583   46.1094 H   0  0  0  0  0  0  0  0  0  0  0  0
   64.9802   33.5918   47.8702 H   0  0  0  0  0  0  0  0  0  0  0  0
   64.3645   33.2183   50.2759 H   0  0  0  0  0  0  0  0  0  0  0  0
   61.9400   32.9625   50.9082 H   0  0  0  0  0  0  0  0  0  0  0  0
  1  2  1  0
  2  3  1  0
  3  4  1  0
  3  5  1  0
  5  6  1  0
  6  7  1  0
  7  8  1  0
  8  9  1  0
  9 10  1  0
 10 11  1  0
 11 12  1  0
 12 13  1  0
 13 14  1  0
 14 15  2  0
 15 16  1  0
 16 17  1  0
 17 18  2  0
 18 19  1  0
 19 20  2  0
 20 21  1  0
 21 22  2  0
 15 23  1  0
 23 24  2  0
 24 25  1  0
 25 26  2  0
 26 27  1  0
 27 28  2  0
 28 29  1  0
 29 14  1  0
 22 17  1  0
 29 24  1  0
  1 30  1  0
  1 31  1  0
  1 32  1  0
  2 33  1  0
  2 34  1  0
  4 35  1  0
  4 36  1  0
  4 37  1  0
  5 38  1  0
  5 39  1  0
  6 40  1  0
  6 41  1  0
  8 42  1  0
  8 43  1  0
  9 44  1  0
  9 45  1  0
 11 46  1  0
 11 47  1  0
 12 48  1  0
 12 49  1  0
 13 50  1  0
 13 51  1  0
 16 52  1  0
 16 53  1  0
 18 54  1  0
 19 55  1  0
 20 56  1  0
 21 57  1  0
 22 58  1  0
 25 59  1  0
 26 60  1  0
 27 61  1  0
 28 62  1  0
M  CHG  1  13   1
M  END
>  <UniqueID>  (12) 
11

>  <SMILES>  (12) 
CCN(C)CCOCCOCC[NH2+]c1c(Cc2ccccc2)nc2ccccn12

>  <Energy>  (12) 
96.91478785325097

>  <Genealogy>  (12) 
CCN(C)CCOCCOCC[NH2+]c1c(Cc2ccccc2)nc2ccccn12 (protonated)
CCN(C)CCOCCOCC[NH2+]c1c(Cc2ccccc2)nc2ccccn12 (3D coordinates assigned)
CCN(C)CCOCCOCC[NH2+]c1c(Cc2ccccc2)nc2ccccn12 (optimized conformer: 96.91478785325097 kcal/mol)

>  <smiles>  (12) 
CCN(C)CCOCCOCCNc1c(Cc2ccccc2)nc2ccccn12

>  <score_type>  (12) 
oracle

>  <origin>  (12) 
adg

>  <m_score__min__energy>  (12) 
-4.6100000000000003

>  <m_primary>  (12) 
energy

$$$$
12:0
     RDKit          3D

 59 62  0  0  0  0  0  0  0  0999 V2000
   62.9720   29.0070   51.7860 C   0  0  0  0  0  0  0  0  0  0  0  0
   62.0440   30.2050   51.6020 C   0  0  0  0  0  0  0  0  0  0  0  0
   62.4840   31.0270   50.4550 N   0  0  0  0  0  0  0  0  0  0  0  0
   63.6850   31.6610   50.5730 C   0  0  0  0  0  0  0  0  0  0  0  0
   64.1810   32.4800   49.5580 C   0  0  0  0  0  0  0  0  0  0  0  0
   65.5620   33.0680   49.7210 C   0  0  0  0  0  0  0  0  0  0  0  0
   63.4000   32.6980   48.4020 C   0  0  0  0  0  0  0  0  0  0  0  0
   64.0670   33.3080   47.1890 C   0  0  0  0  0  0  0  0  0  0  0  0
   62.0540   32.2290   48.3910 C   0  0  0  0  0  0  0  0  0  0  0  0
   61.6820   31.2550   49.3570 C   0  0  0  0  0  0  0  0  0  0  0  0
   60.3840   30.4770   49.1630 C   0  0  0  0  0  0  0  0  0  0  0  0
   59.8070   30.6160   47.7710 C   0  0  0  0  0  0  0  0  0  0  0  0
   58.9060   29.5750   47.2050 C   0  0  0  0  0  0  0  0  0  0  0  0
   59.0420   28.2240   47.5690 C   0  0  0  0  0  0  0  0  0  0  0  0
   58.1870   27.2560   47.0400 C   0  0  0  0  0  0  0  0  0  0  0  0
   57.1720   27.6170   46.1360 C   0  0  0  0  0  0  0  0  0  0  0  0
   56.2940   26.6700   45.5840 O   0  0  0  0  0  0  0  0  0  0  0  0
   56.6410   25.3190   45.3010 C   0  0  0  0  0  0  0  0  0  0  0  0
   57.0190   28.9620   45.7690 C   0  0  0  0  0  0  0  0  0  0  0  0
   55.9950   29.2930   44.8680 O   0  0  0  0  0  0  0  0  0  0  0  0
   56.2060   29.7500   43.5360 C   0  0  0  0  0  0  0  0  0  0  0  0
   57.8850   29.9340   46.3070 C   0  0  0  0  0  0  0  0  0  0  0  0
   60.0770   31.6710   47.0630 N   0  0  0  0  0  0  0  0  0  0  0  0
   60.8830   32.7930   47.5520 C   0  0  0  0  0  0  0  0  0  0  0  0
   61.1690   33.7160   46.3630 C   0  0  0  0  0  0  0  0  0  0  0  0
   59.8620   34.4530   46.1120 C   0  0  0  0  0  0  0  0  0  0  0  0
   59.1850   34.5650   47.4730 C   0  0  0  0  0  0  0  0  0  0  0  0
   59.9950   33.6920   48.4310 C   0  0  0  0  0  0  0  0  0  0  0  0
   63.1184   28.8181   52.8597 H   0  0  0  0  0  0  0  0  0  0  0  0
   62.5231   28.1198   51.3154 H   0  0  0  0  0  0  0  0  0  0  0  0
   63.9432   29.2198   51.3154 H   0  0  0  0  0  0  0  0  0  0  0  0
   61.0206   29.8458   51.4189 H   0  0  0  0  0  0  0  0  0  0  0  0
   62.0715   30.8206   52.5132 H   0  0  0  0  0  0  0  0  0  0  0  0
   64.2770   31.5237   51.4899 H   0  0  0  0  0  0  0  0  0  0  0  0
   65.7944   33.1669   50.7916 H   0  0  0  0  0  0  0  0  0  0  0  0
   66.3007   32.4064   49.2451 H   0  0  0  0  0  0  0  0  0  0  0  0
   65.5970   34.0591   49.2451 H   0  0  0  0  0  0  0  0  0  0  0  0
   64.8423   34.0171   47.5147 H   0  0  0  0  0  0  0  0  0  0  0  0
   64.5280   32.5125   46.5851 H   0  0  0  0  0  0  0  0  0  0  0  0
   63.3157   33.8380   46.5851 H   0  0  0  0  0  0  0  0  0  0  0  0
   60.5830   29.4121   49.3541 H   0  0  0  0  0  0  0  0  0  0  0  0
   59.6463   30.8925   49.8652 H   0  0  0  0  0  0  0  0  0  0  0  0
   59.8295   27.9271   48.2773 H   0  0  0  0  0  0  0  0  0  0  0  0
   58.3080   26.2025   47.3324 H   0  0  0  0  0  0  0  0  0  0  0  0
   56.7817   24.7712   46.2445 H   0  0  0  0  0  0  0  0  0  0  0  0
   55.8348   24.8474   44.7199 H   0  0  0  0  0  0  0  0  0  0  0  0
   57.5747   25.2942   44.7199 H   0  0  0  0  0  0  0  0  0  0  0  0
   56.6670   30.7485   43.5596 H   0  0  0  0  0  0  0  0  0  0  0  0
   56.8724   29.0508   43.0097 H   0  0  0  0  0  0  0  0  0  0  0  0
   55.2416   29.8038   43.0097 H   0  0  0  0  0  0  0  0  0  0  0  0
   57.7609   30.9888   46.0207 H   0  0  0  0  0  0  0  0  0  0  0  0
   61.9720   34.4263   46.6095 H   0  0  0  0  0  0  0  0  0  0  0  0
   61.5039   33.1563   45.4772 H   0  0  0  0  0  0  0  0  0  0  0  0
   60.0587   35.4529   45.6978 H   0  0  0  0  0  0  0  0  0  0  0  0
   59.2291   33.9221   45.3857 H   0  0  0  0  0  0  0  0  0  0  0  0
   59.1892   35.6104   47.8151 H   0  0  0  0  0  0  0  0  0  0  0  0
   58.1361   34.2371   47.4248 H   0  0  0  0  0  0  0  0  0  0  0  0
   60.6181   34.3205   49.0843 H   0  0  0  0  0  0  0  0  0  0  0  0
   59.3375   33.0933   49.0785 H   0  0  0  0  0  0  0  0  0  0  0  0
  1  2  1  0
  2  3  1  0
  3  4  2  0
  4  5  1  0
  5  6  1  0
  5  7  2  0
  7  8  1  0
  7  9  1  0
  9 10  2  0
 10 11  1  0
 11 12  1  0
 12 13  1  0
 13 14  2  0
 14 15  1  0
 15 16  2  0
 16 17  1  0
 17 18  1  0
 16 19  1  0
 19 20  1  0
 20 21  1  0
 19 22  2  0
 12 23  2  0
 23 24  1  0
 24 25  1  0
 25 26  1  0
 26 27  1  0
 27 28  1  0
 10  3  1  0
 22 13  1  0
 28 24  1  0
 24  9  1  0
  1 29  1  0
  1 30  1  0
  1 31  1  0
  2 32  1  0
  2 33  1  0
  4 34  1  0
  6 35  1  0
  6 36  1  0
  6 37  1  0
  8 38  1  0
  8 39  1  0
  8 40  1  0
 11 41  1  0
 11 42  1  0
 14 43  1  0
 15 44  1  0
 18 45  1  0
 18 46  1  0
 18 47  1  0
 21 48  1  0
 21 49  1  0
 21 50  1  0
 22 51  1  0
 25 52  1  0
 25 53  1  0
 26 54  1  0
 26 55  1  0
 27 56  1  0
 27 57  1  0
 28 58  1  0
 28 59  1  0
M  CHG  1   3   1
M  END
>  <UniqueID>  (13) 
12

>  <SMILES>  (13) 
CC[n+]1cc(C)c(C)c2c1CC(c1ccc(OC)c(OC)c1)=NC21CCCC1

>  <Energy>  (13) 
90.37551313440181

>  <Genealogy>  (13) 
CC[n+]1cc(C)c(C)c2c1CC(c1ccc(OC)c(OC)c1)=NC21CCCC1 (3D coordinates assigned)
CC[n+]1cc(C)c(C)c2c1CC(c1ccc(OC)c(OC)c1)=NC21CCCC1 (nonaromatic ring conformer: 90.37551313440181 kcal/mol)

>  <smiles>  (13) 
CC[n+]1cc(C)c(C)c2c1CC(c1ccc(OC)c(OC)c1)=NC21CCCC1

>  <score_type>  (13) 
oracle

>  <origin>  (13) 
adg

>  <m_score__min__energy>  (13) 
-7.3700000000000001

>  <m_primary>  (13) 
energy

$$$$
13:0
     RDKit          3D

 42 45  0  0  0  0  0  0  0  0999 V2000
   63.5680   32.1050   49.3250 C   0  0  0  0  0  0  0  0  0  0  0  0
   63.2700   33.3570   48.6120 N   0  0  0  0  0  0  0  0  0  0  0  0
   62.0230   33.9810   49.1100 C   0  0  0  0  0  0  0  0  0  0  0  0
   60.7670   33.4250   48.4250 C   0  0  0  0  0  0  0  0  0  0  0  0
   60.9180   33.4390   46.9670 N   0  0  0  0  0  0  0  0  0  0  0  0
   59.7420   33.4130   46.1510 C   0  0  0  0  0  0  0  0  0  0  0  0
   59.2290   34.5780   45.6510 N   0  0  0  0  0  0  0  0  0  0  0  0
   58.0890   34.6020   44.8910 C   0  0  0  0  0  0  0  0  0  0  0  0
   57.3980   33.4160   44.6000 C   0  0  0  0  0  0  0  0  0  0  0  0
   57.9150   32.2240   45.1100 C   0  0  0  0  0  0  0  0  0  0  0  0
   59.0720   32.2180   45.8610 C   0  0  0  0  0  0  0  0  0  0  0  0
   59.3410   30.8910   46.1440 C   0  0  0  0  0  0  0  0  0  0  0  0
   60.4020   30.2720   46.8070 C   0  0  0  0  0  0  0  0  0  0  0  0
   60.4030   28.8690   46.8860 C   0  0  0  0  0  0  0  0  0  0  0  0
   59.3650   28.1170   46.2970 C   0  0  0  0  0  0  0  0  0  0  0  0
   59.3940   26.3660   46.3970 Cl  0  0  0  0  0  0  0  0  0  0  0  0
   58.3140   28.7610   45.6190 C   0  0  0  0  0  0  0  0  0  0  0  0
   58.3230   30.1580   45.5610 C   0  0  0  0  0  0  0  0  0  0  0  0
   57.4310   30.9680   44.9390 N   0  0  0  0  0  0  0  0  0  0  0  0
   56.2760   30.5640   44.1370 C   0  0  0  0  0  0  0  0  0  0  0  0
   62.1920   33.8400   46.3730 C   0  0  0  0  0  0  0  0  0  0  0  0
   63.3440   33.1760   47.1370 C   0  0  0  0  0  0  0  0  0  0  0  0
   63.5259   32.2819   50.4099 H   0  0  0  0  0  0  0  0  0  0  0  0
   62.8267   31.3406   49.0491 H   0  0  0  0  0  0  0  0  0  0  0  0
   64.5742   31.7565   49.0491 H   0  0  0  0  0  0  0  0  0  0  0  0
   61.9448   33.7963   50.1916 H   0  0  0  0  0  0  0  0  0  0  0  0
   62.0763   35.0561   48.8834 H   0  0  0  0  0  0  0  0  0  0  0  0
   60.6018   32.3904   48.7602 H   0  0  0  0  0  0  0  0  0  0  0  0
   59.9090   34.0578   48.6960 H   0  0  0  0  0  0  0  0  0  0  0  0
   59.7120   35.4810   45.8580 H   0  0  0  0  0  0  0  0  0  0  0  0
   57.7118   35.5606   44.5052 H   0  0  0  0  0  0  0  0  0  0  0  0
   56.4816   33.4253   43.9917 H   0  0  0  0  0  0  0  0  0  0  0  0
   61.2133   30.8649   47.2544 H   0  0  0  0  0  0  0  0  0  0  0  0
   61.2200   28.3529   47.4115 H   0  0  0  0  0  0  0  0  0  0  0  0
   57.5070   28.1812   45.1473 H   0  0  0  0  0  0  0  0  0  0  0  0
   55.4499   30.2750   44.8034 H   0  0  0  0  0  0  0  0  0  0  0  0
   55.9583   31.4044   43.5023 H   0  0  0  0  0  0  0  0  0  0  0  0
   56.5514   29.7088   43.5023 H   0  0  0  0  0  0  0  0  0  0  0  0
   62.2208   33.5246   45.3196 H   0  0  0  0  0  0  0  0  0  0  0  0
   62.2956   34.9336   46.4314 H   0  0  0  0  0  0  0  0  0  0  0  0
   63.3289   32.0980   46.9188 H   0  0  0  0  0  0  0  0  0  0  0  0
   64.2725   33.6608   46.8011 H   0  0  0  0  0  0  0  0  0  0  0  0
  1  2  1  0
  2  3  1  0
  3  4  1  0
  4  5  1  0
  5  6  1  0
  6  7  2  0
  7  8  1  0
  8  9  2  0
  9 10  1  0
 10 11  2  0
 11 12  1  0
 12 13  2  0
 13 14  1  0
 14 15  2  0
 15 16  1  0
 15 17  1  0
 17 18  2  0
 18 19  1  0
 19 20  1  0
  5 21  1  0
 21 22  1  0
 22  2  1  0
 11  6  1  0
 18 12  1  0
 19 10  1  0
  1 23  1  0
  1 24  1  0
  1 25  1  0
  3 26  1  0
  3 27  1  0
  4 28  1  0
  4 29  1  0
  7 30  1  0
  8 31  1  0
  9 32  1  0
 13 33  1  0
 14 34  1  0
 17 35  1  0
 20 36  1  0
 20 37  1  0
 20 38  1  0
 21 39  1  0
 21 40  1  0
 22 41  1  0
 22 42  1  0
M  CHG  1   7   1
M  END
>  <UniqueID>  (14) 
13

>  <SMILES>  (14) 
CN1CCN(c2[nH+]ccc3c2c2ccc(Cl)cc2n3C)CC1

>  <Energy>  (14) 
99.52705133564007

>  <Genealogy>  (14) 
CN1CCN(c2[nH+]ccc3c2c2ccc(Cl)cc2n3C)CC1 (protonated)
CN1CCN(c2[nH+]ccc3c2c2ccc(Cl)cc2n3C)CC1 (3D coordinates assigned)
CN1CCN(c2[nH+]ccc3c2c2ccc(Cl)cc2n3C)CC1 (nonaromatic ring conformer: 99.52705133564007 kcal/mol)

>  <smiles>  (14) 
CN1CCN(c2nccc3c2c2ccc(Cl)cc2n3C)CC1

>  <score_type>  (14) 
oracle

>  <origin>  (14) 
adg

>  <m_score__min__energy>  (14) 
-6.0300000000000002

>  <m_primary>  (14) 
energy

$$$$
14:0
     RDKit          3D

 75 79  0  0  0  0  0  0  0  0999 V2000
   58.3690   28.0830   44.3670 C   0  0  0  0  0  0  0  0  0  0  0  0
   57.4000   27.8600   45.5240 C   0  0  0  0  0  0  0  0  0  0  0  0
   57.7160   26.5850   46.2160 N   0  0  0  0  0  0  0  0  0  0  0  0
   56.7130   25.5530   45.8580 C   0  0  0  0  0  0  0  0  0  0  0  0
   57.1670   24.7450   44.6480 C   0  0  0  0  0  0  0  0  0  0  0  0
   59.0850   26.1210   45.8790 C   0  0  0  0  0  0  0  0  0  0  0  0
   60.0730   26.3670   47.0380 C   0  0  0  0  0  0  0  0  0  0  0  0
   59.4410   27.0090   48.1960 N   0  0  0  0  0  0  0  0  0  0  0  0
   60.0830   28.0140   49.0020 C   0  0  0  0  0  0  0  0  0  0  0  0
   60.8120   27.6360   50.1470 C   0  0  0  0  0  0  0  0  0  0  0  0
   60.9370   26.2750   50.5060 C   0  0  0  0  0  0  0  0  0  0  0  0
   61.6610   25.8980   51.6340 C   0  0  0  0  0  0  0  0  0  0  0  0
   62.2740   26.8640   52.4220 C   0  0  0  0  0  0  0  0  0  0  0  0
   62.1520   28.2140   52.1010 C   0  0  0  0  0  0  0  0  0  0  0  0
   61.4030   28.6340   50.9710 C   0  0  0  0  0  0  0  0  0  0  0  0
   61.2280   29.9720   50.6770 N   0  0  0  0  0  0  0  0  0  0  0  0
   61.7340   31.0100   51.6010 C   0  0  0  0  0  0  0  0  0  0  0  0
   60.6000   30.3520   49.5140 C   0  0  0  0  0  0  0  0  0  0  0  0
   60.5210   31.6790   49.1780 N   0  0  0  0  0  0  0  0  0  0  0  0
   59.9220   32.0610   48.0280 C   0  0  0  0  0  0  0  0  0  0  0  0
   59.3840   31.1500   47.1610 C   0  0  0  0  0  0  0  0  0  0  0  0
   59.4390   29.7900   47.4210 C   0  0  0  0  0  0  0  0  0  0  0  0
   60.0290   29.3720   48.6400 C   0  0  0  0  0  0  0  0  0  0  0  0
   58.8140   31.8820   46.1450 C   0  0  0  0  0  0  0  0  0  0  0  0
   58.0780   31.4950   45.0270 C   0  0  0  0  0  0  0  0  0  0  0  0
   57.5670   32.5090   44.1980 C   0  0  0  0  0  0  0  0  0  0  0  0
   57.7940   33.8690   44.5030 C   0  0  0  0  0  0  0  0  0  0  0  0
   58.5340   34.2350   45.6420 C   0  0  0  0  0  0  0  0  0  0  0  0
   59.0400   33.2140   46.4520 C   0  0  0  0  0  0  0  0  0  0  0  0
   59.7420   33.3320   47.6060 N   0  0  0  0  0  0  0  0  0  0  0  0
   60.1170   34.5500   48.3250 C   0  0  0  0  0  0  0  0  0  0  0  0
   61.5520   34.4290   48.8490 C   0  0  0  0  0  0  0  0  0  0  0  0
   62.4960   33.8450   47.7910 C   0  0  0  0  0  0  0  0  0  0  0  0
   63.1190   32.5900   48.2710 N   0  0  0  0  0  0  0  0  0  0  0  0
   63.4000   31.6920   47.1400 C   0  0  0  0  0  0  0  0  0  0  0  0
   64.3690   32.8650   49.0020 C   0  0  0  0  0  0  0  0  0  0  0  0
   59.3684   28.3130   44.7649 H   0  0  0  0  0  0  0  0  0  0  0  0
   58.4201   27.1731   43.7509 H   0  0  0  0  0  0  0  0  0  0  0  0
   58.0172   28.9237   43.7509 H   0  0  0  0  0  0  0  0  0  0  0  0
   57.4876   28.6926   46.2375 H   0  0  0  0  0  0  0  0  0  0  0  0
   56.3742   27.8110   45.1300 H   0  0  0  0  0  0  0  0  0  0  0  0
   56.5750   24.8741   46.7124 H   0  0  0  0  0  0  0  0  0  0  0  0
   55.7672   26.0560   45.6081 H   0  0  0  0  0  0  0  0  0  0  0  0
   57.6795   23.8328   44.9875 H   0  0  0  0  0  0  0  0  0  0  0  0
   56.2916   24.4696   44.0416 H   0  0  0  0  0  0  0  0  0  0  0  0
   57.8576   25.3495   44.0416 H   0  0  0  0  0  0  0  0  0  0  0  0
   59.0525   25.0433   45.6611 H   0  0  0  0  0  0  0  0  0  0  0  0
   59.4341   26.6899   45.0046 H   0  0  0  0  0  0  0  0  0  0  0  0
   60.4897   25.4000   47.3561 H   0  0  0  0  0  0  0  0  0  0  0  0
   60.8554   27.0461   46.6683 H   0  0  0  0  0  0  0  0  0  0  0  0
   58.4210   26.8380   48.3490 H   0  0  0  0  0  0  0  0  0  0  0  0
   60.4562   25.5036   49.8865 H   0  0  0  0  0  0  0  0  0  0  0  0
   61.7476   24.8345   51.9014 H   0  0  0  0  0  0  0  0  0  0  0  0
   62.8584   26.5615   53.3035 H   0  0  0  0  0  0  0  0  0  0  0  0
   62.6444   28.9671   52.7338 H   0  0  0  0  0  0  0  0  0  0  0  0
   61.5755   30.6849   52.6398 H   0  0  0  0  0  0  0  0  0  0  0  0
   62.8087   31.1650   51.4252 H   0  0  0  0  0  0  0  0  0  0  0  0
   61.1941   31.9521   51.4252 H   0  0  0  0  0  0  0  0  0  0  0  0
   59.0376   29.0583   46.7043 H   0  0  0  0  0  0  0  0  0  0  0  0
   57.9028   30.4329   44.8008 H   0  0  0  0  0  0  0  0  0  0  0  0
   56.9852   32.2406   43.3039 H   0  0  0  0  0  0  0  0  0  0  0  0
   57.3881   34.6500   43.8433 H   0  0  0  0  0  0  0  0  0  0  0  0
   58.7093   35.2927   45.8879 H   0  0  0  0  0  0  0  0  0  0  0  0
   60.0495   35.4107   47.6433 H   0  0  0  0  0  0  0  0  0  0  0  0
   59.4333   34.6924   49.1748 H   0  0  0  0  0  0  0  0  0  0  0  0
   61.9122   35.4282   49.1352 H   0  0  0  0  0  0  0  0  0  0  0  0
   61.5446   33.7493   49.7138 H   0  0  0  0  0  0  0  0  0  0  0  0
   61.9242   33.6354   46.8750 H   0  0  0  0  0  0  0  0  0  0  0  0
   63.2921   34.5768   47.5891 H   0  0  0  0  0  0  0  0  0  0  0  0
   63.7081   30.7073   47.5214 H   0  0  0  0  0  0  0  0  0  0  0  0
   62.4938   31.5804   46.5265 H   0  0  0  0  0  0  0  0  0  0  0  0
   64.2081   32.1169   46.5265 H   0  0  0  0  0  0  0  0  0  0  0  0
   64.1776   32.8229   50.0844 H   0  0  0  0  0  0  0  0  0  0  0  0
   65.1241   32.1115   48.7336 H   0  0  0  0  0  0  0  0  0  0  0  0
   64.7382   33.8658   48.7336 H   0  0  0  0  0  0  0  0  0  0  0  0
  1  2  1  0
  2  3  1  0
  3  4  1  0
  4  5  1  0
  3  6  1  0
  6  7  1  0
  7  8  1  0
  8  9  1  0
  9 10  2  0
 10 11  1  0
 11 12  2  0
 12 13  1  0
 13 14  2  0
 14 15  1  0
 15 16  2  0
 16 17  1  0
 16 18  1  0
 18 19  2  0
 19 20  1  0
 20 21  2  0
 21 22  1  0
 22 23  2  0
 21 24  1  0
 24 25  2  0
 25 26  1  0
 26 27  2  0
 27 28  1  0
 28 29  2  0
 29 30  1  0
 30 31  1  0
 31 32  1  0
 32 33  1  0
 33 34  1  0
 34 35  1  0
 34 36  1  0
 23  9  1  0
 29 24  1  0
 15 10  1  0
 23 18  1  0
 30 20  1  0
  1 37  1  0
  1 38  1  0
  1 39  1  0
  2 40  1  0
  2 41  1  0
  4 42  1  0
  4 43  1  0
  5 44  1  0
  5 45  1  0
  5 46  1  0
  6 47  1  0
  6 48  1  0
  7 49  1  0
  7 50  1  0
  8 51  1  0
 11 52  1  0
 12 53  1  0
 13 54  1  0
 14 55  1  0
 17 56  1  0
 17 57  1  0
 17 58  1  0
 22 59  1  0
 25 60  1  0
 26 61  1  0
 27 62  1  0
 28 63  1  0
 31 64  1  0
 31 65  1  0
 32 66  1  0
 32 67  1  0
 33 68  1  0
 33 69  1  0
 35 70  1  0
 35 71  1  0
 35 72  1  0
 36 73  1  0
 36 74  1  0
 36 75  1  0
M  CHG  1  16   1
M  END
>  <UniqueID>  (15) 
14

>  <SMILES>  (15) 
CCN(CC)CCNc1c2ccccc2[n+](C)c2nc3c(cc12)c1ccccc1n3CCCN(C)C

>  <Energy>  (15) 
133.24498728398737

>  <Genealogy>  (15) 
CCN(CC)CCNc1c2ccccc2[n+](C)c2nc3c(cc12)c1ccccc1n3CCCN(C)C (3D coordinates assigned)
CCN(CC)CCNc1c2ccccc2[n+](C)c2nc3c(cc12)c1ccccc1n3CCCN(C)C (optimized conformer: 133.24498728398737 kcal/mol)

>  <smiles>  (15) 
CCN(CC)CCNc1c2ccccc2[n+](C)c2nc3c(cc12)c1ccccc1n3CCCN(C)C

>  <score_type>  (15) 
oracle

>  <origin>  (15) 
adg

>  <m_score__min__energy>  (15) 
-7.3600000000000003

>  <m_primary>  (15) 
energy

$$$$
15:0
     RDKit          3D

 43 44  0  0  0  0  0  0  0  0999 V2000
   56.5980   29.9490   42.6690 C   0  0  0  0  0  0  0  0  0  0  0  0
   56.0510   30.0480   44.0920 C   0  0  0  0  0  0  0  0  0  0  0  0
   56.9870   30.7910   44.9690 N   0  0  0  0  0  0  0  0  0  0  0  0
   58.1760   29.9730   45.2720 C   0  0  0  0  0  0  0  0  0  0  0  0
   57.3950   32.0720   44.3490 C   0  0  0  0  0  0  0  0  0  0  0  0
   57.0070   33.2580   45.2410 C   0  0  0  0  0  0  0  0  0  0  0  0
   58.1270   33.6930   45.9910 O   0  0  0  0  0  0  0  0  0  0  0  0
   59.0440   34.3840   45.1700 C   0  0  0  0  0  0  0  0  0  0  0  0
   59.8330   35.3760   46.0230 C   0  0  0  0  0  0  0  0  0  0  0  0
   60.2540   34.7660   47.2440 O   0  0  0  0  0  0  0  0  0  0  0  0
   61.1610   33.6940   47.3540 C   0  0  0  0  0  0  0  0  0  0  0  0
   62.5220   33.8330   47.0110 C   0  0  0  0  0  0  0  0  0  0  0  0
   63.3970   32.7520   47.1210 C   0  0  0  0  0  0  0  0  0  0  0  0
   62.9400   31.5170   47.5760 C   0  0  0  0  0  0  0  0  0  0  0  0
   61.5950   31.3530   47.9320 C   0  0  0  0  0  0  0  0  0  0  0  0
   61.1320   30.1110   48.3940 C   0  0  0  0  0  0  0  0  0  0  0  0
   59.7910   29.9480   48.7470 C   0  0  0  0  0  0  0  0  0  0  0  0
   58.9020   31.0190   48.6420 C   0  0  0  0  0  0  0  0  0  0  0  0
   59.3470   32.2620   48.1830 C   0  0  0  0  0  0  0  0  0  0  0  0
   60.6970   32.4470   47.8240 C   0  0  0  0  0  0  0  0  0  0  0  0
   57.6798   29.7532   42.7048 H   0  0  0  0  0  0  0  0  0  0  0  0
   56.0941   29.1275   42.1388 H   0  0  0  0  0  0  0  0  0  0  0  0
   56.4140   30.8950   42.1388 H   0  0  0  0  0  0  0  0  0  0  0  0
   55.0845   30.5728   44.0704 H   0  0  0  0  0  0  0  0  0  0  0  0
   55.9276   29.0308   44.4922 H   0  0  0  0  0  0  0  0  0  0  0  0
   58.2961   29.8904   46.3623 H   0  0  0  0  0  0  0  0  0  0  0  0
   58.0504   28.9693   44.8399 H   0  0  0  0  0  0  0  0  0  0  0  0
   59.0685   30.4492   44.8399 H   0  0  0  0  0  0  0  0  0  0  0  0
   58.4855   32.0713   44.2044 H   0  0  0  0  0  0  0  0  0  0  0  0
   56.8802   32.1751   43.3824 H   0  0  0  0  0  0  0  0  0  0  0  0
   56.6486   34.0850   44.6104 H   0  0  0  0  0  0  0  0  0  0  0  0
   56.2125   32.9418   45.9330 H   0  0  0  0  0  0  0  0  0  0  0  0
   59.7361   33.6659   44.7059 H   0  0  0  0  0  0  0  0  0  0  0  0
   58.4998   34.9251   44.3820 H   0  0  0  0  0  0  0  0  0  0  0  0
   60.7181   35.7108   45.4623 H   0  0  0  0  0  0  0  0  0  0  0  0
   59.1856   36.2332   46.2598 H   0  0  0  0  0  0  0  0  0  0  0  0
   62.8972   34.8032   46.6533 H   0  0  0  0  0  0  0  0  0  0  0  0
   64.4550   32.8756   46.8466 H   0  0  0  0  0  0  0  0  0  0  0  0
   63.6364   30.6693   47.6558 H   0  0  0  0  0  0  0  0  0  0  0  0
   61.8280   29.2633   48.4782 H   0  0  0  0  0  0  0  0  0  0  0  0
   59.4340   28.9725   49.1090 H   0  0  0  0  0  0  0  0  0  0  0  0
   57.8467   30.8842   48.9217 H   0  0  0  0  0  0  0  0  0  0  0  0
   58.6395   33.1003   48.1016 H   0  0  0  0  0  0  0  0  0  0  0  0
  1  2  1  0
  2  3  1  0
  3  4  1  0
  3  5  1  0
  5  6  1  0
  6  7  1  0
  7  8  1  0
  8  9  1  0
  9 10  1  0
 10 11  1  0
 11 12  2  0
 12 13  1  0
 13 14  2  0
 14 15  1  0
 15 16  2  0
 16 17  1  0
 17 18  2  0
 18 19  1  0
 19 20  2  0
 20 11  1  0
 20 15  1  0
  1 21  1  0
  1 22  1  0
  1 23  1  0
  2 24  1  0
  2 25  1  0
  4 26  1  0
  4 27  1  0
  4 28  1  0
  5 29  1  0
  5 30  1  0
  6 31  1  0
  6 32  1  0
  8 33  1  0
  8 34  1  0
  9 35  1  0
  9 36  1  0
 12 37  1  0
 13 38  1  0
 14 39  1  0
 16 40  1  0
 17 41  1  0
 18 42  1  0
 19 43  1  0
M  END
>  <UniqueID>  (16) 
15

>  <SMILES>  (16) 
CCN(C)CCOCCOc1cccc2ccccc12

>  <Energy>  (16) 
43.334935158867204

>  <Genealogy>  (16) 
CCN(C)CCOCCOc1cccc2ccccc12 (3D coordinates assigned)
CCN(C)CCOCCOc1cccc2ccccc12 (optimized conformer: 43.334935158867204 kcal/mol)

>  <smiles>  (16) 
CCN(C)CCOCCOc1cccc2ccccc12

>  <score_type>  (16) 
oracle

>  <origin>  (16) 
adg

>  <m_score__min__energy>  (16) 
-6.5099999999999998

>  <m_primary>  (16) 
energy

$$$$
16:0
     RDKit          3D

 25 26  0  0  0  0  0  0  0  0999 V2000
   56.9710   28.4170   45.1480 C   0  0  0  0  0  0  0  0  0  0  0  0
   55.6630   29.3680   44.3150 S   0  0  0  0  0  0  0  0  0  0  0  0
   56.7350   30.7650   43.9840 C   0  0  0  0  0  0  0  0  0  0  0  0
   57.0130   31.1080   42.7000 N   0  0  0  0  0  0  0  0  0  0  0  0
   57.8160   32.1630   42.4180 C   0  0  0  0  0  0  0  0  0  0  0  0
   58.3720   32.9110   43.4540 C   0  0  0  0  0  0  0  0  0  0  0  0
   58.0850   32.5470   44.7780 C   0  0  0  0  0  0  0  0  0  0  0  0
   58.6640   33.3150   45.9070 C   0  0  0  0  0  0  0  0  0  0  0  0
   59.1690   34.6110   45.6960 C   0  0  0  0  0  0  0  0  0  0  0  0
   59.7080   35.3420   46.7590 C   0  0  0  0  0  0  0  0  0  0  0  0
   59.7500   34.7880   48.0400 C   0  0  0  0  0  0  0  0  0  0  0  0
   59.2580   33.5000   48.2600 C   0  0  0  0  0  0  0  0  0  0  0  0
   58.7150   32.7620   47.2030 C   0  0  0  0  0  0  0  0  0  0  0  0
   58.2800   31.4980   47.4390 F   0  0  0  0  0  0  0  0  0  0  0  0
   57.2640   31.4820   45.0130 N   0  0  0  0  0  0  0  0  0  0  0  0
   56.8505   28.5046   46.2379 H   0  0  0  0  0  0  0  0  0  0  0  0
   56.8985   27.3592   44.8549 H   0  0  0  0  0  0  0  0  0  0  0  0
   57.9549   28.8121   44.8549 H   0  0  0  0  0  0  0  0  0  0  0  0
   58.0287   32.4286   41.3719 H   0  0  0  0  0  0  0  0  0  0  0  0
   59.0235   33.7705   43.2377 H   0  0  0  0  0  0  0  0  0  0  0  0
   59.1396   35.0519   44.6886 H   0  0  0  0  0  0  0  0  0  0  0  0
   60.0996   36.3552   46.5859 H   0  0  0  0  0  0  0  0  0  0  0  0
   60.1707   35.3663   48.8758 H   0  0  0  0  0  0  0  0  0  0  0  0
   59.2976   33.0637   49.2690 H   0  0  0  0  0  0  0  0  0  0  0  0
   57.0170   31.2160   45.9920 H   0  0  0  0  0  0  0  0  0  0  0  0
  1  2  1  0
  2  3  1  0
  3  4  2  0
  4  5  1  0
  5  6  2  0
  6  7  1  0
  7  8  1  0
  8  9  2  0
  9 10  1  0
 10 11  2  0
 11 12  1  0
 12 13  2  0
 13 14  1  0
  7 15  2  0
 15  3  1  0
 13  8  1  0
  1 16  1  0
  1 17  1  0
  1 18  1  0
  5 19  1  0
  6 20  1  0
  9 21  1  0
 10 22  1  0
 11 23  1  0
 12 24  1  0
 15 25  1  0
M  CHG  1  15   1
M  END
>  <UniqueID>  (17) 
16

>  <SMILES>  (17) 
CSc1nccc(-c2ccccc2F)[nH+]1

>  <Energy>  (17) 
27.612711828338224

>  <Genealogy>  (17) 
CSc1nccc(-c2ccccc2F)[nH+]1 (protonated)
CSc1nccc(-c2ccccc2F)[nH+]1 (3D coordinates assigned)
CSc1nccc(-c2ccccc2F)[nH+]1 (optimized conformer: 27.612711828338224 kcal/mol)

>  <smiles>  (17) 
CSc1nccc(-c2ccccc2F)n1

>  <score_type>  (17) 
oracle

>  <origin>  (17) 
adg

>  <m_score__min__energy>  (17) 
-4.4299999999999997

>  <m_primary>  (17) 
energy

$$$$
17:0
     RDKit          3D

 51 52  0  0  0  0  0  0  0  0999 V2000
   59.6750   33.7210   49.8330 C   0  0  0  0  0  0  0  0  0  0  0  0
   58.8990   32.4570   49.4740 C   0  0  0  0  0  0  0  0  0  0  0  0
   58.5810   32.4150   47.9750 C   0  0  0  0  0  0  0  0  0  0  0  0
   58.3150   33.8010   47.3600 C   0  0  0  0  0  0  0  0  0  0  0  0
   58.6230   33.9010   45.9180 N   0  0  0  0  0  0  0  0  0  0  0  0
   60.0390   33.9490   45.5070 C   0  0  0  0  0  0  0  0  0  0  0  0
   60.9270   34.1890   46.7340 C   0  0  0  0  0  0  0  0  0  0  0  0
   62.3980   33.8230   46.4860 C   0  0  0  0  0  0  0  0  0  0  0  0
   62.9320   32.7990   47.4880 C   0  0  0  0  0  0  0  0  0  0  0  0
   57.6160   33.4660   44.9310 C   0  0  0  0  0  0  0  0  0  0  0  0
   57.3930   31.9770   44.9320 C   0  0  0  0  0  0  0  0  0  0  0  0
   56.2950   31.5140   44.5250 O   0  0  0  0  0  0  0  0  0  0  0  0
   58.4230   31.0930   45.4070 N   0  0  0  0  0  0  0  0  0  0  0  0
   58.3300   29.6620   45.3430 C   0  0  0  0  0  0  0  0  0  0  0  0
   59.4500   28.8700   45.0260 C   0  0  0  0  0  0  0  0  0  0  0  0
   59.3320   27.4770   44.9500 C   0  0  0  0  0  0  0  0  0  0  0  0
   58.0940   26.8700   45.1770 C   0  0  0  0  0  0  0  0  0  0  0  0
   56.9790   27.6500   45.5060 C   0  0  0  0  0  0  0  0  0  0  0  0
   57.0890   29.0420   45.5640 C   0  0  0  0  0  0  0  0  0  0  0  0
   55.7610   27.0170   45.7750 O   0  0  0  0  0  0  0  0  0  0  0  0
   55.6980   25.6050   45.9920 C   0  0  0  0  0  0  0  0  0  0  0  0
   56.6540   24.8760   45.0380 C   0  0  0  0  0  0  0  0  0  0  0  0
   57.9480   25.4820   45.0770 O   0  0  0  0  0  0  0  0  0  0  0  0
   59.7338   33.8168   50.9272 H   0  0  0  0  0  0  0  0  0  0  0  0
   60.6907   33.6588   49.4153 H   0  0  0  0  0  0  0  0  0  0  0  0
   59.1599   34.5986   49.4153 H   0  0  0  0  0  0  0  0  0  0  0  0
   59.5032   31.5766   49.7384 H   0  0  0  0  0  0  0  0  0  0  0  0
   57.9519   32.4564   50.0334 H   0  0  0  0  0  0  0  0  0  0  0  0
   59.4351   31.9608   47.4514 H   0  0  0  0  0  0  0  0  0  0  0  0
   57.6575   31.8289   47.8585 H   0  0  0  0  0  0  0  0  0  0  0  0
   57.2509   34.0412   47.5015 H   0  0  0  0  0  0  0  0  0  0  0  0
   58.9868   34.5050   47.8729 H   0  0  0  0  0  0  0  0  0  0  0  0
   60.3156   32.9937   45.0370 H   0  0  0  0  0  0  0  0  0  0  0  0
   60.1816   34.7698   44.7887 H   0  0  0  0  0  0  0  0  0  0  0  0
   60.8708   35.2535   47.0055 H   0  0  0  0  0  0  0  0  0  0  0  0
   60.5566   33.5412   47.5422 H   0  0  0  0  0  0  0  0  0  0  0  0
   62.4898   33.4041   45.4730 H   0  0  0  0  0  0  0  0  0  0  0  0
   62.9917   34.7415   46.6037 H   0  0  0  0  0  0  0  0  0  0  0  0
   62.7458   33.1561   48.5116 H   0  0  0  0  0  0  0  0  0  0  0  0
   62.4208   31.8368   47.3366 H   0  0  0  0  0  0  0  0  0  0  0  0
   64.0136   32.6674   47.3366 H   0  0  0  0  0  0  0  0  0  0  0  0
   56.6622   33.9630   45.1617 H   0  0  0  0  0  0  0  0  0  0  0  0
   57.9931   33.7406   43.9348 H   0  0  0  0  0  0  0  0  0  0  0  0
   59.3480   31.5070   45.6620 H   0  0  0  0  0  0  0  0  0  0  0  0
   60.4225   29.3480   44.8371 H   0  0  0  0  0  0  0  0  0  0  0  0
   60.2121   26.8616   44.7121 H   0  0  0  0  0  0  0  0  0  0  0  0
   56.2015   29.6537   45.7833 H   0  0  0  0  0  0  0  0  0  0  0  0
   55.9842   25.3845   47.0310 H   0  0  0  0  0  0  0  0  0  0  0  0
   54.6710   25.2594   45.8024 H   0  0  0  0  0  0  0  0  0  0  0  0
   56.7371   23.8221   45.3421 H   0  0  0  0  0  0  0  0  0  0  0  0
   56.2579   24.9414   44.0139 H   0  0  0  0  0  0  0  0  0  0  0  0
  1  2  1  0
  2  3  1  0
  3  4  1  0
  4  5  1  0
  5  6  1  0
  6  7  1  0
  7  8  1  0
  8  9  1  0
  5 10  1  0
 10 11  1  0
 11 12  2  0
 11 13  1  0
 13 14  1  0
 14 15  2  0
 15 16  1  0
 16 17  2  0
 17 18  1  0
 18 19  2  0
 18 20  1  0
 20 21  1  0
 21 22  1  0
 22 23  1  0
 19 14  1  0
 23 17  1  0
  1 24  1  0
  1 25  1  0
  1 26  1  0
  2 27  1  0
  2 28  1  0
  3 29  1  0
  3 30  1  0
  4 31  1  0
  4 32  1  0
  6 33  1  0
  6 34  1  0
  7 35  1  0
  7 36  1  0
  8 37  1  0
  8 38  1  0
  9 39  1  0
  9 40  1  0
  9 41  1  0
 10 42  1  0
 10 43  1  0
 13 44  1  0
 15 45  1  0
 16 46  1  0
 19 47  1  0
 21 48  1  0
 21 49  1  0
 22 50  1  0
 22 51  1  0
M  END
>  <UniqueID>  (18) 
17

>  <SMILES>  (18) 
CCCCN(CCCC)CC(=O)Nc1ccc2c(c1)OCCO2

>  <Energy>  (18) 
53.765246174212145

>  <Genealogy>  (18) 
CCCCN(CCCC)CC(=O)Nc1ccc2c(c1)OCCO2 (3D coordinates assigned)
CCCCN(CCCC)CC(=O)Nc1ccc2c(c1)OCCO2 (nonaromatic ring conformer: 53.765246174212145 kcal/mol)

>  <smiles>  (18) 
CCCCN(CCCC)CC(=O)Nc1ccc2c(c1)OCCO2

>  <score_type>  (18) 
oracle

>  <origin>  (18) 
adg

>  <m_score__min__energy>  (18) 
-6.7000000000000002

>  <m_primary>  (18) 
energy

$$$$
18:0
     RDKit          3D

 41 43  0  0  0  0  0  0  0  0999 V2000
   59.9580   35.1580   46.0060 C   0  0  0  0  0  0  0  0  0  0  0  0
   59.5140   33.8540   46.4950 N   0  0  0  0  0  0  0  0  0  0  0  0
   60.0910   33.0400   47.4130 C   0  0  0  0  0  0  0  0  0  0  0  0
   61.3580   33.2990   48.1310 C   0  0  0  0  0  0  0  0  0  0  0  0
   62.5770   32.9190   47.5460 C   0  0  0  0  0  0  0  0  0  0  0  0
   63.7860   33.1740   48.2020 C   0  0  0  0  0  0  0  0  0  0  0  0
   63.7880   33.8230   49.4390 C   0  0  0  0  0  0  0  0  0  0  0  0
   62.5810   34.2240   50.0190 C   0  0  0  0  0  0  0  0  0  0  0  0
   61.3710   33.9710   49.3660 C   0  0  0  0  0  0  0  0  0  0  0  0
   59.3480   31.9310   47.6220 N   0  0  0  0  0  0  0  0  0  0  0  0
   58.3020   32.0260   46.8160 N   0  0  0  0  0  0  0  0  0  0  0  0
   58.4050   33.1790   46.1350 C   0  0  0  0  0  0  0  0  0  0  0  0
   57.2050   33.7310   44.9200 S   0  0  0  0  0  0  0  0  0  0  0  0
   57.8290   32.6050   43.6240 C   0  0  0  0  0  0  0  0  0  0  0  0
   57.0050   31.3130   43.5620 C   0  0  0  0  0  0  0  0  0  0  0  0
   57.2260   30.4770   44.7610 N   0  0  0  0  0  0  0  0  0  0  0  0
   56.3080   29.3340   44.8470 C   0  0  0  0  0  0  0  0  0  0  0  0
   57.0310   28.2370   45.6180 C   0  0  0  0  0  0  0  0  0  0  0  0
   58.4940   28.6430   45.6260 C   0  0  0  0  0  0  0  0  0  0  0  0
   58.5670   29.8880   44.7610 C   0  0  0  0  0  0  0  0  0  0  0  0
   60.1812   35.8135   46.8607 H   0  0  0  0  0  0  0  0  0  0  0  0
   60.8637   35.0314   45.3947 H   0  0  0  0  0  0  0  0  0  0  0  0
   59.1633   35.6104   45.3947 H   0  0  0  0  0  0  0  0  0  0  0  0
   62.5811   32.4181   46.5667 H   0  0  0  0  0  0  0  0  0  0  0  0
   64.7362   32.8631   47.7432 H   0  0  0  0  0  0  0  0  0  0  0  0
   64.7389   34.0184   49.9564 H   0  0  0  0  0  0  0  0  0  0  0  0
   62.5833   34.7394   50.9908 H   0  0  0  0  0  0  0  0  0  0  0  0
   60.4246   34.2992   49.8206 H   0  0  0  0  0  0  0  0  0  0  0  0
   57.5410   31.3170   46.7410 H   0  0  0  0  0  0  0  0  0  0  0  0
   57.7717   33.1133   42.6502 H   0  0  0  0  0  0  0  0  0  0  0  0
   58.8692   32.3413   43.8656 H   0  0  0  0  0  0  0  0  0  0  0  0
   55.9378   31.5714   43.4971 H   0  0  0  0  0  0  0  0  0  0  0  0
   57.3215   30.7414   42.6770 H   0  0  0  0  0  0  0  0  0  0  0  0
   55.3900   29.6263   45.3779 H   0  0  0  0  0  0  0  0  0  0  0  0
   56.0220   28.9847   43.8439 H   0  0  0  0  0  0  0  0  0  0  0  0
   56.6448   28.1711   46.6459 H   0  0  0  0  0  0  0  0  0  0  0  0
   56.8842   27.2494   45.1564 H   0  0  0  0  0  0  0  0  0  0  0  0
   58.8269   28.8653   46.6506 H   0  0  0  0  0  0  0  0  0  0  0  0
   59.1450   27.8411   45.2476 H   0  0  0  0  0  0  0  0  0  0  0  0
   59.2939   30.5993   45.1802 H   0  0  0  0  0  0  0  0  0  0  0  0
   58.8924   29.6426   43.7393 H   0  0  0  0  0  0  0  0  0  0  0  0
  1  2  1  0
  2  3  1  0
  3  4  1  0
  4  5  2  0
  5  6  1  0
  6  7  2  0
  7  8  1  0
  8  9  2  0
  3 10  2  0
 10 11  1  0
 11 12  2  0
 12 13  1  0
 13 14  1  0
 14 15  1  0
 15 16  1  0
 16 17  1  0
 17 18  1  0
 18 19  1  0
 19 20  1  0
 12  2  1  0
 20 16  1  0
  9  4  1  0
  1 21  1  0
  1 22  1  0
  1 23  1  0
  5 24  1  0
  6 25  1  0
  7 26  1  0
  8 27  1  0
  9 28  1  0
 11 29  1  0
 14 30  1  0
 14 31  1  0
 15 32  1  0
 15 33  1  0
 17 34  1  0
 17 35  1  0
 18 36  1  0
 18 37  1  0
 19 38  1  0
 19 39  1  0
 20 40  1  0
 20 41  1  0
M  CHG  1  11   1
M  END
>  <UniqueID>  (19) 
18

>  <SMILES>  (19) 
Cn1c(-c2ccccc2)n[nH+]c1SCCN1CCCC1

>  <Energy>  (19) 
79.02515540653847

>  <Genealogy>  (19) 
Cn1c(-c2ccccc2)n[nH+]c1SCCN1CCCC1 (protonated)
Cn1c(-c2ccccc2)n[nH+]c1SCCN1CCCC1 (3D coordinates assigned)
Cn1c(-c2ccccc2)n[nH+]c1SCCN1CCCC1 (nonaromatic ring conformer: 79.02515540653847 kcal/mol)

>  <smiles>  (19) 
Cn1c(SCCN2CCCC2)nnc1-c1ccccc1

>  <score_type>  (19) 
oracle

>  <origin>  (19) 
adg

>  <m_score__min__energy>  (19) 
-6.1100000000000003

>  <m_primary>  (19) 
energy

$$$$
19:0
     RDKit          3D

 40 42  0  0  0  0  0  0  0  0999 V2000
   58.6637   32.6701   47.3797 H   0  0  0  0  0  0  0  0  0  0  0  0
   58.3650   32.4460   46.3450 C   0  0  0  0  0  0  0  0  0  0  0  0
   57.7880   31.2500   46.0490 N   0  0  0  0  0  0  0  0  0  0  0  0
   57.4040   30.9330   44.7810 C   0  0  0  0  0  0  0  0  0  0  0  0
   56.8070   29.6920   44.4960 C   0  0  0  0  0  0  0  0  0  0  0  0
   56.6250   28.8310   45.4600 N   0  0  0  0  0  0  0  0  0  0  0  0
   57.5090   27.7640   45.9620 C   0  0  1  0  0  0  0  0  0  0  0  0
   57.9684   27.3169   45.0681 H   0  0  0  0  0  0  0  0  0  0  0  0
   58.6290   28.3210   46.8330 C   0  0  0  0  0  0  0  0  0  0  0  0
   58.5180   28.2900   48.2390 C   0  0  0  0  0  0  0  0  0  0  0  0
   57.6087   27.8791   48.7020 H   0  0  0  0  0  0  0  0  0  0  0  0
   59.5450   28.7730   49.0510 C   0  0  0  0  0  0  0  0  0  0  0  0
   59.4360   28.7502   50.1453 H   0  0  0  0  0  0  0  0  0  0  0  0
   60.7080   29.2840   48.4790 C   0  0  0  0  0  0  0  0  0  0  0  0
   61.5132   29.6700   49.1213 H   0  0  0  0  0  0  0  0  0  0  0  0
   60.8510   29.3060   47.0930 C   0  0  0  0  0  0  0  0  0  0  0  0
   61.7739   29.7039   46.6459 H   0  0  0  0  0  0  0  0  0  0  0  0
   59.8280   28.8250   46.2640 C   0  0  0  0  0  0  0  0  0  0  0  0
   60.1130   28.8690   44.5260 Cl  0  0  0  0  0  0  0  0  0  0  0  0
   56.7590   26.6100   46.6600 C   0  0  0  0  0  0  0  0  0  0  0  0
   56.5173   26.9057   47.6916 H   0  0  0  0  0  0  0  0  0  0  0  0
   57.4012   25.7169   46.6647 H   0  0  0  0  0  0  0  0  0  0  0  0
   55.5600   26.3120   45.9660 O   0  0  0  0  0  0  0  0  0  0  0  0
   55.5480   24.9620   45.5510 C   0  0  0  0  0  0  0  0  0  0  0  0
   54.6632   24.7775   44.9240 H   0  0  0  0  0  0  0  0  0  0  0  0
   55.5119   24.3044   46.4321 H   0  0  0  0  0  0  0  0  0  0  0  0
   56.8080   24.6750   44.7500 C   0  0  0  0  0  0  0  0  0  0  0  0
   57.6446   24.4844   45.4383 H   0  0  0  0  0  0  0  0  0  0  0  0
   56.6460   23.7907   44.1161 H   0  0  0  0  0  0  0  0  0  0  0  0
   57.0450   25.5422   44.1161 H   0  0  0  0  0  0  0  0  0  0  0  0
   56.4400   29.4120   43.2140 N   0  0  0  0  0  0  0  0  0  0  0  0
   56.6240   30.2910   42.1930 C   0  0  0  0  0  0  0  0  0  0  0  0
   56.3105   30.0209   41.1738 H   0  0  0  0  0  0  0  0  0  0  0  0
   57.2090   31.5340   42.4340 C   0  0  0  0  0  0  0  0  0  0  0  0
   57.3580   32.2483   41.6109 H   0  0  0  0  0  0  0  0  0  0  0  0
   57.6040   31.8610   43.7360 C   0  0  0  0  0  0  0  0  0  0  0  0
   58.1970   33.0960   44.0270 C   0  0  0  0  0  0  0  0  0  0  0  0
   58.3613   33.8318   43.2260 H   0  0  0  0  0  0  0  0  0  0  0  0
   58.5790   33.3900   45.3380 C   0  0  0  0  0  0  0  0  0  0  0  0
   59.0449   34.3577   45.5756 H   0  0  0  0  0  0  0  0  0  0  0  0
  1  2  1  0
  2  3  2  0
  3  4  1  0
  4  5  1  0
  5  6  2  0
  6  7  1  0
  7  8  1  6
  7  9  1  0
  9 10  2  0
 10 11  1  0
 10 12  1  0
 12 13  1  0
 12 14  2  0
 14 15  1  0
 14 16  1  0
 16 17  1  0
 16 18  2  0
 18 19  1  0
  7 20  1  0
 20 21  1  0
 20 22  1  0
 20 23  1  0
 23 24  1  0
 24 25  1  0
 24 26  1  0
 24 27  1  0
 27 28  1  0
 27 29  1  0
 27 30  1  0
  5 31  1  0
 31 32  1  0
 32 33  1  0
 32 34  2  0
 34 35  1  0
 34 36  1  0
 36 37  1  0
 37 38  1  0
 37 39  2  0
 39 40  1  0
 39  2  1  0
 36  4  2  0
 18  9  1  0
M  CHG  1  31  -1
M  END
>  <UniqueID>  (20) 
19

>  <SMILES>  (20) 
CCOC[C@@H](/N=c1\[n-]ccc2cccnc12)c1ccccc1Cl

>  <Energy>  (20) 
53.5413414361491

>  <Genealogy>  (20) 
CCOCC(N=c1[n-]ccc2cccnc12)c1ccccc1Cl (protonated)
CCOC[C@@H](N=c1[n-]ccc2cccnc12)c1ccccc1Cl (chirality)
CCOC[C@@H](/N=c1\[n-]ccc2cccnc12)c1ccccc1Cl (cis-trans isomerization)
CCOC[C@@H](/N=c1\[n-]ccc2cccnc12)c1ccccc1Cl (3D coordinates assigned)
CCOC[C@@H](/N=c1\[n-]ccc2cccnc12)c1ccccc1Cl (optimized conformer: 53.5413414361491 kcal/mol)

>  <smiles>  (20) 
CCOCC(N=c1[nH]ccc2cccnc12)c1ccccc1Cl

>  <score_type>  (20) 
oracle

>  <origin>  (20) 
adg

>  <m_score__min__energy>  (20) 
-8.5600000000000005

>  <m_primary>  (20) 
energy

$$$$
20:0
     RDKit          3D

 47 50  0  0  0  0  0  0  0  0999 V2000
   57.7480   25.8690   43.4230 C   0  0  0  0  0  0  0  0  0  0  0  0
   58.1770   27.2620   42.9750 C   0  0  0  0  0  0  0  0  0  0  0  0
   57.4490   28.2960   43.7230 N   0  0  0  0  0  0  0  0  0  0  0  0
   56.9070   29.3290   42.8280 C   0  0  0  0  0  0  0  0  0  0  0  0
   56.6360   30.6260   43.6000 C   0  0  0  0  0  0  0  0  0  0  0  0
   56.8310   30.4490   45.0400 N   0  0  0  0  0  0  0  0  0  0  0  0
   58.0210   30.8920   45.7060 C   0  0  0  0  0  0  0  0  0  0  0  0
   58.3820   32.2580   45.7310 C   0  0  0  0  0  0  0  0  0  0  0  0
   57.5120   33.2400   45.2180 C   0  0  0  0  0  0  0  0  0  0  0  0
   57.8610   34.5880   45.2580 C   0  0  0  0  0  0  0  0  0  0  0  0
   59.0730   34.9820   45.8160 C   0  0  0  0  0  0  0  0  0  0  0  0
   59.9580   34.0320   46.3260 C   0  0  0  0  0  0  0  0  0  0  0  0
   59.6500   32.6500   46.2800 C   0  0  0  0  0  0  0  0  0  0  0  0
   60.5350   31.6920   46.7530 N   0  0  0  0  0  0  0  0  0  0  0  0
   61.8900   32.0540   47.2110 C   0  0  0  0  0  0  0  0  0  0  0  0
   60.1140   30.3890   46.8080 C   0  0  0  0  0  0  0  0  0  0  0  0
   60.7740   29.3500   47.3780 N   0  0  0  0  0  0  0  0  0  0  0  0
   59.9490   28.2930   47.2430 C   0  0  0  0  0  0  0  0  0  0  0  0
   60.1640   27.0010   47.7250 C   0  0  0  0  0  0  0  0  0  0  0  0
   59.1430   26.0510   47.5480 C   0  0  0  0  0  0  0  0  0  0  0  0
   57.9310   26.4120   46.9180 C   0  0  0  0  0  0  0  0  0  0  0  0
   56.5420   25.1170   46.7230 Br  0  0  0  0  0  0  0  0  0  0  0  0
   57.7330   27.7240   46.4510 C   0  0  0  0  0  0  0  0  0  0  0  0
   58.7790   28.6390   46.6040 C   0  0  0  0  0  0  0  0  0  0  0  0
   58.8890   29.9880   46.3100 C   0  0  0  0  0  0  0  0  0  0  0  0
   57.7345   25.8252   44.5220 H   0  0  0  0  0  0  0  0  0  0  0  0
   56.7416   25.6528   43.0351 H   0  0  0  0  0  0  0  0  0  0  0  0
   58.4584   25.1241   43.0351 H   0  0  0  0  0  0  0  0  0  0  0  0
   59.2562   27.3814   43.1512 H   0  0  0  0  0  0  0  0  0  0  0  0
   57.9500   27.3744   41.9046 H   0  0  0  0  0  0  0  0  0  0  0  0
   56.6390   27.8310   44.1970 H   0  0  0  0  0  0  0  0  0  0  0  0
   57.6336   29.5304   42.0270 H   0  0  0  0  0  0  0  0  0  0  0  0
   55.9601   28.9665   42.4014 H   0  0  0  0  0  0  0  0  0  0  0  0
   57.3237   31.4055   43.2402 H   0  0  0  0  0  0  0  0  0  0  0  0
   55.5886   30.9150   43.4285 H   0  0  0  0  0  0  0  0  0  0  0  0
   56.0360   30.0910   45.6170 H   0  0  0  0  0  0  0  0  0  0  0  0
   56.5480   32.9395   44.7817 H   0  0  0  0  0  0  0  0  0  0  0  0
   57.1757   35.3438   44.8468 H   0  0  0  0  0  0  0  0  0  0  0  0
   59.3351   36.0496   45.8553 H   0  0  0  0  0  0  0  0  0  0  0  0
   60.9090   34.3608   46.7704 H   0  0  0  0  0  0  0  0  0  0  0  0
   61.9157   32.0609   48.3107 H   0  0  0  0  0  0  0  0  0  0  0  0
   62.6141   31.3178   46.8319 H   0  0  0  0  0  0  0  0  0  0  0  0
   62.1504   33.0532   46.8319 H   0  0  0  0  0  0  0  0  0  0  0  0
   61.6890   29.3470   47.8800 H   0  0  0  0  0  0  0  0  0  0  0  0
   61.1048   26.7339   48.2286 H   0  0  0  0  0  0  0  0  0  0  0  0
   59.2887   25.0199   47.9023 H   0  0  0  0  0  0  0  0  0  0  0  0
   56.7844   28.0210   45.9799 H   0  0  0  0  0  0  0  0  0  0  0  0
  1  2  1  0
  2  3  1  0
  3  4  1  0
  4  5  1  0
  5  6  1  0
  6  7  1  0
  7  8  2  0
  8  9  1  0
  9 10  2  0
 10 11  1  0
 11 12  2  0
 12 13  1  0
 13 14  2  0
 14 15  1  0
 14 16  1  0
 16 17  1  0
 17 18  1  0
 18 19  2  0
 19 20  1  0
 20 21  2  0
 21 22  1  0
 21 23  1  0
 23 24  2  0
 24 25  1  0
 25  7  1  0
 13  8  1  0
 25 16  2  0
 24 18  1  0
  1 26  1  0
  1 27  1  0
  1 28  1  0
  2 29  1  0
  2 30  1  0
  3 31  1  0
  4 32  1  0
  4 33  1  0
  5 34  1  0
  5 35  1  0
  6 36  1  0
  9 37  1  0
 10 38  1  0
 11 39  1  0
 12 40  1  0
 15 41  1  0
 15 42  1  0
 15 43  1  0
 17 44  1  0
 19 45  1  0
 20 46  1  0
 23 47  1  0
M  CHG  1  14   1
M  END
>  <UniqueID>  (21) 
20

>  <SMILES>  (21) 
CCNCCNc1c2ccccc2[n+](C)c2[nH]c3ccc(Br)cc3c12

>  <Energy>  (21) 
100.34126955565208

>  <Genealogy>  (21) 
CCNCCNc1c2ccccc2[n+](C)c2[nH]c3ccc(Br)cc3c12 (3D coordinates assigned)
CCNCCNc1c2ccccc2[n+](C)c2[nH]c3ccc(Br)cc3c12 (optimized conformer: 100.34126955565208 kcal/mol)

>  <smiles>  (21) 
CCNCCNc1c2ccccc2[n+](C)c2[nH]c3ccc(Br)cc3c12

>  <score_type>  (21) 
oracle

>  <origin>  (21) 
adg

>  <m_score__min__energy>  (21) 
-7.0099999999999998

>  <m_primary>  (21) 
energy

$$$$
