0:0
     RDKit          3D

 39 40  0  0  0  0  0  0  0  0999 V2000
   57.5239   24.7201   46.5396 H   0  0  0  0  0  0  0  0  0  0  0  0
   57.6070   25.8100   46.4160 C   0  0  0  0  0  0  0  0  0  0  0  0
   57.9660   26.6620   47.3500 O   0  0  0  0  0  0  0  0  0  0  0  0
   57.9480   27.8870   46.9090 N   0  0  0  0  0  0  0  0  0  0  0  0
   58.5640   28.9680   47.6860 C   0  0  0  0  0  0  0  0  0  0  0  0
   58.1351   29.9295   47.3674 H   0  0  0  0  0  0  0  0  0  0  0  0
   58.3632   28.7912   48.7530 H   0  0  0  0  0  0  0  0  0  0  0  0
   60.0790   29.0010   47.4740 C   0  0  0  0  0  0  0  0  0  0  0  0
   60.5776   29.0619   48.4526 H   0  0  0  0  0  0  0  0  0  0  0  0
   60.3782   28.0844   46.9446 H   0  0  0  0  0  0  0  0  0  0  0  0
   60.5700   30.4440   46.4620 S   0  0  0  0  0  0  0  0  0  0  0  0
   60.9990   31.5350   47.8640 C   0  0  0  0  0  0  0  0  0  0  0  0
   60.2385   31.4257   48.6512 H   0  0  0  0  0  0  0  0  0  0  0  0
   61.9898   31.2456   48.2442 H   0  0  0  0  0  0  0  0  0  0  0  0
   61.0540   32.9990   47.4200 C   0  0  0  0  0  0  0  0  0  0  0  0
   61.2549   33.6310   48.2976 H   0  0  0  0  0  0  0  0  0  0  0  0
   61.8530   33.1018   46.6710 H   0  0  0  0  0  0  0  0  0  0  0  0
   59.7570   33.4360   46.7890 C   0  0  0  0  0  0  0  0  0  0  0  0
   58.5260   33.0450   47.3430 C   0  0  0  0  0  0  0  0  0  0  0  0
   58.5062   32.4353   48.2584 H   0  0  0  0  0  0  0  0  0  0  0  0
   57.3260   33.4280   46.7350 C   0  0  0  0  0  0  0  0  0  0  0  0
   56.3653   33.1218   47.1746 H   0  0  0  0  0  0  0  0  0  0  0  0
   57.3460   34.1990   45.5700 C   0  0  0  0  0  0  0  0  0  0  0  0
   56.4013   34.4984   45.0925 H   0  0  0  0  0  0  0  0  0  0  0  0
   58.5660   34.5900   45.0110 C   0  0  0  0  0  0  0  0  0  0  0  0
   58.5806   35.1983   44.0946 H   0  0  0  0  0  0  0  0  0  0  0  0
   59.7670   34.2090   45.6150 C   0  0  0  0  0  0  0  0  0  0  0  0
   60.7250   34.5155   45.1696 H   0  0  0  0  0  0  0  0  0  0  0  0
   57.5600   27.8250   45.6050 C   0  0  0  0  0  0  0  0  0  0  0  0
   57.4060   28.8100   44.7650 N   0  0  0  0  0  0  0  0  0  0  0  0
   56.3340   29.7480   44.6860 C   0  0  0  0  0  0  0  0  0  0  0  0
   55.1540   29.3560   44.8840 O   0  0  0  0  0  0  0  0  0  0  0  0
   56.6120   31.1090   44.5160 O   0  0  0  0  0  0  0  0  0  0  0  0
   57.6180   31.5810   43.6290 C   0  0  0  0  0  0  0  0  0  0  0  0
   58.4631   31.9775   44.2108 H   0  0  0  0  0  0  0  0  0  0  0  0
   57.9661   30.7522   42.9950 H   0  0  0  0  0  0  0  0  0  0  0  0
   57.2031   32.3784   42.9950 H   0  0  0  0  0  0  0  0  0  0  0  0
   57.3520   26.5090   45.2560 C   0  0  0  0  0  0  0  0  0  0  0  0
   57.0515   26.1081   44.2767 H   0  0  0  0  0  0  0  0  0  0  0  0
  1  2  1  0
  2  3  1  0
  3  4  1  0
  4  5  1  0
  5  6  1  0
  5  7  1  0
  5  8  1  0
  8  9  1  0
  8 10  1  0
  8 11  1  0
 11 12  1  0
 12 13  1  0
 12 14  1  0
 12 15  1  0
 15 16  1  0
 15 17  1  0
 15 18  1  0
 18 19  2  0
 19 20  1  0
 19 21  1  0
 21 22  1  0
 21 23  2  0
 23 24  1  0
 23 25  1  0
 25 26  1  0
 25 27  2  0
 27 28  1  0
  4 29  1  0
 29 30  2  0
 30 31  1  0
 31 32  2  0
 31 33  1  0
 33 34  1  0
 34 35  1  0
 34 36  1  0
 34 37  1  0
 29 38  1  0
 38 39  1  0
 38  2  2  0
 27 18  1  0
M  END
>  <UniqueID>  (1) 
1

>  <SMILES>  (1) 
COC(=O)/N=c1/ccon1CCSCCc1ccccc1

>  <Energy>  (1) 
71.19473971212402

>  <Genealogy>  (1) 
COC(=O)/N=c1/ccon1CCSCCc1ccccc1 (cis-trans isomerization)
COC(=O)/N=c1/ccon1CCSCCc1ccccc1 (3D coordinates assigned)
COC(=O)/N=c1/ccon1CCSCCc1ccccc1 (optimized conformer: 71.19473971212402 kcal/mol)

>  <smiles>  (1) 
COC(=O)N=c1ccon1CCSCCc1ccccc1

>  <score_type>  (1) 
oracle

>  <origin>  (1) 
adg

>  <m_score__min__energy>  (1) 
-6.5499999999999998

>  <m_primary>  (1) 
energy

$$$$
1:0
     RDKit          3D

 39 41  0  0  0  0  0  0  0  0999 V2000
   60.6970   27.6340   45.9600 C   0  0  0  0  0  0  0  0  0  0  0  0
   59.3040   28.1580   45.7310 C   0  0  0  0  0  0  0  0  0  0  0  0
   58.2700   27.2500   45.4440 C   0  0  0  0  0  0  0  0  0  0  0  0
   56.9690   27.7000   45.2150 C   0  0  0  0  0  0  0  0  0  0  0  0
   56.6720   29.0660   45.2650 C   0  0  0  0  0  0  0  0  0  0  0  0
   55.3740   29.5150   45.0250 O   0  0  0  0  0  0  0  0  0  0  0  0
   57.6880   29.9870   45.5520 C   0  0  0  0  0  0  0  0  0  0  0  0
   57.4070   31.3160   45.5740 N   0  0  0  0  0  0  0  0  0  0  0  0
   58.3760   32.2390   45.8050 C   0  0  0  0  0  0  0  0  0  0  0  0
   58.0520   33.7030   45.7510 C   0  0  0  0  0  0  0  0  0  0  0  0
   59.2880   34.5940   45.9730 C   0  0  0  0  0  0  0  0  0  0  0  0
   59.7560   34.6650   47.4390 C   0  0  0  0  0  0  0  0  0  0  0  0
   61.1380   34.0920   47.6420 C   0  0  0  0  0  0  0  0  0  0  0  0
   61.9880   33.8730   46.5440 C   0  0  0  0  0  0  0  0  0  0  0  0
   63.2890   33.3970   46.7410 C   0  0  0  0  0  0  0  0  0  0  0  0
   63.7470   33.1270   48.0330 C   0  0  0  0  0  0  0  0  0  0  0  0
   62.9030   33.3220   49.1290 C   0  0  0  0  0  0  0  0  0  0  0  0
   61.6030   33.7980   48.9360 C   0  0  0  0  0  0  0  0  0  0  0  0
   59.6480   31.8350   46.0550 N   0  0  0  0  0  0  0  0  0  0  0  0
   59.9830   30.5190   46.0570 C   0  0  0  0  0  0  0  0  0  0  0  0
   59.0090   29.5420   45.7860 C   0  0  0  0  0  0  0  0  0  0  0  0
   60.8886   27.5619   47.0408 H   0  0  0  0  0  0  0  0  0  0  0  0
   60.7938   26.6380   45.5032 H   0  0  0  0  0  0  0  0  0  0  0  0
   61.4262   28.3193   45.5032 H   0  0  0  0  0  0  0  0  0  0  0  0
   58.4888   26.1729   45.3994 H   0  0  0  0  0  0  0  0  0  0  0  0
   56.1715   26.9754   44.9936 H   0  0  0  0  0  0  0  0  0  0  0  0
   55.0950   30.4650   45.2380 H   0  0  0  0  0  0  0  0  0  0  0  0
   57.6254   33.9328   44.7635 H   0  0  0  0  0  0  0  0  0  0  0  0
   57.3394   33.9156   46.5616 H   0  0  0  0  0  0  0  0  0  0  0  0
   60.1142   34.1965   45.3653 H   0  0  0  0  0  0  0  0  0  0  0  0
   59.0000   35.6149   45.6818 H   0  0  0  0  0  0  0  0  0  0  0  0
   59.7629   35.7187   47.7548 H   0  0  0  0  0  0  0  0  0  0  0  0
   59.0573   34.0630   48.0385 H   0  0  0  0  0  0  0  0  0  0  0  0
   61.6285   34.0769   45.5246 H   0  0  0  0  0  0  0  0  0  0  0  0
   63.9516   33.2353   45.8780 H   0  0  0  0  0  0  0  0  0  0  0  0
   64.7727   32.7607   48.1873 H   0  0  0  0  0  0  0  0  0  0  0  0
   63.2619   33.1007   50.1450 H   0  0  0  0  0  0  0  0  0  0  0  0
   60.9399   33.9434   49.8015 H   0  0  0  0  0  0  0  0  0  0  0  0
   61.0188   30.2167   46.2711 H   0  0  0  0  0  0  0  0  0  0  0  0
  1  2  1  0
  2  3  2  0
  3  4  1  0
  4  5  2  0
  5  6  1  0
  5  7  1  0
  7  8  2  0
  8  9  1  0
  9 10  1  0
 10 11  1  0
 11 12  1  0
 12 13  1  0
 13 14  2  0
 14 15  1  0
 15 16  2  0
 16 17  1  0
 17 18  2  0
  9 19  2  0
 19 20  1  0
 20 21  2  0
 21  2  1  0
 21  7  1  0
 18 13  1  0
  1 22  1  0
  1 23  1  0
  1 24  1  0
  3 25  1  0
  4 26  1  0
  6 27  1  0
 10 28  1  0
 10 29  1  0
 11 30  1  0
 11 31  1  0
 12 32  1  0
 12 33  1  0
 14 34  1  0
 15 35  1  0
 16 36  1  0
 17 37  1  0
 18 38  1  0
 20 39  1  0
M  END
>  <UniqueID>  (2) 
2

>  <SMILES>  (2) 
Cc1ccc(O)c2nc(CCCc3ccccc3)ncc12

>  <Energy>  (2) 
38.24864636811462

>  <Genealogy>  (2) 
Cc1ccc(O)c2nc(CCCc3ccccc3)ncc12 (3D coordinates assigned)
Cc1ccc(O)c2nc(CCCc3ccccc3)ncc12 (optimized conformer: 38.24864636811462 kcal/mol)

>  <smiles>  (2) 
Cc1ccc(O)c2nc(CCCc3ccccc3)ncc12

>  <score_type>  (2) 
oracle

>  <origin>  (2) 
adg

>  <m_score__min__energy>  (2) 
-9.2100000000000009

>  <m_primary>  (2) 
energy

$$$$
2:0
     RDKit          3D

 58 60  0  0  0  0  0  0  0  0999 V2000
   60.5286   35.5961   48.3860 H   0  0  0  0  0  0  0  0  0  0  0  0
   60.3690   34.5920   47.9660 C   0  0  0  0  0  0  0  0  0  0  0  0
   61.5630   33.7460   47.7580 C   0  0  0  0  0  0  0  0  0  0  0  0
   62.6940   34.1390   48.1380 O   0  0  0  0  0  0  0  0  0  0  0  0
   61.4820   32.5040   46.9700 C   0  0  0  0  0  0  0  0  0  0  0  0
   61.4031   32.5942   45.8765 H   0  0  0  0  0  0  0  0  0  0  0  0
   61.4980   31.2670   47.4980 C   0  0  0  0  0  0  0  0  0  0  0  0
   62.3005   31.0164   48.2074 H   0  0  0  0  0  0  0  0  0  0  0  0
   60.5000   30.2260   47.1800 C   0  0  0  0  0  0  0  0  0  0  0  0
   60.5430   29.5950   45.9220 C   0  0  0  0  0  0  0  0  0  0  0  0
   61.3020   29.8963   45.1850 H   0  0  0  0  0  0  0  0  0  0  0  0
   59.6270   28.5880   45.6040 C   0  0  0  0  0  0  0  0  0  0  0  0
   59.6657   28.1020   44.6179 H   0  0  0  0  0  0  0  0  0  0  0  0
   58.6630   28.1980   46.5360 C   0  0  0  0  0  0  0  0  0  0  0  0
   57.9460   27.4023   46.2854 H   0  0  0  0  0  0  0  0  0  0  0  0
   58.6090   28.8190   47.7880 C   0  0  0  0  0  0  0  0  0  0  0  0
   57.8486   28.5072   48.5192 H   0  0  0  0  0  0  0  0  0  0  0  0
   59.5190   29.8390   48.1200 C   0  0  0  0  0  0  0  0  0  0  0  0
   59.4680   30.4250   49.4320 N   0  0  0  0  0  0  0  0  0  0  0  0
   58.8300   31.7320   49.6360 C   0  0  0  0  0  0  0  0  0  0  0  0
   59.6033   32.5142   49.6510 H   0  0  0  0  0  0  0  0  0  0  0  0
   58.1222   31.9152   48.8141 H   0  0  0  0  0  0  0  0  0  0  0  0
   58.0610   31.7530   50.9710 C   0  0  0  0  0  0  0  0  0  0  0  0
   58.7366   32.0855   51.7729 H   0  0  0  0  0  0  0  0  0  0  0  0
   57.2104   32.4447   50.8812 H   0  0  0  0  0  0  0  0  0  0  0  0
   57.5490   30.4040   51.2940 N   0  0  0  0  0  0  0  0  0  0  0  0
   56.9940   30.0490   50.4790 H   0  0  0  0  0  0  0  0  0  0  0  0
   56.6360   30.4630   52.4510 C   0  0  0  0  0  0  0  0  0  0  0  0
   57.2208   30.4252   53.3819 H   0  0  0  0  0  0  0  0  0  0  0  0
   56.0611   31.4002   52.4170 H   0  0  0  0  0  0  0  0  0  0  0  0
   55.9452   29.6076   52.4170 H   0  0  0  0  0  0  0  0  0  0  0  0
   58.6620   29.4550   51.5620 C   0  0  0  0  0  0  0  0  0  0  0  0
   59.0113   29.6076   52.5938 H   0  0  0  0  0  0  0  0  0  0  0  0
   58.2713   28.4387   51.4053 H   0  0  0  0  0  0  0  0  0  0  0  0
   59.8590   29.6400   50.6060 C   0  0  0  0  0  0  0  0  0  0  0  0
   60.6678   30.1632   51.1372 H   0  0  0  0  0  0  0  0  0  0  0  0
   60.2005   28.6494   50.2712 H   0  0  0  0  0  0  0  0  0  0  0  0
   59.1040   34.2350   47.6840 C   0  0  0  0  0  0  0  0  0  0  0  0
   58.3261   34.4846   48.4206 H   0  0  0  0  0  0  0  0  0  0  0  0
   58.6860   33.5330   46.4580 C   0  0  0  0  0  0  0  0  0  0  0  0
   58.9820   34.0970   45.2140 C   0  0  0  0  0  0  0  0  0  0  0  0
   59.5527   35.0359   45.1613 H   0  0  0  0  0  0  0  0  0  0  0  0
   58.5570   33.4750   44.0360 C   0  0  0  0  0  0  0  0  0  0  0  0
   58.8088   33.9251   43.0644 H   0  0  0  0  0  0  0  0  0  0  0  0
   57.8090   32.2770   44.0750 C   0  0  0  0  0  0  0  0  0  0  0  0
   57.4010   31.6150   42.8490 N   0  0  0  0  0  0  0  0  0  0  0  0
   56.7030   30.3230   42.8880 C   0  0  0  0  0  0  0  0  0  0  0  0
   56.5419   30.0247   43.9345 H   0  0  0  0  0  0  0  0  0  0  0  0
   55.7320   30.4153   42.3794 H   0  0  0  0  0  0  0  0  0  0  0  0
   57.3124   29.5615   42.3794 H   0  0  0  0  0  0  0  0  0  0  0  0
   57.6730   32.2330   41.5410 C   0  0  0  0  0  0  0  0  0  0  0  0
   58.1120   33.2304   41.6909 H   0  0  0  0  0  0  0  0  0  0  0  0
   58.3772   31.6034   40.9773 H   0  0  0  0  0  0  0  0  0  0  0  0
   56.7331   32.3270   40.9773 H   0  0  0  0  0  0  0  0  0  0  0  0
   57.4880   31.7400   45.3390 C   0  0  0  0  0  0  0  0  0  0  0  0
   56.8966   30.8146   45.4011 H   0  0  0  0  0  0  0  0  0  0  0  0
   57.9120   32.3690   46.5160 C   0  0  0  0  0  0  0  0  0  0  0  0
   57.6347   31.9452   47.4925 H   0  0  0  0  0  0  0  0  0  0  0  0
  1  2  1  0
  2  3  1  0
  3  4  2  0
  3  5  1  0
  5  6  1  0
  5  7  2  0
  7  8  1  0
  7  9  1  0
  9 10  2  0
 10 11  1  0
 10 12  1  0
 12 13  1  0
 12 14  2  0
 14 15  1  0
 14 16  1  0
 16 17  1  0
 16 18  2  0
 18 19  1  0
 19 20  1  0
 20 21  1  0
 20 22  1  0
 20 23  1  0
 23 24  1  0
 23 25  1  0
 23 26  1  0
 26 27  1  0
 26 28  1  0
 28 29  1  0
 28 30  1  0
 28 31  1  0
 26 32  1  0
 32 33  1  0
 32 34  1  0
 32 35  1  0
 35 36  1  0
 35 37  1  0
  2 38  2  3
 38 39  1  0
 38 40  1  0
 40 41  2  0
 41 42  1  0
 41 43  1  0
 43 44  1  0
 43 45  2  0
 45 46  1  0
 46 47  1  0
 47 48  1  0
 47 49  1  0
 47 50  1  0
 46 51  1  0
 51 52  1  0
 51 53  1  0
 51 54  1  0
 45 55  1  0
 55 56  1  0
 55 57  2  0
 57 58  1  0
 18  9  1  0
 35 19  1  0
 57 40  1  0
M  CHG  1  26   1
M  END
>  <UniqueID>  (3) 
3

>  <SMILES>  (3) 
CN(C)c1ccc(C=CC(=O)/C=C\c2ccccc2N2CC[NH+](C)CC2)cc1

>  <Energy>  (3) 
89.90344116419554

>  <Genealogy>  (3) 
CN(C)c1ccc(C=CC(=O)C=Cc2ccccc2N2CC[NH+](C)CC2)cc1 (protonated)
CN(C)c1ccc(C=CC(=O)/C=C\c2ccccc2N2CC[NH+](C)CC2)cc1 (cis-trans isomerization)
CN(C)c1ccc(C=CC(=O)/C=C\c2ccccc2N2CC[NH+](C)CC2)cc1 (3D coordinates assigned)
CN(C)c1ccc(C=CC(=O)/C=C\c2ccccc2N2CC[NH+](C)CC2)cc1 (nonaromatic ring conformer: 89.90344116419554 kcal/mol)

>  <smiles>  (3) 
CN1CCN(c2ccccc2C=CC(=O)C=Cc2ccc(N(C)C)cc2)CC1

>  <score_type>  (3) 
oracle

>  <origin>  (3) 
adg

>  <m_score__min__energy>  (3) 
-6.5700000000000003

>  <m_primary>  (3) 
energy

$$$$
3:0
     RDKit          3D

 42 44  0  0  0  0  0  0  0  0999 V2000
   64.8490   33.0960   49.7470 C   0  0  0  0  0  0  0  0  0  0  0  0
   63.5730   33.3650   49.1010 N   0  0  0  0  0  0  0  0  0  0  0  0
   63.2190   32.9670   47.8640 C   0  0  0  0  0  0  0  0  0  0  0  0
   61.9650   33.4770   47.6030 C   0  0  0  0  0  0  0  0  0  0  0  0
   61.1300   33.2560   46.3720 C   0  0  0  0  0  0  0  0  0  0  0  0
   59.8230   33.9530   46.4560 N   0  0  1  0  0  0  0  0  0  0  0  0
   59.3620   34.3680   45.0990 C   0  0  0  0  0  0  0  0  0  0  0  0
   58.4050   33.3490   44.4640 C   0  0  0  0  0  0  0  0  0  0  0  0
   57.1270   33.1680   45.3150 C   0  0  1  0  0  0  0  0  0  0  0  0
   56.6500   31.8240   45.2010 O   0  0  0  0  0  0  0  0  0  0  0  0
   57.4420   30.6900   44.9600 C   0  0  0  0  0  0  0  0  0  0  0  0
   58.6720   30.4630   45.6100 C   0  0  0  0  0  0  0  0  0  0  0  0
   59.4170   29.3140   45.3270 C   0  0  0  0  0  0  0  0  0  0  0  0
   58.9470   28.3840   44.3960 C   0  0  0  0  0  0  0  0  0  0  0  0
   57.7310   28.6050   43.7440 C   0  0  0  0  0  0  0  0  0  0  0  0
   56.9840   29.7530   44.0240 C   0  0  0  0  0  0  0  0  0  0  0  0
   57.3830   33.4790   46.8030 C   0  0  0  0  0  0  0  0  0  0  0  0
   58.8240   33.1300   47.1960 C   0  0  0  0  0  0  0  0  0  0  0  0
   61.6120   34.1830   48.7370 C   0  0  0  0  0  0  0  0  0  0  0  0
   62.6150   34.1080   49.6340 N   0  0  0  0  0  0  0  0  0  0  0  0
   64.7200   33.1232   50.8391 H   0  0  0  0  0  0  0  0  0  0  0  0
   65.2105   32.1019   49.4451 H   0  0  0  0  0  0  0  0  0  0  0  0
   65.5810   33.8596   49.4451 H   0  0  0  0  0  0  0  0  0  0  0  0
   63.8218   32.3468   47.1844 H   0  0  0  0  0  0  0  0  0  0  0  0
   61.6792   33.6347   45.4974 H   0  0  0  0  0  0  0  0  0  0  0  0
   60.9352   32.1771   46.2821 H   0  0  0  0  0  0  0  0  0  0  0  0
   59.9740   34.8350   47.0030 H   0  0  0  0  0  0  0  0  0  0  0  0
   60.2409   34.4798   44.4471 H   0  0  0  0  0  0  0  0  0  0  0  0
   58.8150   35.3161   45.2081 H   0  0  0  0  0  0  0  0  0  0  0  0
   58.9188   32.3800   44.3795 H   0  0  0  0  0  0  0  0  0  0  0  0
   58.1102   33.7226   43.4723 H   0  0  0  0  0  0  0  0  0  0  0  0
   56.3758   33.8751   44.9332 H   0  0  0  0  0  0  0  0  0  0  0  0
   59.0473   31.1926   46.3427 H   0  0  0  0  0  0  0  0  0  0  0  0
   60.3755   29.1418   45.8386 H   0  0  0  0  0  0  0  0  0  0  0  0
   59.5333   27.4794   44.1767 H   0  0  0  0  0  0  0  0  0  0  0  0
   57.3610   27.8746   43.0094 H   0  0  0  0  0  0  0  0  0  0  0  0
   56.0288   29.9222   43.5053 H   0  0  0  0  0  0  0  0  0  0  0  0
   56.6888   32.8883   47.4188 H   0  0  0  0  0  0  0  0  0  0  0  0
   57.2245   34.5548   46.9691 H   0  0  0  0  0  0  0  0  0  0  0  0
   59.0049   32.0680   46.9734 H   0  0  0  0  0  0  0  0  0  0  0  0
   58.9420   33.3390   48.2695 H   0  0  0  0  0  0  0  0  0  0  0  0
   60.6636   34.7205   48.8842 H   0  0  0  0  0  0  0  0  0  0  0  0
  1  2  1  0
  2  3  1  0
  3  4  2  0
  4  5  1  0
  5  6  1  0
  6  7  1  0
  7  8  1  0
  8  9  1  0
  9 10  1  0
 10 11  1  0
 11 12  2  0
 12 13  1  0
 13 14  2  0
 14 15  1  0
 15 16  2  0
  9 17  1  0
 17 18  1  0
  4 19  1  0
 19 20  2  0
 20  2  1  0
 18  6  1  0
 16 11  1  0
  1 21  1  0
  1 22  1  0
  1 23  1  0
  3 24  1  0
  5 25  1  0
  5 26  1  0
  6 27  1  1
  7 28  1  0
  7 29  1  0
  8 30  1  0
  8 31  1  0
  9 32  1  6
 12 33  1  0
 13 34  1  0
 14 35  1  0
 15 36  1  0
 16 37  1  0
 17 38  1  0
 17 39  1  0
 18 40  1  0
 18 41  1  0
 19 42  1  0
M  CHG  1   6   1
M  END
>  <UniqueID>  (4) 
4

>  <SMILES>  (4) 
Cn1cc(C[NH+]2CCC(Oc3ccccc3)CC2)cn1

>  <Energy>  (4) 
80.48429840605846

>  <Genealogy>  (4) 
Cn1cc(C[NH+]2CCC(Oc3ccccc3)CC2)cn1 (protonated)
Cn1cc(C[NH+]2CCC(Oc3ccccc3)CC2)cn1 (3D coordinates assigned)
Cn1cc(C[NH+]2CCC(Oc3ccccc3)CC2)cn1 (nonaromatic ring conformer: 80.48429840605846 kcal/mol)

>  <smiles>  (4) 
Cn1cc(CN2CCC(Oc3ccccc3)CC2)cn1

>  <score_type>  (4) 
oracle

>  <origin>  (4) 
adg

>  <m_score__min__energy>  (4) 
-5.6799999999999997

>  <m_primary>  (4) 
energy

$$$$
4:0
     RDKit          3D

 45 46  0  0  0  0  0  0  0  0999 V2000
   57.7660   32.3310   41.0940 C   0  0  0  0  0  0  0  0  0  0  0  0
   57.7270   32.0860   42.5730 C   0  0  0  0  0  0  0  0  0  0  0  0
   58.1680   33.0730   43.4650 C   0  0  0  0  0  0  0  0  0  0  0  0
   58.1880   32.8270   44.8460 C   0  0  0  0  0  0  0  0  0  0  0  0
   58.6220   33.9010   45.7980 C   0  0  0  0  0  0  0  0  0  0  0  0
   57.7390   31.5910   45.3340 C   0  0  0  0  0  0  0  0  0  0  0  0
   57.2950   30.5930   44.4510 C   0  0  0  0  0  0  0  0  0  0  0  0
   56.8500   29.2820   44.9750 C   0  0  0  0  0  0  0  0  0  0  0  0
   55.6180   29.0170   45.0040 O   0  0  0  0  0  0  0  0  0  0  0  0
   57.7980   28.3020   45.4380 N   0  0  0  0  0  0  0  0  0  0  0  0
   58.8280   28.6800   46.4130 C   0  0  0  0  0  0  0  0  0  0  0  0
   58.6670   27.8690   47.7070 C   0  0  0  0  0  0  0  0  0  0  0  0
   58.3030   26.3860   47.4630 C   0  0  0  0  0  0  0  0  0  0  0  0
   58.4570   25.9590   45.9880 C   0  0  1  0  0  0  0  0  0  0  0  0
   58.0540   24.4850   45.7750 C   0  0  0  0  0  0  0  0  0  0  0  0
   56.9400   24.0910   46.6420 N   0  0  0  0  0  0  0  0  0  0  0  0
   55.3880   24.4610   45.9420 S   0  0  0  0  0  0  0  0  0  0  0  0
   55.3570   23.8960   44.2550 C   0  0  0  0  0  0  0  0  0  0  0  0
   55.1000   25.9370   45.9780 O   0  0  0  0  0  0  0  0  0  0  0  0
   54.3220   23.7370   46.7140 O   0  0  0  0  0  0  0  0  0  0  0  0
   57.6080   26.8840   45.0910 C   0  0  0  0  0  0  0  0  0  0  0  0
   57.3160   30.8390   43.0690 C   0  0  0  0  0  0  0  0  0  0  0  0
   57.9363   33.4010   40.9040 H   0  0  0  0  0  0  0  0  0  0  0  0
   58.5821   31.7447   40.6466 H   0  0  0  0  0  0  0  0  0  0  0  0
   56.8082   32.0270   40.6466 H   0  0  0  0  0  0  0  0  0  0  0  0
   58.5009   34.0479   43.0793 H   0  0  0  0  0  0  0  0  0  0  0  0
   58.4814   33.5531   46.8320 H   0  0  0  0  0  0  0  0  0  0  0  0
   59.6842   34.1324   45.6302 H   0  0  0  0  0  0  0  0  0  0  0  0
   58.0188   34.8054   45.6302 H   0  0  0  0  0  0  0  0  0  0  0  0
   57.7346   31.4017   46.4176 H   0  0  0  0  0  0  0  0  0  0  0  0
   59.8218   28.4839   45.9841 H   0  0  0  0  0  0  0  0  0  0  0  0
   58.7205   29.7493   46.6476 H   0  0  0  0  0  0  0  0  0  0  0  0
   59.6154   27.9080   48.2629 H   0  0  0  0  0  0  0  0  0  0  0  0
   57.8355   28.3184   48.2697 H   0  0  0  0  0  0  0  0  0  0  0  0
   58.9623   25.7577   48.0799 H   0  0  0  0  0  0  0  0  0  0  0  0
   57.2438   26.2600   47.7318 H   0  0  0  0  0  0  0  0  0  0  0  0
   59.5180   26.0512   45.7127 H   0  0  0  0  0  0  0  0  0  0  0  0
   57.7539   24.3467   44.7258 H   0  0  0  0  0  0  0  0  0  0  0  0
   58.9203   23.8555   46.0267 H   0  0  0  0  0  0  0  0  0  0  0  0
   55.2967   22.7978   44.2372 H   0  0  0  0  0  0  0  0  0  0  0  0
   54.4807   24.3197   43.7425 H   0  0  0  0  0  0  0  0  0  0  0  0
   56.2743   24.2213   43.7425 H   0  0  0  0  0  0  0  0  0  0  0  0
   57.9016   26.7311   44.0420 H   0  0  0  0  0  0  0  0  0  0  0  0
   56.5482   26.6322   45.2440 H   0  0  0  0  0  0  0  0  0  0  0  0
   57.0079   30.0481   42.3693 H   0  0  0  0  0  0  0  0  0  0  0  0
  1  2  1  0
  2  3  2  0
  3  4  1  0
  4  5  1  0
  4  6  2  0
  6  7  1  0
  7  8  1  0
  8  9  2  0
  8 10  1  0
 10 11  1  0
 11 12  1  0
 12 13  1  0
 13 14  1  0
 14 15  1  0
 15 16  1  0
 16 17  1  0
 17 18  1  0
 17 19  2  0
 17 20  2  0
 14 21  1  0
  7 22  2  0
 22  2  1  0
 21 10  1  0
  1 23  1  0
  1 24  1  0
  1 25  1  0
  3 26  1  0
  5 27  1  0
  5 28  1  0
  5 29  1  0
  6 30  1  0
 11 31  1  0
 11 32  1  0
 12 33  1  0
 12 34  1  0
 13 35  1  0
 13 36  1  0
 14 37  1  6
 15 38  1  0
 15 39  1  0
 18 40  1  0
 18 41  1  0
 18 42  1  0
 21 43  1  0
 21 44  1  0
 22 45  1  0
M  CHG  1  16  -1
M  END
>  <UniqueID>  (5) 
5

>  <SMILES>  (5) 
Cc1cc(C)cc(C(=O)N2CCC[C@@H](C[N-]S(C)(=O)=O)C2)c1

>  <Energy>  (5) 
43.46606665859944

>  <Genealogy>  (5) 
Cc1cc(C)cc(C(=O)N2CCCC(C[N-]S(C)(=O)=O)C2)c1 (protonated)
Cc1cc(C)cc(C(=O)N2CCC[C@@H](C[N-]S(C)(=O)=O)C2)c1 (chirality)
Cc1cc(C)cc(C(=O)N2CCC[C@@H](C[N-]S(C)(=O)=O)C2)c1 (3D coordinates assigned)
Cc1cc(C)cc(C(=O)N2CCC[C@@H](C[N-]S(C)(=O)=O)C2)c1 (nonaromatic ring conformer: 43.46606665859944 kcal/mol)

>  <smiles>  (5) 
Cc1cc(C)cc(C(=O)N2CCCC(CNS(C)(=O)=O)C2)c1

>  <score_type>  (5) 
oracle

>  <origin>  (5) 
adg

>  <m_score__min__energy>  (5) 
-10.6

>  <m_primary>  (5) 
energy

$$$$
5:0
     RDKit          3D

 33 35  0  0  0  0  0  0  0  0999 V2000
   57.6600   34.5440   44.8690 C   0  0  0  0  0  0  0  0  0  0  0  0
   58.5310   33.6420   45.6130 N   0  0  0  0  0  0  0  0  0  0  0  0
   59.6320   34.0350   46.2340 N   0  0  0  0  0  0  0  0  0  0  0  0
   60.2240   32.9420   46.7610 C   0  0  0  0  0  0  0  0  0  0  0  0
   61.4610   33.0120   47.5680 C   0  0  0  0  0  0  0  0  0  0  0  0
   61.5150   33.7430   48.7640 C   0  0  0  0  0  0  0  0  0  0  0  0
   62.7010   33.8020   49.4960 C   0  0  0  0  0  0  0  0  0  0  0  0
   63.8340   33.1390   49.0190 C   0  0  0  0  0  0  0  0  0  0  0  0
   63.7780   32.4500   47.8480 N   0  0  0  0  0  0  0  0  0  0  0  0
   62.6310   32.3790   47.1180 C   0  0  0  0  0  0  0  0  0  0  0  0
   59.4720   31.8100   46.4450 C   0  0  0  0  0  0  0  0  0  0  0  0
   59.8010   30.3870   46.6870 C   0  0  0  0  0  0  0  0  0  0  0  0
   59.8710   29.8900   47.9990 C   0  0  0  0  0  0  0  0  0  0  0  0
   60.1790   28.5450   48.2270 C   0  0  0  0  0  0  0  0  0  0  0  0
   60.4160   27.6880   47.1500 C   0  0  0  0  0  0  0  0  0  0  0  0
   60.3410   28.1740   45.8420 C   0  0  0  0  0  0  0  0  0  0  0  0
   60.0320   29.5170   45.6090 C   0  0  0  0  0  0  0  0  0  0  0  0
   58.4050   32.3040   45.7150 C   0  0  0  0  0  0  0  0  0  0  0  0
   57.3780   31.5260   45.0650 C   0  0  0  0  0  0  0  0  0  0  0  0
   56.5540   30.9030   44.5440 N   0  0  0  0  0  0  0  0  0  0  0  0
   57.0733   35.1515   45.5738 H   0  0  0  0  0  0  0  0  0  0  0  0
   58.2709   35.2044   44.2359 H   0  0  0  0  0  0  0  0  0  0  0  0
   56.9787   33.9566   44.2359 H   0  0  0  0  0  0  0  0  0  0  0  0
   60.6202   34.2709   49.1254 H   0  0  0  0  0  0  0  0  0  0  0  0
   62.7435   34.3653   50.4399 H   0  0  0  0  0  0  0  0  0  0  0  0
   64.7727   33.1742   49.5913 H   0  0  0  0  0  0  0  0  0  0  0  0
   64.6350   31.9650   47.5000 H   0  0  0  0  0  0  0  0  0  0  0  0
   62.6207   31.8221   46.1694 H   0  0  0  0  0  0  0  0  0  0  0  0
   59.6829   30.5611   48.8500 H   0  0  0  0  0  0  0  0  0  0  0  0
   60.2347   28.1614   49.2564 H   0  0  0  0  0  0  0  0  0  0  0  0
   60.6615   26.6312   47.3312 H   0  0  0  0  0  0  0  0  0  0  0  0
   60.5255   27.4982   44.9940 H   0  0  0  0  0  0  0  0  0  0  0  0
   59.9695   29.8939   44.5775 H   0  0  0  0  0  0  0  0  0  0  0  0
  1  2  1  0
  2  3  1  0
  3  4  2  0
  4  5  1  0
  5  6  2  0
  6  7  1  0
  7  8  2  0
  8  9  1  0
  9 10  2  0
  4 11  1  0
 11 12  1  0
 12 13  2  0
 13 14  1  0
 14 15  2  0
 15 16  1  0
 16 17  2  0
 11 18  2  0
 18 19  1  0
 19 20  3  0
 18  2  1  0
 10  5  1  0
 17 12  1  0
  1 21  1  0
  1 22  1  0
  1 23  1  0
  6 24  1  0
  7 25  1  0
  8 26  1  0
  9 27  1  0
 10 28  1  0
 13 29  1  0
 14 30  1  0
 15 31  1  0
 16 32  1  0
 17 33  1  0
M  CHG  1   9   1
M  END
>  <UniqueID>  (6) 
6

>  <SMILES>  (6) 
Cn1nc(-c2ccc[nH+]c2)c(-c2ccccc2)c1C#N

>  <Energy>  (6) 
73.49782679990993

>  <Genealogy>  (6) 
Cn1nc(-c2ccc[nH+]c2)c(-c2ccccc2)c1C#N (protonated)
Cn1nc(-c2ccc[nH+]c2)c(-c2ccccc2)c1C#N (3D coordinates assigned)
Cn1nc(-c2ccc[nH+]c2)c(-c2ccccc2)c1C#N (optimized conformer: 73.49782679990993 kcal/mol)

>  <smiles>  (6) 
Cn1nc(-c2cccnc2)c(-c2ccccc2)c1C#N

>  <score_type>  (6) 
oracle

>  <origin>  (6) 
adg

>  <m_score__min__energy>  (6) 
-5.8600000000000003

>  <m_primary>  (6) 
energy

$$$$
6:0
     RDKit          3D

 45 47  0  0  0  0  0  0  0  0999 V2000
   57.9970   32.3700   42.4440 C   0  0  0  0  0  0  0  0  0  0  0  0
   57.8840   32.6360   43.8750 N   0  0  0  0  0  0  0  0  0  0  0  0
   58.1410   33.8010   44.4920 C   0  0  0  0  0  0  0  0  0  0  0  0
   57.8150   33.6590   45.8230 C   0  0  0  0  0  0  0  0  0  0  0  0
   57.3410   32.4160   46.0440 N   0  0  0  0  0  0  0  0  0  0  0  0
   57.3960   31.8200   44.8330 C   0  0  0  0  0  0  0  0  0  0  0  0
   56.9020   30.4210   44.5920 C   0  0  0  0  0  0  0  0  0  0  0  0
   57.9020   29.4060   44.9970 N   0  0  0  0  0  0  0  0  0  0  0  0
   59.2550   29.6940   44.4830 C   0  0  0  0  0  0  0  0  0  0  0  0
   60.3070   28.6380   44.8620 C   0  0  0  0  0  0  0  0  0  0  0  0
   60.7090   28.7280   46.3450 C   0  0  0  0  0  0  0  0  0  0  0  0
   60.1610   29.9150   47.0410 N   0  0  0  0  0  0  0  0  0  0  0  0
   60.9830   30.2470   48.2250 C   0  0  0  0  0  0  0  0  0  0  0  0
   61.7690   31.5080   47.9800 C   0  0  0  0  0  0  0  0  0  0  0  0
   62.8720   31.8130   48.7930 C   0  0  0  0  0  0  0  0  0  0  0  0
   63.6040   32.9750   48.5500 C   0  0  0  0  0  0  0  0  0  0  0  0
   63.2350   33.8200   47.5030 C   0  0  0  0  0  0  0  0  0  0  0  0
   62.1350   33.4880   46.7110 C   0  0  0  0  0  0  0  0  0  0  0  0
   61.4290   32.3510   46.9600 N   0  0  0  0  0  0  0  0  0  0  0  0
   58.7130   29.8670   47.3640 C   0  0  0  0  0  0  0  0  0  0  0  0
   57.8700   28.9800   46.4180 C   0  0  0  0  0  0  0  0  0  0  0  0
   58.4229   31.3676   42.2899 H   0  0  0  0  0  0  0  0  0  0  0  0
   57.0000   32.4198   41.9819 H   0  0  0  0  0  0  0  0  0  0  0  0
   58.6533   33.1222   41.9819 H   0  0  0  0  0  0  0  0  0  0  0  0
   58.5415   34.7091   44.0178 H   0  0  0  0  0  0  0  0  0  0  0  0
   57.9247   34.4407   46.5891 H   0  0  0  0  0  0  0  0  0  0  0  0
   55.9806   30.2641   45.1721 H   0  0  0  0  0  0  0  0  0  0  0  0
   56.7157   30.3056   43.5141 H   0  0  0  0  0  0  0  0  0  0  0  0
   59.2029   29.7519   43.3858 H   0  0  0  0  0  0  0  0  0  0  0  0
   59.5749   30.6407   44.9429 H   0  0  0  0  0  0  0  0  0  0  0  0
   59.8922   27.6381   44.6669 H   0  0  0  0  0  0  0  0  0  0  0  0
   61.2059   28.8223   44.2554 H   0  0  0  0  0  0  0  0  0  0  0  0
   60.3450   27.8259   46.8585 H   0  0  0  0  0  0  0  0  0  0  0  0
   61.8051   28.8159   46.3755 H   0  0  0  0  0  0  0  0  0  0  0  0
   60.3247   30.3930   49.0941 H   0  0  0  0  0  0  0  0  0  0  0  0
   61.6835   29.4208   48.4167 H   0  0  0  0  0  0  0  0  0  0  0  0
   63.1568   31.1405   49.6156 H   0  0  0  0  0  0  0  0  0  0  0  0
   64.4693   33.2244   49.1817 H   0  0  0  0  0  0  0  0  0  0  0  0
   63.8056   34.7391   47.3037 H   0  0  0  0  0  0  0  0  0  0  0  0
   61.8373   34.1475   45.8825 H   0  0  0  0  0  0  0  0  0  0  0  0
   60.6130   32.1280   46.3470 H   0  0  0  0  0  0  0  0  0  0  0  0
   58.6027   29.4785   48.3872 H   0  0  0  0  0  0  0  0  0  0  0  0
   58.3342   30.8932   47.2482 H   0  0  0  0  0  0  0  0  0  0  0  0
   58.2524   27.9504   46.4783 H   0  0  0  0  0  0  0  0  0  0  0  0
   56.8251   29.0662   46.7508 H   0  0  0  0  0  0  0  0  0  0  0  0
  1  2  1  0
  2  3  1  0
  3  4  2  0
  4  5  1  0
  5  6  2  0
  6  7  1  0
  7  8  1  0
  8  9  1  0
  9 10  1  0
 10 11  1  0
 11 12  1  0
 12 13  1  0
 13 14  1  0
 14 15  2  0
 15 16  1  0
 16 17  2  0
 17 18  1  0
 18 19  2  0
 12 20  1  0
 20 21  1  0
  6  2  1  0
 21  8  1  0
 19 14  1  0
  1 22  1  0
  1 23  1  0
  1 24  1  0
  3 25  1  0
  4 26  1  0
  7 27  1  0
  7 28  1  0
  9 29  1  0
  9 30  1  0
 10 31  1  0
 10 32  1  0
 11 33  1  0
 11 34  1  0
 13 35  1  0
 13 36  1  0
 15 37  1  0
 16 38  1  0
 17 39  1  0
 18 40  1  0
 19 41  1  0
 20 42  1  0
 20 43  1  0
 21 44  1  0
 21 45  1  0
M  CHG  1  19   1
M  END
>  <UniqueID>  (7) 
7

>  <SMILES>  (7) 
Cn1ccnc1CN1CCCN(Cc2cccc[nH+]2)CC1

>  <Energy>  (7) 
91.7950994700744

>  <Genealogy>  (7) 
Cn1ccnc1CN1CCCN(Cc2cccc[nH+]2)CC1 (protonated)
Cn1ccnc1CN1CCCN(Cc2cccc[nH+]2)CC1 (3D coordinates assigned)
Cn1ccnc1CN1CCCN(Cc2cccc[nH+]2)CC1 (nonaromatic ring conformer: 91.7950994700744 kcal/mol)

>  <smiles>  (7) 
Cn1ccnc1CN1CCCN(Cc2ccccn2)CC1

>  <score_type>  (7) 
oracle

>  <origin>  (7) 
adg

>  <m_score__min__energy>  (7) 
-3.8999999999999999

>  <m_primary>  (7) 
energy

$$$$
7:0
     RDKit          3D

 49 52  0  0  0  0  0  0  0  0999 V2000
   56.7020   33.4600   47.4880 O   0  0  0  0  0  0  0  0  0  0  0  0
   57.4320   32.8360   46.6780 C   0  0  0  0  0  0  0  0  0  0  0  0
   57.5390   32.7800   45.1870 C   0  0  1  0  0  0  0  0  0  0  0  0
   57.9610   34.1390   44.5950 C   0  0  0  0  0  0  0  0  0  0  0  0
   59.4390   34.4620   44.9000 C   0  0  0  0  0  0  0  0  0  0  0  0
   59.6470   35.0730   46.3010 C   0  0  0  0  0  0  0  0  0  0  0  0
   60.7050   34.3160   47.0590 C   0  0  0  0  0  0  0  0  0  0  0  0
   60.6390   34.2560   48.4600 C   0  0  0  0  0  0  0  0  0  0  0  0
   61.6750   33.6590   49.1920 C   0  0  0  0  0  0  0  0  0  0  0  0
   62.7890   33.1360   48.5290 C   0  0  0  0  0  0  0  0  0  0  0  0
   62.8580   33.1810   47.1340 C   0  0  0  0  0  0  0  0  0  0  0  0
   61.8190   33.7630   46.4000 C   0  0  0  0  0  0  0  0  0  0  0  0
   58.6210   31.8280   45.3460 C   0  0  2  0  0  0  0  0  0  0  0  0
   58.3330   30.4660   44.7440 C   0  0  0  0  0  0  0  0  0  0  0  0
   57.1780   30.3100   43.9570 C   0  0  0  0  0  0  0  0  0  0  0  0
   56.9020   29.0900   43.3360 C   0  0  0  0  0  0  0  0  0  0  0  0
   57.7760   28.0140   43.4930 C   0  0  0  0  0  0  0  0  0  0  0  0
   58.9130   28.1440   44.3060 C   0  0  0  0  0  0  0  0  0  0  0  0
   59.1820   29.3610   44.9360 C   0  0  0  0  0  0  0  0  0  0  0  0
   58.5320   31.8490   46.7960 N   0  0  0  0  0  0  0  0  0  0  0  0
   59.2530   31.2440   47.8770 C   0  0  0  0  0  0  0  0  0  0  0  0
   58.8030   31.3950   49.2030 C   0  0  0  0  0  0  0  0  0  0  0  0
   59.5210   30.8220   50.2580 C   0  0  0  0  0  0  0  0  0  0  0  0
   60.6810   30.0810   49.9960 C   0  0  0  0  0  0  0  0  0  0  0  0
   61.1310   29.9310   48.6820 C   0  0  0  0  0  0  0  0  0  0  0  0
   60.4210   30.5080   47.6200 C   0  0  0  0  0  0  0  0  0  0  0  0
   56.6843   32.5434   44.5362 H   0  0  0  0  0  0  0  0  0  0  0  0
   57.8201   34.1116   43.5044 H   0  0  0  0  0  0  0  0  0  0  0  0
   57.3380   34.9207   45.0543 H   0  0  0  0  0  0  0  0  0  0  0  0
   60.0218   33.5315   44.8336 H   0  0  0  0  0  0  0  0  0  0  0  0
   59.7708   35.2086   44.1635 H   0  0  0  0  0  0  0  0  0  0  0  0
   59.9597   36.1222   46.1947 H   0  0  0  0  0  0  0  0  0  0  0  0
   58.7004   35.0119   46.8580 H   0  0  0  0  0  0  0  0  0  0  0  0
   59.7705   34.6793   48.9858 H   0  0  0  0  0  0  0  0  0  0  0  0
   61.6112   33.6021   50.2887 H   0  0  0  0  0  0  0  0  0  0  0  0
   63.6119   32.6887   49.1058 H   0  0  0  0  0  0  0  0  0  0  0  0
   63.7297   32.7586   46.6128 H   0  0  0  0  0  0  0  0  0  0  0  0
   61.8729   33.7886   45.3016 H   0  0  0  0  0  0  0  0  0  0  0  0
   59.5878   32.0480   44.8696 H   0  0  0  0  0  0  0  0  0  0  0  0
   56.4864   31.1558   43.8295 H   0  0  0  0  0  0  0  0  0  0  0  0
   55.9955   28.9774   42.7231 H   0  0  0  0  0  0  0  0  0  0  0  0
   57.5739   27.0626   42.9791 H   0  0  0  0  0  0  0  0  0  0  0  0
   59.5907   27.2890   44.4466 H   0  0  0  0  0  0  0  0  0  0  0  0
   60.0637   29.4561   45.5868 H   0  0  0  0  0  0  0  0  0  0  0  0
   57.8850   31.9647   49.4095 H   0  0  0  0  0  0  0  0  0  0  0  0
   59.1748   30.9532   51.2938 H   0  0  0  0  0  0  0  0  0  0  0  0
   61.2370   29.6177   50.8244 H   0  0  0  0  0  0  0  0  0  0  0  0
   62.0473   29.3571   48.4797 H   0  0  0  0  0  0  0  0  0  0  0  0
   60.7782   30.3845   46.5870 H   0  0  0  0  0  0  0  0  0  0  0  0
  1  2  2  0
  2  3  1  0
  3  4  1  0
  4  5  1  0
  5  6  1  0
  6  7  1  0
  7  8  2  0
  8  9  1  0
  9 10  2  0
 10 11  1  0
 11 12  2  0
  3 13  1  0
 13 14  1  0
 14 15  2  0
 15 16  1  0
 16 17  2  0
 17 18  1  0
 18 19  2  0
 13 20  1  0
 20 21  1  0
 21 22  2  0
 22 23  1  0
 23 24  2  0
 24 25  1  0
 25 26  2  0
 20  2  1  0
 26 21  1  0
 12  7  1  0
 19 14  1  0
  3 27  1  6
  4 28  1  0
  4 29  1  0
  5 30  1  0
  5 31  1  0
  6 32  1  0
  6 33  1  0
  8 34  1  0
  9 35  1  0
 10 36  1  0
 11 37  1  0
 12 38  1  0
 13 39  1  1
 15 40  1  0
 16 41  1  0
 17 42  1  0
 18 43  1  0
 19 44  1  0
 22 45  1  0
 23 46  1  0
 24 47  1  0
 25 48  1  0
 26 49  1  0
M  END
>  <UniqueID>  (8) 
8

>  <SMILES>  (8) 
O=C1[C@@H](CCCc2ccccc2)[C@H](c2ccccc2)N1c1ccccc1

>  <Energy>  (8) 
82.7648873831747

>  <Genealogy>  (8) 
O=C1[C@@H](CCCc2ccccc2)[C@H](c2ccccc2)N1c1ccccc1 (chirality)
O=C1[C@@H](CCCc2ccccc2)[C@H](c2ccccc2)N1c1ccccc1 (3D coordinates assigned)
O=C1[C@@H](CCCc2ccccc2)[C@H](c2ccccc2)N1c1ccccc1 (nonaromatic ring conformer: 82.7648873831747 kcal/mol)

>  <smiles>  (8) 
O=C1C(CCCc2ccccc2)C(c2ccccc2)N1c1ccccc1

>  <score_type>  (8) 
oracle

>  <origin>  (8) 
adg

>  <m_score__min__energy>  (8) 
-8.5399999999999991

>  <m_primary>  (8) 
energy

$$$$
8:0
     RDKit          3D

 24 24  0  0  0  0  0  0  0  0999 V2000
   58.1121   26.5889   44.8886 H   0  0  0  0  0  0  0  0  0  0  0  0
   57.4100   27.4220   45.0400 C   0  0  0  0  0  0  0  0  0  0  0  0
   56.5780   27.3770   46.0320 N   0  0  0  0  0  0  0  0  0  0  0  0
   55.4390   26.6040   45.9880 O   0  0  0  0  0  0  0  0  0  0  0  0
   55.5320   25.1900   45.9460 C   0  0  0  0  0  0  0  0  0  0  0  0
   55.5581   24.7936   46.9718 H   0  0  0  0  0  0  0  0  0  0  0  0
   54.6588   24.7807   45.4168 H   0  0  0  0  0  0  0  0  0  0  0  0
   56.4513   24.8986   45.4168 H   0  0  0  0  0  0  0  0  0  0  0  0
   57.4370   28.5880   44.0910 C   0  0  0  0  0  0  0  0  0  0  0  0
   58.4827   28.8620   43.8876 H   0  0  0  0  0  0  0  0  0  0  0  0
   56.9273   28.2947   43.1614 H   0  0  0  0  0  0  0  0  0  0  0  0
   56.7220   29.7760   44.6750 C   0  0  0  0  0  0  0  0  0  0  0  0
   55.4810   29.6820   44.8750 O   0  0  0  0  0  0  0  0  0  0  0  0
   57.4220   31.0530   44.9940 C   0  0  0  0  0  0  0  0  0  0  0  0
   57.3750   32.1580   44.1210 C   0  0  0  0  0  0  0  0  0  0  0  0
   56.8119   32.0855   43.1789 H   0  0  0  0  0  0  0  0  0  0  0  0
   58.0390   33.3470   44.4430 C   0  0  0  0  0  0  0  0  0  0  0  0
   57.9976   34.2024   43.7526 H   0  0  0  0  0  0  0  0  0  0  0  0
   58.7540   33.4510   45.6380 C   0  0  0  0  0  0  0  0  0  0  0  0
   59.5830   34.9440   46.0390 Cl  0  0  0  0  0  0  0  0  0  0  0  0
   58.8050   32.3640   46.5140 C   0  0  0  0  0  0  0  0  0  0  0  0
   59.3671   32.4449   47.4561 H   0  0  0  0  0  0  0  0  0  0  0  0
   58.1440   31.1740   46.1970 C   0  0  0  0  0  0  0  0  0  0  0  0
   58.1882   30.3240   46.8938 H   0  0  0  0  0  0  0  0  0  0  0  0
  1  2  1  0
  2  3  2  0
  3  4  1  0
  4  5  1  0
  5  6  1  0
  5  7  1  0
  5  8  1  0
  2  9  1  0
  9 10  1  0
  9 11  1  0
  9 12  1  0
 12 13  2  0
 12 14  1  0
 14 15  2  0
 15 16  1  0
 15 17  1  0
 17 18  1  0
 17 19  2  0
 19 20  1  0
 19 21  1  0
 21 22  1  0
 21 23  2  0
 23 24  1  0
 23 14  1  0
M  END
>  <UniqueID>  (9) 
9

>  <SMILES>  (9) 
CO/N=C\CC(=O)c1ccc(Cl)cc1

>  <Energy>  (9) 
18.118212592910858

>  <Genealogy>  (9) 
CO/N=C\CC(=O)c1ccc(Cl)cc1 (cis-trans isomerization)
CO/N=C\CC(=O)c1ccc(Cl)cc1 (3D coordinates assigned)
CO/N=C\CC(=O)c1ccc(Cl)cc1 (optimized conformer: 18.118212592910858 kcal/mol)

>  <smiles>  (9) 
CON=CCC(=O)c1ccc(Cl)cc1

>  <score_type>  (9) 
oracle

>  <origin>  (9) 
adg

>  <m_score__min__energy>  (9) 
-6.5199999999999996

>  <m_primary>  (9) 
energy

$$$$
9:0
     RDKit          3D

 33 34  0  0  0  0  0  0  0  0999 V2000
   63.7550   32.7210   47.8850 C   0  0  0  0  0  0  0  0  0  0  0  0
   63.3120   33.8120   46.9130 C   0  0  0  0  0  0  0  0  0  0  0  0
   61.7900   33.8220   46.7450 C   0  0  0  0  0  0  0  0  0  0  0  0
   61.1470   34.1000   48.0430 N   0  0  0  0  0  0  0  0  0  0  0  0
   59.6830   34.1770   47.9450 C   0  0  0  0  0  0  0  0  0  0  0  0
   59.2140   33.7100   46.6010 C   0  0  0  0  0  0  0  0  0  0  0  0
   58.8610   32.4090   46.2710 C   0  0  0  0  0  0  0  0  0  0  0  0
   58.3600   32.2810   44.9610 C   0  0  0  0  0  0  0  0  0  0  0  0
   57.8950   30.9970   44.3820 C   0  0  0  0  0  0  0  0  0  0  0  0
   56.7830   30.9590   43.5240 C   0  0  0  0  0  0  0  0  0  0  0  0
   56.3600   29.7390   42.9910 C   0  0  0  0  0  0  0  0  0  0  0  0
   57.0170   28.5900   43.3020 N   0  0  0  0  0  0  0  0  0  0  0  0
   58.0950   28.5930   44.1320 C   0  0  0  0  0  0  0  0  0  0  0  0
   58.7260   27.4300   44.4280 F   0  0  0  0  0  0  0  0  0  0  0  0
   58.5530   29.7920   44.6850 C   0  0  0  0  0  0  0  0  0  0  0  0
   58.3270   33.4960   44.2720 C   0  0  0  0  0  0  0  0  0  0  0  0
   58.8950   34.7080   45.2900 S   0  0  0  0  0  0  0  0  0  0  0  0
   63.6130   33.0707   48.9182 H   0  0  0  0  0  0  0  0  0  0  0  0
   63.1534   31.8153   47.7185 H   0  0  0  0  0  0  0  0  0  0  0  0
   64.8177   32.4910   47.7185 H   0  0  0  0  0  0  0  0  0  0  0  0
   63.6364   34.7895   47.2993 H   0  0  0  0  0  0  0  0  0  0  0  0
   63.7685   33.6103   45.9327 H   0  0  0  0  0  0  0  0  0  0  0  0
   61.5072   34.6019   46.0227 H   0  0  0  0  0  0  0  0  0  0  0  0
   61.4582   32.8396   46.3778 H   0  0  0  0  0  0  0  0  0  0  0  0
   61.4830   35.0330   48.3810 H   0  0  0  0  0  0  0  0  0  0  0  0
   59.2356   33.5418   48.7237 H   0  0  0  0  0  0  0  0  0  0  0  0
   59.3753   35.2243   48.0813 H   0  0  0  0  0  0  0  0  0  0  0  0
   58.9625   31.5612   46.9644 H   0  0  0  0  0  0  0  0  0  0  0  0
   56.2475   31.8865   43.2729 H   0  0  0  0  0  0  0  0  0  0  0  0
   55.4915   29.7078   42.3167 H   0  0  0  0  0  0  0  0  0  0  0  0
   56.6870   27.6870   42.8950 H   0  0  0  0  0  0  0  0  0  0  0  0
   59.4254   29.7930   45.3551 H   0  0  0  0  0  0  0  0  0  0  0  0
   57.9861   33.6365   43.2356 H   0  0  0  0  0  0  0  0  0  0  0  0
  1  2  1  0
  2  3  1  0
  3  4  1  0
  4  5  1  0
  5  6  1  0
  6  7  2  0
  7  8  1  0
  8  9  1  0
  9 10  2  0
 10 11  1  0
 11 12  2  0
 12 13  1  0
 13 14  1  0
 13 15  2  0
  8 16  2  0
 16 17  1  0
 17  6  1  0
 15  9  1  0
  1 18  1  0
  1 19  1  0
  1 20  1  0
  2 21  1  0
  2 22  1  0
  3 23  1  0
  3 24  1  0
  4 25  1  0
  5 26  1  0
  5 27  1  0
  7 28  1  0
 10 29  1  0
 11 30  1  0
 12 31  1  0
 15 32  1  0
 16 33  1  0
M  CHG  1  12   1
M  END
>  <UniqueID>  (10) 
10

>  <SMILES>  (10) 
CCCNCc1cc(-c2cc[nH+]c(F)c2)cs1

>  <Energy>  (10) 
56.44028776527626

>  <Genealogy>  (10) 
CCCNCc1cc(-c2cc[nH+]c(F)c2)cs1 (protonated)
CCCNCc1cc(-c2cc[nH+]c(F)c2)cs1 (3D coordinates assigned)
CCCNCc1cc(-c2cc[nH+]c(F)c2)cs1 (optimized conformer: 56.44028776527626 kcal/mol)

>  <smiles>  (10) 
CCCNCc1cc(-c2ccnc(F)c2)cs1

>  <score_type>  (10) 
oracle

>  <origin>  (10) 
adg

>  <m_score__min__energy>  (10) 
-5.1699999999999999

>  <m_primary>  (10) 
energy

$$$$
10:0
     RDKit          3D

 55 58  0  0  0  0  0  0  0  0999 V2000
   60.4410   28.8850   47.8880 C   0  0  0  0  0  0  0  0  0  0  0  0
   59.9320   29.8500   48.9150 C   0  0  0  0  0  0  0  0  0  0  0  0
   58.6210   30.0870   49.1170 N   0  0  0  0  0  0  0  0  0  0  0  0
   58.5620   30.9360   50.1590 C   0  0  0  0  0  0  0  0  0  0  0  0
   59.8470   31.2040   50.5840 C   0  0  0  0  0  0  0  0  0  0  0  0
   60.7050   30.5190   49.8010 N   0  0  0  0  0  0  0  0  0  0  0  0
   62.1620   30.4770   49.9540 C   0  0  0  0  0  0  0  0  0  0  0  0
   62.7240   31.8570   50.3140 C   0  0  0  0  0  0  0  0  0  0  0  0
   63.1400   32.6230   49.0880 C   0  0  0  0  0  0  0  0  0  0  0  0
   64.3130   32.4870   48.6450 O   0  0  0  0  0  0  0  0  0  0  0  0
   62.2110   33.4660   48.3850 N   0  0  0  0  0  0  0  0  0  0  0  0
   61.3430   34.4070   49.1050 C   0  0  0  0  0  0  0  0  0  0  0  0
   59.8760   34.2160   48.6930 C   0  0  0  0  0  0  0  0  0  0  0  0
   59.7260   33.8220   47.1930 C   0  0  0  0  0  0  0  0  0  0  0  0
   60.9700   34.1580   46.3420 C   0  0  0  0  0  0  0  0  0  0  0  0
   62.2140   33.4590   46.9150 C   0  0  0  0  0  0  0  0  0  0  0  0
   59.1880   32.4060   46.9540 C   0  0  0  0  0  0  0  0  0  0  0  0
   57.9360   32.8930   46.3560 N   0  0  0  0  0  0  0  0  0  0  0  0
   57.8470   32.5360   44.9270 C   0  0  0  0  0  0  0  0  0  0  0  0
   57.8430   31.0400   44.7690 C   0  0  0  0  0  0  0  0  0  0  0  0
   56.6430   30.3670   44.4900 C   0  0  0  0  0  0  0  0  0  0  0  0
   56.6370   28.9790   44.3170 C   0  0  0  0  0  0  0  0  0  0  0  0
   57.8290   28.2550   44.4170 C   0  0  0  0  0  0  0  0  0  0  0  0
   57.8200   26.5140   44.2000 Cl  0  0  0  0  0  0  0  0  0  0  0  0
   59.0290   28.9200   44.6890 C   0  0  0  0  0  0  0  0  0  0  0  0
   59.0380   30.3080   44.8610 C   0  0  0  0  0  0  0  0  0  0  0  0
   58.4080   34.2730   46.5600 C   0  0  0  0  0  0  0  0  0  0  0  0
   60.8972   28.0201   48.3918 H   0  0  0  0  0  0  0  0  0  0  0  0
   59.6053   28.5442   47.2591 H   0  0  0  0  0  0  0  0  0  0  0  0
   61.1942   29.3822   47.2591 H   0  0  0  0  0  0  0  0  0  0  0  0
   57.8140   29.6800   48.5950 H   0  0  0  0  0  0  0  0  0  0  0  0
   57.6420   31.3481   50.5991 H   0  0  0  0  0  0  0  0  0  0  0  0
   60.1243   31.8640   51.4192 H   0  0  0  0  0  0  0  0  0  0  0  0
   62.4180   29.7661   50.7534 H   0  0  0  0  0  0  0  0  0  0  0  0
   62.6028   30.1614   48.9969 H   0  0  0  0  0  0  0  0  0  0  0  0
   61.9505   32.4294   50.8471 H   0  0  0  0  0  0  0  0  0  0  0  0
   63.6120   31.7122   50.9468 H   0  0  0  0  0  0  0  0  0  0  0  0
   61.4400   34.2324   50.1867 H   0  0  0  0  0  0  0  0  0  0  0  0
   61.6498   35.4334   48.8551 H   0  0  0  0  0  0  0  0  0  0  0  0
   59.4358   33.4208   49.3127 H   0  0  0  0  0  0  0  0  0  0  0  0
   59.3588   35.1755   48.8407 H   0  0  0  0  0  0  0  0  0  0  0  0
   60.8058   33.8171   45.3091 H   0  0  0  0  0  0  0  0  0  0  0  0
   61.1316   35.2459   46.3589 H   0  0  0  0  0  0  0  0  0  0  0  0
   62.2315   32.4169   46.5632 H   0  0  0  0  0  0  0  0  0  0  0  0
   63.1044   34.0055   46.5706 H   0  0  0  0  0  0  0  0  0  0  0  0
   59.8036   31.8171   46.2582 H   0  0  0  0  0  0  0  0  0  0  0  0
   59.1310   31.7124   47.8059 H   0  0  0  0  0  0  0  0  0  0  0  0
   56.9187   32.9492   44.5056 H   0  0  0  0  0  0  0  0  0  0  0  0
   58.7158   32.9525   44.3963 H   0  0  0  0  0  0  0  0  0  0  0  0
   55.7037   30.9335   44.4071 H   0  0  0  0  0  0  0  0  0  0  0  0
   55.6933   28.4563   44.1020 H   0  0  0  0  0  0  0  0  0  0  0  0
   59.9669   28.3507   44.7677 H   0  0  0  0  0  0  0  0  0  0  0  0
   59.9846   30.8282   45.0691 H   0  0  0  0  0  0  0  0  0  0  0  0
   58.5433   34.8308   45.6216 H   0  0  0  0  0  0  0  0  0  0  0  0
   57.7675   34.9722   47.1175 H   0  0  0  0  0  0  0  0  0  0  0  0
  1  2  1  0
  2  3  2  0
  3  4  1  0
  4  5  2  0
  5  6  1  0
  6  7  1  0
  7  8  1  0
  8  9  1  0
  9 10  2  0
  9 11  1  0
 11 12  1  0
 12 13  1  0
 13 14  1  0
 14 15  1  0
 15 16  1  0
 14 17  1  0
 17 18  1  0
 18 19  1  0
 19 20  1  0
 20 21  2  0
 21 22  1  0
 22 23  2  0
 23 24  1  0
 23 25  1  0
 25 26  2  0
 18 27  1  0
  6  2  1  0
 16 11  1  0
 26 20  1  0
 27 14  1  0
  1 28  1  0
  1 29  1  0
  1 30  1  0
  3 31  1  0
  4 32  1  0
  5 33  1  0
  7 34  1  0
  7 35  1  0
  8 36  1  0
  8 37  1  0
 12 38  1  0
 12 39  1  0
 13 40  1  0
 13 41  1  0
 15 42  1  0
 15 43  1  0
 16 44  1  0
 16 45  1  0
 17 46  1  0
 17 47  1  0
 19 48  1  0
 19 49  1  0
 21 50  1  0
 22 51  1  0
 25 52  1  0
 26 53  1  0
 27 54  1  0
 27 55  1  0
M  CHG  1   3   1
M  END
>  <UniqueID>  (11) 
11

>  <SMILES>  (11) 
Cc1[nH+]ccn1CCC(=O)N1CCC2(CC1)CN(Cc1ccc(Cl)cc1)C2

>  <Energy>  (11) 
154.86392634579897

>  <Genealogy>  (11) 
Cc1[nH+]ccn1CCC(=O)N1CCC2(CC1)CN(Cc1ccc(Cl)cc1)C2 (protonated)
Cc1[nH+]ccn1CCC(=O)N1CCC2(CC1)CN(Cc1ccc(Cl)cc1)C2 (3D coordinates assigned)
Cc1[nH+]ccn1CCC(=O)N1CCC2(CC1)CN(Cc1ccc(Cl)cc1)C2 (nonaromatic ring conformer: 154.86392634579897 kcal/mol)

>  <smiles>  (11) 
Cc1nccn1CCC(=O)N1CCC2(CC1)CN(Cc1ccc(Cl)cc1)C2

>  <score_type>  (11) 
oracle

>  <origin>  (11) 
adg

>  <m_score__min__energy>  (11) 
-7.0199999999999996

>  <m_primary>  (11) 
energy

$$$$
11:0
     RDKit          3D

 47 48  0  0  0  0  0  0  0  0999 V2000
   57.5740   31.7640   42.4670 C   0  0  0  0  0  0  0  0  0  0  0  0
   57.5780   30.4960   43.2140 N   0  0  0  0  0  0  0  0  0  0  0  0
   56.2130   29.9460   43.3240 C   0  0  0  0  0  0  0  0  0  0  0  0
   58.2550   30.6120   44.5310 C   0  0  0  0  0  0  0  0  0  0  0  0
   58.9810   29.3270   44.9960 C   0  0  0  0  0  0  0  0  0  0  0  0
   60.2820   29.6310   45.7570 C   0  0  0  0  0  0  0  0  0  0  0  0
   60.0590   30.0100   47.2300 C   0  0  0  0  0  0  0  0  0  0  0  0
   60.1490   31.4220   47.4270 O   0  0  0  0  0  0  0  0  0  0  0  0
   61.3250   32.1360   47.7260 C   0  0  0  0  0  0  0  0  0  0  0  0
   62.6070   31.5830   47.5240 C   0  0  0  0  0  0  0  0  0  0  0  0
   63.7540   32.3170   47.8340 C   0  0  0  0  0  0  0  0  0  0  0  0
   63.6410   33.6100   48.3420 C   0  0  0  0  0  0  0  0  0  0  0  0
   62.3820   34.1760   48.5370 C   0  0  0  0  0  0  0  0  0  0  0  0
   61.2170   33.4520   48.2270 C   0  0  0  0  0  0  0  0  0  0  0  0
   59.8700   34.0920   48.4560 C   0  0  0  0  0  0  0  0  0  0  0  0
   59.0700   34.1270   47.1810 C   0  0  0  0  0  0  0  0  0  0  0  0
   57.8310   33.4680   47.1070 C   0  0  0  0  0  0  0  0  0  0  0  0
   57.0900   33.4890   45.9220 C   0  0  0  0  0  0  0  0  0  0  0  0
   57.5770   34.1700   44.8040 C   0  0  0  0  0  0  0  0  0  0  0  0
   58.8090   34.8280   44.8690 C   0  0  0  0  0  0  0  0  0  0  0  0
   59.5570   34.8020   46.0500 C   0  0  0  0  0  0  0  0  0  0  0  0
   57.5713   32.6063   43.1744 H   0  0  0  0  0  0  0  0  0  0  0  0
   58.4720   31.8195   41.8341 H   0  0  0  0  0  0  0  0  0  0  0  0
   56.6757   31.8139   41.8341 H   0  0  0  0  0  0  0  0  0  0  0  0
   58.1350   29.8100   42.6510 H   0  0  0  0  0  0  0  0  0  0  0  0
   55.9456   29.8382   44.3855 H   0  0  0  0  0  0  0  0  0  0  0  0
   55.5023   30.6280   42.8342 H   0  0  0  0  0  0  0  0  0  0  0  0
   56.1737   28.9618   42.8342 H   0  0  0  0  0  0  0  0  0  0  0  0
   58.9973   31.4211   44.4654 H   0  0  0  0  0  0  0  0  0  0  0  0
   57.4660   30.8103   45.2714 H   0  0  0  0  0  0  0  0  0  0  0  0
   58.3087   28.7613   45.6578 H   0  0  0  0  0  0  0  0  0  0  0  0
   59.2450   28.7479   44.0988 H   0  0  0  0  0  0  0  0  0  0  0  0
   60.9229   28.7377   45.7209 H   0  0  0  0  0  0  0  0  0  0  0  0
   60.7469   30.4994   45.2672 H   0  0  0  0  0  0  0  0  0  0  0  0
   59.0600   29.6689   47.5395 H   0  0  0  0  0  0  0  0  0  0  0  0
   60.8421   29.5270   47.8329 H   0  0  0  0  0  0  0  0  0  0  0  0
   62.7040   30.5649   47.1188 H   0  0  0  0  0  0  0  0  0  0  0  0
   64.7485   31.8738   47.6770 H   0  0  0  0  0  0  0  0  0  0  0  0
   64.5460   34.1843   48.5893 H   0  0  0  0  0  0  0  0  0  0  0  0
   62.2992   35.1975   48.9367 H   0  0  0  0  0  0  0  0  0  0  0  0
   59.3192   33.5123   49.2113 H   0  0  0  0  0  0  0  0  0  0  0  0
   60.0250   35.1243   48.8030 H   0  0  0  0  0  0  0  0  0  0  0  0
   57.4424   32.9330   47.9860 H   0  0  0  0  0  0  0  0  0  0  0  0
   56.1223   32.9686   45.8699 H   0  0  0  0  0  0  0  0  0  0  0  0
   56.9916   34.1887   43.8729 H   0  0  0  0  0  0  0  0  0  0  0  0
   59.1905   35.3671   43.9893 H   0  0  0  0  0  0  0  0  0  0  0  0
   60.5306   35.3122   46.0933 H   0  0  0  0  0  0  0  0  0  0  0  0
  1  2  1  0
  2  3  1  0
  2  4  1  0
  4  5  1  0
  5  6  1  0
  6  7  1  0
  7  8  1  0
  8  9  1  0
  9 10  2  0
 10 11  1  0
 11 12  2  0
 12 13  1  0
 13 14  2  0
 14 15  1  0
 15 16  1  0
 16 17  2  0
 17 18  1  0
 18 19  2  0
 19 20  1  0
 20 21  2  0
 14  9  1  0
 21 16  1  0
  1 22  1  0
  1 23  1  0
  1 24  1  0
  2 25  1  0
  3 26  1  0
  3 27  1  0
  3 28  1  0
  4 29  1  0
  4 30  1  0
  5 31  1  0
  5 32  1  0
  6 33  1  0
  6 34  1  0
  7 35  1  0
  7 36  1  0
 10 37  1  0
 11 38  1  0
 12 39  1  0
 13 40  1  0
 15 41  1  0
 15 42  1  0
 17 43  1  0
 18 44  1  0
 19 45  1  0
 20 46  1  0
 21 47  1  0
M  CHG  1   2   1
M  END
>  <UniqueID>  (12) 
12

>  <SMILES>  (12) 
C[NH+](C)CCCCOc1ccccc1Cc1ccccc1

>  <Energy>  (12) 
43.32689265764957

>  <Genealogy>  (12) 
C[NH+](C)CCCCOc1ccccc1Cc1ccccc1 (protonated)
C[NH+](C)CCCCOc1ccccc1Cc1ccccc1 (3D coordinates assigned)
C[NH+](C)CCCCOc1ccccc1Cc1ccccc1 (optimized conformer: 43.32689265764957 kcal/mol)

>  <smiles>  (12) 
CN(C)CCCCOc1ccccc1Cc1ccccc1

>  <score_type>  (12) 
oracle

>  <origin>  (12) 
adg

>  <m_score__min__energy>  (12) 
-5.4800000000000004

>  <m_primary>  (12) 
energy

$$$$
12:0
     RDKit          3D

 57 58  0  0  0  0  0  0  0  0999 V2000
   57.3880   31.8600   51.7460 C   0  0  0  0  0  0  0  0  0  0  0  0
   58.1900   32.8820   51.1640 O   0  0  0  0  0  0  0  0  0  0  0  0
   59.1710   32.6630   50.1860 C   0  0  0  0  0  0  0  0  0  0  0  0
   58.9860   31.6000   49.2930 C   0  0  0  0  0  0  0  0  0  0  0  0
   59.9210   31.3330   48.2800 C   0  0  0  0  0  0  0  0  0  0  0  0
   59.6990   30.2680   47.3410 N   0  0  0  0  0  0  0  0  0  0  0  0
   59.5490   28.8660   47.7450 C   0  0  2  0  0  0  0  0  0  0  0  0
   60.3800   28.6130   49.0050 C   0  0  0  0  0  0  0  0  0  0  0  0
   60.0020   27.9300   46.6060 C   0  0  0  0  0  0  0  0  0  0  0  0
   59.9680   28.5760   45.2060 C   0  0  0  0  0  0  0  0  0  0  0  0
   58.6140   28.4330   44.4890 C   0  0  0  0  0  0  0  0  0  0  0  0
   58.1640   29.6970   43.9070 N   0  0  0  0  0  0  0  0  0  0  0  0
   57.6710   30.7620   44.7300 C   0  0  0  0  0  0  0  0  0  0  0  0
   57.4300   30.5560   45.9520 O   0  0  0  0  0  0  0  0  0  0  0  0
   57.3960   32.1130   44.1340 C   0  0  0  0  0  0  0  0  0  0  0  0
   58.5180   33.1360   44.4090 C   0  0  0  0  0  0  0  0  0  0  0  0
   58.2840   34.1080   45.5940 C   0  0  0  0  0  0  0  0  0  0  0  0
   59.5830   34.7460   46.1000 C   0  0  0  0  0  0  0  0  0  0  0  0
   57.4990   33.4760   46.7510 C   0  0  0  0  0  0  0  0  0  0  0  0
   61.0770   32.1290   48.1840 C   0  0  0  0  0  0  0  0  0  0  0  0
   62.0000   31.8910   47.2110 N   0  0  0  0  0  0  0  0  0  0  0  0
   63.1190   32.6520   47.0790 C   0  0  0  0  0  0  0  0  0  0  0  0
   63.3490   33.7170   47.9500 C   0  0  0  0  0  0  0  0  0  0  0  0
   62.4220   33.9930   48.9570 C   0  0  0  0  0  0  0  0  0  0  0  0
   61.2720   33.2020   49.0830 C   0  0  0  0  0  0  0  0  0  0  0  0
   60.3190   33.4660   50.0750 C   0  0  0  0  0  0  0  0  0  0  0  0
   57.4432   31.9303   52.8424 H   0  0  0  0  0  0  0  0  0  0  0  0
   56.3440   31.9844   51.4227 H   0  0  0  0  0  0  0  0  0  0  0  0
   57.7571   30.8755   51.4227 H   0  0  0  0  0  0  0  0  0  0  0  0
   58.0935   30.9638   49.3868 H   0  0  0  0  0  0  0  0  0  0  0  0
   59.5600   30.5090   46.3320 H   0  0  0  0  0  0  0  0  0  0  0  0
   58.4903   28.6589   47.9600 H   0  0  0  0  0  0  0  0  0  0  0  0
   59.7623   28.8011   49.8955 H   0  0  0  0  0  0  0  0  0  0  0  0
   60.7259   27.5688   49.0126 H   0  0  0  0  0  0  0  0  0  0  0  0
   61.2491   29.2873   49.0126 H   0  0  0  0  0  0  0  0  0  0  0  0
   61.0336   27.6090   46.8129 H   0  0  0  0  0  0  0  0  0  0  0  0
   59.2909   27.0910   46.5845 H   0  0  0  0  0  0  0  0  0  0  0  0
   60.1924   29.6475   45.3129 H   0  0  0  0  0  0  0  0  0  0  0  0
   60.7131   28.0492   44.5918 H   0  0  0  0  0  0  0  0  0  0  0  0
   58.7149   27.6885   43.6856 H   0  0  0  0  0  0  0  0  0  0  0  0
   57.8679   28.1179   45.2334 H   0  0  0  0  0  0  0  0  0  0  0  0
   58.1790   29.8350   42.8740 H   0  0  0  0  0  0  0  0  0  0  0  0
   57.2850   31.9994   43.0455 H   0  0  0  0  0  0  0  0  0  0  0  0
   56.4789   32.4981   44.6037 H   0  0  0  0  0  0  0  0  0  0  0  0
   59.4414   32.5742   44.6133 H   0  0  0  0  0  0  0  0  0  0  0  0
   58.5628   33.7713   43.5121 H   0  0  0  0  0  0  0  0  0  0  0  0
   57.6561   34.9115   45.1814 H   0  0  0  0  0  0  0  0  0  0  0  0
   59.5864   34.7477   47.2000 H   0  0  0  0  0  0  0  0  0  0  0  0
   60.4432   34.1679   45.7315 H   0  0  0  0  0  0  0  0  0  0  0  0
   59.6513   35.7802   45.7315 H   0  0  0  0  0  0  0  0  0  0  0  0
   57.9206   33.8154   47.7087 H   0  0  0  0  0  0  0  0  0  0  0  0
   56.4436   33.7794   46.6869 H   0  0  0  0  0  0  0  0  0  0  0  0
   57.5701   32.3802   46.6869 H   0  0  0  0  0  0  0  0  0  0  0  0
   63.8447   32.4273   46.2834 H   0  0  0  0  0  0  0  0  0  0  0  0
   64.2533   34.3344   47.8444 H   0  0  0  0  0  0  0  0  0  0  0  0
   62.5940   34.8297   49.6501 H   0  0  0  0  0  0  0  0  0  0  0  0
   60.4698   34.3052   50.7700 H   0  0  0  0  0  0  0  0  0  0  0  0
  1  2  1  0
  2  3  1  0
  3  4  2  0
  4  5  1  0
  5  6  1  0
  6  7  1  0
  7  8  1  0
  7  9  1  0
  9 10  1  0
 10 11  1  0
 11 12  1  0
 12 13  1  0
 13 14  2  0
 13 15  1  0
 15 16  1  0
 16 17  1  0
 17 18  1  0
 17 19  1  0
  5 20  2  0
 20 21  1  0
 21 22  2  0
 22 23  1  0
 23 24  2  0
 24 25  1  0
 25 26  2  0
 26  3  1  0
 25 20  1  0
  1 27  1  0
  1 28  1  0
  1 29  1  0
  4 30  1  0
  6 31  1  0
  7 32  1  1
  8 33  1  0
  8 34  1  0
  8 35  1  0
  9 36  1  0
  9 37  1  0
 10 38  1  0
 10 39  1  0
 11 40  1  0
 11 41  1  0
 12 42  1  0
 15 43  1  0
 15 44  1  0
 16 45  1  0
 16 46  1  0
 17 47  1  0
 18 48  1  0
 18 49  1  0
 18 50  1  0
 19 51  1  0
 19 52  1  0
 19 53  1  0
 22 54  1  0
 23 55  1  0
 24 56  1  0
 26 57  1  0
M  END
>  <UniqueID>  (13) 
13

>  <SMILES>  (13) 
COc1cc(N[C@H](C)CCCNC(=O)CCC(C)C)c2ncccc2c1

>  <Energy>  (13) 
43.39111704312855

>  <Genealogy>  (13) 
COc1cc(N[C@H](C)CCCNC(=O)CCC(C)C)c2ncccc2c1 (chirality)
COc1cc(N[C@H](C)CCCNC(=O)CCC(C)C)c2ncccc2c1 (3D coordinates assigned)
COc1cc(N[C@H](C)CCCNC(=O)CCC(C)C)c2ncccc2c1 (optimized conformer: 43.39111704312855 kcal/mol)

>  <smiles>  (13) 
COc1cc(NC(C)CCCNC(=O)CCC(C)C)c2ncccc2c1

>  <score_type>  (13) 
oracle

>  <origin>  (13) 
adg

>  <m_score__min__energy>  (13) 
-7.3399999999999999

>  <m_primary>  (13) 
energy

$$$$
13:0
     RDKit          3D

 33 35  0  0  0  0  0  0  0  0999 V2000
   59.6370   33.8140   48.6820 C   0  0  0  0  0  0  0  0  0  0  0  0
   59.2570   33.8330   47.2310 C   0  0  0  0  0  0  0  0  0  0  0  0
   59.5220   34.9630   46.4460 C   0  0  0  0  0  0  0  0  0  0  0  0
   59.1970   34.9680   45.0890 C   0  0  0  0  0  0  0  0  0  0  0  0
   58.6230   33.8390   44.4990 C   0  0  0  0  0  0  0  0  0  0  0  0
   58.3750   32.6820   45.2620 C   0  0  0  0  0  0  0  0  0  0  0  0
   57.7660   31.4700   44.6550 C   0  0  0  0  0  0  0  0  0  0  0  0
   57.1780   31.4930   43.3830 C   0  0  0  0  0  0  0  0  0  0  0  0
   56.6400   30.3150   42.8720 C   0  0  0  0  0  0  0  0  0  0  0  0
   56.6850   29.1680   43.6000 N   0  0  0  0  0  0  0  0  0  0  0  0
   57.2540   29.1520   44.8420 C   0  0  0  0  0  0  0  0  0  0  0  0
   57.3320   27.9150   45.6530 C   0  0  0  0  0  0  0  0  0  0  0  0
   58.4780   27.5750   46.3960 C   0  0  0  0  0  0  0  0  0  0  0  0
   58.4930   26.3870   47.1310 C   0  0  0  0  0  0  0  0  0  0  0  0
   57.3800   25.5460   47.1180 C   0  0  0  0  0  0  0  0  0  0  0  0
   56.2660   25.9030   46.3600 C   0  0  0  0  0  0  0  0  0  0  0  0
   56.2680   27.0630   45.6520 N   0  0  0  0  0  0  0  0  0  0  0  0
   57.7950   30.2960   45.3420 N   0  0  0  0  0  0  0  0  0  0  0  0
   58.6960   32.6930   46.6330 C   0  0  0  0  0  0  0  0  0  0  0  0
   58.7280   33.8595   49.2997 H   0  0  0  0  0  0  0  0  0  0  0  0
   60.1860   32.8873   48.9052 H   0  0  0  0  0  0  0  0  0  0  0  0
   60.2757   34.6813   48.9052 H   0  0  0  0  0  0  0  0  0  0  0  0
   59.9879   35.8494   46.9012 H   0  0  0  0  0  0  0  0  0  0  0  0
   59.3934   35.8639   44.4817 H   0  0  0  0  0  0  0  0  0  0  0  0
   58.3629   33.8542   43.4303 H   0  0  0  0  0  0  0  0  0  0  0  0
   57.1422   32.4246   42.7992 H   0  0  0  0  0  0  0  0  0  0  0  0
   56.1763   30.3125   41.8745 H   0  0  0  0  0  0  0  0  0  0  0  0
   56.3050   28.2990   43.1660 H   0  0  0  0  0  0  0  0  0  0  0  0
   59.3548   28.2393   46.3980 H   0  0  0  0  0  0  0  0  0  0  0  0
   59.3817   26.1150   47.7195 H   0  0  0  0  0  0  0  0  0  0  0  0
   57.3815   24.6120   47.6991 H   0  0  0  0  0  0  0  0  0  0  0  0
   55.3846   25.2453   46.3349 H   0  0  0  0  0  0  0  0  0  0  0  0
   58.5050   31.7978   47.2430 H   0  0  0  0  0  0  0  0  0  0  0  0
  1  2  1  0
  2  3  2  0
  3  4  1  0
  4  5  2  0
  5  6  1  0
  6  7  1  0
  7  8  2  0
  8  9  1  0
  9 10  2  0
 10 11  1  0
 11 12  1  0
 12 13  2  0
 13 14  1  0
 14 15  2  0
 15 16  1  0
 16 17  2  0
 11 18  2  0
  6 19  2  0
 19  2  1  0
 18  7  1  0
 17 12  1  0
  1 20  1  0
  1 21  1  0
  1 22  1  0
  3 23  1  0
  4 24  1  0
  5 25  1  0
  8 26  1  0
  9 27  1  0
 10 28  1  0
 13 29  1  0
 14 30  1  0
 15 31  1  0
 16 32  1  0
 19 33  1  0
M  CHG  1  10   1
M  END
>  <UniqueID>  (14) 
14

>  <SMILES>  (14) 
Cc1cccc(-c2cc[nH+]c(-c3ccccn3)n2)c1

>  <Energy>  (14) 
42.51842000291654

>  <Genealogy>  (14) 
Cc1cccc(-c2cc[nH+]c(-c3ccccn3)n2)c1 (protonated)
Cc1cccc(-c2cc[nH+]c(-c3ccccn3)n2)c1 (3D coordinates assigned)
Cc1cccc(-c2cc[nH+]c(-c3ccccn3)n2)c1 (optimized conformer: 42.51842000291654 kcal/mol)

>  <smiles>  (14) 
Cc1cccc(-c2ccnc(-c3ccccn3)n2)c1

>  <score_type>  (14) 
oracle

>  <origin>  (14) 
adg

>  <m_score__min__energy>  (14) 
-6.2400000000000002

>  <m_primary>  (14) 
energy

$$$$
14:0
     RDKit          3D

 20 21  0  0  0  0  0  0  0  0999 V2000
   58.5710   31.7680   47.4270 C   0  0  0  0  0  0  0  0  0  0  0  0
   58.7480   33.0310   46.6430 C   0  0  0  0  0  0  0  0  0  0  0  0
   59.3000   34.1400   47.1830 N   0  0  0  0  0  0  0  0  0  0  0  0
   59.2850   35.0430   46.1840 C   0  0  0  0  0  0  0  0  0  0  0  0
   58.7280   34.4770   45.0600 C   0  0  0  0  0  0  0  0  0  0  0  0
   58.3870   33.2070   45.3470 N   0  0  0  0  0  0  0  0  0  0  0  0
   57.7750   32.2770   44.4340 C   0  0  0  0  0  0  0  0  0  0  0  0
   57.0210   31.2420   44.8940 N   0  0  0  0  0  0  0  0  0  0  0  0
   56.4380   30.3590   44.0410 C   0  0  0  0  0  0  0  0  0  0  0  0
   56.6090   30.5070   42.6660 C   0  0  0  0  0  0  0  0  0  0  0  0
   57.3820   31.5700   42.2050 C   0  0  0  0  0  0  0  0  0  0  0  0
   57.9470   32.4310   43.0910 N   0  0  0  0  0  0  0  0  0  0  0  0
   58.6030   31.9965   48.5025 H   0  0  0  0  0  0  0  0  0  0  0  0
   57.6005   31.3144   47.1773 H   0  0  0  0  0  0  0  0  0  0  0  0
   59.3794   31.0651   47.1773 H   0  0  0  0  0  0  0  0  0  0  0  0
   59.6603   36.0745   46.2554 H   0  0  0  0  0  0  0  0  0  0  0  0
   58.5856   34.9778   44.0910 H   0  0  0  0  0  0  0  0  0  0  0  0
   55.8326   29.5295   44.4351 H   0  0  0  0  0  0  0  0  0  0  0  0
   56.1446   29.8012   41.9615 H   0  0  0  0  0  0  0  0  0  0  0  0
   57.5348   31.7121   41.1250 H   0  0  0  0  0  0  0  0  0  0  0  0
  1  2  1  0
  2  3  2  0
  3  4  1  0
  4  5  2  0
  5  6  1  0
  6  7  1  0
  7  8  2  0
  8  9  1  0
  9 10  2  0
 10 11  1  0
 11 12  2  0
  6  2  1  0
 12  7  1  0
  1 13  1  0
  1 14  1  0
  1 15  1  0
  4 16  1  0
  5 17  1  0
  9 18  1  0
 10 19  1  0
 11 20  1  0
M  END
>  <UniqueID>  (15) 
15

>  <SMILES>  (15) 
Cc1nccn1-c1ncccn1

>  <Energy>  (15) 
51.559507627815655

>  <Genealogy>  (15) 
Cc1nccn1-c1ncccn1 (3D coordinates assigned)
Cc1nccn1-c1ncccn1 (optimized conformer: 51.559507627815655 kcal/mol)

>  <smiles>  (15) 
Cc1nccn1-c1ncccn1

>  <score_type>  (15) 
oracle

>  <origin>  (15) 
adg

>  <m_score__min__energy>  (15) 
-4.7999999999999998

>  <m_primary>  (15) 
energy

$$$$
15:0
     RDKit          3D

 34 35  0  0  0  0  0  0  0  0999 V2000
   59.6540   34.7340   47.8260 C   0  0  0  0  0  0  0  0  0  0  0  0
   58.8920   34.7080   46.6240 O   0  0  0  0  0  0  0  0  0  0  0  0
   58.4490   33.5360   45.9930 C   0  0  0  0  0  0  0  0  0  0  0  0
   58.6000   32.3200   46.6670 C   0  0  0  0  0  0  0  0  0  0  0  0
   58.1640   31.1270   46.0860 C   0  0  0  0  0  0  0  0  0  0  0  0
   57.5740   31.1230   44.8110 C   0  0  0  0  0  0  0  0  0  0  0  0
   57.0300   29.8130   44.2580 C   0  0  2  0  0  0  0  0  0  0  0  0
   56.2460   29.9530   42.9380 C   0  0  0  0  0  0  0  0  0  0  0  0
   56.2840   29.0480   45.2810 N   0  0  0  0  0  0  0  0  0  0  0  0
   57.0650   28.0180   45.9880 C   0  0  0  0  0  0  0  0  0  0  0  0
   56.4410   26.6720   45.7920 C   0  0  0  0  0  0  0  0  0  0  0  0
   57.1020   25.5250   45.3990 C   0  0  0  0  0  0  0  0  0  0  0  0
   56.1370   24.5430   45.3430 C   0  0  0  0  0  0  0  0  0  0  0  0
   54.9530   25.1470   45.7150 C   0  0  0  0  0  0  0  0  0  0  0  0
   55.1670   26.4150   45.9810 O   0  0  0  0  0  0  0  0  0  0  0  0
   57.4200   32.3500   44.1340 C   0  0  0  0  0  0  0  0  0  0  0  0
   57.8580   33.5430   44.7170 C   0  0  0  0  0  0  0  0  0  0  0  0
   58.9750   34.7108   48.6911 H   0  0  0  0  0  0  0  0  0  0  0  0
   60.3185   33.8580   47.8579 H   0  0  0  0  0  0  0  0  0  0  0  0
   60.2573   35.6533   47.8579 H   0  0  0  0  0  0  0  0  0  0  0  0
   59.0661   32.3029   47.6632 H   0  0  0  0  0  0  0  0  0  0  0  0
   58.2839   30.1801   46.6328 H   0  0  0  0  0  0  0  0  0  0  0  0
   57.9192   29.2241   43.9887 H   0  0  0  0  0  0  0  0  0  0  0  0
   55.1854   30.1424   43.1598 H   0  0  0  0  0  0  0  0  0  0  0  0
   56.6545   30.7924   42.3562 H   0  0  0  0  0  0  0  0  0  0  0  0
   56.3387   29.0241   42.3562 H   0  0  0  0  0  0  0  0  0  0  0  0
   55.8960   29.7190   45.9860 H   0  0  0  0  0  0  0  0  0  0  0  0
   58.0911   28.0041   45.5918 H   0  0  0  0  0  0  0  0  0  0  0  0
   57.0808   28.2536   47.0624 H   0  0  0  0  0  0  0  0  0  0  0  0
   58.1741   25.4178   45.1772 H   0  0  0  0  0  0  0  0  0  0  0  0
   56.2812   23.4901   45.0591 H   0  0  0  0  0  0  0  0  0  0  0  0
   53.9776   24.6425   45.7790 H   0  0  0  0  0  0  0  0  0  0  0  0
   56.9514   32.3690   43.1390 H   0  0  0  0  0  0  0  0  0  0  0  0
   57.7396   34.4925   44.1744 H   0  0  0  0  0  0  0  0  0  0  0  0
  1  2  1  0
  2  3  1  0
  3  4  2  0
  4  5  1  0
  5  6  2  0
  6  7  1  0
  7  8  1  0
  7  9  1  0
  9 10  1  0
 10 11  1  0
 11 12  2  0
 12 13  1  0
 13 14  2  0
 14 15  1  0
  6 16  1  0
 16 17  2  0
 17  3  1  0
 15 11  1  0
  1 18  1  0
  1 19  1  0
  1 20  1  0
  4 21  1  0
  5 22  1  0
  7 23  1  6
  8 24  1  0
  8 25  1  0
  8 26  1  0
  9 27  1  0
 10 28  1  0
 10 29  1  0
 12 30  1  0
 13 31  1  0
 14 32  1  0
 16 33  1  0
 17 34  1  0
M  END
>  <UniqueID>  (16) 
16

>  <SMILES>  (16) 
COc1ccc([C@H](C)NCc2ccco2)cc1

>  <Energy>  (16) 
60.30444653352552

>  <Genealogy>  (16) 
COc1ccc([C@H](C)NCc2ccco2)cc1 (chirality)
COc1ccc([C@H](C)NCc2ccco2)cc1 (3D coordinates assigned)
COc1ccc([C@H](C)NCc2ccco2)cc1 (optimized conformer: 60.30444653352552 kcal/mol)

>  <smiles>  (16) 
COc1ccc(C(C)NCc2ccco2)cc1

>  <score_type>  (16) 
oracle

>  <origin>  (16) 
adg

>  <m_score__min__energy>  (16) 
-6.7800000000000002

>  <m_primary>  (16) 
energy

$$$$
16:0
     RDKit          3D

 40 42  0  0  0  0  0  0  0  0999 V2000
   60.7480   30.4350   46.7930 C   0  0  0  0  0  0  0  0  0  0  0  0
   59.6030   29.4680   46.6750 N   0  0  0  0  0  0  0  0  0  0  0  0
   58.6650   30.0050   47.6540 C   0  0  0  0  0  0  0  0  0  0  0  0
   59.1880   29.5640   45.3270 C   0  0  0  0  0  0  0  0  0  0  0  0
   57.7820   29.7010   44.9690 C   0  0  0  0  0  0  0  0  0  0  0  0
   57.0720   30.7510   44.4290 C   0  0  0  0  0  0  0  0  0  0  0  0
   57.4570   32.1500   44.1350 C   0  0  0  0  0  0  0  0  0  0  0  0
   56.9960   33.0260   45.2620 C   0  0  0  0  0  0  0  0  0  0  0  0
   58.1250   33.6940   45.9820 C   0  0  0  0  0  0  0  0  0  0  0  0
   58.9920   34.5390   45.4460 C   0  0  0  0  0  0  0  0  0  0  0  0
   59.9820   35.0960   46.2010 C   0  0  0  0  0  0  0  0  0  0  0  0
   59.7170   34.3850   47.8900 S   0  0  0  0  0  0  0  0  0  0  0  0
   58.2930   33.4090   47.3840 C   0  0  0  0  0  0  0  0  0  0  0  0
   55.7730   30.3610   44.2040 N   0  0  0  0  0  0  0  0  0  0  0  0
   55.6760   29.1300   44.5860 N   0  0  0  0  0  0  0  0  0  0  0  0
   56.8620   28.6560   45.0690 C   0  0  0  0  0  0  0  0  0  0  0  0
   56.9760   27.3210   45.6170 C   0  0  0  0  0  0  0  0  0  0  0  0
   58.0670   26.5150   45.8340 C   0  0  0  0  0  0  0  0  0  0  0  0
   57.6560   25.2970   46.3960 C   0  0  0  0  0  0  0  0  0  0  0  0
   56.2900   25.4350   46.4930 C   0  0  0  0  0  0  0  0  0  0  0  0
   55.9450   26.5930   46.0430 O   0  0  0  0  0  0  0  0  0  0  0  0
   60.9651   30.6183   47.8557 H   0  0  0  0  0  0  0  0  0  0  0  0
   61.6379   30.0109   46.3048 H   0  0  0  0  0  0  0  0  0  0  0  0
   60.4789   31.3833   46.3048 H   0  0  0  0  0  0  0  0  0  0  0  0
   59.0334   29.7941   48.6688 H   0  0  0  0  0  0  0  0  0  0  0  0
   58.5733   31.0924   47.5158 H   0  0  0  0  0  0  0  0  0  0  0  0
   57.6808   29.5335   47.5158 H   0  0  0  0  0  0  0  0  0  0  0  0
   59.7018   30.4410   44.9063 H   0  0  0  0  0  0  0  0  0  0  0  0
   59.4352   28.5672   44.9330 H   0  0  0  0  0  0  0  0  0  0  0  0
   58.5504   32.2195   44.0363 H   0  0  0  0  0  0  0  0  0  0  0  0
   56.9902   32.4758   43.1937 H   0  0  0  0  0  0  0  0  0  0  0  0
   56.3322   33.8024   44.8537 H   0  0  0  0  0  0  0  0  0  0  0  0
   56.4771   32.3828   45.9880 H   0  0  0  0  0  0  0  0  0  0  0  0
   58.9130   34.7949   44.3791 H   0  0  0  0  0  0  0  0  0  0  0  0
   60.7595   35.8049   45.8801 H   0  0  0  0  0  0  0  0  0  0  0  0
   57.6833   32.7401   48.0092 H   0  0  0  0  0  0  0  0  0  0  0  0
   54.7590   28.5910   44.5140 H   0  0  0  0  0  0  0  0  0  0  0  0
   59.1079   26.7844   45.6017 H   0  0  0  0  0  0  0  0  0  0  0  0
   58.2768   24.4375   46.6890 H   0  0  0  0  0  0  0  0  0  0  0  0
   55.6007   24.6763   46.8919 H   0  0  0  0  0  0  0  0  0  0  0  0
  1  2  1  0
  2  3  1  0
  2  4  1  0
  4  5  1  0
  5  6  1  0
  6  7  1  0
  7  8  1  0
  8  9  1  0
  9 10  1  0
 10 11  2  0
 11 12  1  0
 12 13  1  0
  6 14  2  0
 14 15  1  0
 15 16  1  0
 16 17  1  0
 17 18  2  0
 18 19  1  0
 19 20  2  0
 20 21  1  0
 16  5  2  0
 21 17  1  0
 13  9  2  0
  1 22  1  0
  1 23  1  0
  1 24  1  0
  3 25  1  0
  3 26  1  0
  3 27  1  0
  4 28  1  0
  4 29  1  0
  7 30  1  0
  7 31  1  0
  8 32  1  0
  8 33  1  0
 10 34  1  0
 11 35  1  0
 13 36  1  0
 15 37  1  0
 18 38  1  0
 19 39  1  0
 20 40  1  0
M  END
>  <smiles>  (17) 
CN(C)Cc1c(CCc2ccsc2)n[nH]c1-c1ccco1

>  <score_type>  (17) 
oracle

>  <origin>  (17) 
adg

>  <m_score__min__energy>  (17) 
-8.7599999999999998

>  <m_primary>  (17) 
energy

$$$$
17:0
     RDKit          3D

 43 45  0  0  0  0  0  0  0  0999 V2000
   64.5890   32.9210   49.5850 C   0  0  0  0  0  0  0  0  0  0  0  0
   63.5120   33.8520   49.6410 O   0  0  0  0  0  0  0  0  0  0  0  0
   62.4380   33.8740   48.7390 C   0  0  0  0  0  0  0  0  0  0  0  0
   62.5990   33.6040   47.3650 C   0  0  0  0  0  0  0  0  0  0  0  0
   61.4950   33.6370   46.5080 C   0  0  0  0  0  0  0  0  0  0  0  0
   60.2210   33.9360   47.0060 C   0  0  0  0  0  0  0  0  0  0  0  0
   58.8250   33.9570   45.9240 S   0  0  0  0  0  0  0  0  0  0  0  0
   58.8450   35.2250   45.1170 O   0  0  0  0  0  0  0  0  0  0  0  0
   57.5650   33.9470   46.7420 O   0  0  0  0  0  0  0  0  0  0  0  0
   58.8280   32.5830   44.8460 N   0  0  0  0  0  0  0  0  0  0  0  0
   59.0140   31.3440   45.6140 C   0  0  0  0  0  0  0  0  0  0  0  0
   59.1030   30.1560   44.6510 C   0  0  0  0  0  0  0  0  0  0  0  0
   57.8980   30.0400   43.8010 N   0  0  0  0  0  0  0  0  0  0  0  0
   56.7870   29.4590   44.5370 C   0  0  0  0  0  0  0  0  0  0  0  0
   55.7330   30.1210   44.7450 O   0  0  0  0  0  0  0  0  0  0  0  0
   56.8730   28.0990   45.1070 C   0  0  0  0  0  0  0  0  0  0  0  0
   58.0010   27.3030   45.1950 C   0  0  0  0  0  0  0  0  0  0  0  0
   57.5880   26.1370   45.8020 C   0  0  0  0  0  0  0  0  0  0  0  0
   56.2400   26.2890   46.0470 C   0  0  0  0  0  0  0  0  0  0  0  0
   55.8430   27.4670   45.6240 O   0  0  0  0  0  0  0  0  0  0  0  0
   57.5580   31.3230   43.1380 C   0  0  0  0  0  0  0  0  0  0  0  0
   57.5640   32.5270   44.0980 C   0  0  0  0  0  0  0  0  0  0  0  0
   60.0600   34.2060   48.3710 C   0  0  0  0  0  0  0  0  0  0  0  0
   61.1620   34.1740   49.2300 C   0  0  0  0  0  0  0  0  0  0  0  0
   64.8970   32.6547   50.6069 H   0  0  0  0  0  0  0  0  0  0  0  0
   64.2634   32.0153   49.0524 H   0  0  0  0  0  0  0  0  0  0  0  0
   65.4381   33.3742   49.0524 H   0  0  0  0  0  0  0  0  0  0  0  0
   63.5962   33.3666   46.9659 H   0  0  0  0  0  0  0  0  0  0  0  0
   61.6279   33.4269   45.4365 H   0  0  0  0  0  0  0  0  0  0  0  0
   59.9424   31.4115   46.2000 H   0  0  0  0  0  0  0  0  0  0  0  0
   58.1612   31.2021   46.2941 H   0  0  0  0  0  0  0  0  0  0  0  0
   59.9826   30.2886   44.0039 H   0  0  0  0  0  0  0  0  0  0  0  0
   59.1851   29.2377   45.2510 H   0  0  0  0  0  0  0  0  0  0  0  0
   58.1320   29.3770   43.0240 H   0  0  0  0  0  0  0  0  0  0  0  0
   59.0166   27.5496   44.8517 H   0  0  0  0  0  0  0  0  0  0  0  0
   58.2088   25.2614   46.0426 H   0  0  0  0  0  0  0  0  0  0  0  0
   55.5945   25.5372   46.5246 H   0  0  0  0  0  0  0  0  0  0  0  0
   58.2926   31.5090   42.3406 H   0  0  0  0  0  0  0  0  0  0  0  0
   56.5350   31.2251   42.7458 H   0  0  0  0  0  0  0  0  0  0  0  0
   57.4458   33.4536   43.5172 H   0  0  0  0  0  0  0  0  0  0  0  0
   56.7334   32.4176   44.8109 H   0  0  0  0  0  0  0  0  0  0  0  0
   59.0623   34.4442   48.7684 H   0  0  0  0  0  0  0  0  0  0  0  0
   61.0255   34.3863   50.3006 H   0  0  0  0  0  0  0  0  0  0  0  0
  1  2  1  0
  2  3  1  0
  3  4  2  0
  4  5  1  0
  5  6  2  0
  6  7  1  0
  7  8  2  0
  7  9  2  0
  7 10  1  0
 10 11  1  0
 11 12  1  0
 12 13  1  0
 13 14  1  0
 14 15  2  0
 14 16  1  0
 16 17  2  0
 17 18  1  0
 18 19  2  0
 19 20  1  0
 13 21  1  0
 21 22  1  0
  6 23  1  0
 23 24  2  0
 24  3  1  0
 22 10  1  0
 20 16  1  0
  1 25  1  0
  1 26  1  0
  1 27  1  0
  4 28  1  0
  5 29  1  0
 11 30  1  0
 11 31  1  0
 12 32  1  0
 12 33  1  0
 13 34  1  0
 17 35  1  0
 18 36  1  0
 19 37  1  0
 21 38  1  0
 21 39  1  0
 22 40  1  0
 22 41  1  0
 23 42  1  0
 24 43  1  0
M  CHG  1  13   1
M  END
>  <UniqueID>  (18) 
17

>  <SMILES>  (18) 
COc1ccc(S(=O)(=O)N2CC[NH+](C(=O)c3ccco3)CC2)cc1

>  <Energy>  (18) 
72.87709322897643

>  <Genealogy>  (18) 
COc1ccc(S(=O)(=O)N2CC[NH+](C(=O)c3ccco3)CC2)cc1 (protonated)
COc1ccc(S(=O)(=O)N2CC[NH+](C(=O)c3ccco3)CC2)cc1 (3D coordinates assigned)
COc1ccc(S(=O)(=O)N2CC[NH+](C(=O)c3ccco3)CC2)cc1 (nonaromatic ring conformer: 72.87709322897643 kcal/mol)

>  <smiles>  (18) 
COc1ccc(S(=O)(=O)N2CCN(C(=O)c3ccco3)CC2)cc1

>  <score_type>  (18) 
oracle

>  <origin>  (18) 
adg

>  <m_score__min__energy>  (18) 
-7.3200000000000003

>  <m_primary>  (18) 
energy

$$$$
18:0
     RDKit          3D

 25 26  0  0  0  0  0  0  0  0999 V2000
   56.5890   29.6930   43.6080 C   0  0  0  0  0  0  0  0  0  0  0  0
   56.6740   30.3450   44.8720 O   0  0  0  0  0  0  0  0  0  0  0  0
   57.3960   31.5240   45.1070 C   0  0  0  0  0  0  0  0  0  0  0  0
   57.6710   32.3610   44.0200 C   0  0  0  0  0  0  0  0  0  0  0  0
   58.3810   33.5500   44.2000 C   0  0  0  0  0  0  0  0  0  0  0  0
   58.8200   33.9270   45.4770 C   0  0  0  0  0  0  0  0  0  0  0  0
   58.5740   33.0780   46.5760 C   0  0  0  0  0  0  0  0  0  0  0  0
   57.8490   31.8910   46.3890 C   0  0  0  0  0  0  0  0  0  0  0  0
   58.9980   33.4730   47.9670 C   0  0  0  0  0  0  0  0  0  0  0  0
   60.0520   34.5870   47.9460 C   0  0  0  0  0  0  0  0  0  0  0  0
   59.6600   35.6640   47.0300 N   0  0  0  0  0  0  0  0  0  0  0  0
   59.6420   35.1850   45.6420 C   0  0  0  0  0  0  0  0  0  0  0  0
   56.4482   28.6129   43.7613 H   0  0  0  0  0  0  0  0  0  0  0  0
   55.7360   30.0975   43.0434 H   0  0  0  0  0  0  0  0  0  0  0  0
   57.5172   29.8653   43.0434 H   0  0  0  0  0  0  0  0  0  0  0  0
   57.3248   32.0799   43.0145 H   0  0  0  0  0  0  0  0  0  0  0  0
   58.5970   34.1943   43.3350 H   0  0  0  0  0  0  0  0  0  0  0  0
   57.6329   31.2422   47.2506 H   0  0  0  0  0  0  0  0  0  0  0  0
   58.1162   33.8274   48.5209 H   0  0  0  0  0  0  0  0  0  0  0  0
   59.4417   32.5914   48.4527 H   0  0  0  0  0  0  0  0  0  0  0  0
   60.1604   34.9989   48.9602 H   0  0  0  0  0  0  0  0  0  0  0  0
   61.0052   34.1613   47.5992 H   0  0  0  0  0  0  0  0  0  0  0  0
   58.7000   36.0000   47.2860 H   0  0  0  0  0  0  0  0  0  0  0  0
   59.2158   35.9719   45.0023 H   0  0  0  0  0  0  0  0  0  0  0  0
   60.6774   34.9491   45.3552 H   0  0  0  0  0  0  0  0  0  0  0  0
  1  2  1  0
  2  3  1  0
  3  4  2  0
  4  5  1  0
  5  6  2  0
  6  7  1  0
  7  8  2  0
  7  9  1  0
  9 10  1  0
 10 11  1  0
 11 12  1  0
  8  3  1  0
 12  6  1  0
  1 13  1  0
  1 14  1  0
  1 15  1  0
  4 16  1  0
  5 17  1  0
  8 18  1  0
  9 19  1  0
  9 20  1  0
 10 21  1  0
 10 22  1  0
 11 23  1  0
 12 24  1  0
 12 25  1  0
M  END
>  <UniqueID>  (19) 
18

>  <SMILES>  (19) 
COc1ccc2c(c1)CCNC2

>  <Energy>  (19) 
25.71234271437345

>  <Genealogy>  (19) 
COc1ccc2c(c1)CCNC2 (3D coordinates assigned)
COc1ccc2c(c1)CCNC2 (nonaromatic ring conformer: 25.71234271437345 kcal/mol)

>  <smiles>  (19) 
COc1ccc2c(c1)CCNC2

>  <score_type>  (19) 
oracle

>  <origin>  (19) 
adg

>  <m_score__min__energy>  (19) 
-5.3600000000000003

>  <m_primary>  (19) 
energy

$$$$
19:0
     RDKit          3D

 38 40  0  0  0  0  0  0  0  0999 V2000
   55.6137   31.5054   43.5014 H   0  0  0  0  0  0  0  0  0  0  0  0
   56.2540   30.8390   44.0980 C   0  0  0  0  0  0  0  0  0  0  0  0
   57.5420   31.2530   44.4550 C   0  0  0  0  0  0  0  0  0  0  0  0
   57.9710   32.5190   44.0310 O   0  0  0  0  0  0  0  0  0  0  0  0
   58.2020   33.6240   44.9000 C   0  0  0  0  0  0  0  0  0  0  0  0
   58.1320   33.2892   45.9455 H   0  0  0  0  0  0  0  0  0  0  0  0
   59.2053   34.0342   44.7128 H   0  0  0  0  0  0  0  0  0  0  0  0
   57.4470   34.4018   44.7128 H   0  0  0  0  0  0  0  0  0  0  0  0
   58.3550   30.3940   45.2190 C   0  0  0  0  0  0  0  0  0  0  0  0
   59.3682   30.7143   45.5035 H   0  0  0  0  0  0  0  0  0  0  0  0
   57.8840   29.1260   45.6240 C   0  0  0  0  0  0  0  0  0  0  0  0
   58.6760   28.2390   46.3930 C   0  0  0  0  0  0  0  0  0  0  0  0
   59.8850   28.6040   46.7410 N   0  0  0  0  0  0  0  0  0  0  0  0
   60.3550   29.6270   47.6890 C   0  0  0  0  0  0  0  0  0  0  0  0
   61.0156   29.0604   48.3617 H   0  0  0  0  0  0  0  0  0  0  0  0
   59.2270   30.2660   48.4970 C   0  0  0  0  0  0  0  0  0  0  0  0
   58.2859   30.2472   47.9278 H   0  0  0  0  0  0  0  0  0  0  0  0
   59.0385   29.7282   49.4379 H   0  0  0  0  0  0  0  0  0  0  0  0
   59.6750   31.6980   48.7400 C   0  0  0  0  0  0  0  0  0  0  0  0
   58.8045   32.3699   48.7686 H   0  0  0  0  0  0  0  0  0  0  0  0
   60.1980   31.7956   49.7028 H   0  0  0  0  0  0  0  0  0  0  0  0
   60.5860   32.0640   47.5750 C   0  0  0  0  0  0  0  0  0  0  0  0
   60.0109   32.5819   46.7933 H   0  0  0  0  0  0  0  0  0  0  0  0
   61.3917   32.7379   47.9018 H   0  0  0  0  0  0  0  0  0  0  0  0
   61.1550   30.7560   47.0290 C   0  0  0  0  0  0  0  0  0  0  0  0
   61.0375   30.7169   45.9360 H   0  0  0  0  0  0  0  0  0  0  0  0
   62.2289   30.6655   47.2495 H   0  0  0  0  0  0  0  0  0  0  0  0
   58.1280   26.9920   46.7570 C   0  0  0  0  0  0  0  0  0  0  0  0
   58.7232   26.2852   47.3538 H   0  0  0  0  0  0  0  0  0  0  0  0
   56.8300   26.6500   46.3620 C   0  0  0  0  0  0  0  0  0  0  0  0
   56.2480   25.3270   46.7460 C   0  0  0  0  0  0  0  0  0  0  0  0
   56.2125   25.2464   47.8425 H   0  0  0  0  0  0  0  0  0  0  0  0
   55.2296   25.2424   46.3390 H   0  0  0  0  0  0  0  0  0  0  0  0
   56.8738   24.5191   46.3390 H   0  0  0  0  0  0  0  0  0  0  0  0
   56.0940   27.5220   45.6250 N   0  0  0  0  0  0  0  0  0  0  0  0
   56.5770   28.7340   45.2500 C   0  0  0  0  0  0  0  0  0  0  0  0
   55.7740   29.5900   44.4910 C   0  0  0  0  0  0  0  0  0  0  0  0
   54.7596   29.2773   44.2026 H   0  0  0  0  0  0  0  0  0  0  0  0
  1  2  1  0
  2  3  2  0
  3  4  1  0
  4  5  1  0
  5  6  1  0
  5  7  1  0
  5  8  1  0
  3  9  1  0
  9 10  1  0
  9 11  2  0
 11 12  1  0
 12 13  2  0
 13 14  1  0
 14 15  1  0
 14 16  1  0
 16 17  1  0
 16 18  1  0
 16 19  1  0
 19 20  1  0
 19 21  1  0
 19 22  1  0
 22 23  1  0
 22 24  1  0
 22 25  1  0
 25 26  1  0
 25 27  1  0
 12 28  1  0
 28 29  1  0
 28 30  2  0
 30 31  1  0
 31 32  1  0
 31 33  1  0
 31 34  1  0
 30 35  1  0
 35 36  1  0
 36 37  2  0
 37 38  1  0
 37  2  1  0
 36 11  1  0
 25 14  1  0
M  CHG  1  35  -1
M  END
>  <UniqueID>  (20) 
19

>  <SMILES>  (20) 
COc1ccc2[n-]c(C)c/c(=N\C3CCCC3)c2c1

>  <Energy>  (20) 
48.201916863648194

>  <Genealogy>  (20) 
COc1ccc2[n-]c(C)cc(=NC3CCCC3)c2c1 (protonated)
COc1ccc2[n-]c(C)c/c(=N\C3CCCC3)c2c1 (cis-trans isomerization)
COc1ccc2[n-]c(C)c/c(=N\C3CCCC3)c2c1 (3D coordinates assigned)
COc1ccc2[n-]c(C)c/c(=N\C3CCCC3)c2c1 (nonaromatic ring conformer: 48.201916863648194 kcal/mol)

>  <smiles>  (20) 
COc1ccc2[nH]c(C)cc(=NC3CCCC3)c2c1

>  <score_type>  (20) 
oracle

>  <origin>  (20) 
adg

>  <m_score__min__energy>  (20) 
-7.6900000000000004

>  <m_primary>  (20) 
energy

$$$$
20:0
     RDKit          3D

 26 27  0  0  0  0  0  0  0  0999 V2000
   61.2490   30.4700   47.6470 C   0  0  0  0  0  0  0  0  0  0  0  0
   60.8970   29.9980   46.3550 O   0  0  0  0  0  0  0  0  0  0  0  0
   59.5620   29.7750   46.0010 C   0  0  0  0  0  0  0  0  0  0  0  0
   59.0400   28.4680   46.0210 C   0  0  0  0  0  0  0  0  0  0  0  0
   59.9060   27.3000   46.4020 C   0  0  0  0  0  0  0  0  0  0  0  0
   57.7120   28.2430   45.6270 C   0  0  0  0  0  0  0  0  0  0  0  0
   56.8840   29.3070   45.2460 C   0  0  0  0  0  0  0  0  0  0  0  0
   55.5300   29.0420   44.8550 N   0  0  0  0  0  0  0  0  0  0  0  0
   57.3910   30.6190   45.2550 C   0  0  0  0  0  0  0  0  0  0  0  0
   56.5970   31.6670   44.8970 N   0  0  0  0  0  0  0  0  0  0  0  0
   57.0500   32.9470   44.8940 C   0  0  0  0  0  0  0  0  0  0  0  0
   58.3640   33.2260   45.2660 C   0  0  0  0  0  0  0  0  0  0  0  0
   59.2080   32.1790   45.6390 C   0  0  0  0  0  0  0  0  0  0  0  0
   58.7340   30.8560   45.6350 C   0  0  0  0  0  0  0  0  0  0  0  0
   60.7757   29.8354   48.4107 H   0  0  0  0  0  0  0  0  0  0  0  0
   62.3420   30.4332   47.7656 H   0  0  0  0  0  0  0  0  0  0  0  0
   60.9020   31.5071   47.7656 H   0  0  0  0  0  0  0  0  0  0  0  0
   59.9607   27.2262   47.4982 H   0  0  0  0  0  0  0  0  0  0  0  0
   59.4741   26.3746   45.9933 H   0  0  0  0  0  0  0  0  0  0  0  0
   60.9170   27.4444   45.9933 H   0  0  0  0  0  0  0  0  0  0  0  0
   57.3157   27.2169   45.6172 H   0  0  0  0  0  0  0  0  0  0  0  0
   54.8980   29.8030   44.5230 H   0  0  0  0  0  0  0  0  0  0  0  0
   55.1450   28.0720   44.8940 H   0  0  0  0  0  0  0  0  0  0  0  0
   56.3782   33.7659   44.5972 H   0  0  0  0  0  0  0  0  0  0  0  0
   58.7325   34.2624   45.2656 H   0  0  0  0  0  0  0  0  0  0  0  0
   60.2458   32.3896   45.9366 H   0  0  0  0  0  0  0  0  0  0  0  0
  1  2  1  0
  2  3  1  0
  3  4  2  0
  4  5  1  0
  4  6  1  0
  6  7  2  0
  7  8  1  0
  7  9  1  0
  9 10  2  0
 10 11  1  0
 11 12  2  0
 12 13  1  0
 13 14  2  0
 14  3  1  0
 14  9  1  0
  1 15  1  0
  1 16  1  0
  1 17  1  0
  5 18  1  0
  5 19  1  0
  5 20  1  0
  6 21  1  0
  8 22  1  0
  8 23  1  0
 11 24  1  0
 12 25  1  0
 13 26  1  0
M  END
>  <UniqueID>  (21) 
20

>  <SMILES>  (21) 
COc1c(C)cc(N)c2ncccc12

>  <Energy>  (21) 
36.12397832447567

>  <Genealogy>  (21) 
COc1c(C)cc(N)c2ncccc12 (3D coordinates assigned)
COc1c(C)cc(N)c2ncccc12 (optimized conformer: 36.12397832447567 kcal/mol)

>  <smiles>  (21) 
COc1c(C)cc(N)c2ncccc12

>  <score_type>  (21) 
oracle

>  <origin>  (21) 
adg

>  <m_score__min__energy>  (21) 
-5.6200000000000001

>  <m_primary>  (21) 
energy

$$$$
21:0
     RDKit          3D

 28 29  0  0  0  0  0  0  0  0999 V2000
   58.5440   34.2730   45.8520 C   0  0  0  0  0  0  0  0  0  0  0  0
   57.1380   34.2150   45.2650 C   0  0  0  0  0  0  0  0  0  0  0  0
   56.6870   32.8660   45.1700 O   0  0  0  0  0  0  0  0  0  0  0  0
   57.3180   31.8970   44.3820 C   0  0  0  0  0  0  0  0  0  0  0  0
   58.1020   32.2320   43.4520 O   0  0  0  0  0  0  0  0  0  0  0  0
   57.0550   30.4770   44.6410 C   0  0  0  0  0  0  0  0  0  0  0  0
   58.0050   29.5000   44.8760 C   0  0  0  0  0  0  0  0  0  0  0  0
   57.2660   28.3440   45.0560 C   0  0  0  0  0  0  0  0  0  0  0  0
   57.8020   26.9900   45.3420 C   0  0  0  0  0  0  0  0  0  0  0  0
   57.1410   25.8400   44.8650 C   0  0  0  0  0  0  0  0  0  0  0  0
   57.6500   24.5660   45.1360 C   0  0  0  0  0  0  0  0  0  0  0  0
   58.8210   24.4220   45.8830 C   0  0  0  0  0  0  0  0  0  0  0  0
   59.4870   25.5530   46.3600 C   0  0  0  0  0  0  0  0  0  0  0  0
   58.9840   26.8290   46.0920 C   0  0  0  0  0  0  0  0  0  0  0  0
   55.9570   28.6470   44.9320 N   0  0  0  0  0  0  0  0  0  0  0  0
   55.8220   29.9400   44.6820 N   0  0  0  0  0  0  0  0  0  0  0  0
   58.4832   34.2705   46.9503 H   0  0  0  0  0  0  0  0  0  0  0  0
   59.1186   33.3978   45.5146 H   0  0  0  0  0  0  0  0  0  0  0  0
   59.0446   35.1926   45.5146 H   0  0  0  0  0  0  0  0  0  0  0  0
   56.4524   34.7802   45.9134 H   0  0  0  0  0  0  0  0  0  0  0  0
   57.1575   34.6533   44.2563 H   0  0  0  0  0  0  0  0  0  0  0  0
   59.0983   29.6154   44.9117 H   0  0  0  0  0  0  0  0  0  0  0  0
   56.2183   25.9454   44.2755 H   0  0  0  0  0  0  0  0  0  0  0  0
   57.1265   23.6748   44.7597 H   0  0  0  0  0  0  0  0  0  0  0  0
   59.2185   23.4186   46.0955 H   0  0  0  0  0  0  0  0  0  0  0  0
   60.4096   25.4392   46.9480 H   0  0  0  0  0  0  0  0  0  0  0  0
   59.5152   27.7151   46.4697 H   0  0  0  0  0  0  0  0  0  0  0  0
   55.1480   27.9960   45.0350 H   0  0  0  0  0  0  0  0  0  0  0  0
  1  2  1  0
  2  3  1  0
  3  4  1  0
  4  5  2  0
  4  6  1  0
  6  7  1  0
  7  8  2  0
  8  9  1  0
  9 10  2  0
 10 11  1  0
 11 12  2  0
 12 13  1  0
 13 14  2  0
  8 15  1  0
 15 16  1  0
 16  6  2  0
 14  9  1  0
  1 17  1  0
  1 18  1  0
  1 19  1  0
  2 20  1  0
  2 21  1  0
  7 22  1  0
 10 23  1  0
 11 24  1  0
 12 25  1  0
 13 26  1  0
 14 27  1  0
 15 28  1  0
M  END
>  <UniqueID>  (22) 
21

>  <SMILES>  (22) 
CCOC(=O)c1cc(-c2ccccc2)[nH]n1

>  <Energy>  (22) 
55.30478015280246

>  <Genealogy>  (22) 
CCOC(=O)c1cc(-c2ccccc2)[nH]n1 (3D coordinates assigned)
CCOC(=O)c1cc(-c2ccccc2)[nH]n1 (optimized conformer: 55.30478015280246 kcal/mol)

>  <smiles>  (22) 
CCOC(=O)c1cc(-c2ccccc2)[nH]n1

>  <score_type>  (22) 
oracle

>  <origin>  (22) 
adg

>  <m_score__min__energy>  (22) 
-6.2199999999999998

>  <m_primary>  (22) 
energy

$$$$
22:0
     RDKit          3D

 41 43  0  0  0  0  0  0  0  0999 V2000
   56.2880   29.7490   43.3640 C   0  0  0  0  0  0  0  0  0  0  0  0
   56.2900   30.5750   44.5220 O   0  0  0  0  0  0  0  0  0  0  0  0
   57.4390   30.9000   45.2630 C   0  0  0  0  0  0  0  0  0  0  0  0
   58.4500   29.9500   45.3720 C   0  0  0  0  0  0  0  0  0  0  0  0
   59.6150   30.2300   46.0860 C   0  0  0  0  0  0  0  0  0  0  0  0
   59.7960   31.4640   46.7410 C   0  0  0  0  0  0  0  0  0  0  0  0
   58.7520   32.4330   46.6440 C   0  0  0  0  0  0  0  0  0  0  0  0
   57.6020   32.1450   45.8940 C   0  0  0  0  0  0  0  0  0  0  0  0
   58.7400   34.0250   47.4970 S   0  0  0  0  0  0  0  0  0  0  0  0
   59.9450   34.8230   46.4000 C   0  0  0  0  0  0  0  0  0  0  0  0
   61.0850   33.8420   46.0740 C   0  0  0  0  0  0  0  0  0  0  0  0
   61.6420   33.1430   47.2630 N   0  0  2  0  0  0  0  0  0  0  0  0
   63.1300   33.2270   47.2140 C   0  0  0  0  0  0  0  0  0  0  0  0
   63.7440   33.7680   48.5300 C   0  0  2  0  0  0  0  0  0  0  0  0
   64.5620   32.7130   49.2690 C   0  0  0  0  0  0  0  0  0  0  0  0
   63.6160   32.1940   50.3070 C   0  0  0  0  0  0  0  0  0  0  0  0
   62.5990   33.3090   50.4590 C   0  0  0  0  0  0  0  0  0  0  0  0
   62.7070   34.2120   49.3800 O   0  0  0  0  0  0  0  0  0  0  0  0
   61.1920   31.7250   47.3120 C   0  0  0  0  0  0  0  0  0  0  0  0
   56.2854   28.6918   43.6677 H   0  0  0  0  0  0  0  0  0  0  0  0
   55.3904   29.9604   42.7644 H   0  0  0  0  0  0  0  0  0  0  0  0
   57.1866   29.9560   42.7644 H   0  0  0  0  0  0  0  0  0  0  0  0
   58.3292   28.9685   44.8903 H   0  0  0  0  0  0  0  0  0  0  0  0
   60.4095   29.4710   46.1388 H   0  0  0  0  0  0  0  0  0  0  0  0
   56.8143   32.9068   45.7982 H   0  0  0  0  0  0  0  0  0  0  0  0
   59.4456   35.1250   45.4676 H   0  0  0  0  0  0  0  0  0  0  0  0
   60.3614   35.7088   46.9020 H   0  0  0  0  0  0  0  0  0  0  0  0
   60.6996   33.0838   45.3764 H   0  0  0  0  0  0  0  0  0  0  0  0
   61.9034   34.4378   45.6435 H   0  0  0  0  0  0  0  0  0  0  0  0
   61.3330   33.6370   48.1300 H   0  0  0  0  0  0  0  0  0  0  0  0
   63.5329   32.2209   47.0256 H   0  0  0  0  0  0  0  0  0  0  0  0
   63.3960   33.9298   46.4107 H   0  0  0  0  0  0  0  0  0  0  0  0
   64.4195   34.5934   48.2607 H   0  0  0  0  0  0  0  0  0  0  0  0
   64.8744   31.9093   48.5860 H   0  0  0  0  0  0  0  0  0  0  0  0
   65.4891   33.1177   49.7011 H   0  0  0  0  0  0  0  0  0  0  0  0
   63.1325   31.2661   49.9677 H   0  0  0  0  0  0  0  0  0  0  0  0
   64.1180   31.9440   51.2533 H   0  0  0  0  0  0  0  0  0  0  0  0
   61.5867   32.8790   50.4740 H   0  0  0  0  0  0  0  0  0  0  0  0
   62.7905   33.8462   51.3996 H   0  0  0  0  0  0  0  0  0  0  0  0
   61.9117   31.1197   46.7413 H   0  0  0  0  0  0  0  0  0  0  0  0
   61.1406   31.4578   48.3778 H   0  0  0  0  0  0  0  0  0  0  0  0
  1  2  1  0
  2  3  1  0
  3  4  2  0
  4  5  1  0
  5  6  2  0
  6  7  1  0
  7  8  2  0
  7  9  1  0
  9 10  1  0
 10 11  1  0
 11 12  1  0
 12 13  1  0
 13 14  1  0
 14 15  1  0
 15 16  1  0
 16 17  1  0
 17 18  1  0
 12 19  1  0
  8  3  1  0
 18 14  1  0
 19  6  1  0
  1 20  1  0
  1 21  1  0
  1 22  1  0
  4 23  1  0
  5 24  1  0
  8 25  1  0
 10 26  1  0
 10 27  1  0
 11 28  1  0
 11 29  1  0
 12 30  1  1
 13 31  1  0
 13 32  1  0
 14 33  1  6
 15 34  1  0
 15 35  1  0
 16 36  1  0
 16 37  1  0
 17 38  1  0
 17 39  1  0
 19 40  1  0
 19 41  1  0
M  CHG  1  12   1
M  END
>  <UniqueID>  (23) 
22

>  <SMILES>  (23) 
COc1ccc2c(c1)SCC[N@H+](C[C@@H]1CCCO1)C2

>  <Energy>  (23) 
59.163751874169186

>  <Genealogy>  (23) 
COc1ccc2c(c1)SCC[NH+](CC1CCCO1)C2 (protonated)
COc1ccc2c(c1)SCC[N@H+](C[C@@H]1CCCO1)C2 (chirality)
COc1ccc2c(c1)SCC[N@H+](C[C@@H]1CCCO1)C2 (3D coordinates assigned)
COc1ccc2c(c1)SCC[N@H+](C[C@@H]1CCCO1)C2 (nonaromatic ring conformer: 59.163751874169186 kcal/mol)

>  <smiles>  (23) 
COc1ccc2c(c1)SCCN(CC1CCCO1)C2

>  <score_type>  (23) 
oracle

>  <origin>  (23) 
adg

>  <m_score__min__energy>  (23) 
-3.1299999999999999

>  <m_primary>  (23) 
energy

$$$$
23:0
     RDKit          3D

 46 48  0  0  0  0  0  0  0  0999 V2000
   58.7770   32.6560   48.4900 C   0  0  0  0  0  0  0  0  0  0  0  0
   58.8970   33.4490   47.2150 C   0  0  0  0  0  0  0  0  0  0  0  0
   59.5070   34.7160   47.2510 C   0  0  0  0  0  0  0  0  0  0  0  0
   59.6380   35.4760   46.0870 C   0  0  0  0  0  0  0  0  0  0  0  0
   59.1640   34.9820   44.8730 C   0  0  0  0  0  0  0  0  0  0  0  0
   58.5590   33.7250   44.8170 C   0  0  0  0  0  0  0  0  0  0  0  0
   58.4160   32.9450   45.9790 C   0  0  0  0  0  0  0  0  0  0  0  0
   57.7710   31.5810   45.8720 C   0  0  0  0  0  0  0  0  0  0  0  0
   58.4100   30.7920   44.7970 N   0  0  0  0  0  0  0  0  0  0  0  0
   59.4530   29.8840   45.3160 C   0  0  0  0  0  0  0  0  0  0  0  0
   58.8610   28.7220   46.1360 C   0  0  0  0  0  0  0  0  0  0  0  0
   57.5440   28.1800   45.5320 C   0  0  0  0  0  0  0  0  0  0  0  0
   57.4530   26.7230   45.6850 N   0  0  0  0  0  0  0  0  0  0  0  0
   58.5950   25.8130   45.6390 C   0  0  0  0  0  0  0  0  0  0  0  0
   58.0170   24.3930   45.8720 C   0  0  0  0  0  0  0  0  0  0  0  0
   56.5810   24.5750   46.0440 N   0  0  0  0  0  0  0  0  0  0  0  0
   55.6100   23.5180   46.2880 C   0  0  0  0  0  0  0  0  0  0  0  0
   56.2920   25.9510   45.9270 C   0  0  0  0  0  0  0  0  0  0  0  0
   55.1310   26.4300   46.0200 O   0  0  0  0  0  0  0  0  0  0  0  0
   57.3820   28.5840   44.0600 C   0  0  0  0  0  0  0  0  0  0  0  0
   57.4270   30.1170   43.9040 C   0  0  0  0  0  0  0  0  0  0  0  0
   58.8791   33.3309   49.3526 H   0  0  0  0  0  0  0  0  0  0  0  0
   57.7941   32.1634   48.5243 H   0  0  0  0  0  0  0  0  0  0  0  0
   59.5702   31.8946   48.5243 H   0  0  0  0  0  0  0  0  0  0  0  0
   59.8845   35.1119   48.2054 H   0  0  0  0  0  0  0  0  0  0  0  0
   60.1159   36.4659   46.1282 H   0  0  0  0  0  0  0  0  0  0  0  0
   59.2667   35.5833   43.9577 H   0  0  0  0  0  0  0  0  0  0  0  0
   58.1904   33.3406   43.8545 H   0  0  0  0  0  0  0  0  0  0  0  0
   57.8854   31.0499   46.8285 H   0  0  0  0  0  0  0  0  0  0  0  0
   56.7042   31.7081   45.6357 H   0  0  0  0  0  0  0  0  0  0  0  0
   60.0142   29.4676   44.4665 H   0  0  0  0  0  0  0  0  0  0  0  0
   60.1062   30.4673   45.9817 H   0  0  0  0  0  0  0  0  0  0  0  0
   59.5960   27.9043   46.1702 H   0  0  0  0  0  0  0  0  0  0  0  0
   58.6341   29.1049   47.1419 H   0  0  0  0  0  0  0  0  0  0  0  0
   56.7168   28.6386   46.0936 H   0  0  0  0  0  0  0  0  0  0  0  0
   59.0892   25.8686   44.6578 H   0  0  0  0  0  0  0  0  0  0  0  0
   59.3483   26.0718   46.3977 H   0  0  0  0  0  0  0  0  0  0  0  0
   58.2207   23.7488   45.0040 H   0  0  0  0  0  0  0  0  0  0  0  0
   58.4726   23.9079   46.7479 H   0  0  0  0  0  0  0  0  0  0  0  0
   55.4830   23.3798   47.3719 H   0  0  0  0  0  0  0  0  0  0  0  0
   54.6452   23.7954   45.8382 H   0  0  0  0  0  0  0  0  0  0  0  0
   55.9681   22.5802   45.8382 H   0  0  0  0  0  0  0  0  0  0  0  0
   58.1975   28.1377   43.4719 H   0  0  0  0  0  0  0  0  0  0  0  0
   56.4075   28.2219   43.7006 H   0  0  0  0  0  0  0  0  0  0  0  0
   57.6904   30.3503   42.8618 H   0  0  0  0  0  0  0  0  0  0  0  0
   56.4326   30.4933   44.1861 H   0  0  0  0  0  0  0  0  0  0  0  0
  1  2  1  0
  2  3  2  0
  3  4  1  0
  4  5  2  0
  5  6  1  0
  6  7  2  0
  7  8  1  0
  8  9  1  0
  9 10  1  0
 10 11  1  0
 11 12  1  0
 12 13  1  0
 13 14  1  0
 14 15  1  0
 15 16  1  0
 16 17  1  0
 16 18  1  0
 18 19  2  0
 12 20  1  0
 20 21  1  0
  7  2  1  0
 21  9  1  0
 18 13  1  0
  1 22  1  0
  1 23  1  0
  1 24  1  0
  3 25  1  0
  4 26  1  0
  5 27  1  0
  6 28  1  0
  8 29  1  0
  8 30  1  0
 10 31  1  0
 10 32  1  0
 11 33  1  0
 11 34  1  0
 12 35  1  0
 14 36  1  0
 14 37  1  0
 15 38  1  0
 15 39  1  0
 17 40  1  0
 17 41  1  0
 17 42  1  0
 20 43  1  0
 20 44  1  0
 21 45  1  0
 21 46  1  0
M  END
>  <UniqueID>  (24) 
23

>  <SMILES>  (24) 
Cc1ccccc1CN1CCC(N2CCN(C)C2=O)CC1

>  <Energy>  (24) 
65.08049009686134

>  <Genealogy>  (24) 
Cc1ccccc1CN1CCC(N2CCN(C)C2=O)CC1 (3D coordinates assigned)
Cc1ccccc1CN1CCC(N2CCN(C)C2=O)CC1 (nonaromatic ring conformer: 65.08049009686134 kcal/mol)

>  <smiles>  (24) 
Cc1ccccc1CN1CCC(N2CCN(C)C2=O)CC1

>  <score_type>  (24) 
oracle

>  <origin>  (24) 
adg

>  <m_score__min__energy>  (24) 
-7.75

>  <m_primary>  (24) 
energy

$$$$
24:0
     RDKit          3D

 71 75  0  0  0  0  0  0  0  0999 V2000
   63.1630   33.7360   52.4210 C   0  0  0  0  0  0  0  0  0  0  0  0
   63.3250   32.2900   52.0460 C   0  0  0  0  0  0  0  0  0  0  0  0
   64.5500   31.6470   52.2710 C   0  0  0  0  0  0  0  0  0  0  0  0
   64.7250   30.3140   51.8890 C   0  0  0  0  0  0  0  0  0  0  0  0
   63.6820   29.6170   51.2740 C   0  0  0  0  0  0  0  0  0  0  0  0
   62.4490   30.2460   51.0420 C   0  0  0  0  0  0  0  0  0  0  0  0
   61.3830   29.5410   50.3810 N   0  0  0  0  0  0  0  0  0  0  0  0
   61.2140   28.1000   50.5960 C   0  0  0  0  0  0  0  0  0  0  0  0
   60.3410   27.4870   49.4930 C   0  0  0  0  0  0  0  0  0  0  0  0
   60.6310   28.1370   48.1940 N   0  0  0  0  0  0  0  0  0  0  0  0
   59.9940   27.3670   47.0970 C   0  0  0  0  0  0  0  0  0  0  0  0
   59.4150   28.2730   45.9950 C   0  0  0  0  0  0  0  0  0  0  0  0
   58.4320   27.5850   45.2450 O   0  0  0  0  0  0  0  0  0  0  0  0
   58.0020   28.3390   44.1250 C   0  0  0  0  0  0  0  0  0  0  0  0
   56.9430   29.3940   44.5200 C   0  0  2  0  0  0  0  0  0  0  0  0
   55.9740   29.6810   43.3530 C   0  0  0  0  0  0  0  0  0  0  0  0
   56.6330   30.5480   42.2710 C   0  0  0  0  0  0  0  0  0  0  0  0
   57.1930   31.7310   42.8380 O   0  0  0  0  0  0  0  0  0  0  0  0
   57.7210   31.7770   44.1350 C   0  0  0  0  0  0  0  0  0  0  0  0
   58.3300   32.9530   44.5840 C   0  0  0  0  0  0  0  0  0  0  0  0
   58.8090   33.0470   45.8970 C   0  0  0  0  0  0  0  0  0  0  0  0
   59.4800   34.5680   46.4730 S   0  0  0  0  0  0  0  0  0  0  0  0
   59.6890   35.5220   45.3310 O   0  0  0  0  0  0  0  0  0  0  0  0
   58.5290   35.2000   47.4510 O   0  0  0  0  0  0  0  0  0  0  0  0
   61.0230   34.2250   47.2460 C   0  0  0  0  0  0  0  0  0  0  0  0
   61.1880   34.4220   48.6240 C   0  0  0  0  0  0  0  0  0  0  0  0
   62.3930   34.0730   49.2430 C   0  0  0  0  0  0  0  0  0  0  0  0
   63.4380   33.5260   48.4910 C   0  0  0  0  0  0  0  0  0  0  0  0
   64.6000   33.1730   49.1000 F   0  0  0  0  0  0  0  0  0  0  0  0
   63.2780   33.3300   47.1140 C   0  0  0  0  0  0  0  0  0  0  0  0
   64.2840   32.7850   46.3840 F   0  0  0  0  0  0  0  0  0  0  0  0
   62.0730   33.6780   46.4920 C   0  0  0  0  0  0  0  0  0  0  0  0
   58.6740   31.9540   46.7630 C   0  0  0  0  0  0  0  0  0  0  0  0
   58.0740   30.7750   46.3180 C   0  0  0  0  0  0  0  0  0  0  0  0
   57.5960   30.6740   45.0010 C   0  0  0  0  0  0  0  0  0  0  0  0
   60.1830   29.5550   48.2040 C   0  0  0  0  0  0  0  0  0  0  0  0
   60.4050   30.2640   49.5610 C   0  0  0  0  0  0  0  0  0  0  0  0
   62.2780   31.5870   51.4260 C   0  0  0  0  0  0  0  0  0  0  0  0
   63.1523   33.8316   53.5168 H   0  0  0  0  0  0  0  0  0  0  0  0
   64.0016   34.3175   52.0104 H   0  0  0  0  0  0  0  0  0  0  0  0
   62.2165   34.1175   52.0104 H   0  0  0  0  0  0  0  0  0  0  0  0
   65.3762   32.1932   52.7497 H   0  0  0  0  0  0  0  0  0  0  0  0
   65.6865   29.8123   52.0731 H   0  0  0  0  0  0  0  0  0  0  0  0
   63.8279   28.5699   50.9701 H   0  0  0  0  0  0  0  0  0  0  0  0
   62.2013   27.6151   50.5867 H   0  0  0  0  0  0  0  0  0  0  0  0
   60.7210   27.9421   51.5666 H   0  0  0  0  0  0  0  0  0  0  0  0
   60.5539   26.4105   49.4167 H   0  0  0  0  0  0  0  0  0  0  0  0
   59.2815   27.6422   49.7446 H   0  0  0  0  0  0  0  0  0  0  0  0
   61.6680   28.1120   48.0410 H   0  0  0  0  0  0  0  0  0  0  0  0
   60.7484   26.7043   46.6478 H   0  0  0  0  0  0  0  0  0  0  0  0
   59.1596   26.7969   47.5316 H   0  0  0  0  0  0  0  0  0  0  0  0
   58.9592   29.1599   46.4595 H   0  0  0  0  0  0  0  0  0  0  0  0
   60.2299   28.5714   45.3191 H   0  0  0  0  0  0  0  0  0  0  0  0
   58.8702   28.8522   43.6858 H   0  0  0  0  0  0  0  0  0  0  0  0
   57.5453   27.6483   43.4008 H   0  0  0  0  0  0  0  0  0  0  0  0
   56.3575   28.9763   45.3523 H   0  0  0  0  0  0  0  0  0  0  0  0
   55.6626   28.7260   42.9045 H   0  0  0  0  0  0  0  0  0  0  0  0
   55.1076   30.2288   43.7522 H   0  0  0  0  0  0  0  0  0  0  0  0
   57.4314   29.9698   41.7829 H   0  0  0  0  0  0  0  0  0  0  0  0
   55.8660   30.8386   41.5380 H   0  0  0  0  0  0  0  0  0  0  0  0
   58.4336   33.8097   43.9018 H   0  0  0  0  0  0  0  0  0  0  0  0
   60.3689   34.8516   49.2194 H   0  0  0  0  0  0  0  0  0  0  0  0
   62.5192   34.2292   50.3245 H   0  0  0  0  0  0  0  0  0  0  0  0
   61.9488   33.5224   45.4102 H   0  0  0  0  0  0  0  0  0  0  0  0
   59.0421   32.0253   47.7971 H   0  0  0  0  0  0  0  0  0  0  0  0
   57.9749   29.9198   47.0027 H   0  0  0  0  0  0  0  0  0  0  0  0
   60.7417   30.1019   47.4302 H   0  0  0  0  0  0  0  0  0  0  0  0
   59.0995   29.5528   48.0141 H   0  0  0  0  0  0  0  0  0  0  0  0
   60.7741   31.2838   49.3773 H   0  0  0  0  0  0  0  0  0  0  0  0
   59.4475   30.2909   50.1018 H   0  0  0  0  0  0  0  0  0  0  0  0
   61.3176   32.0900   51.2399 H   0  0  0  0  0  0  0  0  0  0  0  0
  1  2  1  0
  2  3  2  0
  3  4  1  0
  4  5  2  0
  5  6  1  0
  6  7  1  0
  7  8  1  0
  8  9  1  0
  9 10  1  0
 10 11  1  0
 11 12  1  0
 12 13  1  0
 13 14  1  0
 14 15  1  0
 15 16  1  0
 16 17  1  0
 17 18  1  0
 18 19  1  0
 19 20  2  0
 20 21  1  0
 21 22  1  0
 22 23  2  0
 22 24  2  0
 22 25  1  0
 25 26  2  0
 26 27  1  0
 27 28  2  0
 28 29  1  0
 28 30  1  0
 30 31  1  0
 30 32  2  0
 21 33  2  0
 33 34  1  0
 34 35  2  0
 10 36  1  0
 36 37  1  0
  6 38  2  0
 38  2  1  0
 37  7  1  0
 35 15  1  0
 35 19  1  0
 32 25  1  0
  1 39  1  0
  1 40  1  0
  1 41  1  0
  3 42  1  0
  4 43  1  0
  5 44  1  0
  8 45  1  0
  8 46  1  0
  9 47  1  0
  9 48  1  0
 10 49  1  0
 11 50  1  0
 11 51  1  0
 12 52  1  0
 12 53  1  0
 14 54  1  0
 14 55  1  0
 15 56  1  1
 16 57  1  0
 16 58  1  0
 17 59  1  0
 17 60  1  0
 20 61  1  0
 26 62  1  0
 27 63  1  0
 32 64  1  0
 33 65  1  0
 34 66  1  0
 36 67  1  0
 36 68  1  0
 37 69  1  0
 37 70  1  0
 38 71  1  0
M  CHG  1  10   1
M  END
>  <UniqueID>  (25) 
24

>  <SMILES>  (25) 
Cc1cccc(N2CC[NH+](CCOC[C@@H]3CCOc4cc(S(=O)(=O)c5ccc(F)c(F)c5)ccc43)CC2)c1

>  <Energy>  (25) 
90.3723317658969

>  <Genealogy>  (25) 
Cc1cccc(N2CC[NH+](CCOCC3CCOc4cc(S(=O)(=O)c5ccc(F)c(F)c5)ccc43)CC2)c1 (protonated)
Cc1cccc(N2CC[NH+](CCOC[C@@H]3CCOc4cc(S(=O)(=O)c5ccc(F)c(F)c5)ccc43)CC2)c1 (chirality)
Cc1cccc(N2CC[NH+](CCOC[C@@H]3CCOc4cc(S(=O)(=O)c5ccc(F)c(F)c5)ccc43)CC2)c1 (3D coordinates assigned)
Cc1cccc(N2CC[NH+](CCOC[C@@H]3CCOc4cc(S(=O)(=O)c5ccc(F)c(F)c5)ccc43)CC2)c1 (nonaromatic ring conformer: 90.3723317658969 kcal/mol)

>  <smiles>  (25) 
Cc1cccc(N2CCN(CCOCC3CCOc4cc(S(=O)(=O)c5ccc(F)c(F)c5)ccc43)CC2)c1

>  <score_type>  (25) 
oracle

>  <origin>  (25) 
adg

>  <m_score__min__energy>  (25) 
-8.5800000000000001

>  <m_primary>  (25) 
energy

$$$$
25:0
     RDKit          3D

 43 45  0  0  0  0  0  0  0  0999 V2000
   53.5800   21.7300   46.4510 C   0  0  0  0  0  0  0  0  0  0  0  0
   53.9510   22.3430   45.2220 O   0  0  0  0  0  0  0  0  0  0  0  0
   54.9710   23.2980   45.0850 C   0  0  0  0  0  0  0  0  0  0  0  0
   55.0170   24.4600   45.8780 C   0  0  0  0  0  0  0  0  0  0  0  0
   56.0470   25.3880   45.7150 C   0  0  0  0  0  0  0  0  0  0  0  0
   57.0550   25.1670   44.7680 C   0  0  0  0  0  0  0  0  0  0  0  0
   58.1460   26.1860   44.5710 C   0  0  0  0  0  0  0  0  0  0  0  0
   57.7780   27.1570   43.4460 C   0  0  0  0  0  0  0  0  0  0  0  0
   58.1520   28.5220   43.8060 N   0  0  0  0  0  0  0  0  0  0  0  0
   57.2960   29.3800   44.5750 C   0  0  0  0  0  0  0  0  0  0  0  0
   56.1570   28.9770   44.9390 O   0  0  0  0  0  0  0  0  0  0  0  0
   57.7370   30.7350   44.9360 C   0  0  0  0  0  0  0  0  0  0  0  0
   58.1370   31.7220   44.0370 C   0  0  0  0  0  0  0  0  0  0  0  0
   58.4510   32.7990   44.8340 C   0  0  0  0  0  0  0  0  0  0  0  0
   58.9100   34.0730   44.5080 C   0  0  0  0  0  0  0  0  0  0  0  0
   59.1450   34.9720   45.5650 C   0  0  0  0  0  0  0  0  0  0  0  0
   58.9190   34.5810   46.9040 C   0  0  0  0  0  0  0  0  0  0  0  0
   58.4540   33.2850   47.1970 C   0  0  0  0  0  0  0  0  0  0  0  0
   58.2310   32.4170   46.1300 C   0  0  0  0  0  0  0  0  0  0  0  0
   57.8030   31.1800   46.1780 O   0  0  0  0  0  0  0  0  0  0  0  0
   57.0060   24.0170   43.9650 C   0  0  0  0  0  0  0  0  0  0  0  0
   55.9690   23.0770   44.1230 C   0  0  0  0  0  0  0  0  0  0  0  0
   55.8940   21.9130   43.3410 O   0  0  0  0  0  0  0  0  0  0  0  0
   57.0110   21.1000   42.9940 C   0  0  0  0  0  0  0  0  0  0  0  0
   53.9483   22.3385   47.2901 H   0  0  0  0  0  0  0  0  0  0  0  0
   52.4841   21.6538   46.5066 H   0  0  0  0  0  0  0  0  0  0  0  0
   54.0208   20.7237   46.5066 H   0  0  0  0  0  0  0  0  0  0  0  0
   54.2357   24.6381   46.6316 H   0  0  0  0  0  0  0  0  0  0  0  0
   56.0671   26.2975   46.3335 H   0  0  0  0  0  0  0  0  0  0  0  0
   58.2865   26.7506   45.5046 H   0  0  0  0  0  0  0  0  0  0  0  0
   59.0751   25.6635   44.2994 H   0  0  0  0  0  0  0  0  0  0  0  0
   58.3099   26.8660   42.5282 H   0  0  0  0  0  0  0  0  0  0  0  0
   56.6909   27.1172   43.2830 H   0  0  0  0  0  0  0  0  0  0  0  0
   59.0580   28.8990   43.4440 H   0  0  0  0  0  0  0  0  0  0  0  0
   58.1897   31.6553   42.9403 H   0  0  0  0  0  0  0  0  0  0  0  0
   59.0826   34.3660   43.4619 H   0  0  0  0  0  0  0  0  0  0  0  0
   59.5076   35.9874   45.3470 H   0  0  0  0  0  0  0  0  0  0  0  0
   59.1073   35.2927   47.7213 H   0  0  0  0  0  0  0  0  0  0  0  0
   58.2726   32.9678   48.2345 H   0  0  0  0  0  0  0  0  0  0  0  0
   57.7840   23.8483   43.2059 H   0  0  0  0  0  0  0  0  0  0  0  0
   57.5028   20.7421   43.9105 H   0  0  0  0  0  0  0  0  0  0  0  0
   56.6679   20.2389   42.4018 H   0  0  0  0  0  0  0  0  0  0  0  0
   57.7249   21.6912   42.4018 H   0  0  0  0  0  0  0  0  0  0  0  0
  1  2  1  0
  2  3  1  0
  3  4  2  0
  4  5  1  0
  5  6  2  0
  6  7  1  0
  7  8  1  0
  8  9  1  0
  9 10  1  0
 10 11  2  0
 10 12  1  0
 12 13  2  0
 13 14  1  0
 14 15  2  0
 15 16  1  0
 16 17  2  0
 17 18  1  0
 18 19  2  0
 19 20  1  0
  6 21  1  0
 21 22  2  0
 22 23  1  0
 23 24  1  0
 22  3  1  0
 20 12  1  0
 19 14  1  0
  1 25  1  0
  1 26  1  0
  1 27  1  0
  4 28  1  0
  5 29  1  0
  7 30  1  0
  7 31  1  0
  8 32  1  0
  8 33  1  0
  9 34  1  0
 13 35  1  0
 15 36  1  0
 16 37  1  0
 17 38  1  0
 18 39  1  0
 21 40  1  0
 24 41  1  0
 24 42  1  0
 24 43  1  0
M  END
>  <UniqueID>  (26) 
25

>  <SMILES>  (26) 
COc1ccc(CCNC(=O)c2cc3ccccc3o2)cc1OC

>  <Energy>  (26) 
71.94123607579651

>  <Genealogy>  (26) 
COc1ccc(CCNC(=O)c2cc3ccccc3o2)cc1OC (3D coordinates assigned)
COc1ccc(CCNC(=O)c2cc3ccccc3o2)cc1OC (optimized conformer: 71.94123607579651 kcal/mol)

>  <smiles>  (26) 
COc1ccc(CCNC(=O)c2cc3ccccc3o2)cc1OC

>  <score_type>  (26) 
oracle

>  <origin>  (26) 
adg

>  <m_score__min__energy>  (26) 
-8.0600000000000005

>  <m_primary>  (26) 
energy

$$$$
26:0
     RDKit          3D

 27 28  0  0  0  0  0  0  0  0999 V2000
   56.3210   29.3370   42.3790 C   0  0  0  0  0  0  0  0  0  0  0  0
   56.9370   30.5330   43.0480 C   0  0  0  0  0  0  0  0  0  0  0  0
   57.4010   31.5960   42.2550 C   0  0  0  0  0  0  0  0  0  0  0  0
   57.9910   32.7170   42.8430 C   0  0  0  0  0  0  0  0  0  0  0  0
   58.1200   32.7920   44.2340 C   0  0  0  0  0  0  0  0  0  0  0  0
   58.7130   33.8960   44.8550 C   0  0  0  0  0  0  0  0  0  0  0  0
   58.8140   33.9280   46.2440 C   0  0  0  0  0  0  0  0  0  0  0  0
   58.3180   32.8490   46.9850 C   0  0  0  0  0  0  0  0  0  0  0  0
   58.3990   32.8580   48.2410 O   0  0  0  0  0  0  0  0  0  0  0  0
   57.7580   31.8130   46.3690 O   0  0  0  0  0  0  0  0  0  0  0  0
   57.6410   31.7400   45.0440 C   0  0  0  0  0  0  0  0  0  0  0  0
   57.0320   30.6220   44.4540 C   0  0  0  0  0  0  0  0  0  0  0  0
   56.5460   29.6010   45.2790 O   0  0  0  0  0  0  0  0  0  0  0  0
   57.4010   28.6440   45.9000 C   0  0  0  0  0  0  0  0  0  0  0  0
   56.9210   27.2260   45.6100 C   0  0  0  0  0  0  0  0  0  0  0  0
   55.5390   27.1880   45.6290 F   0  0  0  0  0  0  0  0  0  0  0  0
   55.9592   28.6346   43.1444 H   0  0  0  0  0  0  0  0  0  0  0  0
   55.4779   29.6616   41.7514 H   0  0  0  0  0  0  0  0  0  0  0  0
   57.0749   28.8391   41.7514 H   0  0  0  0  0  0  0  0  0  0  0  0
   57.2986   31.5448   41.1610 H   0  0  0  0  0  0  0  0  0  0  0  0
   58.3545   33.5415   42.2120 H   0  0  0  0  0  0  0  0  0  0  0  0
   59.0964   34.7320   44.2516 H   0  0  0  0  0  0  0  0  0  0  0  0
   59.2764   34.7879   46.7507 H   0  0  0  0  0  0  0  0  0  0  0  0
   58.4227   28.7662   45.5112 H   0  0  0  0  0  0  0  0  0  0  0  0
   57.3851   28.8079   46.9876 H   0  0  0  0  0  0  0  0  0  0  0  0
   57.2816   26.9136   44.6189 H   0  0  0  0  0  0  0  0  0  0  0  0
   57.3144   26.5443   46.3784 H   0  0  0  0  0  0  0  0  0  0  0  0
  1  2  1  0
  2  3  2  0
  3  4  1  0
  4  5  2  0
  5  6  1  0
  6  7  2  0
  7  8  1  0
  8  9  2  0
  8 10  1  0
 10 11  1  0
 11 12  2  0
 12 13  1  0
 13 14  1  0
 14 15  1  0
 15 16  1  0
 12  2  1  0
 11  5  1  0
  1 17  1  0
  1 18  1  0
  1 19  1  0
  3 20  1  0
  4 21  1  0
  6 22  1  0
  7 23  1  0
 14 24  1  0
 14 25  1  0
 15 26  1  0
 15 27  1  0
M  END
>  <UniqueID>  (27) 
26

>  <SMILES>  (27) 
Cc1ccc2ccc(=O)oc2c1OCCF

>  <Energy>  (27) 
34.63721129510615

>  <Genealogy>  (27) 
Cc1ccc2ccc(=O)oc2c1OCCF (3D coordinates assigned)
Cc1ccc2ccc(=O)oc2c1OCCF (optimized conformer: 34.63721129510615 kcal/mol)

>  <smiles>  (27) 
Cc1ccc2ccc(=O)oc2c1OCCF

>  <score_type>  (27) 
oracle

>  <origin>  (27) 
adg

>  <m_score__min__energy>  (27) 
-6.0599999999999996

>  <m_primary>  (27) 
energy

$$$$
27:0
     RDKit          3D

 55 58  0  0  0  0  0  0  0  0999 V2000
   53.9600   24.8360   45.6040 C   0  0  0  0  0  0  0  0  0  0  0  0
   54.6230   26.0540   45.9260 O   0  0  0  0  0  0  0  0  0  0  0  0
   56.0160   26.1960   46.0350 C   0  0  0  0  0  0  0  0  0  0  0  0
   56.8420   25.1480   46.4840 C   0  0  0  0  0  0  0  0  0  0  0  0
   58.2220   25.3270   46.5800 C   0  0  0  0  0  0  0  0  0  0  0  0
   58.8020   26.5570   46.2400 C   0  0  0  0  0  0  0  0  0  0  0  0
   60.2950   26.7370   46.3110 C   0  0  0  0  0  0  0  0  0  0  0  0
   60.7580   26.8270   47.7670 C   0  0  0  0  0  0  0  0  0  0  0  0
   60.0790   27.9230   48.4480 N   0  0  0  0  0  0  0  0  0  0  0  0
   59.6880   29.1350   47.7970 C   0  0  0  0  0  0  0  0  0  0  0  0
   58.5440   29.6260   48.0000 O   0  0  0  0  0  0  0  0  0  0  0  0
   60.6530   29.8050   46.8600 C   0  0  0  0  0  0  0  0  0  0  0  0
   60.5330   31.2760   46.9020 N   0  0  0  0  0  0  0  0  0  0  0  0
   59.3560   31.9080   46.3240 C   0  0  0  0  0  0  0  0  0  0  0  0
   58.6980   31.3350   45.2130 C   0  0  0  0  0  0  0  0  0  0  0  0
   57.5540   31.9280   44.6730 C   0  0  0  0  0  0  0  0  0  0  0  0
   57.0430   33.1000   45.2300 C   0  0  0  0  0  0  0  0  0  0  0  0
   57.6770   33.6830   46.3270 C   0  0  0  0  0  0  0  0  0  0  0  0
   58.8280   33.0970   46.8690 C   0  0  0  0  0  0  0  0  0  0  0  0
   59.6060   33.8410   48.2430 S   0  0  0  0  0  0  0  0  0  0  0  0
   59.5970   35.3360   48.0850 O   0  0  0  0  0  0  0  0  0  0  0  0
   58.9120   33.4470   49.5160 O   0  0  0  0  0  0  0  0  0  0  0  0
   61.2490   33.2550   48.2390 C   0  0  0  0  0  0  0  0  0  0  0  0
   62.2420   33.9830   48.9090 C   0  0  0  0  0  0  0  0  0  0  0  0
   63.5610   33.5280   48.9170 C   0  0  0  0  0  0  0  0  0  0  0  0
   63.8920   32.3440   48.2600 C   0  0  0  0  0  0  0  0  0  0  0  0
   62.9050   31.6100   47.5950 C   0  0  0  0  0  0  0  0  0  0  0  0
   61.5640   32.0530   47.5740 C   0  0  0  0  0  0  0  0  0  0  0  0
   57.9850   27.6000   45.7800 C   0  0  0  0  0  0  0  0  0  0  0  0
   56.5900   27.4280   45.6800 C   0  0  0  0  0  0  0  0  0  0  0  0
   55.7430   28.4530   45.2300 O   0  0  0  0  0  0  0  0  0  0  0  0
   56.0580   29.3540   44.1730 C   0  0  0  0  0  0  0  0  0  0  0  0
   53.6771   24.3163   46.5313 H   0  0  0  0  0  0  0  0  0  0  0  0
   53.0565   25.0547   45.0160 H   0  0  0  0  0  0  0  0  0  0  0  0
   54.6342   24.1959   45.0160 H   0  0  0  0  0  0  0  0  0  0  0  0
   56.3960   24.1814   46.7610 H   0  0  0  0  0  0  0  0  0  0  0  0
   58.8585   24.4986   46.9243 H   0  0  0  0  0  0  0  0  0  0  0  0
   60.7859   25.8793   45.8279 H   0  0  0  0  0  0  0  0  0  0  0  0
   60.5647   27.6701   45.7948 H   0  0  0  0  0  0  0  0  0  0  0  0
   60.5265   25.8821   48.2803 H   0  0  0  0  0  0  0  0  0  0  0  0
   61.8423   27.0111   47.7865 H   0  0  0  0  0  0  0  0  0  0  0  0
   61.6777   29.5239   47.1446 H   0  0  0  0  0  0  0  0  0  0  0  0
   60.4194   29.4739   45.8374 H   0  0  0  0  0  0  0  0  0  0  0  0
   59.0916   30.4096   44.7671 H   0  0  0  0  0  0  0  0  0  0  0  0
   57.0552   31.4694   43.8065 H   0  0  0  0  0  0  0  0  0  0  0  0
   56.1410   33.5641   44.8046 H   0  0  0  0  0  0  0  0  0  0  0  0
   57.2719   34.6058   46.7679 H   0  0  0  0  0  0  0  0  0  0  0  0
   61.9806   34.9158   49.4300 H   0  0  0  0  0  0  0  0  0  0  0  0
   64.3387   34.1029   49.4411 H   0  0  0  0  0  0  0  0  0  0  0  0
   64.9322   31.9862   48.2647 H   0  0  0  0  0  0  0  0  0  0  0  0
   63.1763   30.6757   47.0817 H   0  0  0  0  0  0  0  0  0  0  0  0
   58.4374   28.5612   45.4946 H   0  0  0  0  0  0  0  0  0  0  0  0
   56.3931   30.3126   44.5959 H   0  0  0  0  0  0  0  0  0  0  0  0
   56.8599   28.9263   43.5533 H   0  0  0  0  0  0  0  0  0  0  0  0
   55.1643   29.5191   43.5533 H   0  0  0  0  0  0  0  0  0  0  0  0
  1  2  1  0
  2  3  1  0
  3  4  2  0
  4  5  1  0
  5  6  2  0
  6  7  1  0
  7  8  1  0
  8  9  1  0
  9 10  1  0
 10 11  2  0
 10 12  1  0
 12 13  1  0
 13 14  1  0
 14 15  2  0
 15 16  1  0
 16 17  2  0
 17 18  1  0
 18 19  2  0
 19 20  1  0
 20 21  2  0
 20 22  2  0
 20 23  1  0
 23 24  2  0
 24 25  1  0
 25 26  2  0
 26 27  1  0
 27 28  2  0
  6 29  1  0
 29 30  2  0
 30 31  1  0
 31 32  1  0
 30  3  1  0
 28 13  1  0
 19 14  1  0
 28 23  1  0
  1 33  1  0
  1 34  1  0
  1 35  1  0
  4 36  1  0
  5 37  1  0
  7 38  1  0
  7 39  1  0
  8 40  1  0
  8 41  1  0
 12 42  1  0
 12 43  1  0
 15 44  1  0
 16 45  1  0
 17 46  1  0
 18 47  1  0
 24 48  1  0
 25 49  1  0
 26 50  1  0
 27 51  1  0
 29 52  1  0
 32 53  1  0
 32 54  1  0
 32 55  1  0
M  CHG  1   9  -1
M  END
>  <UniqueID>  (28) 
27

>  <SMILES>  (28) 
COc1ccc(CC[N-]C(=O)CN2c3ccccc3S(=O)(=O)c3ccccc32)cc1OC

>  <Energy>  (28) 
65.99707384999756

>  <Genealogy>  (28) 
COc1ccc(CC[N-]C(=O)CN2c3ccccc3S(=O)(=O)c3ccccc32)cc1OC (protonated)
COc1ccc(CC[N-]C(=O)CN2c3ccccc3S(=O)(=O)c3ccccc32)cc1OC (3D coordinates assigned)
COc1ccc(CC[N-]C(=O)CN2c3ccccc3S(=O)(=O)c3ccccc32)cc1OC (nonaromatic ring conformer: 65.99707384999756 kcal/mol)

>  <smiles>  (28) 
COc1ccc(CCNC(=O)CN2c3ccccc3S(=O)(=O)c3ccccc32)cc1OC

>  <score_type>  (28) 
oracle

>  <origin>  (28) 
adg

>  <m_score__min__energy>  (28) 
-10.800000000000001

>  <m_primary>  (28) 
energy

$$$$
28:0
     RDKit          3D

 43 47  0  0  0  0  0  0  0  0999 V2000
   54.7800   28.4140   44.4210 H   0  0  0  0  0  0  0  0  0  0  0  0
   55.1520   29.3670   44.2220 N   0  0  0  0  0  0  0  0  0  0  0  0
   56.1730   29.9050   44.8140 C   0  0  0  0  0  0  0  0  0  0  0  0
   56.3290   31.2520   44.7200 N   0  0  0  0  0  0  0  0  0  0  0  0
   57.4000   31.9050   45.2390 C   0  0  0  0  0  0  0  0  0  0  0  0
   57.4708   32.9989   45.1473 H   0  0  0  0  0  0  0  0  0  0  0  0
   58.4160   31.1930   45.8910 C   0  0  0  0  0  0  0  0  0  0  0  0
   59.6030   31.8760   46.4670 C   0  0  0  0  0  0  0  0  0  0  0  0
   60.3980   31.2030   47.3460 N   0  0  0  0  0  0  0  0  0  0  0  0
   61.5010   31.7650   47.9080 C   0  0  0  0  0  0  0  0  0  0  0  0
   62.2810   31.0330   48.8080 C   0  0  0  0  0  0  0  0  0  0  0  0
   62.0013   30.0001   49.0628 H   0  0  0  0  0  0  0  0  0  0  0  0
   63.4160   31.6110   49.3850 C   0  0  0  0  0  0  0  0  0  0  0  0
   64.0265   31.0299   50.0918 H   0  0  0  0  0  0  0  0  0  0  0  0
   63.7820   32.9340   49.0660 C   0  0  0  0  0  0  0  0  0  0  0  0
   64.9110   33.5560   49.6210 O   0  0  0  0  0  0  0  0  0  0  0  0
   66.0440   32.8590   50.1280 C   0  0  0  0  0  0  0  0  0  0  0  0
   66.0212   32.8730   51.2277 H   0  0  0  0  0  0  0  0  0  0  0  0
   66.0225   31.8177   49.7740 H   0  0  0  0  0  0  0  0  0  0  0  0
   66.9637   33.3477   49.7740 H   0  0  0  0  0  0  0  0  0  0  0  0
   62.9980   33.6650   48.1630 C   0  0  0  0  0  0  0  0  0  0  0  0
   63.2778   34.6979   47.9085 H   0  0  0  0  0  0  0  0  0  0  0  0
   61.8600   33.0890   47.5820 C   0  0  0  0  0  0  0  0  0  0  0  0
   61.0660   33.8000   46.6750 C   0  0  0  0  0  0  0  0  0  0  0  0
   61.3290   34.8336   46.4056 H   0  0  0  0  0  0  0  0  0  0  0  0
   59.9390   33.1960   46.1120 C   0  0  0  0  0  0  0  0  0  0  0  0
   59.3165   33.7500   45.3939 H   0  0  0  0  0  0  0  0  0  0  0  0
   58.2700   29.8030   46.0230 C   0  0  0  0  0  0  0  0  0  0  0  0
   59.0490   29.2242   46.5408 H   0  0  0  0  0  0  0  0  0  0  0  0
   57.1460   29.1390   45.5050 C   0  0  0  0  0  0  0  0  0  0  0  0
   57.0250   27.6810   45.7390 C   0  0  0  0  0  0  0  0  0  0  0  0
   55.8440   27.0110   45.6640 N   0  0  0  0  0  0  0  0  0  0  0  0
   56.1910   25.7620   46.0080 C   0  0  0  0  0  0  0  0  0  0  0  0
   55.3690   24.6420   46.0990 C   0  0  0  0  0  0  0  0  0  0  0  0
   54.2946   24.7037   45.8715 H   0  0  0  0  0  0  0  0  0  0  0  0
   55.9630   23.4270   46.4930 C   0  0  0  0  0  0  0  0  0  0  0  0
   55.3481   22.5186   46.5746 H   0  0  0  0  0  0  0  0  0  0  0  0
   57.3450   23.3690   46.7840 C   0  0  0  0  0  0  0  0  0  0  0  0
   57.7997   22.4156   47.0911 H   0  0  0  0  0  0  0  0  0  0  0  0
   58.1430   24.5250   46.6830 C   0  0  0  0  0  0  0  0  0  0  0  0
   59.2192   24.4959   46.9089 H   0  0  0  0  0  0  0  0  0  0  0  0
   57.5210   25.7060   46.2870 C   0  0  0  0  0  0  0  0  0  0  0  0
   58.0780   26.9160   46.1340 N   0  0  0  0  0  0  0  0  0  0  0  0
  1  2  1  0
  2  3  2  0
  3  4  1  0
  4  5  1  0
  5  6  1  0
  5  7  2  0
  7  8  1  0
  8  9  2  0
  9 10  1  0
 10 11  2  0
 11 12  1  0
 11 13  1  0
 13 14  1  0
 13 15  2  0
 15 16  1  0
 16 17  1  0
 17 18  1  0
 17 19  1  0
 17 20  1  0
 15 21  1  0
 21 22  1  0
 21 23  2  0
 23 24  1  0
 24 25  1  0
 24 26  2  0
 26 27  1  0
  7 28  1  0
 28 29  1  0
 28 30  2  0
 30 31  1  0
 31 32  2  0
 32 33  1  0
 33 34  2  0
 34 35  1  0
 34 36  1  0
 36 37  1  0
 36 38  2  0
 38 39  1  0
 38 40  1  0
 40 41  1  0
 40 42  2  0
 42 43  1  0
 30  3  1  0
 43 31  1  0
 26  8  1  0
 42 33  1  0
 23 10  1  0
M  CHG  2   4  -1  43  -1
M  END
>  <UniqueID>  (29) 
28

>  <SMILES>  (29) 
[H]/N=c1/[n-]cc(-c2ccc3cc(OC)ccc3n2)cc1-c1nc2ccccc2[n-]1

>  <Energy>  (29) 
99.02974316182002

>  <Genealogy>  (29) 
COc1ccc2nc(-c3c[n-]c(=N)c(-c4nc5ccccc5[n-]4)c3)ccc2c1 (protonated)
[H]/N=c1/[n-]cc(-c2ccc3cc(OC)ccc3n2)cc1-c1nc2ccccc2[n-]1 (cis-trans isomerization)
[H]/N=c1/[n-]cc(-c2ccc3cc(OC)ccc3n2)cc1-c1nc2ccccc2[n-]1 (3D coordinates assigned)
[H]/N=c1/[n-]cc(-c2ccc3cc(OC)ccc3n2)cc1-c1nc2ccccc2[n-]1 (optimized conformer: 99.02974316182002 kcal/mol)

>  <smiles>  (29) 
COc1ccc2nc(-c3c[nH]c(=N)c(-c4nc5ccccc5[nH]4)c3)ccc2c1

>  <score_type>  (29) 
oracle

>  <origin>  (29) 
adg

>  <m_score__min__energy>  (29) 
-12.08

>  <m_primary>  (29) 
energy

$$$$
29:0
     RDKit          3D

 32 34  0  0  0  0  0  0  0  0999 V2000
   59.6540   36.1810   46.2610 O   0  0  0  0  0  0  0  0  0  0  0  0
   59.3240   34.9960   45.9820 C   0  0  0  0  0  0  0  0  0  0  0  0
   58.5180   34.7580   44.8700 C   0  0  0  0  0  0  0  0  0  0  0  0
   58.1400   33.4580   44.5660 C   0  0  0  0  0  0  0  0  0  0  0  0
   58.5750   32.4090   45.3830 C   0  0  0  0  0  0  0  0  0  0  0  0
   58.1780   31.0120   45.0840 C   0  0  0  0  0  0  0  0  0  0  0  0
   57.0520   30.7520   44.2830 C   0  0  0  0  0  0  0  0  0  0  0  0
   56.6670   29.4370   44.0040 C   0  0  0  0  0  0  0  0  0  0  0  0
   57.4030   28.3690   44.5200 C   0  0  0  0  0  0  0  0  0  0  0  0
   58.5270   28.6130   45.3130 C   0  0  0  0  0  0  0  0  0  0  0  0
   58.9170   29.9260   45.5960 C   0  0  0  0  0  0  0  0  0  0  0  0
   60.0370   30.1350   46.3350 F   0  0  0  0  0  0  0  0  0  0  0  0
   59.3590   32.6920   46.4640 N   0  0  0  0  0  0  0  0  0  0  0  0
   59.7410   33.9440   46.7560 N   0  0  0  0  0  0  0  0  0  0  0  0
   60.5590   34.1740   47.9560 C   0  0  0  0  0  0  0  0  0  0  0  0
   61.7810   33.3130   47.9110 C   0  0  0  0  0  0  0  0  0  0  0  0
   63.0420   33.6780   48.3350 C   0  0  0  0  0  0  0  0  0  0  0  0
   63.8330   32.5660   48.1370 C   0  0  0  0  0  0  0  0  0  0  0  0
   63.0050   31.5950   47.6130 C   0  0  0  0  0  0  0  0  0  0  0  0
   61.7870   32.0690   47.4930 O   0  0  0  0  0  0  0  0  0  0  0  0
   58.1842   35.5943   44.2383 H   0  0  0  0  0  0  0  0  0  0  0  0
   57.5047   33.2543   43.6914 H   0  0  0  0  0  0  0  0  0  0  0  0
   56.4693   31.5898   43.8725 H   0  0  0  0  0  0  0  0  0  0  0  0
   55.7836   29.2440   43.3775 H   0  0  0  0  0  0  0  0  0  0  0  0
   57.0979   27.3349   44.3021 H   0  0  0  0  0  0  0  0  0  0  0  0
   59.1071   27.7698   45.7161 H   0  0  0  0  0  0  0  0  0  0  0  0
   59.6460   31.9090   47.0950 H   0  0  0  0  0  0  0  0  0  0  0  0
   60.8591   35.2315   47.9958 H   0  0  0  0  0  0  0  0  0  0  0  0
   59.9701   33.9210   48.8500 H   0  0  0  0  0  0  0  0  0  0  0  0
   63.3513   34.6509   48.7446 H   0  0  0  0  0  0  0  0  0  0  0  0
   64.9074   32.4721   48.3533 H   0  0  0  0  0  0  0  0  0  0  0  0
   63.3183   30.5772   47.3374 H   0  0  0  0  0  0  0  0  0  0  0  0
  1  2  2  0
  2  3  1  0
  3  4  2  0
  4  5  1  0
  5  6  1  0
  6  7  2  0
  7  8  1  0
  8  9  2  0
  9 10  1  0
 10 11  2  0
 11 12  1  0
  5 13  2  0
 13 14  1  0
 14 15  1  0
 15 16  1  0
 16 17  2  0
 17 18  1  0
 18 19  2  0
 19 20  1  0
 14  2  1  0
 20 16  1  0
 11  6  1  0
  3 21  1  0
  4 22  1  0
  7 23  1  0
  8 24  1  0
  9 25  1  0
 10 26  1  0
 13 27  1  0
 15 28  1  0
 15 29  1  0
 17 30  1  0
 18 31  1  0
 19 32  1  0
M  CHG  1  13   1
M  END
>  <UniqueID>  (30) 
29

>  <SMILES>  (30) 
O=c1ccc(-c2ccccc2F)[nH+]n1Cc1ccco1

>  <Energy>  (30) 
66.7426447635618

>  <Genealogy>  (30) 
O=c1ccc(-c2ccccc2F)[nH+]n1Cc1ccco1 (protonated)
O=c1ccc(-c2ccccc2F)[nH+]n1Cc1ccco1 (3D coordinates assigned)
O=c1ccc(-c2ccccc2F)[nH+]n1Cc1ccco1 (optimized conformer: 66.7426447635618 kcal/mol)

>  <smiles>  (30) 
O=c1ccc(-c2ccccc2F)nn1Cc1ccco1

>  <score_type>  (30) 
oracle

>  <origin>  (30) 
adg

>  <m_score__min__energy>  (30) 
-4.8600000000000003

>  <m_primary>  (30) 
energy

$$$$
30:0
     RDKit          3D

 28 28  0  0  0  0  0  0  0  0999 V2000
   61.0660   33.8460   47.6880 C   0  0  0  0  0  0  0  0  0  0  0  0
   60.5350   34.3080   46.3240 C   0  0  0  0  0  0  0  0  0  0  0  0
   59.0630   34.5340   46.2300 N   0  0  0  0  0  0  0  0  0  0  0  0
   58.4660   34.4350   44.8780 C   0  0  0  0  0  0  0  0  0  0  0  0
   58.1270   32.9990   44.4180 C   0  0  0  0  0  0  0  0  0  0  0  0
   57.8160   32.0210   45.5280 C   0  0  0  0  0  0  0  0  0  0  0  0
   57.3520   30.8420   45.2440 N   0  0  0  0  0  0  0  0  0  0  0  0
   56.1980   30.6660   44.5120 O   0  0  0  0  0  0  0  0  0  0  0  0
   56.2370   29.9940   43.2650 C   0  0  0  0  0  0  0  0  0  0  0  0
   58.1440   32.3170   46.9610 C   0  0  0  0  0  0  0  0  0  0  0  0
   58.2630   33.8130   47.2410 C   0  0  0  0  0  0  0  0  0  0  0  0
   60.4976   34.3406   48.4894 H   0  0  0  0  0  0  0  0  0  0  0  0
   60.9510   32.7556   47.7761 H   0  0  0  0  0  0  0  0  0  0  0  0
   62.1300   34.1107   47.7761 H   0  0  0  0  0  0  0  0  0  0  0  0
   61.0362   35.2543   46.0722 H   0  0  0  0  0  0  0  0  0  0  0  0
   60.7499   33.4818   45.6303 H   0  0  0  0  0  0  0  0  0  0  0  0
   58.9470   35.5430   46.4940 H   0  0  0  0  0  0  0  0  0  0  0  0
   57.5370   35.0239   44.8711 H   0  0  0  0  0  0  0  0  0  0  0  0
   59.2263   34.8111   44.1776 H   0  0  0  0  0  0  0  0  0  0  0  0
   57.2497   33.0524   43.7565 H   0  0  0  0  0  0  0  0  0  0  0  0
   59.0313   32.6175   43.9213 H   0  0  0  0  0  0  0  0  0  0  0  0
   56.3000   28.9090   43.4350 H   0  0  0  0  0  0  0  0  0  0  0  0
   55.3240   30.2236   42.6960 H   0  0  0  0  0  0  0  0  0  0  0  0
   57.1173   30.3277   42.6960 H   0  0  0  0  0  0  0  0  0  0  0  0
   57.3483   31.9021   47.5971 H   0  0  0  0  0  0  0  0  0  0  0  0
   59.1200   31.8592   47.1800 H   0  0  0  0  0  0  0  0  0  0  0  0
   57.2521   34.2462   47.2604 H   0  0  0  0  0  0  0  0  0  0  0  0
   58.7797   33.9242   48.2057 H   0  0  0  0  0  0  0  0  0  0  0  0
  1  2  1  0
  2  3  1  0
  3  4  1  0
  4  5  1  0
  5  6  1  0
  6  7  2  3
  7  8  1  0
  8  9  1  0
  6 10  1  0
 10 11  1  0
 11  3  1  0
  1 12  1  0
  1 13  1  0
  1 14  1  0
  2 15  1  0
  2 16  1  0
  3 17  1  0
  4 18  1  0
  4 19  1  0
  5 20  1  0
  5 21  1  0
  9 22  1  0
  9 23  1  0
  9 24  1  0
 10 25  1  0
 10 26  1  0
 11 27  1  0
 11 28  1  0
M  CHG  1   3   1
M  END
>  <UniqueID>  (31) 
30

>  <SMILES>  (31) 
CC[NH+]1CCC(=NOC)CC1

>  <Energy>  (31) 
31.745900930137893

>  <Genealogy>  (31) 
CC[NH+]1CCC(=NOC)CC1 (protonated)
CC[NH+]1CCC(=NOC)CC1 (3D coordinates assigned)
CC[NH+]1CCC(=NOC)CC1 (nonaromatic ring conformer: 31.745900930137893 kcal/mol)

>  <smiles>  (31) 
CCN1CCC(=NOC)CC1

>  <score_type>  (31) 
oracle

>  <origin>  (31) 
adg

>  <m_score__min__energy>  (31) 
-3.4700000000000002

>  <m_primary>  (31) 
energy

$$$$
31:0
     RDKit          3D

 42 44  0  0  0  0  0  0  0  0999 V2000
   64.1300   33.7030   50.4780 C   0  0  0  0  0  0  0  0  0  0  0  0
   64.8760   33.0770   49.4800 C   0  0  0  0  0  0  0  0  0  0  0  0
   64.3180   32.8320   48.2650 N   0  0  0  0  0  0  0  0  0  0  0  0
   63.0320   33.1820   47.9900 C   0  0  0  0  0  0  0  0  0  0  0  0
   62.2340   33.8080   48.9620 C   0  0  0  0  0  0  0  0  0  0  0  0
   60.8760   34.1700   48.6220 N   0  0  0  0  0  0  0  0  0  0  0  0
   60.0960   33.7190   47.4600 C   0  0  0  0  0  0  0  0  0  0  0  0
   60.3940   34.5630   46.1980 C   0  0  0  0  0  0  0  0  0  0  0  0
   59.1670   34.6760   45.2830 C   0  0  0  0  0  0  0  0  0  0  0  0
   58.4480   33.3880   45.2570 N   0  0  0  0  0  0  0  0  0  0  0  0
   57.4790   33.3500   44.1390 C   0  0  0  0  0  0  0  0  0  0  0  0
   57.7680   32.1890   43.1770 C   0  0  0  0  0  0  0  0  0  0  0  0
   57.5760   30.8640   43.8510 C   0  0  0  0  0  0  0  0  0  0  0  0
   58.5590   30.1390   44.5120 C   0  0  0  0  0  0  0  0  0  0  0  0
   58.0710   28.9720   45.1130 C   0  0  0  0  0  0  0  0  0  0  0  0
   56.7060   28.7830   44.9370 C   0  0  0  0  0  0  0  0  0  0  0  0
   56.1050   30.0700   44.0370 S   0  0  0  0  0  0  0  0  0  0  0  0
   57.7880   33.1070   46.5610 C   0  0  0  0  0  0  0  0  0  0  0  0
   58.5930   33.6110   47.7790 C   0  0  0  0  0  0  0  0  0  0  0  0
   62.8100   34.0730   50.2200 C   0  0  0  0  0  0  0  0  0  0  0  0
   64.5793   33.9036   51.4618 H   0  0  0  0  0  0  0  0  0  0  0  0
   65.9171   32.7811   49.6762 H   0  0  0  0  0  0  0  0  0  0  0  0
   64.8890   32.3640   47.5270 H   0  0  0  0  0  0  0  0  0  0  0  0
   62.6125   32.9723   46.9950 H   0  0  0  0  0  0  0  0  0  0  0  0
   60.4110   34.8890   49.2230 H   0  0  0  0  0  0  0  0  0  0  0  0
   60.4263   32.6970   47.2226 H   0  0  0  0  0  0  0  0  0  0  0  0
   60.6998   35.5727   46.5094 H   0  0  0  0  0  0  0  0  0  0  0  0
   61.1951   34.0626   45.6342 H   0  0  0  0  0  0  0  0  0  0  0  0
   58.4975   35.4613   45.6639 H   0  0  0  0  0  0  0  0  0  0  0  0
   59.4936   34.9324   44.2644 H   0  0  0  0  0  0  0  0  0  0  0  0
   56.4656   33.2292   44.5494 H   0  0  0  0  0  0  0  0  0  0  0  0
   57.5667   34.2914   43.5768 H   0  0  0  0  0  0  0  0  0  0  0  0
   57.0844   32.2566   42.3179 H   0  0  0  0  0  0  0  0  0  0  0  0
   58.8149   32.2630   42.8474 H   0  0  0  0  0  0  0  0  0  0  0  0
   59.6132   30.4497   44.5587 H   0  0  0  0  0  0  0  0  0  0  0  0
   58.7085   28.2710   45.6718 H   0  0  0  0  0  0  0  0  0  0  0  0
   56.1185   27.9359   45.3209 H   0  0  0  0  0  0  0  0  0  0  0  0
   56.8038   33.5983   46.5664 H   0  0  0  0  0  0  0  0  0  0  0  0
   57.7085   32.0139   46.6550 H   0  0  0  0  0  0  0  0  0  0  0  0
   58.2175   34.6033   48.0692 H   0  0  0  0  0  0  0  0  0  0  0  0
   58.4663   32.8879   48.5982 H   0  0  0  0  0  0  0  0  0  0  0  0
   62.2176   34.5728   51.0005 H   0  0  0  0  0  0  0  0  0  0  0  0
  1  2  2  0
  2  3  1  0
  3  4  2  0
  4  5  1  0
  5  6  1  0
  6  7  1  0
  7  8  1  0
  8  9  1  0
  9 10  1  0
 10 11  1  0
 11 12  1  0
 12 13  1  0
 13 14  2  0
 14 15  1  0
 15 16  2  0
 16 17  1  0
 10 18  1  0
 18 19  1  0
  5 20  2  0
 20  1  1  0
 19  7  1  0
 17 13  1  0
  1 21  1  0
  2 22  1  0
  3 23  1  0
  4 24  1  0
  6 25  1  0
  7 26  1  0
  8 27  1  0
  8 28  1  0
  9 29  1  0
  9 30  1  0
 11 31  1  0
 11 32  1  0
 12 33  1  0
 12 34  1  0
 14 35  1  0
 15 36  1  0
 16 37  1  0
 18 38  1  0
 18 39  1  0
 19 40  1  0
 19 41  1  0
 20 42  1  0
M  CHG  1   3   1
M  END
>  <UniqueID>  (32) 
31

>  <SMILES>  (32) 
c1c[nH+]cc(NC2CCN(CCc3cccs3)CC2)c1

>  <Energy>  (32) 
75.43108227047061

>  <Genealogy>  (32) 
c1c[nH+]cc(NC2CCN(CCc3cccs3)CC2)c1 (protonated)
c1c[nH+]cc(NC2CCN(CCc3cccs3)CC2)c1 (3D coordinates assigned)
c1c[nH+]cc(NC2CCN(CCc3cccs3)CC2)c1 (nonaromatic ring conformer: 75.43108227047061 kcal/mol)

>  <smiles>  (32) 
c1cncc(NC2CCN(CCc3cccs3)CC2)c1

>  <score_type>  (32) 
oracle

>  <origin>  (32) 
adg

>  <m_score__min__energy>  (32) 
-6.0700000000000003

>  <m_primary>  (32) 
energy

$$$$
32:0
     RDKit          3D

 38 40  0  0  0  0  0  0  0  0999 V2000
   62.6450   34.5930   50.0830 C   0  0  0  0  0  0  0  0  0  0  0  0
   61.6240   34.0910   49.1060 C   0  0  0  0  0  0  0  0  0  0  0  0
   60.2560   34.1920   49.3990 C   0  0  0  0  0  0  0  0  0  0  0  0
   59.3040   33.6900   48.5060 C   0  0  0  0  0  0  0  0  0  0  0  0
   59.7100   33.0580   47.3170 C   0  0  0  0  0  0  0  0  0  0  0  0
   58.7520   32.5520   46.3720 N   0  0  0  0  0  0  0  0  0  0  0  0
   58.3840   33.2320   45.1610 C   0  0  0  0  0  0  0  0  0  0  0  0
   58.8600   34.3670   44.8890 O   0  0  0  0  0  0  0  0  0  0  0  0
   57.4010   32.6090   44.2140 C   0  0  0  0  0  0  0  0  0  0  0  0
   56.8100   31.4450   44.7950 O   0  0  0  0  0  0  0  0  0  0  0  0
   57.4300   30.1890   44.9100 C   0  0  0  0  0  0  0  0  0  0  0  0
   58.7660   30.0760   44.5130 C   0  0  0  0  0  0  0  0  0  0  0  0
   59.4280   28.8500   44.5980 C   0  0  0  0  0  0  0  0  0  0  0  0
   58.7590   27.7230   45.0790 C   0  0  0  0  0  0  0  0  0  0  0  0
   57.4160   27.8080   45.4840 C   0  0  0  0  0  0  0  0  0  0  0  0
   56.7350   26.6350   45.9700 N   0  0  0  0  0  0  0  0  0  0  0  0
   57.2200   25.6210   46.7130 C   0  0  0  0  0  0  0  0  0  0  0  0
   56.2410   24.7310   46.9620 N   0  0  0  0  0  0  0  0  0  0  0  0
   55.1630   25.2190   46.3630 N   0  0  0  0  0  0  0  0  0  0  0  0
   55.4570   26.3640   45.7690 N   0  0  0  0  0  0  0  0  0  0  0  0
   56.7610   29.0520   45.4060 C   0  0  0  0  0  0  0  0  0  0  0  0
   61.0790   32.9640   47.0250 C   0  0  0  0  0  0  0  0  0  0  0  0
   62.0300   33.4650   47.9190 C   0  0  0  0  0  0  0  0  0  0  0  0
   62.2883   34.4176   51.1087 H   0  0  0  0  0  0  0  0  0  0  0  0
   63.5941   34.0588   49.9285 H   0  0  0  0  0  0  0  0  0  0  0  0
   62.8015   35.6708   49.9285 H   0  0  0  0  0  0  0  0  0  0  0  0
   59.9305   34.6683   50.3356 H   0  0  0  0  0  0  0  0  0  0  0  0
   58.2327   33.7899   48.7346 H   0  0  0  0  0  0  0  0  0  0  0  0
   58.2040   31.7050   46.6450 H   0  0  0  0  0  0  0  0  0  0  0  0
   56.6107   33.3381   43.9822 H   0  0  0  0  0  0  0  0  0  0  0  0
   57.9307   32.3164   43.2954 H   0  0  0  0  0  0  0  0  0  0  0  0
   59.2989   30.9592   44.1311 H   0  0  0  0  0  0  0  0  0  0  0  0
   60.4797   28.7717   44.2851 H   0  0  0  0  0  0  0  0  0  0  0  0
   59.2876   26.7603   45.1415 H   0  0  0  0  0  0  0  0  0  0  0  0
   58.2591   25.5335   47.0633 H   0  0  0  0  0  0  0  0  0  0  0  0
   55.7151   29.1374   45.7360 H   0  0  0  0  0  0  0  0  0  0  0  0
   61.4063   32.4930   46.0864 H   0  0  0  0  0  0  0  0  0  0  0  0
   63.1015   33.3676   47.6901 H   0  0  0  0  0  0  0  0  0  0  0  0
  1  2  1  0
  2  3  2  0
  3  4  1  0
  4  5  2  0
  5  6  1  0
  6  7  1  0
  7  8  2  0
  7  9  1  0
  9 10  1  0
 10 11  1  0
 11 12  2  0
 12 13  1  0
 13 14  2  0
 14 15  1  0
 15 16  1  0
 16 17  1  0
 17 18  2  0
 18 19  1  0
 19 20  2  0
 15 21  2  0
  5 22  1  0
 22 23  2  0
 23  2  1  0
 21 11  1  0
 20 16  1  0
  1 24  1  0
  1 25  1  0
  1 26  1  0
  3 27  1  0
  4 28  1  0
  6 29  1  0
  9 30  1  0
  9 31  1  0
 12 32  1  0
 13 33  1  0
 14 34  1  0
 17 35  1  0
 21 36  1  0
 22 37  1  0
 23 38  1  0
M  END
>  <UniqueID>  (33) 
32

>  <SMILES>  (33) 
Cc1ccc(NC(=O)COc2cccc(-n3cnnn3)c2)cc1

>  <Energy>  (33) 
83.4274155357174

>  <Genealogy>  (33) 
Cc1ccc(NC(=O)COc2cccc(-n3cnnn3)c2)cc1 (3D coordinates assigned)
Cc1ccc(NC(=O)COc2cccc(-n3cnnn3)c2)cc1 (optimized conformer: 83.4274155357174 kcal/mol)

>  <smiles>  (33) 
Cc1ccc(NC(=O)COc2cccc(-n3cnnn3)c2)cc1

>  <score_type>  (33) 
oracle

>  <origin>  (33) 
adg

>  <m_score__min__energy>  (33) 
-7.7699999999999996

>  <m_primary>  (33) 
energy

$$$$
33:0
     RDKit          3D

 41 42  0  0  0  0  0  0  0  0999 V2000
   63.8980   34.6825   49.5955 H   0  0  0  0  0  0  0  0  0  0  0  0
   63.0780   34.2220   49.0250 C   0  0  0  0  0  0  0  0  0  0  0  0
   61.7890   34.4260   49.4040 N   0  0  0  0  0  0  0  0  0  0  0  0
   60.7480   33.8720   48.7280 C   0  0  0  0  0  0  0  0  0  0  0  0
   59.7173   34.0554   49.0655 H   0  0  0  0  0  0  0  0  0  0  0  0
   60.9810   33.0660   47.6000 C   0  0  0  0  0  0  0  0  0  0  0  0
   59.8510   32.4560   46.8520 C   0  0  0  0  0  0  0  0  0  0  0  0
   59.4390   31.1410   47.1150 C   0  0  0  0  0  0  0  0  0  0  0  0
   59.9544   30.5503   47.8867 H   0  0  0  0  0  0  0  0  0  0  0  0
   58.4070   30.5930   46.4220 N   0  0  0  0  0  0  0  0  0  0  0  0
   57.7200   31.2740   45.4650 C   0  0  0  0  0  0  0  0  0  0  0  0
   56.7500   30.6550   44.8500 N   0  0  0  0  0  0  0  0  0  0  0  0
   56.7980   29.7940   43.6980 C   0  0  0  0  0  0  0  0  0  0  0  0
   56.1480   30.0690   42.6540 O   0  0  0  0  0  0  0  0  0  0  0  0
   57.5170   28.4750   43.8000 C   0  0  0  0  0  0  0  0  0  0  0  0
   58.3581   28.4898   43.0912 H   0  0  0  0  0  0  0  0  0  0  0  0
   56.7688   27.7004   43.5762 H   0  0  0  0  0  0  0  0  0  0  0  0
   58.0570   28.1520   45.1500 N   0  0  0  0  0  0  0  0  0  0  0  0
   57.9810   29.0730   45.6490 H   0  0  0  0  0  0  0  0  0  0  0  0
   59.5210   27.8780   45.2070 C   0  0  0  0  0  0  0  0  0  0  0  0
   59.7072   26.9248   44.6906 H   0  0  0  0  0  0  0  0  0  0  0  0
   59.7831   27.8638   46.2752 H   0  0  0  0  0  0  0  0  0  0  0  0
   60.4210   28.9450   44.5680 C   0  0  0  0  0  0  0  0  0  0  0  0
   60.9143   29.5298   45.3584 H   0  0  0  0  0  0  0  0  0  0  0  0
   61.1833   28.4558   43.9439 H   0  0  0  0  0  0  0  0  0  0  0  0
   59.8103   29.6139   43.9439 H   0  0  0  0  0  0  0  0  0  0  0  0
   57.2060   27.2610   45.9900 C   0  0  0  0  0  0  0  0  0  0  0  0
   56.4952   27.8935   46.5419 H   0  0  0  0  0  0  0  0  0  0  0  0
   56.7266   26.5577   45.2932 H   0  0  0  0  0  0  0  0  0  0  0  0
   57.9580   26.3960   47.0090 C   0  0  0  0  0  0  0  0  0  0  0  0
   57.6857   26.7092   48.0277 H   0  0  0  0  0  0  0  0  0  0  0  0
   57.6860   25.3399   46.8651 H   0  0  0  0  0  0  0  0  0  0  0  0
   59.0416   26.5184   46.8651 H   0  0  0  0  0  0  0  0  0  0  0  0
   58.1120   32.5930   45.1590 C   0  0  0  0  0  0  0  0  0  0  0  0
   57.5866   33.1592   44.3758 H   0  0  0  0  0  0  0  0  0  0  0  0
   59.1720   33.1760   45.8570 C   0  0  0  0  0  0  0  0  0  0  0  0
   59.4769   34.2071   45.6251 H   0  0  0  0  0  0  0  0  0  0  0  0
   62.3110   32.8510   47.1990 C   0  0  0  0  0  0  0  0  0  0  0  0
   62.5242   32.2253   46.3198 H   0  0  0  0  0  0  0  0  0  0  0  0
   63.3620   33.4290   47.9130 C   0  0  0  0  0  0  0  0  0  0  0  0
   64.4036   33.2609   47.6020 H   0  0  0  0  0  0  0  0  0  0  0  0
  1  2  1  0
  2  3  2  0
  3  4  1  0
  4  5  1  0
  4  6  2  0
  6  7  1  0
  7  8  2  0
  8  9  1  0
  8 10  1  0
 10 11  1  0
 11 12  2  0
 12 13  1  0
 13 14  2  0
 13 15  1  0
 15 16  1  0
 15 17  1  0
 15 18  1  0
 18 19  1  0
 18 20  1  0
 20 21  1  0
 20 22  1  0
 20 23  1  0
 23 24  1  0
 23 25  1  0
 23 26  1  0
 18 27  1  0
 27 28  1  0
 27 29  1  0
 27 30  1  0
 30 31  1  0
 30 32  1  0
 30 33  1  0
 11 34  1  0
 34 35  1  0
 34 36  2  0
 36 37  1  0
  6 38  1  0
 38 39  1  0
 38 40  2  0
 40 41  1  0
 40  2  1  0
 36  7  1  0
M  CHG  2  10  -1  18   1
M  END
>  <UniqueID>  (34) 
33

>  <SMILES>  (34) 
CC[NH+](CC)CC(=O)/N=c1\ccc(-c2cccnc2)c[n-]1

>  <Energy>  (34) 
67.4416934083229

>  <Genealogy>  (34) 
CC[NH+](CC)CC(=O)N=c1ccc(-c2cccnc2)c[n-]1 (protonated)
CC[NH+](CC)CC(=O)/N=c1\ccc(-c2cccnc2)c[n-]1 (cis-trans isomerization)
CC[NH+](CC)CC(=O)/N=c1\ccc(-c2cccnc2)c[n-]1 (3D coordinates assigned)
CC[NH+](CC)CC(=O)/N=c1\ccc(-c2cccnc2)c[n-]1 (optimized conformer: 67.4416934083229 kcal/mol)

>  <smiles>  (34) 
CCN(CC)CC(=O)N=c1ccc(-c2cccnc2)c[nH]1

>  <score_type>  (34) 
oracle

>  <origin>  (34) 
adg

>  <m_score__min__energy>  (34) 
-6.9000000000000004

>  <m_primary>  (34) 
energy

$$$$
34:0
     RDKit          3D

 50 51  0  0  0  0  0  0  0  0999 V2000
   63.0190   33.9640   46.8380 C   0  0  0  0  0  0  0  0  0  0  0  0
   61.5700   33.8260   46.3790 C   0  0  0  0  0  0  0  0  0  0  0  0
   60.6620   34.5800   47.2700 N   0  0  0  0  0  0  0  0  0  0  0  0
   59.2150   34.5620   46.9390 C   0  0  0  0  0  0  0  0  0  0  0  0
   58.8940   34.3100   45.4590 C   0  0  0  0  0  0  0  0  0  0  0  0
   60.9850   34.4960   48.7120 C   0  0  0  0  0  0  0  0  0  0  0  0
   61.1730   33.0640   49.2410 C   0  0  0  0  0  0  0  0  0  0  0  0
   60.3470   32.1320   48.5480 O   0  0  0  0  0  0  0  0  0  0  0  0
   60.8470   31.1300   47.7060 C   0  0  0  0  0  0  0  0  0  0  0  0
   62.0680   31.1190   47.3890 O   0  0  0  0  0  0  0  0  0  0  0  0
   59.9350   30.0890   47.1860 C   0  0  0  0  0  0  0  0  0  0  0  0
   58.7590   30.4520   46.5090 C   0  0  0  0  0  0  0  0  0  0  0  0
   57.8980   29.4720   46.0050 C   0  0  0  0  0  0  0  0  0  0  0  0
   58.1970   28.1070   46.1690 C   0  0  0  0  0  0  0  0  0  0  0  0
   57.3320   27.0740   45.6610 N   0  0  0  0  0  0  0  0  0  0  0  0
   57.5090   25.6540   45.9700 C   0  0  0  0  0  0  0  0  0  0  0  0
   56.3080   24.8570   45.5220 C   0  0  0  0  0  0  0  0  0  0  0  0
   56.4750   23.5440   45.0530 C   0  0  0  0  0  0  0  0  0  0  0  0
   55.3650   22.7860   44.6660 C   0  0  0  0  0  0  0  0  0  0  0  0
   55.5380   21.4900   44.1970 O   0  0  0  0  0  0  0  0  0  0  0  0
   54.0810   23.3300   44.7560 C   0  0  0  0  0  0  0  0  0  0  0  0
   53.9040   24.6290   45.2370 C   0  0  0  0  0  0  0  0  0  0  0  0
   55.0090   25.3930   45.6260 C   0  0  0  0  0  0  0  0  0  0  0  0
   54.8100   26.6790   46.1180 O   0  0  0  0  0  0  0  0  0  0  0  0
   59.3710   27.7470   46.8450 C   0  0  0  0  0  0  0  0  0  0  0  0
   60.2320   28.7260   47.3490 C   0  0  0  0  0  0  0  0  0  0  0  0
   63.0566   33.9676   47.9374 H   0  0  0  0  0  0  0  0  0  0  0  0
   63.6075   33.1178   46.4537 H   0  0  0  0  0  0  0  0  0  0  0  0
   63.4372   34.9060   46.4537 H   0  0  0  0  0  0  0  0  0  0  0  0
   61.4774   34.2173   45.3551 H   0  0  0  0  0  0  0  0  0  0  0  0
   61.2906   32.7625   46.4096 H   0  0  0  0  0  0  0  0  0  0  0  0
   58.7386   33.7675   47.5321 H   0  0  0  0  0  0  0  0  0  0  0  0
   58.8327   35.5670   47.1710 H   0  0  0  0  0  0  0  0  0  0  0  0
   58.0309   33.6325   45.3812 H   0  0  0  0  0  0  0  0  0  0  0  0
   58.6559   35.2650   44.9677 H   0  0  0  0  0  0  0  0  0  0  0  0
   59.7651   33.8520   44.9677 H   0  0  0  0  0  0  0  0  0  0  0  0
   61.9173   35.0526   48.8883 H   0  0  0  0  0  0  0  0  0  0  0  0
   60.1238   34.9180   49.2507 H   0  0  0  0  0  0  0  0  0  0  0  0
   62.2256   32.7719   49.1119 H   0  0  0  0  0  0  0  0  0  0  0  0
   60.8871   33.0511   50.3031 H   0  0  0  0  0  0  0  0  0  0  0  0
   58.5133   31.5157   46.3742 H   0  0  0  0  0  0  0  0  0  0  0  0
   56.9805   29.7705   45.4766 H   0  0  0  0  0  0  0  0  0  0  0  0
   56.5380   27.3580   45.0390 H   0  0  0  0  0  0  0  0  0  0  0  0
   58.4042   25.2804   45.4514 H   0  0  0  0  0  0  0  0  0  0  0  0
   57.6231   25.5403   47.0581 H   0  0  0  0  0  0  0  0  0  0  0  0
   57.4836   23.1095   44.9897 H   0  0  0  0  0  0  0  0  0  0  0  0
   53.2090   22.7345   44.4477 H   0  0  0  0  0  0  0  0  0  0  0  0
   52.8916   25.0530   45.3102 H   0  0  0  0  0  0  0  0  0  0  0  0
   59.6172   26.6835   46.9802 H   0  0  0  0  0  0  0  0  0  0  0  0
   61.1492   28.4266   47.8773 H   0  0  0  0  0  0  0  0  0  0  0  0
  1  2  1  0
  2  3  1  0
  3  4  1  0
  4  5  1  0
  3  6  1  0
  6  7  1  0
  7  8  1  0
  8  9  1  0
  9 10  2  0
  9 11  1  0
 11 12  2  0
 12 13  1  0
 13 14  2  0
 14 15  1  0
 15 16  1  0
 16 17  1  0
 17 18  2  0
 18 19  1  0
 19 20  1  0
 19 21  2  0
 21 22  1  0
 22 23  2  0
 23 24  1  0
 14 25  1  0
 25 26  2  0
 26 11  1  0
 23 17  1  0
  1 27  1  0
  1 28  1  0
  1 29  1  0
  2 30  1  0
  2 31  1  0
  4 32  1  0
  4 33  1  0
  5 34  1  0
  5 35  1  0
  5 36  1  0
  6 37  1  0
  6 38  1  0
  7 39  1  0
  7 40  1  0
 12 41  1  0
 13 42  1  0
 15 43  1  0
 16 44  1  0
 16 45  1  0
 18 46  1  0
 21 47  1  0
 22 48  1  0
 25 49  1  0
 26 50  1  0
M  CHG  2  20  -1  24  -1
M  END
>  <UniqueID>  (35) 
34

>  <SMILES>  (35) 
CCN(CC)CCOC(=O)c1ccc(NCc2cc([O-])ccc2[O-])cc1

>  <Energy>  (35) 
53.40819550997794

>  <Genealogy>  (35) 
CCN(CC)CCOC(=O)c1ccc(NCc2cc([O-])ccc2[O-])cc1 (protonated)
CCN(CC)CCOC(=O)c1ccc(NCc2cc([O-])ccc2[O-])cc1 (3D coordinates assigned)
CCN(CC)CCOC(=O)c1ccc(NCc2cc([O-])ccc2[O-])cc1 (optimized conformer: 53.40819550997794 kcal/mol)

>  <smiles>  (35) 
CCN(CC)CCOC(=O)c1ccc(NCc2cc(O)ccc2O)cc1

>  <score_type>  (35) 
oracle

>  <origin>  (35) 
adg

>  <m_score__min__energy>  (35) 
-12.779999999999999

>  <m_primary>  (35) 
energy

$$$$
35:0
     RDKit          3D

 29 31  0  0  0  0  0  0  0  0999 V2000
   56.7449   21.1739   43.3249 H   0  0  0  0  0  0  0  0  0  0  0  0
   56.6500   22.1690   43.7840 C   0  0  0  0  0  0  0  0  0  0  0  0
   57.7220   23.0140   43.8030 N   0  0  0  0  0  0  0  0  0  0  0  0
   57.6580   24.2410   44.3960 C   0  0  0  0  0  0  0  0  0  0  0  0
   58.5282   24.9138   44.3816 H   0  0  0  0  0  0  0  0  0  0  0  0
   56.4670   24.6320   45.0240 C   0  0  0  0  0  0  0  0  0  0  0  0
   56.1010   25.8600   45.6650 C   0  0  0  0  0  0  0  0  0  0  0  0
   56.9020   26.8490   45.9540 N   0  0  0  0  0  0  0  0  0  0  0  0
   57.7080   27.6300   45.0640 C   0  0  0  0  0  0  0  0  0  0  0  0
   58.0120   27.1560   43.9360 O   0  0  0  0  0  0  0  0  0  0  0  0
   58.2740   28.9300   45.5150 C   0  0  0  0  0  0  0  0  0  0  0  0
   59.5660   28.9620   46.0750 C   0  0  0  0  0  0  0  0  0  0  0  0
   60.1399   28.0286   46.1720 H   0  0  0  0  0  0  0  0  0  0  0  0
   60.1260   30.1640   46.5080 C   0  0  0  0  0  0  0  0  0  0  0  0
   61.1367   30.1737   46.9420 H   0  0  0  0  0  0  0  0  0  0  0  0
   59.4080   31.3520   46.3920 C   0  0  0  0  0  0  0  0  0  0  0  0
   59.8541   32.2986   46.7310 H   0  0  0  0  0  0  0  0  0  0  0  0
   58.1250   31.3430   45.8470 C   0  0  0  0  0  0  0  0  0  0  0  0
   57.5638   32.2851   45.7599 H   0  0  0  0  0  0  0  0  0  0  0  0
   57.5390   30.1380   45.4060 C   0  0  0  0  0  0  0  0  0  0  0  0
   56.2390   30.1130   44.8720 O   0  0  0  0  0  0  0  0  0  0  0  0
   55.9300   29.9390   43.4930 C   0  0  0  0  0  0  0  0  0  0  0  0
   54.9752   29.4014   43.3962 H   0  0  0  0  0  0  0  0  0  0  0  0
   55.8473   30.9232   43.0087 H   0  0  0  0  0  0  0  0  0  0  0  0
   56.7287   29.3580   43.0087 H   0  0  0  0  0  0  0  0  0  0  0  0
   54.7820   25.9590   45.9950 N   0  0  0  0  0  0  0  0  0  0  0  0
   54.0650   24.5200   45.5600 S   0  0  0  0  0  0  0  0  0  0  0  0
   55.3970   23.7630   44.9320 C   0  0  0  0  0  0  0  0  0  0  0  0
   55.4640   22.5530   44.3310 N   0  0  0  0  0  0  0  0  0  0  0  0
  1  2  1  0
  2  3  2  0
  3  4  1  0
  4  5  1  0
  4  6  2  0
  6  7  1  0
  7  8  2  0
  8  9  1  0
  9 10  2  0
  9 11  1  0
 11 12  2  0
 12 13  1  0
 12 14  1  0
 14 15  1  0
 14 16  2  0
 16 17  1  0
 16 18  1  0
 18 19  1  0
 18 20  2  0
 20 21  1  0
 21 22  1  0
 22 23  1  0
 22 24  1  0
 22 25  1  0
  7 26  1  0
 26 27  1  0
 27 28  1  0
 28 29  2  0
 29  2  1  0
 28  6  1  0
 20 11  1  0
M  CHG  1  26  -1
M  END
>  <UniqueID>  (36) 
35

>  <SMILES>  (36) 
COc1ccccc1C(=O)/N=c1/[n-]sc2ncncc12

>  <Energy>  (36) 
88.83908590200492

>  <Genealogy>  (36) 
COc1ccccc1C(=O)N=c1[n-]sc2ncncc12 (protonated)
COc1ccccc1C(=O)/N=c1/[n-]sc2ncncc12 (cis-trans isomerization)
COc1ccccc1C(=O)/N=c1/[n-]sc2ncncc12 (3D coordinates assigned)
COc1ccccc1C(=O)/N=c1/[n-]sc2ncncc12 (optimized conformer: 88.83908590200492 kcal/mol)

>  <smiles>  (36) 
COc1ccccc1C(=O)N=c1[nH]sc2ncncc12

>  <score_type>  (36) 
oracle

>  <origin>  (36) 
adg

>  <m_score__min__energy>  (36) 
-8.8200000000000003

>  <m_primary>  (36) 
energy

$$$$
36:0
     RDKit          3D

 41 43  0  0  0  0  0  0  0  0999 V2000
   64.6180   32.8270   49.4550 C   0  0  0  0  0  0  0  0  0  0  0  0
   63.1640   32.5080   49.8290 C   0  0  0  0  0  0  0  0  0  0  0  0
   62.1800   32.8570   48.7740 N   0  0  0  0  0  0  0  0  0  0  0  0
   62.6320   32.5650   47.3940 C   0  0  0  0  0  0  0  0  0  0  0  0
   63.0350   33.8380   46.6510 C   0  0  0  0  0  0  0  0  0  0  0  0
   61.6560   34.2360   48.9120 C   0  0  0  0  0  0  0  0  0  0  0  0
   60.1390   34.2040   49.1330 C   0  0  0  0  0  0  0  0  0  0  0  0
   59.4530   33.5050   48.0320 N   0  0  0  0  0  0  0  0  0  0  0  0
   58.8670   32.2950   48.2790 C   0  0  0  0  0  0  0  0  0  0  0  0
   58.2660   31.6000   47.2810 N   0  0  0  0  0  0  0  0  0  0  0  0
   58.2250   32.0790   46.0130 C   0  0  0  0  0  0  0  0  0  0  0  0
   58.8190   33.3240   45.7180 C   0  0  0  0  0  0  0  0  0  0  0  0
   58.7780   33.8190   44.4000 C   0  0  0  0  0  0  0  0  0  0  0  0
   58.1540   33.0830   43.3880 C   0  0  0  0  0  0  0  0  0  0  0  0
   57.5660   31.8490   43.6790 C   0  0  0  0  0  0  0  0  0  0  0  0
   56.9590   31.1260   42.7020 N   0  0  0  0  0  0  0  0  0  0  0  0
   56.3840   29.9240   42.9710 C   0  0  0  0  0  0  0  0  0  0  0  0
   56.4160   29.4210   44.2730 C   0  0  0  0  0  0  0  0  0  0  0  0
   57.0220   30.1380   45.2560 N   0  0  0  0  0  0  0  0  0  0  0  0
   57.6000   31.3430   44.9950 C   0  0  0  0  0  0  0  0  0  0  0  0
   59.4390   34.0290   46.7650 C   0  0  0  0  0  0  0  0  0  0  0  0
   59.9890   35.1430   46.5330 O   0  0  0  0  0  0  0  0  0  0  0  0
   65.2122   32.9574   50.3715 H   0  0  0  0  0  0  0  0  0  0  0  0
   65.0344   31.9989   48.8627 H   0  0  0  0  0  0  0  0  0  0  0  0
   64.6495   33.7534   48.8627 H   0  0  0  0  0  0  0  0  0  0  0  0
   63.0872   31.4294   50.0308 H   0  0  0  0  0  0  0  0  0  0  0  0
   62.9192   33.1214   50.7087 H   0  0  0  0  0  0  0  0  0  0  0  0
   63.4982   31.8884   47.4381 H   0  0  0  0  0  0  0  0  0  0  0  0
   61.7965   32.1001   46.8502 H   0  0  0  0  0  0  0  0  0  0  0  0
   63.2839   34.6242   47.3790 H   0  0  0  0  0  0  0  0  0  0  0  0
   63.9119   33.6320   46.0196 H   0  0  0  0  0  0  0  0  0  0  0  0
   62.1993   34.1742   46.0196 H   0  0  0  0  0  0  0  0  0  0  0  0
   62.1386   34.7242   49.7715 H   0  0  0  0  0  0  0  0  0  0  0  0
   61.8738   34.7975   47.9915 H   0  0  0  0  0  0  0  0  0  0  0  0
   59.9253   33.6820   50.0774 H   0  0  0  0  0  0  0  0  0  0  0  0
   59.7712   35.2400   49.1696 H   0  0  0  0  0  0  0  0  0  0  0  0
   58.8829   31.8805   49.2978 H   0  0  0  0  0  0  0  0  0  0  0  0
   59.2393   34.7897   44.1655 H   0  0  0  0  0  0  0  0  0  0  0  0
   58.1259   33.4760   42.3610 H   0  0  0  0  0  0  0  0  0  0  0  0
   55.8967   29.3514   42.1681 H   0  0  0  0  0  0  0  0  0  0  0  0
   55.9533   28.4497   44.5021 H   0  0  0  0  0  0  0  0  0  0  0  0
  1  2  1  0
  2  3  1  0
  3  4  1  0
  4  5  1  0
  3  6  1  0
  6  7  1  0
  7  8  1  0
  8  9  1  0
  9 10  2  0
 10 11  1  0
 11 12  2  0
 12 13  1  0
 13 14  2  0
 14 15  1  0
 15 16  2  0
 16 17  1  0
 17 18  2  0
 18 19  1  0
 19 20  2  0
 12 21  1  0
 21 22  2  0
 21  8  1  0
 20 11  1  0
 20 15  1  0
  1 23  1  0
  1 24  1  0
  1 25  1  0
  2 26  1  0
  2 27  1  0
  4 28  1  0
  4 29  1  0
  5 30  1  0
  5 31  1  0
  5 32  1  0
  6 33  1  0
  6 34  1  0
  7 35  1  0
  7 36  1  0
  9 37  1  0
 13 38  1  0
 14 39  1  0
 17 40  1  0
 18 41  1  0
M  END
>  <UniqueID>  (37) 
36

>  <SMILES>  (37) 
CCN(CC)CCn1cnc2c(ccc3nccnc32)c1=O

>  <Energy>  (37) 
53.45155016364785

>  <Genealogy>  (37) 
CCN(CC)CCn1cnc2c(ccc3nccnc32)c1=O (3D coordinates assigned)
CCN(CC)CCn1cnc2c(ccc3nccnc32)c1=O (optimized conformer: 53.45155016364785 kcal/mol)

>  <smiles>  (37) 
CCN(CC)CCn1cnc2c(ccc3nccnc32)c1=O

>  <score_type>  (37) 
oracle

>  <origin>  (37) 
adg

>  <m_score__min__energy>  (37) 
-6.9199999999999999

>  <m_primary>  (37) 
energy

$$$$
37:0
     RDKit          3D

 28 30  0  0  0  0  0  0  0  0999 V2000
   59.7600   35.1400   46.6940 C   0  0  0  0  0  0  0  0  0  0  0  0
   58.9660   33.9990   46.1750 C   0  0  0  0  0  0  0  0  0  0  0  0
   57.7310   34.2130   45.5780 C   0  0  0  0  0  0  0  0  0  0  0  0
   57.0040   33.1420   45.1000 C   0  0  0  0  0  0  0  0  0  0  0  0
   57.5510   31.8830   45.2430 C   0  0  0  0  0  0  0  0  0  0  0  0
   57.0620   30.6660   44.8700 N   0  0  0  0  0  0  0  0  0  0  0  0
   57.9710   29.7180   45.2280 C   0  0  0  0  0  0  0  0  0  0  0  0
   57.7670   28.2900   44.9760 C   0  0  0  0  0  0  0  0  0  0  0  0
   57.2230   27.4420   45.9330 C   0  0  0  0  0  0  0  0  0  0  0  0
   57.0360   26.0830   45.6790 C   0  0  0  0  0  0  0  0  0  0  0  0
   57.4010   25.5620   44.4380 C   0  0  0  0  0  0  0  0  0  0  0  0
   57.9420   26.4070   43.4900 C   0  0  0  0  0  0  0  0  0  0  0  0
   58.1300   27.7620   43.7430 C   0  0  0  0  0  0  0  0  0  0  0  0
   59.0150   30.3140   45.8140 N   0  0  0  0  0  0  0  0  0  0  0  0
   58.7740   31.6490   45.8330 C   0  0  0  0  0  0  0  0  0  0  0  0
   59.5080   32.7370   46.3160 C   0  0  0  0  0  0  0  0  0  0  0  0
   59.7490   35.1242   47.7938 H   0  0  0  0  0  0  0  0  0  0  0  0
   60.7970   35.0578   46.3365 H   0  0  0  0  0  0  0  0  0  0  0  0
   59.3226   36.0838   46.3365 H   0  0  0  0  0  0  0  0  0  0  0  0
   57.3328   35.2343   45.4862 H   0  0  0  0  0  0  0  0  0  0  0  0
   56.0238   33.2865   44.6222 H   0  0  0  0  0  0  0  0  0  0  0  0
   56.9335   27.8511   46.9122 H   0  0  0  0  0  0  0  0  0  0  0  0
   56.6046   25.4284   46.4506 H   0  0  0  0  0  0  0  0  0  0  0  0
   57.2599   24.4935   44.2178 H   0  0  0  0  0  0  0  0  0  0  0  0
   58.2316   25.9989   42.5104 H   0  0  0  0  0  0  0  0  0  0  0  0
   58.5644   28.4129   42.9699 H   0  0  0  0  0  0  0  0  0  0  0  0
   59.8740   29.8190   46.1950 H   0  0  0  0  0  0  0  0  0  0  0  0
   60.4880   32.5917   46.7940 H   0  0  0  0  0  0  0  0  0  0  0  0
  1  2  1  0
  2  3  2  0
  3  4  1  0
  4  5  2  0
  5  6  1  0
  6  7  2  0
  7  8  1  0
  8  9  2  0
  9 10  1  0
 10 11  2  0
 11 12  1  0
 12 13  2  0
  7 14  1  0
 14 15  1  0
 15 16  2  0
 16  2  1  0
 15  5  1  0
 13  8  1  0
  1 17  1  0
  1 18  1  0
  1 19  1  0
  3 20  1  0
  4 21  1  0
  9 22  1  0
 10 23  1  0
 11 24  1  0
 12 25  1  0
 13 26  1  0
 14 27  1  0
 16 28  1  0
M  END
>  <smiles>  (38) 
Cc1ccc2nc(-c3ccccc3)[nH]c2c1

>  <score_type>  (38) 
oracle

>  <origin>  (38) 
adg

>  <m_score__min__energy>  (38) 
-6.2999999999999998

>  <m_primary>  (38) 
energy

$$$$
38:0
     RDKit          3D

 38 41  0  0  0  0  0  0  0  0999 V2000
   58.3250   23.9210   45.4380 C   0  0  0  0  0  0  0  0  0  0  0  0
   58.8710   24.8470   46.3730 O   0  0  0  0  0  0  0  0  0  0  0  0
   58.8700   26.2400   46.2000 C   0  0  0  0  0  0  0  0  0  0  0  0
   57.6450   26.8850   46.0110 C   0  0  0  0  0  0  0  0  0  0  0  0
   57.5890   28.2710   45.8330 C   0  0  0  0  0  0  0  0  0  0  0  0
   58.7680   29.0390   45.8430 C   0  0  0  0  0  0  0  0  0  0  0  0
   58.7300   30.5100   45.6550 C   0  0  0  0  0  0  0  0  0  0  0  0
   57.8390   31.2290   44.8550 C   0  0  0  0  0  0  0  0  0  0  0  0
   58.2270   32.5360   45.0380 C   0  0  0  0  0  0  0  0  0  0  0  0
   57.6850   33.7030   44.5150 C   0  0  0  0  0  0  0  0  0  0  0  0
   58.2470   34.8890   44.8840 N   0  0  0  0  0  0  0  0  0  0  0  0
   59.3110   34.9440   45.7410 C   0  0  0  0  0  0  0  0  0  0  0  0
   59.8580   33.7520   46.2610 C   0  0  0  0  0  0  0  0  0  0  0  0
   61.0160   33.7800   47.1850 C   0  0  0  0  0  0  0  0  0  0  0  0
   60.8440   34.1560   48.5300 C   0  0  0  0  0  0  0  0  0  0  0  0
   61.9370   34.1840   49.4020 C   0  0  0  0  0  0  0  0  0  0  0  0
   63.2100   33.8430   48.9400 C   0  0  0  0  0  0  0  0  0  0  0  0
   63.3940   33.4740   47.6050 C   0  0  0  0  0  0  0  0  0  0  0  0
   62.3040   33.4450   46.7300 C   0  0  0  0  0  0  0  0  0  0  0  0
   59.2730   32.5830   45.8750 N   0  0  0  0  0  0  0  0  0  0  0  0
   59.5890   31.3600   46.2690 N   0  0  0  0  0  0  0  0  0  0  0  0
   59.9990   28.3880   46.0330 C   0  0  0  0  0  0  0  0  0  0  0  0
   60.0520   27.0020   46.2110 C   0  0  0  0  0  0  0  0  0  0  0  0
   57.8388   23.0964   45.9799 H   0  0  0  0  0  0  0  0  0  0  0  0
   57.5837   24.4320   44.8061 H   0  0  0  0  0  0  0  0  0  0  0  0
   59.1310   23.5196   44.8061 H   0  0  0  0  0  0  0  0  0  0  0  0
   56.7155   26.2968   46.0021 H   0  0  0  0  0  0  0  0  0  0  0  0
   56.6170   28.7640   45.6842 H   0  0  0  0  0  0  0  0  0  0  0  0
   57.0219   30.8424   44.2282 H   0  0  0  0  0  0  0  0  0  0  0  0
   56.8291   33.6713   43.8247 H   0  0  0  0  0  0  0  0  0  0  0  0
   59.7400   35.9164   46.0247 H   0  0  0  0  0  0  0  0  0  0  0  0
   59.8440   34.4295   48.8977 H   0  0  0  0  0  0  0  0  0  0  0  0
   61.7938   34.4750   50.4531 H   0  0  0  0  0  0  0  0  0  0  0  0
   64.0684   33.8649   49.6275 H   0  0  0  0  0  0  0  0  0  0  0  0
   64.3973   33.2061   47.2422 H   0  0  0  0  0  0  0  0  0  0  0  0
   62.4547   33.1583   45.6788 H   0  0  0  0  0  0  0  0  0  0  0  0
   60.9297   28.9743   46.0418 H   0  0  0  0  0  0  0  0  0  0  0  0
   61.0222   26.5057   46.3602 H   0  0  0  0  0  0  0  0  0  0  0  0
  1  2  1  0
  2  3  1  0
  3  4  2  0
  4  5  1  0
  5  6  2  0
  6  7  1  0
  7  8  1  0
  8  9  2  0
  9 10  1  0
 10 11  2  0
 11 12  1  0
 12 13  2  0
 13 14  1  0
 14 15  2  0
 15 16  1  0
 16 17  2  0
 17 18  1  0
 18 19  2  0
 13 20  1  0
 20 21  1  0
  6 22  1  0
 22 23  2  0
 23  3  1  0
 21  7  2  0
 20  9  1  0
 19 14  1  0
  1 24  1  0
  1 25  1  0
  1 26  1  0
  4 27  1  0
  5 28  1  0
  8 29  1  0
 10 30  1  0
 12 31  1  0
 15 32  1  0
 16 33  1  0
 17 34  1  0
 18 35  1  0
 19 36  1  0
 22 37  1  0
 23 38  1  0
M  END
>  <UniqueID>  (39) 
37

>  <SMILES>  (39) 
COc1ccc(-c2cc3cncc(-c4ccccc4)n3n2)cc1

>  <Energy>  (39) 
85.95207161781855

>  <Genealogy>  (39) 
COc1ccc(-c2cc3cncc(-c4ccccc4)n3n2)cc1 (3D coordinates assigned)
COc1ccc(-c2cc3cncc(-c4ccccc4)n3n2)cc1 (optimized conformer: 85.95207161781855 kcal/mol)

>  <smiles>  (39) 
COc1ccc(-c2cc3cncc(-c4ccccc4)n3n2)cc1

>  <score_type>  (39) 
oracle

>  <origin>  (39) 
adg

>  <m_score__min__energy>  (39) 
-7.2599999999999998

>  <m_primary>  (39) 
energy

$$$$
39:0
     RDKit          3D

 36 37  0  0  0  0  0  0  0  0999 V2000
   60.5870   27.5620   49.3910 C   0  0  0  0  0  0  0  0  0  0  0  0
   60.7020   28.3510   48.2110 O   0  0  0  0  0  0  0  0  0  0  0  0
   59.6270   28.7070   47.3800 C   0  0  0  0  0  0  0  0  0  0  0  0
   58.8520   27.7450   46.7090 C   0  0  0  0  0  0  0  0  0  0  0  0
   57.7800   28.1270   45.8810 C   0  0  0  0  0  0  0  0  0  0  0  0
   56.9900   27.1380   45.2040 N   0  0  0  0  0  0  0  0  0  0  0  0
   56.2160   25.7700   45.9370 S   0  0  0  0  0  0  0  0  0  0  0  0
   56.7180   25.5820   47.3410 O   0  0  0  0  0  0  0  0  0  0  0  0
   54.7300   25.9980   45.9620 O   0  0  0  0  0  0  0  0  0  0  0  0
   56.5960   24.3270   44.9920 C   0  0  0  0  0  0  0  0  0  0  0  0
   55.5990   23.7330   44.1990 C   0  0  0  0  0  0  0  0  0  0  0  0
   55.8830   22.5930   43.4430 C   0  0  0  0  0  0  0  0  0  0  0  0
   57.1610   22.0360   43.4700 C   0  0  0  0  0  0  0  0  0  0  0  0
   58.1610   22.6170   44.2540 C   0  0  0  0  0  0  0  0  0  0  0  0
   57.8880   23.7590   45.0170 C   0  0  0  0  0  0  0  0  0  0  0  0
   59.1880   24.4440   45.9870 Cl  0  0  0  0  0  0  0  0  0  0  0  0
   57.4780   29.5030   45.7240 C   0  0  0  0  0  0  0  0  0  0  0  0
   56.3620   29.9790   44.8610 C   0  0  0  0  0  0  0  0  0  0  0  0
   56.4930   30.9850   44.1150 O   0  0  0  0  0  0  0  0  0  0  0  0
   55.1380   29.3160   44.8690 O   0  0  0  0  0  0  0  0  0  0  0  0
   58.2600   30.4540   46.4020 C   0  0  0  0  0  0  0  0  0  0  0  0
   59.3310   30.0650   47.2260 C   0  0  0  0  0  0  0  0  0  0  0  0
   60.1250   31.0000   47.9110 O   0  0  0  0  0  0  0  0  0  0  0  0
   60.2290   32.3780   47.5690 C   0  0  0  0  0  0  0  0  0  0  0  0
   60.6813   28.2092   50.2754 H   0  0  0  0  0  0  0  0  0  0  0  0
   59.6067   27.0632   49.4045 H   0  0  0  0  0  0  0  0  0  0  0  0
   61.3842   26.8042   49.4045 H   0  0  0  0  0  0  0  0  0  0  0  0
   59.0870   26.6776   46.8330 H   0  0  0  0  0  0  0  0  0  0  0  0
   54.5891   24.1683   44.1735 H   0  0  0  0  0  0  0  0  0  0  0  0
   55.0970   22.1340   42.8253 H   0  0  0  0  0  0  0  0  0  0  0  0
   57.3821   21.1385   42.8736 H   0  0  0  0  0  0  0  0  0  0  0  0
   59.1681   22.1750   44.2720 H   0  0  0  0  0  0  0  0  0  0  0  0
   58.0297   31.5233   46.2858 H   0  0  0  0  0  0  0  0  0  0  0  0
   60.2745   32.9814   48.4876 H   0  0  0  0  0  0  0  0  0  0  0  0
   61.1420   32.5411   46.9776 H   0  0  0  0  0  0  0  0  0  0  0  0
   59.3508   32.6763   46.9776 H   0  0  0  0  0  0  0  0  0  0  0  0
  1  2  1  0
  2  3  1  0
  3  4  2  0
  4  5  1  0
  5  6  1  0
  6  7  1  0
  7  8  2  0
  7  9  2  0
  7 10  1  0
 10 11  2  0
 11 12  1  0
 12 13  2  0
 13 14  1  0
 14 15  2  0
 15 16  1  0
  5 17  2  0
 17 18  1  0
 18 19  2  0
 18 20  1  0
 17 21  1  0
 21 22  2  0
 22 23  1  0
 23 24  1  0
 22  3  1  0
 15 10  1  0
  1 25  1  0
  1 26  1  0
  1 27  1  0
  4 28  1  0
 11 29  1  0
 12 30  1  0
 13 31  1  0
 14 32  1  0
 21 33  1  0
 24 34  1  0
 24 35  1  0
 24 36  1  0
M  CHG  2   6  -1  20  -1
M  END
>  <UniqueID>  (40) 
38

>  <SMILES>  (40) 
COc1cc([N-]S(=O)(=O)c2ccccc2Cl)c(C(=O)[O-])cc1OC

>  <Energy>  (40) 
44.19083977119523

>  <Genealogy>  (40) 
COc1cc([N-]S(=O)(=O)c2ccccc2Cl)c(C(=O)[O-])cc1OC (protonated)
COc1cc([N-]S(=O)(=O)c2ccccc2Cl)c(C(=O)[O-])cc1OC (3D coordinates assigned)
COc1cc([N-]S(=O)(=O)c2ccccc2Cl)c(C(=O)[O-])cc1OC (optimized conformer: 44.19083977119523 kcal/mol)

>  <smiles>  (40) 
COc1cc(NS(=O)(=O)c2ccccc2Cl)c(C(=O)O)cc1OC

>  <score_type>  (40) 
oracle

>  <origin>  (40) 
adg

>  <m_score__min__energy>  (40) 
-11.550000000000001

>  <m_primary>  (40) 
energy

$$$$
40:0
     RDKit          3D

 57 60  0  0  0  0  0  0  0  0999 V2000
   59.6430   34.7990   45.2940 C   0  0  0  0  0  0  0  0  0  0  0  0
   59.3510   33.8690   46.4950 C   0  0  2  0  0  0  0  0  0  0  0  0
   60.5700   33.5150   47.2830 N   0  0  0  0  0  0  0  0  0  0  0  0
   60.5780   34.1520   48.6220 C   0  0  0  0  0  0  0  0  0  0  0  0
   61.8890   33.8880   49.3950 C   0  0  0  0  0  0  0  0  0  0  0  0
   62.6520   32.6860   48.8080 C   0  0  0  0  0  0  0  0  0  0  0  0
   63.9040   32.3650   49.6020 C   0  0  0  0  0  0  0  0  0  0  0  0
   65.0940   33.0960   49.4150 C   0  0  0  0  0  0  0  0  0  0  0  0
   66.2440   32.7780   50.1450 C   0  0  0  0  0  0  0  0  0  0  0  0
   66.2220   31.7270   51.0640 C   0  0  0  0  0  0  0  0  0  0  0  0
   65.0510   30.9900   51.2530 C   0  0  0  0  0  0  0  0  0  0  0  0
   63.8990   31.3030   50.5260 C   0  0  0  0  0  0  0  0  0  0  0  0
   62.9730   32.9150   47.3130 C   0  0  0  0  0  0  0  0  0  0  0  0
   61.8690   33.7160   46.5990 C   0  0  0  0  0  0  0  0  0  0  0  0
   58.5250   32.5760   46.1660 C   0  0  1  0  0  0  0  0  0  0  0  0
   57.1950   32.8510   46.5590 O   0  0  0  0  0  0  0  0  0  0  0  0
   58.4910   32.2780   44.6310 C   0  0  0  0  0  0  0  0  0  0  0  0
   57.5530   31.2030   44.3050 N   0  0  0  0  0  0  0  0  0  0  0  0
   57.8480   30.0060   43.7650 C   0  0  0  0  0  0  0  0  0  0  0  0
   56.7320   29.2740   43.6190 N   0  0  0  0  0  0  0  0  0  0  0  0
   55.7560   30.0770   44.0890 C   0  0  0  0  0  0  0  0  0  0  0  0
   56.2470   31.2600   44.5110 N   0  0  0  0  0  0  0  0  0  0  0  0
   59.0440   31.3640   46.9780 C   0  0  0  0  0  0  0  0  0  0  0  0
   59.6910   30.3040   46.2960 C   0  0  0  0  0  0  0  0  0  0  0  0
   60.1400   29.1720   46.9780 C   0  0  0  0  0  0  0  0  0  0  0  0
   59.9480   29.0590   48.3520 C   0  0  0  0  0  0  0  0  0  0  0  0
   59.2980   30.0780   49.0470 C   0  0  0  0  0  0  0  0  0  0  0  0
   58.8410   31.2180   48.3770 C   0  0  0  0  0  0  0  0  0  0  0  0
   58.1880   32.1480   49.1130 F   0  0  0  0  0  0  0  0  0  0  0  0
   59.9534   35.7877   45.6629 H   0  0  0  0  0  0  0  0  0  0  0  0
   60.4485   34.3663   44.6825 H   0  0  0  0  0  0  0  0  0  0  0  0
   58.7347   34.9044   44.6825 H   0  0  0  0  0  0  0  0  0  0  0  0
   58.6987   34.4960   47.1206 H   0  0  0  0  0  0  0  0  0  0  0  0
   60.4549   35.2379   48.4968 H   0  0  0  0  0  0  0  0  0  0  0  0
   59.7530   33.7159   49.2045 H   0  0  0  0  0  0  0  0  0  0  0  0
   62.5271   34.7819   49.3342 H   0  0  0  0  0  0  0  0  0  0  0  0
   61.6357   33.6613   50.4412 H   0  0  0  0  0  0  0  0  0  0  0  0
   61.9938   31.8080   48.8843 H   0  0  0  0  0  0  0  0  0  0  0  0
   65.1188   33.9227   48.6897 H   0  0  0  0  0  0  0  0  0  0  0  0
   67.1672   33.3569   49.9948 H   0  0  0  0  0  0  0  0  0  0  0  0
   67.1266   31.4797   51.6388 H   0  0  0  0  0  0  0  0  0  0  0  0
   65.0352   30.1610   51.9759 H   0  0  0  0  0  0  0  0  0  0  0  0
   62.9816   30.7151   50.6770 H   0  0  0  0  0  0  0  0  0  0  0  0
   63.9201   33.4689   47.2345 H   0  0  0  0  0  0  0  0  0  0  0  0
   63.0446   31.9305   46.8276 H   0  0  0  0  0  0  0  0  0  0  0  0
   62.1270   34.7852   46.6152 H   0  0  0  0  0  0  0  0  0  0  0  0
   61.7861   33.3665   45.5593 H   0  0  0  0  0  0  0  0  0  0  0  0
   56.6500   32.9810   45.7380 H   0  0  0  0  0  0  0  0  0  0  0  0
   58.1854   33.1905   44.0982 H   0  0  0  0  0  0  0  0  0  0  0  0
   59.4973   31.9577   44.3233 H   0  0  0  0  0  0  0  0  0  0  0  0
   58.8585   29.6749   43.4836 H   0  0  0  0  0  0  0  0  0  0  0  0
   56.6400   28.3100   43.2310 H   0  0  0  0  0  0  0  0  0  0  0  0
   54.6917   29.8014   44.1239 H   0  0  0  0  0  0  0  0  0  0  0  0
   59.8423   30.3745   45.2087 H   0  0  0  0  0  0  0  0  0  0  0  0
   60.6475   28.3661   46.4276 H   0  0  0  0  0  0  0  0  0  0  0  0
   60.3080   28.1684   48.8879 H   0  0  0  0  0  0  0  0  0  0  0  0
   59.1431   29.9848   50.1320 H   0  0  0  0  0  0  0  0  0  0  0  0
  1  2  1  0
  2  3  1  0
  3  4  1  0
  4  5  1  0
  5  6  1  0
  6  7  1  0
  7  8  2  0
  8  9  1  0
  9 10  2  0
 10 11  1  0
 11 12  2  0
  6 13  1  0
 13 14  1  0
  2 15  1  0
 15 16  1  1
 15 17  1  0
 17 18  1  0
 18 19  1  0
 19 20  2  0
 20 21  1  0
 21 22  2  0
 15 23  1  0
 23 24  2  0
 24 25  1  0
 25 26  2  0
 26 27  1  0
 27 28  2  0
 28 29  1  0
 14  3  1  0
 22 18  1  0
 28 23  1  0
 12  7  1  0
  1 30  1  0
  1 31  1  0
  1 32  1  0
  2 33  1  1
  4 34  1  0
  4 35  1  0
  5 36  1  0
  5 37  1  0
  6 38  1  0
  8 39  1  0
  9 40  1  0
 10 41  1  0
 11 42  1  0
 12 43  1  0
 13 44  1  0
 13 45  1  0
 14 46  1  0
 14 47  1  0
 16 48  1  0
 17 49  1  0
 17 50  1  0
 19 51  1  0
 20 52  1  0
 21 53  1  0
 24 54  1  0
 25 55  1  0
 26 56  1  0
 27 57  1  0
M  CHG  1  20   1
M  END
>  <UniqueID>  (41) 
39

>  <SMILES>  (41) 
C[C@H](N1CCC(c2ccccc2)CC1)[C@@](O)(Cn1c[nH+]cn1)c1ccccc1F

>  <Energy>  (41) 
114.25561521242925

>  <Genealogy>  (41) 
CC(N1CCC(c2ccccc2)CC1)C(O)(Cn1c[nH+]cn1)c1ccccc1F (protonated)
C[C@H](N1CCC(c2ccccc2)CC1)[C@@](O)(Cn1c[nH+]cn1)c1ccccc1F (chirality)
C[C@H](N1CCC(c2ccccc2)CC1)[C@@](O)(Cn1c[nH+]cn1)c1ccccc1F (3D coordinates assigned)
C[C@H](N1CCC(c2ccccc2)CC1)[C@@](O)(Cn1c[nH+]cn1)c1ccccc1F (nonaromatic ring conformer: 114.25561521242925 kcal/mol)

>  <smiles>  (41) 
CC(N1CCC(c2ccccc2)CC1)C(O)(Cn1cncn1)c1ccccc1F

>  <score_type>  (41) 
oracle

>  <origin>  (41) 
adg

>  <m_score__min__energy>  (41) 
-7.5

>  <m_primary>  (41) 
energy

$$$$
41:0
     RDKit          3D

 49 52  0  0  0  0  0  0  0  0999 V2000
   61.6050   26.4520   51.6490 C   0  0  0  0  0  0  0  0  0  0  0  0
   61.3260   26.1520   50.2860 O   0  0  0  0  0  0  0  0  0  0  0  0
   60.7470   27.0520   49.3780 C   0  0  0  0  0  0  0  0  0  0  0  0
   60.6670   26.7840   47.9960 C   0  0  0  0  0  0  0  0  0  0  0  0
   60.0790   27.7130   47.1340 C   0  0  0  0  0  0  0  0  0  0  0  0
   59.5620   28.9150   47.6350 C   0  0  0  0  0  0  0  0  0  0  0  0
   58.9580   29.8710   46.7450 N   0  0  0  0  0  0  0  0  0  0  0  0
   57.9060   29.4380   45.9870 C   0  0  0  0  0  0  0  0  0  0  0  0
   57.2660   30.2870   45.0700 C   0  0  0  0  0  0  0  0  0  0  0  0
   56.1270   29.7680   44.2640 C   0  0  0  0  0  0  0  0  0  0  0  0
   56.0320   30.0490   43.0390 O   0  0  0  0  0  0  0  0  0  0  0  0
   55.1480   28.9660   44.8390 O   0  0  0  0  0  0  0  0  0  0  0  0
   57.7290   31.6100   44.9420 C   0  0  0  0  0  0  0  0  0  0  0  0
   57.1800   32.3980   44.1230 O   0  0  0  0  0  0  0  0  0  0  0  0
   58.8060   32.0570   45.7290 C   0  0  0  0  0  0  0  0  0  0  0  0
   59.2790   33.3800   45.6250 C   0  0  0  0  0  0  0  0  0  0  0  0
   60.3380   33.8220   46.4180 C   0  0  0  0  0  0  0  0  0  0  0  0
   60.7490   35.1110   46.3160 F   0  0  0  0  0  0  0  0  0  0  0  0
   60.9460   32.9540   47.3330 C   0  0  0  0  0  0  0  0  0  0  0  0
   62.0290   33.4120   48.1610 N   0  0  0  0  0  0  0  0  0  0  0  0
   61.7700   34.3240   49.2820 C   0  0  0  0  0  0  0  0  0  0  0  0
   62.4320   33.8060   50.5700 C   0  0  0  0  0  0  0  0  0  0  0  0
   63.7860   33.1030   50.3300 C   0  0  0  0  0  0  0  0  0  0  0  0
   64.3820   33.4200   48.9550 C   0  0  0  0  0  0  0  0  0  0  0  0
   63.4070   33.0070   47.8450 C   0  0  0  0  0  0  0  0  0  0  0  0
   60.4810   31.6360   47.4480 C   0  0  0  0  0  0  0  0  0  0  0  0
   59.4160   31.1650   46.6450 C   0  0  0  0  0  0  0  0  0  0  0  0
   59.6470   29.1860   49.0070 C   0  0  0  0  0  0  0  0  0  0  0  0
   60.2340   28.2570   49.8720 C   0  0  0  0  0  0  0  0  0  0  0  0
   61.0005   25.8020   52.2987 H   0  0  0  0  0  0  0  0  0  0  0  0
   62.6728   26.2813   51.8509 H   0  0  0  0  0  0  0  0  0  0  0  0
   61.3574   27.5046   51.8509 H   0  0  0  0  0  0  0  0  0  0  0  0
   61.0685   25.8414   47.5957 H   0  0  0  0  0  0  0  0  0  0  0  0
   60.0216   27.4997   46.0564 H   0  0  0  0  0  0  0  0  0  0  0  0
   57.5533   28.4020   46.0979 H   0  0  0  0  0  0  0  0  0  0  0  0
   58.8082   34.0717   44.9109 H   0  0  0  0  0  0  0  0  0  0  0  0
   62.1775   35.3169   49.0410 H   0  0  0  0  0  0  0  0  0  0  0  0
   60.6837   34.3855   49.4434 H   0  0  0  0  0  0  0  0  0  0  0  0
   62.5981   34.6599   51.2432 H   0  0  0  0  0  0  0  0  0  0  0  0
   61.7524   33.0574   51.0033 H   0  0  0  0  0  0  0  0  0  0  0  0
   64.4948   33.4309   51.1047 H   0  0  0  0  0  0  0  0  0  0  0  0
   63.6090   32.0182   50.3729 H   0  0  0  0  0  0  0  0  0  0  0  0
   64.5765   34.5003   48.8839 H   0  0  0  0  0  0  0  0  0  0  0  0
   65.3209   32.8598   48.8338 H   0  0  0  0  0  0  0  0  0  0  0  0
   63.7135   33.4860   46.9034 H   0  0  0  0  0  0  0  0  0  0  0  0
   63.4325   31.9112   47.7528 H   0  0  0  0  0  0  0  0  0  0  0  0
   60.9521   30.9575   48.1744 H   0  0  0  0  0  0  0  0  0  0  0  0
   59.2510   30.1320   49.4049 H   0  0  0  0  0  0  0  0  0  0  0  0
   60.2930   28.4749   50.9486 H   0  0  0  0  0  0  0  0  0  0  0  0
  1  2  1  0
  2  3  1  0
  3  4  2  0
  4  5  1  0
  5  6  2  0
  6  7  1  0
  7  8  1  0
  8  9  2  0
  9 10  1  0
 10 11  2  0
 10 12  1  0
  9 13  1  0
 13 14  2  0
 13 15  1  0
 15 16  2  0
 16 17  1  0
 17 18  1  0
 17 19  2  0
 19 20  1  0
 20 21  1  0
 21 22  1  0
 22 23  1  0
 23 24  1  0
 24 25  1  0
 19 26  1  0
 26 27  2  0
  6 28  1  0
 28 29  2  0
 29  3  1  0
 27  7  1  0
 27 15  1  0
 25 20  1  0
  1 30  1  0
  1 31  1  0
  1 32  1  0
  4 33  1  0
  5 34  1  0
  8 35  1  0
 16 36  1  0
 21 37  1  0
 21 38  1  0
 22 39  1  0
 22 40  1  0
 23 41  1  0
 23 42  1  0
 24 43  1  0
 24 44  1  0
 25 45  1  0
 25 46  1  0
 26 47  1  0
 28 48  1  0
 29 49  1  0
M  CHG  1  12  -1
M  END
>  <UniqueID>  (42) 
40

>  <SMILES>  (42) 
COc1ccc(-n2cc(C(=O)[O-])c(=O)c3cc(F)c(N4CCCCC4)cc32)cc1

>  <Energy>  (42) 
75.34800776368812

>  <Genealogy>  (42) 
COc1ccc(-n2cc(C(=O)[O-])c(=O)c3cc(F)c(N4CCCCC4)cc32)cc1 (protonated)
COc1ccc(-n2cc(C(=O)[O-])c(=O)c3cc(F)c(N4CCCCC4)cc32)cc1 (3D coordinates assigned)
COc1ccc(-n2cc(C(=O)[O-])c(=O)c3cc(F)c(N4CCCCC4)cc32)cc1 (nonaromatic ring conformer: 75.34800776368812 kcal/mol)

>  <smiles>  (42) 
COc1ccc(-n2cc(C(=O)O)c(=O)c3cc(F)c(N4CCCCC4)cc32)cc1

>  <score_type>  (42) 
oracle

>  <origin>  (42) 
adg

>  <m_score__min__energy>  (42) 
-10.06

>  <m_primary>  (42) 
energy

$$$$
42:0
     RDKit          3D

 37 38  0  0  1  0  0  0  0  0999 V2000
   57.3210   34.2100   45.2350 C   0  0  0  0  0  0  0  0  0  0  0  0
   58.5230   33.5640   45.8220 C   0  0  0  0  0  0  0  0  0  0  0  0
   59.7250   34.1640   45.8540 N   0  0  0  0  0  0  0  0  0  0  0  0
   60.7820   33.5440   46.3970 C   0  0  0  0  0  0  0  0  0  0  0  0
   61.9660   34.1820   46.4190 N   0  0  0  0  0  0  0  0  0  0  0  0
   63.0200   33.5570   46.9780 C   0  0  0  0  0  0  0  0  0  0  0  0
   62.9800   32.3140   47.5320 C   0  0  0  0  0  0  0  0  0  0  0  0
   61.7510   31.6160   47.5230 C   0  0  0  0  0  0  0  0  0  0  0  0
   60.7090   32.2670   46.9500 C   0  0  0  0  0  0  0  0  0  0  0  0
   59.4800   31.6780   46.9000 C   0  0  0  0  0  0  0  0  0  0  0  0
   59.3260   30.4880   47.2350 N   0  0  0  0  0  0  0  0  0  0  0  0
   59.7100   29.2940   46.5870 C   0  0  0  0  0  0  0  0  0  0  0  0
   59.0390   29.5420   45.1810 C   0  0  0  0  0  0  0  0  0  0  0  0
   57.5460   29.3890   45.3650 C   0  0  0  0  0  0  0  0  0  0  0  0
   56.7960   30.4630   44.8070 N   0  0  0  0  0  0  0  0  0  0  0  0
   57.5850   31.0850   43.7590 C   0  0  0  0  0  0  0  0  0  0  0  0
   55.5370   30.0780   44.2420 C   0  0  0  0  0  0  0  0  0  0  0  0
   58.4370   32.3310   46.3500 N   0  0  0  0  0  0  0  0  0  0  0  0
   56.6633   34.5635   46.0428 H   0  0  0  0  0  0  0  0  0  0  0  0
   57.6300   35.0636   44.6138 H   0  0  0  0  0  0  0  0  0  0  0  0
   56.7796   33.4813   44.6138 H   0  0  0  0  0  0  0  0  0  0  0  0
   63.9826   34.0893   46.9876 H   0  0  0  0  0  0  0  0  0  0  0  0
   63.8809   31.8645   47.9752 H   0  0  0  0  0  0  0  0  0  0  0  0
   61.6467   30.6091   47.9533 H   0  0  0  0  0  0  0  0  0  0  0  0
   60.8034   29.2007   46.5104 H   0  0  0  0  0  0  0  0  0  0  0  0
   59.4100   28.3654   47.0946 H   0  0  0  0  0  0  0  0  0  0  0  0
   59.2729   30.5563   44.8254 H   0  0  0  0  0  0  0  0  0  0  0  0
   59.4162   28.8255   44.4364 H   0  0  0  0  0  0  0  0  0  0  0  0
   57.2288   28.4534   44.8811 H   0  0  0  0  0  0  0  0  0  0  0  0
   57.3504   29.3834   46.4475 H   0  0  0  0  0  0  0  0  0  0  0  0
   58.3722   31.7056   44.2120 H   0  0  0  0  0  0  0  0  0  0  0  0
   58.0463   30.3050   43.1355 H   0  0  0  0  0  0  0  0  0  0  0  0
   56.9343   31.7157   43.1355 H   0  0  0  0  0  0  0  0  0  0  0  0
   54.8237   29.8599   45.0504 H   0  0  0  0  0  0  0  0  0  0  0  0
   55.1477   30.8982   43.6209 H   0  0  0  0  0  0  0  0  0  0  0  0
   55.6730   29.1804   43.6209 H   0  0  0  0  0  0  0  0  0  0  0  0
   57.5010   31.8780   46.3170 H   0  0  0  0  0  0  0  0  0  0  0  0
  1  2  1  0
  2  3  2  0
  3  4  1  0
  4  5  2  0
  5  6  1  0
  6  7  2  0
  7  8  1  0
  8  9  2  0
  9 10  1  0
 10 11  2  0
 11 12  1  0
 12 13  1  0
 13 14  1  0
 14 15  1  0
 15 16  1  0
 15 17  1  0
 10 18  1  0
 18  2  1  0
  9  4  1  0
  1 19  1  0
  1 20  1  0
  1 21  1  0
  6 22  1  0
  7 23  1  0
  8 24  1  0
 12 25  1  0
 12 26  1  0
 13 27  1  0
 13 28  1  0
 14 29  1  0
 14 30  1  0
 16 31  1  0
 16 32  1  0
 16 33  1  0
 17 34  1  0
 17 35  1  0
 17 36  1  0
 18 37  1  0
M  END
>  <smiles>  (43) 
Cc1nc2ncccc2c(=NCCCN(C)C)[nH]1

>  <score_type>  (43) 
oracle

>  <origin>  (43) 
adg

>  <m_score__min__energy>  (43) 
-5.46

>  <m_primary>  (43) 
energy

$$$$
43:0
     RDKit          3D

 54 55  0  0  0  0  0  0  0  0999 V2000
   63.3380   33.8470   46.3690 C   0  0  0  0  0  0  0  0  0  0  0  0
   63.4100   32.5880   47.2290 C   0  0  0  0  0  0  0  0  0  0  0  0
   63.7830   32.8360   48.7130 C   0  0  0  0  0  0  0  0  0  0  0  0
   62.7520   32.5510   49.7560 N   0  0  1  0  0  0  0  0  0  0  0  0
   62.4400   33.6610   50.6950 C   0  0  0  0  0  0  0  0  0  0  0  0
   62.2320   33.1840   52.1410 C   0  0  0  0  0  0  0  0  0  0  0  0
   62.5170   31.8200   52.2680 O   0  0  0  0  0  0  0  0  0  0  0  0
   61.5280   32.0150   49.1780 C   0  0  0  0  0  0  0  0  0  0  0  0
   61.4910   30.8590   48.7820 O   0  0  0  0  0  0  0  0  0  0  0  0
   60.2960   32.8820   48.9710 C   0  0  0  0  0  0  0  0  0  0  0  0
   60.6070   34.2060   48.2260 C   0  0  0  0  0  0  0  0  0  0  0  0
   60.0310   34.2250   46.8030 C   0  0  0  0  0  0  0  0  0  0  0  0
   58.5660   34.0130   46.7970 N   0  0  0  0  0  0  0  0  0  0  0  0
   58.0260   33.6180   45.1820 S   0  0  0  0  0  0  0  0  0  0  0  0
   58.9770   34.2120   44.1800 O   0  0  0  0  0  0  0  0  0  0  0  0
   56.6670   34.2160   44.9450 O   0  0  0  0  0  0  0  0  0  0  0  0
   57.9420   31.8700   44.9380 C   0  0  0  0  0  0  0  0  0  0  0  0
   56.8300   31.2990   44.3030 C   0  0  0  0  0  0  0  0  0  0  0  0
   56.7670   29.9170   44.1000 C   0  0  0  0  0  0  0  0  0  0  0  0
   57.8120   29.0900   44.5370 C   0  0  0  0  0  0  0  0  0  0  0  0
   57.7690   27.6140   44.2730 C   0  0  0  0  0  0  0  0  0  0  0  0
   58.9310   29.6630   45.1580 C   0  0  0  0  0  0  0  0  0  0  0  0
   58.9910   31.0440   45.3670 C   0  0  0  0  0  0  0  0  0  0  0  0
   58.0710   33.0300   47.7930 C   0  0  0  0  0  0  0  0  0  0  0  0
   59.1650   32.0800   48.2960 C   0  0  0  0  0  0  0  0  0  0  0  0
   63.2873   34.7328   47.0192 H   0  0  0  0  0  0  0  0  0  0  0  0
   64.2341   33.9090   45.7340 H   0  0  0  0  0  0  0  0  0  0  0  0
   62.4407   33.8065   45.7340 H   0  0  0  0  0  0  0  0  0  0  0  0
   62.4259   32.0973   47.2007 H   0  0  0  0  0  0  0  0  0  0  0  0
   64.2152   31.9693   46.8061 H   0  0  0  0  0  0  0  0  0  0  0  0
   64.6579   32.2086   48.9389 H   0  0  0  0  0  0  0  0  0  0  0  0
   63.9427   33.9225   48.7766 H   0  0  0  0  0  0  0  0  0  0  0  0
   63.1580   31.7830   50.3370 H   0  0  0  0  0  0  0  0  0  0  0  0
   63.2738   34.3784   50.6791 H   0  0  0  0  0  0  0  0  0  0  0  0
   61.4974   34.1193   50.3610 H   0  0  0  0  0  0  0  0  0  0  0  0
   62.8977   33.7535   52.8063 H   0  0  0  0  0  0  0  0  0  0  0  0
   61.1792   33.3476   52.4146 H   0  0  0  0  0  0  0  0  0  0  0  0
   62.5210   31.6280   53.2410 H   0  0  0  0  0  0  0  0  0  0  0  0
   59.9424   33.1834   49.9681 H   0  0  0  0  0  0  0  0  0  0  0  0
   60.1727   35.0417   48.7943 H   0  0  0  0  0  0  0  0  0  0  0  0
   61.7003   34.2980   48.1470 H   0  0  0  0  0  0  0  0  0  0  0  0
   60.2510   35.1999   46.3434 H   0  0  0  0  0  0  0  0  0  0  0  0
   60.4962   33.4050   46.2362 H   0  0  0  0  0  0  0  0  0  0  0  0
   56.0038   31.9408   43.9631 H   0  0  0  0  0  0  0  0  0  0  0  0
   55.8943   29.4767   43.5955 H   0  0  0  0  0  0  0  0  0  0  0  0
   57.7532   27.0708   45.2294 H   0  0  0  0  0  0  0  0  0  0  0  0
   56.8634   27.3706   43.6980 H   0  0  0  0  0  0  0  0  0  0  0  0
   58.6589   27.3183   43.6980 H   0  0  0  0  0  0  0  0  0  0  0  0
   59.7651   29.0232   45.4821 H   0  0  0  0  0  0  0  0  0  0  0  0
   59.8645   31.4845   45.8700 H   0  0  0  0  0  0  0  0  0  0  0  0
   57.6617   33.5795   48.6536 H   0  0  0  0  0  0  0  0  0  0  0  0
   57.3065   32.4154   47.2952 H   0  0  0  0  0  0  0  0  0  0  0  0
   58.7313   31.3794   49.0247 H   0  0  0  0  0  0  0  0  0  0  0  0
   59.5789   31.5241   47.4418 H   0  0  0  0  0  0  0  0  0  0  0  0
  1  2  1  0
  2  3  1  0
  3  4  1  0
  4  5  1  0
  5  6  1  0
  6  7  1  0
  4  8  1  0
  8  9  2  0
  8 10  1  0
 10 11  1  0
 11 12  1  0
 12 13  1  0
 13 14  1  0
 14 15  2  0
 14 16  2  0
 14 17  1  0
 17 18  2  0
 18 19  1  0
 19 20  2  0
 20 21  1  0
 20 22  1  0
 22 23  2  0
 13 24  1  0
 24 25  1  0
 25 10  1  0
 23 17  1  0
  1 26  1  0
  1 27  1  0
  1 28  1  0
  2 29  1  0
  2 30  1  0
  3 31  1  0
  3 32  1  0
  4 33  1  1
  5 34  1  0
  5 35  1  0
  6 36  1  0
  6 37  1  0
  7 38  1  0
 10 39  1  0
 11 40  1  0
 11 41  1  0
 12 42  1  0
 12 43  1  0
 18 44  1  0
 19 45  1  0
 21 46  1  0
 21 47  1  0
 21 48  1  0
 22 49  1  0
 23 50  1  0
 24 51  1  0
 24 52  1  0
 25 53  1  0
 25 54  1  0
M  CHG  1   4   1
M  END
>  <UniqueID>  (44) 
41

>  <SMILES>  (44) 
CCC[N@@H+](CCO)C(=O)C1CCN(S(=O)(=O)c2ccc(C)cc2)CC1

>  <Energy>  (44) 
62.0444386713431

>  <Genealogy>  (44) 
CCC[NH+](CCO)C(=O)C1CCN(S(=O)(=O)c2ccc(C)cc2)CC1 (protonated)
CCC[N@@H+](CCO)C(=O)C1CCN(S(=O)(=O)c2ccc(C)cc2)CC1 (chirality)
CCC[N@@H+](CCO)C(=O)C1CCN(S(=O)(=O)c2ccc(C)cc2)CC1 (3D coordinates assigned)
CCC[N@@H+](CCO)C(=O)C1CCN(S(=O)(=O)c2ccc(C)cc2)CC1 (nonaromatic ring conformer: 62.0444386713431 kcal/mol)

>  <smiles>  (44) 
CCCN(CCO)C(=O)C1CCN(S(=O)(=O)c2ccc(C)cc2)CC1

>  <score_type>  (44) 
oracle

>  <origin>  (44) 
adg

>  <m_score__min__energy>  (44) 
-7.1200000000000001

>  <m_primary>  (44) 
energy

$$$$
44:0
     RDKit          3D

 46 50  0  0  0  0  0  0  0  0999 V2000
   60.4950   34.6180   47.7240 O   0  0  0  0  0  0  0  0  0  0  0  0
   59.7790   34.1420   46.8040 C   0  0  0  0  0  0  0  0  0  0  0  0
   58.9420   35.0200   46.0490 N   0  0  0  0  0  0  0  0  0  0  0  0
   58.1690   34.5130   44.9210 C   0  0  0  0  0  0  0  0  0  0  0  0
   57.5680   33.1470   45.2680 C   0  0  0  0  0  0  0  0  0  0  0  0
   58.6290   32.1960   45.7790 C   0  0  0  0  0  0  0  0  0  0  0  0
   58.4780   30.8560   45.5790 N   0  0  0  0  0  0  0  0  0  0  0  0
   59.3720   29.9520   46.0650 C   0  0  0  0  0  0  0  0  0  0  0  0
   59.1780   28.5560   45.8280 N   0  0  0  0  0  0  0  0  0  0  0  0
   58.9880   27.6620   44.6690 C   0  0  0  0  0  0  0  0  0  0  0  0
   58.8630   26.3990   45.4670 C   0  0  0  0  0  0  0  0  0  0  0  0
   57.5060   25.7320   45.4090 C   0  0  0  0  0  0  0  0  0  0  0  0
   56.3840   26.2250   46.1000 C   0  0  0  0  0  0  0  0  0  0  0  0
   55.1950   25.5740   46.0010 N   0  0  0  0  0  0  0  0  0  0  0  0
   55.0660   24.4530   45.2460 C   0  0  0  0  0  0  0  0  0  0  0  0
   56.1750   23.9580   44.5580 C   0  0  0  0  0  0  0  0  0  0  0  0
   57.3650   24.6070   44.6540 N   0  0  0  0  0  0  0  0  0  0  0  0
   59.0720   27.3230   46.6300 C   0  0  0  0  0  0  0  0  0  0  0  0
   60.4840   30.3880   46.7870 C   0  0  0  0  0  0  0  0  0  0  0  0
   60.6790   31.7560   47.0190 C   0  0  0  0  0  0  0  0  0  0  0  0
   61.9140   32.1750   47.7180 C   0  0  0  0  0  0  0  0  0  0  0  0
   62.8600   32.9780   47.0620 C   0  0  0  0  0  0  0  0  0  0  0  0
   64.0140   33.3950   47.7320 C   0  0  0  0  0  0  0  0  0  0  0  0
   64.2260   33.0200   49.0630 C   0  0  0  0  0  0  0  0  0  0  0  0
   65.3450   33.4260   49.7110 F   0  0  0  0  0  0  0  0  0  0  0  0
   63.2810   32.2330   49.7260 C   0  0  0  0  0  0  0  0  0  0  0  0
   62.1260   31.8150   49.0590 C   0  0  0  0  0  0  0  0  0  0  0  0
   59.7200   32.6810   46.5360 C   0  0  0  0  0  0  0  0  0  0  0  0
   57.3582   35.2191   44.6886 H   0  0  0  0  0  0  0  0  0  0  0  0
   58.8314   34.4047   44.0495 H   0  0  0  0  0  0  0  0  0  0  0  0
   56.8007   33.2795   46.0450 H   0  0  0  0  0  0  0  0  0  0  0  0
   57.1266   32.7188   44.3560 H   0  0  0  0  0  0  0  0  0  0  0  0
   57.6500   30.5080   45.0450 H   0  0  0  0  0  0  0  0  0  0  0  0
   58.0781   27.8953   44.0966 H   0  0  0  0  0  0  0  0  0  0  0  0
   59.7581   27.6863   43.8839 H   0  0  0  0  0  0  0  0  0  0  0  0
   59.4621   25.4946   45.2851 H   0  0  0  0  0  0  0  0  0  0  0  0
   56.4685   27.1319   46.7167 H   0  0  0  0  0  0  0  0  0  0  0  0
   54.0958   23.9392   45.1771 H   0  0  0  0  0  0  0  0  0  0  0  0
   56.0864   23.0501   43.9432 H   0  0  0  0  0  0  0  0  0  0  0  0
   58.2161   27.3374   47.3208 H   0  0  0  0  0  0  0  0  0  0  0  0
   59.9049   27.0933   47.3108 H   0  0  0  0  0  0  0  0  0  0  0  0
   61.2084   29.6565   47.1745 H   0  0  0  0  0  0  0  0  0  0  0  0
   62.6929   33.2801   46.0176 H   0  0  0  0  0  0  0  0  0  0  0  0
   64.7561   34.0186   47.2120 H   0  0  0  0  0  0  0  0  0  0  0  0
   63.4461   31.9421   50.7739 H   0  0  0  0  0  0  0  0  0  0  0  0
   61.3803   31.2018   49.5862 H   0  0  0  0  0  0  0  0  0  0  0  0
  1  2  2  0
  2  3  1  0
  3  4  1  0
  4  5  1  0
  5  6  1  0
  6  7  2  0
  7  8  1  0
  8  9  1  0
  9 10  1  0
 10 11  1  0
 11 12  1  0
 12 13  2  0
 13 14  1  0
 14 15  2  0
 15 16  1  0
 16 17  2  0
 11 18  1  0
  8 19  2  0
 19 20  1  0
 20 21  1  0
 21 22  2  0
 22 23  1  0
 23 24  2  0
 24 25  1  0
 24 26  1  0
 26 27  2  0
 20 28  2  0
 28  2  1  0
 28  6  1  0
 18  9  1  0
 27 21  1  0
 17 12  1  0
  4 29  1  0
  4 30  1  0
  5 31  1  0
  5 32  1  0
  7 33  1  0
 10 34  1  0
 10 35  1  0
 11 36  1  0
 13 37  1  0
 15 38  1  0
 16 39  1  0
 18 40  1  0
 18 41  1  0
 19 42  1  0
 22 43  1  0
 23 44  1  0
 26 45  1  0
 27 46  1  0
M  CHG  2   3  -1   7   1
M  END
>  <UniqueID>  (45) 
42

>  <SMILES>  (45) 
O=C1[N-]CCc2[nH+]c(N3CC(c4cnccn4)C3)cc(-c3ccc(F)cc3)c21

>  <Energy>  (45) 
109.61889684843722

>  <Genealogy>  (45) 
O=C1[N-]CCc2[nH+]c(N3CC(c4cnccn4)C3)cc(-c3ccc(F)cc3)c21 (protonated)
O=C1[N-]CCc2[nH+]c(N3CC(c4cnccn4)C3)cc(-c3ccc(F)cc3)c21 (3D coordinates assigned)
O=C1[N-]CCc2[nH+]c(N3CC(c4cnccn4)C3)cc(-c3ccc(F)cc3)c21 (nonaromatic ring conformer: 109.61889684843722 kcal/mol)

>  <smiles>  (45) 
O=C1NCCc2nc(N3CC(c4cnccn4)C3)cc(-c3ccc(F)cc3)c21

>  <score_type>  (45) 
oracle

>  <origin>  (45) 
adg

>  <m_score__min__energy>  (45) 
-7.71

>  <m_primary>  (45) 
energy

$$$$
45:0
     RDKit          3D

 42 44  0  0  0  0  0  0  0  0999 V2000
   62.6870   34.2290   50.0760 C   0  0  0  0  0  0  0  0  0  0  0  0
   61.8400   33.2240   49.5260 O   0  0  0  0  0  0  0  0  0  0  0  0
   60.8500   33.4600   48.5600 C   0  0  0  0  0  0  0  0  0  0  0  0
   59.4840   33.2360   48.8210 C   0  0  0  0  0  0  0  0  0  0  0  0
   58.5270   33.4830   47.8350 C   0  0  0  0  0  0  0  0  0  0  0  0
   58.9130   33.9670   46.5790 C   0  0  0  0  0  0  0  0  0  0  0  0
   57.8840   34.1950   45.5060 C   0  0  0  0  0  0  0  0  0  0  0  0
   57.6830   32.9410   44.7200 C   0  0  0  0  0  0  0  0  0  0  0  0
   57.7540   32.8690   43.3770 N   0  0  0  0  0  0  0  0  0  0  0  0
   57.5520   31.5990   43.0640 N   0  0  0  0  0  0  0  0  0  0  0  0
   57.3720   30.9460   44.2290 C   0  0  0  0  0  0  0  0  0  0  0  0
   57.1170   29.5040   44.3440 C   0  0  0  0  0  0  0  0  0  0  0  0
   56.1080   29.1090   44.9870 O   0  0  0  0  0  0  0  0  0  0  0  0
   58.0060   28.5560   43.7350 N   0  0  0  0  0  0  0  0  0  0  0  0
   57.7660   27.1160   43.7850 C   0  0  0  0  0  0  0  0  0  0  0  0
   57.9690   26.6060   45.1780 C   0  0  0  0  0  0  0  0  0  0  0  0
   59.0960   26.8030   45.9640 C   0  0  0  0  0  0  0  0  0  0  0  0
   58.9760   26.2520   47.2450 C   0  0  0  0  0  0  0  0  0  0  0  0
   57.7550   25.6290   47.4720 C   0  0  0  0  0  0  0  0  0  0  0  0
   56.8230   25.7680   46.0780 S   0  0  0  0  0  0  0  0  0  0  0  0
   57.4530   31.7640   45.2500 O   0  0  0  0  0  0  0  0  0  0  0  0
   60.2740   34.1770   46.3100 C   0  0  0  0  0  0  0  0  0  0  0  0
   61.2460   33.9300   47.2980 C   0  0  0  0  0  0  0  0  0  0  0  0
   62.6150   34.1360   47.0650 O   0  0  0  0  0  0  0  0  0  0  0  0
   63.5500   33.1000   46.7800 C   0  0  0  0  0  0  0  0  0  0  0  0
   62.6470   34.1815   51.1742 H   0  0  0  0  0  0  0  0  0  0  0  0
   63.7208   34.0619   49.7392 H   0  0  0  0  0  0  0  0  0  0  0  0
   62.3472   35.2195   49.7392 H   0  0  0  0  0  0  0  0  0  0  0  0
   59.1695   32.8643   49.8074 H   0  0  0  0  0  0  0  0  0  0  0  0
   57.4637   33.2963   48.0460 H   0  0  0  0  0  0  0  0  0  0  0  0
   56.9319   34.4908   45.9707 H   0  0  0  0  0  0  0  0  0  0  0  0
   58.2328   34.9922   44.8332 H   0  0  0  0  0  0  0  0  0  0  0  0
   58.8610   28.8960   43.2410 H   0  0  0  0  0  0  0  0  0  0  0  0
   56.7329   26.9086   43.4691 H   0  0  0  0  0  0  0  0  0  0  0  0
   58.4734   26.6106   43.1111 H   0  0  0  0  0  0  0  0  0  0  0  0
   59.9920   27.3376   45.6157 H   0  0  0  0  0  0  0  0  0  0  0  0
   59.7733   26.3070   48.0009 H   0  0  0  0  0  0  0  0  0  0  0  0
   57.4498   25.1302   48.4037 H   0  0  0  0  0  0  0  0  0  0  0  0
   60.5843   34.5378   45.3183 H   0  0  0  0  0  0  0  0  0  0  0  0
   63.9297   32.6793   47.7228 H   0  0  0  0  0  0  0  0  0  0  0  0
   63.0544   32.3086   46.1986 H   0  0  0  0  0  0  0  0  0  0  0  0
   64.3879   33.5121   46.1986 H   0  0  0  0  0  0  0  0  0  0  0  0
  1  2  1  0
  2  3  1  0
  3  4  2  0
  4  5  1  0
  5  6  2  0
  6  7  1  0
  7  8  1  0
  8  9  2  0
  9 10  1  0
 10 11  2  0
 11 12  1  0
 12 13  2  0
 12 14  1  0
 14 15  1  0
 15 16  1  0
 16 17  2  0
 17 18  1  0
 18 19  2  0
 19 20  1  0
 11 21  1  0
  6 22  1  0
 22 23  2  0
 23 24  1  0
 24 25  1  0
 23  3  1  0
 21  8  1  0
 20 16  1  0
  1 26  1  0
  1 27  1  0
  1 28  1  0
  4 29  1  0
  5 30  1  0
  7 31  1  0
  7 32  1  0
 14 33  1  0
 15 34  1  0
 15 35  1  0
 17 36  1  0
 18 37  1  0
 19 38  1  0
 22 39  1  0
 25 40  1  0
 25 41  1  0
 25 42  1  0
M  END
>  <UniqueID>  (46) 
43

>  <SMILES>  (46) 
COc1ccc(Cc2nnc(C(=O)NCc3cccs3)o2)cc1OC

>  <Energy>  (46) 
96.94730742768847

>  <Genealogy>  (46) 
COc1ccc(Cc2nnc(C(=O)NCc3cccs3)o2)cc1OC (3D coordinates assigned)
COc1ccc(Cc2nnc(C(=O)NCc3cccs3)o2)cc1OC (optimized conformer: 96.94730742768847 kcal/mol)

>  <smiles>  (46) 
COc1ccc(Cc2nnc(C(=O)NCc3cccs3)o2)cc1OC

>  <score_type>  (46) 
oracle

>  <origin>  (46) 
adg

>  <m_score__min__energy>  (46) 
-7.71

>  <m_primary>  (46) 
energy

$$$$
46:0
     RDKit          3D

 71 73  0  0  0  0  0  0  0  0999 V2000
   59.8810   28.7400   49.0390 C   0  0  0  0  0  0  0  0  0  0  0  0
   59.8210   29.8350   50.1010 C   0  0  0  0  0  0  0  0  0  0  0  0
   60.9680   30.8380   49.9320 C   0  0  0  0  0  0  0  0  0  0  0  0
   60.6760   32.1680   50.6440 C   0  0  0  0  0  0  0  0  0  0  0  0
   60.9290   33.3200   49.7610 N   0  0  0  0  0  0  0  0  0  0  0  0
   62.2740   33.9080   49.6940 C   0  0  0  0  0  0  0  0  0  0  0  0
   63.3260   32.8020   49.5450 C   0  0  0  0  0  0  0  0  0  0  0  0
   64.1500   33.0090   48.2590 C   0  0  0  0  0  0  0  0  0  0  0  0
   63.4200   32.6970   47.0100 N   0  0  0  0  0  0  0  0  0  0  0  0
   62.7570   33.8720   46.4210 C   0  0  0  0  0  0  0  0  0  0  0  0
   62.4820   31.5720   47.1540 C   0  0  0  0  0  0  0  0  0  0  0  0
   59.8510   33.9380   49.0260 C   0  0  0  0  0  0  0  0  0  0  0  0
   59.3180   34.9880   49.4760 O   0  0  0  0  0  0  0  0  0  0  0  0
   59.3270   33.3420   47.7800 C   0  0  0  0  0  0  0  0  0  0  0  0
   59.1050   34.1490   46.6570 C   0  0  0  0  0  0  0  0  0  0  0  0
   58.5980   33.5990   45.4800 C   0  0  0  0  0  0  0  0  0  0  0  0
   58.3130   32.2250   45.3970 C   0  0  0  0  0  0  0  0  0  0  0  0
   57.8310   31.6680   44.1590 N   0  0  0  0  0  0  0  0  0  0  0  0
   56.7790   30.6650   44.0940 C   0  0  0  0  0  0  0  0  0  0  0  0
   56.5300   30.4340   42.6090 C   0  0  0  0  0  0  0  0  0  0  0  0
   57.1360   31.6370   41.8870 C   0  0  0  0  0  0  0  0  0  0  0  0
   58.1340   32.2490   42.8610 C   0  0  0  0  0  0  0  0  0  0  0  0
   58.5600   31.4010   46.5170 C   0  0  0  0  0  0  0  0  0  0  0  0
   58.2140   30.0100   46.4840 N   0  0  0  0  0  0  0  0  0  0  0  0
   58.9520   29.0400   45.7240 C   0  0  0  0  0  0  0  0  0  0  0  0
   59.8310   29.4170   44.9020 O   0  0  0  0  0  0  0  0  0  0  0  0
   58.6490   27.5990   45.8590 C   0  0  0  0  0  0  0  0  0  0  0  0
   59.6850   26.6660   46.0640 C   0  0  0  0  0  0  0  0  0  0  0  0
   60.9860   27.0560   46.0740 F   0  0  0  0  0  0  0  0  0  0  0  0
   59.3870   25.3080   46.2250 C   0  0  0  0  0  0  0  0  0  0  0  0
   58.0600   24.8690   46.1850 C   0  0  0  0  0  0  0  0  0  0  0  0
   57.0260   25.7850   45.9710 C   0  0  0  0  0  0  0  0  0  0  0  0
   57.3130   27.1440   45.8010 C   0  0  0  0  0  0  0  0  0  0  0  0
   56.2860   28.0150   45.6180 F   0  0  0  0  0  0  0  0  0  0  0  0
   59.0700   31.9650   47.6980 C   0  0  0  0  0  0  0  0  0  0  0  0
   59.9349   27.7566   49.5289 H   0  0  0  0  0  0  0  0  0  0  0  0
   58.9789   28.7880   48.4114 H   0  0  0  0  0  0  0  0  0  0  0  0
   60.7725   28.8863   48.4114 H   0  0  0  0  0  0  0  0  0  0  0  0
   58.8629   30.3680   50.0124 H   0  0  0  0  0  0  0  0  0  0  0  0
   59.9143   29.3643   51.0908 H   0  0  0  0  0  0  0  0  0  0  0  0
   61.8859   30.4028   50.3539 H   0  0  0  0  0  0  0  0  0  0  0  0
   61.0844   31.0448   48.8579 H   0  0  0  0  0  0  0  0  0  0  0  0
   59.6215   32.1821   50.9567 H   0  0  0  0  0  0  0  0  0  0  0  0
   61.3436   32.2473   51.5146 H   0  0  0  0  0  0  0  0  0  0  0  0
   62.3325   34.5847   48.8288 H   0  0  0  0  0  0  0  0  0  0  0  0
   62.4688   34.4676   50.6208 H   0  0  0  0  0  0  0  0  0  0  0  0
   64.0000   32.8243   50.4141 H   0  0  0  0  0  0  0  0  0  0  0  0
   62.8140   31.8302   49.4863 H   0  0  0  0  0  0  0  0  0  0  0  0
   64.4669   34.0616   48.2188 H   0  0  0  0  0  0  0  0  0  0  0  0
   64.9967   32.3088   48.3118 H   0  0  0  0  0  0  0  0  0  0  0  0
   62.3880   34.5260   47.2248 H   0  0  0  0  0  0  0  0  0  0  0  0
   63.4760   34.4253   45.7991 H   0  0  0  0  0  0  0  0  0  0  0  0
   61.9116   33.5426   45.7991 H   0  0  0  0  0  0  0  0  0  0  0  0
   62.3133   31.3697   48.2220 H   0  0  0  0  0  0  0  0  0  0  0  0
   61.5260   31.8279   46.6738 H   0  0  0  0  0  0  0  0  0  0  0  0
   62.9056   30.6776   46.6738 H   0  0  0  0  0  0  0  0  0  0  0  0
   59.3322   35.2243   46.7037 H   0  0  0  0  0  0  0  0  0  0  0  0
   58.4195   34.2462   44.6087 H   0  0  0  0  0  0  0  0  0  0  0  0
   57.1055   29.7331   44.5788 H   0  0  0  0  0  0  0  0  0  0  0  0
   55.8677   30.9943   44.6148 H   0  0  0  0  0  0  0  0  0  0  0  0
   57.0184   29.5050   42.2797 H   0  0  0  0  0  0  0  0  0  0  0  0
   55.4564   30.3332   42.3918 H   0  0  0  0  0  0  0  0  0  0  0  0
   57.6470   31.3141   40.9680 H   0  0  0  0  0  0  0  0  0  0  0  0
   56.3633   32.3621   41.5916 H   0  0  0  0  0  0  0  0  0  0  0  0
   59.1628   32.0006   42.5613 H   0  0  0  0  0  0  0  0  0  0  0  0
   58.0576   33.3461   42.8817 H   0  0  0  0  0  0  0  0  0  0  0  0
   57.3500   29.7040   46.9930 H   0  0  0  0  0  0  0  0  0  0  0  0
   60.1995   24.5836   46.3835 H   0  0  0  0  0  0  0  0  0  0  0  0
   57.8296   23.8022   46.3220 H   0  0  0  0  0  0  0  0  0  0  0  0
   55.9833   25.4364   45.9361 H   0  0  0  0  0  0  0  0  0  0  0  0
   59.2699   31.3209   48.5670 H   0  0  0  0  0  0  0  0  0  0  0  0
  1  2  1  0
  2  3  1  0
  3  4  1  0
  4  5  1  0
  5  6  1  0
  6  7  1  0
  7  8  1  0
  8  9  1  0
  9 10  1  0
  9 11  1  0
  5 12  1  0
 12 13  2  0
 12 14  1  0
 14 15  2  0
 15 16  1  0
 16 17  2  0
 17 18  1  0
 18 19  1  0
 19 20  1  0
 20 21  1  0
 21 22  1  0
 17 23  1  0
 23 24  1  0
 24 25  1  0
 25 26  2  0
 25 27  1  0
 27 28  2  0
 28 29  1  0
 28 30  1  0
 30 31  2  0
 31 32  1  0
 32 33  2  0
 33 34  1  0
 23 35  2  0
 35 14  1  0
 22 18  1  0
 33 27  1  0
  1 36  1  0
  1 37  1  0
  1 38  1  0
  2 39  1  0
  2 40  1  0
  3 41  1  0
  3 42  1  0
  4 43  1  0
  4 44  1  0
  6 45  1  0
  6 46  1  0
  7 47  1  0
  7 48  1  0
  8 49  1  0
  8 50  1  0
 10 51  1  0
 10 52  1  0
 10 53  1  0
 11 54  1  0
 11 55  1  0
 11 56  1  0
 15 57  1  0
 16 58  1  0
 19 59  1  0
 19 60  1  0
 20 61  1  0
 20 62  1  0
 21 63  1  0
 21 64  1  0
 22 65  1  0
 22 66  1  0
 24 67  1  0
 30 68  1  0
 31 69  1  0
 32 70  1  0
 35 71  1  0
M  END
>  <UniqueID>  (47) 
44

>  <SMILES>  (47) 
CCCCN(CCCN(C)C)C(=O)c1ccc(N2CCCC2)c(NC(=O)c2c(F)cccc2F)c1

>  <Energy>  (47) 
79.51336038027101

>  <Genealogy>  (47) 
CCCCN(CCCN(C)C)C(=O)c1ccc(N2CCCC2)c(NC(=O)c2c(F)cccc2F)c1 (3D coordinates assigned)
CCCCN(CCCN(C)C)C(=O)c1ccc(N2CCCC2)c(NC(=O)c2c(F)cccc2F)c1 (nonaromatic ring conformer: 79.51336038027101 kcal/mol)

>  <smiles>  (47) 
CCCCN(CCCN(C)C)C(=O)c1ccc(N2CCCC2)c(NC(=O)c2c(F)cccc2F)c1

>  <score_type>  (47) 
oracle

>  <origin>  (47) 
adg

>  <m_score__min__energy>  (47) 
-8.3000000000000007

>  <m_primary>  (47) 
energy

$$$$
47:0
     RDKit          3D

 48 50  0  0  0  0  0  0  0  0999 V2000
   63.4010   33.8230   46.3700 C   0  0  0  0  0  0  0  0  0  0  0  0
   63.4890   32.8960   47.5120 N   0  0  0  0  0  0  0  0  0  0  0  0
   62.4830   31.8130   47.3680 C   0  0  0  0  0  0  0  0  0  0  0  0
   62.1520   31.1710   48.7230 C   0  0  0  0  0  0  0  0  0  0  0  0
   61.5730   32.1480   49.6810 N   0  0  0  0  0  0  0  0  0  0  0  0
   60.1030   32.0150   49.7680 C   0  0  0  0  0  0  0  0  0  0  0  0
   59.4870   31.9350   48.3950 C   0  0  0  0  0  0  0  0  0  0  0  0
   59.4370   33.0710   47.5820 C   0  0  0  0  0  0  0  0  0  0  0  0
   58.9170   32.9990   46.2870 C   0  0  0  0  0  0  0  0  0  0  0  0
   58.8890   34.6060   45.2410 Br  0  0  0  0  0  0  0  0  0  0  0  0
   58.4440   31.7710   45.7810 C   0  0  0  0  0  0  0  0  0  0  0  0
   57.7520   31.7020   43.9840 Br  0  0  0  0  0  0  0  0  0  0  0  0
   58.4930   30.6150   46.5990 C   0  0  0  0  0  0  0  0  0  0  0  0
   58.0560   29.2510   46.1140 C   0  0  0  0  0  0  0  0  0  0  0  0
   58.8880   28.2010   46.7310 N   0  0  0  0  0  0  0  0  0  0  0  0
   60.2160   28.0980   46.1170 C   0  0  0  0  0  0  0  0  0  0  0  0
   60.6950   26.6780   46.3640 C   0  0  0  0  0  0  0  0  0  0  0  0
   59.4350   25.8680   46.6240 C   0  0  0  0  0  0  0  0  0  0  0  0
   58.2910   26.8720   46.5760 C   0  0  0  0  0  0  0  0  0  0  0  0
   59.0180   30.7130   47.8970 C   0  0  0  0  0  0  0  0  0  0  0  0
   61.9720   33.5510   49.3990 C   0  0  0  0  0  0  0  0  0  0  0  0
   63.3860   33.6260   48.8040 C   0  0  0  0  0  0  0  0  0  0  0  0
   63.3031   34.8538   46.7412 H   0  0  0  0  0  0  0  0  0  0  0  0
   64.3112   33.7385   45.7581 H   0  0  0  0  0  0  0  0  0  0  0  0
   62.5230   33.5687   45.7581 H   0  0  0  0  0  0  0  0  0  0  0  0
   64.4390   32.4550   47.4730 H   0  0  0  0  0  0  0  0  0  0  0  0
   61.5627   32.2345   46.9375 H   0  0  0  0  0  0  0  0  0  0  0  0
   62.9020   31.0369   46.7107 H   0  0  0  0  0  0  0  0  0  0  0  0
   61.4267   30.3597   48.5627 H   0  0  0  0  0  0  0  0  0  0  0  0
   63.0897   30.7906   49.1543 H   0  0  0  0  0  0  0  0  0  0  0  0
   59.8568   31.1001   50.3268 H   0  0  0  0  0  0  0  0  0  0  0  0
   59.7003   32.9001   50.2823 H   0  0  0  0  0  0  0  0  0  0  0  0
   59.8109   34.0317   47.9657 H   0  0  0  0  0  0  0  0  0  0  0  0
   57.0031   29.0881   46.3877 H   0  0  0  0  0  0  0  0  0  0  0  0
   58.1712   29.2045   45.0210 H   0  0  0  0  0  0  0  0  0  0  0  0
   60.1518   28.2951   45.0367 H   0  0  0  0  0  0  0  0  0  0  0  0
   60.9118   28.8335   46.5471 H   0  0  0  0  0  0  0  0  0  0  0  0
   61.2259   26.2917   45.4815 H   0  0  0  0  0  0  0  0  0  0  0  0
   61.3983   26.6239   47.2081 H   0  0  0  0  0  0  0  0  0  0  0  0
   59.3049   25.0991   45.8482 H   0  0  0  0  0  0  0  0  0  0  0  0
   59.4783   25.3434   47.5899 H   0  0  0  0  0  0  0  0  0  0  0  0
   57.7663   26.8026   45.6117 H   0  0  0  0  0  0  0  0  0  0  0  0
   57.5576   26.6733   47.3714 H   0  0  0  0  0  0  0  0  0  0  0  0
   59.0617   29.8164   48.5327 H   0  0  0  0  0  0  0  0  0  0  0  0
   61.2597   33.9882   48.6838 H   0  0  0  0  0  0  0  0  0  0  0  0
   61.9669   34.1082   50.3474 H   0  0  0  0  0  0  0  0  0  0  0  0
   63.6447   34.6819   48.6364 H   0  0  0  0  0  0  0  0  0  0  0  0
   64.0786   33.1535   49.5161 H   0  0  0  0  0  0  0  0  0  0  0  0
  1  2  1  0
  2  3  1  0
  3  4  1  0
  4  5  1  0
  5  6  1  0
  6  7  1  0
  7  8  2  0
  8  9  1  0
  9 10  1  0
  9 11  2  0
 11 12  1  0
 11 13  1  0
 13 14  1  0
 14 15  1  0
 15 16  1  0
 16 17  1  0
 17 18  1  0
 18 19  1  0
 13 20  2  0
  5 21  1  0
 21 22  1  0
 22  2  1  0
 20  7  1  0
 19 15  1  0
  1 23  1  0
  1 24  1  0
  1 25  1  0
  2 26  1  0
  3 27  1  0
  3 28  1  0
  4 29  1  0
  4 30  1  0
  6 31  1  0
  6 32  1  0
  8 33  1  0
 14 34  1  0
 14 35  1  0
 16 36  1  0
 16 37  1  0
 17 38  1  0
 17 39  1  0
 18 40  1  0
 18 41  1  0
 19 42  1  0
 19 43  1  0
 20 44  1  0
 21 45  1  0
 21 46  1  0
 22 47  1  0
 22 48  1  0
M  CHG  1   2   1
M  END
>  <UniqueID>  (48) 
45

>  <SMILES>  (48) 
C[NH+]1CCN(Cc2cc(Br)c(Br)c(CN3CCCC3)c2)CC1

>  <Energy>  (48) 
64.47604446145021

>  <Genealogy>  (48) 
C[NH+]1CCN(Cc2cc(Br)c(Br)c(CN3CCCC3)c2)CC1 (protonated)
C[NH+]1CCN(Cc2cc(Br)c(Br)c(CN3CCCC3)c2)CC1 (3D coordinates assigned)
C[NH+]1CCN(Cc2cc(Br)c(Br)c(CN3CCCC3)c2)CC1 (nonaromatic ring conformer: 64.47604446145021 kcal/mol)

>  <smiles>  (48) 
CN1CCN(Cc2cc(Br)c(Br)c(CN3CCCC3)c2)CC1

>  <score_type>  (48) 
oracle

>  <origin>  (48) 
adg

>  <m_score__min__energy>  (48) 
-6.9500000000000002

>  <m_primary>  (48) 
energy

$$$$
48:0
     RDKit          3D

 68 72  0  0  0  0  0  0  0  0999 V2000
   56.5910   22.8990   42.9810 C   0  0  0  0  0  0  0  0  0  0  0  0
   55.8810   22.8640   44.3350 C   0  0  0  0  0  0  0  0  0  0  0  0
   54.5640   23.6530   44.3400 C   0  0  0  0  0  0  0  0  0  0  0  0
   54.0640   23.9670   45.7550 C   0  0  0  0  0  0  0  0  0  0  0  0
   55.1630   24.4540   46.5820 N   0  0  0  0  0  0  0  0  0  0  0  0
   55.8910   25.6560   46.3040 C   0  0  0  0  0  0  0  0  0  0  0  0
   55.2740   26.7090   45.9820 O   0  0  0  0  0  0  0  0  0  0  0  0
   57.3990   25.6200   46.3290 C   0  0  0  0  0  0  0  0  0  0  0  0
   57.9860   26.5620   47.4060 C   0  0  0  0  0  0  0  0  0  0  0  0
   59.4910   26.7660   47.1800 C   0  0  0  0  0  0  0  0  0  0  0  0
   59.8220   27.3040   45.8280 N   0  0  0  0  0  0  0  0  0  0  0  0
   60.3760   28.6700   45.8900 C   0  0  0  0  0  0  0  0  0  0  0  0
   59.5390   29.5460   46.7830 C   0  0  0  0  0  0  0  0  0  0  0  0
   59.7360   29.7520   48.1350 C   0  0  0  0  0  0  0  0  0  0  0  0
   58.9100   30.7410   48.5430 N   0  0  0  0  0  0  0  0  0  0  0  0
   58.7650   31.2640   49.8800 C   0  0  0  0  0  0  0  0  0  0  0  0
   58.1690   30.4740   50.8810 C   0  0  0  0  0  0  0  0  0  0  0  0
   58.0240   30.9620   52.1830 C   0  0  0  0  0  0  0  0  0  0  0  0
   58.4720   32.2490   52.5110 C   0  0  0  0  0  0  0  0  0  0  0  0
   58.2740   32.7840   53.8990 C   0  0  0  0  0  0  0  0  0  0  0  0
   59.0380   33.0550   51.5130 C   0  0  0  0  0  0  0  0  0  0  0  0
   59.1890   32.5670   50.2100 C   0  0  0  0  0  0  0  0  0  0  0  0
   58.2130   31.1860   47.5080 N   0  0  0  0  0  0  0  0  0  0  0  0
   58.5760   30.4770   46.4220 C   0  0  0  0  0  0  0  0  0  0  0  0
   58.0180   30.7230   45.0810 C   0  0  0  0  0  0  0  0  0  0  0  0
   57.0080   29.8680   44.5750 C   0  0  0  0  0  0  0  0  0  0  0  0
   56.4820   30.0670   43.2840 C   0  0  0  0  0  0  0  0  0  0  0  0
   56.9990   31.1140   42.5280 C   0  0  0  0  0  0  0  0  0  0  0  0
   57.9800   31.9250   42.9980 C   0  0  0  0  0  0  0  0  0  0  0  0
   58.5220   31.7650   44.2700 C   0  0  0  0  0  0  0  0  0  0  0  0
   58.3070   32.8570   42.0340 O   0  0  0  0  0  0  0  0  0  0  0  0
   57.4840   32.6160   40.8850 C   0  0  0  0  0  0  0  0  0  0  0  0
   56.6600   31.4980   41.2450 O   0  0  0  0  0  0  0  0  0  0  0  0
   58.7030   27.2490   44.8590 C   0  0  0  0  0  0  0  0  0  0  0  0
   57.9850   25.9000   44.9220 C   0  0  0  0  0  0  0  0  0  0  0  0
   57.6784   22.9526   43.1384 H   0  0  0  0  0  0  0  0  0  0  0  0
   56.3469   21.9877   42.4153 H   0  0  0  0  0  0  0  0  0  0  0  0
   56.2585   23.7818   42.4153 H   0  0  0  0  0  0  0  0  0  0  0  0
   55.6634   21.8164   44.5902 H   0  0  0  0  0  0  0  0  0  0  0  0
   56.5501   23.3342   45.0706 H   0  0  0  0  0  0  0  0  0  0  0  0
   54.7203   24.6009   43.8042 H   0  0  0  0  0  0  0  0  0  0  0  0
   53.8021   23.0282   43.8509 H   0  0  0  0  0  0  0  0  0  0  0  0
   53.2810   24.7377   45.7009 H   0  0  0  0  0  0  0  0  0  0  0  0
   53.6572   23.0487   46.2036 H   0  0  0  0  0  0  0  0  0  0  0  0
   57.7017   24.6017   46.6145 H   0  0  0  0  0  0  0  0  0  0  0  0
   57.4767   27.5355   47.3519 H   0  0  0  0  0  0  0  0  0  0  0  0
   57.8334   26.1085   48.3965 H   0  0  0  0  0  0  0  0  0  0  0  0
   59.8642   27.4718   47.9366 H   0  0  0  0  0  0  0  0  0  0  0  0
   59.9673   25.7778   47.2607 H   0  0  0  0  0  0  0  0  0  0  0  0
   61.4012   28.6258   46.2864 H   0  0  0  0  0  0  0  0  0  0  0  0
   60.3756   29.0971   44.8763 H   0  0  0  0  0  0  0  0  0  0  0  0
   60.4455   29.2035   48.7720 H   0  0  0  0  0  0  0  0  0  0  0  0
   57.8136   29.4622   50.6362 H   0  0  0  0  0  0  0  0  0  0  0  0
   57.5558   30.3326   52.9542 H   0  0  0  0  0  0  0  0  0  0  0  0
   58.5586   32.0151   54.6324 H   0  0  0  0  0  0  0  0  0  0  0  0
   58.9015   33.6763   54.0410 H   0  0  0  0  0  0  0  0  0  0  0  0
   57.2168   33.0528   54.0410 H   0  0  0  0  0  0  0  0  0  0  0  0
   59.3652   34.0768   51.7556 H   0  0  0  0  0  0  0  0  0  0  0  0
   59.6422   33.2054   49.4373 H   0  0  0  0  0  0  0  0  0  0  0  0
   56.6315   29.0417   45.1959 H   0  0  0  0  0  0  0  0  0  0  0  0
   55.6890   29.4164   42.8867 H   0  0  0  0  0  0  0  0  0  0  0  0
   59.3193   32.4301   44.6334 H   0  0  0  0  0  0  0  0  0  0  0  0
   56.8642   33.4969   40.6620 H   0  0  0  0  0  0  0  0  0  0  0  0
   58.0820   32.4148   39.9839 H   0  0  0  0  0  0  0  0  0  0  0  0
   57.9854   28.0491   45.0933 H   0  0  0  0  0  0  0  0  0  0  0  0
   59.1115   27.3801   43.8461 H   0  0  0  0  0  0  0  0  0  0  0  0
   57.1648   25.8996   44.1891 H   0  0  0  0  0  0  0  0  0  0  0  0
   58.7198   25.1129   44.6969 H   0  0  0  0  0  0  0  0  0  0  0  0
  1  2  1  0
  2  3  1  0
  3  4  1  0
  4  5  1  0
  5  6  1  0
  6  7  2  0
  6  8  1  0
  8  9  1  0
  9 10  1  0
 10 11  1  0
 11 12  1  0
 12 13  1  0
 13 14  2  0
 14 15  1  0
 15 16  1  0
 16 17  2  0
 17 18  1  0
 18 19  2  0
 19 20  1  0
 19 21  1  0
 21 22  2  0
 15 23  1  0
 23 24  2  0
 24 25  1  0
 25 26  2  0
 26 27  1  0
 27 28  2  0
 28 29  1  0
 29 30  2  0
 29 31  1  0
 31 32  1  0
 32 33  1  0
 11 34  1  0
 34 35  1  0
 35  8  1  0
 24 13  1  0
 30 25  1  0
 22 16  1  0
 33 28  1  0
  1 36  1  0
  1 37  1  0
  1 38  1  0
  2 39  1  0
  2 40  1  0
  3 41  1  0
  3 42  1  0
  4 43  1  0
  4 44  1  0
  8 45  1  0
  9 46  1  0
  9 47  1  0
 10 48  1  0
 10 49  1  0
 12 50  1  0
 12 51  1  0
 14 52  1  0
 17 53  1  0
 18 54  1  0
 20 55  1  0
 20 56  1  0
 20 57  1  0
 21 58  1  0
 22 59  1  0
 26 60  1  0
 27 61  1  0
 30 62  1  0
 32 63  1  0
 32 64  1  0
 34 65  1  0
 34 66  1  0
 35 67  1  0
 35 68  1  0
M  CHG  1   5  -1
M  END
>  <UniqueID>  (49) 
46

>  <SMILES>  (49) 
CCCC[N-]C(=O)C1CCN(Cc2cn(-c3ccc(C)cc3)nc2-c2ccc3c(c2)OCO3)CC1

>  <Energy>  (49) 
137.98369765965614

>  <Genealogy>  (49) 
CCCC[N-]C(=O)C1CCN(Cc2cn(-c3ccc(C)cc3)nc2-c2ccc3c(c2)OCO3)CC1 (protonated)
CCCC[N-]C(=O)C1CCN(Cc2cn(-c3ccc(C)cc3)nc2-c2ccc3c(c2)OCO3)CC1 (3D coordinates assigned)
CCCC[N-]C(=O)C1CCN(Cc2cn(-c3ccc(C)cc3)nc2-c2ccc3c(c2)OCO3)CC1 (nonaromatic ring conformer: 137.98369765965614 kcal/mol)

>  <smiles>  (49) 
CCCCNC(=O)C1CCN(Cc2cn(-c3ccc(C)cc3)nc2-c2ccc3c(c2)OCO3)CC1

>  <score_type>  (49) 
oracle

>  <origin>  (49) 
adg

>  <m_score__min__energy>  (49) 
-11.07

>  <m_primary>  (49) 
energy

$$$$
