0:0
     RDKit          3D

 57 61  0  0  0  0  0  0  0  0999 V2000
   59.2820   22.2550   44.5090 C   0  0  0  0  0  0  0  0  0  0  0  0
   57.8350   22.0710   44.7250 N   0  0  0  0  0  0  0  0  0  0  0  0
   57.0370   22.6530   43.6240 C   0  0  0  0  0  0  0  0  0  0  0  0
   57.1290   24.1880   43.6010 C   0  0  0  0  0  0  0  0  0  0  0  0
   57.1460   24.7290   44.9650 N   0  0  0  0  0  0  0  0  0  0  0  0
   57.6390   26.0600   45.2110 C   0  0  0  0  0  0  0  0  0  0  0  0
   57.6180   26.5990   46.5080 C   0  0  0  0  0  0  0  0  0  0  0  0
   58.0830   27.8950   46.7460 C   0  0  0  0  0  0  0  0  0  0  0  0
   58.5660   28.6860   45.6880 C   0  0  0  0  0  0  0  0  0  0  0  0
   59.0730   30.0610   45.9230 C   0  0  0  0  0  0  0  0  0  0  0  0
   60.1970   30.2330   46.6680 N   0  0  0  0  0  0  0  0  0  0  0  0
   60.7150   31.4620   46.9250 C   0  0  0  0  0  0  0  0  0  0  0  0
   61.8890   31.5660   47.7480 N   0  0  0  0  0  0  0  0  0  0  0  0
   63.2120   31.6480   47.1260 C   0  0  0  0  0  0  0  0  0  0  0  0
   63.7530   33.0700   47.3060 C   0  0  0  0  0  0  0  0  0  0  0  0
   63.7420   33.4460   48.6740 O   0  0  0  0  0  0  0  0  0  0  0  0
   62.4120   33.4790   49.1630 C   0  0  0  0  0  0  0  0  0  0  0  0
   61.7810   32.0830   49.1120 C   0  0  0  0  0  0  0  0  0  0  0  0
   60.0840   32.6000   46.3900 C   0  0  0  0  0  0  0  0  0  0  0  0
   60.5900   33.9030   46.5710 C   0  0  0  0  0  0  0  0  0  0  0  0
   59.9270   34.9970   46.0120 C   0  0  0  0  0  0  0  0  0  0  0  0
   58.7660   34.8090   45.2620 C   0  0  0  0  0  0  0  0  0  0  0  0
   58.2620   33.5210   45.0590 C   0  0  0  0  0  0  0  0  0  0  0  0
   58.9170   32.4100   45.6160 C   0  0  0  0  0  0  0  0  0  0  0  0
   58.4390   31.1510   45.4000 N   0  0  0  0  0  0  0  0  0  0  0  0
   58.5890   28.1430   44.3920 C   0  0  0  0  0  0  0  0  0  0  0  0
   58.1240   26.8470   44.1550 C   0  0  0  0  0  0  0  0  0  0  0  0
   56.6590   23.8820   46.0590 C   0  0  0  0  0  0  0  0  0  0  0  0
   57.4130   22.5390   46.0720 C   0  0  0  0  0  0  0  0  0  0  0  0
   59.7925   22.3199   45.4812 H   0  0  0  0  0  0  0  0  0  0  0  0
   59.6798   21.4002   43.9423 H   0  0  0  0  0  0  0  0  0  0  0  0
   59.4532   23.1821   43.9423 H   0  0  0  0  0  0  0  0  0  0  0  0
   57.4105   22.2596   42.6671 H   0  0  0  0  0  0  0  0  0  0  0  0
   55.9842   22.3761   43.7816 H   0  0  0  0  0  0  0  0  0  0  0  0
   58.0525   24.4863   43.0831 H   0  0  0  0  0  0  0  0  0  0  0  0
   56.2492   24.5863   43.0744 H   0  0  0  0  0  0  0  0  0  0  0  0
   57.2323   25.9959   47.3432 H   0  0  0  0  0  0  0  0  0  0  0  0
   58.0712   28.2998   47.7687 H   0  0  0  0  0  0  0  0  0  0  0  0
   63.8922   30.9297   47.6070 H   0  0  0  0  0  0  0  0  0  0  0  0
   63.1378   31.4084   46.0550 H   0  0  0  0  0  0  0  0  0  0  0  0
   64.7854   33.1131   46.9289 H   0  0  0  0  0  0  0  0  0  0  0  0
   63.1101   33.7644   46.7453 H   0  0  0  0  0  0  0  0  0  0  0  0
   62.4188   33.8344   50.2040 H   0  0  0  0  0  0  0  0  0  0  0  0
   61.8199   34.1579   48.5317 H   0  0  0  0  0  0  0  0  0  0  0  0
   62.3108   31.4124   49.8045 H   0  0  0  0  0  0  0  0  0  0  0  0
   60.7229   32.1403   49.4071 H   0  0  0  0  0  0  0  0  0  0  0  0
   61.5097   34.0583   47.1542 H   0  0  0  0  0  0  0  0  0  0  0  0
   60.3221   36.0123   46.1637 H   0  0  0  0  0  0  0  0  0  0  0  0
   58.2458   35.6763   44.8293 H   0  0  0  0  0  0  0  0  0  0  0  0
   57.3498   33.3770   44.4613 H   0  0  0  0  0  0  0  0  0  0  0  0
   57.5980   31.0260   44.7940 H   0  0  0  0  0  0  0  0  0  0  0  0
   58.9768   28.7440   43.5563 H   0  0  0  0  0  0  0  0  0  0  0  0
   58.1381   26.4404   43.1330 H   0  0  0  0  0  0  0  0  0  0  0  0
   56.8205   24.3981   47.0169 H   0  0  0  0  0  0  0  0  0  0  0  0
   55.5863   23.6885   45.9112 H   0  0  0  0  0  0  0  0  0  0  0  0
   58.3115   22.6525   46.6963 H   0  0  0  0  0  0  0  0  0  0  0  0
   56.7159   21.7856   46.4675 H   0  0  0  0  0  0  0  0  0  0  0  0
  1  2  1  0
  2  3  1  0
  3  4  1  0
  4  5  1  0
  5  6  1  0
  6  7  2  0
  7  8  1  0
  8  9  2  0
  9 10  1  0
 10 11  2  0
 11 12  1  0
 12 13  1  0
 13 14  1  0
 14 15  1  0
 15 16  1  0
 16 17  1  0
 17 18  1  0
 12 19  2  0
 19 20  1  0
 20 21  2  0
 21 22  1  0
 22 23  2  0
 23 24  1  0
 24 25  2  0
  9 26  1  0
 26 27  2  0
  5 28  1  0
 28 29  1  0
 29  2  1  0
 27  6  1  0
 25 10  1  0
 18 13  1  0
 24 19  1  0
  1 30  1  0
  1 31  1  0
  1 32  1  0
  3 33  1  0
  3 34  1  0
  4 35  1  0
  4 36  1  0
  7 37  1  0
  8 38  1  0
 14 39  1  0
 14 40  1  0
 15 41  1  0
 15 42  1  0
 17 43  1  0
 17 44  1  0
 18 45  1  0
 18 46  1  0
 20 47  1  0
 21 48  1  0
 22 49  1  0
 23 50  1  0
 25 51  1  0
 26 52  1  0
 27 53  1  0
 28 54  1  0
 28 55  1  0
 29 56  1  0
 29 57  1  0
M  CHG  1  25   1
M  END
>  <UniqueID>  (1) 
1

>  <SMILES>  (1) 
CN1CCN(c2ccc(-c3nc(N4CCOCC4)c4ccccc4[nH+]3)cc2)CC1

>  <Energy>  (1) 
87.24360679664127

>  <Genealogy>  (1) 
CN1CCN(c2ccc(-c3nc(N4CCOCC4)c4ccccc4[nH+]3)cc2)CC1 (protonated)
CN1CCN(c2ccc(-c3nc(N4CCOCC4)c4ccccc4[nH+]3)cc2)CC1 (3D coordinates assigned)
CN1CCN(c2ccc(-c3nc(N4CCOCC4)c4ccccc4[nH+]3)cc2)CC1 (nonaromatic ring conformer: 87.24360679664127 kcal/mol)

>  <smiles>  (1) 
CN1CCN(c2ccc(-c3nc(N4CCOCC4)c4ccccc4n3)cc2)CC1

>  <score_type>  (1) 
oracle

>  <origin>  (1) 
adg

>  <m_score__min__energy>  (1) 
-6.9800000000000004

>  <m_primary>  (1) 
energy

$$$$
1:0
     RDKit          3D

 40 42  0  0  0  0  0  0  0  0999 V2000
   57.0240   28.1630   45.6200 C   0  0  0  0  0  0  0  0  0  0  0  0
   56.2880   29.3210   45.2430 O   0  0  0  0  0  0  0  0  0  0  0  0
   56.7530   30.2880   44.3420 C   0  0  0  0  0  0  0  0  0  0  0  0
   56.5290   30.2180   42.9430 C   0  0  0  0  0  0  0  0  0  0  0  0
   57.0240   31.2270   42.0870 C   0  0  0  0  0  0  0  0  0  0  0  0
   57.7470   32.3140   42.6080 C   0  0  0  0  0  0  0  0  0  0  0  0
   57.9520   32.3570   43.9850 C   0  0  0  0  0  0  0  0  0  0  0  0
   58.6060   33.2770   44.7680 C   0  0  0  0  0  0  0  0  0  0  0  0
   58.4760   32.7800   46.0640 C   0  0  0  0  0  0  0  0  0  0  0  0
   59.0120   33.4170   47.2830 C   0  0  0  0  0  0  0  0  0  0  0  0
   58.7940   34.6460   47.4690 O   0  0  0  0  0  0  0  0  0  0  0  0
   59.7160   32.6330   48.2840 N   0  0  2  0  0  0  0  0  0  0  0  0
   60.7230   33.4720   48.9700 C   0  0  0  0  0  0  0  0  0  0  0  0
   61.9200   33.8330   48.0680 C   0  0  0  0  0  0  0  0  0  0  0  0
   62.3620   32.6740   47.1600 C   0  0  0  0  0  0  0  0  0  0  0  0
   61.8200   31.3340   47.6470 C   0  0  0  0  0  0  0  0  0  0  0  0
   60.2730   31.3530   47.7210 C   0  0  1  0  0  0  0  0  0  0  0  0
   59.7900   30.1320   48.5220 C   0  0  0  0  0  0  0  0  0  0  0  0
   57.7940   31.6480   46.0620 O   0  0  0  0  0  0  0  0  0  0  0  0
   57.4730   31.3820   44.8190 C   0  0  0  0  0  0  0  0  0  0  0  0
   57.0663   28.0965   46.7172 H   0  0  0  0  0  0  0  0  0  0  0  0
   56.5293   27.2669   45.2171 H   0  0  0  0  0  0  0  0  0  0  0  0
   58.0453   28.2304   45.2171 H   0  0  0  0  0  0  0  0  0  0  0  0
   55.9659   29.3721   42.5217 H   0  0  0  0  0  0  0  0  0  0  0  0
   56.8422   31.1614   41.0041 H   0  0  0  0  0  0  0  0  0  0  0  0
   58.1378   33.1043   41.9502 H   0  0  0  0  0  0  0  0  0  0  0  0
   59.1162   34.1967   44.4457 H   0  0  0  0  0  0  0  0  0  0  0  0
   59.0110   32.3880   49.0200 H   0  0  0  0  0  0  0  0  0  0  0  0
   60.2384   34.4031   49.2990 H   0  0  0  0  0  0  0  0  0  0  0  0
   61.1133   32.8909   49.8185 H   0  0  0  0  0  0  0  0  0  0  0  0
   61.6359   34.6858   47.4339 H   0  0  0  0  0  0  0  0  0  0  0  0
   62.7667   34.0742   48.7275 H   0  0  0  0  0  0  0  0  0  0  0  0
   61.9913   32.8588   46.1410 H   0  0  0  0  0  0  0  0  0  0  0  0
   63.4608   32.6253   47.1784 H   0  0  0  0  0  0  0  0  0  0  0  0
   62.1369   30.5436   46.9506 H   0  0  0  0  0  0  0  0  0  0  0  0
   62.2161   31.1420   48.6551 H   0  0  0  0  0  0  0  0  0  0  0  0
   59.8904   31.2992   46.6911 H   0  0  0  0  0  0  0  0  0  0  0  0
   59.8735   30.3432   49.5983 H   0  0  0  0  0  0  0  0  0  0  0  0
   58.7403   29.9202   48.2703 H   0  0  0  0  0  0  0  0  0  0  0  0
   60.4107   29.2594   48.2703 H   0  0  0  0  0  0  0  0  0  0  0  0
  1  2  1  0
  2  3  1  0
  3  4  2  0
  4  5  1  0
  5  6  2  0
  6  7  1  0
  7  8  1  0
  8  9  2  0
  9 10  1  0
 10 11  2  0
 10 12  1  0
 12 13  1  0
 13 14  1  0
 14 15  1  0
 15 16  1  0
 16 17  1  0
 17 18  1  0
  9 19  1  0
 19 20  1  0
 20  3  1  0
 20  7  2  0
 17 12  1  0
  1 21  1  0
  1 22  1  0
  1 23  1  0
  4 24  1  0
  5 25  1  0
  6 26  1  0
  8 27  1  0
 12 28  1  1
 13 29  1  0
 13 30  1  0
 14 31  1  0
 14 32  1  0
 15 33  1  0
 15 34  1  0
 16 35  1  0
 16 36  1  0
 17 37  1  6
 18 38  1  0
 18 39  1  0
 18 40  1  0
M  CHG  1  12   1
M  END
>  <UniqueID>  (2) 
2

>  <SMILES>  (2) 
COc1cccc2cc(C(=O)[N@@H+]3CCCC[C@H]3C)oc12

>  <Energy>  (2) 
83.12513232129272

>  <Genealogy>  (2) 
COc1cccc2cc(C(=O)[NH+]3CCCCC3C)oc12 (protonated)
COc1cccc2cc(C(=O)[N@@H+]3CCCC[C@H]3C)oc12 (chirality)
COc1cccc2cc(C(=O)[N@@H+]3CCCC[C@H]3C)oc12 (3D coordinates assigned)
COc1cccc2cc(C(=O)[N@@H+]3CCCC[C@H]3C)oc12 (nonaromatic ring conformer: 83.12513232129272 kcal/mol)

>  <smiles>  (2) 
COc1cccc2cc(C(=O)N3CCCCC3C)oc12

>  <score_type>  (2) 
oracle

>  <origin>  (2) 
adg

>  <m_score__min__energy>  (2) 
-6.9900000000000002

>  <m_primary>  (2) 
energy

$$$$
2:0
     RDKit          3D

 43 43  0  0  0  0  0  0  0  0999 V2000
   55.8758   33.4569   45.2449 H   0  0  0  0  0  0  0  0  0  0  0  0
   56.9330   33.1620   45.3180 C   0  0  0  0  0  0  0  0  0  0  0  0
   57.3400   31.9350   44.6060 C   0  0  0  0  0  0  0  0  0  0  0  0
   58.4810   31.8370   44.0800 O   0  0  0  0  0  0  0  0  0  0  0  0
   56.4500   30.8570   44.5730 O   0  0  0  0  0  0  0  0  0  0  0  0
   56.3940   29.9110   43.5040 C   0  0  0  0  0  0  0  0  0  0  0  0
   56.6455   30.4190   42.5613 H   0  0  0  0  0  0  0  0  0  0  0  0
   55.3770   29.4942   43.4595 H   0  0  0  0  0  0  0  0  0  0  0  0
   57.3910   28.7500   43.7340 C   0  0  0  0  0  0  0  0  0  0  0  0
   57.9701   28.5982   42.8112 H   0  0  0  0  0  0  0  0  0  0  0  0
   56.8017   27.8608   44.0024 H   0  0  0  0  0  0  0  0  0  0  0  0
   58.3430   29.0070   44.8550 N   0  0  0  0  0  0  0  0  0  0  0  0
   58.3820   30.0360   45.0510 H   0  0  0  0  0  0  0  0  0  0  0  0
   59.7270   28.5600   44.5430 C   0  0  0  0  0  0  0  0  0  0  0  0
   59.9899   28.9086   43.5334 H   0  0  0  0  0  0  0  0  0  0  0  0
   59.7446   27.4623   44.6126 H   0  0  0  0  0  0  0  0  0  0  0  0
   60.7620   29.1020   45.5330 C   0  0  0  0  0  0  0  0  0  0  0  0
   60.4159   28.9207   46.5613 H   0  0  0  0  0  0  0  0  0  0  0  0
   61.7235   28.5916   45.3744 H   0  0  0  0  0  0  0  0  0  0  0  0
   60.8901   30.1829   45.3744 H   0  0  0  0  0  0  0  0  0  0  0  0
   57.8630   28.4020   46.1250 C   0  0  0  0  0  0  0  0  0  0  0  0
   58.7286   28.2622   46.7892 H   0  0  0  0  0  0  0  0  0  0  0  0
   57.1139   29.0922   46.5403 H   0  0  0  0  0  0  0  0  0  0  0  0
   57.1640   27.0440   45.9520 C   0  0  0  0  0  0  0  0  0  0  0  0
   56.9438   26.6163   46.9412 H   0  0  0  0  0  0  0  0  0  0  0  0
   56.2254   27.1830   45.3955 H   0  0  0  0  0  0  0  0  0  0  0  0
   57.8225   26.3609   45.3955 H   0  0  0  0  0  0  0  0  0  0  0  0
   57.7390   33.9500   46.0470 C   0  0  0  0  0  0  0  0  0  0  0  0
   57.3387   34.9231   46.3676 H   0  0  0  0  0  0  0  0  0  0  0  0
   59.1200   33.6170   46.4540 C   0  0  0  0  0  0  0  0  0  0  0  0
   59.4070   32.4290   47.1470 C   0  0  0  0  0  0  0  0  0  0  0  0
   58.5904   31.7468   47.4257 H   0  0  0  0  0  0  0  0  0  0  0  0
   60.7260   32.1100   47.4840 C   0  0  0  0  0  0  0  0  0  0  0  0
   60.9373   31.1932   48.0539 H   0  0  0  0  0  0  0  0  0  0  0  0
   61.7840   32.9520   47.1000 C   0  0  0  0  0  0  0  0  0  0  0  0
   63.2000   32.6340   47.5080 C   0  0  0  0  0  0  0  0  0  0  0  0
   64.0650   33.0700   46.5220 F   0  0  0  0  0  0  0  0  0  0  0  0
   63.5190   33.2630   48.6980 F   0  0  0  0  0  0  0  0  0  0  0  0
   63.3650   31.2710   47.6810 F   0  0  0  0  0  0  0  0  0  0  0  0
   61.4920   34.1360   46.4020 C   0  0  0  0  0  0  0  0  0  0  0  0
   62.3076   34.8174   46.1184 H   0  0  0  0  0  0  0  0  0  0  0  0
   60.1730   34.4550   46.0650 C   0  0  0  0  0  0  0  0  0  0  0  0
   59.9610   35.3692   45.4912 H   0  0  0  0  0  0  0  0  0  0  0  0
  1  2  1  0
  2  3  1  0
  3  4  2  0
  3  5  1  0
  5  6  1  0
  6  7  1  0
  6  8  1  0
  6  9  1  0
  9 10  1  0
  9 11  1  0
  9 12  1  0
 12 13  1  0
 12 14  1  0
 14 15  1  0
 14 16  1  0
 14 17  1  0
 17 18  1  0
 17 19  1  0
 17 20  1  0
 12 21  1  0
 21 22  1  0
 21 23  1  0
 21 24  1  0
 24 25  1  0
 24 26  1  0
 24 27  1  0
  2 28  2  0
 28 29  1  0
 28 30  1  0
 30 31  2  0
 31 32  1  0
 31 33  1  0
 33 34  1  0
 33 35  2  0
 35 36  1  0
 36 37  1  0
 36 38  1  0
 36 39  1  0
 35 40  1  0
 40 41  1  0
 40 42  2  0
 42 43  1  0
 42 30  1  0
M  CHG  1  12   1
M  END
>  <UniqueID>  (3) 
3

>  <SMILES>  (3) 
CC[NH+](CC)CCOC(=O)/C=C\c1ccc(C(F)(F)F)cc1

>  <Energy>  (3) 
52.09996183870152

>  <Genealogy>  (3) 
CC[NH+](CC)CCOC(=O)C=Cc1ccc(C(F)(F)F)cc1 (protonated)
CC[NH+](CC)CCOC(=O)/C=C\c1ccc(C(F)(F)F)cc1 (cis-trans isomerization)
CC[NH+](CC)CCOC(=O)/C=C\c1ccc(C(F)(F)F)cc1 (3D coordinates assigned)
CC[NH+](CC)CCOC(=O)/C=C\c1ccc(C(F)(F)F)cc1 (optimized conformer: 52.09996183870152 kcal/mol)

>  <smiles>  (3) 
CCN(CC)CCOC(=O)C=Cc1ccc(C(F)(F)F)cc1

>  <score_type>  (3) 
oracle

>  <origin>  (3) 
adg

>  <m_score__min__energy>  (3) 
-3.71

>  <m_primary>  (3) 
energy

$$$$
3:0
     RDKit          3D

 63 67  0  0  0  0  0  0  0  0999 V2000
   63.1310   26.1730   52.4470 C   0  0  0  0  0  0  0  0  0  0  0  0
   63.1690   27.5310   52.8730 O   0  0  0  0  0  0  0  0  0  0  0  0
   64.0420   28.4990   52.3540 C   0  0  0  0  0  0  0  0  0  0  0  0
   65.4350   28.4410   52.5510 C   0  0  0  0  0  0  0  0  0  0  0  0
   66.2630   29.4270   52.0060 C   0  0  0  0  0  0  0  0  0  0  0  0
   65.7130   30.4770   51.2690 C   0  0  0  0  0  0  0  0  0  0  0  0
   64.3240   30.5600   51.0800 C   0  0  0  0  0  0  0  0  0  0  0  0
   63.7320   31.6610   50.2880 C   0  0  0  0  0  0  0  0  0  0  0  0
   62.5020   31.6070   49.6610 C   0  0  0  0  0  0  0  0  0  0  0  0
   62.4200   32.7930   48.9470 C   0  0  0  0  0  0  0  0  0  0  0  0
   61.3050   33.2370   48.0760 C   0  0  0  0  0  0  0  0  0  0  0  0
   61.5490   33.7970   46.8080 C   0  0  0  0  0  0  0  0  0  0  0  0
   60.4850   34.2030   45.9970 C   0  0  0  0  0  0  0  0  0  0  0  0
   59.1660   34.0400   46.4310 C   0  0  0  0  0  0  0  0  0  0  0  0
   57.8040   34.5440   45.3730 S   0  0  0  0  0  0  0  0  0  0  0  0
   57.8090   33.0420   44.3250 C   0  0  0  0  0  0  0  0  0  0  0  0
   57.5990   31.7620   45.1430 C   0  0  0  0  0  0  0  0  0  0  0  0
   57.9290   30.5620   44.3450 N   0  0  0  0  0  0  0  0  0  0  0  0
   58.0640   29.3380   45.1720 C   0  0  0  0  0  0  0  0  0  0  0  0
   56.7550   28.5260   45.2410 C   0  0  0  0  0  0  0  0  0  0  0  0
   55.6380   29.3720   45.0750 O   0  0  0  0  0  0  0  0  0  0  0  0
   55.5980   29.8730   43.7510 C   0  0  0  0  0  0  0  0  0  0  0  0
   56.9780   30.3500   43.2370 C   0  0  0  0  0  0  0  0  0  0  0  0
   58.9140   33.5060   47.6990 C   0  0  0  0  0  0  0  0  0  0  0  0
   59.9750   33.1000   48.5130 C   0  0  0  0  0  0  0  0  0  0  0  0
   63.5410   33.5160   49.1500 N   0  0  0  0  0  0  0  0  0  0  0  0
   64.3300   32.8330   49.9650 N   0  0  0  0  0  0  0  0  0  0  0  0
   65.5770   33.3540   50.4530 C   0  0  0  0  0  0  0  0  0  0  0  0
   65.6020   34.1160   51.6300 C   0  0  0  0  0  0  0  0  0  0  0  0
   66.8170   34.6160   52.1010 C   0  0  0  0  0  0  0  0  0  0  0  0
   67.9940   34.3430   51.4050 C   0  0  0  0  0  0  0  0  0  0  0  0
   67.9400   33.5630   50.2500 C   0  0  0  0  0  0  0  0  0  0  0  0
   66.7470   33.0820   49.8030 N   0  0  0  0  0  0  0  0  0  0  0  0
   63.4990   29.5570   51.6150 C   0  0  0  0  0  0  0  0  0  0  0  0
   63.1125   25.5131   53.3269 H   0  0  0  0  0  0  0  0  0  0  0  0
   62.2278   26.0035   51.8425 H   0  0  0  0  0  0  0  0  0  0  0  0
   64.0233   25.9532   51.8425 H   0  0  0  0  0  0  0  0  0  0  0  0
   65.8728   27.6181   53.1350 H   0  0  0  0  0  0  0  0  0  0  0  0
   67.3511   29.3751   52.1585 H   0  0  0  0  0  0  0  0  0  0  0  0
   66.3711   31.2436   50.8339 H   0  0  0  0  0  0  0  0  0  0  0  0
   61.7541   30.8022   49.7159 H   0  0  0  0  0  0  0  0  0  0  0  0
   62.5833   33.9160   46.4529 H   0  0  0  0  0  0  0  0  0  0  0  0
   60.6864   34.6525   45.0135 H   0  0  0  0  0  0  0  0  0  0  0  0
   57.0005   33.1250   43.5838 H   0  0  0  0  0  0  0  0  0  0  0  0
   58.7934   32.9735   43.8390 H   0  0  0  0  0  0  0  0  0  0  0  0
   58.2472   31.7925   46.0312 H   0  0  0  0  0  0  0  0  0  0  0  0
   56.5411   31.7054   45.4391 H   0  0  0  0  0  0  0  0  0  0  0  0
   58.8505   28.7034   44.7375 H   0  0  0  0  0  0  0  0  0  0  0  0
   58.3176   29.6518   46.1954 H   0  0  0  0  0  0  0  0  0  0  0  0
   56.7567   27.7684   44.4434 H   0  0  0  0  0  0  0  0  0  0  0  0
   56.6896   28.0405   46.2259 H   0  0  0  0  0  0  0  0  0  0  0  0
   55.2341   29.0756   43.0864 H   0  0  0  0  0  0  0  0  0  0  0  0
   54.9301   30.7470   43.7525 H   0  0  0  0  0  0  0  0  0  0  0  0
   57.3875   29.5891   42.5563 H   0  0  0  0  0  0  0  0  0  0  0  0
   56.8377   31.3091   42.7170 H   0  0  0  0  0  0  0  0  0  0  0  0
   57.8785   33.4054   48.0563 H   0  0  0  0  0  0  0  0  0  0  0  0
   59.7683   32.6696   49.5040 H   0  0  0  0  0  0  0  0  0  0  0  0
   64.6702   34.3183   52.1784 H   0  0  0  0  0  0  0  0  0  0  0  0
   66.8459   35.2231   53.0178 H   0  0  0  0  0  0  0  0  0  0  0  0
   68.9557   34.7389   51.7633 H   0  0  0  0  0  0  0  0  0  0  0  0
   68.8641   33.3356   49.6984 H   0  0  0  0  0  0  0  0  0  0  0  0
   66.7440   32.4760   48.9520 H   0  0  0  0  0  0  0  0  0  0  0  0
   62.4122   29.6033   51.4513 H   0  0  0  0  0  0  0  0  0  0  0  0
  1  2  1  0
  2  3  1  0
  3  4  2  0
  4  5  1  0
  5  6  2  0
  6  7  1  0
  7  8  1  0
  8  9  2  0
  9 10  1  0
 10 11  1  0
 11 12  2  0
 12 13  1  0
 13 14  2  0
 14 15  1  0
 15 16  1  0
 16 17  1  0
 17 18  1  0
 18 19  1  0
 19 20  1  0
 20 21  1  0
 21 22  1  0
 22 23  1  0
 14 24  1  0
 24 25  2  0
 10 26  2  0
 26 27  1  0
 27 28  1  0
 28 29  2  0
 29 30  1  0
 30 31  2  0
 31 32  1  0
 32 33  2  0
  7 34  2  0
 34  3  1  0
 27  8  1  0
 33 28  1  0
 25 11  1  0
 23 18  1  0
  1 35  1  0
  1 36  1  0
  1 37  1  0
  4 38  1  0
  5 39  1  0
  6 40  1  0
  9 41  1  0
 12 42  1  0
 13 43  1  0
 16 44  1  0
 16 45  1  0
 17 46  1  0
 17 47  1  0
 19 48  1  0
 19 49  1  0
 20 50  1  0
 20 51  1  0
 22 52  1  0
 22 53  1  0
 23 54  1  0
 23 55  1  0
 24 56  1  0
 25 57  1  0
 29 58  1  0
 30 59  1  0
 31 60  1  0
 32 61  1  0
 33 62  1  0
 34 63  1  0
M  CHG  1  33   1
M  END
>  <UniqueID>  (4) 
4

>  <SMILES>  (4) 
COc1cccc(-c2cc(-c3ccc(SCCN4CCOCC4)cc3)nn2-c2cccc[nH+]2)c1

>  <Energy>  (4) 
113.79119831514873

>  <Genealogy>  (4) 
COc1cccc(-c2cc(-c3ccc(SCCN4CCOCC4)cc3)nn2-c2cccc[nH+]2)c1 (protonated)
COc1cccc(-c2cc(-c3ccc(SCCN4CCOCC4)cc3)nn2-c2cccc[nH+]2)c1 (3D coordinates assigned)
COc1cccc(-c2cc(-c3ccc(SCCN4CCOCC4)cc3)nn2-c2cccc[nH+]2)c1 (nonaromatic ring conformer: 113.79119831514873 kcal/mol)

>  <smiles>  (4) 
COc1cccc(-c2cc(-c3ccc(SCCN4CCOCC4)cc3)nn2-c2ccccn2)c1

>  <score_type>  (4) 
oracle

>  <origin>  (4) 
adg

>  <m_score__min__energy>  (4) 
-8.0800000000000001

>  <m_primary>  (4) 
energy

$$$$
4:0
     RDKit          3D

 62 65  0  0  0  0  0  0  0  0999 V2000
   66.3000   32.6020   50.7590 C   0  0  0  0  0  0  0  0  0  0  0  0
   65.0350   33.2320   50.9310 O   0  0  0  0  0  0  0  0  0  0  0  0
   64.1070   33.4410   49.9010 C   0  0  0  0  0  0  0  0  0  0  0  0
   62.8570   34.0530   50.1220 C   0  0  0  0  0  0  0  0  0  0  0  0
   61.9620   34.2310   49.0620 C   0  0  0  0  0  0  0  0  0  0  0  0
   62.3020   33.8060   47.7680 C   0  0  0  0  0  0  0  0  0  0  0  0
   61.3150   33.9270   46.6380 C   0  0  0  0  0  0  0  0  0  0  0  0
   60.2210   34.9540   46.9490 C   0  0  0  0  0  0  0  0  0  0  0  0
   59.2960   34.4340   47.9720 N   0  0  0  0  0  0  0  0  0  0  0  0
   58.3050   33.4860   47.4360 C   0  0  0  0  0  0  0  0  0  0  0  0
   58.5920   33.1000   45.9740 C   0  0  0  0  0  0  0  0  0  0  0  0
   58.4200   31.6190   45.7700 C   0  0  0  0  0  0  0  0  0  0  0  0
   58.8910   30.5630   46.5640 C   0  0  0  0  0  0  0  0  0  0  0  0
   59.6690   30.6660   47.8200 C   0  0  0  0  0  0  0  0  0  0  0  0
   59.0000   30.8560   49.0420 C   0  0  0  0  0  0  0  0  0  0  0  0
   59.7220   30.9780   50.2340 C   0  0  0  0  0  0  0  0  0  0  0  0
   61.1170   30.9220   50.2160 C   0  0  0  0  0  0  0  0  0  0  0  0
   61.7930   30.7520   49.0050 C   0  0  0  0  0  0  0  0  0  0  0  0
   61.0740   30.6320   47.8120 C   0  0  0  0  0  0  0  0  0  0  0  0
   58.5810   29.3730   45.9940 N   0  0  0  0  0  0  0  0  0  0  0  0
   57.9050   29.6540   44.8630 C   0  0  0  0  0  0  0  0  0  0  0  0
   57.3900   28.7480   43.9210 C   0  0  0  0  0  0  0  0  0  0  0  0
   57.4980   27.3260   44.1240 N   0  0  0  0  0  0  0  0  0  0  0  0
   57.8570   26.5950   45.6560 S   0  0  0  0  0  0  0  0  0  0  0  0
   57.5170   24.8490   45.6000 C   0  0  0  0  0  0  0  0  0  0  0  0
   59.3180   26.7850   45.9550 O   0  0  0  0  0  0  0  0  0  0  0  0
   57.0510   27.2520   46.7410 O   0  0  0  0  0  0  0  0  0  0  0  0
   56.7410   29.2940   42.7880 C   0  0  0  0  0  0  0  0  0  0  0  0
   56.6400   30.6910   42.6190 C   0  0  0  0  0  0  0  0  0  0  0  0
   57.1720   31.5660   43.5770 C   0  0  0  0  0  0  0  0  0  0  0  0
   57.7950   31.0130   44.6930 C   0  0  0  0  0  0  0  0  0  0  0  0
   63.5490   33.2010   47.5500 C   0  0  0  0  0  0  0  0  0  0  0  0
   64.4420   33.0210   48.6100 C   0  0  0  0  0  0  0  0  0  0  0  0
   66.7380   32.3839   51.7442 H   0  0  0  0  0  0  0  0  0  0  0  0
   66.1693   31.6637   50.2000 H   0  0  0  0  0  0  0  0  0  0  0  0
   66.9701   33.2716   50.2000 H   0  0  0  0  0  0  0  0  0  0  0  0
   62.5841   34.3921   51.1322 H   0  0  0  0  0  0  0  0  0  0  0  0
   60.9867   34.7064   49.2432 H   0  0  0  0  0  0  0  0  0  0  0  0
   61.8500   34.2401   45.7293 H   0  0  0  0  0  0  0  0  0  0  0  0
   60.8353   32.9475   46.4951 H   0  0  0  0  0  0  0  0  0  0  0  0
   60.6879   35.8782   47.3203 H   0  0  0  0  0  0  0  0  0  0  0  0
   59.6537   35.1570   46.0287 H   0  0  0  0  0  0  0  0  0  0  0  0
   58.7980   35.2310   48.4360 H   0  0  0  0  0  0  0  0  0  0  0  0
   58.3197   32.5743   48.0513 H   0  0  0  0  0  0  0  0  0  0  0  0
   57.3212   33.9772   47.4659 H   0  0  0  0  0  0  0  0  0  0  0  0
   57.8949   33.6384   45.3151 H   0  0  0  0  0  0  0  0  0  0  0  0
   59.6308   33.3711   45.7346 H   0  0  0  0  0  0  0  0  0  0  0  0
   57.9014   30.9091   49.0609 H   0  0  0  0  0  0  0  0  0  0  0  0
   59.1901   31.1182   51.1866 H   0  0  0  0  0  0  0  0  0  0  0  0
   61.6835   31.0117   51.1546 H   0  0  0  0  0  0  0  0  0  0  0  0
   62.8922   30.7125   48.9903 H   0  0  0  0  0  0  0  0  0  0  0  0
   61.6118   30.5101   46.8602 H   0  0  0  0  0  0  0  0  0  0  0  0
   58.8270   28.4290   46.3680 H   0  0  0  0  0  0  0  0  0  0  0  0
   57.2760   26.6750   43.3410 H   0  0  0  0  0  0  0  0  0  0  0  0
   57.4407   24.4572   46.6250 H   0  0  0  0  0  0  0  0  0  0  0  0
   56.5685   24.6770   45.0702 H   0  0  0  0  0  0  0  0  0  0  0  0
   58.3317   24.3336   45.0702 H   0  0  0  0  0  0  0  0  0  0  0  0
   56.3107   28.6219   42.0310 H   0  0  0  0  0  0  0  0  0  0  0  0
   56.1395   31.0975   41.7278 H   0  0  0  0  0  0  0  0  0  0  0  0
   57.0994   32.6563   43.4508 H   0  0  0  0  0  0  0  0  0  0  0  0
   63.8254   32.8665   46.5392 H   0  0  0  0  0  0  0  0  0  0  0  0
   65.4166   32.5449   48.4271 H   0  0  0  0  0  0  0  0  0  0  0  0
  1  2  1  0
  2  3  1  0
  3  4  2  0
  4  5  1  0
  5  6  2  0
  6  7  1  0
  7  8  1  0
  8  9  1  0
  9 10  1  0
 10 11  1  0
 11 12  1  0
 12 13  2  0
 13 14  1  0
 14 15  2  0
 15 16  1  0
 16 17  2  0
 17 18  1  0
 18 19  2  0
 13 20  1  0
 20 21  1  0
 21 22  2  0
 22 23  1  0
 23 24  1  0
 24 25  1  0
 24 26  2  0
 24 27  2  0
 22 28  1  0
 28 29  2  0
 29 30  1  0
 30 31  2  0
  6 32  1  0
 32 33  2  0
 33  3  1  0
 31 12  1  0
 19 14  1  0
 31 21  1  0
  1 34  1  0
  1 35  1  0
  1 36  1  0
  4 37  1  0
  5 38  1  0
  7 39  1  0
  7 40  1  0
  8 41  1  0
  8 42  1  0
  9 43  1  0
 10 44  1  0
 10 45  1  0
 11 46  1  0
 11 47  1  0
 15 48  1  0
 16 49  1  0
 17 50  1  0
 18 51  1  0
 19 52  1  0
 20 53  1  0
 23 54  1  0
 25 55  1  0
 25 56  1  0
 25 57  1  0
 28 58  1  0
 29 59  1  0
 30 60  1  0
 32 61  1  0
 33 62  1  0
M  END
>  <UniqueID>  (5) 
5

>  <SMILES>  (5) 
COc1ccc(CCNCCc2c(-c3ccccc3)[nH]c3c(NS(C)(=O)=O)cccc23)cc1

>  <Energy>  (5) 
96.14880546118307

>  <Genealogy>  (5) 
COc1ccc(CCNCCc2c(-c3ccccc3)[nH]c3c(NS(C)(=O)=O)cccc23)cc1 (3D coordinates assigned)
COc1ccc(CCNCCc2c(-c3ccccc3)[nH]c3c(NS(C)(=O)=O)cccc23)cc1 (optimized conformer: 96.14880546118307 kcal/mol)

>  <smiles>  (5) 
COc1ccc(CCNCCc2c(-c3ccccc3)[nH]c3c(NS(C)(=O)=O)cccc23)cc1

>  <score_type>  (5) 
oracle

>  <origin>  (5) 
adg

>  <m_score__min__energy>  (5) 
-8.8100000000000005

>  <m_primary>  (5) 
energy

$$$$
5:0
     RDKit          3D

 42 42  0  0  0  0  0  0  0  0999 V2000
   63.3140   33.8470   46.4020 C   0  0  0  0  0  0  0  0  0  0  0  0
   63.3580   32.4980   47.1120 C   0  0  0  0  0  0  0  0  0  0  0  0
   63.1860   32.6650   48.5060 O   0  0  0  0  0  0  0  0  0  0  0  0
   64.3950   33.0460   49.1390 C   0  0  0  0  0  0  0  0  0  0  0  0
   64.1120   33.6630   50.5090 C   0  0  0  0  0  0  0  0  0  0  0  0
   62.7220   33.8770   50.6780 O   0  0  0  0  0  0  0  0  0  0  0  0
   62.2000   33.1060   51.7440 C   0  0  0  0  0  0  0  0  0  0  0  0
   61.2350   32.0400   51.2100 C   0  0  0  0  0  0  0  0  0  0  0  0
   61.1910   32.0630   49.7400 N   0  0  0  0  0  0  0  0  0  0  0  0
   59.8180   32.3140   49.2680 C   0  0  0  0  0  0  0  0  0  0  0  0
   59.6010   33.7840   48.8420 C   0  0  1  0  0  0  0  0  0  0  0  0
   60.7300   34.5630   49.1460 O   0  0  0  0  0  0  0  0  0  0  0  0
   59.2620   33.8900   47.3700 C   0  0  0  0  0  0  0  0  0  0  0  0
   59.6440   35.0110   46.6100 C   0  0  0  0  0  0  0  0  0  0  0  0
   59.3510   35.0730   45.2440 C   0  0  0  0  0  0  0  0  0  0  0  0
   58.6830   34.0150   44.6210 C   0  0  0  0  0  0  0  0  0  0  0  0
   58.3110   32.8900   45.3630 C   0  0  0  0  0  0  0  0  0  0  0  0
   57.4100   31.4400   44.5080 Br  0  0  0  0  0  0  0  0  0  0  0  0
   58.6020   32.8250   46.7300 C   0  0  0  0  0  0  0  0  0  0  0  0
   63.2877   34.6539   47.1491 H   0  0  0  0  0  0  0  0  0  0  0  0
   64.2090   33.9593   45.7724 H   0  0  0  0  0  0  0  0  0  0  0  0
   62.4136   33.9008   45.7724 H   0  0  0  0  0  0  0  0  0  0  0  0
   62.5530   31.8576   46.7223 H   0  0  0  0  0  0  0  0  0  0  0  0
   64.3370   32.0315   46.9281 H   0  0  0  0  0  0  0  0  0  0  0  0
   65.0320   32.1583   49.2666 H   0  0  0  0  0  0  0  0  0  0  0  0
   64.9047   33.7921   48.5117 H   0  0  0  0  0  0  0  0  0  0  0  0
   64.4717   32.9819   51.2943 H   0  0  0  0  0  0  0  0  0  0  0  0
   64.6323   34.6297   50.5787 H   0  0  0  0  0  0  0  0  0  0  0  0
   63.0281   32.6125   52.2739 H   0  0  0  0  0  0  0  0  0  0  0  0
   61.6542   33.7697   52.4307 H   0  0  0  0  0  0  0  0  0  0  0  0
   61.5725   31.0481   51.5450 H   0  0  0  0  0  0  0  0  0  0  0  0
   60.2270   32.2526   51.5958 H   0  0  0  0  0  0  0  0  0  0  0  0
   61.5170   31.1370   49.3800 H   0  0  0  0  0  0  0  0  0  0  0  0
   61.8270   32.8190   49.3920 H   0  0  0  0  0  0  0  0  0  0  0  0
   59.6165   31.6626   48.4048 H   0  0  0  0  0  0  0  0  0  0  0  0
   59.1326   32.1017   50.1017 H   0  0  0  0  0  0  0  0  0  0  0  0
   58.7447   34.1723   49.4130 H   0  0  0  0  0  0  0  0  0  0  0  0
   61.5260   34.0480   48.8510 H   0  0  0  0  0  0  0  0  0  0  0  0
   60.1763   35.8435   47.0933 H   0  0  0  0  0  0  0  0  0  0  0  0
   59.6468   35.9561   44.6587 H   0  0  0  0  0  0  0  0  0  0  0  0
   58.4501   34.0675   43.5472 H   0  0  0  0  0  0  0  0  0  0  0  0
   58.3128   31.9351   47.3083 H   0  0  0  0  0  0  0  0  0  0  0  0
  1  2  1  0
  2  3  1  0
  3  4  1  0
  4  5  1  0
  5  6  1  0
  6  7  1  0
  7  8  1  0
  8  9  1  0
  9 10  1  0
 10 11  1  0
 11 12  1  0
 11 13  1  0
 13 14  2  0
 14 15  1  0
 15 16  2  0
 16 17  1  0
 17 18  1  0
 17 19  2  0
 19 13  1  0
  1 20  1  0
  1 21  1  0
  1 22  1  0
  2 23  1  0
  2 24  1  0
  4 25  1  0
  4 26  1  0
  5 27  1  0
  5 28  1  0
  7 29  1  0
  7 30  1  0
  8 31  1  0
  8 32  1  0
  9 33  1  0
  9 34  1  0
 10 35  1  0
 10 36  1  0
 11 37  1  1
 12 38  1  0
 14 39  1  0
 15 40  1  0
 16 41  1  0
 19 42  1  0
M  CHG  1   9   1
M  END
>  <UniqueID>  (6) 
6

>  <SMILES>  (6) 
CCOCCOCC[NH2+]C[C@@H](O)c1cccc(Br)c1

>  <Energy>  (6) 
38.40439378932369

>  <Genealogy>  (6) 
CCOCCOCC[NH2+]CC(O)c1cccc(Br)c1 (protonated)
CCOCCOCC[NH2+]C[C@@H](O)c1cccc(Br)c1 (chirality)
CCOCCOCC[NH2+]C[C@@H](O)c1cccc(Br)c1 (3D coordinates assigned)
CCOCCOCC[NH2+]C[C@@H](O)c1cccc(Br)c1 (optimized conformer: 38.40439378932369 kcal/mol)

>  <smiles>  (6) 
CCOCCOCCNCC(O)c1cccc(Br)c1

>  <score_type>  (6) 
oracle

>  <origin>  (6) 
adg

>  <m_score__min__energy>  (6) 
-5.0099999999999998

>  <m_primary>  (6) 
energy

$$$$
6:0
     RDKit          3D

 17 17  0  0  0  0  0  0  0  0999 V2000
   55.2728   30.5756   43.9673 H   0  0  0  0  0  0  0  0  0  0  0  0
   56.1210   29.9820   44.3390 C   0  0  0  0  0  0  0  0  0  0  0  0
   55.8970   28.8920   45.1190 N   0  0  0  0  0  0  0  0  0  0  0  0
   56.9190   28.1250   45.6010 C   0  0  0  0  0  0  0  0  0  0  0  0
   56.6910   27.0830   46.3480 N   0  0  0  0  0  0  0  0  0  0  0  0
   55.9320   25.9150   45.9920 C   0  0  0  0  0  0  0  0  0  0  0  0
   54.6790   25.9630   45.8580 O   0  0  0  0  0  0  0  0  0  0  0  0
   56.6490   24.6340   45.7270 C   0  0  0  0  0  0  0  0  0  0  0  0
   57.5832   24.6107   46.3073 H   0  0  0  0  0  0  0  0  0  0  0  0
   56.0096   23.7896   46.0239 H   0  0  0  0  0  0  0  0  0  0  0  0
   57.0260   24.5080   43.9930 Cl  0  0  0  0  0  0  0  0  0  0  0  0
   58.2410   28.4660   45.2880 C   0  0  0  0  0  0  0  0  0  0  0  0
   59.0751   27.8587   45.6693 H   0  0  0  0  0  0  0  0  0  0  0  0
   58.4920   29.5830   44.4880 C   0  0  0  0  0  0  0  0  0  0  0  0
   59.5266   29.8587   44.2358 H   0  0  0  0  0  0  0  0  0  0  0  0
   57.4280   30.3490   44.0090 C   0  0  0  0  0  0  0  0  0  0  0  0
   57.7540   31.8790   42.9130 Br  0  0  0  0  0  0  0  0  0  0  0  0
  1  2  1  0
  2  3  1  0
  3  4  1  0
  4  5  2  0
  5  6  1  0
  6  7  2  0
  6  8  1  0
  8  9  1  0
  8 10  1  0
  8 11  1  0
  4 12  1  0
 12 13  1  0
 12 14  2  0
 14 15  1  0
 14 16  1  0
 16 17  1  0
 16  2  2  0
M  CHG  1   3  -1
M  END
>  <UniqueID>  (7) 
7

>  <SMILES>  (7) 
O=C(CCl)/N=c1/ccc(Br)c[n-]1

>  <Energy>  (7) 
16.614396909327077

>  <Genealogy>  (7) 
O=C(CCl)N=c1ccc(Br)c[n-]1 (protonated)
O=C(CCl)/N=c1/ccc(Br)c[n-]1 (cis-trans isomerization)
O=C(CCl)/N=c1/ccc(Br)c[n-]1 (3D coordinates assigned)
O=C(CCl)/N=c1/ccc(Br)c[n-]1 (optimized conformer: 16.614396909327077 kcal/mol)

>  <smiles>  (7) 
O=C(CCl)N=c1ccc(Br)c[nH]1

>  <score_type>  (7) 
oracle

>  <origin>  (7) 
adg

>  <m_score__min__energy>  (7) 
-7.4500000000000002

>  <m_primary>  (7) 
energy

$$$$
7:0
     RDKit          3D

 34 35  0  0  0  0  0  0  0  0999 V2000
   57.4320   34.2590   44.8710 C   0  0  0  0  0  0  0  0  0  0  0  0
   58.9160   34.6190   44.9290 C   0  0  0  0  0  0  0  0  0  0  0  0
   59.6940   33.7720   45.9550 C   0  0  0  0  0  0  0  0  0  0  0  0
   58.8090   32.7850   46.7300 C   0  0  0  0  0  0  0  0  0  0  0  0
   58.9040   31.4330   46.1860 N   0  0  0  0  0  0  0  0  0  0  0  0
   59.8680   30.5080   46.4320 C   0  0  0  0  0  0  0  0  0  0  0  0
   59.6390   29.3370   45.7840 N   0  0  0  0  0  0  0  0  0  0  0  0
   58.4940   29.5480   45.1080 C   0  0  0  0  0  0  0  0  0  0  0  0
   57.7400   28.6910   44.3040 C   0  0  0  0  0  0  0  0  0  0  0  0
   58.1550   27.3490   43.9930 N   0  0  0  0  0  0  0  0  0  0  0  0
   58.5440   26.4540   45.0840 C   0  0  0  0  0  0  0  0  0  0  0  0
   58.1440   26.8440   42.6190 C   0  0  0  0  0  0  0  0  0  0  0  0
   56.5530   29.1730   43.8230 N   0  0  0  0  0  0  0  0  0  0  0  0
   56.1250   30.4470   44.0970 C   0  0  0  0  0  0  0  0  0  0  0  0
   56.8770   31.2780   44.8770 N   0  0  0  0  0  0  0  0  0  0  0  0
   58.0510   30.8050   45.3610 C   0  0  0  0  0  0  0  0  0  0  0  0
   57.0377   34.1633   45.8934 H   0  0  0  0  0  0  0  0  0  0  0  0
   56.8833   35.0501   44.3389 H   0  0  0  0  0  0  0  0  0  0  0  0
   57.3068   33.3044   44.3389 H   0  0  0  0  0  0  0  0  0  0  0  0
   59.3562   34.4582   43.9338 H   0  0  0  0  0  0  0  0  0  0  0  0
   58.9907   35.6709   45.2418 H   0  0  0  0  0  0  0  0  0  0  0  0
   60.4673   33.2008   45.4204 H   0  0  0  0  0  0  0  0  0  0  0  0
   60.1238   34.4681   46.6904 H   0  0  0  0  0  0  0  0  0  0  0  0
   59.1293   32.7693   47.7822 H   0  0  0  0  0  0  0  0  0  0  0  0
   57.7644   33.1180   46.6411 H   0  0  0  0  0  0  0  0  0  0  0  0
   60.7364   30.6875   47.0829 H   0  0  0  0  0  0  0  0  0  0  0  0
   60.2130   28.4670   45.8400 H   0  0  0  0  0  0  0  0  0  0  0  0
   58.3333   26.9387   46.0487 H   0  0  0  0  0  0  0  0  0  0  0  0
   57.9718   25.5173   45.0116 H   0  0  0  0  0  0  0  0  0  0  0  0
   59.6192   26.2334   45.0116 H   0  0  0  0  0  0  0  0  0  0  0  0
   58.1201   25.7443   42.6327 H   0  0  0  0  0  0  0  0  0  0  0  0
   57.2539   27.2236   42.0959 H   0  0  0  0  0  0  0  0  0  0  0  0
   59.0498   27.1845   42.0959 H   0  0  0  0  0  0  0  0  0  0  0  0
   55.1687   30.8020   43.6853 H   0  0  0  0  0  0  0  0  0  0  0  0
  1  2  1  0
  2  3  1  0
  3  4  1  0
  4  5  1  0
  5  6  1  0
  6  7  2  0
  7  8  1  0
  8  9  2  0
  9 10  1  0
 10 11  1  0
 10 12  1  0
  9 13  1  0
 13 14  2  0
 14 15  1  0
 15 16  2  0
 16  5  1  0
 16  8  1  0
  1 17  1  0
  1 18  1  0
  1 19  1  0
  2 20  1  0
  2 21  1  0
  3 22  1  0
  3 23  1  0
  4 24  1  0
  4 25  1  0
  6 26  1  0
  7 27  1  0
 11 28  1  0
 11 29  1  0
 11 30  1  0
 12 31  1  0
 12 32  1  0
 12 33  1  0
 14 34  1  0
M  CHG  1   7   1
M  END
>  <UniqueID>  (8) 
8

>  <SMILES>  (8) 
CCCCn1c[nH+]c2c(N(C)C)ncnc21

>  <Energy>  (8) 
72.24967140217109

>  <Genealogy>  (8) 
CCCCn1c[nH+]c2c(N(C)C)ncnc21 (protonated)
CCCCn1c[nH+]c2c(N(C)C)ncnc21 (3D coordinates assigned)
CCCCn1c[nH+]c2c(N(C)C)ncnc21 (optimized conformer: 72.24967140217109 kcal/mol)

>  <smiles>  (8) 
CCCCn1cnc2c(N(C)C)ncnc21

>  <score_type>  (8) 
oracle

>  <origin>  (8) 
adg

>  <m_score__min__energy>  (8) 
-3.52

>  <m_primary>  (8) 
energy

$$$$
8:0
     RDKit          3D

 53 55  0  0  0  0  0  0  0  0999 V2000
   57.1150   25.2350   46.7570 C   0  0  0  0  0  0  0  0  0  0  0  0
   58.2430   24.7160   45.8710 C   0  0  0  0  0  0  0  0  0  0  0  0
   59.2130   25.7370   45.6350 O   0  0  0  0  0  0  0  0  0  0  0  0
   58.9310   27.0920   45.3920 C   0  0  0  0  0  0  0  0  0  0  0  0
   59.4540   28.1350   46.1810 C   0  0  0  0  0  0  0  0  0  0  0  0
   59.1390   29.4650   45.8890 C   0  0  0  0  0  0  0  0  0  0  0  0
   58.3140   29.7780   44.7990 C   0  0  0  0  0  0  0  0  0  0  0  0
   57.8970   31.4660   44.4630 S   0  0  0  0  0  0  0  0  0  0  0  0
   58.0070   31.7130   42.9820 O   0  0  0  0  0  0  0  0  0  0  0  0
   56.4570   31.6620   44.8480 O   0  0  0  0  0  0  0  0  0  0  0  0
   58.8710   32.6420   45.3330 N   0  0  1  0  0  0  0  0  0  0  0  0
   59.0300   33.9020   44.5750 C   0  0  0  0  0  0  0  0  0  0  0  0
   59.5780   35.0630   45.4330 C   0  0  0  0  0  0  0  0  0  0  0  0
   60.2940   34.6100   46.6380 N   0  0  0  0  0  0  0  0  0  0  0  0
   61.6600   34.1120   46.3640 C   0  0  0  0  0  0  0  0  0  0  0  0
   62.2040   33.4170   47.5840 C   0  0  0  0  0  0  0  0  0  0  0  0
   62.8490   34.1510   48.5940 C   0  0  0  0  0  0  0  0  0  0  0  0
   63.3620   33.5020   49.7210 C   0  0  0  0  0  0  0  0  0  0  0  0
   63.2400   32.1160   49.8470 C   0  0  0  0  0  0  0  0  0  0  0  0
   62.6070   31.3760   48.8450 C   0  0  0  0  0  0  0  0  0  0  0  0
   62.0900   32.0200   47.7150 C   0  0  0  0  0  0  0  0  0  0  0  0
   61.4780   31.2850   46.7520 F   0  0  0  0  0  0  0  0  0  0  0  0
   59.4870   33.7170   47.5050 C   0  0  0  0  0  0  0  0  0  0  0  0
   58.4390   32.8570   46.7360 C   0  0  1  0  0  0  0  0  0  0  0  0
   57.0220   33.4560   46.8560 C   0  0  0  0  0  0  0  0  0  0  0  0
   57.7660   28.7370   44.0350 C   0  0  0  0  0  0  0  0  0  0  0  0
   58.0810   27.4070   44.3250 C   0  0  0  0  0  0  0  0  0  0  0  0
   57.3911   25.1080   47.8142 H   0  0  0  0  0  0  0  0  0  0  0  0
   56.9456   26.3016   46.5479 H   0  0  0  0  0  0  0  0  0  0  0  0
   56.1948   24.6697   46.5479 H   0  0  0  0  0  0  0  0  0  0  0  0
   58.7297   23.8643   46.3687 H   0  0  0  0  0  0  0  0  0  0  0  0
   57.8179   24.4036   44.9058 H   0  0  0  0  0  0  0  0  0  0  0  0
   60.1130   27.9019   47.0304 H   0  0  0  0  0  0  0  0  0  0  0  0
   59.5412   30.2722   46.5188 H   0  0  0  0  0  0  0  0  0  0  0  0
   59.8100   32.1870   45.3790 H   0  0  0  0  0  0  0  0  0  0  0  0
   59.7264   33.7236   43.7424 H   0  0  0  0  0  0  0  0  0  0  0  0
   58.0315   34.1994   44.2220 H   0  0  0  0  0  0  0  0  0  0  0  0
   60.2709   35.6553   44.8172 H   0  0  0  0  0  0  0  0  0  0  0  0
   58.7141   35.6544   45.7706 H   0  0  0  0  0  0  0  0  0  0  0  0
   61.6284   33.4031   45.5235 H   0  0  0  0  0  0  0  0  0  0  0  0
   62.3115   34.9608   46.1088 H   0  0  0  0  0  0  0  0  0  0  0  0
   62.9508   35.2420   48.4973 H   0  0  0  0  0  0  0  0  0  0  0  0
   63.8623   34.0834   50.5095 H   0  0  0  0  0  0  0  0  0  0  0  0
   63.6424   31.6071   50.7353 H   0  0  0  0  0  0  0  0  0  0  0  0
   62.5147   30.2844   48.9445 H   0  0  0  0  0  0  0  0  0  0  0  0
   60.1720   33.0365   48.0320 H   0  0  0  0  0  0  0  0  0  0  0  0
   58.9219   34.3668   48.1895 H   0  0  0  0  0  0  0  0  0  0  0  0
   58.3824   31.8632   47.2041 H   0  0  0  0  0  0  0  0  0  0  0  0
   56.7596   33.5669   47.9185 H   0  0  0  0  0  0  0  0  0  0  0  0
   56.9979   34.4413   46.3675 H   0  0  0  0  0  0  0  0  0  0  0  0
   56.2984   32.7868   46.3675 H   0  0  0  0  0  0  0  0  0  0  0  0
   57.0847   28.9690   43.2032 H   0  0  0  0  0  0  0  0  0  0  0  0
   57.6573   26.5999   43.7093 H   0  0  0  0  0  0  0  0  0  0  0  0
  1  2  1  0
  2  3  1  0
  3  4  1  0
  4  5  2  0
  5  6  1  0
  6  7  2  0
  7  8  1  0
  8  9  2  0
  8 10  2  0
  8 11  1  0
 11 12  1  0
 12 13  1  0
 13 14  1  0
 14 15  1  0
 15 16  1  0
 16 17  2  0
 17 18  1  0
 18 19  2  0
 19 20  1  0
 20 21  2  0
 21 22  1  0
 14 23  1  0
 23 24  1  0
 24 25  1  0
  7 26  1  0
 26 27  2  0
 27  4  1  0
 24 11  1  0
 21 16  1  0
  1 28  1  0
  1 29  1  0
  1 30  1  0
  2 31  1  0
  2 32  1  0
  5 33  1  0
  6 34  1  0
 11 35  1  1
 12 36  1  0
 12 37  1  0
 13 38  1  0
 13 39  1  0
 15 40  1  0
 15 41  1  0
 17 42  1  0
 18 43  1  0
 19 44  1  0
 20 45  1  0
 23 46  1  0
 23 47  1  0
 24 48  1  1
 25 49  1  0
 25 50  1  0
 25 51  1  0
 26 52  1  0
 27 53  1  0
M  CHG  1  11   1
M  END
>  <UniqueID>  (9) 
9

>  <SMILES>  (9) 
CCOc1ccc(S(=O)(=O)[N@H+]2CCN(Cc3ccccc3F)C[C@H]2C)cc1

>  <Energy>  (9) 
70.38203170188231

>  <Genealogy>  (9) 
CCOc1ccc(S(=O)(=O)[NH+]2CCN(Cc3ccccc3F)CC2C)cc1 (protonated)
CCOc1ccc(S(=O)(=O)[N@H+]2CCN(Cc3ccccc3F)C[C@H]2C)cc1 (chirality)
CCOc1ccc(S(=O)(=O)[N@H+]2CCN(Cc3ccccc3F)C[C@H]2C)cc1 (3D coordinates assigned)
CCOc1ccc(S(=O)(=O)[N@H+]2CCN(Cc3ccccc3F)C[C@H]2C)cc1 (nonaromatic ring conformer: 70.38203170188231 kcal/mol)

>  <smiles>  (9) 
CCOc1ccc(S(=O)(=O)N2CCN(Cc3ccccc3F)CC2C)cc1

>  <score_type>  (9) 
oracle

>  <origin>  (9) 
adg

>  <m_score__min__energy>  (9) 
-6.4800000000000004

>  <m_primary>  (9) 
energy

$$$$
9:0
     RDKit          3D

 53 56  0  0  0  0  0  0  0  0999 V2000
   57.9070   33.0930   47.5390 C   0  0  0  0  0  0  0  0  0  0  0  0
   58.8320   33.1620   48.6170 O   0  0  0  0  0  0  0  0  0  0  0  0
   60.2240   33.2820   48.4660 C   0  0  0  0  0  0  0  0  0  0  0  0
   60.8320   33.3940   47.2010 C   0  0  0  0  0  0  0  0  0  0  0  0
   62.2230   33.4870   47.0930 C   0  0  0  0  0  0  0  0  0  0  0  0
   63.0170   33.4680   48.2410 C   0  0  0  0  0  0  0  0  0  0  0  0
   62.4240   33.3610   49.5000 C   0  0  0  0  0  0  0  0  0  0  0  0
   61.0300   33.2770   49.6200 C   0  0  0  0  0  0  0  0  0  0  0  0
   60.4340   33.1610   50.9190 N   0  0  0  0  0  0  0  0  0  0  0  0
   60.6720   31.9550   51.7130 C   0  0  0  0  0  0  0  0  0  0  0  0
   60.0260   32.0640   53.1060 C   0  0  0  0  0  0  0  0  0  0  0  0
   58.6160   32.5510   53.0840 N   0  0  0  0  0  0  0  0  0  0  0  0
   57.6070   31.4640   53.1800 C   0  0  0  0  0  0  0  0  0  0  0  0
   57.6620   30.4180   52.0490 C   0  0  0  0  0  0  0  0  0  0  0  0
   56.3490   30.1380   51.5740 O   0  0  0  0  0  0  0  0  0  0  0  0
   55.3070   29.6540   52.3740 C   0  0  0  0  0  0  0  0  0  0  0  0
   55.4700   28.6040   53.3100 C   0  0  0  0  0  0  0  0  0  0  0  0
   54.3790   28.1680   54.0950 C   0  0  0  0  0  0  0  0  0  0  0  0
   53.1150   28.7690   53.9590 C   0  0  0  0  0  0  0  0  0  0  0  0
   52.9820   29.7990   53.0320 C   0  0  0  0  0  0  0  0  0  0  0  0
   51.9060   30.4930   52.7550 O   0  0  0  0  0  0  0  0  0  0  0  0
   52.2310   31.3720   51.8230 C   0  0  0  0  0  0  0  0  0  0  0  0
   51.2900   32.3370   51.2490 C   0  0  0  0  0  0  0  0  0  0  0  0
   50.7010   33.1630   51.9950 O   0  0  0  0  0  0  0  0  0  0  0  0
   51.0410   32.3490   49.8830 O   0  0  0  0  0  0  0  0  0  0  0  0
   53.5740   31.2480   51.4750 C   0  0  0  0  0  0  0  0  0  0  0  0
   54.0380   30.2230   52.2680 C   0  0  0  0  0  0  0  0  0  0  0  0
   58.2890   33.5280   52.0050 C   0  0  0  0  0  0  0  0  0  0  0  0
   59.5330   34.1980   51.4180 C   0  0  0  0  0  0  0  0  0  0  0  0
   56.8846   33.0167   47.9375 H   0  0  0  0  0  0  0  0  0  0  0  0
   57.9937   34.0001   46.9228 H   0  0  0  0  0  0  0  0  0  0  0  0
   58.1273   32.2088   46.9228 H   0  0  0  0  0  0  0  0  0  0  0  0
   60.2101   33.4084   46.2938 H   0  0  0  0  0  0  0  0  0  0  0  0
   62.6923   33.5753   46.1020 H   0  0  0  0  0  0  0  0  0  0  0  0
   64.1113   33.5374   48.1533 H   0  0  0  0  0  0  0  0  0  0  0  0
   63.0534   33.3425   50.4020 H   0  0  0  0  0  0  0  0  0  0  0  0
   60.2437   31.0894   51.1865 H   0  0  0  0  0  0  0  0  0  0  0  0
   61.7576   31.8344   51.8430 H   0  0  0  0  0  0  0  0  0  0  0  0
   60.0409   31.0682   53.5732 H   0  0  0  0  0  0  0  0  0  0  0  0
   60.6102   32.8054   53.6709 H   0  0  0  0  0  0  0  0  0  0  0  0
   58.5050   33.0860   53.9800 H   0  0  0  0  0  0  0  0  0  0  0  0
   57.7597   30.9409   54.1355 H   0  0  0  0  0  0  0  0  0  0  0  0
   56.6240   31.9509   53.0990 H   0  0  0  0  0  0  0  0  0  0  0  0
   58.2720   30.8093   51.2215 H   0  0  0  0  0  0  0  0  0  0  0  0
   58.1081   29.4911   52.4387 H   0  0  0  0  0  0  0  0  0  0  0  0
   56.4530   28.1243   53.4268 H   0  0  0  0  0  0  0  0  0  0  0  0
   54.5196   27.3515   54.8186 H   0  0  0  0  0  0  0  0  0  0  0  0
   52.2595   28.4362   54.5651 H   0  0  0  0  0  0  0  0  0  0  0  0
   54.1362   31.8358   50.7345 H   0  0  0  0  0  0  0  0  0  0  0  0
   57.7611   32.9980   51.1985 H   0  0  0  0  0  0  0  0  0  0  0  0
   57.6651   34.3174   52.4496 H   0  0  0  0  0  0  0  0  0  0  0  0
   59.2402   34.8625   50.5918 H   0  0  0  0  0  0  0  0  0  0  0  0
   60.0391   34.7921   52.1932 H   0  0  0  0  0  0  0  0  0  0  0  0
  1  2  1  0
  2  3  1  0
  3  4  2  0
  4  5  1  0
  5  6  2  0
  6  7  1  0
  7  8  2  0
  8  9  1  0
  9 10  1  0
 10 11  1  0
 11 12  1  0
 12 13  1  0
 13 14  1  0
 14 15  1  0
 15 16  1  0
 16 17  2  0
 17 18  1  0
 18 19  2  0
 19 20  1  0
 20 21  1  0
 21 22  1  0
 22 23  1  0
 23 24  2  0
 23 25  1  0
 22 26  2  0
 26 27  1  0
 12 28  1  0
 28 29  1  0
  8  3  1  0
 29  9  1  0
 27 16  1  0
 27 20  2  0
  1 30  1  0
  1 31  1  0
  1 32  1  0
  4 33  1  0
  5 34  1  0
  6 35  1  0
  7 36  1  0
 10 37  1  0
 10 38  1  0
 11 39  1  0
 11 40  1  0
 12 41  1  0
 13 42  1  0
 13 43  1  0
 14 44  1  0
 14 45  1  0
 17 46  1  0
 18 47  1  0
 19 48  1  0
 26 49  1  0
 28 50  1  0
 28 51  1  0
 29 52  1  0
 29 53  1  0
M  CHG  2  12   1  25  -1
M  END
>  <UniqueID>  (10) 
10

>  <SMILES>  (10) 
COc1ccccc1N1CC[NH+](CCOc2cccc3oc(C(=O)[O-])cc23)CC1

>  <Energy>  (10) 
102.08065775165876

>  <Genealogy>  (10) 
COc1ccccc1N1CC[NH+](CCOc2cccc3oc(C(=O)[O-])cc23)CC1 (protonated)
COc1ccccc1N1CC[NH+](CCOc2cccc3oc(C(=O)[O-])cc23)CC1 (3D coordinates assigned)
COc1ccccc1N1CC[NH+](CCOc2cccc3oc(C(=O)[O-])cc23)CC1 (nonaromatic ring conformer: 102.08065775165876 kcal/mol)

>  <smiles>  (10) 
COc1ccccc1N1CCN(CCOc2cccc3oc(C(=O)O)cc23)CC1

>  <score_type>  (10) 
oracle

>  <origin>  (10) 
adg

>  <m_score__min__energy>  (10) 
-10.949999999999999

>  <m_primary>  (10) 
energy

$$$$
10:0
     RDKit          3D

 51 53  0  0  0  0  0  0  0  0999 V2000
   59.6600   35.3370   46.6130 C   0  0  0  0  0  0  0  0  0  0  0  0
   59.8940   33.9780   45.9380 C   0  0  0  0  0  0  0  0  0  0  0  0
   59.1100   32.8540   46.5110 N   0  0  0  0  0  0  0  0  0  0  0  0
   57.6750   33.0860   46.7750 C   0  0  0  0  0  0  0  0  0  0  0  0
   57.0240   33.8300   45.6120 C   0  0  0  0  0  0  0  0  0  0  0  0
   59.8150   32.0360   47.5230 C   0  0  0  0  0  0  0  0  0  0  0  0
   58.9070   31.0850   48.3230 C   0  0  0  0  0  0  0  0  0  0  0  0
   58.5510   29.8920   47.5560 N   0  0  0  0  0  0  0  0  0  0  0  0
   59.4850   28.8300   47.3070 C   0  0  0  0  0  0  0  0  0  0  0  0
   60.6650   28.9160   47.7450 O   0  0  0  0  0  0  0  0  0  0  0  0
   59.0790   27.6340   46.5300 C   0  0  0  0  0  0  0  0  0  0  0  0
   59.4660   26.3600   46.9700 C   0  0  0  0  0  0  0  0  0  0  0  0
   59.0230   25.2480   46.3340 N   0  0  0  0  0  0  0  0  0  0  0  0
   58.2020   25.3350   45.2570 C   0  0  0  0  0  0  0  0  0  0  0  0
   57.7260   24.1180   44.5850 C   0  0  0  0  0  0  0  0  0  0  0  0
   56.6770   24.0410   43.6750 C   0  0  0  0  0  0  0  0  0  0  0  0
   56.4540   22.7430   43.2000 C   0  0  0  0  0  0  0  0  0  0  0  0
   57.3210   21.7960   43.7310 C   0  0  0  0  0  0  0  0  0  0  0  0
   58.3660   22.5760   44.7930 S   0  0  0  0  0  0  0  0  0  0  0  0
   57.8250   26.5560   44.7980 N   0  0  0  0  0  0  0  0  0  0  0  0
   58.2430   27.7070   45.3890 C   0  0  0  0  0  0  0  0  0  0  0  0
   57.8310   28.9890   44.7760 C   0  0  0  0  0  0  0  0  0  0  0  0
   58.7870   29.9410   44.3800 C   0  0  0  0  0  0  0  0  0  0  0  0
   58.3840   31.1350   43.7740 C   0  0  0  0  0  0  0  0  0  0  0  0
   57.0290   31.3810   43.5440 C   0  0  0  0  0  0  0  0  0  0  0  0
   56.0720   30.4310   43.9130 C   0  0  0  0  0  0  0  0  0  0  0  0
   56.4720   29.2360   44.5200 C   0  0  0  0  0  0  0  0  0  0  0  0
   59.6815   35.2122   47.7057 H   0  0  0  0  0  0  0  0  0  0  0  0
   60.4506   36.0386   46.3085 H   0  0  0  0  0  0  0  0  0  0  0  0
   58.6803   35.7338   46.3085 H   0  0  0  0  0  0  0  0  0  0  0  0
   59.6279   34.0737   44.8750 H   0  0  0  0  0  0  0  0  0  0  0  0
   60.9535   33.7304   46.1000 H   0  0  0  0  0  0  0  0  0  0  0  0
   57.1719   32.1172   46.9104 H   0  0  0  0  0  0  0  0  0  0  0  0
   57.5778   33.6978   47.6840 H   0  0  0  0  0  0  0  0  0  0  0  0
   56.3473   34.6034   46.0043 H   0  0  0  0  0  0  0  0  0  0  0  0
   57.8037   34.3028   44.9968 H   0  0  0  0  0  0  0  0  0  0  0  0
   56.4519   33.1200   44.9968 H   0  0  0  0  0  0  0  0  0  0  0  0
   60.5751   31.4313   47.0066 H   0  0  0  0  0  0  0  0  0  0  0  0
   60.2454   32.7411   48.2494 H   0  0  0  0  0  0  0  0  0  0  0  0
   59.4350   30.7750   49.2368 H   0  0  0  0  0  0  0  0  0  0  0  0
   57.9785   31.6239   48.5629 H   0  0  0  0  0  0  0  0  0  0  0  0
   57.5480   29.7580   47.2960 H   0  0  0  0  0  0  0  0  0  0  0  0
   60.1344   26.2623   47.8382 H   0  0  0  0  0  0  0  0  0  0  0  0
   56.0828   24.9116   43.3604 H   0  0  0  0  0  0  0  0  0  0  0  0
   55.6656   22.4959   42.4738 H   0  0  0  0  0  0  0  0  0  0  0  0
   57.3235   20.7212   43.4970 H   0  0  0  0  0  0  0  0  0  0  0  0
   59.8565   29.7457   44.5476 H   0  0  0  0  0  0  0  0  0  0  0  0
   59.1356   31.8816   43.4780 H   0  0  0  0  0  0  0  0  0  0  0  0
   56.7141   32.3233   43.0719 H   0  0  0  0  0  0  0  0  0  0  0  0
   55.0052   30.6232   43.7261 H   0  0  0  0  0  0  0  0  0  0  0  0
   55.7179   28.4852   44.7986 H   0  0  0  0  0  0  0  0  0  0  0  0
  1  2  1  0
  2  3  1  0
  3  4  1  0
  4  5  1  0
  3  6  1  0
  6  7  1  0
  7  8  1  0
  8  9  1  0
  9 10  2  0
  9 11  1  0
 11 12  2  0
 12 13  1  0
 13 14  2  0
 14 15  1  0
 15 16  2  0
 16 17  1  0
 17 18  2  0
 18 19  1  0
 14 20  1  0
 20 21  2  0
 21 22  1  0
 22 23  2  0
 23 24  1  0
 24 25  2  0
 25 26  1  0
 26 27  2  0
 21 11  1  0
 27 22  1  0
 19 15  1  0
  1 28  1  0
  1 29  1  0
  1 30  1  0
  2 31  1  0
  2 32  1  0
  4 33  1  0
  4 34  1  0
  5 35  1  0
  5 36  1  0
  5 37  1  0
  6 38  1  0
  6 39  1  0
  7 40  1  0
  7 41  1  0
  8 42  1  0
 12 43  1  0
 16 44  1  0
 17 45  1  0
 18 46  1  0
 23 47  1  0
 24 48  1  0
 25 49  1  0
 26 50  1  0
 27 51  1  0
M  END
>  <UniqueID>  (11) 
11

>  <SMILES>  (11) 
CCN(CC)CCNC(=O)c1cnc(-c2cccs2)nc1-c1ccccc1

>  <Energy>  (11) 
92.06311682212564

>  <Genealogy>  (11) 
CCN(CC)CCNC(=O)c1cnc(-c2cccs2)nc1-c1ccccc1 (3D coordinates assigned)
CCN(CC)CCNC(=O)c1cnc(-c2cccs2)nc1-c1ccccc1 (optimized conformer: 92.06311682212564 kcal/mol)

>  <smiles>  (11) 
CCN(CC)CCNC(=O)c1cnc(-c2cccs2)nc1-c1ccccc1

>  <score_type>  (11) 
oracle

>  <origin>  (11) 
adg

>  <m_score__min__energy>  (11) 
-7.2599999999999998

>  <m_primary>  (11) 
energy

$$$$
11:0
     RDKit          3D

 28 29  0  0  0  0  0  0  0  0999 V2000
   56.2930   29.6400   42.4570 C   0  0  0  0  0  0  0  0  0  0  0  0
   57.0010   30.5680   43.4050 C   0  0  0  0  0  0  0  0  0  0  0  0
   57.1220   30.2240   44.7610 C   0  0  0  0  0  0  0  0  0  0  0  0
   57.7770   31.0760   45.6530 C   0  0  0  0  0  0  0  0  0  0  0  0
   58.3250   32.2890   45.2050 C   0  0  0  0  0  0  0  0  0  0  0  0
   58.9970   33.1750   46.1210 N   0  0  0  0  0  0  0  0  0  0  0  0
   59.3950   32.7030   47.4510 C   0  0  0  0  0  0  0  0  0  0  0  0
   59.4330   33.8840   48.4260 C   0  0  0  0  0  0  0  0  0  0  0  0
   60.2300   34.9350   47.9130 O   0  0  0  0  0  0  0  0  0  0  0  0
   59.6360   35.4580   46.7400 C   0  0  0  0  0  0  0  0  0  0  0  0
   59.6160   34.4090   45.6250 C   0  0  0  0  0  0  0  0  0  0  0  0
   58.1980   32.6370   43.8520 C   0  0  0  0  0  0  0  0  0  0  0  0
   57.5440   31.7880   42.9520 C   0  0  0  0  0  0  0  0  0  0  0  0
   57.4080   32.3350   41.1190 Br  0  0  0  0  0  0  0  0  0  0  0  0
   55.7238   28.8939   43.0309 H   0  0  0  0  0  0  0  0  0  0  0  0
   55.6046   30.2184   41.8233 H   0  0  0  0  0  0  0  0  0  0  0  0
   57.0327   29.1288   41.8233 H   0  0  0  0  0  0  0  0  0  0  0  0
   56.6976   29.2761   45.1235 H   0  0  0  0  0  0  0  0  0  0  0  0
   57.8642   30.7952   46.7130 H   0  0  0  0  0  0  0  0  0  0  0  0
   58.6688   31.9575   47.8072 H   0  0  0  0  0  0  0  0  0  0  0  0
   60.3938   32.2458   47.3923 H   0  0  0  0  0  0  0  0  0  0  0  0
   58.4090   34.2529   48.5854 H   0  0  0  0  0  0  0  0  0  0  0  0
   59.8697   33.5424   49.3761 H   0  0  0  0  0  0  0  0  0  0  0  0
   58.6038   35.7648   46.9647 H   0  0  0  0  0  0  0  0  0  0  0  0
   60.2274   36.3212   46.4007 H   0  0  0  0  0  0  0  0  0  0  0  0
   59.0363   34.7922   44.7723 H   0  0  0  0  0  0  0  0  0  0  0  0
   60.6467   34.1972   45.3043 H   0  0  0  0  0  0  0  0  0  0  0  0
   58.6176   33.5888   43.4941 H   0  0  0  0  0  0  0  0  0  0  0  0
  1  2  1  0
  2  3  2  0
  3  4  1  0
  4  5  2  0
  5  6  1  0
  6  7  1  0
  7  8  1  0
  8  9  1  0
  9 10  1  0
 10 11  1  0
  5 12  1  0
 12 13  2  0
 13 14  1  0
 13  2  1  0
 11  6  1  0
  1 15  1  0
  1 16  1  0
  1 17  1  0
  3 18  1  0
  4 19  1  0
  7 20  1  0
  7 21  1  0
  8 22  1  0
  8 23  1  0
 10 24  1  0
 10 25  1  0
 11 26  1  0
 11 27  1  0
 12 28  1  0
M  END
>  <UniqueID>  (12) 
12

>  <SMILES>  (12) 
Cc1ccc(N2CCOCC2)cc1Br

>  <Energy>  (12) 
32.88231829817168

>  <Genealogy>  (12) 
Cc1ccc(N2CCOCC2)cc1Br (3D coordinates assigned)
Cc1ccc(N2CCOCC2)cc1Br (nonaromatic ring conformer: 32.88231829817168 kcal/mol)

>  <smiles>  (12) 
Cc1ccc(N2CCOCC2)cc1Br

>  <score_type>  (12) 
oracle

>  <origin>  (12) 
adg

>  <m_score__min__energy>  (12) 
-5.7300000000000004

>  <m_primary>  (12) 
energy

$$$$
12:0
     RDKit          3D

 52 54  0  0  0  0  0  0  0  0999 V2000
   59.9800   35.2360   45.9230 C   0  0  0  0  0  0  0  0  0  0  0  0
   59.0260   34.9060   44.9190 O   0  0  0  0  0  0  0  0  0  0  0  0
   58.4990   33.6210   44.7080 C   0  0  0  0  0  0  0  0  0  0  0  0
   58.3250   33.1010   43.4110 C   0  0  0  0  0  0  0  0  0  0  0  0
   57.8210   31.8150   43.2240 C   0  0  0  0  0  0  0  0  0  0  0  0
   57.4690   31.0280   44.3260 C   0  0  0  0  0  0  0  0  0  0  0  0
   56.8940   29.3750   44.0910 S   0  0  0  0  0  0  0  0  0  0  0  0
   56.5920   29.1570   42.6340 O   0  0  0  0  0  0  0  0  0  0  0  0
   55.6210   29.1770   44.8650 O   0  0  0  0  0  0  0  0  0  0  0  0
   58.0800   28.2020   44.6190 N   0  0  0  0  0  0  0  0  0  0  0  0
   57.7130   27.5970   45.9180 C   0  0  0  0  0  0  0  0  0  0  0  0
   58.5500   28.1700   47.0790 C   0  0  0  0  0  0  0  0  0  0  0  0
   59.9490   27.9830   46.9080 O   0  0  0  0  0  0  0  0  0  0  0  0
   60.3710   28.0140   45.5500 C   0  0  0  0  0  0  0  0  0  0  0  0
   59.4300   28.7980   44.6200 C   0  0  0  0  0  0  0  0  0  0  0  0
   57.6050   31.5490   45.6180 C   0  0  0  0  0  0  0  0  0  0  0  0
   58.1440   32.8350   45.8280 C   0  0  0  0  0  0  0  0  0  0  0  0
   58.3460   33.3580   47.1610 N   0  0  0  0  0  0  0  0  0  0  0  0
   58.7680   32.5540   48.3210 C   0  0  0  0  0  0  0  0  0  0  0  0
   59.6120   31.3490   47.8670 C   0  0  0  0  0  0  0  0  0  0  0  0
   60.9480   31.7810   47.2230 C   0  0  0  0  0  0  0  0  0  0  0  0
   61.3030   33.1830   47.5410 N   0  0  0  0  0  0  0  0  0  0  0  0
   62.6960   33.4540   47.1600 C   0  0  0  0  0  0  0  0  0  0  0  0
   61.0890   33.4680   48.9710 C   0  0  0  0  0  0  0  0  0  0  0  0
   59.5850   33.4140   49.3170 C   0  0  0  0  0  0  0  0  0  0  0  0
   59.5345   35.0819   46.9169 H   0  0  0  0  0  0  0  0  0  0  0  0
   60.8649   34.5917   45.8139 H   0  0  0  0  0  0  0  0  0  0  0  0
   60.2777   36.2893   45.8139 H   0  0  0  0  0  0  0  0  0  0  0  0
   58.5892   33.7152   42.5375 H   0  0  0  0  0  0  0  0  0  0  0  0
   57.6995   31.4171   42.2057 H   0  0  0  0  0  0  0  0  0  0  0  0
   56.6493   27.7965   46.1148 H   0  0  0  0  0  0  0  0  0  0  0  0
   57.9106   26.5166   45.8576 H   0  0  0  0  0  0  0  0  0  0  0  0
   58.3485   29.2487   47.1558 H   0  0  0  0  0  0  0  0  0  0  0  0
   58.2574   27.6284   47.9906 H   0  0  0  0  0  0  0  0  0  0  0  0
   61.3664   28.4802   45.5077 H   0  0  0  0  0  0  0  0  0  0  0  0
   60.3752   26.9731   45.1943 H   0  0  0  0  0  0  0  0  0  0  0  0
   59.3644   29.8395   44.9677 H   0  0  0  0  0  0  0  0  0  0  0  0
   59.8330   28.7611   43.5972 H   0  0  0  0  0  0  0  0  0  0  0  0
   57.2869   30.9467   46.4818 H   0  0  0  0  0  0  0  0  0  0  0  0
   58.2170   34.3870   47.3070 H   0  0  0  0  0  0  0  0  0  0  0  0
   57.8615   32.1883   48.8256 H   0  0  0  0  0  0  0  0  0  0  0  0
   59.8282   30.7183   48.7419 H   0  0  0  0  0  0  0  0  0  0  0  0
   59.0346   30.7989   47.1094 H   0  0  0  0  0  0  0  0  0  0  0  0
   61.7474   31.1220   47.5928 H   0  0  0  0  0  0  0  0  0  0  0  0
   60.8335   31.7043   46.1317 H   0  0  0  0  0  0  0  0  0  0  0  0
   63.3076   33.5730   48.0665 H   0  0  0  0  0  0  0  0  0  0  0  0
   63.0831   32.6143   46.5641 H   0  0  0  0  0  0  0  0  0  0  0  0
   62.7401   34.3776   46.5641 H   0  0  0  0  0  0  0  0  0  0  0  0
   61.6255   32.7198   49.5729 H   0  0  0  0  0  0  0  0  0  0  0  0
   61.4677   34.4768   49.1920 H   0  0  0  0  0  0  0  0  0  0  0  0
   59.4717   32.9871   50.3244 H   0  0  0  0  0  0  0  0  0  0  0  0
   59.1964   34.4416   49.2619 H   0  0  0  0  0  0  0  0  0  0  0  0
  1  2  1  0
  2  3  1  0
  3  4  2  0
  4  5  1  0
  5  6  2  0
  6  7  1  0
  7  8  2  0
  7  9  2  0
  7 10  1  0
 10 11  1  0
 11 12  1  0
 12 13  1  0
 13 14  1  0
 14 15  1  0
  6 16  1  0
 16 17  2  0
 17 18  1  0
 18 19  1  0
 19 20  1  0
 20 21  1  0
 21 22  1  0
 22 23  1  0
 22 24  1  0
 24 25  1  0
 17  3  1  0
 25 19  1  0
 15 10  1  0
  1 26  1  0
  1 27  1  0
  1 28  1  0
  4 29  1  0
  5 30  1  0
 11 31  1  0
 11 32  1  0
 12 33  1  0
 12 34  1  0
 14 35  1  0
 14 36  1  0
 15 37  1  0
 15 38  1  0
 16 39  1  0
 18 40  1  0
 19 41  1  0
 20 42  1  0
 20 43  1  0
 21 44  1  0
 21 45  1  0
 23 46  1  0
 23 47  1  0
 23 48  1  0
 24 49  1  0
 24 50  1  0
 25 51  1  0
 25 52  1  0
M  END
>  <UniqueID>  (13) 
13

>  <SMILES>  (13) 
COc1ccc(S(=O)(=O)N2CCOCC2)cc1NC1CCN(C)CC1

>  <Energy>  (13) 
68.07128186141503

>  <Genealogy>  (13) 
COc1ccc(S(=O)(=O)N2CCOCC2)cc1NC1CCN(C)CC1 (3D coordinates assigned)
COc1ccc(S(=O)(=O)N2CCOCC2)cc1NC1CCN(C)CC1 (nonaromatic ring conformer: 68.07128186141503 kcal/mol)

>  <smiles>  (13) 
COc1ccc(S(=O)(=O)N2CCOCC2)cc1NC1CCN(C)CC1

>  <score_type>  (13) 
oracle

>  <origin>  (13) 
adg

>  <m_score__min__energy>  (13) 
-7.7300000000000004

>  <m_primary>  (13) 
energy

$$$$
13:0
     RDKit          3D

 28 29  0  0  0  0  0  0  0  0999 V2000
   53.4980   24.6590   45.9090 O   0  0  0  0  0  0  0  0  0  0  0  0
   54.6670   25.0360   45.6220 C   0  0  0  0  0  0  0  0  0  0  0  0
   55.1250   26.3220   46.0550 N   0  0  0  0  0  0  0  0  0  0  0  0
   56.5120   26.7610   45.9540 C   0  0  0  0  0  0  0  0  0  0  0  0
   56.5920   28.0560   45.2120 C   0  0  0  0  0  0  0  0  0  0  0  0
   57.7090   28.5510   44.5700 C   0  0  0  0  0  0  0  0  0  0  0  0
   57.3280   29.7690   44.0530 C   0  0  0  0  0  0  0  0  0  0  0  0
   56.0060   29.9430   44.4120 C   0  0  0  0  0  0  0  0  0  0  0  0
   55.5960   28.9050   45.1040 O   0  0  0  0  0  0  0  0  0  0  0  0
   55.5610   24.1500   44.8370 C   0  0  0  0  0  0  0  0  0  0  0  0
   55.1600   23.6590   43.5830 C   0  0  0  0  0  0  0  0  0  0  0  0
   55.9990   22.8160   42.8530 C   0  0  0  0  0  0  0  0  0  0  0  0
   57.2500   22.4590   43.3570 C   0  0  0  0  0  0  0  0  0  0  0  0
   57.6860   22.9590   44.5960 C   0  0  0  0  0  0  0  0  0  0  0  0
   59.0170   22.5370   45.1650 C   0  0  0  0  0  0  0  0  0  0  0  0
   59.5820   23.5600   45.9070 F   0  0  0  0  0  0  0  0  0  0  0  0
   59.8710   22.2070   44.1300 F   0  0  0  0  0  0  0  0  0  0  0  0
   58.8650   21.4370   45.9930 F   0  0  0  0  0  0  0  0  0  0  0  0
   56.8250   23.7870   45.3400 C   0  0  0  0  0  0  0  0  0  0  0  0
   56.9248   26.8955   46.9647 H   0  0  0  0  0  0  0  0  0  0  0  0
   57.0902   25.9997   45.4097 H   0  0  0  0  0  0  0  0  0  0  0  0
   58.6963   28.0729   44.4885 H   0  0  0  0  0  0  0  0  0  0  0  0
   57.9514   30.4637   43.4710 H   0  0  0  0  0  0  0  0  0  0  0  0
   55.3901   30.8180   44.1571 H   0  0  0  0  0  0  0  0  0  0  0  0
   54.1785   23.9409   43.1741 H   0  0  0  0  0  0  0  0  0  0  0  0
   55.6725   22.4312   41.8756 H   0  0  0  0  0  0  0  0  0  0  0  0
   57.8987   21.7824   42.7814 H   0  0  0  0  0  0  0  0  0  0  0  0
   57.1434   24.1551   46.3265 H   0  0  0  0  0  0  0  0  0  0  0  0
  1  2  2  0
  2  3  1  0
  3  4  1  0
  4  5  1  0
  5  6  2  0
  6  7  1  0
  7  8  2  0
  8  9  1  0
  2 10  1  0
 10 11  2  0
 11 12  1  0
 12 13  2  0
 13 14  1  0
 14 15  1  0
 15 16  1  0
 15 17  1  0
 15 18  1  0
 14 19  2  0
  9  5  1  0
 19 10  1  0
  4 20  1  0
  4 21  1  0
  6 22  1  0
  7 23  1  0
  8 24  1  0
 11 25  1  0
 12 26  1  0
 13 27  1  0
 19 28  1  0
M  CHG  1   3  -1
M  END
>  <UniqueID>  (14) 
14

>  <SMILES>  (14) 
O=C([N-]Cc1ccco1)c1cccc(C(F)(F)F)c1

>  <Energy>  (14) 
52.632267530978936

>  <Genealogy>  (14) 
O=C([N-]Cc1ccco1)c1cccc(C(F)(F)F)c1 (protonated)
O=C([N-]Cc1ccco1)c1cccc(C(F)(F)F)c1 (3D coordinates assigned)
O=C([N-]Cc1ccco1)c1cccc(C(F)(F)F)c1 (optimized conformer: 52.632267530978936 kcal/mol)

>  <smiles>  (14) 
O=C(NCc1ccco1)c1cccc(C(F)(F)F)c1

>  <score_type>  (14) 
oracle

>  <origin>  (14) 
adg

>  <m_score__min__energy>  (14) 
-8.5899999999999999

>  <m_primary>  (14) 
energy

$$$$
14:0
     RDKit          3D

 50 52  0  0  0  0  0  0  0  0999 V2000
   54.5504   29.2615   43.8181 H   0  0  0  0  0  0  0  0  0  0  0  0
   55.5470   29.7260   43.7870 C   0  0  0  0  0  0  0  0  0  0  0  0
   56.1630   30.1020   42.6480 N   0  0  0  0  0  0  0  0  0  0  0  0
   57.3320   30.6160   43.0720 C   0  0  0  0  0  0  0  0  0  0  0  0
   58.1192   31.0323   42.4262 H   0  0  0  0  0  0  0  0  0  0  0  0
   57.3830   30.5360   44.4500 C   0  0  0  0  0  0  0  0  0  0  0  0
   58.4770   30.9540   45.3590 C   0  0  0  0  0  0  0  0  0  0  0  0
   59.5400   30.0590   45.5740 C   0  0  0  0  0  0  0  0  0  0  0  0
   59.5381   29.0810   45.0705 H   0  0  0  0  0  0  0  0  0  0  0  0
   60.5970   30.3980   46.4190 C   0  0  0  0  0  0  0  0  0  0  0  0
   61.4303   29.6946   46.5636 H   0  0  0  0  0  0  0  0  0  0  0  0
   60.6010   31.6310   47.0840 C   0  0  0  0  0  0  0  0  0  0  0  0
   61.6850   31.9970   47.9500 N   0  0  0  0  0  0  0  0  0  0  0  0
   61.5840   31.7320   48.9570 H   0  0  0  0  0  0  0  0  0  0  0  0
   62.7520   32.6520   47.5730 C   0  0  0  0  0  0  0  0  0  0  0  0
   64.0560   32.3880   48.1310 N   0  0  0  0  0  0  0  0  0  0  0  0
   64.8790   32.4970   47.4970 H   0  0  0  0  0  0  0  0  0  0  0  0
   64.3330   32.3150   49.5700 C   0  0  0  0  0  0  0  0  0  0  0  0
   64.2216   31.2728   49.9039 H   0  0  0  0  0  0  0  0  0  0  0  0
   65.3586   32.6722   49.7446 H   0  0  0  0  0  0  0  0  0  0  0  0
   63.3620   33.2080   50.3750 C   0  0  0  0  0  0  0  0  0  0  0  0
   63.6962   33.2221   51.4229 H   0  0  0  0  0  0  0  0  0  0  0  0
   63.3857   34.2017   49.9038 H   0  0  0  0  0  0  0  0  0  0  0  0
   61.9520   32.7600   50.3450 N   0  0  0  0  0  0  0  0  0  0  0  0
   61.6690   31.6590   51.2870 C   0  0  0  0  0  0  0  0  0  0  0  0
   62.2084   30.7574   50.9612 H   0  0  0  0  0  0  0  0  0  0  0  0
   62.0001   31.9596   52.2920 H   0  0  0  0  0  0  0  0  0  0  0  0
   60.1590   31.3560   51.3330 C   0  0  0  0  0  0  0  0  0  0  0  0
   60.0101   30.2667   51.3691 H   0  0  0  0  0  0  0  0  0  0  0  0
   59.7301   31.8294   52.2285 H   0  0  0  0  0  0  0  0  0  0  0  0
   59.5100   31.8760   50.1880 O   0  0  0  0  0  0  0  0  0  0  0  0
   59.5500   33.2940   50.2080 C   0  0  0  0  0  0  0  0  0  0  0  0
   59.2036   33.6697   49.2339 H   0  0  0  0  0  0  0  0  0  0  0  0
   58.9010   33.6335   51.0287 H   0  0  0  0  0  0  0  0  0  0  0  0
   60.9680   33.8460   50.4750 C   0  0  0  0  0  0  0  0  0  0  0  0
   61.1966   34.6367   49.7452 H   0  0  0  0  0  0  0  0  0  0  0  0
   61.0133   34.2606   51.4928 H   0  0  0  0  0  0  0  0  0  0  0  0
   62.6080   33.7960   46.6140 C   0  0  0  0  0  0  0  0  0  0  0  0
   62.4900   34.7337   47.1769 H   0  0  0  0  0  0  0  0  0  0  0  0
   63.5053   33.8589   45.9809 H   0  0  0  0  0  0  0  0  0  0  0  0
   61.7231   33.6345   45.9809 H   0  0  0  0  0  0  0  0  0  0  0  0
   59.5580   32.5370   46.8630 C   0  0  0  0  0  0  0  0  0  0  0  0
   59.5827   33.5230   47.3500 H   0  0  0  0  0  0  0  0  0  0  0  0
   58.4760   32.2020   46.0240 C   0  0  0  0  0  0  0  0  0  0  0  0
   57.3850   33.0710   45.8600 O   0  0  0  0  0  0  0  0  0  0  0  0
   57.3440   34.1630   44.9470 C   0  0  0  0  0  0  0  0  0  0  0  0
   57.3085   35.1087   45.5078 H   0  0  0  0  0  0  0  0  0  0  0  0
   58.2434   34.1456   44.3140 H   0  0  0  0  0  0  0  0  0  0  0  0
   56.4484   34.0783   44.3140 H   0  0  0  0  0  0  0  0  0  0  0  0
   56.2690   29.9760   44.8550 O   0  0  0  0  0  0  0  0  0  0  0  0
  1  2  1  0
  2  3  2  0
  3  4  1  0
  4  5  1  0
  4  6  2  0
  6  7  1  0
  7  8  2  0
  8  9  1  0
  8 10  1  0
 10 11  1  0
 10 12  2  0
 12 13  1  0
 13 14  1  0
 13 15  2  0
 15 16  1  0
 16 17  1  0
 16 18  1  0
 18 19  1  0
 18 20  1  0
 18 21  1  0
 21 22  1  0
 21 23  1  0
 21 24  1  0
 24 25  1  0
 25 26  1  0
 25 27  1  0
 25 28  1  0
 28 29  1  0
 28 30  1  0
 28 31  1  0
 31 32  1  0
 32 33  1  0
 32 34  1  0
 32 35  1  0
 35 36  1  0
 35 37  1  0
 15 38  1  0
 38 39  1  0
 38 40  1  0
 38 41  1  0
 12 42  1  0
 42 43  1  0
 42 44  2  0
 44 45  1  0
 45 46  1  0
 46 47  1  0
 46 48  1  0
 46 49  1  0
  6 50  1  0
 50  2  1  0
 44  7  1  0
 35 24  1  0
M  CHG  1  13   1
M  END
>  <UniqueID>  (15) 
15

>  <SMILES>  (15) 
COc1cc(/[NH+]=C(/C)NCCN2CCOCC2)ccc1-c1cnco1

>  <Energy>  (15) 
100.41043066337416

>  <Genealogy>  (15) 
COc1cc([NH+]=C(C)NCCN2CCOCC2)ccc1-c1cnco1 (protonated)
COc1cc(/[NH+]=C(/C)NCCN2CCOCC2)ccc1-c1cnco1 (cis-trans isomerization)
COc1cc(/[NH+]=C(/C)NCCN2CCOCC2)ccc1-c1cnco1 (3D coordinates assigned)
COc1cc(/[NH+]=C(/C)NCCN2CCOCC2)ccc1-c1cnco1 (nonaromatic ring conformer: 100.41043066337416 kcal/mol)

>  <smiles>  (15) 
COc1cc(N=C(C)NCCN2CCOCC2)ccc1-c1cnco1

>  <score_type>  (15) 
oracle

>  <origin>  (15) 
adg

>  <m_score__min__energy>  (15) 
-5.9000000000000004

>  <m_primary>  (15) 
energy

$$$$
15:0
     RDKit          3D

 57 60  0  0  0  0  0  0  0  0999 V2000
   57.0480   25.7950   45.3730 C   0  0  0  0  0  0  0  0  0  0  0  0
   56.7070   26.9530   46.1270 O   0  0  0  0  0  0  0  0  0  0  0  0
   57.4930   28.1160   46.1950 C   0  0  0  0  0  0  0  0  0  0  0  0
   58.7190   28.1480   46.9040 C   0  0  0  0  0  0  0  0  0  0  0  0
   59.4410   29.3360   46.9070 C   0  0  0  0  0  0  0  0  0  0  0  0
   60.6030   29.5930   47.5250 N   0  0  0  0  0  0  0  0  0  0  0  0
   60.8650   30.8860   47.2180 C   0  0  0  0  0  0  0  0  0  0  0  0
   62.0410   31.6060   47.7320 C   0  0  0  0  0  0  0  0  0  0  0  0
   62.6120   32.6310   46.9670 C   0  0  0  0  0  0  0  0  0  0  0  0
   63.7350   33.3170   47.4340 C   0  0  0  0  0  0  0  0  0  0  0  0
   64.2910   32.9840   48.6690 C   0  0  0  0  0  0  0  0  0  0  0  0
   63.7220   31.9680   49.4460 C   0  0  0  0  0  0  0  0  0  0  0  0
   62.5870   31.2710   48.9850 C   0  0  0  0  0  0  0  0  0  0  0  0
   61.9770   30.2570   49.7430 O   0  0  0  0  0  0  0  0  0  0  0  0
   61.5390   30.4030   51.0890 C   0  0  0  0  0  0  0  0  0  0  0  0
   59.9060   31.4450   46.4310 N   0  0  0  0  0  0  0  0  0  0  0  0
   59.8110   32.8430   45.9940 C   0  0  0  0  0  0  0  0  0  0  0  0
   58.4730   33.4610   46.4200 C   0  0  0  0  0  0  0  0  0  0  0  0
   58.5060   33.8670   47.8420 N   0  0  0  0  0  0  0  0  0  0  0  0
   58.6370   32.6910   48.7290 C   0  0  0  0  0  0  0  0  0  0  0  0
   59.2070   33.0960   50.0970 C   0  0  0  0  0  0  0  0  0  0  0  0
   60.5120   33.6580   50.0250 O   0  0  0  0  0  0  0  0  0  0  0  0
   60.7820   34.3180   48.7940 C   0  0  0  0  0  0  0  0  0  0  0  0
   59.5320   34.9050   48.1130 C   0  0  0  0  0  0  0  0  0  0  0  0
   59.0080   30.4530   46.2530 C   0  0  0  0  0  0  0  0  0  0  0  0
   57.8010   30.4700   45.5540 C   0  0  0  0  0  0  0  0  0  0  0  0
   57.0290   29.2820   45.5290 C   0  0  0  0  0  0  0  0  0  0  0  0
   55.7950   29.2130   44.8600 O   0  0  0  0  0  0  0  0  0  0  0  0
   55.5550   29.7380   43.5570 C   0  0  0  0  0  0  0  0  0  0  0  0
   57.2910   24.9697   46.0584 H   0  0  0  0  0  0  0  0  0  0  0  0
   56.1967   25.5065   44.7390 H   0  0  0  0  0  0  0  0  0  0  0  0
   57.9198   26.0139   44.7390 H   0  0  0  0  0  0  0  0  0  0  0  0
   59.0887   27.2592   47.4364 H   0  0  0  0  0  0  0  0  0  0  0  0
   61.1710   28.9450   48.1170 H   0  0  0  0  0  0  0  0  0  0  0  0
   62.1737   32.8968   45.9937 H   0  0  0  0  0  0  0  0  0  0  0  0
   64.1809   34.1196   46.8282 H   0  0  0  0  0  0  0  0  0  0  0  0
   65.1790   33.5212   49.0335 H   0  0  0  0  0  0  0  0  0  0  0  0
   64.1628   31.7124   50.4209 H   0  0  0  0  0  0  0  0  0  0  0  0
   62.3568   30.1304   51.7723 H   0  0  0  0  0  0  0  0  0  0  0  0
   61.2448   31.4478   51.2676 H   0  0  0  0  0  0  0  0  0  0  0  0
   60.6768   29.7437   51.2676 H   0  0  0  0  0  0  0  0  0  0  0  0
   60.6330   33.4179   46.4454 H   0  0  0  0  0  0  0  0  0  0  0  0
   59.8780   32.8730   44.8964 H   0  0  0  0  0  0  0  0  0  0  0  0
   58.2709   34.3454   45.7979 H   0  0  0  0  0  0  0  0  0  0  0  0
   57.6815   32.7085   46.2884 H   0  0  0  0  0  0  0  0  0  0  0  0
   57.6458   32.2360   48.8724 H   0  0  0  0  0  0  0  0  0  0  0  0
   59.3257   31.9727   48.2603 H   0  0  0  0  0  0  0  0  0  0  0  0
   58.5328   33.8384   50.5490 H   0  0  0  0  0  0  0  0  0  0  0  0
   59.2828   32.1790   50.6999 H   0  0  0  0  0  0  0  0  0  0  0  0
   61.4879   35.1389   48.9888 H   0  0  0  0  0  0  0  0  0  0  0  0
   61.1925   33.5611   48.1095 H   0  0  0  0  0  0  0  0  0  0  0  0
   59.0963   35.6715   48.7708 H   0  0  0  0  0  0  0  0  0  0  0  0
   59.8414   35.3360   47.1494 H   0  0  0  0  0  0  0  0  0  0  0  0
   57.4586   31.3788   45.0374 H   0  0  0  0  0  0  0  0  0  0  0  0
   55.0990   30.7354   43.6418 H   0  0  0  0  0  0  0  0  0  0  0  0
   56.5072   29.8153   43.0117 H   0  0  0  0  0  0  0  0  0  0  0  0
   54.8735   29.0685   43.0117 H   0  0  0  0  0  0  0  0  0  0  0  0
  1  2  1  0
  2  3  1  0
  3  4  2  0
  4  5  1  0
  5  6  1  0
  6  7  2  0
  7  8  1  0
  8  9  2  0
  9 10  1  0
 10 11  2  0
 11 12  1  0
 12 13  2  0
 13 14  1  0
 14 15  1  0
  7 16  1  0
 16 17  1  0
 17 18  1  0
 18 19  1  0
 19 20  1  0
 20 21  1  0
 21 22  1  0
 22 23  1  0
 23 24  1  0
 16 25  1  0
 25 26  1  0
 26 27  2  0
 27 28  1  0
 28 29  1  0
 27  3  1  0
 25  5  2  0
 13  8  1  0
 24 19  1  0
  1 30  1  0
  1 31  1  0
  1 32  1  0
  4 33  1  0
  6 34  1  0
  9 35  1  0
 10 36  1  0
 11 37  1  0
 12 38  1  0
 15 39  1  0
 15 40  1  0
 15 41  1  0
 17 42  1  0
 17 43  1  0
 18 44  1  0
 18 45  1  0
 20 46  1  0
 20 47  1  0
 21 48  1  0
 21 49  1  0
 23 50  1  0
 23 51  1  0
 24 52  1  0
 24 53  1  0
 26 54  1  0
 29 55  1  0
 29 56  1  0
 29 57  1  0
M  CHG  1   6   1
M  END
>  <UniqueID>  (16) 
16

>  <SMILES>  (16) 
COc1cc2[nH+]c(-c3ccccc3OC)n(CCN3CCOCC3)c2cc1OC

>  <Energy>  (16) 
113.00443973124919

>  <Genealogy>  (16) 
COc1cc2[nH+]c(-c3ccccc3OC)n(CCN3CCOCC3)c2cc1OC (protonated)
COc1cc2[nH+]c(-c3ccccc3OC)n(CCN3CCOCC3)c2cc1OC (3D coordinates assigned)
COc1cc2[nH+]c(-c3ccccc3OC)n(CCN3CCOCC3)c2cc1OC (nonaromatic ring conformer: 113.00443973124919 kcal/mol)

>  <smiles>  (16) 
COc1cc2nc(-c3ccccc3OC)n(CCN3CCOCC3)c2cc1OC

>  <score_type>  (16) 
oracle

>  <origin>  (16) 
adg

>  <m_score__min__energy>  (16) 
-5.5199999999999996

>  <m_primary>  (16) 
energy

$$$$
16:0
     RDKit          3D

 58 62  0  0  0  0  0  0  0  0999 V2000
   59.2530   32.9220   50.5870 C   0  0  0  0  0  0  0  0  0  0  0  0
   58.0820   31.9710   50.2950 C   0  0  0  0  0  0  0  0  0  0  0  0
   58.2800   30.5820   50.7860 N   0  0  0  0  0  0  0  0  0  0  0  0
   57.3370   30.1580   51.8460 C   0  0  0  0  0  0  0  0  0  0  0  0
   56.2140   31.1740   52.0510 C   0  0  0  0  0  0  0  0  0  0  0  0
   59.6900   30.3060   51.1440 C   0  0  0  0  0  0  0  0  0  0  0  0
   60.1330   28.9860   50.5140 C   0  0  0  0  0  0  0  0  0  0  0  0
   61.0260   29.2340   49.3840 N   0  0  0  0  0  0  0  0  0  0  0  0
   61.0410   30.5060   48.7160 C   0  0  0  0  0  0  0  0  0  0  0  0
   60.0370   30.8180   47.8080 C   0  0  0  0  0  0  0  0  0  0  0  0
   60.0750   32.0020   47.0950 C   0  0  0  0  0  0  0  0  0  0  0  0
   61.0430   32.9510   47.2760 N   0  0  0  0  0  0  0  0  0  0  0  0
   60.9420   34.2430   46.5770 C   0  0  0  0  0  0  0  0  0  0  0  0
   62.0810   32.6690   48.1500 C   0  0  0  0  0  0  0  0  0  0  0  0
   63.1730   33.5550   48.3140 C   0  0  0  0  0  0  0  0  0  0  0  0
   64.1800   33.2890   49.2430 C   0  0  0  0  0  0  0  0  0  0  0  0
   64.1260   32.1440   50.0300 C   0  0  0  0  0  0  0  0  0  0  0  0
   63.0850   31.2320   49.8730 C   0  0  0  0  0  0  0  0  0  0  0  0
   62.0750   31.4530   48.9160 C   0  0  0  0  0  0  0  0  0  0  0  0
   58.9590   31.9460   46.1640 C   0  0  0  0  0  0  0  0  0  0  0  0
   58.7500   32.4650   44.8870 C   0  0  0  0  0  0  0  0  0  0  0  0
   57.8560   31.5710   44.3080 C   0  0  0  0  0  0  0  0  0  0  0  0
   57.3800   31.5000   43.0000 C   0  0  0  0  0  0  0  0  0  0  0  0
   56.6160   30.3760   42.6370 C   0  0  0  0  0  0  0  0  0  0  0  0
   56.3760   29.3390   43.5680 C   0  0  0  0  0  0  0  0  0  0  0  0
   56.8920   29.4200   44.8740 C   0  0  0  0  0  0  0  0  0  0  0  0
   57.6070   30.5660   45.2170 C   0  0  0  0  0  0  0  0  0  0  0  0
   58.2640   30.8220   46.3560 N   0  0  0  0  0  0  0  0  0  0  0  0
   58.8640   29.9700   47.3740 C   0  0  0  0  0  0  0  0  0  0  0  0
   59.3794   33.0247   51.6749 H   0  0  0  0  0  0  0  0  0  0  0  0
   60.1751   32.5139   50.1476 H   0  0  0  0  0  0  0  0  0  0  0  0
   59.0427   33.9083   50.1476 H   0  0  0  0  0  0  0  0  0  0  0  0
   57.1798   32.3795   50.7737 H   0  0  0  0  0  0  0  0  0  0  0  0
   57.9959   31.9070   49.2002 H   0  0  0  0  0  0  0  0  0  0  0  0
   56.8946   29.1916   51.5624 H   0  0  0  0  0  0  0  0  0  0  0  0
   57.8985   30.0764   52.7884 H   0  0  0  0  0  0  0  0  0  0  0  0
   56.0477   31.3244   53.1279 H   0  0  0  0  0  0  0  0  0  0  0  0
   56.4955   32.1305   51.5863 H   0  0  0  0  0  0  0  0  0  0  0  0
   55.2904   30.7984   51.5863 H   0  0  0  0  0  0  0  0  0  0  0  0
   60.3280   31.1211   50.7716 H   0  0  0  0  0  0  0  0  0  0  0  0
   59.7808   30.2359   52.2380 H   0  0  0  0  0  0  0  0  0  0  0  0
   60.6614   28.3841   51.2680 H   0  0  0  0  0  0  0  0  0  0  0  0
   59.2442   28.4469   50.1542 H   0  0  0  0  0  0  0  0  0  0  0  0
   61.8920   28.6520   49.3320 H   0  0  0  0  0  0  0  0  0  0  0  0
   60.8785   35.0556   47.3157 H   0  0  0  0  0  0  0  0  0  0  0  0
   61.8314   34.3893   45.9465 H   0  0  0  0  0  0  0  0  0  0  0  0
   60.0406   34.2493   45.9465 H   0  0  0  0  0  0  0  0  0  0  0  0
   63.2286   34.4662   47.7003 H   0  0  0  0  0  0  0  0  0  0  0  0
   65.0212   33.9892   49.3532 H   0  0  0  0  0  0  0  0  0  0  0  0
   64.9089   31.9576   50.7799 H   0  0  0  0  0  0  0  0  0  0  0  0
   63.0512   30.3305   50.5023 H   0  0  0  0  0  0  0  0  0  0  0  0
   59.1894   33.3698   44.4417 H   0  0  0  0  0  0  0  0  0  0  0  0
   57.5950   32.2980   42.2741 H   0  0  0  0  0  0  0  0  0  0  0  0
   56.2018   30.3031   41.6206 H   0  0  0  0  0  0  0  0  0  0  0  0
   55.7817   28.4630   43.2688 H   0  0  0  0  0  0  0  0  0  0  0  0
   56.7367   28.6075   45.5990 H   0  0  0  0  0  0  0  0  0  0  0  0
   58.1693   29.7856   48.2067 H   0  0  0  0  0  0  0  0  0  0  0  0
   59.1383   28.9655   47.0194 H   0  0  0  0  0  0  0  0  0  0  0  0
  1  2  1  0
  2  3  1  0
  3  4  1  0
  4  5  1  0
  3  6  1  0
  6  7  1  0
  7  8  1  0
  8  9  1  0
  9 10  2  0
 10 11  1  0
 11 12  2  0
 12 13  1  0
 12 14  1  0
 14 15  2  0
 15 16  1  0
 16 17  2  0
 17 18  1  0
 18 19  2  0
 11 20  1  0
 20 21  2  0
 21 22  1  0
 22 23  2  0
 23 24  1  0
 24 25  2  0
 25 26  1  0
 26 27  2  0
 27 28  1  0
 28 29  1  0
 19  9  1  0
 28 20  1  0
 29 10  1  0
 19 14  1  0
 27 22  1  0
  1 30  1  0
  1 31  1  0
  1 32  1  0
  2 33  1  0
  2 34  1  0
  4 35  1  0
  4 36  1  0
  5 37  1  0
  5 38  1  0
  5 39  1  0
  6 40  1  0
  6 41  1  0
  7 42  1  0
  7 43  1  0
  8 44  1  0
 13 45  1  0
 13 46  1  0
 13 47  1  0
 15 48  1  0
 16 49  1  0
 17 50  1  0
 18 51  1  0
 21 52  1  0
 23 53  1  0
 24 54  1  0
 25 55  1  0
 26 56  1  0
 29 57  1  0
 29 58  1  0
M  CHG  1  12   1
M  END
>  <UniqueID>  (17) 
17

>  <SMILES>  (17) 
CCN(CC)CCNc1c2c([n+](C)c3ccccc13)-c1cc3ccccc3n1C2

>  <Energy>  (17) 
152.7978840777701

>  <Genealogy>  (17) 
CCN(CC)CCNc1c2c([n+](C)c3ccccc13)-c1cc3ccccc3n1C2 (3D coordinates assigned)
CCN(CC)CCNc1c2c([n+](C)c3ccccc13)-c1cc3ccccc3n1C2 (nonaromatic ring conformer: 152.7978840777701 kcal/mol)

>  <smiles>  (17) 
CCN(CC)CCNc1c2c([n+](C)c3ccccc13)-c1cc3ccccc3n1C2

>  <score_type>  (17) 
oracle

>  <origin>  (17) 
adg

>  <m_score__min__energy>  (17) 
-6.5800000000000001

>  <m_primary>  (17) 
energy

$$$$
17:0
     RDKit          3D

 46 48  0  0  0  0  0  0  0  0999 V2000
   60.3020   34.1940   49.3260 C   0  0  0  0  0  0  0  0  0  0  0  0
   60.0680   34.9250   48.1270 O   0  0  0  0  0  0  0  0  0  0  0  0
   59.5710   34.3640   46.9410 C   0  0  0  0  0  0  0  0  0  0  0  0
   59.6940   35.0070   45.6940 C   0  0  0  0  0  0  0  0  0  0  0  0
   59.1820   34.4120   44.5370 C   0  0  0  0  0  0  0  0  0  0  0  0
   58.5390   33.1680   44.6080 C   0  0  0  0  0  0  0  0  0  0  0  0
   58.0240   32.5620   43.4530 C   0  0  0  0  0  0  0  0  0  0  0  0
   57.3760   31.3260   43.5370 C   0  0  0  0  0  0  0  0  0  0  0  0
   57.2230   30.6860   44.7760 C   0  0  0  0  0  0  0  0  0  0  0  0
   56.5260   29.3880   44.8530 C   0  0  0  0  0  0  0  0  0  0  0  0
   55.2680   29.3680   44.8790 O   0  0  0  0  0  0  0  0  0  0  0  0
   57.2410   28.1480   44.9200 N   0  0  0  0  0  0  0  0  0  0  0  0
   57.3140   27.3090   46.1130 C   0  0  0  0  0  0  0  0  0  0  0  0
   58.6500   26.5670   46.1420 C   0  0  0  0  0  0  0  0  0  0  0  0
   59.8340   27.4140   46.6800 C   0  0  0  0  0  0  0  0  0  0  0  0
   59.6240   28.8810   46.7700 N   0  0  0  0  0  0  0  0  0  0  0  0
   60.6210   29.7000   46.0660 C   0  0  0  0  0  0  0  0  0  0  0  0
   61.2710   30.6350   47.0830 C   0  0  0  0  0  0  0  0  0  0  0  0
   60.7500   30.1940   48.4370 C   0  0  0  0  0  0  0  0  0  0  0  0
   59.4830   29.4170   48.1280 C   0  0  0  0  0  0  0  0  0  0  0  0
   57.7670   31.2740   45.9300 C   0  0  0  0  0  0  0  0  0  0  0  0
   58.4120   32.5180   45.8570 C   0  0  0  0  0  0  0  0  0  0  0  0
   58.9310   33.1220   47.0120 C   0  0  0  0  0  0  0  0  0  0  0  0
   60.0960   34.8376   50.1939 H   0  0  0  0  0  0  0  0  0  0  0  0
   59.6400   33.3160   49.3552 H   0  0  0  0  0  0  0  0  0  0  0  0
   61.3508   33.8636   49.3552 H   0  0  0  0  0  0  0  0  0  0  0  0
   60.1961   35.9836   45.6299 H   0  0  0  0  0  0  0  0  0  0  0  0
   59.2840   34.9216   43.5675 H   0  0  0  0  0  0  0  0  0  0  0  0
   58.1302   33.0605   42.4782 H   0  0  0  0  0  0  0  0  0  0  0  0
   56.9834   30.8521   42.6253 H   0  0  0  0  0  0  0  0  0  0  0  0
   57.2272   27.9404   47.0096 H   0  0  0  0  0  0  0  0  0  0  0  0
   56.4924   26.5779   46.0942 H   0  0  0  0  0  0  0  0  0  0  0  0
   58.5391   25.6810   46.7844 H   0  0  0  0  0  0  0  0  0  0  0  0
   58.8921   26.3091   45.1004 H   0  0  0  0  0  0  0  0  0  0  0  0
   60.0711   27.0496   47.6904 H   0  0  0  0  0  0  0  0  0  0  0  0
   60.6385   27.2842   45.9411 H   0  0  0  0  0  0  0  0  0  0  0  0
   61.3856   29.0505   45.6149 H   0  0  0  0  0  0  0  0  0  0  0  0
   60.1396   30.2823   45.2665 H   0  0  0  0  0  0  0  0  0  0  0  0
   62.3664   30.5417   47.0445 H   0  0  0  0  0  0  0  0  0  0  0  0
   61.0295   31.6885   46.8784 H   0  0  0  0  0  0  0  0  0  0  0  0
   61.4846   29.5519   48.9450 H   0  0  0  0  0  0  0  0  0  0  0  0
   60.5630   31.0451   49.1083 H   0  0  0  0  0  0  0  0  0  0  0  0
   59.3607   28.5939   48.8474 H   0  0  0  0  0  0  0  0  0  0  0  0
   58.5984   30.0667   48.2018 H   0  0  0  0  0  0  0  0  0  0  0  0
   57.6868   30.7559   46.8970 H   0  0  0  0  0  0  0  0  0  0  0  0
   58.8338   32.6141   47.9829 H   0  0  0  0  0  0  0  0  0  0  0  0
  1  2  1  0
  2  3  1  0
  3  4  2  0
  4  5  1  0
  5  6  2  0
  6  7  1  0
  7  8  2  0
  8  9  1  0
  9 10  1  0
 10 11  2  0
 10 12  1  0
 12 13  1  0
 13 14  1  0
 14 15  1  0
 15 16  1  0
 16 17  1  0
 17 18  1  0
 18 19  1  0
 19 20  1  0
  9 21  2  0
 21 22  1  0
 22 23  2  0
 23  3  1  0
 22  6  1  0
 20 16  1  0
  1 24  1  0
  1 25  1  0
  1 26  1  0
  4 27  1  0
  5 28  1  0
  7 29  1  0
  8 30  1  0
 13 31  1  0
 13 32  1  0
 14 33  1  0
 14 34  1  0
 15 35  1  0
 15 36  1  0
 17 37  1  0
 17 38  1  0
 18 39  1  0
 18 40  1  0
 19 41  1  0
 19 42  1  0
 20 43  1  0
 20 44  1  0
 21 45  1  0
 23 46  1  0
M  CHG  1  12  -1
M  END
>  <UniqueID>  (18) 
18

>  <SMILES>  (18) 
COc1ccc2ccc(C(=O)[N-]CCCN3CCCC3)cc2c1

>  <Energy>  (18) 
57.79088841866691

>  <Genealogy>  (18) 
COc1ccc2ccc(C(=O)[N-]CCCN3CCCC3)cc2c1 (protonated)
COc1ccc2ccc(C(=O)[N-]CCCN3CCCC3)cc2c1 (3D coordinates assigned)
COc1ccc2ccc(C(=O)[N-]CCCN3CCCC3)cc2c1 (nonaromatic ring conformer: 57.79088841866691 kcal/mol)

>  <smiles>  (18) 
COc1ccc2ccc(C(=O)NCCCN3CCCC3)cc2c1

>  <score_type>  (18) 
oracle

>  <origin>  (18) 
adg

>  <m_score__min__energy>  (18) 
-9.0500000000000007

>  <m_primary>  (18) 
energy

$$$$
18:0
     RDKit          3D

 22 21  0  0  0  0  0  0  0  0999 V2000
   57.4010   28.3260   45.5830 C   0  0  0  0  0  0  0  0  0  0  0  0
   58.0050   29.6270   45.0690 C   0  0  0  0  0  0  0  0  0  0  0  0
   56.9290   30.6330   44.8740 N   0  0  0  0  0  0  0  0  0  0  0  0
   55.8160   30.0910   44.0590 C   0  0  0  0  0  0  0  0  0  0  0  0
   56.2890   29.7290   42.6510 C   0  0  0  0  0  0  0  0  0  0  0  0
   57.4430   31.8980   44.2940 C   0  0  0  0  0  0  0  0  0  0  0  0
   57.2650   33.0710   45.2680 C   0  0  0  0  0  0  0  0  0  0  0  0
   58.6290   34.2180   45.2030 Cl  0  0  0  0  0  0  0  0  0  0  0  0
   57.4030   28.3302   46.6830 H   0  0  0  0  0  0  0  0  0  0  0  0
   56.3674   28.2325   45.2185 H   0  0  0  0  0  0  0  0  0  0  0  0
   57.9966   27.4761   45.2185 H   0  0  0  0  0  0  0  0  0  0  0  0
   58.7331   30.0069   45.8008 H   0  0  0  0  0  0  0  0  0  0  0  0
   58.5100   29.4414   44.1095 H   0  0  0  0  0  0  0  0  0  0  0  0
   55.4194   29.1888   44.5476 H   0  0  0  0  0  0  0  0  0  0  0  0
   55.0356   30.8619   43.9775 H   0  0  0  0  0  0  0  0  0  0  0  0
   57.1609   29.0617   42.7174 H   0  0  0  0  0  0  0  0  0  0  0  0
   55.4773   29.2192   42.1113 H   0  0  0  0  0  0  0  0  0  0  0  0
   56.5691   30.6457   42.1113 H   0  0  0  0  0  0  0  0  0  0  0  0
   58.5129   31.7796   44.0674 H   0  0  0  0  0  0  0  0  0  0  0  0
   56.8733   32.1171   43.3789 H   0  0  0  0  0  0  0  0  0  0  0  0
   56.3395   33.6070   45.0107 H   0  0  0  0  0  0  0  0  0  0  0  0
   57.2205   32.6585   46.2868 H   0  0  0  0  0  0  0  0  0  0  0  0
  1  2  1  0
  2  3  1  0
  3  4  1  0
  4  5  1  0
  3  6  1  0
  6  7  1  0
  7  8  1  0
  1  9  1  0
  1 10  1  0
  1 11  1  0
  2 12  1  0
  2 13  1  0
  4 14  1  0
  4 15  1  0
  5 16  1  0
  5 17  1  0
  5 18  1  0
  6 19  1  0
  6 20  1  0
  7 21  1  0
  7 22  1  0
M  END
>  <UniqueID>  (19) 
19

>  <SMILES>  (19) 
CCN(CC)CCCl

>  <Energy>  (19) 
17.353015124100764

>  <Genealogy>  (19) 
CCN(CC)CCCl (3D coordinates assigned)
CCN(CC)CCCl (optimized conformer: 17.353015124100764 kcal/mol)

>  <smiles>  (19) 
CCN(CC)CCCl

>  <score_type>  (19) 
oracle

>  <origin>  (19) 
adg

>  <m_score__min__energy>  (19) 
-3.5600000000000001

>  <m_primary>  (19) 
energy

$$$$
19:0
     RDKit          3D

 57 59  0  0  0  0  0  0  0  0999 V2000
   59.8060   34.2360   49.0850 C   0  0  0  0  0  0  0  0  0  0  0  0
   61.3010   33.9710   48.9470 C   0  0  0  0  0  0  0  0  0  0  0  0
   61.6800   33.8630   47.5170 N   0  0  0  0  0  0  0  0  0  0  0  0
   63.1550   33.8620   47.3620 C   0  0  0  0  0  0  0  0  0  0  0  0
   63.6590   32.4430   47.1130 C   0  0  0  0  0  0  0  0  0  0  0  0
   61.0790   32.6520   46.9120 C   0  0  0  0  0  0  0  0  0  0  0  0
   59.7890   32.9820   46.1860 C   0  0  0  0  0  0  0  0  0  0  0  0
   59.6520   34.2400   45.5720 C   0  0  0  0  0  0  0  0  0  0  0  0
   58.4640   34.5910   44.9280 C   0  0  0  0  0  0  0  0  0  0  0  0
   57.3970   33.6930   44.8890 C   0  0  0  0  0  0  0  0  0  0  0  0
   57.5160   32.4380   45.4870 C   0  0  0  0  0  0  0  0  0  0  0  0
   58.7080   32.0680   46.1300 C   0  0  0  0  0  0  0  0  0  0  0  0
   58.7920   30.7290   46.7390 C   0  0  0  0  0  0  0  0  0  0  0  0
   59.3850   30.5620   47.9970 C   0  0  0  0  0  0  0  0  0  0  0  0
   59.4660   29.2920   48.5690 C   0  0  0  0  0  0  0  0  0  0  0  0
   58.9500   28.1830   47.8940 C   0  0  0  0  0  0  0  0  0  0  0  0
   58.3550   28.3340   46.6280 C   0  0  0  0  0  0  0  0  0  0  0  0
   57.7730   27.1640   45.9230 C   0  0  0  0  0  0  0  0  0  0  0  0
   58.3280   26.7120   44.7160 C   0  0  0  0  0  0  0  0  0  0  0  0
   57.7750   25.6200   44.0470 C   0  0  0  0  0  0  0  0  0  0  0  0
   56.6490   24.9580   44.5710 C   0  0  0  0  0  0  0  0  0  0  0  0
   56.0650   23.8570   43.9260 O   0  0  0  0  0  0  0  0  0  0  0  0
   56.7950   22.7670   43.3720 C   0  0  0  0  0  0  0  0  0  0  0  0
   56.0820   25.4040   45.7750 C   0  0  0  0  0  0  0  0  0  0  0  0
   54.9570   24.7270   46.2710 O   0  0  0  0  0  0  0  0  0  0  0  0
   54.9610   23.3770   46.7260 C   0  0  0  0  0  0  0  0  0  0  0  0
   56.6480   26.5050   46.4460 C   0  0  0  0  0  0  0  0  0  0  0  0
   58.2920   29.6150   46.0510 C   0  0  0  0  0  0  0  0  0  0  0  0
   59.5389   34.2833   50.1510 H   0  0  0  0  0  0  0  0  0  0  0  0
   59.5570   35.1923   48.6018 H   0  0  0  0  0  0  0  0  0  0  0  0
   59.2435   33.4236   48.6018 H   0  0  0  0  0  0  0  0  0  0  0  0
   61.8594   34.7991   49.4079 H   0  0  0  0  0  0  0  0  0  0  0  0
   61.5423   33.0237   49.4513 H   0  0  0  0  0  0  0  0  0  0  0  0
   63.4310   34.5002   46.5096 H   0  0  0  0  0  0  0  0  0  0  0  0
   63.6126   34.2482   48.2847 H   0  0  0  0  0  0  0  0  0  0  0  0
   63.8367   31.9427   48.0764 H   0  0  0  0  0  0  0  0  0  0  0  0
   62.9054   31.8812   46.5416 H   0  0  0  0  0  0  0  0  0  0  0  0
   64.5981   32.4824   46.5416 H   0  0  0  0  0  0  0  0  0  0  0  0
   61.7921   32.2173   46.1961 H   0  0  0  0  0  0  0  0  0  0  0  0
   60.8518   31.9375   47.7169 H   0  0  0  0  0  0  0  0  0  0  0  0
   60.4885   34.9538   45.5994 H   0  0  0  0  0  0  0  0  0  0  0  0
   58.3691   35.5774   44.4505 H   0  0  0  0  0  0  0  0  0  0  0  0
   56.4603   33.9749   44.3859 H   0  0  0  0  0  0  0  0  0  0  0  0
   56.6711   31.7344   45.4545 H   0  0  0  0  0  0  0  0  0  0  0  0
   59.7873   31.4333   48.5346 H   0  0  0  0  0  0  0  0  0  0  0  0
   59.9376   29.1635   49.5544 H   0  0  0  0  0  0  0  0  0  0  0  0
   59.0092   27.1860   48.3550 H   0  0  0  0  0  0  0  0  0  0  0  0
   59.2061   27.2228   44.2941 H   0  0  0  0  0  0  0  0  0  0  0  0
   58.2221   25.2739   43.1034 H   0  0  0  0  0  0  0  0  0  0  0  0
   57.2075   22.1511   44.1848 H   0  0  0  0  0  0  0  0  0  0  0  0
   56.1245   22.1542   42.7517 H   0  0  0  0  0  0  0  0  0  0  0  0
   57.6170   23.1537   42.7517 H   0  0  0  0  0  0  0  0  0  0  0  0
   54.9610   23.3608   47.8259 H   0  0  0  0  0  0  0  0  0  0  0  0
   54.0644   22.8613   46.3517 H   0  0  0  0  0  0  0  0  0  0  0  0
   55.8607   22.8666   46.3517 H   0  0  0  0  0  0  0  0  0  0  0  0
   56.2042   26.8530   47.3904 H   0  0  0  0  0  0  0  0  0  0  0  0
   57.8474   29.7435   45.0531 H   0  0  0  0  0  0  0  0  0  0  0  0
  1  2  1  0
  2  3  1  0
  3  4  1  0
  4  5  1  0
  3  6  1  0
  6  7  1  0
  7  8  2  0
  8  9  1  0
  9 10  2  0
 10 11  1  0
 11 12  2  0
 12 13  1  0
 13 14  2  0
 14 15  1  0
 15 16  2  0
 16 17  1  0
 17 18  1  0
 18 19  2  0
 19 20  1  0
 20 21  2  0
 21 22  1  0
 22 23  1  0
 21 24  1  0
 24 25  1  0
 25 26  1  0
 24 27  2  0
 17 28  2  0
 12  7  1  0
 28 13  1  0
 27 18  1  0
  1 29  1  0
  1 30  1  0
  1 31  1  0
  2 32  1  0
  2 33  1  0
  4 34  1  0
  4 35  1  0
  5 36  1  0
  5 37  1  0
  5 38  1  0
  6 39  1  0
  6 40  1  0
  8 41  1  0
  9 42  1  0
 10 43  1  0
 11 44  1  0
 14 45  1  0
 15 46  1  0
 16 47  1  0
 19 48  1  0
 20 49  1  0
 23 50  1  0
 23 51  1  0
 23 52  1  0
 26 53  1  0
 26 54  1  0
 26 55  1  0
 27 56  1  0
 28 57  1  0
M  END
>  <UniqueID>  (20) 
20

>  <SMILES>  (20) 
CCN(CC)Cc1ccccc1-c1cccc(-c2ccc(OC)c(OC)c2)c1

>  <Energy>  (20) 
65.76551356366178

>  <Genealogy>  (20) 
CCN(CC)Cc1ccccc1-c1cccc(-c2ccc(OC)c(OC)c2)c1 (3D coordinates assigned)
CCN(CC)Cc1ccccc1-c1cccc(-c2ccc(OC)c(OC)c2)c1 (optimized conformer: 65.76551356366178 kcal/mol)

>  <smiles>  (20) 
CCN(CC)Cc1ccccc1-c1cccc(-c2ccc(OC)c(OC)c2)c1

>  <score_type>  (20) 
oracle

>  <origin>  (20) 
adg

>  <m_score__min__energy>  (20) 
-8.2400000000000002

>  <m_primary>  (20) 
energy

$$$$
20:0
     RDKit          3D

 38 40  0  0  0  0  0  0  0  0999 V2000
   56.2730   29.7830   42.6250 C   0  0  0  0  0  0  0  0  0  0  0  0
   56.7010   29.9630   43.7380 C   0  0  0  0  0  0  0  0  0  0  0  0
   57.2220   30.1790   45.0930 C   0  0  0  0  0  0  0  0  0  0  0  0
   58.4080   31.0600   45.0510 N   0  0  0  0  0  0  0  0  0  0  0  0
   58.1510   32.3280   44.3530 C   0  0  0  0  0  0  0  0  0  0  0  0
   57.2350   33.2650   45.1580 C   0  0  0  0  0  0  0  0  0  0  0  0
   57.6680   33.4760   46.5630 N   0  0  0  0  0  0  0  0  0  0  0  0
   58.5260   34.6720   46.7690 C   0  0  0  0  0  0  0  0  0  0  0  0
   59.9190   34.3800   47.2490 C   0  0  0  0  0  0  0  0  0  0  0  0
   60.3210   34.3320   48.5850 C   0  0  0  0  0  0  0  0  0  0  0  0
   61.6530   33.9330   48.7260 C   0  0  0  0  0  0  0  0  0  0  0  0
   62.3520   33.8070   49.9300 C   0  0  0  0  0  0  0  0  0  0  0  0
   63.6920   33.3830   49.8930 C   0  0  0  0  0  0  0  0  0  0  0  0
   64.3140   33.0900   48.6620 C   0  0  0  0  0  0  0  0  0  0  0  0
   63.6020   33.2170   47.4600 C   0  0  0  0  0  0  0  0  0  0  0  0
   62.2760   33.6420   47.5220 C   0  0  0  0  0  0  0  0  0  0  0  0
   61.1960   33.8680   46.2600 S   0  0  0  0  0  0  0  0  0  0  0  0
   58.1480   32.2510   47.2540 C   0  0  0  0  0  0  0  0  0  0  0  0
   59.0050   31.3200   46.3740 C   0  0  0  0  0  0  0  0  0  0  0  0
   55.8826   29.6188   41.6098 H   0  0  0  0  0  0  0  0  0  0  0  0
   56.4426   30.6486   45.7111 H   0  0  0  0  0  0  0  0  0  0  0  0
   57.5111   29.2093   45.5245 H   0  0  0  0  0  0  0  0  0  0  0  0
   59.1109   32.8362   44.1788 H   0  0  0  0  0  0  0  0  0  0  0  0
   57.6419   32.0928   43.4067 H   0  0  0  0  0  0  0  0  0  0  0  0
   57.2110   34.2421   44.6534 H   0  0  0  0  0  0  0  0  0  0  0  0
   56.2466   32.7840   45.1994 H   0  0  0  0  0  0  0  0  0  0  0  0
   56.7860   33.7320   47.0690 H   0  0  0  0  0  0  0  0  0  0  0  0
   58.6006   35.2073   45.8110 H   0  0  0  0  0  0  0  0  0  0  0  0
   58.0450   35.2618   47.5632 H   0  0  0  0  0  0  0  0  0  0  0  0
   59.6636   34.5802   49.4313 H   0  0  0  0  0  0  0  0  0  0  0  0
   61.8628   34.0353   50.8884 H   0  0  0  0  0  0  0  0  0  0  0  0
   64.2586   33.2792   50.8301 H   0  0  0  0  0  0  0  0  0  0  0  0
   65.3632   32.7601   48.6441 H   0  0  0  0  0  0  0  0  0  0  0  0
   64.0772   32.9874   46.4949 H   0  0  0  0  0  0  0  0  0  0  0  0
   58.7523   32.5586   48.1202 H   0  0  0  0  0  0  0  0  0  0  0  0
   57.2526   31.6789   47.5384 H   0  0  0  0  0  0  0  0  0  0  0  0
   59.9903   31.7866   46.2274 H   0  0  0  0  0  0  0  0  0  0  0  0
   59.0789   30.3540   46.8950 H   0  0  0  0  0  0  0  0  0  0  0  0
  1  2  3  0
  2  3  1  0
  3  4  1  0
  4  5  1  0
  5  6  1  0
  6  7  1  0
  7  8  1  0
  8  9  1  0
  9 10  2  0
 10 11  1  0
 11 12  2  0
 12 13  1  0
 13 14  2  0
 14 15  1  0
 15 16  2  0
 16 17  1  0
  7 18  1  0
 18 19  1  0
 19  4  1  0
 17  9  1  0
 16 11  1  0
  1 20  1  0
  3 21  1  0
  3 22  1  0
  5 23  1  0
  5 24  1  0
  6 25  1  0
  6 26  1  0
  7 27  1  0
  8 28  1  0
  8 29  1  0
 10 30  1  0
 12 31  1  0
 13 32  1  0
 14 33  1  0
 15 34  1  0
 18 35  1  0
 18 36  1  0
 19 37  1  0
 19 38  1  0
M  CHG  1   7   1
M  END
>  <UniqueID>  (21) 
21

>  <SMILES>  (21) 
C#CCN1CC[NH+](Cc2cc3ccccc3s2)CC1

>  <Energy>  (21) 
81.52106443816618

>  <Genealogy>  (21) 
C#CCN1CC[NH+](Cc2cc3ccccc3s2)CC1 (protonated)
C#CCN1CC[NH+](Cc2cc3ccccc3s2)CC1 (3D coordinates assigned)
C#CCN1CC[NH+](Cc2cc3ccccc3s2)CC1 (nonaromatic ring conformer: 81.52106443816618 kcal/mol)

>  <smiles>  (21) 
C#CCN1CCN(Cc2cc3ccccc3s2)CC1

>  <score_type>  (21) 
oracle

>  <origin>  (21) 
adg

>  <m_score__min__energy>  (21) 
-5.2300000000000004

>  <m_primary>  (21) 
energy

$$$$
21:0
     RDKit          3D

 46 49  0  0  0  0  0  0  0  0999 V2000
   55.3840   29.9080   42.4260 H   0  0  0  0  0  0  0  0  0  0  0  0
   56.2670   30.3340   42.2720 O   0  0  0  0  0  0  0  0  0  0  0  0
   57.1310   29.8320   43.2630 C   0  0  2  0  0  0  0  0  0  0  0  0
   57.6711   29.0257   42.7451 H   0  0  0  0  0  0  0  0  0  0  0  0
   56.3860   29.3360   44.4810 C   0  0  2  0  0  0  0  0  0  0  0  0
   56.1642   28.2599   44.4283 H   0  0  0  0  0  0  0  0  0  0  0  0
   55.1470   29.9840   44.6270 O   0  0  0  0  0  0  0  0  0  0  0  0
   55.1900   30.8130   44.0820 H   0  0  0  0  0  0  0  0  0  0  0  0
   57.3080   29.7310   45.6300 C   0  0  1  0  0  0  0  0  0  0  0  0
   56.6931   30.0441   46.4867 H   0  0  0  0  0  0  0  0  0  0  0  0
   58.1320   28.5920   46.0480 N   0  0  0  0  0  0  0  0  0  0  0  0
   59.4830   28.5320   46.1970 C   0  0  0  0  0  0  0  0  0  0  0  0
   60.1422   29.4056   46.0859 H   0  0  0  0  0  0  0  0  0  0  0  0
   59.9390   27.2850   46.4970 N   0  0  0  0  0  0  0  0  0  0  0  0
   58.8100   26.5550   46.5200 C   0  0  0  0  0  0  0  0  0  0  0  0
   58.6470   25.1980   46.7460 C   0  0  0  0  0  0  0  0  0  0  0  0
   59.5072   24.5507   46.9720 H   0  0  0  0  0  0  0  0  0  0  0  0
   57.3780   24.6920   46.6780 N   0  0  0  0  0  0  0  0  0  0  0  0
   56.2990   25.4920   46.3940 C   0  0  0  0  0  0  0  0  0  0  0  0
   55.1150   24.9630   46.3410 N   0  0  0  0  0  0  0  0  0  0  0  0
   54.5910   24.2460   45.1830 C   0  0  0  0  0  0  0  0  0  0  0  0
   54.5868   24.9140   44.3090 H   0  0  0  0  0  0  0  0  0  0  0  0
   53.5646   23.9106   45.3926 H   0  0  0  0  0  0  0  0  0  0  0  0
   55.4630   23.0490   44.8970 C   0  0  0  0  0  0  0  0  0  0  0  0
   55.1340   21.8130   45.4810 C   0  0  0  0  0  0  0  0  0  0  0  0
   54.2590   21.7392   46.1436 H   0  0  0  0  0  0  0  0  0  0  0  0
   55.9070   20.6790   45.2280 C   0  0  0  0  0  0  0  0  0  0  0  0
   55.6436   19.7194   45.6967 H   0  0  0  0  0  0  0  0  0  0  0  0
   57.0130   20.7600   44.3820 C   0  0  0  0  0  0  0  0  0  0  0  0
   57.6238   19.8658   44.1887 H   0  0  0  0  0  0  0  0  0  0  0  0
   57.3450   21.9740   43.7810 C   0  0  0  0  0  0  0  0  0  0  0  0
   58.2203   22.0314   43.1172 H   0  0  0  0  0  0  0  0  0  0  0  0
   56.5720   23.1260   44.0150 C   0  0  0  0  0  0  0  0  0  0  0  0
   56.9620   24.4190   43.3500 C   0  0  0  0  0  0  0  0  0  0  0  0
   57.1893   25.1725   44.1184 H   0  0  0  0  0  0  0  0  0  0  0  0
   57.8507   24.2553   42.7228 H   0  0  0  0  0  0  0  0  0  0  0  0
   56.1310   24.7740   42.7228 H   0  0  0  0  0  0  0  0  0  0  0  0
   56.4790   26.8330   46.1690 N   0  0  0  0  0  0  0  0  0  0  0  0
   57.7370   27.3290   46.2460 C   0  0  0  0  0  0  0  0  0  0  0  0
   58.1320   30.8040   45.2270 O   0  0  0  0  0  0  0  0  0  0  0  0
   58.0890   30.8970   43.8190 C   0  0  2  0  0  0  0  0  0  0  0  0
   59.0672   30.6735   43.3682 H   0  0  0  0  0  0  0  0  0  0  0  0
   57.7730   32.3460   43.4070 C   0  0  0  0  0  0  0  0  0  0  0  0
   58.5306   32.6769   42.6814 H   0  0  0  0  0  0  0  0  0  0  0  0
   56.7608   32.3516   42.9765 H   0  0  0  0  0  0  0  0  0  0  0  0
   57.7720   33.5810   44.9070 Br  0  0  0  0  0  0  0  0  0  0  0  0
  1  2  1  0
  2  3  1  0
  3  4  1  6
  3  5  1  0
  5  6  1  6
  5  7  1  0
  7  8  1  0
  5  9  1  0
  9 10  1  1
  9 11  1  0
 11 12  1  0
 12 13  1  0
 12 14  2  0
 14 15  1  0
 15 16  2  0
 16 17  1  0
 16 18  1  0
 18 19  1  0
 19 20  2  0
 20 21  1  0
 21 22  1  0
 21 23  1  0
 21 24  1  0
 24 25  2  0
 25 26  1  0
 25 27  1  0
 27 28  1  0
 27 29  2  0
 29 30  1  0
 29 31  1  0
 31 32  1  0
 31 33  2  0
 33 34  1  0
 34 35  1  0
 34 36  1  0
 34 37  1  0
 19 38  1  0
 38 39  2  0
  9 40  1  0
 40 41  1  0
 41 42  1  6
 41 43  1  0
 43 44  1  0
 43 45  1  0
 43 46  1  0
 41  3  1  0
 39 11  1  0
 39 15  1  0
 33 24  1  0
M  CHG  1  18  -1
M  END
>  <UniqueID>  (22) 
22

>  <SMILES>  (22) 
Cc1ccccc1C/N=c1\nc2c(c[n-]1)ncn2[C@H]1O[C@H](CBr)C(O)C1O

>  <Energy>  (22) 
93.11190974844054

>  <Genealogy>  (22) 
Cc1ccccc1CN=c1nc2c(c[n-]1)ncn2C1OC(CBr)C(O)C1O (protonated)
Cc1ccccc1CN=c1nc2c(c[n-]1)ncn2[C@H]1O[C@H](CBr)C(O)C1O (chirality)
Cc1ccccc1C/N=c1\nc2c(c[n-]1)ncn2[C@H]1O[C@H](CBr)C(O)C1O (cis-trans isomerization)
Cc1ccccc1C/N=c1\nc2c(c[n-]1)ncn2[C@H]1O[C@H](CBr)C(O)C1O (3D coordinates assigned)
Cc1ccccc1C/N=c1\nc2c(c[n-]1)ncn2[C@H]1O[C@H](CBr)C(O)C1O (nonaromatic ring conformer: 93.11190974844054 kcal/mol)

>  <smiles>  (22) 
Cc1ccccc1CN=c1nc2c(c[nH]1)ncn2C1OC(CBr)C(O)C1O

>  <score_type>  (22) 
oracle

>  <origin>  (22) 
adg

>  <m_score__min__energy>  (22) 
-9.5800000000000001

>  <m_primary>  (22) 
energy

$$$$
22:0
     RDKit          3D

 62 63  0  0  0  0  0  0  0  0999 V2000
   60.5970   30.0470   48.8900 C   0  0  0  0  0  0  0  0  0  0  0  0
   61.3560   31.0740   48.1060 C   0  0  0  0  0  0  0  0  0  0  0  0
   61.1160   31.1840   46.8740 O   0  0  0  0  0  0  0  0  0  0  0  0
   62.3770   31.9550   48.7320 C   0  0  0  0  0  0  0  0  0  0  0  0
   63.3960   31.3640   49.5020 C   0  0  0  0  0  0  0  0  0  0  0  0
   64.3600   32.1520   50.1320 C   0  0  0  0  0  0  0  0  0  0  0  0
   64.3260   33.5380   49.9970 C   0  0  0  0  0  0  0  0  0  0  0  0
   63.3380   34.1430   49.2200 C   0  0  0  0  0  0  0  0  0  0  0  0
   62.3630   33.3620   48.5650 C   0  0  0  0  0  0  0  0  0  0  0  0
   61.3850   33.9450   47.7370 O   0  0  0  0  0  0  0  0  0  0  0  0
   60.3690   34.8570   48.1490 C   0  0  0  0  0  0  0  0  0  0  0  0
   58.9810   34.3510   47.6970 C   0  0  0  0  0  0  0  0  0  0  0  0
   59.0080   33.2910   46.6560 N   0  0  0  0  0  0  0  0  0  0  0  0
   58.6860   33.7890   45.2900 C   0  0  0  0  0  0  0  0  0  0  0  0
   57.2840   33.3540   44.8250 C   0  0  0  0  0  0  0  0  0  0  0  0
   57.1220   31.8760   44.8230 N   0  0  0  0  0  0  0  0  0  0  0  0
   57.3330   31.3110   43.4700 C   0  0  0  0  0  0  0  0  0  0  0  0
   57.1080   29.7880   43.4540 C   0  0  0  0  0  0  0  0  0  0  0  0
   55.8890   29.3580   44.2360 C   0  0  0  0  0  0  0  0  0  0  0  0
   54.7680   29.8920   44.0110 O   0  0  0  0  0  0  0  0  0  0  0  0
   55.9730   28.3530   45.2550 N   0  0  0  0  0  0  0  0  0  0  0  0
   57.1090   27.4580   45.4740 C   0  0  0  0  0  0  0  0  0  0  0  0
   57.8900   27.8440   46.7400 C   0  0  0  0  0  0  0  0  0  0  0  0
   59.3080   28.1390   46.4320 N   0  0  0  0  0  0  0  0  0  0  0  0
   59.5320   28.2230   44.9780 C   0  0  0  0  0  0  0  0  0  0  0  0
   60.1750   27.0920   46.9990 C   0  0  0  0  0  0  0  0  0  0  0  0
   57.9580   31.1920   45.8430 C   0  0  0  0  0  0  0  0  0  0  0  0
   58.2290   32.0930   47.0530 C   0  0  0  0  0  0  0  0  0  0  0  0
   60.7338   30.2321   49.9657 H   0  0  0  0  0  0  0  0  0  0  0  0
   59.5277   30.1113   48.6399 H   0  0  0  0  0  0  0  0  0  0  0  0
   60.9723   29.0437   48.6399 H   0  0  0  0  0  0  0  0  0  0  0  0
   63.4329   30.2698   49.6083 H   0  0  0  0  0  0  0  0  0  0  0  0
   65.1478   31.6781   50.7360 H   0  0  0  0  0  0  0  0  0  0  0  0
   65.0804   34.1572   50.5045 H   0  0  0  0  0  0  0  0  0  0  0  0
   63.3191   35.2380   49.1173 H   0  0  0  0  0  0  0  0  0  0  0  0
   60.3837   34.9460   49.2453 H   0  0  0  0  0  0  0  0  0  0  0  0
   60.5600   35.8379   47.6894 H   0  0  0  0  0  0  0  0  0  0  0  0
   58.4600   33.9501   48.5790 H   0  0  0  0  0  0  0  0  0  0  0  0
   58.4714   35.2142   47.2440 H   0  0  0  0  0  0  0  0  0  0  0  0
   60.0090   32.9750   46.6180 H   0  0  0  0  0  0  0  0  0  0  0  0
   58.7322   34.8880   45.2941 H   0  0  0  0  0  0  0  0  0  0  0  0
   59.4203   33.3587   44.5931 H   0  0  0  0  0  0  0  0  0  0  0  0
   56.5355   33.7907   45.5026 H   0  0  0  0  0  0  0  0  0  0  0  0
   57.1476   33.7083   43.7926 H   0  0  0  0  0  0  0  0  0  0  0  0
   56.6276   31.7840   42.7710 H   0  0  0  0  0  0  0  0  0  0  0  0
   58.3727   31.5098   43.1709 H   0  0  0  0  0  0  0  0  0  0  0  0
   56.9859   29.4636   42.4100 H   0  0  0  0  0  0  0  0  0  0  0  0
   57.9832   29.3233   43.9315 H   0  0  0  0  0  0  0  0  0  0  0  0
   56.7378   26.4282   45.5824 H   0  0  0  0  0  0  0  0  0  0  0  0
   57.7860   27.5397   44.6108 H   0  0  0  0  0  0  0  0  0  0  0  0
   57.4279   28.7364   47.1872 H   0  0  0  0  0  0  0  0  0  0  0  0
   57.8572   26.9952   47.4389 H   0  0  0  0  0  0  0  0  0  0  0  0
   60.5459   28.6032   44.7846 H   0  0  0  0  0  0  0  0  0  0  0  0
   59.4240   27.2233   44.5320 H   0  0  0  0  0  0  0  0  0  0  0  0
   58.7933   28.9052   44.5320 H   0  0  0  0  0  0  0  0  0  0  0  0
   60.1362   27.1389   48.0973 H   0  0  0  0  0  0  0  0  0  0  0  0
   59.8264   26.1048   46.6616 H   0  0  0  0  0  0  0  0  0  0  0  0
   61.2099   27.2504   46.6616 H   0  0  0  0  0  0  0  0  0  0  0  0
   57.4347   30.2863   46.1834 H   0  0  0  0  0  0  0  0  0  0  0  0
   58.9238   30.9399   45.3808 H   0  0  0  0  0  0  0  0  0  0  0  0
   57.2697   32.4140   47.4852 H   0  0  0  0  0  0  0  0  0  0  0  0
   58.8117   31.5236   47.7921 H   0  0  0  0  0  0  0  0  0  0  0  0
  1  2  1  0
  2  3  2  0
  2  4  1  0
  4  5  2  0
  5  6  1  0
  6  7  2  0
  7  8  1  0
  8  9  2  0
  9 10  1  0
 10 11  1  0
 11 12  1  0
 12 13  1  0
 13 14  1  0
 14 15  1  0
 15 16  1  0
 16 17  1  0
 17 18  1  0
 18 19  1  0
 19 20  2  0
 19 21  1  0
 21 22  1  0
 22 23  1  0
 23 24  1  0
 24 25  1  0
 24 26  1  0
 16 27  1  0
 27 28  1  0
  9  4  1  0
 28 13  1  0
  1 29  1  0
  1 30  1  0
  1 31  1  0
  5 32  1  0
  6 33  1  0
  7 34  1  0
  8 35  1  0
 11 36  1  0
 11 37  1  0
 12 38  1  0
 12 39  1  0
 13 40  1  0
 14 41  1  0
 14 42  1  0
 15 43  1  0
 15 44  1  0
 17 45  1  0
 17 46  1  0
 18 47  1  0
 18 48  1  0
 22 49  1  0
 22 50  1  0
 23 51  1  0
 23 52  1  0
 25 53  1  0
 25 54  1  0
 25 55  1  0
 26 56  1  0
 26 57  1  0
 26 58  1  0
 27 59  1  0
 27 60  1  0
 28 61  1  0
 28 62  1  0
M  CHG  2  13   1  21  -1
M  END
>  <UniqueID>  (23) 
23

>  <SMILES>  (23) 
CC(=O)c1ccccc1OCC[NH+]1CCN(CCC(=O)[N-]CCN(C)C)CC1

>  <Energy>  (23) 
78.31736067440006

>  <Genealogy>  (23) 
CC(=O)c1ccccc1OCC[NH+]1CCN(CCC(=O)[N-]CCN(C)C)CC1 (protonated)
CC(=O)c1ccccc1OCC[NH+]1CCN(CCC(=O)[N-]CCN(C)C)CC1 (3D coordinates assigned)
CC(=O)c1ccccc1OCC[NH+]1CCN(CCC(=O)[N-]CCN(C)C)CC1 (nonaromatic ring conformer: 78.31736067440006 kcal/mol)

>  <smiles>  (23) 
CC(=O)c1ccccc1OCCN1CCN(CCC(=O)NCCN(C)C)CC1

>  <score_type>  (23) 
oracle

>  <origin>  (23) 
adg

>  <m_score__min__energy>  (23) 
-7.7400000000000002

>  <m_primary>  (23) 
energy

$$$$
23:0
     RDKit          3D

 51 52  0  0  0  0  0  0  0  0999 V2000
   59.2530   34.9820   45.2150 C   0  0  0  0  0  0  0  0  0  0  0  0
   58.0360   34.1920   44.7400 C   0  0  0  0  0  0  0  0  0  0  0  0
   57.7500   33.0770   45.6580 N   0  0  0  0  0  0  0  0  0  0  0  0
   57.4210   33.3670   47.0630 C   0  0  0  0  0  0  0  0  0  0  0  0
   58.5410   32.8810   47.9780 C   0  0  0  0  0  0  0  0  0  0  0  0
   57.7690   31.7020   45.2080 C   0  0  0  0  0  0  0  0  0  0  0  0
   56.7290   31.1640   44.4320 C   0  0  0  0  0  0  0  0  0  0  0  0
   56.7990   29.8370   44.0030 C   0  0  0  0  0  0  0  0  0  0  0  0
   57.9040   29.0390   44.3440 C   0  0  0  0  0  0  0  0  0  0  0  0
   58.0100   27.6200   43.9160 C   0  0  0  0  0  0  0  0  0  0  0  0
   57.7930   27.3380   42.7030 O   0  0  0  0  0  0  0  0  0  0  0  0
   58.3750   26.5650   44.8430 N   0  0  1  0  0  0  0  0  0  0  0  0
   57.7600   26.7950   46.1810 C   0  0  0  0  0  0  0  0  0  0  0  0
   57.8230   25.5960   47.1580 C   0  0  0  0  0  0  0  0  0  0  0  0
   57.0130   24.3550   46.7230 C   0  0  0  0  0  0  0  0  0  0  0  0
   56.0700   24.6570   45.6310 N   0  0  0  0  0  0  0  0  0  0  0  0
   54.6430   24.7640   45.8640 C   0  0  0  0  0  0  0  0  0  0  0  0
   54.0770   25.8880   45.7630 O   0  0  0  0  0  0  0  0  0  0  0  0
   53.7940   23.5750   46.2350 C   0  0  0  0  0  0  0  0  0  0  0  0
   53.1180   23.0730   45.1140 O   0  0  0  0  0  0  0  0  0  0  0  0
   56.5820   24.8880   44.2680 C   0  0  0  0  0  0  0  0  0  0  0  0
   58.0830   25.2480   44.2310 C   0  0  0  0  0  0  0  0  0  0  0  0
   58.9160   29.6120   45.1280 C   0  0  0  0  0  0  0  0  0  0  0  0
   58.8290   30.9090   45.5250 N   0  0  0  0  0  0  0  0  0  0  0  0
   59.2746   34.9960   46.3147 H   0  0  0  0  0  0  0  0  0  0  0  0
   60.1696   34.5062   44.8363 H   0  0  0  0  0  0  0  0  0  0  0  0
   59.1916   36.0129   44.8363 H   0  0  0  0  0  0  0  0  0  0  0  0
   57.1636   34.8610   44.7013 H   0  0  0  0  0  0  0  0  0  0  0  0
   58.2472   33.7829   43.7410 H   0  0  0  0  0  0  0  0  0  0  0  0
   57.2935   34.4522   47.1897 H   0  0  0  0  0  0  0  0  0  0  0  0
   56.4894   32.8457   47.3283 H   0  0  0  0  0  0  0  0  0  0  0  0
   58.2396   33.0118   49.0278 H   0  0  0  0  0  0  0  0  0  0  0  0
   58.7379   31.8165   47.7830 H   0  0  0  0  0  0  0  0  0  0  0  0
   59.4530   33.4643   47.7830 H   0  0  0  0  0  0  0  0  0  0  0  0
   55.8624   31.7859   44.1632 H   0  0  0  0  0  0  0  0  0  0  0  0
   55.9853   29.4145   43.3953 H   0  0  0  0  0  0  0  0  0  0  0  0
   59.4080   26.6130   45.0000 H   0  0  0  0  0  0  0  0  0  0  0  0
   58.2791   27.6431   46.6514 H   0  0  0  0  0  0  0  0  0  0  0  0
   56.6913   26.9773   45.9950 H   0  0  0  0  0  0  0  0  0  0  0  0
   58.8762   25.2963   47.2627 H   0  0  0  0  0  0  0  0  0  0  0  0
   57.3714   25.9429   48.0992 H   0  0  0  0  0  0  0  0  0  0  0  0
   57.7126   23.5779   46.3815 H   0  0  0  0  0  0  0  0  0  0  0  0
   56.4268   24.0151   47.5895 H   0  0  0  0  0  0  0  0  0  0  0  0
   54.4398   22.7866   46.6489 H   0  0  0  0  0  0  0  0  0  0  0  0
   53.0502   23.8934   46.9802 H   0  0  0  0  0  0  0  0  0  0  0  0
   53.5470   22.2100   44.8840 H   0  0  0  0  0  0  0  0  0  0  0  0
   56.4281   23.9727   43.6777 H   0  0  0  0  0  0  0  0  0  0  0  0
   56.0314   25.7460   43.8548 H   0  0  0  0  0  0  0  0  0  0  0  0
   58.6430   24.4750   44.7777 H   0  0  0  0  0  0  0  0  0  0  0  0
   58.3839   25.3010   43.1743 H   0  0  0  0  0  0  0  0  0  0  0  0
   59.7862   29.0075   45.4236 H   0  0  0  0  0  0  0  0  0  0  0  0
  1  2  1  0
  2  3  1  0
  3  4  1  0
  4  5  1  0
  3  6  1  0
  6  7  2  0
  7  8  1  0
  8  9  2  0
  9 10  1  0
 10 11  2  0
 10 12  1  0
 12 13  1  0
 13 14  1  0
 14 15  1  0
 15 16  1  0
 16 17  1  0
 17 18  2  0
 17 19  1  0
 19 20  1  0
 16 21  1  0
 21 22  1  0
  9 23  1  0
 23 24  2  0
 24  6  1  0
 22 12  1  0
  1 25  1  0
  1 26  1  0
  1 27  1  0
  2 28  1  0
  2 29  1  0
  4 30  1  0
  4 31  1  0
  5 32  1  0
  5 33  1  0
  5 34  1  0
  7 35  1  0
  8 36  1  0
 12 37  1  1
 13 38  1  0
 13 39  1  0
 14 40  1  0
 14 41  1  0
 15 42  1  0
 15 43  1  0
 19 44  1  0
 19 45  1  0
 20 46  1  0
 21 47  1  0
 21 48  1  0
 22 49  1  0
 22 50  1  0
 23 51  1  0
M  CHG  1  12   1
M  END
>  <UniqueID>  (24) 
24

>  <SMILES>  (24) 
CCN(CC)c1ccc(C(=O)[N@H+]2CCCN(C(=O)CO)CC2)cn1

>  <Energy>  (24) 
63.74407174520758

>  <Genealogy>  (24) 
CCN(CC)c1ccc(C(=O)[NH+]2CCCN(C(=O)CO)CC2)cn1 (protonated)
CCN(CC)c1ccc(C(=O)[N@H+]2CCCN(C(=O)CO)CC2)cn1 (chirality)
CCN(CC)c1ccc(C(=O)[N@H+]2CCCN(C(=O)CO)CC2)cn1 (3D coordinates assigned)
CCN(CC)c1ccc(C(=O)[N@H+]2CCCN(C(=O)CO)CC2)cn1 (nonaromatic ring conformer: 63.74407174520758 kcal/mol)

>  <smiles>  (24) 
CCN(CC)c1ccc(C(=O)N2CCCN(C(=O)CO)CC2)cn1

>  <score_type>  (24) 
oracle

>  <origin>  (24) 
adg

>  <m_score__min__energy>  (24) 
-3.6400000000000001

>  <m_primary>  (24) 
energy

$$$$
24:0
     RDKit          3D

 58 60  0  0  0  0  0  0  0  0999 V2000
   54.7790   27.1660   45.9400 H   0  0  0  0  0  0  0  0  0  0  0  0
   55.0360   26.1560   45.9980 N   0  0  0  0  0  0  0  0  0  0  0  0
   56.2640   25.7580   46.1330 C   0  0  0  0  0  0  0  0  0  0  0  0
   56.5390   24.3610   46.5600 C   0  0  0  0  0  0  0  0  0  0  0  0
   56.2280   23.9330   47.8640 C   0  0  0  0  0  0  0  0  0  0  0  0
   55.7739   24.6326   48.5812 H   0  0  0  0  0  0  0  0  0  0  0  0
   56.4980   22.6170   48.2440 C   0  0  0  0  0  0  0  0  0  0  0  0
   56.2539   22.2795   49.2621 H   0  0  0  0  0  0  0  0  0  0  0  0
   57.0610   21.7520   47.3610 N   0  0  0  0  0  0  0  0  0  0  0  0
   57.3770   22.1340   46.0950 C   0  0  0  0  0  0  0  0  0  0  0  0
   57.8314   21.4114   45.4012 H   0  0  0  0  0  0  0  0  0  0  0  0
   57.1260   23.4420   45.6730 C   0  0  0  0  0  0  0  0  0  0  0  0
   57.3868   23.7516   44.6502 H   0  0  0  0  0  0  0  0  0  0  0  0
   57.3510   26.6410   45.8030 N   0  0  0  0  0  0  0  0  0  0  0  0
   58.1850   26.2380   45.3210 H   0  0  0  0  0  0  0  0  0  0  0  0
   57.2650   28.0190   45.8820 O   0  0  0  0  0  0  0  0  0  0  0  0
   56.6630   28.8100   44.8950 C   0  0  0  0  0  0  0  0  0  0  0  0
   55.4370   29.0950   44.9620 O   0  0  0  0  0  0  0  0  0  0  0  0
   57.4730   29.3270   43.7450 C   0  0  0  0  0  0  0  0  0  0  0  0
   57.8459   28.4743   43.1587 H   0  0  0  0  0  0  0  0  0  0  0  0
   56.8275   29.9724   43.1312 H   0  0  0  0  0  0  0  0  0  0  0  0
   58.5850   30.1030   44.1940 O   0  0  0  0  0  0  0  0  0  0  0  0
   58.7300   30.6760   45.4720 C   0  0  0  0  0  0  0  0  0  0  0  0
   59.3340   29.9800   46.5390 C   0  0  0  0  0  0  0  0  0  0  0  0
   59.7044   28.9566   46.3793 H   0  0  0  0  0  0  0  0  0  0  0  0
   59.4690   30.5780   47.8060 C   0  0  0  0  0  0  0  0  0  0  0  0
   60.0420   29.8920   48.8900 O   0  0  0  0  0  0  0  0  0  0  0  0
   60.3140   28.4950   48.9170 C   0  0  0  0  0  0  0  0  0  0  0  0
   60.3803   28.1545   49.9609 H   0  0  0  0  0  0  0  0  0  0  0  0
   59.5044   27.9539   48.4055 H   0  0  0  0  0  0  0  0  0  0  0  0
   61.2675   28.2971   48.4055 H   0  0  0  0  0  0  0  0  0  0  0  0
   59.0180   31.8980   48.0020 C   0  0  0  0  0  0  0  0  0  0  0  0
   59.1220   32.5290   49.2970 N   0  0  0  0  0  0  0  0  0  0  0  0
   58.1670   32.7110   49.6860 H   0  0  0  0  0  0  0  0  0  0  0  0
   59.6160   31.8910   49.9640 H   0  0  0  0  0  0  0  0  0  0  0  0
   59.8650   33.7920   49.1840 C   0  0  0  0  0  0  0  0  0  0  0  0
   59.2580   34.5206   48.6266 H   0  0  0  0  0  0  0  0  0  0  0  0
   60.0788   34.1709   50.1943 H   0  0  0  0  0  0  0  0  0  0  0  0
   61.1680   33.5740   48.4590 C   0  0  0  0  0  0  0  0  0  0  0  0
   62.1840   32.8050   49.0440 C   0  0  0  0  0  0  0  0  0  0  0  0
   62.0479   32.3797   50.0493 H   0  0  0  0  0  0  0  0  0  0  0  0
   63.3700   32.5830   48.3410 C   0  0  0  0  0  0  0  0  0  0  0  0
   64.1753   31.9881   48.7967 H   0  0  0  0  0  0  0  0  0  0  0  0
   63.5310   33.1010   47.0940 N   0  0  0  0  0  0  0  0  0  0  0  0
   62.5560   33.8400   46.4980 C   0  0  0  0  0  0  0  0  0  0  0  0
   62.7140   34.2448   45.4875 H   0  0  0  0  0  0  0  0  0  0  0  0
   61.3560   34.0850   47.1670 C   0  0  0  0  0  0  0  0  0  0  0  0
   60.5631   34.6749   46.6840 H   0  0  0  0  0  0  0  0  0  0  0  0
   58.4080   32.5840   46.9400 C   0  0  0  0  0  0  0  0  0  0  0  0
   58.0463   33.6110   47.0966 H   0  0  0  0  0  0  0  0  0  0  0  0
   58.2520   31.9830   45.6840 C   0  0  0  0  0  0  0  0  0  0  0  0
   57.6200   32.7660   44.5610 C   0  0  0  0  0  0  0  0  0  0  0  0
   58.2664   32.7082   43.6729 H   0  0  0  0  0  0  0  0  0  0  0  0
   56.6313   32.3353   44.3441 H   0  0  0  0  0  0  0  0  0  0  0  0
   57.4400   34.2290   44.9540 C   0  0  0  0  0  0  0  0  0  0  0  0
   57.4294   34.3155   46.0505 H   0  0  0  0  0  0  0  0  0  0  0  0
   58.2718   34.8229   44.5474 H   0  0  0  0  0  0  0  0  0  0  0  0
   56.4890   34.6036   44.5474 H   0  0  0  0  0  0  0  0  0  0  0  0
  1  2  1  0
  2  3  2  0
  3  4  1  0
  4  5  2  0
  5  6  1  0
  5  7  1  0
  7  8  1  0
  7  9  2  0
  9 10  1  0
 10 11  1  0
 10 12  2  0
 12 13  1  0
  3 14  1  0
 14 15  1  0
 14 16  1  0
 16 17  1  0
 17 18  2  0
 17 19  1  0
 19 20  1  0
 19 21  1  0
 19 22  1  0
 22 23  1  0
 23 24  2  0
 24 25  1  0
 24 26  1  0
 26 27  1  0
 27 28  1  0
 28 29  1  0
 28 30  1  0
 28 31  1  0
 26 32  2  0
 32 33  1  0
 33 34  1  0
 33 35  1  0
 33 36  1  0
 36 37  1  0
 36 38  1  0
 36 39  1  0
 39 40  2  0
 40 41  1  0
 40 42  1  0
 42 43  1  0
 42 44  2  0
 44 45  1  0
 45 46  1  0
 45 47  2  0
 47 48  1  0
 32 49  1  0
 49 50  1  0
 49 51  2  0
 51 52  1  0
 52 53  1  0
 52 54  1  0
 52 55  1  0
 55 56  1  0
 55 57  1  0
 55 58  1  0
 12  4  1  0
 51 23  1  0
 47 39  1  0
M  CHG  1  33   1
M  END
>  <UniqueID>  (25) 
25

>  <SMILES>  (25) 
[H]/N=C(\NOC(=O)COc1cc(OC)c([NH2+]Cc2ccncc2)cc1CC)c1ccncc1

>  <Energy>  (25) 
65.01830538712034

>  <Genealogy>  (25) 
CCc1cc([NH2+]Cc2ccncc2)c(OC)cc1OCC(=O)ONC(=N)c1ccncc1 (protonated)
[H]/N=C(\NOC(=O)COc1cc(OC)c([NH2+]Cc2ccncc2)cc1CC)c1ccncc1 (cis-trans isomerization)
[H]/N=C(\NOC(=O)COc1cc(OC)c([NH2+]Cc2ccncc2)cc1CC)c1ccncc1 (3D coordinates assigned)
[H]/N=C(\NOC(=O)COc1cc(OC)c([NH2+]Cc2ccncc2)cc1CC)c1ccncc1 (optimized conformer: 65.01830538712034 kcal/mol)

>  <smiles>  (25) 
CCc1cc(NCc2ccncc2)c(OC)cc1OCC(=O)ONC(=N)c1ccncc1

>  <score_type>  (25) 
oracle

>  <origin>  (25) 
adg

>  <m_score__min__energy>  (25) 
-7.2599999999999998

>  <m_primary>  (25) 
energy

$$$$
25:0
     RDKit          3D

 50 52  0  0  0  0  0  0  0  0999 V2000
   67.1920   33.0540   50.1570 C   0  0  0  0  0  0  0  0  0  0  0  0
   65.9160   32.7520   50.7120 O   0  0  0  0  0  0  0  0  0  0  0  0
   64.7650   32.4880   49.9550 C   0  0  0  0  0  0  0  0  0  0  0  0
   63.8370   31.5680   50.4540 C   0  0  0  0  0  0  0  0  0  0  0  0
   62.6730   31.2730   49.7380 C   0  0  0  0  0  0  0  0  0  0  0  0
   62.4170   31.9040   48.5120 C   0  0  0  0  0  0  0  0  0  0  0  0
   61.1890   31.5940   47.7480 C   0  0  0  0  0  0  0  0  0  0  0  0
   61.1660   30.4640   46.9150 C   0  0  0  0  0  0  0  0  0  0  0  0
   60.0170   30.1530   46.1810 C   0  0  0  0  0  0  0  0  0  0  0  0
   59.9690   29.0310   45.3420 C   0  0  0  0  0  0  0  0  0  0  0  0
   58.8070   28.7460   44.6170 C   0  0  0  0  0  0  0  0  0  0  0  0
   57.6770   29.5810   44.7250 C   0  0  0  0  0  0  0  0  0  0  0  0
   56.4910   29.3360   44.0160 O   0  0  0  0  0  0  0  0  0  0  0  0
   56.2670   29.7210   42.6640 C   0  0  0  0  0  0  0  0  0  0  0  0
   57.7280   30.7000   45.5660 C   0  0  0  0  0  0  0  0  0  0  0  0
   58.8880   30.9870   46.2940 C   0  0  0  0  0  0  0  0  0  0  0  0
   58.9330   32.0820   47.0950 N   0  0  0  0  0  0  0  0  0  0  0  0
   60.0420   32.4160   47.8060 C   0  0  0  0  0  0  0  0  0  0  0  0
   60.0090   33.9420   48.7620 S   0  0  0  0  0  0  0  0  0  0  0  0
   59.2130   34.9540   47.4600 C   0  0  0  0  0  0  0  0  0  0  0  0
   59.7140   34.5840   46.0580 C   0  0  0  0  0  0  0  0  0  0  0  0
   58.6090   34.5400   45.0770 N   0  0  0  0  0  0  0  0  0  0  0  0
   58.8900   33.5430   44.0330 C   0  0  0  0  0  0  0  0  0  0  0  0
   57.3250   34.2220   45.7270 C   0  0  0  0  0  0  0  0  0  0  0  0
   63.3520   32.8190   48.0020 C   0  0  0  0  0  0  0  0  0  0  0  0
   64.5150   33.1140   48.7180 C   0  0  0  0  0  0  0  0  0  0  0  0
   67.9140   33.2249   50.9691 H   0  0  0  0  0  0  0  0  0  0  0  0
   67.5308   32.2112   49.5365 H   0  0  0  0  0  0  0  0  0  0  0  0
   67.1170   33.9592   49.5365 H   0  0  0  0  0  0  0  0  0  0  0  0
   64.0247   31.0724   51.4179 H   0  0  0  0  0  0  0  0  0  0  0  0
   61.9545   30.5425   50.1382 H   0  0  0  0  0  0  0  0  0  0  0  0
   62.0552   29.8208   46.8394 H   0  0  0  0  0  0  0  0  0  0  0  0
   60.8465   28.3736   45.2536 H   0  0  0  0  0  0  0  0  0  0  0  0
   58.7752   27.8651   43.9589 H   0  0  0  0  0  0  0  0  0  0  0  0
   55.7139   30.6716   42.6403 H   0  0  0  0  0  0  0  0  0  0  0  0
   57.2333   29.8462   42.1535 H   0  0  0  0  0  0  0  0  0  0  0  0
   55.6807   28.9428   42.1535 H   0  0  0  0  0  0  0  0  0  0  0  0
   56.8505   31.3574   45.6547 H   0  0  0  0  0  0  0  0  0  0  0  0
   58.1254   34.7950   47.5019 H   0  0  0  0  0  0  0  0  0  0  0  0
   59.4685   36.0078   47.6450 H   0  0  0  0  0  0  0  0  0  0  0  0
   60.4499   35.3342   45.7328 H   0  0  0  0  0  0  0  0  0  0  0  0
   60.1678   33.5832   46.1088 H   0  0  0  0  0  0  0  0  0  0  0  0
   59.1598   32.5858   44.5032 H   0  0  0  0  0  0  0  0  0  0  0  0
   57.9957   33.4051   43.4075 H   0  0  0  0  0  0  0  0  0  0  0  0
   59.7247   33.8924   43.4075 H   0  0  0  0  0  0  0  0  0  0  0  0
   57.4495   34.2528   46.8195 H   0  0  0  0  0  0  0  0  0  0  0  0
   56.5677   34.9597   45.4233 H   0  0  0  0  0  0  0  0  0  0  0  0
   56.9995   33.2161   45.4233 H   0  0  0  0  0  0  0  0  0  0  0  0
   63.1678   33.3064   47.0332 H   0  0  0  0  0  0  0  0  0  0  0  0
   65.2382   33.8379   48.3142 H   0  0  0  0  0  0  0  0  0  0  0  0
  1  2  1  0
  2  3  1  0
  3  4  2  0
  4  5  1  0
  5  6  2  0
  6  7  1  0
  7  8  2  0
  8  9  1  0
  9 10  2  0
 10 11  1  0
 11 12  2  0
 12 13  1  0
 13 14  1  0
 12 15  1  0
 15 16  2  0
 16 17  1  0
 17 18  2  0
 18 19  1  0
 19 20  1  0
 20 21  1  0
 21 22  1  0
 22 23  1  0
 22 24  1  0
  6 25  1  0
 25 26  2  0
 26  3  1  0
 18  7  1  0
 16  9  1  0
  1 27  1  0
  1 28  1  0
  1 29  1  0
  4 30  1  0
  5 31  1  0
  8 32  1  0
 10 33  1  0
 11 34  1  0
 14 35  1  0
 14 36  1  0
 14 37  1  0
 15 38  1  0
 20 39  1  0
 20 40  1  0
 21 41  1  0
 21 42  1  0
 23 43  1  0
 23 44  1  0
 23 45  1  0
 24 46  1  0
 24 47  1  0
 24 48  1  0
 25 49  1  0
 26 50  1  0
M  END
>  <UniqueID>  (26) 
26

>  <SMILES>  (26) 
COc1ccc(-c2cc3ccc(OC)cc3nc2SCCN(C)C)cc1

>  <Energy>  (26) 
54.630012622526195

>  <Genealogy>  (26) 
COc1ccc(-c2cc3ccc(OC)cc3nc2SCCN(C)C)cc1 (3D coordinates assigned)
COc1ccc(-c2cc3ccc(OC)cc3nc2SCCN(C)C)cc1 (optimized conformer: 54.630012622526195 kcal/mol)

>  <smiles>  (26) 
COc1ccc(-c2cc3ccc(OC)cc3nc2SCCN(C)C)cc1

>  <score_type>  (26) 
oracle

>  <origin>  (26) 
adg

>  <m_score__min__energy>  (26) 
-7.0499999999999998

>  <m_primary>  (26) 
energy

$$$$
26:0
     RDKit          3D

 43 45  0  0  0  0  0  0  0  0999 V2000
   63.3470   33.8830   46.3870 C   0  0  0  0  0  0  0  0  0  0  0  0
   63.3970   33.1500   47.6610 N   0  0  0  0  0  0  0  0  0  0  0  0
   63.1070   31.7200   47.4710 C   0  0  0  0  0  0  0  0  0  0  0  0
   62.5800   33.7730   48.7290 C   0  0  0  0  0  0  0  0  0  0  0  0
   61.5800   32.8150   49.4250 C   0  0  0  0  0  0  0  0  0  0  0  0
   60.2120   33.4810   49.6750 C   0  0  0  0  0  0  0  0  0  0  0  0
   60.0120   34.6730   48.8330 N   0  0  0  0  0  0  0  0  0  0  0  0
   59.5770   34.3150   47.5030 C   0  0  0  0  0  0  0  0  0  0  0  0
   59.6170   35.2670   46.4540 C   0  0  0  0  0  0  0  0  0  0  0  0
   59.1630   34.9380   45.1660 C   0  0  0  0  0  0  0  0  0  0  0  0
   58.6720   33.6530   44.9390 C   0  0  0  0  0  0  0  0  0  0  0  0
   58.6340   32.7210   45.9570 C   0  0  0  0  0  0  0  0  0  0  0  0
   59.0790   33.0190   47.2440 C   0  0  0  0  0  0  0  0  0  0  0  0
   58.0710   31.4980   45.4280 C   0  0  0  0  0  0  0  0  0  0  0  0
   57.8230   30.2770   46.0570 C   0  0  0  0  0  0  0  0  0  0  0  0
   57.2580   29.2420   45.2960 C   0  0  0  0  0  0  0  0  0  0  0  0
   56.9530   29.4430   43.9350 C   0  0  0  0  0  0  0  0  0  0  0  0
   57.2130   30.6820   43.3240 C   0  0  0  0  0  0  0  0  0  0  0  0
   57.7750   31.7010   44.0930 C   0  0  0  0  0  0  0  0  0  0  0  0
   58.1310   33.0920   43.6550 C   0  0  0  0  0  0  0  0  0  0  0  0
   63.2734   34.9621   46.5875 H   0  0  0  0  0  0  0  0  0  0  0  0
   64.2612   33.6787   45.8103 H   0  0  0  0  0  0  0  0  0  0  0  0
   62.4690   33.5565   45.8103 H   0  0  0  0  0  0  0  0  0  0  0  0
   63.0081   31.2324   48.4521 H   0  0  0  0  0  0  0  0  0  0  0  0
   62.1678   31.6078   46.9094 H   0  0  0  0  0  0  0  0  0  0  0  0
   63.9283   31.2508   46.9094 H   0  0  0  0  0  0  0  0  0  0  0  0
   63.2629   34.1700   49.4946 H   0  0  0  0  0  0  0  0  0  0  0  0
   61.9747   34.5514   48.2415 H   0  0  0  0  0  0  0  0  0  0  0  0
   61.4324   31.9319   48.7860 H   0  0  0  0  0  0  0  0  0  0  0  0
   62.0033   32.5368   50.4015 H   0  0  0  0  0  0  0  0  0  0  0  0
   59.4177   32.7531   49.4532 H   0  0  0  0  0  0  0  0  0  0  0  0
   60.1790   33.8009   50.7269 H   0  0  0  0  0  0  0  0  0  0  0  0
   59.3270   35.3200   49.2890 H   0  0  0  0  0  0  0  0  0  0  0  0
   60.9210   35.1870   48.7590 H   0  0  0  0  0  0  0  0  0  0  0  0
   60.0084   36.2760   46.6508 H   0  0  0  0  0  0  0  0  0  0  0  0
   59.1942   35.6788   44.3534 H   0  0  0  0  0  0  0  0  0  0  0  0
   59.0431   32.2612   48.0405 H   0  0  0  0  0  0  0  0  0  0  0  0
   58.0638   30.1299   47.1202 H   0  0  0  0  0  0  0  0  0  0  0  0
   57.0521   28.2683   45.7646 H   0  0  0  0  0  0  0  0  0  0  0  0
   56.5090   28.6259   43.3475 H   0  0  0  0  0  0  0  0  0  0  0  0
   56.9782   30.8445   42.2617 H   0  0  0  0  0  0  0  0  0  0  0  0
   58.8930   33.0855   42.8617 H   0  0  0  0  0  0  0  0  0  0  0  0
   57.2975   33.6632   43.2203 H   0  0  0  0  0  0  0  0  0  0  0  0
  1  2  1  0
  2  3  1  0
  2  4  1  0
  4  5  1  0
  5  6  1  0
  6  7  1  0
  7  8  1  0
  8  9  2  0
  9 10  1  0
 10 11  2  0
 11 12  1  0
 12 13  2  0
 12 14  1  0
 14 15  2  0
 15 16  1  0
 16 17  2  0
 17 18  1  0
 18 19  2  0
 19 20  1  0
 13  8  1  0
 19 14  1  0
 20 11  1  0
  1 21  1  0
  1 22  1  0
  1 23  1  0
  3 24  1  0
  3 25  1  0
  3 26  1  0
  4 27  1  0
  4 28  1  0
  5 29  1  0
  5 30  1  0
  6 31  1  0
  6 32  1  0
  7 33  1  0
  7 34  1  0
  9 35  1  0
 10 36  1  0
 13 37  1  0
 15 38  1  0
 16 39  1  0
 17 40  1  0
 18 41  1  0
 20 42  1  0
 20 43  1  0
M  CHG  1   7   1
M  END
>  <UniqueID>  (27) 
27

>  <SMILES>  (27) 
CN(C)CCC[NH2+]c1ccc2c(c1)-c1ccccc1C2

>  <Energy>  (27) 
69.68007434128134

>  <Genealogy>  (27) 
CN(C)CCC[NH2+]c1ccc2c(c1)-c1ccccc1C2 (protonated)
CN(C)CCC[NH2+]c1ccc2c(c1)-c1ccccc1C2 (3D coordinates assigned)
CN(C)CCC[NH2+]c1ccc2c(c1)-c1ccccc1C2 (nonaromatic ring conformer: 69.68007434128134 kcal/mol)

>  <smiles>  (27) 
CN(C)CCCNc1ccc2c(c1)-c1ccccc1C2

>  <score_type>  (27) 
oracle

>  <origin>  (27) 
adg

>  <m_score__min__energy>  (27) 
-5.9699999999999998

>  <m_primary>  (27) 
energy

$$$$
27:0
     RDKit          3D

 46 48  0  0  0  0  0  0  0  0999 V2000
   58.1880   32.6370   48.0170 C   0  0  0  0  0  0  0  0  0  0  0  0
   58.2640   31.7600   46.7980 C   0  0  0  0  0  0  0  0  0  0  0  0
   58.6020   30.4060   46.9540 C   0  0  0  0  0  0  0  0  0  0  0  0
   58.6950   29.5660   45.8410 C   0  0  0  0  0  0  0  0  0  0  0  0
   59.1580   27.7280   46.0680 Br  0  0  0  0  0  0  0  0  0  0  0  0
   58.4560   30.0720   44.5620 C   0  0  0  0  0  0  0  0  0  0  0  0
   58.1030   31.4130   44.3910 C   0  0  0  0  0  0  0  0  0  0  0  0
   57.7670   32.0660   42.6240 Br  0  0  0  0  0  0  0  0  0  0  0  0
   57.9740   32.2580   45.5080 C   0  0  0  0  0  0  0  0  0  0  0  0
   57.5590   33.5820   45.3170 O   0  0  0  0  0  0  0  0  0  0  0  0
   58.4540   34.6160   44.9070 C   0  0  0  0  0  0  0  0  0  0  0  0
   59.5850   34.7400   45.8820 C   0  0  0  0  0  0  0  0  0  0  0  0
   59.6170   35.7270   46.6650 O   0  0  0  0  0  0  0  0  0  0  0  0
   60.5530   33.6840   45.9870 N   0  0  0  0  0  0  0  0  0  0  0  0
   61.5440   33.6110   47.0240 C   0  0  0  0  0  0  0  0  0  0  0  0
   62.8850   33.4170   46.6790 C   0  0  0  0  0  0  0  0  0  0  0  0
   63.8710   33.3530   47.6660 C   0  0  0  0  0  0  0  0  0  0  0  0
   63.5450   33.4910   49.0360 C   0  0  0  0  0  0  0  0  0  0  0  0
   64.5740   33.4220   50.0710 N   0  0  0  0  0  0  0  0  0  0  0  0
   64.3950   34.1870   51.3240 C   0  0  0  0  0  0  0  0  0  0  0  0
   65.5030   33.9490   52.3520 C   0  0  0  0  0  0  0  0  0  0  0  0
   66.7580   33.8440   51.7230 O   0  0  0  0  0  0  0  0  0  0  0  0
   66.7870   32.6430   50.9900 C   0  0  0  0  0  0  0  0  0  0  0  0
   65.8390   32.7090   49.7900 C   0  0  0  0  0  0  0  0  0  0  0  0
   62.1870   33.7180   49.3640 C   0  0  0  0  0  0  0  0  0  0  0  0
   61.2040   33.7790   48.3720 C   0  0  0  0  0  0  0  0  0  0  0  0
   58.2421   32.0132   48.9214 H   0  0  0  0  0  0  0  0  0  0  0  0
   59.0280   33.3472   48.0107 H   0  0  0  0  0  0  0  0  0  0  0  0
   57.2384   33.1921   48.0107 H   0  0  0  0  0  0  0  0  0  0  0  0
   58.7949   30.0037   47.9594 H   0  0  0  0  0  0  0  0  0  0  0  0
   58.5459   29.4128   43.6860 H   0  0  0  0  0  0  0  0  0  0  0  0
   58.8569   34.3742   43.9124 H   0  0  0  0  0  0  0  0  0  0  0  0
   57.9069   35.5696   44.8697 H   0  0  0  0  0  0  0  0  0  0  0  0
   60.4120   32.8360   45.3930 H   0  0  0  0  0  0  0  0  0  0  0  0
   63.1660   33.3138   45.6205 H   0  0  0  0  0  0  0  0  0  0  0  0
   64.9191   33.1925   47.3733 H   0  0  0  0  0  0  0  0  0  0  0  0
   64.3745   35.2587   51.0770 H   0  0  0  0  0  0  0  0  0  0  0  0
   63.4542   33.8439   51.7792 H   0  0  0  0  0  0  0  0  0  0  0  0
   65.5243   34.7907   53.0599 H   0  0  0  0  0  0  0  0  0  0  0  0
   65.2952   33.0072   52.8809 H   0  0  0  0  0  0  0  0  0  0  0  0
   67.8112   32.4662   50.6299 H   0  0  0  0  0  0  0  0  0  0  0  0
   66.4626   31.8233   51.6479 H   0  0  0  0  0  0  0  0  0  0  0  0
   66.3546   33.2271   48.9680 H   0  0  0  0  0  0  0  0  0  0  0  0
   65.5740   31.6731   49.5320 H   0  0  0  0  0  0  0  0  0  0  0  0
   61.9001   33.8487   50.4179 H   0  0  0  0  0  0  0  0  0  0  0  0
   60.1559   33.9603   48.6523 H   0  0  0  0  0  0  0  0  0  0  0  0
  1  2  1  0
  2  3  2  0
  3  4  1  0
  4  5  1  0
  4  6  2  0
  6  7  1  0
  7  8  1  0
  7  9  2  0
  9 10  1  0
 10 11  1  0
 11 12  1  0
 12 13  2  0
 12 14  1  0
 14 15  1  0
 15 16  2  0
 16 17  1  0
 17 18  2  0
 18 19  1  0
 19 20  1  0
 20 21  1  0
 21 22  1  0
 22 23  1  0
 23 24  1  0
 18 25  1  0
 25 26  2  0
  9  2  1  0
 26 15  1  0
 24 19  1  0
  1 27  1  0
  1 28  1  0
  1 29  1  0
  3 30  1  0
  6 31  1  0
 11 32  1  0
 11 33  1  0
 14 34  1  0
 16 35  1  0
 17 36  1  0
 20 37  1  0
 20 38  1  0
 21 39  1  0
 21 40  1  0
 23 41  1  0
 23 42  1  0
 24 43  1  0
 24 44  1  0
 25 45  1  0
 26 46  1  0
M  END
>  <UniqueID>  (28) 
28

>  <SMILES>  (28) 
Cc1cc(Br)cc(Br)c1OCC(=O)Nc1ccc(N2CCOCC2)cc1

>  <Energy>  (28) 
61.86780307577236

>  <Genealogy>  (28) 
Cc1cc(Br)cc(Br)c1OCC(=O)Nc1ccc(N2CCOCC2)cc1 (3D coordinates assigned)
Cc1cc(Br)cc(Br)c1OCC(=O)Nc1ccc(N2CCOCC2)cc1 (nonaromatic ring conformer: 61.86780307577236 kcal/mol)

>  <smiles>  (28) 
Cc1cc(Br)cc(Br)c1OCC(=O)Nc1ccc(N2CCOCC2)cc1

>  <score_type>  (28) 
oracle

>  <origin>  (28) 
adg

>  <m_score__min__energy>  (28) 
-9.0299999999999994

>  <m_primary>  (28) 
energy

$$$$
28:0
     RDKit          3D

 40 41  0  0  0  0  0  0  0  0999 V2000
   56.9670   30.7610   43.0960 C   0  0  0  0  0  0  0  0  0  0  0  0
   56.6220   31.2700   44.3800 O   0  0  0  0  0  0  0  0  0  0  0  0
   57.3970   32.1910   45.1010 C   0  0  0  0  0  0  0  0  0  0  0  0
   57.7200   33.4650   44.5960 C   0  0  0  0  0  0  0  0  0  0  0  0
   58.4960   34.3460   45.3540 C   0  0  0  0  0  0  0  0  0  0  0  0
   58.9640   33.9700   46.6220 C   0  0  0  0  0  0  0  0  0  0  0  0
   59.8130   34.9220   47.4250 C   0  0  0  0  0  0  0  0  0  0  0  0
   61.0990   34.2890   47.7930 N   0  0  0  0  0  0  0  0  0  0  0  0
   61.6000   33.4350   46.6920 C   0  0  0  0  0  0  0  0  0  0  0  0
   63.1290   33.3850   46.6730 C   0  0  0  0  0  0  0  0  0  0  0  0
   63.8020   33.9510   47.9440 C   0  0  0  0  0  0  0  0  0  0  0  0
   63.5180   33.2030   49.1980 N   0  0  1  0  0  0  0  0  0  0  0  0
   64.6630   33.1440   50.1290 C   0  0  0  0  0  0  0  0  0  0  0  0
   62.2580   33.5900   49.8870 C   0  0  0  0  0  0  0  0  0  0  0  0
   60.9750   33.5040   49.0420 C   0  0  0  0  0  0  0  0  0  0  0  0
   58.6400   32.7010   47.1250 C   0  0  0  0  0  0  0  0  0  0  0  0
   57.8630   31.8200   46.3680 C   0  0  0  0  0  0  0  0  0  0  0  0
   57.5806   29.8556   43.2132 H   0  0  0  0  0  0  0  0  0  0  0  0
   56.0500   30.5131   42.5413 H   0  0  0  0  0  0  0  0  0  0  0  0
   57.5369   31.5210   42.5413 H   0  0  0  0  0  0  0  0  0  0  0  0
   57.3603   33.7678   43.6015 H   0  0  0  0  0  0  0  0  0  0  0  0
   58.7415   35.3408   44.9538 H   0  0  0  0  0  0  0  0  0  0  0  0
   60.0118   35.8227   46.8256 H   0  0  0  0  0  0  0  0  0  0  0  0
   59.2729   35.1891   48.3453 H   0  0  0  0  0  0  0  0  0  0  0  0
   61.2106   32.4149   46.8252 H   0  0  0  0  0  0  0  0  0  0  0  0
   61.2567   33.8636   45.7389 H   0  0  0  0  0  0  0  0  0  0  0  0
   63.4375   32.3354   46.5587 H   0  0  0  0  0  0  0  0  0  0  0  0
   63.4536   34.0209   45.8361 H   0  0  0  0  0  0  0  0  0  0  0  0
   64.8903   33.9458   47.7838 H   0  0  0  0  0  0  0  0  0  0  0  0
   63.3836   34.9581   48.0881 H   0  0  0  0  0  0  0  0  0  0  0  0
   63.3720   32.2100   48.8960 H   0  0  0  0  0  0  0  0  0  0  0  0
   64.2944   33.1630   51.1652 H   0  0  0  0  0  0  0  0  0  0  0  0
   65.2275   32.2156   49.9576 H   0  0  0  0  0  0  0  0  0  0  0  0
   65.3199   34.0095   49.9576 H   0  0  0  0  0  0  0  0  0  0  0  0
   62.1332   32.9288   50.7572 H   0  0  0  0  0  0  0  0  0  0  0  0
   62.3741   34.6533   50.1436 H   0  0  0  0  0  0  0  0  0  0  0  0
   60.7846   32.4513   48.7860 H   0  0  0  0  0  0  0  0  0  0  0  0
   60.1434   33.9183   49.6309 H   0  0  0  0  0  0  0  0  0  0  0  0
   58.9992   32.3982   48.1196 H   0  0  0  0  0  0  0  0  0  0  0  0
   57.6155   30.8268   46.7709 H   0  0  0  0  0  0  0  0  0  0  0  0
  1  2  1  0
  2  3  1  0
  3  4  2  0
  4  5  1  0
  5  6  2  0
  6  7  1  0
  7  8  1  0
  8  9  1  0
  9 10  1  0
 10 11  1  0
 11 12  1  0
 12 13  1  0
 12 14  1  0
 14 15  1  0
  6 16  1  0
 16 17  2  0
 17  3  1  0
 15  8  1  0
  1 18  1  0
  1 19  1  0
  1 20  1  0
  4 21  1  0
  5 22  1  0
  7 23  1  0
  7 24  1  0
  9 25  1  0
  9 26  1  0
 10 27  1  0
 10 28  1  0
 11 29  1  0
 11 30  1  0
 12 31  1  6
 13 32  1  0
 13 33  1  0
 13 34  1  0
 14 35  1  0
 14 36  1  0
 15 37  1  0
 15 38  1  0
 16 39  1  0
 17 40  1  0
M  CHG  1  12   1
M  END
>  <UniqueID>  (29) 
29

>  <SMILES>  (29) 
COc1ccc(CN2CCC[N@@H+](C)CC2)cc1

>  <Energy>  (29) 
53.22019711521449

>  <Genealogy>  (29) 
COc1ccc(CN2CCC[NH+](C)CC2)cc1 (protonated)
COc1ccc(CN2CCC[N@@H+](C)CC2)cc1 (chirality)
COc1ccc(CN2CCC[N@@H+](C)CC2)cc1 (3D coordinates assigned)
COc1ccc(CN2CCC[N@@H+](C)CC2)cc1 (nonaromatic ring conformer: 53.22019711521449 kcal/mol)

>  <smiles>  (29) 
COc1ccc(CN2CCCN(C)CC2)cc1

>  <score_type>  (29) 
oracle

>  <origin>  (29) 
adg

>  <m_score__min__energy>  (29) 
-2.9700000000000002

>  <m_primary>  (29) 
energy

$$$$
29:0
     RDKit          3D

 81 86  0  0  0  0  0  0  0  0999 V2000
   65.2020   30.7190   53.4160 C   0  0  0  0  0  0  0  0  0  0  0  0
   65.4490   31.2740   52.0720 N   0  0  0  0  0  0  0  0  0  0  0  0
   66.2480   30.3250   51.2820 C   0  0  0  0  0  0  0  0  0  0  0  0
   66.1280   32.5870   52.1920 C   0  0  0  0  0  0  0  0  0  0  0  0
   66.0020   33.4350   50.9010 C   0  0  0  0  0  0  0  0  0  0  0  0
   64.6200   33.8680   50.6110 N   0  0  0  0  0  0  0  0  0  0  0  0
   63.7430   34.0330   51.7860 C   0  0  0  0  0  0  0  0  0  0  0  0
   62.8920   32.7870   52.0860 C   0  0  0  0  0  0  0  0  0  0  0  0
   62.3490   32.1430   50.8630 N   0  0  0  0  0  0  0  0  0  0  0  0
   61.1570   31.2260   50.9510 C   0  0  0  0  0  0  0  0  0  0  0  0
   60.5630   31.0120   49.5220 C   0  0  0  0  0  0  0  0  0  0  0  0
   60.6720   29.7860   48.8150 C   0  0  0  0  0  0  0  0  0  0  0  0
   60.0030   29.5860   47.6050 C   0  0  0  0  0  0  0  0  0  0  0  0
   59.2240   30.6090   47.0510 C   0  0  0  0  0  0  0  0  0  0  0  0
   58.4790   30.3860   45.8430 N   0  0  0  0  0  0  0  0  0  0  0  0
   58.3210   29.0250   45.3160 C   0  0  0  0  0  0  0  0  0  0  0  0
   56.9970   28.8960   44.5510 C   0  0  0  0  0  0  0  0  0  0  0  0
   56.1190   29.9540   44.8840 O   0  0  0  0  0  0  0  0  0  0  0  0
   56.6410   31.1800   44.4060 C   0  0  0  0  0  0  0  0  0  0  0  0
   58.0040   31.5150   45.0430 C   0  0  0  0  0  0  0  0  0  0  0  0
   59.1770   31.8570   47.6810 C   0  0  0  0  0  0  0  0  0  0  0  0
   59.8450   32.0560   48.8890 C   0  0  0  0  0  0  0  0  0  0  0  0
   61.6080   29.8400   51.5500 C   0  0  0  0  0  0  0  0  0  0  0  0
   62.9690   29.4330   51.4420 C   0  0  0  0  0  0  0  0  0  0  0  0
   63.4210   28.2140   51.9480 C   0  0  0  0  0  0  0  0  0  0  0  0
   62.5320   27.3190   52.5200 C   0  0  0  0  0  0  0  0  0  0  0  0
   61.1820   27.6180   52.5330 C   0  0  0  0  0  0  0  0  0  0  0  0
   60.7000   28.8360   52.0090 C   0  0  0  0  0  0  0  0  0  0  0  0
   59.2190   29.0280   51.9840 C   0  0  0  0  0  0  0  0  0  0  0  0
   58.8690   30.0660   53.0120 C   0  0  0  0  0  0  0  0  0  0  0  0
   58.9040   31.4430   52.4300 C   0  0  0  0  0  0  0  0  0  0  0  0
   57.7850   32.2450   52.7120 C   0  0  0  0  0  0  0  0  0  0  0  0
   57.8000   33.6100   52.4730 C   0  0  0  0  0  0  0  0  0  0  0  0
   58.9540   34.2080   52.0110 C   0  0  0  0  0  0  0  0  0  0  0  0
   60.0480   33.4300   51.6690 C   0  0  0  0  0  0  0  0  0  0  0  0
   60.0500   32.0100   51.7770 C   0  0  0  0  0  0  0  0  0  0  0  0
   62.5390   32.8980   49.6010 C   0  0  0  0  0  0  0  0  0  0  0  0
   64.0180   33.2360   49.4160 C   0  0  0  0  0  0  0  0  0  0  0  0
   65.5248   31.4444   54.1773 H   0  0  0  0  0  0  0  0  0  0  0  0
   64.1279   30.5145   53.5365 H   0  0  0  0  0  0  0  0  0  0  0  0
   65.7690   29.7842   53.5365 H   0  0  0  0  0  0  0  0  0  0  0  0
   64.5200   31.4090   51.6050 H   0  0  0  0  0  0  0  0  0  0  0  0
   66.8060   29.6623   51.9598 H   0  0  0  0  0  0  0  0  0  0  0  0
   65.5808   29.7230   50.6477 H   0  0  0  0  0  0  0  0  0  0  0  0
   66.9549   30.8799   50.6477 H   0  0  0  0  0  0  0  0  0  0  0  0
   65.6764   33.1438   53.0263 H   0  0  0  0  0  0  0  0  0  0  0  0
   67.1974   32.3979   52.3671 H   0  0  0  0  0  0  0  0  0  0  0  0
   66.6314   34.3305   51.0102 H   0  0  0  0  0  0  0  0  0  0  0  0
   66.3230   32.7979   50.0637 H   0  0  0  0  0  0  0  0  0  0  0  0
   64.3707   34.2474   52.6635 H   0  0  0  0  0  0  0  0  0  0  0  0
   63.0493   34.8571   51.5633 H   0  0  0  0  0  0  0  0  0  0  0  0
   63.5180   32.0556   52.6181 H   0  0  0  0  0  0  0  0  0  0  0  0
   62.0344   33.1142   52.6922 H   0  0  0  0  0  0  0  0  0  0  0  0
   61.2947   28.9785   49.2275 H   0  0  0  0  0  0  0  0  0  0  0  0
   60.0886   28.6204   47.0851 H   0  0  0  0  0  0  0  0  0  0  0  0
   59.1557   28.8010   44.6355 H   0  0  0  0  0  0  0  0  0  0  0  0
   58.3169   28.3158   46.1569 H   0  0  0  0  0  0  0  0  0  0  0  0
   57.2008   28.9231   43.4704 H   0  0  0  0  0  0  0  0  0  0  0  0
   56.5216   27.9433   44.8273 H   0  0  0  0  0  0  0  0  0  0  0  0
   56.7660   31.1115   43.3153 H   0  0  0  0  0  0  0  0  0  0  0  0
   55.9343   31.9785   44.6763 H   0  0  0  0  0  0  0  0  0  0  0  0
   58.7336   31.7296   44.2482 H   0  0  0  0  0  0  0  0  0  0  0  0
   57.8893   32.3937   45.6948 H   0  0  0  0  0  0  0  0  0  0  0  0
   58.6124   32.6826   47.2231 H   0  0  0  0  0  0  0  0  0  0  0  0
   59.8135   33.0486   49.3620 H   0  0  0  0  0  0  0  0  0  0  0  0
   63.6865   30.1014   50.9436 H   0  0  0  0  0  0  0  0  0  0  0  0
   64.4903   27.9620   51.8924 H   0  0  0  0  0  0  0  0  0  0  0  0
   62.8966   26.3790   52.9599 H   0  0  0  0  0  0  0  0  0  0  0  0
   60.4719   26.8940   52.9591 H   0  0  0  0  0  0  0  0  0  0  0  0
   58.9034   29.3686   50.9868 H   0  0  0  0  0  0  0  0  0  0  0  0
   58.7066   28.0806   52.2072 H   0  0  0  0  0  0  0  0  0  0  0  0
   57.8574   29.8645   53.3942 H   0  0  0  0  0  0  0  0  0  0  0  0
   59.6101   30.0138   53.8232 H   0  0  0  0  0  0  0  0  0  0  0  0
   56.8799   31.7805   53.1304 H   0  0  0  0  0  0  0  0  0  0  0  0
   56.8972   34.2129   52.6506 H   0  0  0  0  0  0  0  0  0  0  0  0
   59.0056   35.3025   51.9142 H   0  0  0  0  0  0  0  0  0  0  0  0
   60.9544   33.9308   51.2979 H   0  0  0  0  0  0  0  0  0  0  0  0
   62.1959   32.2855   48.7541 H   0  0  0  0  0  0  0  0  0  0  0  0
   61.9567   33.8302   49.6450 H   0  0  0  0  0  0  0  0  0  0  0  0
   64.5652   32.3072   49.1973 H   0  0  0  0  0  0  0  0  0  0  0  0
   64.0898   33.9587   48.5899 H   0  0  0  0  0  0  0  0  0  0  0  0
  1  2  1  0
  2  3  1  0
  2  4  1  0
  4  5  1  0
  5  6  1  0
  6  7  1  0
  7  8  1  0
  8  9  1  0
  9 10  1  0
 10 11  1  0
 11 12  2  0
 12 13  1  0
 13 14  2  0
 14 15  1  0
 15 16  1  0
 16 17  1  0
 17 18  1  0
 18 19  1  0
 19 20  1  0
 14 21  1  0
 21 22  2  0
 10 23  1  0
 23 24  2  0
 24 25  1  0
 25 26  2  0
 26 27  1  0
 27 28  2  0
 28 29  1  0
 29 30  1  0
 30 31  1  0
 31 32  2  0
 32 33  1  0
 33 34  2  0
 34 35  1  0
 35 36  2  0
  9 37  1  0
 37 38  1  0
 38  6  1  0
 36 10  1  0
 22 11  1  0
 28 23  1  0
 36 31  1  0
 20 15  1  0
  1 39  1  0
  1 40  1  0
  1 41  1  0
  2 42  1  0
  3 43  1  0
  3 44  1  0
  3 45  1  0
  4 46  1  0
  4 47  1  0
  5 48  1  0
  5 49  1  0
  7 50  1  0
  7 51  1  0
  8 52  1  0
  8 53  1  0
 12 54  1  0
 13 55  1  0
 16 56  1  0
 16 57  1  0
 17 58  1  0
 17 59  1  0
 19 60  1  0
 19 61  1  0
 20 62  1  0
 20 63  1  0
 21 64  1  0
 22 65  1  0
 24 66  1  0
 25 67  1  0
 26 68  1  0
 27 69  1  0
 29 70  1  0
 29 71  1  0
 30 72  1  0
 30 73  1  0
 32 74  1  0
 33 75  1  0
 34 76  1  0
 35 77  1  0
 37 78  1  0
 37 79  1  0
 38 80  1  0
 38 81  1  0
M  CHG  1   2   1
M  END
>  <UniqueID>  (30) 
30

>  <SMILES>  (30) 
C[NH+](C)CCN1CCN(C2(c3ccc(N4CCOCC4)cc3)c3ccccc3CCc3ccccc32)CC1

>  <Energy>  (30) 
169.34866915890166

>  <Genealogy>  (30) 
C[NH+](C)CCN1CCN(C2(c3ccc(N4CCOCC4)cc3)c3ccccc3CCc3ccccc32)CC1 (protonated)
C[NH+](C)CCN1CCN(C2(c3ccc(N4CCOCC4)cc3)c3ccccc3CCc3ccccc32)CC1 (3D coordinates assigned)
C[NH+](C)CCN1CCN(C2(c3ccc(N4CCOCC4)cc3)c3ccccc3CCc3ccccc32)CC1 (nonaromatic ring conformer: 169.34866915890166 kcal/mol)

>  <smiles>  (30) 
CN(C)CCN1CCN(C2(c3ccc(N4CCOCC4)cc3)c3ccccc3CCc3ccccc32)CC1

>  <score_type>  (30) 
oracle

>  <origin>  (30) 
adg

>  <m_score__min__energy>  (30) 
-5.5499999999999998

>  <m_primary>  (30) 
energy

$$$$
30:0
     RDKit          3D

 30 32  0  0  0  0  0  0  0  0999 V2000
   57.7697   27.4251   43.3715 H   0  0  0  0  0  0  0  0  0  0  0  0
   57.4790   27.6110   44.4160 C   0  0  0  0  0  0  0  0  0  0  0  0
   57.1860   28.8710   44.7720 C   0  0  0  0  0  0  0  0  0  0  0  0
   56.1770   29.7180   44.1660 C   0  0  0  0  0  0  0  0  0  0  0  0
   55.3450   29.3910   43.2800 O   0  0  0  0  0  0  0  0  0  0  0  0
   56.3010   30.9850   44.6990 O   0  0  0  0  0  0  0  0  0  0  0  0
   57.3070   30.9860   45.6410 N   0  0  0  0  0  0  0  0  0  0  0  0
   57.8330   29.8020   45.7230 C   0  0  0  0  0  0  0  0  0  0  0  0
   58.8380   29.4730   46.7510 C   0  0  0  0  0  0  0  0  0  0  0  0
   58.6720   28.3350   47.5560 C   0  0  0  0  0  0  0  0  0  0  0  0
   57.7963   27.6848   47.4131 H   0  0  0  0  0  0  0  0  0  0  0  0
   59.6170   28.0260   48.5390 C   0  0  0  0  0  0  0  0  0  0  0  0
   59.4765   27.1407   49.1766 H   0  0  0  0  0  0  0  0  0  0  0  0
   60.7400   28.8400   48.7130 C   0  0  0  0  0  0  0  0  0  0  0  0
   61.4772   28.6007   49.4936 H   0  0  0  0  0  0  0  0  0  0  0  0
   60.9260   29.9580   47.8950 C   0  0  0  0  0  0  0  0  0  0  0  0
   61.8139   30.5938   48.0268 H   0  0  0  0  0  0  0  0  0  0  0  0
   59.9840   30.2690   46.9090 C   0  0  0  0  0  0  0  0  0  0  0  0
   60.1413   31.1397   46.2554 H   0  0  0  0  0  0  0  0  0  0  0  0
   57.4360   26.4600   45.3360 C   0  0  0  0  0  0  0  0  0  0  0  0
   58.5890   25.6770   45.5040 C   0  0  0  0  0  0  0  0  0  0  0  0
   59.5107   25.9353   44.9620 H   0  0  0  0  0  0  0  0  0  0  0  0
   58.5700   24.5710   46.3570 C   0  0  0  0  0  0  0  0  0  0  0  0
   59.4713   23.9509   46.4714 H   0  0  0  0  0  0  0  0  0  0  0  0
   57.4080   24.2500   47.0660 C   0  0  0  0  0  0  0  0  0  0  0  0
   57.3890   23.1450   47.9070 O   0  0  0  0  0  0  0  0  0  0  0  0
   56.2670   25.0470   46.9330 C   0  0  0  0  0  0  0  0  0  0  0  0
   55.3563   24.7994   47.4981 H   0  0  0  0  0  0  0  0  0  0  0  0
   56.2800   26.1590   46.0830 C   0  0  0  0  0  0  0  0  0  0  0  0
   55.1470   26.9600   45.9920 O   0  0  0  0  0  0  0  0  0  0  0  0
  1  2  1  0
  2  3  2  0
  3  4  1  0
  4  5  2  0
  4  6  1  0
  6  7  1  0
  7  8  2  0
  8  9  1  0
  9 10  2  0
 10 11  1  0
 10 12  1  0
 12 13  1  0
 12 14  2  0
 14 15  1  0
 14 16  1  0
 16 17  1  0
 16 18  2  0
 18 19  1  0
  2 20  1  0
 20 21  2  0
 21 22  1  0
 21 23  1  0
 23 24  1  0
 23 25  2  0
 25 26  1  0
 25 27  1  0
 27 28  1  0
 27 29  2  0
 29 30  1  0
  8  3  1  0
 18  9  1  0
 29 20  1  0
M  CHG  2  26  -1  30  -1
M  END
>  <UniqueID>  (31) 
31

>  <SMILES>  (31) 
O=C1ON=C(c2ccccc2)/C1=C\c1ccc([O-])cc1[O-]

>  <Energy>  (31) 
75.14369561006164

>  <Genealogy>  (31) 
O=C1ON=C(c2ccccc2)C1=Cc1ccc([O-])cc1[O-] (protonated)
O=C1ON=C(c2ccccc2)/C1=C\c1ccc([O-])cc1[O-] (cis-trans isomerization)
O=C1ON=C(c2ccccc2)/C1=C\c1ccc([O-])cc1[O-] (3D coordinates assigned)
O=C1ON=C(c2ccccc2)/C1=C\c1ccc([O-])cc1[O-] (nonaromatic ring conformer: 75.14369561006164 kcal/mol)

>  <smiles>  (31) 
O=C1ON=C(c2ccccc2)C1=Cc1ccc(O)cc1O

>  <score_type>  (31) 
oracle

>  <origin>  (31) 
adg

>  <m_score__min__energy>  (31) 
-13.109999999999999

>  <m_primary>  (31) 
energy

$$$$
31:0
     RDKit          3D

 66 70  0  0  0  0  0  0  0  0999 V2000
   56.1750   23.0310   48.0280 C   0  0  0  0  0  0  0  0  0  0  0  0
   57.3530   23.8150   47.8710 O   0  0  0  0  0  0  0  0  0  0  0  0
   57.3980   25.0550   47.2160 C   0  0  0  0  0  0  0  0  0  0  0  0
   58.4610   25.9620   47.3880 C   0  0  0  0  0  0  0  0  0  0  0  0
   58.4610   27.1860   46.7130 C   0  0  0  0  0  0  0  0  0  0  0  0
   57.4000   27.5240   45.8550 C   0  0  0  0  0  0  0  0  0  0  0  0
   57.3940   28.8160   45.1390 C   0  0  0  0  0  0  0  0  0  0  0  0
   57.8810   29.9650   45.6600 N   0  0  0  0  0  0  0  0  0  0  0  0
   57.6720   30.8650   44.6800 C   0  0  0  0  0  0  0  0  0  0  0  0
   58.0220   32.3250   44.8020 C   0  0  0  0  0  0  0  0  0  0  0  0
   58.5110   32.6560   46.1600 N   0  0  0  0  0  0  0  0  0  0  0  0
   58.3800   34.1080   46.4400 C   0  0  0  0  0  0  0  0  0  0  0  0
   59.2250   34.5510   47.6520 C   0  0  0  0  0  0  0  0  0  0  0  0
   59.5360   33.3900   48.5160 N   0  0  0  0  0  0  0  0  0  0  0  0
   60.1770   33.8230   49.7900 C   0  0  0  0  0  0  0  0  0  0  0  0
   59.3960   33.3550   51.0090 C   0  0  0  0  0  0  0  0  0  0  0  0
   58.4540   32.3110   50.9170 C   0  0  0  0  0  0  0  0  0  0  0  0
   57.7740   31.8710   52.0550 C   0  0  0  0  0  0  0  0  0  0  0  0
   58.0320   32.4560   53.2970 C   0  0  0  0  0  0  0  0  0  0  0  0
   58.9760   33.4810   53.4030 C   0  0  0  0  0  0  0  0  0  0  0  0
   59.6590   33.9250   52.2670 C   0  0  0  0  0  0  0  0  0  0  0  0
   61.5980   33.2960   49.9280 C   0  0  0  0  0  0  0  0  0  0  0  0
   61.8700   32.1230   50.6560 C   0  0  0  0  0  0  0  0  0  0  0  0
   63.1840   31.6690   50.8010 C   0  0  0  0  0  0  0  0  0  0  0  0
   64.2390   32.3850   50.2320 C   0  0  0  0  0  0  0  0  0  0  0  0
   63.9830   33.5590   49.5170 C   0  0  0  0  0  0  0  0  0  0  0  0
   62.6690   34.0150   49.3690 C   0  0  0  0  0  0  0  0  0  0  0  0
   60.4080   32.4530   47.7610 C   0  0  0  0  0  0  0  0  0  0  0  0
   59.9160   32.2320   46.3120 C   0  0  0  0  0  0  0  0  0  0  0  0
   57.0680   30.2350   43.6110 C   0  0  0  0  0  0  0  0  0  0  0  0
   56.6420   30.8430   42.3150 C   0  0  0  0  0  0  0  0  0  0  0  0
   56.9110   28.9750   43.9250 O   0  0  0  0  0  0  0  0  0  0  0  0
   56.3420   26.6180   45.6860 C   0  0  0  0  0  0  0  0  0  0  0  0
   56.3440   25.3940   46.3610 C   0  0  0  0  0  0  0  0  0  0  0  0
   55.9668   22.8925   49.0992 H   0  0  0  0  0  0  0  0  0  0  0  0
   55.3264   23.5451   47.5531 H   0  0  0  0  0  0  0  0  0  0  0  0
   56.3216   22.0497   47.5531 H   0  0  0  0  0  0  0  0  0  0  0  0
   59.2958   25.7061   48.0570 H   0  0  0  0  0  0  0  0  0  0  0  0
   59.2957   27.8885   46.8539 H   0  0  0  0  0  0  0  0  0  0  0  0
   58.8077   32.5662   44.0709 H   0  0  0  0  0  0  0  0  0  0  0  0
   57.1131   32.9142   44.6102 H   0  0  0  0  0  0  0  0  0  0  0  0
   57.9340   32.1210   46.8550 H   0  0  0  0  0  0  0  0  0  0  0  0
   58.7109   34.6700   45.5542 H   0  0  0  0  0  0  0  0  0  0  0  0
   57.3246   34.3108   46.6745 H   0  0  0  0  0  0  0  0  0  0  0  0
   60.1640   34.9989   47.2949 H   0  0  0  0  0  0  0  0  0  0  0  0
   58.6531   35.2873   48.2358 H   0  0  0  0  0  0  0  0  0  0  0  0
   60.1882   34.9221   49.7468 H   0  0  0  0  0  0  0  0  0  0  0  0
   58.2530   31.8399   49.9435 H   0  0  0  0  0  0  0  0  0  0  0  0
   57.0334   31.0618   51.9730 H   0  0  0  0  0  0  0  0  0  0  0  0
   57.4925   32.1101   54.1910 H   0  0  0  0  0  0  0  0  0  0  0  0
   59.1819   33.9390   54.3817 H   0  0  0  0  0  0  0  0  0  0  0  0
   60.4075   34.7260   52.3580 H   0  0  0  0  0  0  0  0  0  0  0  0
   61.0434   31.5598   51.1138 H   0  0  0  0  0  0  0  0  0  0  0  0
   63.3872   30.7462   51.3642 H   0  0  0  0  0  0  0  0  0  0  0  0
   65.2722   32.0253   50.3463 H   0  0  0  0  0  0  0  0  0  0  0  0
   64.8148   34.1239   49.0710 H   0  0  0  0  0  0  0  0  0  0  0  0
   62.4723   34.9426   48.8114 H   0  0  0  0  0  0  0  0  0  0  0  0
   61.4271   32.8658   47.7294 H   0  0  0  0  0  0  0  0  0  0  0  0
   60.3838   31.4815   48.2764 H   0  0  0  0  0  0  0  0  0  0  0  0
   60.5448   32.8178   45.6254 H   0  0  0  0  0  0  0  0  0  0  0  0
   59.9855   31.1594   46.0781 H   0  0  0  0  0  0  0  0  0  0  0  0
   56.0210   31.7293   42.5123 H   0  0  0  0  0  0  0  0  0  0  0  0
   57.5312   31.1391   41.7391 H   0  0  0  0  0  0  0  0  0  0  0  0
   56.0600   30.1084   41.7391 H   0  0  0  0  0  0  0  0  0  0  0  0
   55.5058   26.8725   45.0182 H   0  0  0  0  0  0  0  0  0  0  0  0
   55.5097   24.6914   46.2187 H   0  0  0  0  0  0  0  0  0  0  0  0
  1  2  1  0
  2  3  1  0
  3  4  2  0
  4  5  1  0
  5  6  2  0
  6  7  1  0
  7  8  2  0
  8  9  1  0
  9 10  1  0
 10 11  1  0
 11 12  1  0
 12 13  1  0
 13 14  1  0
 14 15  1  0
 15 16  1  0
 16 17  2  0
 17 18  1  0
 18 19  2  0
 19 20  1  0
 20 21  2  0
 15 22  1  0
 22 23  2  0
 23 24  1  0
 24 25  2  0
 25 26  1  0
 26 27  2  0
 14 28  1  0
 28 29  1  0
  9 30  2  0
 30 31  1  0
 30 32  1  0
  6 33  1  0
 33 34  2  0
 34  3  1  0
 32  7  1  0
 29 11  1  0
 21 16  1  0
 27 22  1  0
  1 35  1  0
  1 36  1  0
  1 37  1  0
  4 38  1  0
  5 39  1  0
 10 40  1  0
 10 41  1  0
 11 42  1  0
 12 43  1  0
 12 44  1  0
 13 45  1  0
 13 46  1  0
 15 47  1  0
 17 48  1  0
 18 49  1  0
 19 50  1  0
 20 51  1  0
 21 52  1  0
 23 53  1  0
 24 54  1  0
 25 55  1  0
 26 56  1  0
 27 57  1  0
 28 58  1  0
 28 59  1  0
 29 60  1  0
 29 61  1  0
 31 62  1  0
 31 63  1  0
 31 64  1  0
 33 65  1  0
 34 66  1  0
M  CHG  1  11   1
M  END
>  <UniqueID>  (32) 
32

>  <SMILES>  (32) 
COc1ccc(-c2nc(C[NH+]3CCN(C(c4ccccc4)c4ccccc4)CC3)c(C)o2)cc1

>  <Energy>  (32) 
111.57230796156226

>  <Genealogy>  (32) 
COc1ccc(-c2nc(C[NH+]3CCN(C(c4ccccc4)c4ccccc4)CC3)c(C)o2)cc1 (protonated)
COc1ccc(-c2nc(C[NH+]3CCN(C(c4ccccc4)c4ccccc4)CC3)c(C)o2)cc1 (3D coordinates assigned)
COc1ccc(-c2nc(C[NH+]3CCN(C(c4ccccc4)c4ccccc4)CC3)c(C)o2)cc1 (nonaromatic ring conformer: 111.57230796156226 kcal/mol)

>  <smiles>  (32) 
COc1ccc(-c2nc(CN3CCN(C(c4ccccc4)c4ccccc4)CC3)c(C)o2)cc1

>  <score_type>  (32) 
oracle

>  <origin>  (32) 
adg

>  <m_score__min__energy>  (32) 
-7.6600000000000001

>  <m_primary>  (32) 
energy

$$$$
32:0
     RDKit          3D

 48 51  0  0  0  0  0  0  0  0999 V2000
   57.4570   24.8230   44.0560 C   0  0  0  0  0  0  0  0  0  0  0  0
   57.8610   26.0530   44.7240 N   0  0  0  0  0  0  0  0  0  0  0  0
   58.5870   26.1340   45.8610 C   0  0  0  0  0  0  0  0  0  0  0  0
   58.6580   27.4650   46.2160 C   0  0  0  0  0  0  0  0  0  0  0  0
   57.9220   28.1390   45.2800 C   0  0  0  0  0  0  0  0  0  0  0  0
   57.4440   27.2630   44.3780 N   0  0  0  0  0  0  0  0  0  0  0  0
   57.6520   29.6130   45.3340 C   0  0  2  0  0  0  0  0  0  0  0  0
   58.2420   30.3360   44.1040 C   0  0  0  0  0  0  0  0  0  0  0  0
   57.2630   31.1620   43.4980 O   0  0  0  0  0  0  0  0  0  0  0  0
   57.7920   32.4370   43.1820 C   0  0  0  0  0  0  0  0  0  0  0  0
   58.1360   33.1890   44.4400 C   0  0  0  0  0  0  0  0  0  0  0  0
   57.3160   33.0880   45.5720 C   0  0  0  0  0  0  0  0  0  0  0  0
   57.6280   33.8060   46.7270 C   0  0  0  0  0  0  0  0  0  0  0  0
   58.7580   34.6270   46.7370 C   0  0  0  0  0  0  0  0  0  0  0  0
   59.5420   34.7210   45.6300 N   0  0  0  0  0  0  0  0  0  0  0  0
   59.2600   34.0300   44.4940 C   0  0  0  0  0  0  0  0  0  0  0  0
   58.1530   30.2100   46.6890 C   0  0  0  0  0  0  0  0  0  0  0  0
   59.3690   29.5600   47.2620 N   0  0  0  0  0  0  0  0  0  0  0  0
   60.6280   29.8660   46.5500 C   0  0  0  0  0  0  0  0  0  0  0  0
   61.3030   31.0900   47.1060 C   0  0  0  0  0  0  0  0  0  0  0  0
   62.6970   31.2570   47.1230 C   0  0  0  0  0  0  0  0  0  0  0  0
   63.1050   32.4580   47.6840 C   0  0  0  0  0  0  0  0  0  0  0  0
   61.7320   33.3090   48.1480 S   0  0  0  0  0  0  0  0  0  0  0  0
   60.6080   32.1700   47.6430 C   0  0  0  0  0  0  0  0  0  0  0  0
   59.1910   28.1020   47.4560 C   0  0  0  0  0  0  0  0  0  0  0  0
   57.2069   24.0616   44.8095 H   0  0  0  0  0  0  0  0  0  0  0  0
   56.5762   25.0196   43.4271 H   0  0  0  0  0  0  0  0  0  0  0  0
   58.2828   24.4590   43.4271 H   0  0  0  0  0  0  0  0  0  0  0  0
   59.0392   25.2914   46.4047 H   0  0  0  0  0  0  0  0  0  0  0  0
   56.8180   27.4750   43.5690 H   0  0  0  0  0  0  0  0  0  0  0  0
   56.5650   29.7765   45.2919 H   0  0  0  0  0  0  0  0  0  0  0  0
   59.0927   30.9565   44.4222 H   0  0  0  0  0  0  0  0  0  0  0  0
   58.5743   29.5833   43.3739 H   0  0  0  0  0  0  0  0  0  0  0  0
   58.7005   32.3120   42.5745 H   0  0  0  0  0  0  0  0  0  0  0  0
   57.0373   33.0072   42.6205 H   0  0  0  0  0  0  0  0  0  0  0  0
   56.4258   32.4422   45.5499 H   0  0  0  0  0  0  0  0  0  0  0  0
   56.9909   33.7263   47.6202 H   0  0  0  0  0  0  0  0  0  0  0  0
   59.0140   35.1982   47.6415 H   0  0  0  0  0  0  0  0  0  0  0  0
   59.9135   34.1295   43.6148 H   0  0  0  0  0  0  0  0  0  0  0  0
   58.3804   31.2741   46.5281 H   0  0  0  0  0  0  0  0  0  0  0  0
   57.3449   30.0368   47.4149 H   0  0  0  0  0  0  0  0  0  0  0  0
   61.3097   29.0083   46.6482 H   0  0  0  0  0  0  0  0  0  0  0  0
   60.3847   30.0601   45.4949 H   0  0  0  0  0  0  0  0  0  0  0  0
   63.3985   30.5069   46.7290 H   0  0  0  0  0  0  0  0  0  0  0  0
   64.1453   32.7947   47.8042 H   0  0  0  0  0  0  0  0  0  0  0  0
   59.5146   32.2608   47.7223 H   0  0  0  0  0  0  0  0  0  0  0  0
   60.1623   27.6498   47.7052 H   0  0  0  0  0  0  0  0  0  0  0  0
   58.4729   27.9395   48.2733 H   0  0  0  0  0  0  0  0  0  0  0  0
  1  2  1  0
  2  3  1  0
  3  4  2  0
  4  5  1  0
  5  6  2  0
  5  7  1  0
  7  8  1  0
  8  9  1  0
  9 10  1  0
 10 11  1  0
 11 12  2  0
 12 13  1  0
 13 14  2  0
 14 15  1  0
 15 16  2  0
  7 17  1  0
 17 18  1  0
 18 19  1  0
 19 20  1  0
 20 21  1  0
 21 22  2  0
 22 23  1  0
 23 24  1  0
 18 25  1  0
  6  2  1  0
 16 11  1  0
 24 20  2  0
 25  4  1  0
  1 26  1  0
  1 27  1  0
  1 28  1  0
  3 29  1  0
  6 30  1  0
  7 31  1  1
  8 32  1  0
  8 33  1  0
 10 34  1  0
 10 35  1  0
 12 36  1  0
 13 37  1  0
 14 38  1  0
 16 39  1  0
 17 40  1  0
 17 41  1  0
 19 42  1  0
 19 43  1  0
 21 44  1  0
 22 45  1  0
 24 46  1  0
 25 47  1  0
 25 48  1  0
M  CHG  1   6   1
M  END
>  <UniqueID>  (33) 
33

>  <SMILES>  (33) 
Cn1cc2c([nH+]1)[C@H](COCc1cccnc1)CN(Cc1ccsc1)C2

>  <Energy>  (33) 
118.82310326979803

>  <Genealogy>  (33) 
Cn1cc2c([nH+]1)C(COCc1cccnc1)CN(Cc1ccsc1)C2 (protonated)
Cn1cc2c([nH+]1)[C@H](COCc1cccnc1)CN(Cc1ccsc1)C2 (chirality)
Cn1cc2c([nH+]1)[C@H](COCc1cccnc1)CN(Cc1ccsc1)C2 (3D coordinates assigned)
Cn1cc2c([nH+]1)[C@H](COCc1cccnc1)CN(Cc1ccsc1)C2 (nonaromatic ring conformer: 118.82310326979803 kcal/mol)

>  <smiles>  (33) 
Cn1cc2c(n1)C(COCc1cccnc1)CN(Cc1ccsc1)C2

>  <score_type>  (33) 
oracle

>  <origin>  (33) 
adg

>  <m_score__min__energy>  (33) 
-6.2400000000000002

>  <m_primary>  (33) 
energy

$$$$
33:0
     RDKit          3D

 41 41  0  0  0  0  0  0  0  0999 V2000
   63.3920   33.8030   46.4770 C   0  0  0  0  0  0  0  0  0  0  0  0
   63.3350   32.3960   47.0850 C   0  0  0  0  0  0  0  0  0  0  0  0
   62.5790   32.3690   48.3660 N   0  0  0  0  0  0  0  0  0  0  0  0
   62.2880   30.9850   48.8230 C   0  0  0  0  0  0  0  0  0  0  0  0
   62.1290   30.8260   50.3370 C   0  0  0  0  0  0  0  0  0  0  0  0
   63.0880   33.2630   49.4560 C   0  0  0  0  0  0  0  0  0  0  0  0
   62.3000   34.5620   49.7380 C   0  0  0  0  0  0  0  0  0  0  0  0
   61.0840   34.5810   49.0250 O   0  0  0  0  0  0  0  0  0  0  0  0
   60.0070   34.1890   49.8570 C   0  0  0  0  0  0  0  0  0  0  0  0
   59.3270   32.9240   49.3230 C   0  0  0  0  0  0  0  0  0  0  0  0
   59.8860   32.5370   48.0660 O   0  0  0  0  0  0  0  0  0  0  0  0
   59.1850   31.9540   46.9970 C   0  0  0  0  0  0  0  0  0  0  0  0
   58.8320   30.5890   46.9780 C   0  0  0  0  0  0  0  0  0  0  0  0
   58.1100   30.0610   45.9050 C   0  0  0  0  0  0  0  0  0  0  0  0
   57.7400   30.8810   44.8370 C   0  0  0  0  0  0  0  0  0  0  0  0
   56.7370   30.1600   43.3810 Br  0  0  0  0  0  0  0  0  0  0  0  0
   58.1030   32.2300   44.8360 C   0  0  0  0  0  0  0  0  0  0  0  0
   58.8270   32.7640   45.9080 C   0  0  0  0  0  0  0  0  0  0  0  0
   59.2890   34.6210   45.8850 Br  0  0  0  0  0  0  0  0  0  0  0  0
   63.4223   34.5501   47.2838 H   0  0  0  0  0  0  0  0  0  0  0  0
   64.2947   33.8976   45.8556 H   0  0  0  0  0  0  0  0  0  0  0  0
   62.4999   33.9703   45.8556 H   0  0  0  0  0  0  0  0  0  0  0  0
   62.8440   31.7202   46.3693 H   0  0  0  0  0  0  0  0  0  0  0  0
   64.3664   32.0758   47.2941 H   0  0  0  0  0  0  0  0  0  0  0  0
   61.6260   32.7400   48.1350 H   0  0  0  0  0  0  0  0  0  0  0  0
   61.3532   30.6568   48.3450 H   0  0  0  0  0  0  0  0  0  0  0  0
   63.1594   30.3768   48.5389 H   0  0  0  0  0  0  0  0  0  0  0  0
   62.8163   31.5133   50.8520 H   0  0  0  0  0  0  0  0  0  0  0  0
   61.0931   31.0603   50.6235 H   0  0  0  0  0  0  0  0  0  0  0  0
   62.3633   29.7901   50.6235 H   0  0  0  0  0  0  0  0  0  0  0  0
   63.0991   32.6756   50.3860 H   0  0  0  0  0  0  0  0  0  0  0  0
   64.0729   33.6030   49.1033 H   0  0  0  0  0  0  0  0  0  0  0  0
   62.0863   34.6263   50.8151 H   0  0  0  0  0  0  0  0  0  0  0  0
   62.9094   35.4185   49.4138 H   0  0  0  0  0  0  0  0  0  0  0  0
   60.3891   33.9910   50.8693 H   0  0  0  0  0  0  0  0  0  0  0  0
   59.2662   35.0020   49.8745 H   0  0  0  0  0  0  0  0  0  0  0  0
   59.4669   32.1071   50.0463 H   0  0  0  0  0  0  0  0  0  0  0  0
   58.2563   33.1330   49.1823 H   0  0  0  0  0  0  0  0  0  0  0  0
   59.1268   29.9362   47.8128 H   0  0  0  0  0  0  0  0  0  0  0  0
   57.8322   28.9967   45.9014 H   0  0  0  0  0  0  0  0  0  0  0  0
   57.8191   32.8740   43.9906 H   0  0  0  0  0  0  0  0  0  0  0  0
  1  2  1  0
  2  3  1  0
  3  4  1  0
  4  5  1  0
  3  6  1  0
  6  7  1  0
  7  8  1  0
  8  9  1  0
  9 10  1  0
 10 11  1  0
 11 12  1  0
 12 13  2  0
 13 14  1  0
 14 15  2  0
 15 16  1  0
 15 17  1  0
 17 18  2  0
 18 19  1  0
 18 12  1  0
  1 20  1  0
  1 21  1  0
  1 22  1  0
  2 23  1  0
  2 24  1  0
  3 25  1  0
  4 26  1  0
  4 27  1  0
  5 28  1  0
  5 29  1  0
  5 30  1  0
  6 31  1  0
  6 32  1  0
  7 33  1  0
  7 34  1  0
  9 35  1  0
  9 36  1  0
 10 37  1  0
 10 38  1  0
 13 39  1  0
 14 40  1  0
 17 41  1  0
M  CHG  1   3   1
M  END
>  <UniqueID>  (34) 
34

>  <SMILES>  (34) 
CC[NH+](CC)CCOCCOc1ccc(Br)cc1Br

>  <Energy>  (34) 
46.516579699474356

>  <Genealogy>  (34) 
CC[NH+](CC)CCOCCOc1ccc(Br)cc1Br (protonated)
CC[NH+](CC)CCOCCOc1ccc(Br)cc1Br (3D coordinates assigned)
CC[NH+](CC)CCOCCOc1ccc(Br)cc1Br (optimized conformer: 46.516579699474356 kcal/mol)

>  <smiles>  (34) 
CCN(CC)CCOCCOc1ccc(Br)cc1Br

>  <score_type>  (34) 
oracle

>  <origin>  (34) 
adg

>  <m_score__min__energy>  (34) 
-3.73

>  <m_primary>  (34) 
energy

$$$$
34:0
     RDKit          3D

 47 48  0  0  0  0  0  0  0  0999 V2000
   60.4760   30.1680   46.8020 C   0  0  0  0  0  0  0  0  0  0  0  0
   59.0940   29.5240   46.9840 C   0  0  0  0  0  0  0  0  0  0  0  0
   58.3970   29.2190   45.7120 N   0  0  0  0  0  0  0  0  0  0  0  0
   58.0890   27.7840   45.5480 C   0  0  0  0  0  0  0  0  0  0  0  0
   58.1130   27.3940   44.0710 C   0  0  0  0  0  0  0  0  0  0  0  0
   59.0540   29.8250   44.5290 C   0  0  0  0  0  0  0  0  0  0  0  0
   58.3040   31.0900   44.1090 C   0  0  0  0  0  0  0  0  0  0  0  0
   57.0380   31.1980   44.8730 N   0  0  0  0  0  0  0  0  0  0  0  0
   55.9320   30.5400   44.1610 C   0  0  0  0  0  0  0  0  0  0  0  0
   56.6930   32.6000   45.1780 C   0  0  0  0  0  0  0  0  0  0  0  0
   57.9390   33.3730   45.4790 C   0  0  0  0  0  0  0  0  0  0  0  0
   58.2950   34.5890   44.9340 C   0  0  0  0  0  0  0  0  0  0  0  0
   59.5360   34.8810   45.4580 C   0  0  0  0  0  0  0  0  0  0  0  0
   59.8580   33.8240   46.2950 C   0  0  0  0  0  0  0  0  0  0  0  0
   61.1170   33.6580   47.0610 C   0  0  0  0  0  0  0  0  0  0  0  0
   62.3490   33.6690   46.3780 C   0  0  0  0  0  0  0  0  0  0  0  0
   63.5480   33.4780   47.0680 C   0  0  0  0  0  0  0  0  0  0  0  0
   63.5360   33.2760   48.4470 C   0  0  0  0  0  0  0  0  0  0  0  0
   62.3260   33.2660   49.1420 C   0  0  0  0  0  0  0  0  0  0  0  0
   61.1160   33.4560   48.4620 C   0  0  0  0  0  0  0  0  0  0  0  0
   59.6390   33.4830   49.4210 Cl  0  0  0  0  0  0  0  0  0  0  0  0
   58.8800   32.9460   46.2870 O   0  0  0  0  0  0  0  0  0  0  0  0
   60.9174   30.3737   47.7883 H   0  0  0  0  0  0  0  0  0  0  0  0
   61.1297   29.4817   46.2436 H   0  0  0  0  0  0  0  0  0  0  0  0
   60.3709   31.1099   46.2436 H   0  0  0  0  0  0  0  0  0  0  0  0
   59.2212   28.5847   47.5422 H   0  0  0  0  0  0  0  0  0  0  0  0
   58.4711   30.2552   47.5200 H   0  0  0  0  0  0  0  0  0  0  0  0
   58.8381   27.1891   46.0911 H   0  0  0  0  0  0  0  0  0  0  0  0
   57.0838   27.5890   45.9499 H   0  0  0  0  0  0  0  0  0  0  0  0
   58.1803   26.2997   43.9818 H   0  0  0  0  0  0  0  0  0  0  0  0
   57.1915   27.7456   43.5839 H   0  0  0  0  0  0  0  0  0  0  0  0
   58.9844   27.8559   43.5839 H   0  0  0  0  0  0  0  0  0  0  0  0
   60.0930   30.0836   44.7812 H   0  0  0  0  0  0  0  0  0  0  0  0
   59.0418   29.1038   43.6985 H   0  0  0  0  0  0  0  0  0  0  0  0
   58.9303   31.9710   44.3130 H   0  0  0  0  0  0  0  0  0  0  0  0
   58.0771   31.0386   43.0339 H   0  0  0  0  0  0  0  0  0  0  0  0
   55.2248   30.1193   44.8910 H   0  0  0  0  0  0  0  0  0  0  0  0
   55.4128   31.2762   43.5298 H   0  0  0  0  0  0  0  0  0  0  0  0
   56.3312   29.7324   43.5298 H   0  0  0  0  0  0  0  0  0  0  0  0
   56.1852   33.0483   44.3113 H   0  0  0  0  0  0  0  0  0  0  0  0
   56.0266   32.6288   46.0527 H   0  0  0  0  0  0  0  0  0  0  0  0
   57.7108   35.1983   44.2287 H   0  0  0  0  0  0  0  0  0  0  0  0
   60.1472   35.7724   45.2534 H   0  0  0  0  0  0  0  0  0  0  0  0
   62.3668   33.8297   45.2899 H   0  0  0  0  0  0  0  0  0  0  0  0
   64.5031   33.4870   46.5225 H   0  0  0  0  0  0  0  0  0  0  0  0
   64.4816   33.1243   48.9882 H   0  0  0  0  0  0  0  0  0  0  0  0
   62.3222   33.1079   50.2306 H   0  0  0  0  0  0  0  0  0  0  0  0
  1  2  1  0
  2  3  1  0
  3  4  1  0
  4  5  1  0
  3  6  1  0
  6  7  1  0
  7  8  1  0
  8  9  1  0
  8 10  1  0
 10 11  1  0
 11 12  2  0
 12 13  1  0
 13 14  2  0
 14 15  1  0
 15 16  2  0
 16 17  1  0
 17 18  2  0
 18 19  1  0
 19 20  2  0
 20 21  1  0
 14 22  1  0
 22 11  1  0
 20 15  1  0
  1 23  1  0
  1 24  1  0
  1 25  1  0
  2 26  1  0
  2 27  1  0
  4 28  1  0
  4 29  1  0
  5 30  1  0
  5 31  1  0
  5 32  1  0
  6 33  1  0
  6 34  1  0
  7 35  1  0
  7 36  1  0
  9 37  1  0
  9 38  1  0
  9 39  1  0
 10 40  1  0
 10 41  1  0
 12 42  1  0
 13 43  1  0
 16 44  1  0
 17 45  1  0
 18 46  1  0
 19 47  1  0
M  END
>  <UniqueID>  (35) 
35

>  <SMILES>  (35) 
CCN(CC)CCN(C)Cc1ccc(-c2ccccc2Cl)o1

>  <Energy>  (35) 
72.91975961370765

>  <Genealogy>  (35) 
CCN(CC)CCN(C)Cc1ccc(-c2ccccc2Cl)o1 (3D coordinates assigned)
CCN(CC)CCN(C)Cc1ccc(-c2ccccc2Cl)o1 (optimized conformer: 72.91975961370765 kcal/mol)

>  <smiles>  (35) 
CCN(CC)CCN(C)Cc1ccc(-c2ccccc2Cl)o1

>  <score_type>  (35) 
oracle

>  <origin>  (35) 
adg

>  <m_score__min__energy>  (35) 
-6.6200000000000001

>  <m_primary>  (35) 
energy

$$$$
35:0
     RDKit          3D

 56 59  0  0  0  0  0  0  0  0999 V2000
   57.3620   24.9010   43.3800 C   0  0  0  0  0  0  0  0  0  0  0  0
   56.8550   25.3080   44.6470 O   0  0  0  0  0  0  0  0  0  0  0  0
   57.4830   26.2370   45.4900 C   0  0  0  0  0  0  0  0  0  0  0  0
   57.7350   25.9740   46.8450 C   0  0  0  0  0  0  0  0  0  0  0  0
   58.3580   26.9330   47.6450 C   0  0  0  0  0  0  0  0  0  0  0  0
   58.7490   28.1680   47.1080 C   0  0  0  0  0  0  0  0  0  0  0  0
   59.4020   29.1470   48.0010 C   0  0  0  0  0  0  0  0  0  0  0  0
   58.6530   29.8050   48.9880 C   0  0  0  0  0  0  0  0  0  0  0  0
   59.2690   30.7290   49.8390 C   0  0  0  0  0  0  0  0  0  0  0  0
   60.6370   30.9910   49.7160 C   0  0  0  0  0  0  0  0  0  0  0  0
   61.3920   30.3240   48.7460 C   0  0  0  0  0  0  0  0  0  0  0  0
   60.7790   29.4000   47.8930 C   0  0  0  0  0  0  0  0  0  0  0  0
   58.4990   28.4450   45.7400 C   0  0  0  0  0  0  0  0  0  0  0  0
   58.8080   29.7930   45.1210 C   0  0  0  0  0  0  0  0  0  0  0  0
   57.8940   30.8990   45.6890 C   0  0  2  0  0  0  0  0  0  0  0  0
   56.7110   31.0950   44.8500 N   0  0  0  0  0  0  0  0  0  0  0  0
   55.9850   30.0610   44.1740 C   0  0  0  0  0  0  0  0  0  0  0  0
   56.2630   29.7920   42.7340 C   0  0  0  0  0  0  0  0  0  0  0  0
   55.1490   29.3490   44.7930 O   0  0  0  0  0  0  0  0  0  0  0  0
   58.6180   32.2100   45.8950 C   0  0  0  0  0  0  0  0  0  0  0  0
   59.7630   32.2600   46.7010 C   0  0  0  0  0  0  0  0  0  0  0  0
   60.4010   33.4950   46.9020 C   0  0  0  0  0  0  0  0  0  0  0  0
   61.6240   33.6160   47.7350 C   0  0  0  0  0  0  0  0  0  0  0  0
   61.5420   34.1780   49.0240 C   0  0  0  0  0  0  0  0  0  0  0  0
   62.6830   34.2950   49.8230 C   0  0  0  0  0  0  0  0  0  0  0  0
   63.9180   33.8440   49.3520 C   0  0  0  0  0  0  0  0  0  0  0  0
   64.0130   33.2740   48.0810 C   0  0  0  0  0  0  0  0  0  0  0  0
   62.8760   33.1560   47.2760 C   0  0  0  0  0  0  0  0  0  0  0  0
   59.8910   34.6050   46.3000 N   0  0  0  0  0  0  0  0  0  0  0  0
   58.7760   34.5450   45.5300 C   0  0  0  0  0  0  0  0  0  0  0  0
   58.1460   33.3590   45.3370 N   0  0  0  0  0  0  0  0  0  0  0  0
   57.8630   27.4700   44.9510 C   0  0  0  0  0  0  0  0  0  0  0  0
   58.2121   24.2186   43.5273 H   0  0  0  0  0  0  0  0  0  0  0  0
   56.5705   24.3846   42.8170 H   0  0  0  0  0  0  0  0  0  0  0  0
   57.6950   25.7854   42.8170 H   0  0  0  0  0  0  0  0  0  0  0  0
   57.4401   25.0072   47.2789 H   0  0  0  0  0  0  0  0  0  0  0  0
   58.5442   26.7179   48.7076 H   0  0  0  0  0  0  0  0  0  0  0  0
   57.5786   29.5939   49.0931 H   0  0  0  0  0  0  0  0  0  0  0  0
   58.6766   31.2499   50.6056 H   0  0  0  0  0  0  0  0  0  0  0  0
   61.1192   31.7216   50.3821 H   0  0  0  0  0  0  0  0  0  0  0  0
   62.4693   30.5262   48.6536 H   0  0  0  0  0  0  0  0  0  0  0  0
   61.3768   28.8707   47.1363 H   0  0  0  0  0  0  0  0  0  0  0  0
   59.8560   30.0517   45.3326 H   0  0  0  0  0  0  0  0  0  0  0  0
   58.6330   29.7234   44.0372 H   0  0  0  0  0  0  0  0  0  0  0  0
   57.5703   30.5488   46.6803 H   0  0  0  0  0  0  0  0  0  0  0  0
   57.0511   29.0294   42.6490 H   0  0  0  0  0  0  0  0  0  0  0  0
   55.3469   29.4286   42.2454 H   0  0  0  0  0  0  0  0  0  0  0  0
   56.5960   30.7195   42.2454 H   0  0  0  0  0  0  0  0  0  0  0  0
   60.1564   31.3457   47.1693 H   0  0  0  0  0  0  0  0  0  0  0  0
   60.5714   34.5280   49.4053 H   0  0  0  0  0  0  0  0  0  0  0  0
   62.6080   34.7432   50.8248 H   0  0  0  0  0  0  0  0  0  0  0  0
   64.8150   33.9378   49.9818 H   0  0  0  0  0  0  0  0  0  0  0  0
   64.9856   32.9166   47.7118 H   0  0  0  0  0  0  0  0  0  0  0  0
   62.9583   32.7013   46.2778 H   0  0  0  0  0  0  0  0  0  0  0  0
   58.3821   35.4590   45.0615 H   0  0  0  0  0  0  0  0  0  0  0  0
   57.6608   27.6812   43.8906 H   0  0  0  0  0  0  0  0  0  0  0  0
  1  2  1  0
  2  3  1  0
  3  4  2  0
  4  5  1  0
  5  6  2  0
  6  7  1  0
  7  8  2  0
  8  9  1  0
  9 10  2  0
 10 11  1  0
 11 12  2  0
  6 13  1  0
 13 14  1  0
 14 15  1  0
 15 16  1  0
 16 17  1  0
 17 18  1  0
 17 19  2  0
 15 20  1  0
 20 21  2  0
 21 22  1  0
 22 23  1  0
 23 24  2  0
 24 25  1  0
 25 26  2  0
 26 27  1  0
 27 28  2  0
 22 29  2  0
 29 30  1  0
 30 31  2  0
 13 32  2  0
 32  3  1  0
 12  7  1  0
 31 20  1  0
 28 23  1  0
  1 33  1  0
  1 34  1  0
  1 35  1  0
  4 36  1  0
  5 37  1  0
  8 38  1  0
  9 39  1  0
 10 40  1  0
 11 41  1  0
 12 42  1  0
 14 43  1  0
 14 44  1  0
 15 45  1  1
 18 46  1  0
 18 47  1  0
 18 48  1  0
 21 49  1  0
 24 50  1  0
 25 51  1  0
 26 52  1  0
 27 53  1  0
 28 54  1  0
 30 55  1  0
 32 56  1  0
M  CHG  1  16  -1
M  END
>  <UniqueID>  (36) 
36

>  <SMILES>  (36) 
COc1ccc(-c2ccccc2)c(C[C@H]([N-]C(C)=O)c2cc(-c3ccccc3)ncn2)c1

>  <Energy>  (36) 
68.27915352083743

>  <Genealogy>  (36) 
COc1ccc(-c2ccccc2)c(CC([N-]C(C)=O)c2cc(-c3ccccc3)ncn2)c1 (protonated)
COc1ccc(-c2ccccc2)c(C[C@H]([N-]C(C)=O)c2cc(-c3ccccc3)ncn2)c1 (chirality)
COc1ccc(-c2ccccc2)c(C[C@H]([N-]C(C)=O)c2cc(-c3ccccc3)ncn2)c1 (3D coordinates assigned)
COc1ccc(-c2ccccc2)c(C[C@H]([N-]C(C)=O)c2cc(-c3ccccc3)ncn2)c1 (optimized conformer: 68.27915352083743 kcal/mol)

>  <smiles>  (36) 
COc1ccc(-c2ccccc2)c(CC(NC(C)=O)c2cc(-c3ccccc3)ncn2)c1

>  <score_type>  (36) 
oracle

>  <origin>  (36) 
adg

>  <m_score__min__energy>  (36) 
-11.31

>  <m_primary>  (36) 
energy

$$$$
36:0
     RDKit          3D

 44 46  0  0  0  0  0  0  0  0999 V2000
   57.6480   27.8750   45.7850 C   0  0  0  0  0  0  0  0  0  0  0  0
   57.0260   28.5760   44.5810 C   0  0  0  0  0  0  0  0  0  0  0  0
   55.7890   29.1630   44.9380 O   0  0  0  0  0  0  0  0  0  0  0  0
   55.4870   30.2720   44.1120 C   0  0  0  0  0  0  0  0  0  0  0  0
   56.7580   30.8010   43.4460 C   0  0  0  0  0  0  0  0  0  0  0  0
   57.5310   31.5940   44.3970 N   0  0  0  0  0  0  0  0  0  0  0  0
   58.0320   32.8280   44.1730 C   0  0  0  0  0  0  0  0  0  0  0  0
   58.6390   33.2410   45.3350 C   0  0  0  0  0  0  0  0  0  0  0  0
   58.4290   32.2330   46.2340 C   0  0  0  0  0  0  0  0  0  0  0  0
   57.7600   31.2220   45.6510 N   0  0  0  0  0  0  0  0  0  0  0  0
   58.9350   32.2710   47.6380 C   0  0  0  0  0  0  0  0  0  0  0  0
   59.3520   33.7160   48.0130 C   0  0  0  0  0  0  0  0  0  0  0  0
   60.0840   34.4260   46.9260 N   0  0  0  0  0  0  0  0  0  0  0  0
   61.4100   33.8360   46.6360 C   0  0  0  0  0  0  0  0  0  0  0  0
   62.2750   33.8250   47.8690 C   0  0  0  0  0  0  0  0  0  0  0  0
   63.4540   33.0640   47.9030 C   0  0  0  0  0  0  0  0  0  0  0  0
   64.2290   33.0540   49.0640 C   0  0  0  0  0  0  0  0  0  0  0  0
   63.8270   33.7950   50.1740 C   0  0  0  0  0  0  0  0  0  0  0  0
   62.6470   34.5380   50.1080 C   0  0  0  0  0  0  0  0  0  0  0  0
   61.9000   34.5390   48.9710 N   0  0  0  0  0  0  0  0  0  0  0  0
   59.2610   34.5520   45.6960 C   0  0  0  0  0  0  0  0  0  0  0  0
   57.2543   28.3187   46.7114 H   0  0  0  0  0  0  0  0  0  0  0  0
   57.3972   26.8044   45.7558 H   0  0  0  0  0  0  0  0  0  0  0  0
   58.7409   27.9966   45.7558 H   0  0  0  0  0  0  0  0  0  0  0  0
   57.7101   29.3602   44.2246 H   0  0  0  0  0  0  0  0  0  0  0  0
   56.8538   27.8355   43.7860 H   0  0  0  0  0  0  0  0  0  0  0  0
   54.7727   29.9617   43.3351 H   0  0  0  0  0  0  0  0  0  0  0  0
   55.0492   31.0694   44.7304 H   0  0  0  0  0  0  0  0  0  0  0  0
   57.3671   29.9530   43.0999 H   0  0  0  0  0  0  0  0  0  0  0  0
   56.4790   31.4354   42.5918 H   0  0  0  0  0  0  0  0  0  0  0  0
   57.9664   33.3974   43.2341 H   0  0  0  0  0  0  0  0  0  0  0  0
   58.1415   31.9323   48.3204 H   0  0  0  0  0  0  0  0  0  0  0  0
   59.8094   31.6092   47.7244 H   0  0  0  0  0  0  0  0  0  0  0  0
   58.4442   34.2889   48.2529 H   0  0  0  0  0  0  0  0  0  0  0  0
   60.0381   33.6421   48.8696 H   0  0  0  0  0  0  0  0  0  0  0  0
   61.2750   32.8034   46.2816 H   0  0  0  0  0  0  0  0  0  0  0  0
   61.9047   34.4453   45.8652 H   0  0  0  0  0  0  0  0  0  0  0  0
   63.7642   32.4811   47.0232 H   0  0  0  0  0  0  0  0  0  0  0  0
   65.1555   32.4623   49.1028 H   0  0  0  0  0  0  0  0  0  0  0  0
   64.4330   33.7943   51.0920 H   0  0  0  0  0  0  0  0  0  0  0  0
   62.3199   35.1250   50.9789 H   0  0  0  0  0  0  0  0  0  0  0  0
   61.0190   35.1010   48.9500 H   0  0  0  0  0  0  0  0  0  0  0  0
   58.4662   35.2926   45.8685 H   0  0  0  0  0  0  0  0  0  0  0  0
   59.9112   34.8727   44.8688 H   0  0  0  0  0  0  0  0  0  0  0  0
  1  2  1  0
  2  3  1  0
  3  4  1  0
  4  5  1  0
  5  6  1  0
  6  7  1  0
  7  8  2  0
  8  9  1  0
  9 10  2  0
  9 11  1  0
 11 12  1  0
 12 13  1  0
 13 14  1  0
 14 15  1  0
 15 16  2  0
 16 17  1  0
 17 18  2  0
 18 19  1  0
 19 20  2  0
 13 21  1  0
 10  6  1  0
 20 15  1  0
 21  8  1  0
  1 22  1  0
  1 23  1  0
  1 24  1  0
  2 25  1  0
  2 26  1  0
  4 27  1  0
  4 28  1  0
  5 29  1  0
  5 30  1  0
  7 31  1  0
 11 32  1  0
 11 33  1  0
 12 34  1  0
 12 35  1  0
 14 36  1  0
 14 37  1  0
 16 38  1  0
 17 39  1  0
 18 40  1  0
 19 41  1  0
 20 42  1  0
 21 43  1  0
 21 44  1  0
M  CHG  1  20   1
M  END
>  <UniqueID>  (37) 
37

>  <SMILES>  (37) 
CCOCCn1cc2c(n1)CCN(Cc1cccc[nH+]1)C2

>  <Energy>  (37) 
80.11079275631089

>  <Genealogy>  (37) 
CCOCCn1cc2c(n1)CCN(Cc1cccc[nH+]1)C2 (protonated)
CCOCCn1cc2c(n1)CCN(Cc1cccc[nH+]1)C2 (3D coordinates assigned)
CCOCCn1cc2c(n1)CCN(Cc1cccc[nH+]1)C2 (nonaromatic ring conformer: 80.11079275631089 kcal/mol)

>  <smiles>  (37) 
CCOCCn1cc2c(n1)CCN(Cc1ccccn1)C2

>  <score_type>  (37) 
oracle

>  <origin>  (37) 
adg

>  <m_score__min__energy>  (37) 
-5.9199999999999999

>  <m_primary>  (37) 
energy

$$$$
37:0
     RDKit          3D

 50 53  0  0  0  0  0  0  0  0999 V2000
   57.7810   32.1240   42.1380 C   0  0  0  0  0  0  0  0  0  0  0  0
   57.0200   31.6080   43.2250 O   0  0  0  0  0  0  0  0  0  0  0  0
   57.4220   30.5330   44.0330 C   0  0  0  0  0  0  0  0  0  0  0  0
   58.7610   30.4670   44.4320 C   0  0  0  0  0  0  0  0  0  0  0  0
   59.2120   29.4250   45.2450 C   0  0  0  0  0  0  0  0  0  0  0  0
   58.3200   28.4350   45.6980 C   0  0  0  0  0  0  0  0  0  0  0  0
   56.9810   28.4720   45.2500 C   0  0  0  0  0  0  0  0  0  0  0  0
   56.5330   29.5250   44.4460 C   0  0  0  0  0  0  0  0  0  0  0  0
   56.0830   27.4610   45.6120 O   0  0  0  0  0  0  0  0  0  0  0  0
   56.5140   26.2490   46.2250 C   0  0  0  0  0  0  0  0  0  0  0  0
   57.6060   26.5470   47.2500 C   0  0  0  0  0  0  0  0  0  0  0  0
   58.7880   27.2750   46.5730 C   0  0  2  0  0  0  0  0  0  0  0  0
   59.7980   27.6540   47.5850 N   0  0  0  0  0  0  0  0  0  0  0  0
   59.2720   28.3680   48.7640 C   0  0  0  0  0  0  0  0  0  0  0  0
   60.3830   29.0940   49.4650 C   0  0  0  0  0  0  0  0  0  0  0  0
   61.2180   28.5550   50.4300 C   0  0  0  0  0  0  0  0  0  0  0  0
   62.1400   29.4800   50.7560 N   0  0  0  0  0  0  0  0  0  0  0  0
   63.2640   29.2840   51.6610 C   0  0  0  0  0  0  0  0  0  0  0  0
   61.9460   30.5700   50.0320 N   0  0  0  0  0  0  0  0  0  0  0  0
   60.8690   30.3810   49.2440 C   0  0  0  0  0  0  0  0  0  0  0  0
   60.3750   31.3820   48.2760 C   0  0  0  0  0  0  0  0  0  0  0  0
   61.2880   32.1600   47.5460 C   0  0  0  0  0  0  0  0  0  0  0  0
   60.8320   33.1090   46.6260 C   0  0  0  0  0  0  0  0  0  0  0  0
   59.4610   33.2970   46.4330 C   0  0  0  0  0  0  0  0  0  0  0  0
   58.8390   34.5920   45.1760 Br  0  0  0  0  0  0  0  0  0  0  0  0
   58.5440   32.5380   47.1680 C   0  0  0  0  0  0  0  0  0  0  0  0
   58.9970   31.5880   48.0890 C   0  0  0  0  0  0  0  0  0  0  0  0
   58.6324   32.7013   42.5278 H   0  0  0  0  0  0  0  0  0  0  0  0
   58.1534   31.2913   41.5232 H   0  0  0  0  0  0  0  0  0  0  0  0
   57.1453   32.7781   41.5232 H   0  0  0  0  0  0  0  0  0  0  0  0
   59.4662   31.2440   44.1019 H   0  0  0  0  0  0  0  0  0  0  0  0
   60.2724   29.3776   45.5335 H   0  0  0  0  0  0  0  0  0  0  0  0
   55.4787   29.5649   44.1348 H   0  0  0  0  0  0  0  0  0  0  0  0
   55.6609   25.7712   46.7289 H   0  0  0  0  0  0  0  0  0  0  0  0
   56.9144   25.5746   45.4538 H   0  0  0  0  0  0  0  0  0  0  0  0
   57.1935   27.1852   48.0453 H   0  0  0  0  0  0  0  0  0  0  0  0
   57.9653   25.5994   47.6777 H   0  0  0  0  0  0  0  0  0  0  0  0
   59.2822   26.5830   45.8752 H   0  0  0  0  0  0  0  0  0  0  0  0
   60.5580   28.2150   47.1360 H   0  0  0  0  0  0  0  0  0  0  0  0
   58.5107   29.0931   48.4406 H   0  0  0  0  0  0  0  0  0  0  0  0
   58.8247   27.6395   49.4563 H   0  0  0  0  0  0  0  0  0  0  0  0
   61.1408   27.5441   50.8568 H   0  0  0  0  0  0  0  0  0  0  0  0
   62.9121   29.3454   52.7014 H   0  0  0  0  0  0  0  0  0  0  0  0
   63.7102   28.2945   51.4826 H   0  0  0  0  0  0  0  0  0  0  0  0
   64.0187   30.0641   51.4826 H   0  0  0  0  0  0  0  0  0  0  0  0
   62.5430   31.4270   50.0760 H   0  0  0  0  0  0  0  0  0  0  0  0
   62.3685   32.0220   47.6989 H   0  0  0  0  0  0  0  0  0  0  0  0
   61.5542   33.7089   46.0529 H   0  0  0  0  0  0  0  0  0  0  0  0
   57.4643   32.6887   47.0212 H   0  0  0  0  0  0  0  0  0  0  0  0
   58.2717   30.9993   48.6698 H   0  0  0  0  0  0  0  0  0  0  0  0
  1  2  1  0
  2  3  1  0
  3  4  2  0
  4  5  1  0
  5  6  2  0
  6  7  1  0
  7  8  2  0
  7  9  1  0
  9 10  1  0
 10 11  1  0
 11 12  1  0
 12 13  1  0
 13 14  1  0
 14 15  1  0
 15 16  2  0
 16 17  1  0
 17 18  1  0
 17 19  1  0
 19 20  2  0
 20 21  1  0
 21 22  2  0
 22 23  1  0
 23 24  2  0
 24 25  1  0
 24 26  1  0
 26 27  2  0
  8  3  1  0
 20 15  1  0
 27 21  1  0
 12  6  1  0
  1 28  1  0
  1 29  1  0
  1 30  1  0
  4 31  1  0
  5 32  1  0
  8 33  1  0
 10 34  1  0
 10 35  1  0
 11 36  1  0
 11 37  1  0
 12 38  1  6
 13 39  1  0
 14 40  1  0
 14 41  1  0
 16 42  1  0
 18 43  1  0
 18 44  1  0
 18 45  1  0
 19 46  1  0
 22 47  1  0
 23 48  1  0
 26 49  1  0
 27 50  1  0
M  CHG  1  19   1
M  END
>  <UniqueID>  (38) 
38

>  <SMILES>  (38) 
COc1ccc2c(c1)OCC[C@@H]2NCc1cn(C)[nH+]c1-c1ccc(Br)cc1

>  <Energy>  (38) 
90.58990860068029

>  <Genealogy>  (38) 
COc1ccc2c(c1)OCCC2NCc1cn(C)[nH+]c1-c1ccc(Br)cc1 (protonated)
COc1ccc2c(c1)OCC[C@@H]2NCc1cn(C)[nH+]c1-c1ccc(Br)cc1 (chirality)
COc1ccc2c(c1)OCC[C@@H]2NCc1cn(C)[nH+]c1-c1ccc(Br)cc1 (3D coordinates assigned)
COc1ccc2c(c1)OCC[C@@H]2NCc1cn(C)[nH+]c1-c1ccc(Br)cc1 (nonaromatic ring conformer: 90.58990860068029 kcal/mol)

>  <smiles>  (38) 
COc1ccc2c(c1)OCCC2NCc1cn(C)nc1-c1ccc(Br)cc1

>  <score_type>  (38) 
oracle

>  <origin>  (38) 
adg

>  <m_score__min__energy>  (38) 
-7.4299999999999997

>  <m_primary>  (38) 
energy

$$$$
38:0
     RDKit          3D

 58 61  0  0  0  0  0  0  0  0999 V2000
   62.6030   33.5500   46.4100 C   0  0  0  0  0  0  0  0  0  0  0  0
   62.0020   32.3510   46.8870 O   0  0  0  0  0  0  0  0  0  0  0  0
   62.1880   31.8200   48.1740 C   0  0  0  0  0  0  0  0  0  0  0  0
   63.0650   32.4200   49.1010 C   0  0  0  0  0  0  0  0  0  0  0  0
   63.2090   31.8920   50.3850 C   0  0  0  0  0  0  0  0  0  0  0  0
   62.4830   30.7640   50.7620 C   0  0  0  0  0  0  0  0  0  0  0  0
   61.6140   30.1560   49.8560 C   0  0  0  0  0  0  0  0  0  0  0  0
   61.4630   30.6690   48.5540 C   0  0  0  0  0  0  0  0  0  0  0  0
   60.5730   30.0110   47.6250 N   0  0  0  0  0  0  0  0  0  0  0  0
   60.8240   30.0740   46.1800 C   0  0  0  0  0  0  0  0  0  0  0  0
   60.3340   28.7850   45.5080 C   0  0  0  0  0  0  0  0  0  0  0  0
   58.8920   28.5160   45.7570 N   0  0  0  0  0  0  0  0  0  0  0  0
   58.0550   28.9820   44.6270 C   0  0  0  0  0  0  0  0  0  0  0  0
   57.0280   30.0390   45.0760 C   0  0  2  0  0  0  0  0  0  0  0  0
   55.7630   29.4380   45.1920 O   0  0  0  0  0  0  0  0  0  0  0  0
   56.9570   31.2320   44.1040 C   0  0  0  0  0  0  0  0  0  0  0  0
   56.7730   32.4700   44.7960 O   0  0  0  0  0  0  0  0  0  0  0  0
   57.6670   33.0650   45.7020 C   0  0  0  0  0  0  0  0  0  0  0  0
   58.4780   34.1810   45.3720 C   0  0  0  0  0  0  0  0  0  0  0  0
   59.3470   34.7330   46.3270 C   0  0  0  0  0  0  0  0  0  0  0  0
   59.4030   34.1620   47.5980 C   0  0  0  0  0  0  0  0  0  0  0  0
   58.6270   33.0810   47.9220 C   0  0  0  0  0  0  0  0  0  0  0  0
   57.7540   32.5140   46.9920 C   0  0  0  0  0  0  0  0  0  0  0  0
   58.8370   32.6410   49.3200 C   0  0  0  0  0  0  0  0  0  0  0  0
   59.9010   33.6150   49.8620 C   0  0  0  0  0  0  0  0  0  0  0  0
   60.2480   34.6020   48.7310 C   0  0  0  0  0  0  0  0  0  0  0  0
   58.3930   29.0300   47.0620 C   0  0  0  0  0  0  0  0  0  0  0  0
   59.4970   29.1460   48.1190 C   0  0  0  0  0  0  0  0  0  0  0  0
   62.9135   34.1695   47.2643 H   0  0  0  0  0  0  0  0  0  0  0  0
   63.4829   33.3010   45.7986 H   0  0  0  0  0  0  0  0  0  0  0  0
   61.8770   34.1060   45.7986 H   0  0  0  0  0  0  0  0  0  0  0  0
   63.6402   33.3113   48.8099 H   0  0  0  0  0  0  0  0  0  0  0  0
   63.8966   32.3670   51.1003 H   0  0  0  0  0  0  0  0  0  0  0  0
   62.5954   30.3523   51.7758 H   0  0  0  0  0  0  0  0  0  0  0  0
   61.0417   29.2678   50.1617 H   0  0  0  0  0  0  0  0  0  0  0  0
   60.2871   30.9343   45.7538 H   0  0  0  0  0  0  0  0  0  0  0  0
   61.9042   30.1856   46.0047 H   0  0  0  0  0  0  0  0  0  0  0  0
   60.4928   28.8722   44.4230 H   0  0  0  0  0  0  0  0  0  0  0  0
   60.9055   27.9496   45.9387 H   0  0  0  0  0  0  0  0  0  0  0  0
   58.7071   29.4226   43.8584 H   0  0  0  0  0  0  0  0  0  0  0  0
   57.5046   28.1169   44.2286 H   0  0  0  0  0  0  0  0  0  0  0  0
   57.3525   30.4327   46.0505 H   0  0  0  0  0  0  0  0  0  0  0  0
   55.1640   30.1060   45.6160 H   0  0  0  0  0  0  0  0  0  0  0  0
   57.8944   31.2804   43.5305 H   0  0  0  0  0  0  0  0  0  0  0  0
   56.0942   31.0804   43.4387 H   0  0  0  0  0  0  0  0  0  0  0  0
   58.4259   34.6162   44.3631 H   0  0  0  0  0  0  0  0  0  0  0  0
   59.9734   35.6018   46.0765 H   0  0  0  0  0  0  0  0  0  0  0  0
   57.1397   31.6437   47.2663 H   0  0  0  0  0  0  0  0  0  0  0  0
   57.9047   32.7190   49.8986 H   0  0  0  0  0  0  0  0  0  0  0  0
   59.1513   31.5892   49.3899 H   0  0  0  0  0  0  0  0  0  0  0  0
   59.5016   34.1626   50.7284 H   0  0  0  0  0  0  0  0  0  0  0  0
   60.7981   33.0665   50.1850 H   0  0  0  0  0  0  0  0  0  0  0  0
   60.0029   35.6336   49.0237 H   0  0  0  0  0  0  0  0  0  0  0  0
   61.3199   34.6020   48.4840 H   0  0  0  0  0  0  0  0  0  0  0  0
   57.9540   30.0259   46.9023 H   0  0  0  0  0  0  0  0  0  0  0  0
   57.6504   28.3107   47.4379 H   0  0  0  0  0  0  0  0  0  0  0  0
   59.0765   29.5768   49.0396 H   0  0  0  0  0  0  0  0  0  0  0  0
   59.9041   28.1458   48.3283 H   0  0  0  0  0  0  0  0  0  0  0  0
  1  2  1  0
  2  3  1  0
  3  4  2  0
  4  5  1  0
  5  6  2  0
  6  7  1  0
  7  8  2  0
  8  9  1  0
  9 10  1  0
 10 11  1  0
 11 12  1  0
 12 13  1  0
 13 14  1  0
 14 15  1  0
 14 16  1  0
 16 17  1  0
 17 18  1  0
 18 19  2  0
 19 20  1  0
 20 21  2  0
 21 22  1  0
 22 23  2  0
 22 24  1  0
 24 25  1  0
 25 26  1  0
 12 27  1  0
 27 28  1  0
  8  3  1  0
 28  9  1  0
 23 18  1  0
 26 21  1  0
  1 29  1  0
  1 30  1  0
  1 31  1  0
  4 32  1  0
  5 33  1  0
  6 34  1  0
  7 35  1  0
 10 36  1  0
 10 37  1  0
 11 38  1  0
 11 39  1  0
 13 40  1  0
 13 41  1  0
 14 42  1  1
 15 43  1  0
 16 44  1  0
 16 45  1  0
 19 46  1  0
 20 47  1  0
 23 48  1  0
 24 49  1  0
 24 50  1  0
 25 51  1  0
 25 52  1  0
 26 53  1  0
 26 54  1  0
 27 55  1  0
 27 56  1  0
 28 57  1  0
 28 58  1  0
M  END
>  <UniqueID>  (39) 
39

>  <SMILES>  (39) 
COc1ccccc1N1CCN(C[C@H](O)COc2ccc3c(c2)CCC3)CC1

>  <Energy>  (39) 
79.10763698288643

>  <Genealogy>  (39) 
COc1ccccc1N1CCN(C[C@H](O)COc2ccc3c(c2)CCC3)CC1 (chirality)
COc1ccccc1N1CCN(C[C@H](O)COc2ccc3c(c2)CCC3)CC1 (3D coordinates assigned)
COc1ccccc1N1CCN(C[C@H](O)COc2ccc3c(c2)CCC3)CC1 (nonaromatic ring conformer: 79.10763698288643 kcal/mol)

>  <smiles>  (39) 
COc1ccccc1N1CCN(CC(O)COc2ccc3c(c2)CCC3)CC1

>  <score_type>  (39) 
oracle

>  <origin>  (39) 
adg

>  <m_score__min__energy>  (39) 
-8.1400000000000006

>  <m_primary>  (39) 
energy

$$$$
39:0
     RDKit          3D

 35 36  0  0  0  0  0  0  0  0999 V2000
   57.8610   28.7560   54.2820 C   0  0  0  0  0  0  0  0  0  0  0  0
   56.5560   28.0630   54.2220 N   0  0  1  0  0  0  0  0  0  0  0  0
   56.0830   27.5720   55.5530 C   0  0  0  0  0  0  0  0  0  0  0  0
   56.7230   26.2570   56.0530 C   0  0  0  0  0  0  0  0  0  0  0  0
   57.4570   25.6580   55.0190 O   0  0  0  0  0  0  0  0  0  0  0  0
   55.5550   28.8360   53.4200 C   0  0  2  0  0  0  0  0  0  0  0  0
   56.1430   30.0550   52.6790 C   0  0  0  0  0  0  0  0  0  0  0  0
   55.1100   30.6500   51.7160 C   0  0  0  0  0  0  0  0  0  0  0  0
   53.7620   30.8620   52.3600 C   0  0  0  0  0  0  0  0  0  0  0  0
   52.8340   31.7030   51.7240 C   0  0  0  0  0  0  0  0  0  0  0  0
   51.5510   31.8710   52.2520 C   0  0  0  0  0  0  0  0  0  0  0  0
   50.6440   32.7120   51.6180 O   0  0  0  0  0  0  0  0  0  0  0  0
   51.1800   31.1950   53.4140 C   0  0  0  0  0  0  0  0  0  0  0  0
   52.0870   30.3440   54.0490 C   0  0  0  0  0  0  0  0  0  0  0  0
   53.3750   30.1530   53.5230 C   0  0  0  0  0  0  0  0  0  0  0  0
   54.3480   29.2820   54.2820 C   0  0  0  0  0  0  0  0  0  0  0  0
   58.1474   28.9081   55.3331 H   0  0  0  0  0  0  0  0  0  0  0  0
   58.6244   28.1445   53.7788 H   0  0  0  0  0  0  0  0  0  0  0  0
   57.7819   29.7309   53.7788 H   0  0  0  0  0  0  0  0  0  0  0  0
   56.7580   27.1980   53.6640 H   0  0  0  0  0  0  0  0  0  0  0  0
   56.2960   28.3545   56.2962 H   0  0  0  0  0  0  0  0  0  0  0  0
   55.0124   27.3531   55.4266 H   0  0  0  0  0  0  0  0  0  0  0  0
   57.3940   26.4761   56.8966 H   0  0  0  0  0  0  0  0  0  0  0  0
   55.9284   25.5690   56.3776 H   0  0  0  0  0  0  0  0  0  0  0  0
   57.9120   24.8680   55.4140 H   0  0  0  0  0  0  0  0  0  0  0  0
   55.2148   28.1285   52.6495 H   0  0  0  0  0  0  0  0  0  0  0  0
   56.4341   30.8194   53.4145 H   0  0  0  0  0  0  0  0  0  0  0  0
   57.0206   29.7296   52.1012 H   0  0  0  0  0  0  0  0  0  0  0  0
   55.4835   31.6199   51.3558 H   0  0  0  0  0  0  0  0  0  0  0  0
   54.9740   29.9330   50.8930 H   0  0  0  0  0  0  0  0  0  0  0  0
   53.1192   32.2333   50.8035 H   0  0  0  0  0  0  0  0  0  0  0  0
   50.1714   31.3323   53.8310 H   0  0  0  0  0  0  0  0  0  0  0  0
   51.7901   29.8189   54.9689 H   0  0  0  0  0  0  0  0  0  0  0  0
   54.7242   29.8473   55.1473 H   0  0  0  0  0  0  0  0  0  0  0  0
   53.8084   28.3743   54.5900 H   0  0  0  0  0  0  0  0  0  0  0  0
  1  2  1  0
  2  3  1  0
  3  4  1  0
  4  5  1  0
  2  6  1  0
  6  7  1  0
  7  8  1  0
  8  9  1  0
  9 10  2  0
 10 11  1  0
 11 12  1  0
 11 13  2  0
 13 14  1  0
 14 15  2  0
 15 16  1  0
 16  6  1  0
 15  9  1  0
  1 17  1  0
  1 18  1  0
  1 19  1  0
  2 20  1  6
  3 21  1  0
  3 22  1  0
  4 23  1  0
  4 24  1  0
  5 25  1  0
  6 26  1  6
  7 27  1  0
  7 28  1  0
  8 29  1  0
  8 30  1  0
 10 31  1  0
 13 32  1  0
 14 33  1  0
 16 34  1  0
 16 35  1  0
M  CHG  2   2   1  12  -1
M  END
>  <UniqueID>  (40) 
40

>  <SMILES>  (40) 
C[N@@H+](CCO)[C@@H]1CCc2cc([O-])ccc2C1

>  <Energy>  (40) 
46.28716513508428

>  <Genealogy>  (40) 
C[NH+](CCO)C1CCc2cc([O-])ccc2C1 (protonated)
C[N@@H+](CCO)[C@@H]1CCc2cc([O-])ccc2C1 (chirality)
C[N@@H+](CCO)[C@@H]1CCc2cc([O-])ccc2C1 (3D coordinates assigned)
C[N@@H+](CCO)[C@@H]1CCc2cc([O-])ccc2C1 (nonaromatic ring conformer: 46.28716513508428 kcal/mol)

>  <smiles>  (40) 
CN(CCO)C1CCc2cc(O)ccc2C1

>  <score_type>  (40) 
oracle

>  <origin>  (40) 
adg

>  <m_score__min__energy>  (40) 
-7.0499999999999998

>  <m_primary>  (40) 
energy

$$$$
40:0
     RDKit          3D

 55 56  0  0  0  0  0  0  0  0999 V2000
   64.1020   32.7410   48.6590 C   0  0  0  0  0  0  0  0  0  0  0  0
   63.3070   32.5490   47.4350 N   0  0  0  0  0  0  0  0  0  0  0  0
   63.2930   33.8010   46.6590 C   0  0  0  0  0  0  0  0  0  0  0  0
   61.9340   32.1250   47.7850 C   0  0  0  0  0  0  0  0  0  0  0  0
   60.9160   33.2170   47.4290 C   0  0  0  0  0  0  0  0  0  0  0  0
   59.5700   32.8360   47.8840 N   0  0  0  0  0  0  0  0  0  0  0  0
   58.5770   32.4620   46.9030 C   0  0  0  0  0  0  0  0  0  0  0  0
   58.5270   31.2720   46.4850 O   0  0  0  0  0  0  0  0  0  0  0  0
   57.5950   33.4610   46.3580 C   0  0  0  0  0  0  0  0  0  0  0  0
   56.7490   32.8350   45.4050 O   0  0  0  0  0  0  0  0  0  0  0  0
   57.4400   32.5260   44.2080 C   0  0  0  0  0  0  0  0  0  0  0  0
   56.9320   31.2160   43.5950 C   0  0  0  0  0  0  0  0  0  0  0  0
   56.3120   30.3810   44.6390 N   0  0  0  0  0  0  0  0  0  0  0  0
   56.6940   28.9650   44.5290 C   0  0  0  0  0  0  0  0  0  0  0  0
   57.9880   28.6990   45.2540 C   0  0  0  0  0  0  0  0  0  0  0  0
   59.2190   28.8890   44.6050 C   0  0  0  0  0  0  0  0  0  0  0  0
   60.4150   28.5860   45.2630 C   0  0  0  0  0  0  0  0  0  0  0  0
   60.3900   28.0930   46.5710 C   0  0  0  0  0  0  0  0  0  0  0  0
   59.1680   27.9010   47.2210 C   0  0  0  0  0  0  0  0  0  0  0  0
   57.9700   28.2000   46.5660 C   0  0  0  0  0  0  0  0  0  0  0  0
   59.2650   32.8190   49.2960 C   0  0  0  0  0  0  0  0  0  0  0  0
   58.5070   31.7680   49.8450 C   0  0  0  0  0  0  0  0  0  0  0  0
   58.2090   31.7500   51.2110 C   0  0  0  0  0  0  0  0  0  0  0  0
   58.6690   32.7750   52.0430 C   0  0  0  0  0  0  0  0  0  0  0  0
   59.4350   33.8150   51.5110 C   0  0  0  0  0  0  0  0  0  0  0  0
   59.7350   33.8380   50.1460 C   0  0  0  0  0  0  0  0  0  0  0  0
   63.4618   32.5864   49.5400 H   0  0  0  0  0  0  0  0  0  0  0  0
   64.9300   32.0170   48.6758 H   0  0  0  0  0  0  0  0  0  0  0  0
   64.5083   33.7631   48.6758 H   0  0  0  0  0  0  0  0  0  0  0  0
   63.2834   34.6589   47.3474 H   0  0  0  0  0  0  0  0  0  0  0  0
   64.1907   33.8495   46.0251 H   0  0  0  0  0  0  0  0  0  0  0  0
   62.3945   33.8294   46.0251 H   0  0  0  0  0  0  0  0  0  0  0  0
   61.6876   31.2081   47.2295 H   0  0  0  0  0  0  0  0  0  0  0  0
   61.8883   31.9418   48.8687 H   0  0  0  0  0  0  0  0  0  0  0  0
   61.2098   34.1583   47.9165 H   0  0  0  0  0  0  0  0  0  0  0  0
   60.8990   33.3444   46.3365 H   0  0  0  0  0  0  0  0  0  0  0  0
   56.9846   33.8595   47.1818 H   0  0  0  0  0  0  0  0  0  0  0  0
   58.1439   34.2812   45.8722 H   0  0  0  0  0  0  0  0  0  0  0  0
   57.2889   33.3420   43.4860 H   0  0  0  0  0  0  0  0  0  0  0  0
   58.5080   32.4083   44.4437 H   0  0  0  0  0  0  0  0  0  0  0  0
   56.1867   31.4417   42.8181 H   0  0  0  0  0  0  0  0  0  0  0  0
   57.7786   30.6716   43.1512 H   0  0  0  0  0  0  0  0  0  0  0  0
   56.6490   30.7190   45.5700 H   0  0  0  0  0  0  0  0  0  0  0  0
   55.9005   28.3428   44.9685 H   0  0  0  0  0  0  0  0  0  0  0  0
   56.8303   28.7194   43.4654 H   0  0  0  0  0  0  0  0  0  0  0  0
   59.2423   29.2773   43.5761 H   0  0  0  0  0  0  0  0  0  0  0  0
   61.3769   28.7357   44.7508 H   0  0  0  0  0  0  0  0  0  0  0  0
   61.3316   27.8564   47.0881 H   0  0  0  0  0  0  0  0  0  0  0  0
   59.1488   27.5137   48.2504 H   0  0  0  0  0  0  0  0  0  0  0  0
   57.0102   28.0438   47.0801 H   0  0  0  0  0  0  0  0  0  0  0  0
   58.1470   30.9562   49.1959 H   0  0  0  0  0  0  0  0  0  0  0  0
   57.6115   30.9278   51.6318 H   0  0  0  0  0  0  0  0  0  0  0  0
   58.4278   32.7626   53.1162 H   0  0  0  0  0  0  0  0  0  0  0  0
   59.8028   34.6173   52.1675 H   0  0  0  0  0  0  0  0  0  0  0  0
   60.3420   34.6573   49.7335 H   0  0  0  0  0  0  0  0  0  0  0  0
  1  2  1  0
  2  3  1  0
  2  4  1  0
  4  5  1  0
  5  6  1  0
  6  7  1  0
  7  8  2  0
  7  9  1  0
  9 10  1  0
 10 11  1  0
 11 12  1  0
 12 13  1  0
 13 14  1  0
 14 15  1  0
 15 16  2  0
 16 17  1  0
 17 18  2  0
 18 19  1  0
 19 20  2  0
  6 21  1  0
 21 22  2  0
 22 23  1  0
 23 24  2  0
 24 25  1  0
 25 26  2  0
 20 15  1  0
 26 21  1  0
  1 27  1  0
  1 28  1  0
  1 29  1  0
  3 30  1  0
  3 31  1  0
  3 32  1  0
  4 33  1  0
  4 34  1  0
  5 35  1  0
  5 36  1  0
  9 37  1  0
  9 38  1  0
 11 39  1  0
 11 40  1  0
 12 41  1  0
 12 42  1  0
 13 43  1  0
 14 44  1  0
 14 45  1  0
 16 46  1  0
 17 47  1  0
 18 48  1  0
 19 49  1  0
 20 50  1  0
 22 51  1  0
 23 52  1  0
 24 53  1  0
 25 54  1  0
 26 55  1  0
M  END
>  <UniqueID>  (41) 
41

>  <SMILES>  (41) 
CN(C)CCN(C(=O)COCCNCc1ccccc1)c1ccccc1

>  <Energy>  (41) 
55.7945729396971

>  <Genealogy>  (41) 
CN(C)CCN(C(=O)COCCNCc1ccccc1)c1ccccc1 (3D coordinates assigned)
CN(C)CCN(C(=O)COCCNCc1ccccc1)c1ccccc1 (optimized conformer: 55.7945729396971 kcal/mol)

>  <smiles>  (41) 
CN(C)CCN(C(=O)COCCNCc1ccccc1)c1ccccc1

>  <score_type>  (41) 
oracle

>  <origin>  (41) 
adg

>  <m_score__min__energy>  (41) 
-7.5599999999999996

>  <m_primary>  (41) 
energy

$$$$
41:0
     RDKit          3D

 29 31  0  0  0  0  0  0  0  0999 V2000
   60.1310   34.2110   48.7960 C   0  0  0  0  0  0  0  0  0  0  0  0
   59.5180   34.0850   47.4810 N   0  0  0  0  0  0  0  0  0  0  0  0
   59.4120   35.0550   46.6130 O   0  0  0  0  0  0  0  0  0  0  0  0
   58.8090   34.6200   45.5230 C   0  0  0  0  0  0  0  0  0  0  0  0
   58.5640   35.3260   44.5100 O   0  0  0  0  0  0  0  0  0  0  0  0
   58.5010   33.2880   45.6850 C   0  0  0  0  0  0  0  0  0  0  0  0
   57.8760   32.3480   44.8710 C   0  0  0  0  0  0  0  0  0  0  0  0
   57.7310   31.0390   45.3810 C   0  0  0  0  0  0  0  0  0  0  0  0
   56.9590   29.7930   44.4060 S   0  0  0  0  0  0  0  0  0  0  0  0
   55.5210   29.6710   44.8240 O   0  0  0  0  0  0  0  0  0  0  0  0
   57.0160   30.1490   42.9470 O   0  0  0  0  0  0  0  0  0  0  0  0
   57.7530   28.2710   44.6490 N   0  0  0  0  0  0  0  0  0  0  0  0
   57.2760   27.3060   45.3770 C   0  0  0  0  0  0  0  0  0  0  0  0
   58.0380   26.3610   46.0240 C   0  0  0  0  0  0  0  0  0  0  0  0
   57.0970   25.5630   46.6490 C   0  0  0  0  0  0  0  0  0  0  0  0
   55.8970   26.0270   46.3740 O   0  0  0  0  0  0  0  0  0  0  0  0
   55.9700   27.0760   45.6100 N   0  0  0  0  0  0  0  0  0  0  0  0
   58.2070   30.7240   46.6790 C   0  0  0  0  0  0  0  0  0  0  0  0
   58.8340   31.7030   47.4730 C   0  0  0  0  0  0  0  0  0  0  0  0
   58.9640   32.9830   46.9360 C   0  0  0  0  0  0  0  0  0  0  0  0
   59.3681   34.0542   49.5727 H   0  0  0  0  0  0  0  0  0  0  0  0
   60.9248   33.4572   48.9043 H   0  0  0  0  0  0  0  0  0  0  0  0
   60.5631   35.2167   48.9043 H   0  0  0  0  0  0  0  0  0  0  0  0
   57.5090   32.6143   43.8688 H   0  0  0  0  0  0  0  0  0  0  0  0
   59.1335   26.2634   46.0404 H   0  0  0  0  0  0  0  0  0  0  0  0
   57.3160   24.6844   47.2736 H   0  0  0  0  0  0  0  0  0  0  0  0
   55.1460   27.6140   45.2640 H   0  0  0  0  0  0  0  0  0  0  0  0
   58.0850   29.7031   47.0700 H   0  0  0  0  0  0  0  0  0  0  0  0
   59.2077   31.4666   48.4802 H   0  0  0  0  0  0  0  0  0  0  0  0
  1  2  1  0
  2  3  1  0
  3  4  1  0
  4  5  2  0
  4  6  1  0
  6  7  2  0
  7  8  1  0
  8  9  1  0
  9 10  2  0
  9 11  2  0
  9 12  1  0
 12 13  2  3
 13 14  1  0
 14 15  2  0
 15 16  1  0
 16 17  1  0
  8 18  2  0
 18 19  1  0
 19 20  2  0
 20  2  1  0
 20  6  1  0
 17 13  1  0
  1 21  1  0
  1 22  1  0
  1 23  1  0
  7 24  1  0
 14 25  1  0
 15 26  1  0
 17 27  1  0
 18 28  1  0
 19 29  1  0
M  END
>  <UniqueID>  (42) 
42

>  <SMILES>  (42) 
Cn1oc(=O)c2cc(S(=O)(=O)N=c3cco[nH]3)ccc21

>  <Energy>  (42) 
108.02900826256389

>  <Genealogy>  (42) 
Cn1oc(=O)c2cc(S(=O)(=O)N=c3cco[nH]3)ccc21 (3D coordinates assigned)
Cn1oc(=O)c2cc(S(=O)(=O)N=c3cco[nH]3)ccc21 (optimized conformer: 108.02900826256389 kcal/mol)

>  <smiles>  (42) 
Cn1oc(=O)c2cc(S(=O)(=O)N=c3cco[nH]3)ccc21

>  <score_type>  (42) 
oracle

>  <origin>  (42) 
adg

>  <m_score__min__energy>  (42) 
-8.2400000000000002

>  <m_primary>  (42) 
energy

$$$$
42:0
     RDKit          3D

 40 43  0  0  0  0  0  0  0  0999 V2000
   56.5310   30.3250   43.7230 C   0  0  0  0  0  0  0  0  0  0  0  0
   56.5170   31.1680   44.8700 O   0  0  0  0  0  0  0  0  0  0  0  0
   57.4920   32.1370   45.1610 C   0  0  0  0  0  0  0  0  0  0  0  0
   57.4060   33.4480   44.6560 C   0  0  0  0  0  0  0  0  0  0  0  0
   58.4020   34.3800   44.9420 C   0  0  0  0  0  0  0  0  0  0  0  0
   59.4950   34.0240   45.7330 C   0  0  0  0  0  0  0  0  0  0  0  0
   59.5900   32.7260   46.2710 C   0  0  0  0  0  0  0  0  0  0  0  0
   58.5880   31.7880   45.9770 C   0  0  0  0  0  0  0  0  0  0  0  0
   58.7640   30.3990   46.5210 C   0  0  0  0  0  0  0  0  0  0  0  0
   59.2010   30.4710   47.9910 C   0  0  0  0  0  0  0  0  0  0  0  0
   60.3200   31.4300   48.2670 N   0  0  1  0  0  0  0  0  0  0  0  0
   61.4670   30.7120   48.8690 C   0  0  0  0  0  0  0  0  0  0  0  0
   62.6180   31.6340   49.1910 C   0  0  0  0  0  0  0  0  0  0  0  0
   63.6040   31.2170   50.1010 C   0  0  0  0  0  0  0  0  0  0  0  0
   64.7050   32.0330   50.3730 C   0  0  0  0  0  0  0  0  0  0  0  0
   64.8380   33.2650   49.7320 C   0  0  0  0  0  0  0  0  0  0  0  0
   63.8730   33.6830   48.8130 C   0  0  0  0  0  0  0  0  0  0  0  0
   62.7680   32.8670   48.5220 C   0  0  0  0  0  0  0  0  0  0  0  0
   61.7160   33.3630   47.5660 C   0  0  0  0  0  0  0  0  0  0  0  0
   60.7780   32.2290   47.0920 C   0  0  2  0  0  0  0  0  0  0  0  0
   56.5485   29.2724   44.0418 H   0  0  0  0  0  0  0  0  0  0  0  0
   55.6296   30.5107   43.1204 H   0  0  0  0  0  0  0  0  0  0  0  0
   57.4257   30.5405   43.1204 H   0  0  0  0  0  0  0  0  0  0  0  0
   56.5479   33.7386   44.0321 H   0  0  0  0  0  0  0  0  0  0  0  0
   58.3261   35.4019   44.5420 H   0  0  0  0  0  0  0  0  0  0  0  0
   60.2860   34.7606   45.9373 H   0  0  0  0  0  0  0  0  0  0  0  0
   57.8109   29.8546   46.4490 H   0  0  0  0  0  0  0  0  0  0  0  0
   59.5342   29.8738   45.9371 H   0  0  0  0  0  0  0  0  0  0  0  0
   58.3319   30.7768   48.5920 H   0  0  0  0  0  0  0  0  0  0  0  0
   59.5781   29.4711   48.2518 H   0  0  0  0  0  0  0  0  0  0  0  0
   59.9670   32.1040   48.9900 H   0  0  0  0  0  0  0  0  0  0  0  0
   61.1322   30.2272   49.7979 H   0  0  0  0  0  0  0  0  0  0  0  0
   61.8234   29.9741   48.1352 H   0  0  0  0  0  0  0  0  0  0  0  0
   63.5085   30.2425   50.6022 H   0  0  0  0  0  0  0  0  0  0  0  0
   65.4681   31.7036   51.0936 H   0  0  0  0  0  0  0  0  0  0  0  0
   65.7036   33.9076   49.9506 H   0  0  0  0  0  0  0  0  0  0  0  0
   63.9793   34.6575   48.3140 H   0  0  0  0  0  0  0  0  0  0  0  0
   61.1141   34.1335   48.0699 H   0  0  0  0  0  0  0  0  0  0  0  0
   62.2277   33.7705   46.6817 H   0  0  0  0  0  0  0  0  0  0  0  0
   61.3615   31.5897   46.4132 H   0  0  0  0  0  0  0  0  0  0  0  0
  1  2  1  0
  2  3  1  0
  3  4  2  0
  4  5  1  0
  5  6  2  0
  6  7  1  0
  7  8  2  0
  8  9  1  0
  9 10  1  0
 10 11  1  0
 11 12  1  0
 12 13  1  0
 13 14  2  0
 14 15  1  0
 15 16  2  0
 16 17  1  0
 17 18  2  0
 18 19  1  0
 19 20  1  0
  8  3  1  0
 20 11  1  0
 20  7  1  0
 18 13  1  0
  1 21  1  0
  1 22  1  0
  1 23  1  0
  4 24  1  0
  5 25  1  0
  6 26  1  0
  9 27  1  0
  9 28  1  0
 10 29  1  0
 10 30  1  0
 11 31  1  1
 12 32  1  0
 12 33  1  0
 14 34  1  0
 15 35  1  0
 16 36  1  0
 17 37  1  0
 19 38  1  0
 19 39  1  0
 20 40  1  6
M  CHG  1  11   1
M  END
>  <UniqueID>  (43) 
43

>  <SMILES>  (43) 
COc1cccc2c1CC[N@H+]1Cc3ccccc3C[C@H]21

>  <Energy>  (43) 
61.51127037371098

>  <Genealogy>  (43) 
COc1cccc2c1CC[NH+]1Cc3ccccc3CC21 (protonated)
COc1cccc2c1CC[N@H+]1Cc3ccccc3C[C@H]21 (chirality)
COc1cccc2c1CC[N@H+]1Cc3ccccc3C[C@H]21 (3D coordinates assigned)
COc1cccc2c1CC[N@H+]1Cc3ccccc3C[C@H]21 (nonaromatic ring conformer: 61.51127037371098 kcal/mol)

>  <smiles>  (43) 
COc1cccc2c1CCN1Cc3ccccc3CC21

>  <score_type>  (43) 
oracle

>  <origin>  (43) 
adg

>  <m_score__min__energy>  (43) 
-5.9699999999999998

>  <m_primary>  (43) 
energy

$$$$
43:0
     RDKit          3D

 35 37  0  0  0  0  0  0  0  0999 V2000
   58.2310   33.0260   52.7190 C   0  0  0  0  0  0  0  0  0  0  0  0
   58.9350   32.0730   51.7960 C   0  0  0  0  0  0  0  0  0  0  0  0
   59.8490   32.5480   50.8450 C   0  0  0  0  0  0  0  0  0  0  0  0
   60.4840   31.6570   49.9820 C   0  0  0  0  0  0  0  0  0  0  0  0
   60.2050   30.2950   50.0790 C   0  0  0  0  0  0  0  0  0  0  0  0
   59.3110   29.8420   50.9990 N   0  0  0  0  0  0  0  0  0  0  0  0
   58.6580   30.6950   51.8440 C   0  0  0  0  0  0  0  0  0  0  0  0
   57.7390   30.2110   52.7890 O   0  0  0  0  0  0  0  0  0  0  0  0
   56.3450   30.2230   52.6390 C   0  0  0  0  0  0  0  0  0  0  0  0
   55.6830   31.2300   51.9140 C   0  0  0  0  0  0  0  0  0  0  0  0
   54.2900   31.2180   51.8030 C   0  0  0  0  0  0  0  0  0  0  0  0
   53.5390   30.2020   52.4150 C   0  0  0  0  0  0  0  0  0  0  0  0
   52.0380   30.2090   52.3280 C   0  0  0  0  0  0  0  0  0  0  0  0
   51.6020   30.7350   50.9950 C   0  0  0  0  0  0  0  0  0  0  0  0
   51.5270   29.9900   49.8780 N   0  0  0  0  0  0  0  0  0  0  0  0
   51.0310   30.8530   48.9650 C   0  0  0  0  0  0  0  0  0  0  0  0
   50.8170   30.5240   47.7690 O   0  0  0  0  0  0  0  0  0  0  0  0
   50.7750   32.0940   49.4350 N   0  0  0  0  0  0  0  0  0  0  0  0
   51.1370   31.9990   50.7230 C   0  0  0  0  0  0  0  0  0  0  0  0
   51.0400   33.0440   51.6330 O   0  0  0  0  0  0  0  0  0  0  0  0
   54.2000   29.2150   53.1640 C   0  0  0  0  0  0  0  0  0  0  0  0
   55.5930   29.2290   53.2750 C   0  0  0  0  0  0  0  0  0  0  0  0
   58.4378   32.7460   53.7625 H   0  0  0  0  0  0  0  0  0  0  0  0
   58.5922   34.0486   52.5353 H   0  0  0  0  0  0  0  0  0  0  0  0
   57.1474   32.9813   52.5353 H   0  0  0  0  0  0  0  0  0  0  0  0
   60.0650   33.6246   50.7800 H   0  0  0  0  0  0  0  0  0  0  0  0
   61.1987   32.0252   49.2313 H   0  0  0  0  0  0  0  0  0  0  0  0
   60.7097   29.5834   49.4090 H   0  0  0  0  0  0  0  0  0  0  0  0
   59.1510   28.8120   51.0660 H   0  0  0  0  0  0  0  0  0  0  0  0
   56.2640   32.0303   51.4324 H   0  0  0  0  0  0  0  0  0  0  0  0
   53.7795   32.0085   51.2333 H   0  0  0  0  0  0  0  0  0  0  0  0
   51.6614   29.1833   52.4552 H   0  0  0  0  0  0  0  0  0  0  0  0
   51.6345   30.8569   53.1201 H   0  0  0  0  0  0  0  0  0  0  0  0
   53.6187   28.4273   53.6656 H   0  0  0  0  0  0  0  0  0  0  0  0
   56.1017   28.4534   53.8663 H   0  0  0  0  0  0  0  0  0  0  0  0
  1  2  1  0
  2  3  2  0
  3  4  1  0
  4  5  2  0
  5  6  1  0
  6  7  2  0
  7  8  1  0
  8  9  1  0
  9 10  2  0
 10 11  1  0
 11 12  2  0
 12 13  1  0
 13 14  1  0
 14 15  1  0
 15 16  1  0
 16 17  2  0
 16 18  1  0
 18 19  1  0
 19 20  1  0
 12 21  1  0
 21 22  2  0
  7  2  1  0
 22  9  1  0
 19 14  2  0
  1 23  1  0
  1 24  1  0
  1 25  1  0
  3 26  1  0
  4 27  1  0
  5 28  1  0
  6 29  1  0
 10 30  1  0
 11 31  1  0
 13 32  1  0
 13 33  1  0
 21 34  1  0
 22 35  1  0
M  CHG  4   6   1  15  -1  18  -1  20  -1
M  END
>  <UniqueID>  (44) 
44

>  <SMILES>  (44) 
Cc1ccc[nH+]c1Oc1ccc(Cc2[n-]c(=O)[n-]c2[O-])cc1

>  <Energy>  (44) 
70.6091510281102

>  <Genealogy>  (44) 
Cc1ccc[nH+]c1Oc1ccc(Cc2[n-]c(=O)[n-]c2[O-])cc1 (protonated)
Cc1ccc[nH+]c1Oc1ccc(Cc2[n-]c(=O)[n-]c2[O-])cc1 (3D coordinates assigned)
Cc1ccc[nH+]c1Oc1ccc(Cc2[n-]c(=O)[n-]c2[O-])cc1 (optimized conformer: 70.6091510281102 kcal/mol)

>  <smiles>  (44) 
Cc1cccnc1Oc1ccc(Cc2[nH]c(=O)[nH]c2O)cc1

>  <score_type>  (44) 
oracle

>  <origin>  (44) 
adg

>  <m_score__min__energy>  (44) 
-14.52

>  <m_primary>  (44) 
energy

$$$$
44:0
     RDKit          3D

 42 44  0  0  0  0  0  0  0  0999 V2000
   57.7680   26.9910   44.6700 C   0  0  0  0  0  0  0  0  0  0  0  0
   57.1060   27.9180   45.5240 O   0  0  0  0  0  0  0  0  0  0  0  0
   57.4520   29.2740   45.6490 C   0  0  0  0  0  0  0  0  0  0  0  0
   58.3740   29.7220   46.6130 C   0  0  0  0  0  0  0  0  0  0  0  0
   58.6960   31.0830   46.7130 C   0  0  0  0  0  0  0  0  0  0  0  0
   59.5940   31.5110   47.6400 N   0  0  0  0  0  0  0  0  0  0  0  0
   59.9170   32.8270   47.7620 C   0  0  0  0  0  0  0  0  0  0  0  0
   60.9280   33.2100   48.7760 C   0  0  0  0  0  0  0  0  0  0  0  0
   60.4940   33.4600   50.0870 C   0  0  0  0  0  0  0  0  0  0  0  0
   61.4010   33.8500   51.0710 C   0  0  0  0  0  0  0  0  0  0  0  0
   62.7510   34.0000   50.7560 C   0  0  0  0  0  0  0  0  0  0  0  0
   63.2000   33.7540   49.4570 C   0  0  0  0  0  0  0  0  0  0  0  0
   62.3030   33.3410   48.4510 C   0  0  0  0  0  0  0  0  0  0  0  0
   62.8090   33.0780   47.0450 C   0  0  0  0  0  0  0  0  0  0  0  0
   64.1380   33.4480   46.9390 F   0  0  0  0  0  0  0  0  0  0  0  0
   62.0930   33.7970   46.1040 F   0  0  0  0  0  0  0  0  0  0  0  0
   62.6870   31.7330   46.7530 F   0  0  0  0  0  0  0  0  0  0  0  0
   59.3320   33.7660   46.9430 N   0  0  0  0  0  0  0  0  0  0  0  0
   59.6940   35.1900   47.0660 C   0  0  0  0  0  0  0  0  0  0  0  0
   58.4450   33.3660   45.9720 C   0  0  0  0  0  0  0  0  0  0  0  0
   57.9380   34.2150   45.1860 O   0  0  0  0  0  0  0  0  0  0  0  0
   58.0970   32.0100   45.8460 C   0  0  0  0  0  0  0  0  0  0  0  0
   57.1780   31.5620   44.8790 C   0  0  0  0  0  0  0  0  0  0  0  0
   56.8530   30.1950   44.7790 C   0  0  0  0  0  0  0  0  0  0  0  0
   55.9390   29.7150   43.8280 O   0  0  0  0  0  0  0  0  0  0  0  0
   56.2680   29.3890   42.4810 C   0  0  0  0  0  0  0  0  0  0  0  0
   58.3000   26.2460   45.2798 H   0  0  0  0  0  0  0  0  0  0  0  0
   57.0268   26.4834   44.0352 H   0  0  0  0  0  0  0  0  0  0  0  0
   58.4886   27.5273   44.0352 H   0  0  0  0  0  0  0  0  0  0  0  0
   58.8461   28.9984   47.2938 H   0  0  0  0  0  0  0  0  0  0  0  0
   60.0570   30.8140   48.2690 H   0  0  0  0  0  0  0  0  0  0  0  0
   59.4295   33.3473   50.3401 H   0  0  0  0  0  0  0  0  0  0  0  0
   61.0515   34.0395   52.0966 H   0  0  0  0  0  0  0  0  0  0  0  0
   63.4641   34.3129   51.5329 H   0  0  0  0  0  0  0  0  0  0  0  0
   64.2654   33.8839   49.2160 H   0  0  0  0  0  0  0  0  0  0  0  0
   59.7627   35.4603   48.1301 H   0  0  0  0  0  0  0  0  0  0  0  0
   60.6651   35.3648   46.5799 H   0  0  0  0  0  0  0  0  0  0  0  0
   58.9242   35.8073   46.5799 H   0  0  0  0  0  0  0  0  0  0  0  0
   56.7095   32.2854   44.1955 H   0  0  0  0  0  0  0  0  0  0  0  0
   57.0493   28.6148   42.4715 H   0  0  0  0  0  0  0  0  0  0  0  0
   55.3722   29.0122   41.9656 H   0  0  0  0  0  0  0  0  0  0  0  0
   56.6365   30.2882   41.9656 H   0  0  0  0  0  0  0  0  0  0  0  0
  1  2  1  0
  2  3  1  0
  3  4  2  0
  4  5  1  0
  5  6  1  0
  6  7  2  0
  7  8  1  0
  8  9  2  0
  9 10  1  0
 10 11  2  0
 11 12  1  0
 12 13  2  0
 13 14  1  0
 14 15  1  0
 14 16  1  0
 14 17  1  0
  7 18  1  0
 18 19  1  0
 18 20  1  0
 20 21  2  0
 20 22  1  0
 22 23  1  0
 23 24  2  0
 24 25  1  0
 25 26  1  0
 24  3  1  0
 22  5  2  0
 13  8  1  0
  1 27  1  0
  1 28  1  0
  1 29  1  0
  4 30  1  0
  6 31  1  0
  9 32  1  0
 10 33  1  0
 11 34  1  0
 12 35  1  0
 19 36  1  0
 19 37  1  0
 19 38  1  0
 23 39  1  0
 26 40  1  0
 26 41  1  0
 26 42  1  0
M  CHG  1   6   1
M  END
>  <UniqueID>  (45) 
45

>  <SMILES>  (45) 
COc1cc2[nH+]c(-c3ccccc3C(F)(F)F)n(C)c(=O)c2cc1OC

>  <Energy>  (45) 
61.28330476342064

>  <Genealogy>  (45) 
COc1cc2[nH+]c(-c3ccccc3C(F)(F)F)n(C)c(=O)c2cc1OC (protonated)
COc1cc2[nH+]c(-c3ccccc3C(F)(F)F)n(C)c(=O)c2cc1OC (3D coordinates assigned)
COc1cc2[nH+]c(-c3ccccc3C(F)(F)F)n(C)c(=O)c2cc1OC (optimized conformer: 61.28330476342064 kcal/mol)

>  <smiles>  (45) 
COc1cc2nc(-c3ccccc3C(F)(F)F)n(C)c(=O)c2cc1OC

>  <score_type>  (45) 
oracle

>  <origin>  (45) 
adg

>  <m_score__min__energy>  (45) 
-5.0999999999999996

>  <m_primary>  (45) 
energy

$$$$
45:0
     RDKit          3D

 49 51  0  0  0  0  0  0  0  0999 V2000
   62.1930   32.8120   51.1830 C   0  0  0  0  0  0  0  0  0  0  0  0
   61.5630   33.2370   49.8900 C   0  0  0  0  0  0  0  0  0  0  0  0
   62.3400   33.3380   48.7790 N   0  0  0  0  0  0  0  0  0  0  0  0
   61.8380   33.7250   47.5750 C   0  0  0  0  0  0  0  0  0  0  0  0
   62.7690   33.8020   46.4010 C   0  0  0  0  0  0  0  0  0  0  0  0
   60.4600   34.0210   47.4740 C   0  0  0  0  0  0  0  0  0  0  0  0
   59.8110   34.4820   46.1940 C   0  0  0  0  0  0  0  0  0  0  0  0
   58.6050   33.6910   45.9180 N   0  0  0  0  0  0  0  0  0  0  0  0
   57.4480   33.7810   46.8080 C   0  0  0  0  0  0  0  0  0  0  0  0
   58.4800   32.9410   44.6980 C   0  0  0  0  0  0  0  0  0  0  0  0
   58.8900   33.4420   43.6170 O   0  0  0  0  0  0  0  0  0  0  0  0
   57.8450   31.6130   44.6750 C   0  0  0  0  0  0  0  0  0  0  0  0
   58.4890   30.3940   44.5950 C   0  0  0  0  0  0  0  0  0  0  0  0
   57.4590   29.4820   44.6740 C   0  0  0  0  0  0  0  0  0  0  0  0
   57.5840   27.9920   44.6570 C   0  0  0  0  0  0  0  0  0  0  0  0
   57.7090   27.4890   45.9860 O   0  0  0  0  0  0  0  0  0  0  0  0
   58.6440   27.9260   46.9400 C   0  0  0  0  0  0  0  0  0  0  0  0
   58.5000   29.1450   47.6320 C   0  0  0  0  0  0  0  0  0  0  0  0
   59.4540   29.5390   48.5760 C   0  0  0  0  0  0  0  0  0  0  0  0
   60.5600   28.7260   48.8370 C   0  0  0  0  0  0  0  0  0  0  0  0
   61.4880   29.1150   49.7460 F   0  0  0  0  0  0  0  0  0  0  0  0
   60.7130   27.5160   48.1550 C   0  0  0  0  0  0  0  0  0  0  0  0
   59.7620   27.1160   47.2090 C   0  0  0  0  0  0  0  0  0  0  0  0
   59.9790   25.5890   46.3680 Cl  0  0  0  0  0  0  0  0  0  0  0  0
   56.3230   30.1290   44.7920 O   0  0  0  0  0  0  0  0  0  0  0  0
   56.5170   31.4160   44.8010 N   0  0  0  0  0  0  0  0  0  0  0  0
   59.6900   33.9320   48.5900 N   0  0  0  0  0  0  0  0  0  0  0  0
   60.1940   33.5540   49.7950 C   0  0  0  0  0  0  0  0  0  0  0  0
   59.2760   33.4810   50.9780 C   0  0  0  0  0  0  0  0  0  0  0  0
   61.6058   33.2081   52.0246 H   0  0  0  0  0  0  0  0  0  0  0  0
   62.2153   31.7135   51.2364 H   0  0  0  0  0  0  0  0  0  0  0  0
   63.2199   33.2027   51.2364 H   0  0  0  0  0  0  0  0  0  0  0  0
   63.8053   33.8877   46.7598 H   0  0  0  0  0  0  0  0  0  0  0  0
   62.6662   32.8923   45.7912 H   0  0  0  0  0  0  0  0  0  0  0  0
   62.5181   34.6825   45.7912 H   0  0  0  0  0  0  0  0  0  0  0  0
   59.5350   35.5426   46.2890 H   0  0  0  0  0  0  0  0  0  0  0  0
   60.5222   34.3494   45.3654 H   0  0  0  0  0  0  0  0  0  0  0  0
   57.7872   33.7546   47.8541 H   0  0  0  0  0  0  0  0  0  0  0  0
   56.9130   34.7235   46.6197 H   0  0  0  0  0  0  0  0  0  0  0  0
   56.7737   32.9326   46.6197 H   0  0  0  0  0  0  0  0  0  0  0  0
   59.5665   30.1979   44.4927 H   0  0  0  0  0  0  0  0  0  0  0  0
   56.6885   27.5583   44.1879 H   0  0  0  0  0  0  0  0  0  0  0  0
   58.4817   27.7154   44.0845 H   0  0  0  0  0  0  0  0  0  0  0  0
   57.6326   29.7903   47.4287 H   0  0  0  0  0  0  0  0  0  0  0  0
   59.3333   30.4908   49.1140 H   0  0  0  0  0  0  0  0  0  0  0  0
   61.5833   26.8760   48.3621 H   0  0  0  0  0  0  0  0  0  0  0  0
   59.8673   33.5280   51.9044 H   0  0  0  0  0  0  0  0  0  0  0  0
   58.5724   34.3260   50.9488 H   0  0  0  0  0  0  0  0  0  0  0  0
   58.7148   32.5354   50.9488 H   0  0  0  0  0  0  0  0  0  0  0  0
  1  2  1  0
  2  3  2  0
  3  4  1  0
  4  5  1  0
  4  6  2  0
  6  7  1  0
  7  8  1  0
  8  9  1  0
  8 10  1  0
 10 11  2  0
 10 12  1  0
 12 13  1  0
 13 14  2  0
 14 15  1  0
 15 16  1  0
 16 17  1  0
 17 18  2  0
 18 19  1  0
 19 20  2  0
 20 21  1  0
 20 22  1  0
 22 23  2  0
 23 24  1  0
 14 25  1  0
 25 26  1  0
  6 27  1  0
 27 28  2  0
 28 29  1  0
 28  2  1  0
 26 12  2  0
 23 17  1  0
  1 30  1  0
  1 31  1  0
  1 32  1  0
  5 33  1  0
  5 34  1  0
  5 35  1  0
  7 36  1  0
  7 37  1  0
  9 38  1  0
  9 39  1  0
  9 40  1  0
 13 41  1  0
 15 42  1  0
 15 43  1  0
 18 44  1  0
 19 45  1  0
 22 46  1  0
 29 47  1  0
 29 48  1  0
 29 49  1  0
M  END
>  <UniqueID>  (46) 
46

>  <SMILES>  (46) 
Cc1nc(C)c(CN(C)C(=O)c2cc(COc3ccc(F)cc3Cl)on2)nc1C

>  <Energy>  (46) 
81.38261110471191

>  <Genealogy>  (46) 
Cc1nc(C)c(CN(C)C(=O)c2cc(COc3ccc(F)cc3Cl)on2)nc1C (3D coordinates assigned)
Cc1nc(C)c(CN(C)C(=O)c2cc(COc3ccc(F)cc3Cl)on2)nc1C (optimized conformer: 81.38261110471191 kcal/mol)

>  <smiles>  (46) 
Cc1nc(C)c(CN(C)C(=O)c2cc(COc3ccc(F)cc3Cl)on2)nc1C

>  <score_type>  (46) 
oracle

>  <origin>  (46) 
adg

>  <m_score__min__energy>  (46) 
-8.4600000000000009

>  <m_primary>  (46) 
energy

$$$$
46:0
     RDKit          3D

 32 33  0  0  0  0  0  0  0  0999 V2000
   57.8970   33.1390   44.1400 C   0  0  0  0  0  0  0  0  0  0  0  0
   59.1490   33.8480   44.6460 C   0  0  0  0  0  0  0  0  0  0  0  0
   58.8830   34.4690   45.9610 N   0  0  0  0  0  0  0  0  0  0  0  0
   57.7800   33.8470   46.7270 C   0  0  0  0  0  0  0  0  0  0  0  0
   58.2180   32.6770   47.6140 C   0  0  0  0  0  0  0  0  0  0  0  0
   59.2300   31.8640   46.9410 N   0  0  0  0  0  0  0  0  0  0  0  0
   58.8070   30.6560   46.2240 C   0  0  0  0  0  0  0  0  0  0  0  0
   60.6280   32.2340   47.0010 C   0  0  0  0  0  0  0  0  0  0  0  0
   61.6040   31.2280   47.1510 C   0  0  0  0  0  0  0  0  0  0  0  0
   62.9600   31.5460   47.2190 C   0  0  0  0  0  0  0  0  0  0  0  0
   63.3700   32.8730   47.1440 C   0  0  0  0  0  0  0  0  0  0  0  0
   62.4260   33.8870   46.9950 C   0  0  0  0  0  0  0  0  0  0  0  0
   61.0530   33.5920   46.9040 C   0  0  0  0  0  0  0  0  0  0  0  0
   60.0940   34.7670   46.7540 C   0  0  0  0  0  0  0  0  0  0  0  0
   57.2966   32.7990   44.9967 H   0  0  0  0  0  0  0  0  0  0  0  0
   57.3031   33.8349   43.5292 H   0  0  0  0  0  0  0  0  0  0  0  0
   58.1883   32.2718   43.5292 H   0  0  0  0  0  0  0  0  0  0  0  0
   59.9654   33.1177   44.7467 H   0  0  0  0  0  0  0  0  0  0  0  0
   59.4348   34.6312   43.9285 H   0  0  0  0  0  0  0  0  0  0  0  0
   57.3278   34.6172   47.3691 H   0  0  0  0  0  0  0  0  0  0  0  0
   57.0719   33.4395   45.9904 H   0  0  0  0  0  0  0  0  0  0  0  0
   58.6378   33.0724   48.5507 H   0  0  0  0  0  0  0  0  0  0  0  0
   57.3414   32.0461   47.8227 H   0  0  0  0  0  0  0  0  0  0  0  0
   58.5338   29.8757   46.9496 H   0  0  0  0  0  0  0  0  0  0  0  0
   57.9374   30.8901   45.5924 H   0  0  0  0  0  0  0  0  0  0  0  0
   59.6327   30.2964   45.5924 H   0  0  0  0  0  0  0  0  0  0  0  0
   61.2910   30.1754   47.2154 H   0  0  0  0  0  0  0  0  0  0  0  0
   63.7066   30.7461   47.3321 H   0  0  0  0  0  0  0  0  0  0  0  0
   64.4398   33.1220   47.2023 H   0  0  0  0  0  0  0  0  0  0  0  0
   62.7591   34.9343   46.9478 H   0  0  0  0  0  0  0  0  0  0  0  0
   59.7779   35.0836   47.7589 H   0  0  0  0  0  0  0  0  0  0  0  0
   60.6407   35.5511   46.2097 H   0  0  0  0  0  0  0  0  0  0  0  0
  1  2  1  0
  2  3  1  0
  3  4  1  0
  4  5  1  0
  5  6  1  0
  6  7  1  0
  6  8  1  0
  8  9  2  0
  9 10  1  0
 10 11  2  0
 11 12  1  0
 12 13  2  0
 13 14  1  0
 14  3  1  0
 13  8  1  0
  1 15  1  0
  1 16  1  0
  1 17  1  0
  2 18  1  0
  2 19  1  0
  4 20  1  0
  4 21  1  0
  5 22  1  0
  5 23  1  0
  7 24  1  0
  7 25  1  0
  7 26  1  0
  9 27  1  0
 10 28  1  0
 11 29  1  0
 12 30  1  0
 14 31  1  0
 14 32  1  0
M  END
>  <UniqueID>  (47) 
47

>  <SMILES>  (47) 
CCN1CCN(C)c2ccccc2C1

>  <Energy>  (47) 
44.06240365249272

>  <Genealogy>  (47) 
CCN1CCN(C)c2ccccc2C1 (3D coordinates assigned)
CCN1CCN(C)c2ccccc2C1 (nonaromatic ring conformer: 44.06240365249272 kcal/mol)

>  <smiles>  (47) 
CCN1CCN(C)c2ccccc2C1

>  <score_type>  (47) 
oracle

>  <origin>  (47) 
adg

>  <m_score__min__energy>  (47) 
-4.2300000000000004

>  <m_primary>  (47) 
energy

$$$$
