0:0
     RDKit          3D

 53 54  0  0  0  0  0  0  0  0999 V2000
   58.5320   29.9640   46.5430 C   0  0  0  0  0  0  0  0  0  0  0  0
   58.1550   30.0590   45.0670 C   0  0  0  0  0  0  0  0  0  0  0  0
   57.0100   30.9780   44.8560 N   0  0  0  0  0  0  0  0  0  0  0  0
   55.8980   30.2710   44.1760 C   0  0  0  0  0  0  0  0  0  0  0  0
   56.3670   29.7070   42.8370 C   0  0  0  0  0  0  0  0  0  0  0  0
   57.4140   32.2140   44.1340 C   0  0  0  0  0  0  0  0  0  0  0  0
   57.0310   33.4640   44.9470 C   0  0  0  0  0  0  0  0  0  0  0  0
   57.0340   33.2360   46.4050 N   0  0  0  0  0  0  0  0  0  0  0  0
   58.3310   33.4730   46.9950 C   0  0  0  0  0  0  0  0  0  0  0  0
   58.6110   33.0370   48.3030 C   0  0  0  0  0  0  0  0  0  0  0  0
   59.8640   33.2710   48.8750 C   0  0  0  0  0  0  0  0  0  0  0  0
   60.8660   33.9260   48.1440 C   0  0  0  0  0  0  0  0  0  0  0  0
   62.2040   34.2000   48.7800 C   0  0  0  0  0  0  0  0  0  0  0  0
   63.2520   33.3210   48.2150 N   0  0  0  0  0  0  0  0  0  0  0  0
   64.5000   33.3200   49.0280 C   0  0  0  0  0  0  0  0  0  0  0  0
   64.7400   32.0190   49.8210 C   0  0  0  0  0  0  0  0  0  0  0  0
   63.4240   31.4350   50.3300 C   0  0  0  0  0  0  0  0  0  0  0  0
   62.4560   31.1340   49.1730 C   0  0  0  0  0  0  0  0  0  0  0  0
   62.7640   31.9570   47.9060 C   0  0  0  0  0  0  0  0  0  0  0  0
   60.6000   34.3410   46.8310 C   0  0  0  0  0  0  0  0  0  0  0  0
   59.3470   34.1080   46.2580 C   0  0  0  0  0  0  0  0  0  0  0  0
   57.6501   30.1862   47.1617 H   0  0  0  0  0  0  0  0  0  0  0  0
   58.8893   28.9477   46.7655 H   0  0  0  0  0  0  0  0  0  0  0  0
   59.3283   30.6896   46.7655 H   0  0  0  0  0  0  0  0  0  0  0  0
   59.0211   30.4312   44.5002 H   0  0  0  0  0  0  0  0  0  0  0  0
   57.8614   29.0570   44.7208 H   0  0  0  0  0  0  0  0  0  0  0  0
   55.5484   29.4463   44.8144 H   0  0  0  0  0  0  0  0  0  0  0  0
   55.0788   30.9828   43.9966 H   0  0  0  0  0  0  0  0  0  0  0  0
   57.0612   28.8722   43.0137 H   0  0  0  0  0  0  0  0  0  0  0  0
   55.4983   29.3470   42.2663 H   0  0  0  0  0  0  0  0  0  0  0  0
   56.8794   30.4955   42.2663 H   0  0  0  0  0  0  0  0  0  0  0  0
   58.5030   32.2029   43.9789 H   0  0  0  0  0  0  0  0  0  0  0  0
   56.8929   32.2464   43.1658 H   0  0  0  0  0  0  0  0  0  0  0  0
   57.7504   34.2638   44.7173 H   0  0  0  0  0  0  0  0  0  0  0  0
   56.0039   33.7357   44.6620 H   0  0  0  0  0  0  0  0  0  0  0  0
   56.7710   32.2390   46.5830 H   0  0  0  0  0  0  0  0  0  0  0  0
   56.3000   33.8310   46.8560 H   0  0  0  0  0  0  0  0  0  0  0  0
   57.8378   32.5080   48.8795 H   0  0  0  0  0  0  0  0  0  0  0  0
   60.0658   32.9397   49.9043 H   0  0  0  0  0  0  0  0  0  0  0  0
   62.4795   35.2495   48.5995 H   0  0  0  0  0  0  0  0  0  0  0  0
   62.1254   34.0013   49.8590 H   0  0  0  0  0  0  0  0  0  0  0  0
   65.3528   33.4726   48.3502 H   0  0  0  0  0  0  0  0  0  0  0  0
   64.3936   34.1257   49.7693 H   0  0  0  0  0  0  0  0  0  0  0  0
   65.2297   31.2838   49.1655 H   0  0  0  0  0  0  0  0  0  0  0  0
   65.3779   32.2501   50.6869 H   0  0  0  0  0  0  0  0  0  0  0  0
   63.6334   30.5015   50.8729 H   0  0  0  0  0  0  0  0  0  0  0  0
   62.9510   32.1753   50.9920 H   0  0  0  0  0  0  0  0  0  0  0  0
   62.5280   30.0650   48.9237 H   0  0  0  0  0  0  0  0  0  0  0  0
   61.4447   31.4080   49.5079 H   0  0  0  0  0  0  0  0  0  0  0  0
   63.5347   31.4311   47.3234 H   0  0  0  0  0  0  0  0  0  0  0  0
   61.8261   32.0598   47.3404 H   0  0  0  0  0  0  0  0  0  0  0  0
   61.3813   34.8523   46.2496 H   0  0  0  0  0  0  0  0  0  0  0  0
   59.1536   34.4237   45.2222 H   0  0  0  0  0  0  0  0  0  0  0  0
  1  2  1  0
  2  3  1  0
  3  4  1  0
  4  5  1  0
  3  6  1  0
  6  7  1  0
  7  8  1  0
  8  9  1  0
  9 10  2  0
 10 11  1  0
 11 12  2  0
 12 13  1  0
 13 14  1  0
 14 15  1  0
 15 16  1  0
 16 17  1  0
 17 18  1  0
 18 19  1  0
 12 20  1  0
 20 21  2  0
 21  9  1  0
 19 14  1  0
  1 22  1  0
  1 23  1  0
  1 24  1  0
  2 25  1  0
  2 26  1  0
  4 27  1  0
  4 28  1  0
  5 29  1  0
  5 30  1  0
  5 31  1  0
  6 32  1  0
  6 33  1  0
  7 34  1  0
  7 35  1  0
  8 36  1  0
  8 37  1  0
 10 38  1  0
 11 39  1  0
 13 40  1  0
 13 41  1  0
 15 42  1  0
 15 43  1  0
 16 44  1  0
 16 45  1  0
 17 46  1  0
 17 47  1  0
 18 48  1  0
 18 49  1  0
 19 50  1  0
 19 51  1  0
 20 52  1  0
 21 53  1  0
M  CHG  1   8   1
M  END
>  <UniqueID>  (1) 
1

>  <SMILES>  (1) 
CCN(CC)CC[NH2+]c1ccc(CN2CCCCC2)cc1

>  <Energy>  (1) 
60.2072106479049

>  <Genealogy>  (1) 
CCN(CC)CC[NH2+]c1ccc(CN2CCCCC2)cc1 (protonated)
CCN(CC)CC[NH2+]c1ccc(CN2CCCCC2)cc1 (3D coordinates assigned)
CCN(CC)CC[NH2+]c1ccc(CN2CCCCC2)cc1 (nonaromatic ring conformer: 60.2072106479049 kcal/mol)

>  <smiles>  (1) 
CCN(CC)CCNc1ccc(CN2CCCCC2)cc1

>  <score_type>  (1) 
oracle

>  <origin>  (1) 
adg

>  <m_score__min__energy>  (1) 
-5.3899999999999997

>  <m_primary>  (1) 
energy

$$$$
1:0
     RDKit          3D

 47 49  0  0  0  0  0  0  0  0999 V2000
   58.0624   35.3161   45.2211 H   0  0  0  0  0  0  0  0  0  0  0  0
   58.0870   34.2170   45.2570 C   0  0  0  0  0  0  0  0  0  0  0  0
   57.7660   33.4770   44.1190 C   0  0  0  0  0  0  0  0  0  0  0  0
   57.4863   33.9987   43.1919 H   0  0  0  0  0  0  0  0  0  0  0  0
   57.7960   32.0700   44.1440 C   0  0  0  0  0  0  0  0  0  0  0  0
   57.4440   31.3110   42.8900 C   0  0  0  0  0  0  0  0  0  0  0  0
   56.9954   30.3438   43.1606 H   0  0  0  0  0  0  0  0  0  0  0  0
   56.7251   31.8956   42.2972 H   0  0  0  0  0  0  0  0  0  0  0  0
   58.3546   31.1398   42.2972 H   0  0  0  0  0  0  0  0  0  0  0  0
   58.1540   31.4080   45.3460 C   0  0  0  0  0  0  0  0  0  0  0  0
   58.2080   30.0050   45.4510 C   0  0  0  0  0  0  0  0  0  0  0  0
   57.9636   29.3833   44.5770 H   0  0  0  0  0  0  0  0  0  0  0  0
   58.5710   29.3920   46.6610 C   0  0  0  0  0  0  0  0  0  0  0  0
   58.6310   27.8900   46.7570 C   0  0  0  0  0  0  0  0  0  0  0  0
   58.6430   27.5904   47.8154 H   0  0  0  0  0  0  0  0  0  0  0  0
   57.7495   27.4555   46.2629 H   0  0  0  0  0  0  0  0  0  0  0  0
   59.5444   27.5272   46.2629 H   0  0  0  0  0  0  0  0  0  0  0  0
   58.8750   30.1990   47.7730 C   0  0  0  0  0  0  0  0  0  0  0  0
   59.2080   29.6440   48.9040 N   0  0  0  0  0  0  0  0  0  0  0  0
   59.0070   30.1730   50.2250 C   0  0  0  0  0  0  0  0  0  0  0  0
   58.1070   29.7150   50.9810 O   0  0  0  0  0  0  0  0  0  0  0  0
   59.8960   31.2850   50.7200 C   0  0  0  0  0  0  0  0  0  0  0  0
   59.2620   32.0541   51.1852 H   0  0  0  0  0  0  0  0  0  0  0  0
   60.6044   30.8347   51.4309 H   0  0  0  0  0  0  0  0  0  0  0  0
   60.7050   31.9280   49.6550 N   0  0  0  0  0  0  0  0  0  0  0  0
   60.3260   31.5490   48.7540 H   0  0  0  0  0  0  0  0  0  0  0  0
   60.5290   33.4040   49.6240 C   0  0  0  0  0  0  0  0  0  0  0  0
   59.6527   33.6387   49.0019 H   0  0  0  0  0  0  0  0  0  0  0  0
   60.3995   33.7398   50.6634 H   0  0  0  0  0  0  0  0  0  0  0  0
   61.7540   34.1510   49.0490 C   0  0  0  0  0  0  0  0  0  0  0  0
   61.4128   35.1009   48.6116 H   0  0  0  0  0  0  0  0  0  0  0  0
   62.4610   34.3129   49.8760 H   0  0  0  0  0  0  0  0  0  0  0  0
   62.4580   33.3790   48.0080 N   0  0  0  0  0  0  0  0  0  0  0  0
   61.7060   33.3490   46.7430 C   0  0  0  0  0  0  0  0  0  0  0  0
   60.6281   33.3060   46.9581 H   0  0  0  0  0  0  0  0  0  0  0  0
   61.9282   34.2567   46.1628 H   0  0  0  0  0  0  0  0  0  0  0  0
   61.9998   32.4619   46.1628 H   0  0  0  0  0  0  0  0  0  0  0  0
   62.8730   32.0250   48.4570 C   0  0  0  0  0  0  0  0  0  0  0  0
   62.6790   31.3131   47.6412 H   0  0  0  0  0  0  0  0  0  0  0  0
   63.9407   32.0831   48.7153 H   0  0  0  0  0  0  0  0  0  0  0  0
   62.1280   31.5390   49.7160 C   0  0  0  0  0  0  0  0  0  0  0  0
   62.2017   30.4434   49.7803 H   0  0  0  0  0  0  0  0  0  0  0  0
   62.5864   32.0016   50.6025 H   0  0  0  0  0  0  0  0  0  0  0  0
   58.8180   31.5550   47.6520 N   0  0  0  0  0  0  0  0  0  0  0  0
   58.4750   32.1720   46.4930 C   0  0  0  0  0  0  0  0  0  0  0  0
   58.4390   33.5680   46.4400 C   0  0  0  0  0  0  0  0  0  0  0  0
   58.6892   34.1570   47.3347 H   0  0  0  0  0  0  0  0  0  0  0  0
  1  2  1  0
  2  3  2  0
  3  4  1  0
  3  5  1  0
  5  6  1  0
  6  7  1  0
  6  8  1  0
  6  9  1  0
  5 10  2  0
 10 11  1  0
 11 12  1  0
 11 13  2  0
 13 14  1  0
 14 15  1  0
 14 16  1  0
 14 17  1  0
 13 18  1  0
 18 19  2  0
 19 20  1  0
 20 21  2  0
 20 22  1  0
 22 23  1  0
 22 24  1  0
 22 25  1  0
 25 26  1  0
 25 27  1  0
 27 28  1  0
 27 29  1  0
 27 30  1  0
 30 31  1  0
 30 32  1  0
 30 33  1  0
 33 34  1  0
 34 35  1  0
 34 36  1  0
 34 37  1  0
 33 38  1  0
 38 39  1  0
 38 40  1  0
 38 41  1  0
 41 42  1  0
 41 43  1  0
 18 44  1  0
 44 45  1  0
 45 46  2  0
 46 47  1  0
 46  2  1  0
 45 10  1  0
 41 25  1  0
M  CHG  2  25   1  44  -1
M  END
>  <UniqueID>  (2) 
2

>  <SMILES>  (2) 
Cc1cc2c(C)cccc2[n-]/c1=N\C(=O)C[NH+]1CCN(C)CC1

>  <Energy>  (2) 
69.1771567767462

>  <Genealogy>  (2) 
Cc1cc2c(C)cccc2[n-]c1=NC(=O)C[NH+]1CCN(C)CC1 (protonated)
Cc1cc2c(C)cccc2[n-]/c1=N\C(=O)C[NH+]1CCN(C)CC1 (cis-trans isomerization)
Cc1cc2c(C)cccc2[n-]/c1=N\C(=O)C[NH+]1CCN(C)CC1 (3D coordinates assigned)
Cc1cc2c(C)cccc2[n-]/c1=N\C(=O)C[NH+]1CCN(C)CC1 (nonaromatic ring conformer: 69.1771567767462 kcal/mol)

>  <smiles>  (2) 
Cc1cc2c(C)cccc2[nH]c1=NC(=O)CN1CCN(C)CC1

>  <score_type>  (2) 
oracle

>  <origin>  (2) 
adg

>  <m_score__min__energy>  (2) 
-7.2300000000000004

>  <m_primary>  (2) 
energy

$$$$
2:0
     RDKit          3D

 57 59  0  0  0  0  0  0  0  0999 V2000
   56.7770   30.5560   42.6860 C   0  0  0  0  0  0  0  0  0  0  0  0
   55.8580   30.0310   43.7780 C   0  0  0  0  0  0  0  0  0  0  0  0
   56.5280   30.1060   45.0330 O   0  0  0  0  0  0  0  0  0  0  0  0
   57.8430   29.6730   45.2640 C   0  0  0  0  0  0  0  0  0  0  0  0
   58.2470   28.3470   45.0120 C   0  0  0  0  0  0  0  0  0  0  0  0
   59.5690   27.9560   45.2330 C   0  0  0  0  0  0  0  0  0  0  0  0
   60.5020   28.8790   45.7090 C   0  0  0  0  0  0  0  0  0  0  0  0
   60.1140   30.1960   45.9670 C   0  0  0  0  0  0  0  0  0  0  0  0
   58.7880   30.6010   45.7520 C   0  0  0  0  0  0  0  0  0  0  0  0
   58.4070   31.9580   46.0340 N   0  0  0  0  0  0  0  0  0  0  0  0
   58.1360   32.3830   47.4110 C   0  0  0  0  0  0  0  0  0  0  0  0
   58.7460   33.7710   47.6970 C   0  0  0  0  0  0  0  0  0  0  0  0
   58.9470   34.6100   46.4870 N   0  0  0  0  0  0  0  0  0  0  0  0
   60.3450   34.5850   45.9900 C   0  0  0  0  0  0  0  0  0  0  0  0
   61.2790   33.8690   46.9860 C   0  0  2  0  0  0  0  0  0  0  0  0
   61.3860   34.5910   48.1890 O   0  0  0  0  0  0  0  0  0  0  0  0
   62.6730   33.5820   46.3870 C   0  0  0  0  0  0  0  0  0  0  0  0
   63.5870   33.1260   47.3860 O   0  0  0  0  0  0  0  0  0  0  0  0
   63.2690   32.2830   48.4650 C   0  0  0  0  0  0  0  0  0  0  0  0
   64.0910   32.3250   49.5940 C   0  0  0  0  0  0  0  0  0  0  0  0
   63.8350   31.4990   50.6890 C   0  0  0  0  0  0  0  0  0  0  0  0
   62.7430   30.6290   50.6720 C   0  0  0  0  0  0  0  0  0  0  0  0
   61.8820   30.5940   49.5620 C   0  0  0  0  0  0  0  0  0  0  0  0
   60.7260   29.6240   49.5200 C   0  0  0  0  0  0  0  0  0  0  0  0
   60.4760   29.1600   50.7980 F   0  0  0  0  0  0  0  0  0  0  0  0
   59.5850   30.2380   49.0330 F   0  0  0  0  0  0  0  0  0  0  0  0
   61.0230   28.5500   48.6990 F   0  0  0  0  0  0  0  0  0  0  0  0
   62.1620   31.4100   48.4520 C   0  0  0  0  0  0  0  0  0  0  0  0
   57.9630   34.3110   45.4280 C   0  0  0  0  0  0  0  0  0  0  0  0
   58.1080   32.8670   44.9230 C   0  0  0  0  0  0  0  0  0  0  0  0
   57.6452   31.0520   43.1445 H   0  0  0  0  0  0  0  0  0  0  0  0
   57.1208   29.7180   42.0618 H   0  0  0  0  0  0  0  0  0  0  0  0
   56.2298   31.2777   42.0618 H   0  0  0  0  0  0  0  0  0  0  0  0
   54.9430   30.6406   43.8128 H   0  0  0  0  0  0  0  0  0  0  0  0
   55.5913   28.9854   43.5643 H   0  0  0  0  0  0  0  0  0  0  0  0
   57.5159   27.6148   44.6386 H   0  0  0  0  0  0  0  0  0  0  0  0
   59.8759   26.9190   45.0317 H   0  0  0  0  0  0  0  0  0  0  0  0
   61.5433   28.5691   45.8810 H   0  0  0  0  0  0  0  0  0  0  0  0
   60.8528   30.9201   46.3411 H   0  0  0  0  0  0  0  0  0  0  0  0
   57.0478   32.4309   47.5641 H   0  0  0  0  0  0  0  0  0  0  0  0
   58.5925   31.6540   48.0967 H   0  0  0  0  0  0  0  0  0  0  0  0
   58.0736   34.3087   48.3816 H   0  0  0  0  0  0  0  0  0  0  0  0
   59.7425   33.5951   48.1284 H   0  0  0  0  0  0  0  0  0  0  0  0
   60.3737   34.0547   45.0267 H   0  0  0  0  0  0  0  0  0  0  0  0
   60.6912   35.6225   45.8726 H   0  0  0  0  0  0  0  0  0  0  0  0
   60.8197   32.8941   47.2064 H   0  0  0  0  0  0  0  0  0  0  0  0
   62.3140   34.4890   48.5260 H   0  0  0  0  0  0  0  0  0  0  0  0
   62.5764   32.8086   45.6108 H   0  0  0  0  0  0  0  0  0  0  0  0
   63.0652   34.5170   45.9605 H   0  0  0  0  0  0  0  0  0  0  0  0
   64.9472   33.0151   49.6198 H   0  0  0  0  0  0  0  0  0  0  0  0
   64.4953   31.5333   51.5681 H   0  0  0  0  0  0  0  0  0  0  0  0
   62.5559   29.9682   51.5312 H   0  0  0  0  0  0  0  0  0  0  0  0
   61.5118   31.3670   47.5658 H   0  0  0  0  0  0  0  0  0  0  0  0
   56.9491   34.4494   45.8315 H   0  0  0  0  0  0  0  0  0  0  0  0
   58.1426   34.9936   44.5843 H   0  0  0  0  0  0  0  0  0  0  0  0
   57.1678   32.5555   44.4444 H   0  0  0  0  0  0  0  0  0  0  0  0
   58.9357   32.8263   44.1996 H   0  0  0  0  0  0  0  0  0  0  0  0
  1  2  1  0
  2  3  1  0
  3  4  1  0
  4  5  2  0
  5  6  1  0
  6  7  2  0
  7  8  1  0
  8  9  2  0
  9 10  1  0
 10 11  1  0
 11 12  1  0
 12 13  1  0
 13 14  1  0
 14 15  1  0
 15 16  1  0
 15 17  1  0
 17 18  1  0
 18 19  1  0
 19 20  2  0
 20 21  1  0
 21 22  2  0
 22 23  1  0
 23 24  1  0
 24 25  1  0
 24 26  1  0
 24 27  1  0
 23 28  2  0
 13 29  1  0
 29 30  1  0
  9  4  1  0
 30 10  1  0
 28 19  1  0
  1 31  1  0
  1 32  1  0
  1 33  1  0
  2 34  1  0
  2 35  1  0
  5 36  1  0
  6 37  1  0
  7 38  1  0
  8 39  1  0
 11 40  1  0
 11 41  1  0
 12 42  1  0
 12 43  1  0
 14 44  1  0
 14 45  1  0
 15 46  1  1
 16 47  1  0
 17 48  1  0
 17 49  1  0
 20 50  1  0
 21 51  1  0
 22 52  1  0
 28 53  1  0
 29 54  1  0
 29 55  1  0
 30 56  1  0
 30 57  1  0
M  END
>  <UniqueID>  (3) 
3

>  <SMILES>  (3) 
CCOc1ccccc1N1CCN(C[C@H](O)COc2cccc(C(F)(F)F)c2)CC1

>  <Energy>  (3) 
67.52804338335343

>  <Genealogy>  (3) 
CCOc1ccccc1N1CCN(C[C@H](O)COc2cccc(C(F)(F)F)c2)CC1 (chirality)
CCOc1ccccc1N1CCN(C[C@H](O)COc2cccc(C(F)(F)F)c2)CC1 (3D coordinates assigned)
CCOc1ccccc1N1CCN(C[C@H](O)COc2cccc(C(F)(F)F)c2)CC1 (nonaromatic ring conformer: 67.52804338335343 kcal/mol)

>  <smiles>  (3) 
CCOc1ccccc1N1CCN(CC(O)COc2cccc(C(F)(F)F)c2)CC1

>  <score_type>  (3) 
oracle

>  <origin>  (3) 
adg

>  <m_score__min__energy>  (3) 
-7.4000000000000004

>  <m_primary>  (3) 
energy

$$$$
3:0
     RDKit          3D

 54 57  0  0  0  0  0  0  0  0999 V2000
   64.9380   33.0910   49.1900 C   0  0  0  0  0  0  0  0  0  0  0  0
   63.5000   33.0730   48.7640 C   0  0  0  0  0  0  0  0  0  0  0  0
   63.0340   33.6100   47.5680 C   0  0  0  0  0  0  0  0  0  0  0  0
   61.6790   33.3680   47.5870 C   0  0  0  0  0  0  0  0  0  0  0  0
   60.7510   33.6820   46.6520 N   0  0  0  0  0  0  0  0  0  0  0  0
   59.4470   33.3410   46.8840 C   0  0  0  0  0  0  0  0  0  0  0  0
   58.3880   33.6530   45.8580 C   0  0  0  0  0  0  0  0  0  0  0  0
   57.3890   32.5010   45.6770 C   0  0  0  0  0  0  0  0  0  0  0  0
   58.0540   31.3270   45.0630 N   0  0  0  0  0  0  0  0  0  0  0  0
   57.7470   31.1940   43.6250 C   0  0  0  0  0  0  0  0  0  0  0  0
   56.2710   30.8080   43.3790 C   0  0  0  0  0  0  0  0  0  0  0  0
   55.6530   30.1820   44.5590 N   0  0  0  0  0  0  0  0  0  0  0  0
   56.5900   29.2770   45.2270 C   0  0  0  0  0  0  0  0  0  0  0  0
   57.7880   30.0650   45.7970 C   0  0  0  0  0  0  0  0  0  0  0  0
   59.1090   32.6810   48.0360 N   0  0  0  0  0  0  0  0  0  0  0  0
   60.0320   32.3670   48.9920 C   0  0  0  0  0  0  0  0  0  0  0  0
   59.5970   31.7570   50.2110 N   0  0  0  0  0  0  0  0  0  0  0  0
   58.7420   32.5110   51.1340 C   0  0  0  0  0  0  0  0  0  0  0  0
   57.3740   31.8090   51.3040 C   0  0  0  0  0  0  0  0  0  0  0  0
   57.3540   30.4500   50.8810 O   0  0  0  0  0  0  0  0  0  0  0  0
   58.5510   29.7910   51.2430 C   0  0  0  0  0  0  0  0  0  0  0  0
   59.6920   30.3010   50.3590 C   0  0  0  0  0  0  0  0  0  0  0  0
   61.3660   32.7190   48.7480 C   0  0  0  0  0  0  0  0  0  0  0  0
   62.4870   32.5070   49.4780 N   0  0  0  0  0  0  0  0  0  0  0  0
   62.6060   31.8500   50.7800 C   0  0  0  0  0  0  0  0  0  0  0  0
   64.9950   33.0917   50.2885 H   0  0  0  0  0  0  0  0  0  0  0  0
   65.4481   32.1992   48.7969 H   0  0  0  0  0  0  0  0  0  0  0  0
   65.4256   33.9953   48.7969 H   0  0  0  0  0  0  0  0  0  0  0  0
   63.6172   34.1145   46.7836 H   0  0  0  0  0  0  0  0  0  0  0  0
   61.0330   34.1740   45.7730 H   0  0  0  0  0  0  0  0  0  0  0  0
   57.8382   34.5498   46.1797 H   0  0  0  0  0  0  0  0  0  0  0  0
   58.8928   33.8130   44.8938 H   0  0  0  0  0  0  0  0  0  0  0  0
   56.9847   32.2151   46.6592 H   0  0  0  0  0  0  0  0  0  0  0  0
   56.5770   32.8358   45.0148 H   0  0  0  0  0  0  0  0  0  0  0  0
   57.9499   32.1545   43.1287 H   0  0  0  0  0  0  0  0  0  0  0  0
   58.3795   30.3921   43.2163 H   0  0  0  0  0  0  0  0  0  0  0  0
   55.7057   31.7164   43.1237 H   0  0  0  0  0  0  0  0  0  0  0  0
   56.2470   30.0758   42.5584 H   0  0  0  0  0  0  0  0  0  0  0  0
   54.8290   29.6210   44.2380 H   0  0  0  0  0  0  0  0  0  0  0  0
   56.0718   28.7613   46.0489 H   0  0  0  0  0  0  0  0  0  0  0  0
   56.9613   28.5450   44.4947 H   0  0  0  0  0  0  0  0  0  0  0  0
   57.5786   30.3088   46.8490 H   0  0  0  0  0  0  0  0  0  0  0  0
   58.6796   29.4294   45.6924 H   0  0  0  0  0  0  0  0  0  0  0  0
   59.2382   32.5783   52.1134 H   0  0  0  0  0  0  0  0  0  0  0  0
   58.5759   33.5174   50.7222 H   0  0  0  0  0  0  0  0  0  0  0  0
   57.1004   31.8419   52.3689 H   0  0  0  0  0  0  0  0  0  0  0  0
   56.6624   32.3483   50.6616 H   0  0  0  0  0  0  0  0  0  0  0  0
   58.7814   29.9995   52.2982 H   0  0  0  0  0  0  0  0  0  0  0  0
   58.4325   28.7061   51.1051 H   0  0  0  0  0  0  0  0  0  0  0  0
   60.6556   30.0438   50.8230 H   0  0  0  0  0  0  0  0  0  0  0  0
   59.6192   29.8309   49.3672 H   0  0  0  0  0  0  0  0  0  0  0  0
   62.4713   32.5934   51.5795 H   0  0  0  0  0  0  0  0  0  0  0  0
   61.8343   31.0713   50.8696 H   0  0  0  0  0  0  0  0  0  0  0  0
   63.6018   31.3914   50.8696 H   0  0  0  0  0  0  0  0  0  0  0  0
  1  2  1  0
  2  3  2  0
  3  4  1  0
  4  5  2  0
  5  6  1  0
  6  7  1  0
  7  8  1  0
  8  9  1  0
  9 10  1  0
 10 11  1  0
 11 12  1  0
 12 13  1  0
 13 14  1  0
  6 15  2  0
 15 16  1  0
 16 17  1  0
 17 18  1  0
 18 19  1  0
 19 20  1  0
 20 21  1  0
 21 22  1  0
 16 23  2  0
 23 24  1  0
 24 25  1  0
 24  2  1  0
 23  4  1  0
 14  9  1  0
 22 17  1  0
  1 26  1  0
  1 27  1  0
  1 28  1  0
  3 29  1  0
  5 30  1  0
  7 31  1  0
  7 32  1  0
  8 33  1  0
  8 34  1  0
 10 35  1  0
 10 36  1  0
 11 37  1  0
 11 38  1  0
 12 39  1  0
 13 40  1  0
 13 41  1  0
 14 42  1  0
 14 43  1  0
 18 44  1  0
 18 45  1  0
 19 46  1  0
 19 47  1  0
 21 48  1  0
 21 49  1  0
 22 50  1  0
 22 51  1  0
 25 52  1  0
 25 53  1  0
 25 54  1  0
M  CHG  1   5   1
M  END
>  <UniqueID>  (4) 
4

>  <SMILES>  (4) 
Cc1cc2[nH+]c(CCN3CCNCC3)nc(N3CCOCC3)c2n1C

>  <Energy>  (4) 
111.4838416507291

>  <Genealogy>  (4) 
Cc1cc2[nH+]c(CCN3CCNCC3)nc(N3CCOCC3)c2n1C (protonated)
Cc1cc2[nH+]c(CCN3CCNCC3)nc(N3CCOCC3)c2n1C (3D coordinates assigned)
Cc1cc2[nH+]c(CCN3CCNCC3)nc(N3CCOCC3)c2n1C (nonaromatic ring conformer: 111.4838416507291 kcal/mol)

>  <smiles>  (4) 
Cc1cc2nc(CCN3CCNCC3)nc(N3CCOCC3)c2n1C

>  <score_type>  (4) 
oracle

>  <origin>  (4) 
adg

>  <m_score__min__energy>  (4) 
-6.4000000000000004

>  <m_primary>  (4) 
energy

$$$$
4:0
     RDKit          3D

 43 45  0  0  0  0  0  0  0  0999 V2000
   58.8940   32.7700   49.9320 C   0  0  0  0  0  0  0  0  0  0  0  0
   59.6920   34.0550   49.7310 C   0  0  0  0  0  0  0  0  0  0  0  0
   59.5650   34.5660   48.2940 C   0  0  0  0  0  0  0  0  0  0  0  0
   59.6320   33.4460   47.3520 N   0  0  0  0  0  0  0  0  0  0  0  0
   58.6010   33.0540   46.6180 N   0  0  0  0  0  0  0  0  0  0  0  0
   58.9200   31.9010   45.9950 C   0  0  0  0  0  0  0  0  0  0  0  0
   58.0170   31.1420   45.0940 C   0  0  0  0  0  0  0  0  0  0  0  0
   57.4160   29.9430   45.5210 C   0  0  0  0  0  0  0  0  0  0  0  0
   56.5650   29.2320   44.6690 C   0  0  0  0  0  0  0  0  0  0  0  0
   56.3030   29.7080   43.3830 C   0  0  0  0  0  0  0  0  0  0  0  0
   56.8930   30.8960   42.9460 C   0  0  0  0  0  0  0  0  0  0  0  0
   57.7450   31.6100   43.7940 C   0  0  0  0  0  0  0  0  0  0  0  0
   60.2090   31.5380   46.3600 C   0  0  0  0  0  0  0  0  0  0  0  0
   60.6270   32.5400   47.2180 C   0  0  0  0  0  0  0  0  0  0  0  0
   61.9200   32.5590   47.9290 C   0  0  0  0  0  0  0  0  0  0  0  0
   62.1610   31.6480   48.9670 C   0  0  0  0  0  0  0  0  0  0  0  0
   63.3860   31.6520   49.6420 C   0  0  0  0  0  0  0  0  0  0  0  0
   64.3940   32.5640   49.2760 C   0  0  0  0  0  0  0  0  0  0  0  0
   65.6370   32.6100   49.9230 O   0  0  0  0  0  0  0  0  0  0  0  0
   66.1070   31.6210   50.8330 C   0  0  0  0  0  0  0  0  0  0  0  0
   64.1560   33.4570   48.2250 C   0  0  0  0  0  0  0  0  0  0  0  0
   62.9320   33.4520   47.5510 C   0  0  0  0  0  0  0  0  0  0  0  0
   58.7743   32.5773   51.0084 H   0  0  0  0  0  0  0  0  0  0  0  0
   57.9032   32.8770   49.4663 H   0  0  0  0  0  0  0  0  0  0  0  0
   59.4292   31.9294   49.4663 H   0  0  0  0  0  0  0  0  0  0  0  0
   59.3132   34.8241   50.4202 H   0  0  0  0  0  0  0  0  0  0  0  0
   60.7522   33.8419   49.9326 H   0  0  0  0  0  0  0  0  0  0  0  0
   58.6014   35.0832   48.1759 H   0  0  0  0  0  0  0  0  0  0  0  0
   60.3917   35.2610   48.0854 H   0  0  0  0  0  0  0  0  0  0  0  0
   57.6940   33.5670   46.5630 H   0  0  0  0  0  0  0  0  0  0  0  0
   57.6173   29.5621   46.5331 H   0  0  0  0  0  0  0  0  0  0  0  0
   56.1011   28.2957   45.0128 H   0  0  0  0  0  0  0  0  0  0  0  0
   55.6325   29.1479   42.7146 H   0  0  0  0  0  0  0  0  0  0  0  0
   56.6870   31.2707   41.9325 H   0  0  0  0  0  0  0  0  0  0  0  0
   58.2065   32.5447   43.4429 H   0  0  0  0  0  0  0  0  0  0  0  0
   60.7734   30.6503   46.0384 H   0  0  0  0  0  0  0  0  0  0  0  0
   61.3820   30.9257   49.2523 H   0  0  0  0  0  0  0  0  0  0  0  0
   63.5624   30.9400   50.4617 H   0  0  0  0  0  0  0  0  0  0  0  0
   65.9435   31.9650   51.8650 H   0  0  0  0  0  0  0  0  0  0  0  0
   65.5591   30.6814   50.6686 H   0  0  0  0  0  0  0  0  0  0  0  0
   67.1815   31.4525   50.6686 H   0  0  0  0  0  0  0  0  0  0  0  0
   64.9395   34.1692   47.9269 H   0  0  0  0  0  0  0  0  0  0  0  0
   62.7619   34.1522   46.7199 H   0  0  0  0  0  0  0  0  0  0  0  0
  1  2  1  0
  2  3  1  0
  3  4  1  0
  4  5  1  0
  5  6  2  0
  6  7  1  0
  7  8  2  0
  8  9  1  0
  9 10  2  0
 10 11  1  0
 11 12  2  0
  6 13  1  0
 13 14  2  0
 14 15  1  0
 15 16  2  0
 16 17  1  0
 17 18  2  0
 18 19  1  0
 19 20  1  0
 18 21  1  0
 21 22  2  0
 14  4  1  0
 22 15  1  0
 12  7  1  0
  1 23  1  0
  1 24  1  0
  1 25  1  0
  2 26  1  0
  2 27  1  0
  3 28  1  0
  3 29  1  0
  5 30  1  0
  8 31  1  0
  9 32  1  0
 10 33  1  0
 11 34  1  0
 12 35  1  0
 13 36  1  0
 16 37  1  0
 17 38  1  0
 20 39  1  0
 20 40  1  0
 20 41  1  0
 21 42  1  0
 22 43  1  0
M  CHG  1   5   1
M  END
>  <UniqueID>  (5) 
5

>  <SMILES>  (5) 
CCCn1[nH+]c(-c2ccccc2)cc1-c1ccc(OC)cc1

>  <Energy>  (5) 
77.25603804610778

>  <Genealogy>  (5) 
CCCn1[nH+]c(-c2ccccc2)cc1-c1ccc(OC)cc1 (protonated)
CCCn1[nH+]c(-c2ccccc2)cc1-c1ccc(OC)cc1 (3D coordinates assigned)
CCCn1[nH+]c(-c2ccccc2)cc1-c1ccc(OC)cc1 (optimized conformer: 77.25603804610778 kcal/mol)

>  <smiles>  (5) 
CCCn1nc(-c2ccccc2)cc1-c1ccc(OC)cc1

>  <score_type>  (5) 
oracle

>  <origin>  (5) 
adg

>  <m_score__min__energy>  (5) 
-5.6500000000000004

>  <m_primary>  (5) 
energy

$$$$
5:0
     RDKit          3D

 47 48  0  0  0  0  0  0  0  0999 V2000
   62.2380   31.3690   49.0440 C   0  0  0  0  0  0  0  0  0  0  0  0
   61.0030   32.0700   48.4600 C   0  0  0  0  0  0  0  0  0  0  0  0
   61.3000   32.9940   47.3450 N   0  0  0  0  0  0  0  0  0  0  0  0
   62.4760   33.8520   47.6000 C   0  0  0  0  0  0  0  0  0  0  0  0
   63.6620   33.4100   46.7470 C   0  0  0  0  0  0  0  0  0  0  0  0
   59.8890   33.8780   46.7840 S   0  0  0  0  0  0  0  0  0  0  0  0
   60.3320   35.1500   46.1160 O   0  0  0  0  0  0  0  0  0  0  0  0
   59.0480   34.2610   47.9690 O   0  0  0  0  0  0  0  0  0  0  0  0
   58.8790   32.9620   45.6580 C   0  0  0  0  0  0  0  0  0  0  0  0
   58.8780   33.2620   44.2900 C   0  0  0  0  0  0  0  0  0  0  0  0
   58.0830   32.5240   43.4160 C   0  0  0  0  0  0  0  0  0  0  0  0
   57.2820   31.4960   43.9170 C   0  0  0  0  0  0  0  0  0  0  0  0
   56.3110   30.4950   42.7850 S   0  0  0  0  0  0  0  0  0  0  0  0
   57.1340   28.9100   43.1910 C   0  0  0  0  0  0  0  0  0  0  0  0
   57.0410   28.5720   44.6540 C   0  0  0  0  0  0  0  0  0  0  0  0
   55.9040   28.5620   45.2010 O   0  0  0  0  0  0  0  0  0  0  0  0
   58.2110   28.3070   45.4460 N   0  0  0  0  0  0  0  0  0  0  0  0
   58.1630   28.1860   46.8910 C   0  0  0  0  0  0  0  0  0  0  0  0
   59.6140   28.1090   47.3440 C   0  0  0  0  0  0  0  0  0  0  0  0
   60.4220   27.7550   46.0990 C   0  0  0  0  0  0  0  0  0  0  0  0
   59.5510   28.1420   44.9100 C   0  0  0  0  0  0  0  0  0  0  0  0
   57.2530   31.2460   45.2550 N   0  0  0  0  0  0  0  0  0  0  0  0
   58.0190   31.9580   46.1260 C   0  0  0  0  0  0  0  0  0  0  0  0
   62.1899   31.3963   50.1426 H   0  0  0  0  0  0  0  0  0  0  0  0
   62.2611   30.3232   48.7039 H   0  0  0  0  0  0  0  0  0  0  0  0
   63.1478   31.8853   48.7039 H   0  0  0  0  0  0  0  0  0  0  0  0
   60.3100   31.2986   48.0932 H   0  0  0  0  0  0  0  0  0  0  0  0
   60.5739   32.6793   49.2691 H   0  0  0  0  0  0  0  0  0  0  0  0
   62.2229   34.8939   47.3541 H   0  0  0  0  0  0  0  0  0  0  0  0
   62.7525   33.7664   48.6612 H   0  0  0  0  0  0  0  0  0  0  0  0
   64.4900   33.1014   47.4021 H   0  0  0  0  0  0  0  0  0  0  0  0
   63.3617   32.5634   46.1121 H   0  0  0  0  0  0  0  0  0  0  0  0
   63.9890   34.2466   46.1121 H   0  0  0  0  0  0  0  0  0  0  0  0
   59.5048   34.0802   43.9058 H   0  0  0  0  0  0  0  0  0  0  0  0
   58.0863   32.7494   42.3394 H   0  0  0  0  0  0  0  0  0  0  0  0
   56.6565   28.1059   42.6119 H   0  0  0  0  0  0  0  0  0  0  0  0
   58.1997   29.0118   42.9381 H   0  0  0  0  0  0  0  0  0  0  0  0
   57.6687   29.0634   47.3335 H   0  0  0  0  0  0  0  0  0  0  0  0
   57.5907   27.3011   47.2064 H   0  0  0  0  0  0  0  0  0  0  0  0
   59.9403   29.0781   47.7493 H   0  0  0  0  0  0  0  0  0  0  0  0
   59.7498   27.3618   48.1398 H   0  0  0  0  0  0  0  0  0  0  0  0
   61.3654   28.3203   46.0819 H   0  0  0  0  0  0  0  0  0  0  0  0
   60.6822   26.6864   46.0774 H   0  0  0  0  0  0  0  0  0  0  0  0
   59.9052   29.0834   44.4646 H   0  0  0  0  0  0  0  0  0  0  0  0
   59.5818   27.3800   44.1172 H   0  0  0  0  0  0  0  0  0  0  0  0
   56.6390   30.4870   45.6240 H   0  0  0  0  0  0  0  0  0  0  0  0
   57.9632   31.7446   47.2037 H   0  0  0  0  0  0  0  0  0  0  0  0
  1  2  1  0
  2  3  1  0
  3  4  1  0
  4  5  1  0
  3  6  1  0
  6  7  2  0
  6  8  2  0
  6  9  1  0
  9 10  2  0
 10 11  1  0
 11 12  2  0
 12 13  1  0
 13 14  1  0
 14 15  1  0
 15 16  2  0
 15 17  1  0
 17 18  1  0
 18 19  1  0
 19 20  1  0
 20 21  1  0
 12 22  1  0
 22 23  2  0
 23  9  1  0
 21 17  1  0
  1 24  1  0
  1 25  1  0
  1 26  1  0
  2 27  1  0
  2 28  1  0
  4 29  1  0
  4 30  1  0
  5 31  1  0
  5 32  1  0
  5 33  1  0
 10 34  1  0
 11 35  1  0
 14 36  1  0
 14 37  1  0
 18 38  1  0
 18 39  1  0
 19 40  1  0
 19 41  1  0
 20 42  1  0
 20 43  1  0
 21 44  1  0
 21 45  1  0
 22 46  1  0
 23 47  1  0
M  CHG  1  22   1
M  END
>  <UniqueID>  (6) 
6

>  <SMILES>  (6) 
CCN(CC)S(=O)(=O)c1ccc(SCC(=O)N2CCCC2)[nH+]c1

>  <Energy>  (6) 
39.90848945015168

>  <Genealogy>  (6) 
CCN(CC)S(=O)(=O)c1ccc(SCC(=O)N2CCCC2)[nH+]c1 (protonated)
CCN(CC)S(=O)(=O)c1ccc(SCC(=O)N2CCCC2)[nH+]c1 (3D coordinates assigned)
CCN(CC)S(=O)(=O)c1ccc(SCC(=O)N2CCCC2)[nH+]c1 (nonaromatic ring conformer: 39.90848945015168 kcal/mol)

>  <smiles>  (6) 
CCN(CC)S(=O)(=O)c1ccc(SCC(=O)N2CCCC2)nc1

>  <score_type>  (6) 
oracle

>  <origin>  (6) 
adg

>  <m_score__min__energy>  (6) 
-6.2800000000000002

>  <m_primary>  (6) 
energy

$$$$
6:0
     RDKit          3D

 31 33  0  0  0  0  0  0  0  0999 V2000
   59.2650   33.1030   50.0990 C   0  0  0  0  0  0  0  0  0  0  0  0
   59.6780   33.8720   48.9750 O   0  0  0  0  0  0  0  0  0  0  0  0
   60.9500   33.8050   48.3840 C   0  0  0  0  0  0  0  0  0  0  0  0
   62.1250   33.7910   49.1640 C   0  0  0  0  0  0  0  0  0  0  0  0
   63.3810   33.7740   48.5540 C   0  0  0  0  0  0  0  0  0  0  0  0
   63.4840   33.7750   47.1650 C   0  0  0  0  0  0  0  0  0  0  0  0
   62.3310   33.7810   46.3780 C   0  0  0  0  0  0  0  0  0  0  0  0
   61.0580   33.7770   46.9730 C   0  0  0  0  0  0  0  0  0  0  0  0
   59.8610   33.7730   46.1000 C   0  0  0  0  0  0  0  0  0  0  0  0
   59.2720   34.9640   45.6480 C   0  0  0  0  0  0  0  0  0  0  0  0
   58.1610   34.9070   44.8680 N   0  0  0  0  0  0  0  0  0  0  0  0
   57.6020   33.7200   44.5170 C   0  0  0  0  0  0  0  0  0  0  0  0
   58.1730   32.5250   44.9780 C   0  0  0  0  0  0  0  0  0  0  0  0
   57.6020   31.2510   44.6380 N   0  0  0  0  0  0  0  0  0  0  0  0
   58.2860   30.1110   44.4180 C   0  0  0  0  0  0  0  0  0  0  0  0
   57.3830   29.1130   44.1210 C   0  0  0  0  0  0  0  0  0  0  0  0
   56.1480   29.7270   44.1810 C   0  0  0  0  0  0  0  0  0  0  0  0
   56.3040   31.0280   44.4970 N   0  0  0  0  0  0  0  0  0  0  0  0
   59.2840   32.5880   45.7600 N   0  0  0  0  0  0  0  0  0  0  0  0
   59.5461   33.6265   51.0247 H   0  0  0  0  0  0  0  0  0  0  0  0
   58.1736   32.9690   50.0705 H   0  0  0  0  0  0  0  0  0  0  0  0
   59.7561   32.1191   50.0705 H   0  0  0  0  0  0  0  0  0  0  0  0
   62.0514   33.7935   50.2615 H   0  0  0  0  0  0  0  0  0  0  0  0
   64.2910   33.7598   49.1718 H   0  0  0  0  0  0  0  0  0  0  0  0
   64.4750   33.7711   46.6876 H   0  0  0  0  0  0  0  0  0  0  0  0
   62.4198   33.7889   45.2816 H   0  0  0  0  0  0  0  0  0  0  0  0
   59.7066   35.9363   45.9232 H   0  0  0  0  0  0  0  0  0  0  0  0
   56.7083   33.6962   43.8761 H   0  0  0  0  0  0  0  0  0  0  0  0
   59.3789   29.9964   44.4671 H   0  0  0  0  0  0  0  0  0  0  0  0
   57.5987   28.0599   43.8877 H   0  0  0  0  0  0  0  0  0  0  0  0
   55.1836   29.2302   43.9987 H   0  0  0  0  0  0  0  0  0  0  0  0
  1  2  1  0
  2  3  1  0
  3  4  2  0
  4  5  1  0
  5  6  2  0
  6  7  1  0
  7  8  2  0
  8  9  1  0
  9 10  2  0
 10 11  1  0
 11 12  2  0
 12 13  1  0
 13 14  1  0
 14 15  1  0
 15 16  2  0
 16 17  1  0
 17 18  2  0
 13 19  2  0
  8  3  1  0
 19  9  1  0
 18 14  1  0
  1 20  1  0
  1 21  1  0
  1 22  1  0
  4 23  1  0
  5 24  1  0
  6 25  1  0
  7 26  1  0
 10 27  1  0
 12 28  1  0
 15 29  1  0
 16 30  1  0
 17 31  1  0
M  END
>  <UniqueID>  (7) 
7

>  <SMILES>  (7) 
COc1ccccc1-c1cncc(-n2cccn2)n1

>  <Energy>  (7) 
70.57788137459461

>  <Genealogy>  (7) 
COc1ccccc1-c1cncc(-n2cccn2)n1 (3D coordinates assigned)
COc1ccccc1-c1cncc(-n2cccn2)n1 (optimized conformer: 70.57788137459461 kcal/mol)

>  <smiles>  (7) 
COc1ccccc1-c1cncc(-n2cccn2)n1

>  <score_type>  (7) 
oracle

>  <origin>  (7) 
adg

>  <m_score__min__energy>  (7) 
-6.6799999999999997

>  <m_primary>  (7) 
energy

$$$$
7:0
     RDKit          3D

 33 34  0  0  0  0  0  0  0  0999 V2000
   56.6490   29.3620   43.4190 C   0  0  0  0  0  0  0  0  0  0  0  0
   56.5540   30.1370   44.6080 O   0  0  0  0  0  0  0  0  0  0  0  0
   57.2830   31.3130   44.8470 C   0  0  0  0  0  0  0  0  0  0  0  0
   57.4990   32.2830   43.8490 C   0  0  0  0  0  0  0  0  0  0  0  0
   58.2310   33.4390   44.1380 C   0  0  0  0  0  0  0  0  0  0  0  0
   58.7500   33.6390   45.4220 C   0  0  0  0  0  0  0  0  0  0  0  0
   59.6890   35.1220   45.7910 S   0  0  0  0  0  0  0  0  0  0  0  0
   59.5100   34.9330   47.5940 C   0  0  0  0  0  0  0  0  0  0  0  0
   60.7350   34.2680   48.1520 C   0  0  0  0  0  0  0  0  0  0  0  0
   61.0200   34.4310   49.3320 O   0  0  0  0  0  0  0  0  0  0  0  0
   61.5960   33.4810   47.2980 N   0  0  2  0  0  0  0  0  0  0  0  0
   62.0160   32.2400   47.9500 C   0  0  0  0  0  0  0  0  0  0  0  0
   63.3980   31.9780   47.4280 C   0  0  0  0  0  0  0  0  0  0  0  0
   63.7430   33.2850   46.7500 C   0  0  0  0  0  0  0  0  0  0  0  0
   62.7140   34.2120   47.0130 O   0  0  0  0  0  0  0  0  0  0  0  0
   58.5420   32.6760   46.4150 C   0  0  0  0  0  0  0  0  0  0  0  0
   57.8110   31.5200   46.1270 C   0  0  0  0  0  0  0  0  0  0  0  0
   56.7790   28.3018   43.6818 H   0  0  0  0  0  0  0  0  0  0  0  0
   55.7293   29.4832   42.8279 H   0  0  0  0  0  0  0  0  0  0  0  0
   57.5122   29.7017   42.8279 H   0  0  0  0  0  0  0  0  0  0  0  0
   57.0906   32.1308   42.8390 H   0  0  0  0  0  0  0  0  0  0  0  0
   58.3991   34.1925   43.3544 H   0  0  0  0  0  0  0  0  0  0  0  0
   59.3880   35.9237   48.0561 H   0  0  0  0  0  0  0  0  0  0  0  0
   58.6263   34.3153   47.8118 H   0  0  0  0  0  0  0  0  0  0  0  0
   61.1070   33.2630   46.3960 H   0  0  0  0  0  0  0  0  0  0  0  0
   62.0321   32.3633   49.0429 H   0  0  0  0  0  0  0  0  0  0  0  0
   61.3287   31.4078   47.7380 H   0  0  0  0  0  0  0  0  0  0  0  0
   64.0978   31.7582   48.2477 H   0  0  0  0  0  0  0  0  0  0  0  0
   63.4569   31.1070   46.7587 H   0  0  0  0  0  0  0  0  0  0  0  0
   64.6961   33.6671   47.1445 H   0  0  0  0  0  0  0  0  0  0  0  0
   63.8430   33.1314   45.6654 H   0  0  0  0  0  0  0  0  0  0  0  0
   58.9541   32.8286   47.4234 H   0  0  0  0  0  0  0  0  0  0  0  0
   57.6493   30.7669   46.9123 H   0  0  0  0  0  0  0  0  0  0  0  0
  1  2  1  0
  2  3  1  0
  3  4  2  0
  4  5  1  0
  5  6  2  0
  6  7  1  0
  7  8  1  0
  8  9  1  0
  9 10  2  0
  9 11  1  0
 11 12  1  0
 12 13  1  0
 13 14  1  0
 14 15  1  0
  6 16  1  0
 16 17  2  0
 17  3  1  0
 15 11  1  0
  1 18  1  0
  1 19  1  0
  1 20  1  0
  4 21  1  0
  5 22  1  0
  8 23  1  0
  8 24  1  0
 11 25  1  6
 12 26  1  0
 12 27  1  0
 13 28  1  0
 13 29  1  0
 14 30  1  0
 14 31  1  0
 16 32  1  0
 17 33  1  0
M  CHG  1  11   1
M  END
>  <UniqueID>  (8) 
8

>  <SMILES>  (8) 
COc1ccc(SCC(=O)[N@@H+]2CCCO2)cc1

>  <Energy>  (8) 
28.850027039871595

>  <Genealogy>  (8) 
COc1ccc(SCC(=O)[NH+]2CCCO2)cc1 (protonated)
COc1ccc(SCC(=O)[N@@H+]2CCCO2)cc1 (chirality)
COc1ccc(SCC(=O)[N@@H+]2CCCO2)cc1 (3D coordinates assigned)
COc1ccc(SCC(=O)[N@@H+]2CCCO2)cc1 (nonaromatic ring conformer: 28.850027039871595 kcal/mol)

>  <smiles>  (8) 
COc1ccc(SCC(=O)N2CCCO2)cc1

>  <score_type>  (8) 
oracle

>  <origin>  (8) 
adg

>  <m_score__min__energy>  (8) 
-5.5

>  <m_primary>  (8) 
energy

$$$$
8:0
     RDKit          3D

 68 72  0  0  0  0  0  0  0  0999 V2000
   61.1450   28.6730   48.9370 O   0  0  0  0  0  0  0  0  0  0  0  0
   60.4450   29.3080   48.1050 C   0  0  0  0  0  0  0  0  0  0  0  0
   59.3920   28.7060   47.5580 O   0  0  0  0  0  0  0  0  0  0  0  0
   58.5780   29.3050   46.6920 C   0  0  0  0  0  0  0  0  0  0  0  0
   57.4760   28.6080   46.1530 C   0  0  0  0  0  0  0  0  0  0  0  0
   57.1950   27.1780   46.5850 C   0  0  0  0  0  0  0  0  0  0  0  0
   56.7620   26.3250   45.4500 N   0  0  0  0  0  0  0  0  0  0  0  0
   55.6830   25.3880   45.8740 C   0  0  0  0  0  0  0  0  0  0  0  0
   56.2260   23.9880   46.1970 C   0  0  0  0  0  0  0  0  0  0  0  0
   56.8670   23.3590   45.0150 N   0  0  0  0  0  0  0  0  0  0  0  0
   57.8390   22.3140   45.4080 C   0  0  0  0  0  0  0  0  0  0  0  0
   59.1480   22.4180   44.6100 C   0  0  0  0  0  0  0  0  0  0  0  0
   60.2660   22.2850   45.4470 O   0  0  0  0  0  0  0  0  0  0  0  0
   57.4810   24.3520   44.0930 C   0  0  0  0  0  0  0  0  0  0  0  0
   57.9190   25.6260   44.8300 C   0  0  0  0  0  0  0  0  0  0  0  0
   56.6310   29.2650   45.2350 C   0  0  0  0  0  0  0  0  0  0  0  0
   55.5370   28.6110   44.6780 O   0  0  0  0  0  0  0  0  0  0  0  0
   56.8830   30.5910   44.8660 C   0  0  0  0  0  0  0  0  0  0  0  0
   57.9700   31.2800   45.4040 C   0  0  0  0  0  0  0  0  0  0  0  0
   58.8200   30.6430   46.3160 C   0  0  0  0  0  0  0  0  0  0  0  0
   59.9180   31.3080   46.8670 C   0  0  0  0  0  0  0  0  0  0  0  0
   60.7560   30.6420   47.7720 C   0  0  0  0  0  0  0  0  0  0  0  0
   61.9260   31.3450   48.3570 C   0  0  0  0  0  0  0  0  0  0  0  0
   62.0510   31.4920   49.7490 C   0  0  0  0  0  0  0  0  0  0  0  0
   63.1540   32.1570   50.2940 C   0  0  0  0  0  0  0  0  0  0  0  0
   64.1530   32.6760   49.4570 C   0  0  0  0  0  0  0  0  0  0  0  0
   65.3210   33.4220   50.0500 C   0  0  0  0  0  0  0  0  0  0  0  0
   66.5100   32.5480   50.1480 N   0  0  0  0  0  0  0  0  0  0  0  0
   66.2160   31.3180   50.9200 C   0  0  0  0  0  0  0  0  0  0  0  0
   67.5050   30.7020   51.4870 C   0  0  0  0  0  0  0  0  0  0  0  0
   68.2100   31.5590   52.3760 O   0  0  0  0  0  0  0  0  0  0  0  0
   67.9620   32.9410   52.1540 C   0  0  0  0  0  0  0  0  0  0  0  0
   67.6850   33.2830   50.6790 C   0  0  0  0  0  0  0  0  0  0  0  0
   64.0320   32.5270   48.0670 C   0  0  0  0  0  0  0  0  0  0  0  0
   62.9300   31.8640   47.5210 C   0  0  0  0  0  0  0  0  0  0  0  0
   58.1118   26.7522   47.0187 H   0  0  0  0  0  0  0  0  0  0  0  0
   56.3779   27.2016   47.3210 H   0  0  0  0  0  0  0  0  0  0  0  0
   56.3460   26.9520   44.7200 H   0  0  0  0  0  0  0  0  0  0  0  0
   55.1933   25.7940   46.7714 H   0  0  0  0  0  0  0  0  0  0  0  0
   54.9722   25.2910   45.0401 H   0  0  0  0  0  0  0  0  0  0  0  0
   56.9699   24.0719   47.0029 H   0  0  0  0  0  0  0  0  0  0  0  0
   55.3799   23.3556   46.5041 H   0  0  0  0  0  0  0  0  0  0  0  0
   58.0658   22.4242   46.4787 H   0  0  0  0  0  0  0  0  0  0  0  0
   57.3884   21.3331   45.1963 H   0  0  0  0  0  0  0  0  0  0  0  0
   59.1704   21.6207   43.8525 H   0  0  0  0  0  0  0  0  0  0  0  0
   59.1866   23.4085   44.1330 H   0  0  0  0  0  0  0  0  0  0  0  0
   61.0160   21.9750   44.8730 H   0  0  0  0  0  0  0  0  0  0  0  0
   58.3616   23.8969   43.6160 H   0  0  0  0  0  0  0  0  0  0  0  0
   56.7254   24.6344   43.3452 H   0  0  0  0  0  0  0  0  0  0  0  0
   58.6359   25.3536   45.6186 H   0  0  0  0  0  0  0  0  0  0  0  0
   58.3797   26.3057   44.0981 H   0  0  0  0  0  0  0  0  0  0  0  0
   56.2194   31.0935   44.1468 H   0  0  0  0  0  0  0  0  0  0  0  0
   58.1593   32.3235   45.1118 H   0  0  0  0  0  0  0  0  0  0  0  0
   60.1247   32.3526   46.5911 H   0  0  0  0  0  0  0  0  0  0  0  0
   61.2767   31.0816   50.4138 H   0  0  0  0  0  0  0  0  0  0  0  0
   63.2386   32.2737   51.3845 H   0  0  0  0  0  0  0  0  0  0  0  0
   65.5597   34.2846   49.4105 H   0  0  0  0  0  0  0  0  0  0  0  0
   65.0471   33.7578   51.0611 H   0  0  0  0  0  0  0  0  0  0  0  0
   65.5408   31.5681   51.7516 H   0  0  0  0  0  0  0  0  0  0  0  0
   65.7445   30.5864   50.2473 H   0  0  0  0  0  0  0  0  0  0  0  0
   67.2400   29.7825   52.0295 H   0  0  0  0  0  0  0  0  0  0  0  0
   68.1706   30.5109   50.6323 H   0  0  0  0  0  0  0  0  0  0  0  0
   67.0875   33.2387   52.7511 H   0  0  0  0  0  0  0  0  0  0  0  0
   68.8713   33.4855   52.4484 H   0  0  0  0  0  0  0  0  0  0  0  0
   67.4957   34.3633   50.5946 H   0  0  0  0  0  0  0  0  0  0  0  0
   68.5655   32.9856   50.0906 H   0  0  0  0  0  0  0  0  0  0  0  0
   64.8091   32.9344   47.4035 H   0  0  0  0  0  0  0  0  0  0  0  0
   62.8475   31.7474   46.4303 H   0  0  0  0  0  0  0  0  0  0  0  0
  1  2  2  0
  2  3  1  0
  3  4  1  0
  4  5  2  0
  5  6  1  0
  6  7  1  0
  7  8  1  0
  8  9  1  0
  9 10  1  0
 10 11  1  0
 11 12  1  0
 12 13  1  0
 10 14  1  0
 14 15  1  0
  5 16  1  0
 16 17  1  0
 16 18  2  0
 18 19  1  0
 19 20  2  0
 20 21  1  0
 21 22  2  0
 22 23  1  0
 23 24  2  0
 24 25  1  0
 25 26  2  0
 26 27  1  0
 27 28  1  0
 28 29  1  0
 29 30  1  0
 30 31  1  0
 31 32  1  0
 32 33  1  0
 26 34  1  0
 34 35  2  0
 22  2  1  0
 35 23  1  0
 20  4  1  0
 33 28  1  0
 15  7  1  0
  6 36  1  0
  6 37  1  0
  7 38  1  0
  8 39  1  0
  8 40  1  0
  9 41  1  0
  9 42  1  0
 11 43  1  0
 11 44  1  0
 12 45  1  0
 12 46  1  0
 13 47  1  0
 14 48  1  0
 14 49  1  0
 15 50  1  0
 15 51  1  0
 18 52  1  0
 19 53  1  0
 21 54  1  0
 24 55  1  0
 25 56  1  0
 27 57  1  0
 27 58  1  0
 29 59  1  0
 29 60  1  0
 30 61  1  0
 30 62  1  0
 32 63  1  0
 32 64  1  0
 33 65  1  0
 33 66  1  0
 34 67  1  0
 35 68  1  0
M  CHG  2   7   1  17  -1
M  END
>  <UniqueID>  (9) 
9

>  <SMILES>  (9) 
O=c1oc2c(C[NH+]3CCN(CCO)CC3)c([O-])ccc2cc1-c1ccc(CN2CCOCC2)cc1

>  <Energy>  (9) 
111.73499191860657

>  <Genealogy>  (9) 
O=c1oc2c(C[NH+]3CCN(CCO)CC3)c([O-])ccc2cc1-c1ccc(CN2CCOCC2)cc1 (protonated)
O=c1oc2c(C[NH+]3CCN(CCO)CC3)c([O-])ccc2cc1-c1ccc(CN2CCOCC2)cc1 (3D coordinates assigned)
O=c1oc2c(C[NH+]3CCN(CCO)CC3)c([O-])ccc2cc1-c1ccc(CN2CCOCC2)cc1 (nonaromatic ring conformer: 111.73499191860657 kcal/mol)

>  <smiles>  (9) 
O=c1oc2c(CN3CCN(CCO)CC3)c(O)ccc2cc1-c1ccc(CN2CCOCC2)cc1

>  <score_type>  (9) 
oracle

>  <origin>  (9) 
adg

>  <m_score__min__energy>  (9) 
-9.4600000000000009

>  <m_primary>  (9) 
energy

$$$$
9:0
     RDKit          3D

 35 35  0  0  0  0  0  0  0  0999 V2000
   59.0160   29.7100   44.9980 C   0  0  0  0  0  0  0  0  0  0  0  0
   57.9600   30.5200   45.7610 C   0  0  0  0  0  0  0  0  0  0  0  0
   57.0580   31.3170   44.8900 N   0  0  0  0  0  0  0  0  0  0  0  0
   56.9900   30.7760   43.5140 C   0  0  0  0  0  0  0  0  0  0  0  0
   55.8970   29.7160   43.4160 C   0  0  0  0  0  0  0  0  0  0  0  0
   57.3500   32.7700   44.8910 C   0  0  0  0  0  0  0  0  0  0  0  0
   57.9950   33.2210   46.2080 C   0  0  0  0  0  0  0  0  0  0  0  0
   59.4170   33.1550   46.1150 O   0  0  0  0  0  0  0  0  0  0  0  0
   60.2690   34.1670   46.5750 C   0  0  0  0  0  0  0  0  0  0  0  0
   60.0180   35.3760   46.3110 O   0  0  0  0  0  0  0  0  0  0  0  0
   61.4690   33.8150   47.3650 C   0  0  0  0  0  0  0  0  0  0  0  0
   61.4690   33.9500   48.7620 C   0  0  0  0  0  0  0  0  0  0  0  0
   62.6060   33.6170   49.4980 C   0  0  0  0  0  0  0  0  0  0  0  0
   63.7410   33.1490   48.8330 C   0  0  0  0  0  0  0  0  0  0  0  0
   65.1780   32.7270   49.7480 Cl  0  0  0  0  0  0  0  0  0  0  0  0
   63.7330   33.0220   47.4780 N   0  0  0  0  0  0  0  0  0  0  0  0
   62.6350   33.3410   46.7390 C   0  0  0  0  0  0  0  0  0  0  0  0
   59.6777   29.2025   45.7154 H   0  0  0  0  0  0  0  0  0  0  0  0
   58.5171   28.9607   44.3658 H   0  0  0  0  0  0  0  0  0  0  0  0
   59.6104   30.3860   44.3658 H   0  0  0  0  0  0  0  0  0  0  0  0
   57.3451   29.8205   46.3463 H   0  0  0  0  0  0  0  0  0  0  0  0
   58.5061   31.2372   46.3914 H   0  0  0  0  0  0  0  0  0  0  0  0
   56.7665   31.5938   42.8131 H   0  0  0  0  0  0  0  0  0  0  0  0
   57.9574   30.3174   43.2613 H   0  0  0  0  0  0  0  0  0  0  0  0
   55.5865   29.4149   44.4274 H   0  0  0  0  0  0  0  0  0  0  0  0
   55.0330   30.1292   42.8750 H   0  0  0  0  0  0  0  0  0  0  0  0
   56.2835   28.8397   42.8750 H   0  0  0  0  0  0  0  0  0  0  0  0
   58.0374   32.9955   44.0624 H   0  0  0  0  0  0  0  0  0  0  0  0
   56.3988   33.3098   44.7739 H   0  0  0  0  0  0  0  0  0  0  0  0
   57.6938   34.2569   46.4227 H   0  0  0  0  0  0  0  0  0  0  0  0
   57.6595   32.5539   47.0157 H   0  0  0  0  0  0  0  0  0  0  0  0
   60.5702   34.3193   49.2776 H   0  0  0  0  0  0  0  0  0  0  0  0
   62.6085   33.7222   50.5930 H   0  0  0  0  0  0  0  0  0  0  0  0
   64.5870   32.6710   46.9890 H   0  0  0  0  0  0  0  0  0  0  0  0
   62.6604   33.2271   45.6452 H   0  0  0  0  0  0  0  0  0  0  0  0
  1  2  1  0
  2  3  1  0
  3  4  1  0
  4  5  1  0
  3  6  1  0
  6  7  1  0
  7  8  1  0
  8  9  1  0
  9 10  2  0
  9 11  1  0
 11 12  2  0
 12 13  1  0
 13 14  2  0
 14 15  1  0
 14 16  1  0
 16 17  2  0
 17 11  1  0
  1 18  1  0
  1 19  1  0
  1 20  1  0
  2 21  1  0
  2 22  1  0
  4 23  1  0
  4 24  1  0
  5 25  1  0
  5 26  1  0
  5 27  1  0
  6 28  1  0
  6 29  1  0
  7 30  1  0
  7 31  1  0
 12 32  1  0
 13 33  1  0
 16 34  1  0
 17 35  1  0
M  CHG  1  16   1
M  END
>  <UniqueID>  (10) 
10

>  <SMILES>  (10) 
CCN(CC)CCOC(=O)c1ccc(Cl)[nH+]c1

>  <Energy>  (10) 
31.718897237726306

>  <Genealogy>  (10) 
CCN(CC)CCOC(=O)c1ccc(Cl)[nH+]c1 (protonated)
CCN(CC)CCOC(=O)c1ccc(Cl)[nH+]c1 (3D coordinates assigned)
CCN(CC)CCOC(=O)c1ccc(Cl)[nH+]c1 (optimized conformer: 31.718897237726306 kcal/mol)

>  <smiles>  (10) 
CCN(CC)CCOC(=O)c1ccc(Cl)nc1

>  <score_type>  (10) 
oracle

>  <origin>  (10) 
adg

>  <m_score__min__energy>  (10) 
-4.6500000000000004

>  <m_primary>  (10) 
energy

$$$$
10:0
     RDKit          3D

 38 40  0  0  0  0  0  0  0  0999 V2000
   56.5100   23.5200   43.1270 C   0  0  0  0  0  0  0  0  0  0  0  0
   56.5880   24.1250   44.4140 O   0  0  0  0  0  0  0  0  0  0  0  0
   57.0180   25.4400   44.6500 C   0  0  0  0  0  0  0  0  0  0  0  0
   57.8320   26.1360   43.7340 C   0  0  0  0  0  0  0  0  0  0  0  0
   58.2400   27.4420   44.0040 C   0  0  0  0  0  0  0  0  0  0  0  0
   57.8470   28.0740   45.1890 C   0  0  0  0  0  0  0  0  0  0  0  0
   58.2670   29.4220   45.4660 N   0  0  0  0  0  0  0  0  0  0  0  0
   59.4850   29.6660   46.0560 C   0  0  0  0  0  0  0  0  0  0  0  0
   60.4140   28.5490   46.4410 C   0  0  0  0  0  0  0  0  0  0  0  0
   59.8760   30.9430   46.3060 N   0  0  0  0  0  0  0  0  0  0  0  0
   59.0900   32.0010   45.9930 C   0  0  0  0  0  0  0  0  0  0  0  0
   59.5270   33.3030   46.2670 C   0  0  0  0  0  0  0  0  0  0  0  0
   58.7150   34.3950   45.9490 C   0  0  0  0  0  0  0  0  0  0  0  0
   57.4660   34.1910   45.3550 C   0  0  0  0  0  0  0  0  0  0  0  0
   57.0230   32.8940   45.0790 C   0  0  0  0  0  0  0  0  0  0  0  0
   57.8340   31.7880   45.3970 C   0  0  0  0  0  0  0  0  0  0  0  0
   57.4380   30.4650   45.1380 C   0  0  0  0  0  0  0  0  0  0  0  0
   56.3180   30.2380   44.5970 O   0  0  0  0  0  0  0  0  0  0  0  0
   57.0340   27.3900   46.1020 C   0  0  0  0  0  0  0  0  0  0  0  0
   56.6160   26.0710   45.8390 C   0  0  0  0  0  0  0  0  0  0  0  0
   55.8050   25.3540   46.7320 O   0  0  0  0  0  0  0  0  0  0  0  0
   56.1880   24.1420   47.3740 C   0  0  0  0  0  0  0  0  0  0  0  0
   56.3701   22.4348   43.2399 H   0  0  0  0  0  0  0  0  0  0  0  0
   55.6591   23.9438   42.5736 H   0  0  0  0  0  0  0  0  0  0  0  0
   57.4406   23.7141   42.5736 H   0  0  0  0  0  0  0  0  0  0  0  0
   58.1473   25.6464   42.8008 H   0  0  0  0  0  0  0  0  0  0  0  0
   58.8737   27.9778   43.2820 H   0  0  0  0  0  0  0  0  0  0  0  0
   60.4708   28.4808   47.5374 H   0  0  0  0  0  0  0  0  0  0  0  0
   60.0350   27.6001   46.0337 H   0  0  0  0  0  0  0  0  0  0  0  0
   61.4161   28.7487   46.0337 H   0  0  0  0  0  0  0  0  0  0  0  0
   60.5100   33.4662   46.7328 H   0  0  0  0  0  0  0  0  0  0  0  0
   59.0592   35.4169   46.1665 H   0  0  0  0  0  0  0  0  0  0  0  0
   56.8303   35.0530   45.1042 H   0  0  0  0  0  0  0  0  0  0  0  0
   56.0392   32.7374   44.6126 H   0  0  0  0  0  0  0  0  0  0  0  0
   56.7196   27.8870   47.0316 H   0  0  0  0  0  0  0  0  0  0  0  0
   56.1457   24.2758   48.4650 H   0  0  0  0  0  0  0  0  0  0  0  0
   55.5007   23.3364   47.0765 H   0  0  0  0  0  0  0  0  0  0  0  0
   57.2135   23.8776   47.0765 H   0  0  0  0  0  0  0  0  0  0  0  0
  1  2  1  0
  2  3  1  0
  3  4  2  0
  4  5  1  0
  5  6  2  0
  6  7  1  0
  7  8  1  0
  8  9  1  0
  8 10  2  0
 10 11  1  0
 11 12  2  0
 12 13  1  0
 13 14  2  0
 14 15  1  0
 15 16  2  0
 16 17  1  0
 17 18  2  0
  6 19  1  0
 19 20  2  0
 20 21  1  0
 21 22  1  0
 20  3  1  0
 17  7  1  0
 16 11  1  0
  1 23  1  0
  1 24  1  0
  1 25  1  0
  4 26  1  0
  5 27  1  0
  9 28  1  0
  9 29  1  0
  9 30  1  0
 12 31  1  0
 13 32  1  0
 14 33  1  0
 15 34  1  0
 19 35  1  0
 22 36  1  0
 22 37  1  0
 22 38  1  0
M  END
>  <UniqueID>  (11) 
11

>  <SMILES>  (11) 
COc1ccc(-n2c(C)nc3ccccc3c2=O)cc1OC

>  <Energy>  (11) 
53.023920177722886

>  <Genealogy>  (11) 
COc1ccc(-n2c(C)nc3ccccc3c2=O)cc1OC (3D coordinates assigned)
COc1ccc(-n2c(C)nc3ccccc3c2=O)cc1OC (optimized conformer: 53.023920177722886 kcal/mol)

>  <smiles>  (11) 
COc1ccc(-n2c(C)nc3ccccc3c2=O)cc1OC

>  <score_type>  (11) 
oracle

>  <origin>  (11) 
adg

>  <m_score__min__energy>  (11) 
-7.1900000000000004

>  <m_primary>  (11) 
energy

$$$$
11:0
     RDKit          3D

 54 57  0  0  0  0  0  0  0  0999 V2000
   62.6310   33.8180   49.9970 H   0  0  0  0  0  0  0  0  0  0  0  0
   61.9240   33.3710   50.6240 N   0  0  0  0  0  0  0  0  0  0  0  0
   60.7290   33.0250   50.2480 C   0  0  0  0  0  0  0  0  0  0  0  0
   60.3070   33.1520   48.9030 C   0  0  0  0  0  0  0  0  0  0  0  0
   61.1830   33.7190   47.8980 C   0  0  0  0  0  0  0  0  0  0  0  0
   61.8820   34.1740   47.0950 N   0  0  0  0  0  0  0  0  0  0  0  0
   59.0010   32.7490   48.5560 C   0  0  0  0  0  0  0  0  0  0  0  0
   58.4930   32.8470   47.1670 C   0  0  0  0  0  0  0  0  0  0  0  0
   58.1850   34.1090   46.6330 C   0  0  0  0  0  0  0  0  0  0  0  0
   58.3207   35.0107   47.2482 H   0  0  0  0  0  0  0  0  0  0  0  0
   57.7080   34.2260   45.3270 C   0  0  0  0  0  0  0  0  0  0  0  0
   57.4737   35.2184   44.9145 H   0  0  0  0  0  0  0  0  0  0  0  0
   57.5280   33.0860   44.5440 C   0  0  0  0  0  0  0  0  0  0  0  0
   57.1554   33.1812   43.5134 H   0  0  0  0  0  0  0  0  0  0  0  0
   57.8200   31.8230   45.0660 C   0  0  0  0  0  0  0  0  0  0  0  0
   57.6758   30.9277   44.4434 H   0  0  0  0  0  0  0  0  0  0  0  0
   58.2980   31.6890   46.3850 C   0  0  0  0  0  0  0  0  0  0  0  0
   58.5760   30.4330   46.9490 O   0  0  0  0  0  0  0  0  0  0  0  0
   59.8520   29.8020   46.9270 C   0  0  0  0  0  0  0  0  0  0  0  0
   60.1950   29.6324   47.9583 H   0  0  0  0  0  0  0  0  0  0  0  0
   59.7753   28.8380   46.4028 H   0  0  0  0  0  0  0  0  0  0  0  0
   60.5716   30.4481   46.4028 H   0  0  0  0  0  0  0  0  0  0  0  0
   58.1480   32.2550   49.5490 C   0  0  0  0  0  0  0  0  0  0  0  0
   57.1229   31.9514   49.2902 H   0  0  0  0  0  0  0  0  0  0  0  0
   58.5960   32.1460   50.8720 C   0  0  0  0  0  0  0  0  0  0  0  0
   57.6920   31.6240   51.9280 C   0  0  0  0  0  0  0  0  0  0  0  0
   58.0370   31.7330   53.2870 C   0  0  0  0  0  0  0  0  0  0  0  0
   58.9840   32.2136   53.5735 H   0  0  0  0  0  0  0  0  0  0  0  0
   57.1850   31.2350   54.2750 C   0  0  0  0  0  0  0  0  0  0  0  0
   57.4633   31.3251   55.3354 H   0  0  0  0  0  0  0  0  0  0  0  0
   55.9810   30.6230   53.9210 C   0  0  0  0  0  0  0  0  0  0  0  0
   55.3164   30.2274   54.7032 H   0  0  0  0  0  0  0  0  0  0  0  0
   55.6160   30.5110   52.5710 C   0  0  0  0  0  0  0  0  0  0  0  0
   54.3350   29.8240   52.1780 C   0  0  0  0  0  0  0  0  0  0  0  0
   54.5294   29.1590   51.3236 H   0  0  0  0  0  0  0  0  0  0  0  0
   53.9670   29.2442   53.0373 H   0  0  0  0  0  0  0  0  0  0  0  0
   53.3070   30.8130   51.7980 N   0  0  0  0  0  0  0  0  0  0  0  0
   52.3000   30.9450   52.8660 C   0  0  0  0  0  0  0  0  0  0  0  0
   51.8050   29.9748   53.0201 H   0  0  0  0  0  0  0  0  0  0  0  0
   52.8001   31.2638   53.7924 H   0  0  0  0  0  0  0  0  0  0  0  0
   51.2430   32.0000   52.4770 C   0  0  0  0  0  0  0  0  0  0  0  0
   50.2422   31.5628   52.6085 H   0  0  0  0  0  0  0  0  0  0  0  0
   51.3882   32.8760   53.1263 H   0  0  0  0  0  0  0  0  0  0  0  0
   51.3790   32.4300   51.1340 O   0  0  0  0  0  0  0  0  0  0  0  0
   51.3960   31.3070   50.2760 C   0  0  0  0  0  0  0  0  0  0  0  0
   50.4964   30.7008   50.4584 H   0  0  0  0  0  0  0  0  0  0  0  0
   51.4163   31.6606   49.2346 H   0  0  0  0  0  0  0  0  0  0  0  0
   52.6470   30.4420   50.5270 C   0  0  0  0  0  0  0  0  0  0  0  0
   52.3487   29.3842   50.5729 H   0  0  0  0  0  0  0  0  0  0  0  0
   53.3572   30.6090   49.7037 H   0  0  0  0  0  0  0  0  0  0  0  0
   56.4770   31.0070   51.5790 C   0  0  0  0  0  0  0  0  0  0  0  0
   56.1988   30.9122   50.5190 H   0  0  0  0  0  0  0  0  0  0  0  0
   59.8680   32.5280   51.1830 N   0  0  0  0  0  0  0  0  0  0  0  0
   60.2080   32.4230   52.1660 H   0  0  0  0  0  0  0  0  0  0  0  0
  1  2  1  0
  2  3  2  0
  3  4  1  0
  4  5  1  0
  5  6  3  0
  4  7  2  0
  7  8  1  0
  8  9  2  0
  9 10  1  0
  9 11  1  0
 11 12  1  0
 11 13  2  0
 13 14  1  0
 13 15  1  0
 15 16  1  0
 15 17  2  0
 17 18  1  0
 18 19  1  0
 19 20  1  0
 19 21  1  0
 19 22  1  0
  7 23  1  0
 23 24  1  0
 23 25  2  0
 25 26  1  0
 26 27  2  0
 27 28  1  0
 27 29  1  0
 29 30  1  0
 29 31  2  0
 31 32  1  0
 31 33  1  0
 33 34  1  0
 34 35  1  0
 34 36  1  0
 34 37  1  0
 37 38  1  0
 38 39  1  0
 38 40  1  0
 38 41  1  0
 41 42  1  0
 41 43  1  0
 41 44  1  0
 44 45  1  0
 45 46  1  0
 45 47  1  0
 45 48  1  0
 48 49  1  0
 48 50  1  0
 33 51  2  0
 51 52  1  0
 25 53  1  0
 53 54  1  0
 53  3  1  0
 17  8  1  0
 51 26  1  0
 48 37  1  0
M  END
>  <UniqueID>  (12) 
12

>  <SMILES>  (12) 
[H]/N=c1/[nH]c(-c2cccc(CN3CCOCC3)c2)cc(-c2ccccc2OC)c1C#N

>  <Energy>  (12) 
81.04712122943354

>  <Genealogy>  (12) 
[H]/N=c1/[nH]c(-c2cccc(CN3CCOCC3)c2)cc(-c2ccccc2OC)c1C#N (cis-trans isomerization)
[H]/N=c1/[nH]c(-c2cccc(CN3CCOCC3)c2)cc(-c2ccccc2OC)c1C#N (3D coordinates assigned)
[H]/N=c1/[nH]c(-c2cccc(CN3CCOCC3)c2)cc(-c2ccccc2OC)c1C#N (nonaromatic ring conformer: 81.04712122943354 kcal/mol)

>  <smiles>  (12) 
COc1ccccc1-c1cc(-c2cccc(CN3CCOCC3)c2)[nH]c(=N)c1C#N

>  <score_type>  (12) 
oracle

>  <origin>  (12) 
adg

>  <m_score__min__energy>  (12) 
-8.7400000000000002

>  <m_primary>  (12) 
energy

$$$$
12:0
     RDKit          3D

 50 51  0  0  0  0  0  0  0  0999 V2000
   58.0260   24.1220   45.8750 C   0  0  0  0  0  0  0  0  0  0  0  0
   56.6830   24.6370   46.1650 N   0  0  0  0  0  0  0  0  0  0  0  0
   55.6710   23.7550   46.7560 C   0  0  0  0  0  0  0  0  0  0  0  0
   56.3310   26.0050   45.8630 C   0  0  0  0  0  0  0  0  0  0  0  0
   55.1410   26.3870   46.0390 O   0  0  0  0  0  0  0  0  0  0  0  0
   57.3140   26.9370   45.3680 N   0  0  0  0  0  0  0  0  0  0  0  0
   57.0110   28.2890   44.9820 C   0  0  0  0  0  0  0  0  0  0  0  0
   55.8320   28.7310   45.0450 O   0  0  0  0  0  0  0  0  0  0  0  0
   58.1040   29.2050   44.5200 C   0  0  0  0  0  0  0  0  0  0  0  0
   59.3720   28.5660   44.6470 O   0  0  0  0  0  0  0  0  0  0  0  0
   59.9650   28.2670   45.8800 C   0  0  0  0  0  0  0  0  0  0  0  0
   60.2200   27.0690   46.1870 O   0  0  0  0  0  0  0  0  0  0  0  0
   60.2950   29.3600   46.8210 C   0  0  0  0  0  0  0  0  0  0  0  0
   60.6520   30.6300   46.3360 C   0  0  0  0  0  0  0  0  0  0  0  0
   60.9650   31.6650   47.2210 C   0  0  0  0  0  0  0  0  0  0  0  0
   60.9220   31.4490   48.6030 C   0  0  0  0  0  0  0  0  0  0  0  0
   61.3440   32.7560   49.7080 S   0  0  0  0  0  0  0  0  0  0  0  0
   60.4770   32.6620   50.9320 O   0  0  0  0  0  0  0  0  0  0  0  0
   62.7810   32.6320   50.1340 O   0  0  0  0  0  0  0  0  0  0  0  0
   61.0880   34.2960   48.9440 N   0  0  0  0  0  0  0  0  0  0  0  0
   59.6540   34.5750   48.8590 C   0  0  0  0  0  0  0  0  0  0  0  0
   59.1630   34.2770   47.4700 C   0  0  0  0  0  0  0  0  0  0  0  0
   59.7040   34.9590   46.3660 C   0  0  0  0  0  0  0  0  0  0  0  0
   59.2200   34.7080   45.0780 C   0  0  0  0  0  0  0  0  0  0  0  0
   58.1870   33.7850   44.8850 C   0  0  0  0  0  0  0  0  0  0  0  0
   57.6350   33.1150   45.9800 C   0  0  0  0  0  0  0  0  0  0  0  0
   58.1170   33.3620   47.2690 C   0  0  0  0  0  0  0  0  0  0  0  0
   60.5730   30.1850   49.0950 C   0  0  0  0  0  0  0  0  0  0  0  0
   60.2590   29.1480   48.2120 C   0  0  0  0  0  0  0  0  0  0  0  0
   58.5530   23.9199   46.8192 H   0  0  0  0  0  0  0  0  0  0  0  0
   57.9443   23.1914   45.2942 H   0  0  0  0  0  0  0  0  0  0  0  0
   58.5875   24.8686   45.2942 H   0  0  0  0  0  0  0  0  0  0  0  0
   55.7330   23.8091   47.8529 H   0  0  0  0  0  0  0  0  0  0  0  0
   54.6704   24.0743   46.4292 H   0  0  0  0  0  0  0  0  0  0  0  0
   55.8506   22.7201   46.4292 H   0  0  0  0  0  0  0  0  0  0  0  0
   58.3080   26.6300   45.2820 H   0  0  0  0  0  0  0  0  0  0  0  0
   57.9347   29.4690   43.4657 H   0  0  0  0  0  0  0  0  0  0  0  0
   58.0969   30.1125   45.1416 H   0  0  0  0  0  0  0  0  0  0  0  0
   60.6852   30.8105   45.2514 H   0  0  0  0  0  0  0  0  0  0  0  0
   61.2464   32.6538   46.8297 H   0  0  0  0  0  0  0  0  0  0  0  0
   61.5250   35.0150   49.5660 H   0  0  0  0  0  0  0  0  0  0  0  0
   59.1150   33.9439   49.5809 H   0  0  0  0  0  0  0  0  0  0  0  0
   59.4742   35.6353   49.0900 H   0  0  0  0  0  0  0  0  0  0  0  0
   60.5103   35.6921   46.5156 H   0  0  0  0  0  0  0  0  0  0  0  0
   59.6522   35.2371   44.2159 H   0  0  0  0  0  0  0  0  0  0  0  0
   57.8091   33.5865   43.8712 H   0  0  0  0  0  0  0  0  0  0  0  0
   56.8200   32.3921   45.8276 H   0  0  0  0  0  0  0  0  0  0  0  0
   57.6751   32.8375   48.1290 H   0  0  0  0  0  0  0  0  0  0  0  0
   60.5459   30.0077   50.1803 H   0  0  0  0  0  0  0  0  0  0  0  0
   59.9818   28.1594   48.6069 H   0  0  0  0  0  0  0  0  0  0  0  0
  1  2  1  0
  2  3  1  0
  2  4  1  0
  4  5  2  0
  4  6  1  0
  6  7  1  0
  7  8  2  0
  7  9  1  0
  9 10  1  0
 10 11  1  0
 11 12  2  0
 11 13  1  0
 13 14  2  0
 14 15  1  0
 15 16  2  0
 16 17  1  0
 17 18  2  0
 17 19  2  0
 17 20  1  0
 20 21  1  0
 21 22  1  0
 22 23  2  0
 23 24  1  0
 24 25  2  0
 25 26  1  0
 26 27  2  0
 16 28  1  0
 28 29  2  0
 29 13  1  0
 27 22  1  0
  1 30  1  0
  1 31  1  0
  1 32  1  0
  3 33  1  0
  3 34  1  0
  3 35  1  0
  6 36  1  0
  9 37  1  0
  9 38  1  0
 14 39  1  0
 15 40  1  0
 20 41  1  0
 21 42  1  0
 21 43  1  0
 23 44  1  0
 24 45  1  0
 25 46  1  0
 26 47  1  0
 27 48  1  0
 28 49  1  0
 29 50  1  0
M  END
>  <UniqueID>  (13) 
13

>  <SMILES>  (13) 
CN(C)C(=O)NC(=O)COC(=O)c1ccc(S(=O)(=O)NCc2ccccc2)cc1

>  <Energy>  (13) 
42.80522604071382

>  <Genealogy>  (13) 
CN(C)C(=O)NC(=O)COC(=O)c1ccc(S(=O)(=O)NCc2ccccc2)cc1 (3D coordinates assigned)
CN(C)C(=O)NC(=O)COC(=O)c1ccc(S(=O)(=O)NCc2ccccc2)cc1 (optimized conformer: 42.80522604071382 kcal/mol)

>  <smiles>  (13) 
CN(C)C(=O)NC(=O)COC(=O)c1ccc(S(=O)(=O)NCc2ccccc2)cc1

>  <score_type>  (13) 
oracle

>  <origin>  (13) 
adg

>  <m_score__min__energy>  (13) 
-8.7100000000000009

>  <m_primary>  (13) 
energy

$$$$
13:0
     RDKit          3D

 50 52  0  0  0  0  0  0  0  0999 V2000
   57.4050   32.0080   42.2270 C   0  0  0  0  0  0  0  0  0  0  0  0
   57.7970   32.2860   43.6540 C   0  0  0  0  0  0  0  0  0  0  0  0
   58.5470   33.4380   43.9490 C   0  0  0  0  0  0  0  0  0  0  0  0
   58.9570   33.7040   45.2570 C   0  0  0  0  0  0  0  0  0  0  0  0
   58.5920   32.8420   46.2960 C   0  0  0  0  0  0  0  0  0  0  0  0
   59.1670   33.1100   47.9390 S   0  0  0  0  0  0  0  0  0  0  0  0
   58.0780   32.6950   48.8900 O   0  0  0  0  0  0  0  0  0  0  0  0
   59.4680   34.5680   48.1490 O   0  0  0  0  0  0  0  0  0  0  0  0
   60.6020   32.1470   48.2320 N   0  0  0  0  0  0  0  0  0  0  0  0
   61.4710   32.0730   47.0430 C   0  0  0  0  0  0  0  0  0  0  0  0
   62.2670   33.3780   46.8110 C   0  0  0  0  0  0  0  0  0  0  0  0
   62.3170   34.2230   47.9480 O   0  0  0  0  0  0  0  0  0  0  0  0
   62.5580   33.4600   49.1080 C   0  0  0  0  0  0  0  0  0  0  0  0
   61.3320   32.5930   49.4400 C   0  0  0  0  0  0  0  0  0  0  0  0
   57.7960   31.7270   46.0220 C   0  0  0  0  0  0  0  0  0  0  0  0
   57.4260   31.4140   44.7050 C   0  0  0  0  0  0  0  0  0  0  0  0
   56.6950   30.1530   44.4480 C   0  0  0  0  0  0  0  0  0  0  0  0
   55.4970   30.0460   44.8230 O   0  0  0  0  0  0  0  0  0  0  0  0
   57.3100   29.0560   43.7580 N   0  0  0  0  0  0  0  0  0  0  0  0
   58.0060   27.9620   44.4260 C   0  0  0  0  0  0  0  0  0  0  0  0
   59.4470   28.3610   44.7340 C   0  0  0  0  0  0  0  0  0  0  0  0
   59.7280   28.1690   46.2000 C   0  0  0  0  0  0  0  0  0  0  0  0
   60.3830   27.0100   46.6510 C   0  0  0  0  0  0  0  0  0  0  0  0
   60.7050   26.8660   48.0030 C   0  0  0  0  0  0  0  0  0  0  0  0
   60.3880   27.8790   48.9130 C   0  0  0  0  0  0  0  0  0  0  0  0
   60.7050   27.7360   50.2240 F   0  0  0  0  0  0  0  0  0  0  0  0
   59.7520   29.0420   48.4690 C   0  0  0  0  0  0  0  0  0  0  0  0
   59.4270   29.1900   47.1170 C   0  0  0  0  0  0  0  0  0  0  0  0
   56.5078   31.3717   42.2105 H   0  0  0  0  0  0  0  0  0  0  0  0
   57.1908   32.9572   41.7140 H   0  0  0  0  0  0  0  0  0  0  0  0
   58.2300   31.4920   41.7140 H   0  0  0  0  0  0  0  0  0  0  0  0
   58.8133   34.1363   43.1419 H   0  0  0  0  0  0  0  0  0  0  0  0
   59.5682   34.5932   45.4706 H   0  0  0  0  0  0  0  0  0  0  0  0
   62.1823   31.2446   47.1766 H   0  0  0  0  0  0  0  0  0  0  0  0
   60.8260   31.9139   46.1663 H   0  0  0  0  0  0  0  0  0  0  0  0
   63.2967   33.1118   46.5302 H   0  0  0  0  0  0  0  0  0  0  0  0
   61.7474   33.9356   46.0178 H   0  0  0  0  0  0  0  0  0  0  0  0
   63.4284   32.8087   48.9398 H   0  0  0  0  0  0  0  0  0  0  0  0
   62.7540   34.1404   49.9498 H   0  0  0  0  0  0  0  0  0  0  0  0
   61.6691   31.7051   49.9950 H   0  0  0  0  0  0  0  0  0  0  0  0
   60.6421   33.2085   50.0360 H   0  0  0  0  0  0  0  0  0  0  0  0
   57.4551   31.0865   46.8488 H   0  0  0  0  0  0  0  0  0  0  0  0
   57.4871   27.7218   45.3657 H   0  0  0  0  0  0  0  0  0  0  0  0
   58.0115   27.0838   43.7637 H   0  0  0  0  0  0  0  0  0  0  0  0
   60.1330   27.7339   44.1457 H   0  0  0  0  0  0  0  0  0  0  0  0
   59.5943   29.4191   44.4720 H   0  0  0  0  0  0  0  0  0  0  0  0
   60.6428   26.2141   45.9375 H   0  0  0  0  0  0  0  0  0  0  0  0
   61.2094   25.9530   48.3524 H   0  0  0  0  0  0  0  0  0  0  0  0
   59.5070   29.8414   49.1838 H   0  0  0  0  0  0  0  0  0  0  0  0
   58.9335   30.1098   46.7699 H   0  0  0  0  0  0  0  0  0  0  0  0
  1  2  1  0
  2  3  2  0
  3  4  1  0
  4  5  2  0
  5  6  1  0
  6  7  2  0
  6  8  2  0
  6  9  1  0
  9 10  1  0
 10 11  1  0
 11 12  1  0
 12 13  1  0
 13 14  1  0
  5 15  1  0
 15 16  2  0
 16 17  1  0
 17 18  2  0
 17 19  1  0
 19 20  1  0
 20 21  1  0
 21 22  1  0
 22 23  2  0
 23 24  1  0
 24 25  2  0
 25 26  1  0
 25 27  1  0
 27 28  2  0
 16  2  1  0
 28 22  1  0
 14  9  1  0
  1 29  1  0
  1 30  1  0
  1 31  1  0
  3 32  1  0
  4 33  1  0
 10 34  1  0
 10 35  1  0
 11 36  1  0
 11 37  1  0
 13 38  1  0
 13 39  1  0
 14 40  1  0
 14 41  1  0
 15 42  1  0
 20 43  1  0
 20 44  1  0
 21 45  1  0
 21 46  1  0
 23 47  1  0
 24 48  1  0
 27 49  1  0
 28 50  1  0
M  CHG  1  19  -1
M  END
>  <UniqueID>  (14) 
14

>  <SMILES>  (14) 
Cc1ccc(S(=O)(=O)N2CCOCC2)cc1C(=O)[N-]CCc1ccc(F)cc1

>  <Energy>  (14) 
61.47249915446632

>  <Genealogy>  (14) 
Cc1ccc(S(=O)(=O)N2CCOCC2)cc1C(=O)[N-]CCc1ccc(F)cc1 (protonated)
Cc1ccc(S(=O)(=O)N2CCOCC2)cc1C(=O)[N-]CCc1ccc(F)cc1 (3D coordinates assigned)
Cc1ccc(S(=O)(=O)N2CCOCC2)cc1C(=O)[N-]CCc1ccc(F)cc1 (nonaromatic ring conformer: 61.47249915446632 kcal/mol)

>  <smiles>  (14) 
Cc1ccc(S(=O)(=O)N2CCOCC2)cc1C(=O)NCCc1ccc(F)cc1

>  <score_type>  (14) 
oracle

>  <origin>  (14) 
adg

>  <m_score__min__energy>  (14) 
-10.58

>  <m_primary>  (14) 
energy

$$$$
14:0
     RDKit          3D

 57 60  0  0  0  0  0  0  0  0999 V2000
   56.6460   27.4560   44.2500 H   0  0  0  0  0  0  0  0  0  0  0  0
   56.9280   27.6030   45.2460 N   0  0  0  0  0  0  0  0  0  0  0  0
   57.4430   28.7210   45.6480 C   0  0  0  0  0  0  0  0  0  0  0  0
   58.0490   28.7780   46.8590 N   0  0  0  0  0  0  0  0  0  0  0  0
   58.6280   29.9090   47.3320 C   0  0  0  0  0  0  0  0  0  0  0  0
   59.1990   29.8850   48.5620 N   0  0  0  0  0  0  0  0  0  0  0  0
   59.8310   30.9530   49.1200 C   0  0  0  0  0  0  0  0  0  0  0  0
   60.3810   30.8390   50.4550 N   0  0  0  0  0  0  0  0  0  0  0  0
   61.3800   30.5530   50.4090 H   0  0  0  0  0  0  0  0  0  0  0  0
   60.3370   31.7780   50.9110 H   0  0  0  0  0  0  0  0  0  0  0  0
   59.7110   29.8050   51.2750 C   0  0  0  0  0  0  0  0  0  0  0  0
   59.2439   29.0730   50.5998 H   0  0  0  0  0  0  0  0  0  0  0  0
   60.4807   29.3482   51.9145 H   0  0  0  0  0  0  0  0  0  0  0  0
   58.6210   30.3750   52.2090 C   0  0  0  0  0  0  0  0  0  0  0  0
   57.7041   29.7797   52.0863 H   0  0  0  0  0  0  0  0  0  0  0  0
   59.0014   30.3218   53.2397 H   0  0  0  0  0  0  0  0  0  0  0  0
   58.3100   31.7940   51.9150 N   0  0  0  0  0  0  0  0  0  0  0  0
   59.0420   32.7180   52.8220 C   0  0  0  0  0  0  0  0  0  0  0  0
   58.6692   32.5946   53.8495 H   0  0  0  0  0  0  0  0  0  0  0  0
   60.1169   32.4863   52.7911 H   0  0  0  0  0  0  0  0  0  0  0  0
   58.8200   34.1550   52.3710 C   0  0  0  0  0  0  0  0  0  0  0  0
   58.7196   34.8047   53.2529 H   0  0  0  0  0  0  0  0  0  0  0  0
   59.6776   34.4864   51.7671 H   0  0  0  0  0  0  0  0  0  0  0  0
   57.9024   34.2122   51.7671 H   0  0  0  0  0  0  0  0  0  0  0  0
   56.8480   32.0190   51.9740 C   0  0  0  0  0  0  0  0  0  0  0  0
   56.6078   32.5857   52.8857 H   0  0  0  0  0  0  0  0  0  0  0  0
   56.5437   32.5816   51.0791 H   0  0  0  0  0  0  0  0  0  0  0  0
   56.0910   30.6940   51.9960 C   0  0  0  0  0  0  0  0  0  0  0  0
   55.9165   30.3886   53.0383 H   0  0  0  0  0  0  0  0  0  0  0  0
   55.1256   30.8147   51.4828 H   0  0  0  0  0  0  0  0  0  0  0  0
   56.6853   29.9236   51.4828 H   0  0  0  0  0  0  0  0  0  0  0  0
   59.8800   32.1580   48.3850 C   0  0  0  0  0  0  0  0  0  0  0  0
   59.3800   32.1920   47.0640 C   0  0  0  0  0  0  0  0  0  0  0  0
   58.6350   31.0930   46.5550 C   0  0  0  0  0  0  0  0  0  0  0  0
   57.8950   31.0930   45.3380 C   0  0  0  0  0  0  0  0  0  0  0  0
   57.5380   32.3170   44.6800 N   0  0  0  0  0  0  0  0  0  0  0  0
   57.4900   33.2100   45.2210 H   0  0  0  0  0  0  0  0  0  0  0  0
   57.1320   32.3240   43.7160 H   0  0  0  0  0  0  0  0  0  0  0  0
   57.3480   29.8800   44.8610 C   0  0  0  0  0  0  0  0  0  0  0  0
   56.6290   29.8370   43.6070 C   0  0  0  0  0  0  0  0  0  0  0  0
   56.0540   29.8020   42.6030 N   0  0  0  0  0  0  0  0  0  0  0  0
   59.8290   33.4350   46.2910 C   0  0  1  0  0  0  0  0  0  0  0  0
   59.5141   33.3965   45.2377 H   0  0  0  0  0  0  0  0  0  0  0  0
   59.2290   34.6580   47.0270 C   0  0  0  0  0  0  0  0  0  0  0  0
   58.1321   34.6272   46.9501 H   0  0  0  0  0  0  0  0  0  0  0  0
   59.6101   35.5803   46.5641 H   0  0  0  0  0  0  0  0  0  0  0  0
   59.6410   34.6320   48.5270 C   0  0  0  0  0  0  0  0  0  0  0  0
   58.7379   34.5337   49.1473 H   0  0  0  0  0  0  0  0  0  0  0  0
   60.1685   35.5678   48.7638 H   0  0  0  0  0  0  0  0  0  0  0  0
   60.5910   33.4380   48.8180 C   0  0  2  0  0  0  0  0  0  0  0  0
   60.8703   33.4126   49.8817 H   0  0  0  0  0  0  0  0  0  0  0  0
   61.8230   33.5850   47.8960 C   0  0  0  0  0  0  0  0  0  0  0  0
   62.5290   32.7657   48.0966 H   0  0  0  0  0  0  0  0  0  0  0  0
   62.3106   34.5512   48.0929 H   0  0  0  0  0  0  0  0  0  0  0  0
   61.3760   33.5290   46.4040 C   0  0  0  0  0  0  0  0  0  0  0  0
   61.8262   32.6464   45.9262 H   0  0  0  0  0  0  0  0  0  0  0  0
   61.7094   34.4497   45.9028 H   0  0  0  0  0  0  0  0  0  0  0  0
  1  2  1  0
  2  3  2  0
  3  4  1  0
  4  5  1  0
  5  6  2  0
  6  7  1  0
  7  8  1  0
  8  9  1  0
  8 10  1  0
  8 11  1  0
 11 12  1  0
 11 13  1  0
 11 14  1  0
 14 15  1  0
 14 16  1  0
 14 17  1  0
 17 18  1  0
 18 19  1  0
 18 20  1  0
 18 21  1  0
 21 22  1  0
 21 23  1  0
 21 24  1  0
 17 25  1  0
 25 26  1  0
 25 27  1  0
 25 28  1  0
 28 29  1  0
 28 30  1  0
 28 31  1  0
  7 32  2  0
 32 33  1  0
 33 34  2  0
 34 35  1  0
 35 36  1  0
 36 37  1  0
 36 38  1  0
 35 39  2  0
 39 40  1  0
 40 41  3  0
 33 42  1  0
 42 43  1  6
 42 44  1  0
 44 45  1  0
 44 46  1  0
 44 47  1  0
 47 48  1  0
 47 49  1  0
 47 50  1  0
 50 51  1  1
 50 52  1  0
 52 53  1  0
 52 54  1  0
 52 55  1  0
 55 56  1  0
 55 57  1  0
 39  3  1  0
 55 42  1  0
 34  5  1  0
 50 32  1  0
M  CHG  2   4  -1   8   1
M  END
>  <UniqueID>  (15) 
15

>  <SMILES>  (15) 
[H]/N=c1\[n-]c2nc([NH2+]CCN(CC)CC)c3c(c2c(N)c1C#N)C1CCC3CC1

>  <Energy>  (15) 
101.09241876902938

>  <Genealogy>  (15) 
CCN(CC)CC[NH2+]c1nc2[n-]c(=N)c(C#N)c(N)c2c2c1C1CCC2CC1 (protonated)
[H]/N=c1\[n-]c2nc([NH2+]CCN(CC)CC)c3c(c2c(N)c1C#N)C1CCC3CC1 (cis-trans isomerization)
[H]/N=c1\[n-]c2nc([NH2+]CCN(CC)CC)c3c(c2c(N)c1C#N)C1CCC3CC1 (3D coordinates assigned)
[H]/N=c1\[n-]c2nc([NH2+]CCN(CC)CC)c3c(c2c(N)c1C#N)C1CCC3CC1 (nonaromatic ring conformer: 101.09241876902938 kcal/mol)

>  <smiles>  (15) 
CCN(CC)CCNc1nc2[nH]c(=N)c(C#N)c(N)c2c2c1C1CCC2CC1

>  <score_type>  (15) 
oracle

>  <origin>  (15) 
adg

>  <m_score__min__energy>  (15) 
-7.3799999999999999

>  <m_primary>  (15) 
energy

$$$$
15:0
     RDKit          3D

 28 28  0  0  0  0  0  0  0  0999 V2000
   53.8440   24.8040   45.5190 C   0  0  0  0  0  0  0  0  0  0  0  0
   54.6320   25.9520   45.8070 O   0  0  0  0  0  0  0  0  0  0  0  0
   55.9570   25.8650   46.2430 C   0  0  0  0  0  0  0  0  0  0  0  0
   56.2670   25.1300   47.2210 O   0  0  0  0  0  0  0  0  0  0  0  0
   57.0180   26.6390   45.5280 C   0  0  0  0  0  0  0  0  0  0  0  0
   56.9900   28.0370   45.9400 N   0  0  0  0  0  0  0  0  0  0  0  0
   56.6200   29.1090   45.0660 C   0  0  0  0  0  0  0  0  0  0  0  0
   55.4050   29.3700   44.8540 O   0  0  0  0  0  0  0  0  0  0  0  0
   57.6830   29.9350   44.4140 C   0  0  0  0  0  0  0  0  0  0  0  0
   57.0360   31.5780   43.9490 S   0  0  0  0  0  0  0  0  0  0  0  0
   57.9870   32.4770   45.1800 C   0  0  0  0  0  0  0  0  0  0  0  0
   58.8820   31.7840   46.0050 C   0  0  0  0  0  0  0  0  0  0  0  0
   59.6280   32.4730   46.9650 C   0  0  0  0  0  0  0  0  0  0  0  0
   59.4870   33.8570   47.1000 C   0  0  0  0  0  0  0  0  0  0  0  0
   58.6020   34.5540   46.2720 C   0  0  0  0  0  0  0  0  0  0  0  0
   57.8530   33.8670   45.3100 C   0  0  0  0  0  0  0  0  0  0  0  0
   56.9980   34.5530   44.5110 F   0  0  0  0  0  0  0  0  0  0  0  0
   53.5219   24.3348   46.4603 H   0  0  0  0  0  0  0  0  0  0  0  0
   52.9598   25.1028   44.9369 H   0  0  0  0  0  0  0  0  0  0  0  0
   54.4407   24.0863   44.9369 H   0  0  0  0  0  0  0  0  0  0  0  0
   58.0026   26.2103   45.7663 H   0  0  0  0  0  0  0  0  0  0  0  0
   56.8337   26.5818   44.4451 H   0  0  0  0  0  0  0  0  0  0  0  0
   58.5208   30.0629   45.1152 H   0  0  0  0  0  0  0  0  0  0  0  0
   58.0205   29.4189   43.5031 H   0  0  0  0  0  0  0  0  0  0  0  0
   58.9979   30.6955   45.8970 H   0  0  0  0  0  0  0  0  0  0  0  0
   60.3267   31.9257   47.6149 H   0  0  0  0  0  0  0  0  0  0  0  0
   60.0725   34.3980   47.8579 H   0  0  0  0  0  0  0  0  0  0  0  0
   58.4943   35.6437   46.3768 H   0  0  0  0  0  0  0  0  0  0  0  0
  1  2  1  0
  2  3  1  0
  3  4  2  0
  3  5  1  0
  5  6  1  0
  6  7  1  0
  7  8  2  0
  7  9  1  0
  9 10  1  0
 10 11  1  0
 11 12  2  0
 12 13  1  0
 13 14  2  0
 14 15  1  0
 15 16  2  0
 16 17  1  0
 16 11  1  0
  1 18  1  0
  1 19  1  0
  1 20  1  0
  5 21  1  0
  5 22  1  0
  9 23  1  0
  9 24  1  0
 12 25  1  0
 13 26  1  0
 14 27  1  0
 15 28  1  0
M  CHG  1   6  -1
M  END
>  <UniqueID>  (16) 
16

>  <SMILES>  (16) 
COC(=O)C[N-]C(=O)CSc1ccccc1F

>  <Energy>  (16) 
14.536368015744468

>  <Genealogy>  (16) 
COC(=O)C[N-]C(=O)CSc1ccccc1F (protonated)
COC(=O)C[N-]C(=O)CSc1ccccc1F (3D coordinates assigned)
COC(=O)C[N-]C(=O)CSc1ccccc1F (optimized conformer: 14.536368015744468 kcal/mol)

>  <smiles>  (16) 
COC(=O)CNC(=O)CSc1ccccc1F

>  <score_type>  (16) 
oracle

>  <origin>  (16) 
adg

>  <m_score__min__energy>  (16) 
-8.6400000000000006

>  <m_primary>  (16) 
energy

$$$$
16:0
     RDKit          3D

 49 49  0  0  0  0  0  0  0  0999 V2000
   57.7730   32.0000   42.7580 C   0  0  0  0  0  0  0  0  0  0  0  0
   57.5300   31.1500   43.9340 N   0  0  0  0  0  0  0  0  0  0  0  0
   56.3460   30.3070   43.6930 C   0  0  0  0  0  0  0  0  0  0  0  0
   57.3520   31.9860   45.1430 C   0  0  0  0  0  0  0  0  0  0  0  0
   57.8310   33.4330   44.9190 C   0  0  0  0  0  0  0  0  0  0  0  0
   58.0260   34.2390   46.2150 C   0  0  0  0  0  0  0  0  0  0  0  0
   59.5040   34.4060   46.5960 C   0  0  0  0  0  0  0  0  0  0  0  0
   60.3360   33.2220   46.0850 C   0  0  0  0  0  0  0  0  0  0  0  0
   60.7540   32.2720   47.2180 C   0  0  0  0  0  0  0  0  0  0  0  0
   59.6130   31.4960   47.7350 N   0  0  0  0  0  0  0  0  0  0  0  0
   58.8400   32.0220   48.8630 C   0  0  0  0  0  0  0  0  0  0  0  0
   59.3030   30.1860   47.2060 C   0  0  0  0  0  0  0  0  0  0  0  0
   59.6870   29.8290   45.9020 C   0  0  0  0  0  0  0  0  0  0  0  0
   59.4220   28.5470   45.4120 C   0  0  0  0  0  0  0  0  0  0  0  0
   58.7800   27.5960   46.2110 C   0  0  0  0  0  0  0  0  0  0  0  0
   58.5590   26.3170   45.6750 O   0  0  0  0  0  0  0  0  0  0  0  0
   57.3180   25.8440   45.1500 C   0  0  0  0  0  0  0  0  0  0  0  0
   56.2420   25.9080   46.1870 C   0  0  0  0  0  0  0  0  0  0  0  0
   56.3220   25.2060   47.2290 O   0  0  0  0  0  0  0  0  0  0  0  0
   55.1280   26.7120   45.9840 O   0  0  0  0  0  0  0  0  0  0  0  0
   58.3800   27.9540   47.5110 C   0  0  0  0  0  0  0  0  0  0  0  0
   58.6350   29.2380   47.9990 C   0  0  0  0  0  0  0  0  0  0  0  0
   58.0614   33.0089   43.0881 H   0  0  0  0  0  0  0  0  0  0  0  0
   58.5832   31.5664   42.1533 H   0  0  0  0  0  0  0  0  0  0  0  0
   56.8561   32.0602   42.1533 H   0  0  0  0  0  0  0  0  0  0  0  0
   55.9131   29.9988   44.6561 H   0  0  0  0  0  0  0  0  0  0  0  0
   55.5995   30.8780   43.1215 H   0  0  0  0  0  0  0  0  0  0  0  0
   56.6414   29.4147   43.1215 H   0  0  0  0  0  0  0  0  0  0  0  0
   56.2849   32.0023   45.4097 H   0  0  0  0  0  0  0  0  0  0  0  0
   57.9571   31.5487   45.9509 H   0  0  0  0  0  0  0  0  0  0  0  0
   58.7922   33.3997   44.3852 H   0  0  0  0  0  0  0  0  0  0  0  0
   57.0429   33.9422   44.3449 H   0  0  0  0  0  0  0  0  0  0  0  0
   57.5836   35.2368   46.0781 H   0  0  0  0  0  0  0  0  0  0  0  0
   57.5357   33.6828   47.0275 H   0  0  0  0  0  0  0  0  0  0  0  0
   59.8883   35.3356   46.1508 H   0  0  0  0  0  0  0  0  0  0  0  0
   59.5831   34.4452   47.6925 H   0  0  0  0  0  0  0  0  0  0  0  0
   59.7380   32.6588   45.3534 H   0  0  0  0  0  0  0  0  0  0  0  0
   61.2519   33.6258   45.6288 H   0  0  0  0  0  0  0  0  0  0  0  0
   61.5137   31.5747   46.8350 H   0  0  0  0  0  0  0  0  0  0  0  0
   61.1533   32.8807   48.0427 H   0  0  0  0  0  0  0  0  0  0  0  0
   59.3067   31.7044   49.8071 H   0  0  0  0  0  0  0  0  0  0  0  0
   58.8218   33.1208   48.8144 H   0  0  0  0  0  0  0  0  0  0  0  0
   57.8112   31.6357   48.8144 H   0  0  0  0  0  0  0  0  0  0  0  0
   60.1994   30.5632   45.2629 H   0  0  0  0  0  0  0  0  0  0  0  0
   59.7217   28.2835   44.3869 H   0  0  0  0  0  0  0  0  0  0  0  0
   57.0287   26.4679   44.2915 H   0  0  0  0  0  0  0  0  0  0  0  0
   57.4442   24.7968   44.8379 H   0  0  0  0  0  0  0  0  0  0  0  0
   57.8639   27.2194   48.1466 H   0  0  0  0  0  0  0  0  0  0  0  0
   58.3095   29.5094   49.0141 H   0  0  0  0  0  0  0  0  0  0  0  0
  1  2  1  0
  2  3  1  0
  2  4  1  0
  4  5  1  0
  5  6  1  0
  6  7  1  0
  7  8  1  0
  8  9  1  0
  9 10  1  0
 10 11  1  0
 10 12  1  0
 12 13  2  0
 13 14  1  0
 14 15  2  0
 15 16  1  0
 16 17  1  0
 17 18  1  0
 18 19  2  0
 18 20  1  0
 15 21  1  0
 21 22  2  0
 22 12  1  0
  1 23  1  0
  1 24  1  0
  1 25  1  0
  3 26  1  0
  3 27  1  0
  3 28  1  0
  4 29  1  0
  4 30  1  0
  5 31  1  0
  5 32  1  0
  6 33  1  0
  6 34  1  0
  7 35  1  0
  7 36  1  0
  8 37  1  0
  8 38  1  0
  9 39  1  0
  9 40  1  0
 11 41  1  0
 11 42  1  0
 11 43  1  0
 13 44  1  0
 14 45  1  0
 17 46  1  0
 17 47  1  0
 21 48  1  0
 22 49  1  0
M  CHG  1  20  -1
M  END
>  <UniqueID>  (17) 
17

>  <SMILES>  (17) 
CN(C)CCCCCCN(C)c1ccc(OCC(=O)[O-])cc1

>  <Energy>  (17) 
36.863965331190705

>  <Genealogy>  (17) 
CN(C)CCCCCCN(C)c1ccc(OCC(=O)[O-])cc1 (protonated)
CN(C)CCCCCCN(C)c1ccc(OCC(=O)[O-])cc1 (3D coordinates assigned)
CN(C)CCCCCCN(C)c1ccc(OCC(=O)[O-])cc1 (optimized conformer: 36.863965331190705 kcal/mol)

>  <smiles>  (17) 
CN(C)CCCCCCN(C)c1ccc(OCC(=O)O)cc1

>  <score_type>  (17) 
oracle

>  <origin>  (17) 
adg

>  <m_score__min__energy>  (17) 
-9.3300000000000001

>  <m_primary>  (17) 
energy

$$$$
17:0
     RDKit          3D

 47 49  0  0  1  0  0  0  0  0999 V2000
   58.8950   34.9180   45.1430 C   0  0  0  0  0  0  0  0  0  0  0  0
   59.8360   35.0140   46.3160 C   0  0  0  0  0  0  0  0  0  0  0  0
   59.7220   34.0460   47.3090 N   0  0  0  0  0  0  0  0  0  0  0  0
   60.7890   33.7780   48.1810 C   0  0  0  0  0  0  0  0  0  0  0  0
   62.0380   33.4910   47.3710 C   0  0  0  0  0  0  0  0  0  0  0  0
   58.5370   33.2960   47.4550 C   0  0  0  0  0  0  0  0  0  0  0  0
   58.9120   31.8420   47.6700 C   0  0  0  0  0  0  0  0  0  0  0  0
   59.1740   31.0420   46.5840 N   0  0  0  0  0  0  0  0  0  0  0  0
   58.4380   30.3240   45.8900 C   0  0  0  0  0  0  0  0  0  0  0  0
   58.1370   29.0990   46.3540 N   0  0  0  0  0  0  0  0  0  0  0  0
   57.3980   28.2670   45.6280 C   0  0  0  0  0  0  0  0  0  0  0  0
   57.1200   26.9460   46.2100 C   0  0  0  0  0  0  0  0  0  0  0  0
   58.0250   26.2590   46.9840 C   0  0  0  0  0  0  0  0  0  0  0  0
   57.7360   25.0080   47.5250 C   0  0  0  0  0  0  0  0  0  0  0  0
   56.5000   24.4640   47.2600 C   0  0  0  0  0  0  0  0  0  0  0  0
   55.5970   25.1220   46.5030 N   0  0  0  0  0  0  0  0  0  0  0  0
   55.8970   26.3180   45.9950 C   0  0  0  0  0  0  0  0  0  0  0  0
   56.9240   28.6040   44.4230 N   0  0  0  0  0  0  0  0  0  0  0  0
   57.2240   29.8310   43.9620 C   0  0  0  0  0  0  0  0  0  0  0  0
   56.7290   30.1670   42.7250 C   0  0  0  0  0  0  0  0  0  0  0  0
   57.0330   31.4270   42.2640 C   0  0  0  0  0  0  0  0  0  0  0  0
   57.7760   32.3480   42.9370 C   0  0  0  0  0  0  0  0  0  0  0  0
   58.2800   31.9890   44.2080 C   0  0  0  0  0  0  0  0  0  0  0  0
   57.9890   30.7450   44.6700 C   0  0  0  0  0  0  0  0  0  0  0  0
   57.8629   34.8127   45.5086 H   0  0  0  0  0  0  0  0  0  0  0  0
   58.9764   35.8291   44.5321 H   0  0  0  0  0  0  0  0  0  0  0  0
   59.1588   34.0421   44.5321 H   0  0  0  0  0  0  0  0  0  0  0  0
   60.8615   34.9628   45.9214 H   0  0  0  0  0  0  0  0  0  0  0  0
   59.5711   35.9591   46.8126 H   0  0  0  0  0  0  0  0  0  0  0  0
   60.9630   34.6505   48.8279 H   0  0  0  0  0  0  0  0  0  0  0  0
   60.5452   32.9050   48.8042 H   0  0  0  0  0  0  0  0  0  0  0  0
   62.8801   33.2975   48.0518 H   0  0  0  0  0  0  0  0  0  0  0  0
   61.8689   32.6083   46.7368 H   0  0  0  0  0  0  0  0  0  0  0  0
   62.2712   34.3590   46.7368 H   0  0  0  0  0  0  0  0  0  0  0  0
   57.9687   33.6648   48.3216 H   0  0  0  0  0  0  0  0  0  0  0  0
   57.9141   33.3956   46.5539 H   0  0  0  0  0  0  0  0  0  0  0  0
   59.8150   31.8342   48.2981 H   0  0  0  0  0  0  0  0  0  0  0  0
   58.0006   31.4017   48.1006 H   0  0  0  0  0  0  0  0  0  0  0  0
   59.0080   26.7111   47.1824 H   0  0  0  0  0  0  0  0  0  0  0  0
   58.4715   24.4728   48.1435 H   0  0  0  0  0  0  0  0  0  0  0  0
   56.2439   23.4767   47.6719 H   0  0  0  0  0  0  0  0  0  0  0  0
   55.1441   26.8309   45.3785 H   0  0  0  0  0  0  0  0  0  0  0  0
   56.3440   27.9640   43.8410 H   0  0  0  0  0  0  0  0  0  0  0  0
   56.1216   29.4654   42.1344 H   0  0  0  0  0  0  0  0  0  0  0  0
   56.6457   31.7124   41.2748 H   0  0  0  0  0  0  0  0  0  0  0  0
   57.9777   33.3396   42.5057 H   0  0  0  0  0  0  0  0  0  0  0  0
   58.8852   32.6907   44.8008 H   0  0  0  0  0  0  0  0  0  0  0  0
  1  2  1  0
  2  3  1  0
  3  4  1  0
  4  5  1  0
  3  6  1  0
  6  7  1  0
  7  8  1  0
  8  9  2  0
  9 10  1  0
 10 11  2  0
 11 12  1  0
 12 13  2  0
 13 14  1  0
 14 15  2  0
 15 16  1  0
 16 17  2  0
 11 18  1  0
 18 19  1  0
 19 20  2  0
 20 21  1  0
 21 22  2  0
 22 23  1  0
 23 24  2  0
 24  9  1  0
 17 12  1  0
 24 19  1  0
  1 25  1  0
  1 26  1  0
  1 27  1  0
  2 28  1  0
  2 29  1  0
  4 30  1  0
  4 31  1  0
  5 32  1  0
  5 33  1  0
  5 34  1  0
  6 35  1  0
  6 36  1  0
  7 37  1  0
  7 38  1  0
 13 39  1  0
 14 40  1  0
 15 41  1  0
 17 42  1  0
 18 43  1  0
 20 44  1  0
 21 45  1  0
 22 46  1  0
 23 47  1  0
M  END
>  <smiles>  (18) 
CCN(CC)CCN=c1nc(-c2cccnc2)[nH]c2ccccc12

>  <score_type>  (18) 
oracle

>  <origin>  (18) 
adg

>  <m_score__min__energy>  (18) 
-7.4699999999999998

>  <m_primary>  (18) 
energy

$$$$
18:0
     RDKit          3D

 31 32  0  0  0  0  0  0  0  0999 V2000
   58.1070   32.3420   42.6970 C   0  0  0  0  0  0  0  0  0  0  0  0
   57.6940   32.3780   44.0590 O   0  0  0  0  0  0  0  0  0  0  0  0
   58.3380   33.1040   45.0720 C   0  0  0  0  0  0  0  0  0  0  0  0
   58.7450   34.4400   44.8810 C   0  0  0  0  0  0  0  0  0  0  0  0
   59.3340   35.1560   45.9250 C   0  0  0  0  0  0  0  0  0  0  0  0
   59.5190   34.5540   47.1700 C   0  0  0  0  0  0  0  0  0  0  0  0
   59.1270   33.2300   47.3710 C   0  0  0  0  0  0  0  0  0  0  0  0
   58.5610   32.4890   46.3240 C   0  0  0  0  0  0  0  0  0  0  0  0
   58.1560   31.1330   46.5730 N   0  0  0  0  0  0  0  0  0  0  0  0
   58.9360   30.2030   47.3380 C   0  0  0  0  0  0  0  0  0  0  0  0
   59.9400   30.5960   47.9920 O   0  0  0  0  0  0  0  0  0  0  0  0
   58.5690   28.7510   47.3590 C   0  0  0  0  0  0  0  0  0  0  0  0
   58.9670   27.9640   45.7600 S   0  0  0  0  0  0  0  0  0  0  0  0
   57.6410   28.7650   44.8620 C   0  0  0  0  0  0  0  0  0  0  0  0
   57.6390   28.7600   43.5040 N   0  0  0  0  0  0  0  0  0  0  0  0
   56.6460   29.3760   42.8150 C   0  0  0  0  0  0  0  0  0  0  0  0
   55.6220   30.0100   43.5150 C   0  0  0  0  0  0  0  0  0  0  0  0
   55.6470   29.9900   44.8720 N   0  0  0  0  0  0  0  0  0  0  0  0
   56.6340   29.3820   45.5330 N   0  0  0  0  0  0  0  0  0  0  0  0
   59.2018   32.2466   42.6482 H   0  0  0  0  0  0  0  0  0  0  0  0
   57.6412   31.4811   42.1952 H   0  0  0  0  0  0  0  0  0  0  0  0
   57.7972   33.2706   42.1952 H   0  0  0  0  0  0  0  0  0  0  0  0
   58.5976   34.9216   43.9031 H   0  0  0  0  0  0  0  0  0  0  0  0
   59.6528   36.1967   45.7656 H   0  0  0  0  0  0  0  0  0  0  0  0
   59.9742   35.1235   47.9937 H   0  0  0  0  0  0  0  0  0  0  0  0
   59.2631   32.7642   48.3582 H   0  0  0  0  0  0  0  0  0  0  0  0
   57.1940   30.8480   46.2810 H   0  0  0  0  0  0  0  0  0  0  0  0
   59.1311   28.2476   48.1594 H   0  0  0  0  0  0  0  0  0  0  0  0
   57.4875   28.6612   47.5389 H   0  0  0  0  0  0  0  0  0  0  0  0
   56.6494   29.3749   41.7150 H   0  0  0  0  0  0  0  0  0  0  0  0
   54.8076   30.5178   42.9776 H   0  0  0  0  0  0  0  0  0  0  0  0
  1  2  1  0
  2  3  1  0
  3  4  2  0
  4  5  1  0
  5  6  2  0
  6  7  1  0
  7  8  2  0
  8  9  1  0
  9 10  1  0
 10 11  2  0
 10 12  1  0
 12 13  1  0
 13 14  1  0
 14 15  2  0
 15 16  1  0
 16 17  2  0
 17 18  1  0
 18 19  2  0
  8  3  1  0
 19 14  1  0
  1 20  1  0
  1 21  1  0
  1 22  1  0
  4 23  1  0
  5 24  1  0
  6 25  1  0
  7 26  1  0
  9 27  1  0
 12 28  1  0
 12 29  1  0
 16 30  1  0
 17 31  1  0
M  END
>  <UniqueID>  (19) 
18

>  <SMILES>  (19) 
COc1ccccc1NC(=O)CSc1nccnn1

>  <Energy>  (19) 
31.32678808338868

>  <Genealogy>  (19) 
COc1ccccc1NC(=O)CSc1nccnn1 (3D coordinates assigned)
COc1ccccc1NC(=O)CSc1nccnn1 (optimized conformer: 31.32678808338868 kcal/mol)

>  <smiles>  (19) 
COc1ccccc1NC(=O)CSc1nccnn1

>  <score_type>  (19) 
oracle

>  <origin>  (19) 
adg

>  <m_score__min__energy>  (19) 
-7.21

>  <m_primary>  (19) 
energy

$$$$
19:0
     RDKit          3D

 41 43  0  0  0  0  0  0  0  0999 V2000
   59.8780   30.4750   47.1830 C   0  0  0  0  0  0  0  0  0  0  0  0
   59.6870   30.4640   45.6710 C   0  0  0  0  0  0  0  0  0  0  0  0
   58.2640   30.4150   45.3310 N   0  0  0  0  0  0  0  0  0  0  0  0
   57.5230   31.3520   44.7050 C   0  0  0  0  0  0  0  0  0  0  0  0
   58.1160   32.9710   44.2030 S   0  0  0  0  0  0  0  0  0  0  0  0
   57.2960   33.8760   45.5670 C   0  0  0  0  0  0  0  0  0  0  0  0
   57.7870   33.4190   46.9480 C   0  0  0  0  0  0  0  0  0  0  0  0
   58.8720   34.2810   47.4660 N   0  0  0  0  0  0  0  0  0  0  0  0
   59.8040   34.6900   46.3860 C   0  0  0  0  0  0  0  0  0  0  0  0
   61.0920   33.8480   46.3890 C   0  0  0  0  0  0  0  0  0  0  0  0
   61.8230   33.9280   47.6050 O   0  0  0  0  0  0  0  0  0  0  0  0
   61.0120   34.1860   48.7430 C   0  0  0  0  0  0  0  0  0  0  0  0
   59.5760   33.6510   48.6090 C   0  0  0  0  0  0  0  0  0  0  0  0
   56.2660   30.9230   44.4860 N   0  0  0  0  0  0  0  0  0  0  0  0
   56.1860   29.6960   44.9780 N   0  0  0  0  0  0  0  0  0  0  0  0
   57.4010   29.3890   45.4760 C   0  0  0  0  0  0  0  0  0  0  0  0
   57.7240   28.0910   46.1600 C   0  0  0  0  0  0  0  0  0  0  0  0
   58.4110   27.0730   45.2640 C   0  0  0  0  0  0  0  0  0  0  0  0
   56.9610   26.8700   45.6640 C   0  0  0  0  0  0  0  0  0  0  0  0
   58.8968   30.4185   47.6769 H   0  0  0  0  0  0  0  0  0  0  0  0
   60.4892   29.6106   47.4817 H   0  0  0  0  0  0  0  0  0  0  0  0
   60.3859   31.4039   47.4817 H   0  0  0  0  0  0  0  0  0  0  0  0
   60.1293   31.3763   45.2443 H   0  0  0  0  0  0  0  0  0  0  0  0
   60.1809   29.5721   45.2580 H   0  0  0  0  0  0  0  0  0  0  0  0
   57.5052   34.9501   45.4549 H   0  0  0  0  0  0  0  0  0  0  0  0
   56.2174   33.6683   45.5078 H   0  0  0  0  0  0  0  0  0  0  0  0
   56.9428   33.4494   47.6526 H   0  0  0  0  0  0  0  0  0  0  0  0
   58.1847   32.3985   46.8456 H   0  0  0  0  0  0  0  0  0  0  0  0
   59.3004   34.5658   45.4160 H   0  0  0  0  0  0  0  0  0  0  0  0
   60.0833   35.7402   46.5568 H   0  0  0  0  0  0  0  0  0  0  0  0
   60.8200   32.7963   46.2157 H   0  0  0  0  0  0  0  0  0  0  0  0
   61.7407   34.2494   45.5965 H   0  0  0  0  0  0  0  0  0  0  0  0
   61.4797   33.7116   49.6183 H   0  0  0  0  0  0  0  0  0  0  0  0
   60.9410   35.2787   48.8479 H   0  0  0  0  0  0  0  0  0  0  0  0
   59.6120   32.5628   48.4522 H   0  0  0  0  0  0  0  0  0  0  0  0
   59.0274   33.8928   49.5313 H   0  0  0  0  0  0  0  0  0  0  0  0
   57.9149   28.5300   47.1504 H   0  0  0  0  0  0  0  0  0  0  0  0
   58.6631   27.3360   44.2261 H   0  0  0  0  0  0  0  0  0  0  0  0
   59.3281   26.4697   45.3346 H   0  0  0  0  0  0  0  0  0  0  0  0
   56.1627   26.9866   44.9163 H   0  0  0  0  0  0  0  0  0  0  0  0
   56.3927   26.0599   46.1444 H   0  0  0  0  0  0  0  0  0  0  0  0
  1  2  1  0
  2  3  1  0
  3  4  1  0
  4  5  1  0
  5  6  1  0
  6  7  1  0
  7  8  1  0
  8  9  1  0
  9 10  1  0
 10 11  1  0
 11 12  1  0
 12 13  1  0
  4 14  2  0
 14 15  1  0
 15 16  2  0
 16 17  1  0
 17 18  1  0
 18 19  1  0
 16  3  1  0
 19 17  1  0
 13  8  1  0
  1 20  1  0
  1 21  1  0
  1 22  1  0
  2 23  1  0
  2 24  1  0
  6 25  1  0
  6 26  1  0
  7 27  1  0
  7 28  1  0
  9 29  1  0
  9 30  1  0
 10 31  1  0
 10 32  1  0
 12 33  1  0
 12 34  1  0
 13 35  1  0
 13 36  1  0
 17 37  1  0
 18 38  1  0
 18 39  1  0
 19 40  1  0
 19 41  1  0
M  END
>  <UniqueID>  (20) 
19

>  <SMILES>  (20) 
CCn1c(SCCN2CCOCC2)nnc1C1CC1

>  <Energy>  (20) 
344.0969873184057

>  <Genealogy>  (20) 
CCn1c(SCCN2CCOCC2)nnc1C1CC1 (3D coordinates assigned)
CCn1c(SCCN2CCOCC2)nnc1C1CC1 (nonaromatic ring conformer: 344.0969873184057 kcal/mol)

>  <smiles>  (20) 
CCn1c(SCCN2CCOCC2)nnc1C1CC1

>  <score_type>  (20) 
oracle

>  <origin>  (20) 
adg

>  <m_score__min__energy>  (20) 
-6.6399999999999997

>  <m_primary>  (20) 
energy

$$$$
20:0
     RDKit          3D

 61 64  0  0  0  0  0  0  0  0999 V2000
   57.1107   28.3793   42.7143 H   0  0  0  0  0  0  0  0  0  0  0  0
   57.3580   28.7860   43.7060 C   0  0  0  0  0  0  0  0  0  0  0  0
   56.3500   29.6750   44.3220 C   0  0  0  0  0  0  0  0  0  0  0  0
   55.1350   29.3460   44.2370 O   0  0  0  0  0  0  0  0  0  0  0  0
   56.7030   30.8560   44.9820 O   0  0  0  0  0  0  0  0  0  0  0  0
   57.4390   31.8890   44.3270 C   0  0  0  0  0  0  0  0  0  0  0  0
   56.8661   32.2462   43.4586 H   0  0  0  0  0  0  0  0  0  0  0  0
   58.4083   31.4827   44.0023 H   0  0  0  0  0  0  0  0  0  0  0  0
   57.6890   33.0590   45.2800 C   0  0  0  0  0  0  0  0  0  0  0  0
   56.7541   33.3042   45.8051 H   0  0  0  0  0  0  0  0  0  0  0  0
   58.0349   33.9251   44.6967 H   0  0  0  0  0  0  0  0  0  0  0  0
   58.7330   32.7040   46.2790 N   0  0  0  0  0  0  0  0  0  0  0  0
   58.1960   32.7250   47.6590 C   0  0  0  0  0  0  0  0  0  0  0  0
   57.9200   31.7030   47.9580 H   0  0  0  0  0  0  0  0  0  0  0  0
   57.3097   33.3757   47.6915 H   0  0  0  0  0  0  0  0  0  0  0  0
   59.2480   33.2650   48.6200 C   0  0  0  0  0  0  0  0  0  0  0  0
   58.9193   33.0963   49.6561 H   0  0  0  0  0  0  0  0  0  0  0  0
   60.2022   32.7453   48.4488 H   0  0  0  0  0  0  0  0  0  0  0  0
   59.3819   34.3433   48.4488 H   0  0  0  0  0  0  0  0  0  0  0  0
   59.9190   33.5860   46.1660 C   0  0  0  0  0  0  0  0  0  0  0  0
   60.3711   33.7083   47.1613 H   0  0  0  0  0  0  0  0  0  0  0  0
   60.6328   33.1217   45.4696 H   0  0  0  0  0  0  0  0  0  0  0  0
   59.5360   34.9620   45.6200 C   0  0  0  0  0  0  0  0  0  0  0  0
   59.3449   35.6487   46.4578 H   0  0  0  0  0  0  0  0  0  0  0  0
   60.3591   35.3544   45.0047 H   0  0  0  0  0  0  0  0  0  0  0  0
   58.6286   34.8727   45.0047 H   0  0  0  0  0  0  0  0  0  0  0  0
   58.5420   28.4200   44.2230 C   0  0  0  0  0  0  0  0  0  0  0  0
   59.1164   27.6692   43.6605 H   0  0  0  0  0  0  0  0  0  0  0  0
   59.1510   28.9240   45.4710 C   0  0  0  0  0  0  0  0  0  0  0  0
   60.3870   29.5810   45.3770 C   0  0  0  0  0  0  0  0  0  0  0  0
   60.8432   29.7414   44.3890 H   0  0  0  0  0  0  0  0  0  0  0  0
   61.0440   30.0330   46.5200 C   0  0  0  0  0  0  0  0  0  0  0  0
   62.0145   30.5430   46.4310 H   0  0  0  0  0  0  0  0  0  0  0  0
   60.4690   29.8380   47.7810 C   0  0  0  0  0  0  0  0  0  0  0  0
   61.0760   30.3500   48.9350 C   0  0  0  0  0  0  0  0  0  0  0  0
   62.0320   30.8891   48.8618 H   0  0  0  0  0  0  0  0  0  0  0  0
   60.4660   30.1750   50.1770 C   0  0  0  0  0  0  0  0  0  0  0  0
   60.9352   30.5764   51.0874 H   0  0  0  0  0  0  0  0  0  0  0  0
   59.2550   29.4860   50.2540 C   0  0  0  0  0  0  0  0  0  0  0  0
   58.7639   29.3463   51.2283 H   0  0  0  0  0  0  0  0  0  0  0  0
   58.6810   28.9870   49.1270 N   0  0  0  0  0  0  0  0  0  0  0  0
   59.2500   29.1320   47.8980 C   0  0  0  0  0  0  0  0  0  0  0  0
   58.6120   28.6270   46.7420 C   0  0  0  0  0  0  0  0  0  0  0  0
   57.4320   27.8660   46.8210 O   0  0  0  0  0  0  0  0  0  0  0  0
   57.2750   26.5620   46.3320 C   0  0  0  0  0  0  0  0  0  0  0  0
   55.9900   26.1170   46.0000 C   0  0  0  0  0  0  0  0  0  0  0  0
   55.1316   26.7956   46.1122 H   0  0  0  0  0  0  0  0  0  0  0  0
   55.7890   24.8170   45.5270 C   0  0  0  0  0  0  0  0  0  0  0  0
   54.7743   24.4772   45.2723 H   0  0  0  0  0  0  0  0  0  0  0  0
   56.8770   23.9440   45.3760 C   0  0  0  0  0  0  0  0  0  0  0  0
   56.6860   22.6300   44.9210 C   0  0  0  0  0  0  0  0  0  0  0  0
   55.6731   22.2731   44.6828 H   0  0  0  0  0  0  0  0  0  0  0  0
   57.7810   21.7740   44.7700 C   0  0  0  0  0  0  0  0  0  0  0  0
   57.6260   20.7421   44.4219 H   0  0  0  0  0  0  0  0  0  0  0  0
   59.0730   22.2250   45.0600 C   0  0  0  0  0  0  0  0  0  0  0  0
   59.9320   21.5514   44.9249 H   0  0  0  0  0  0  0  0  0  0  0  0
   59.2760   23.5290   45.5210 C   0  0  0  0  0  0  0  0  0  0  0  0
   60.2929   23.8755   45.7573 H   0  0  0  0  0  0  0  0  0  0  0  0
   58.1850   24.3970   45.6830 C   0  0  0  0  0  0  0  0  0  0  0  0
   58.3750   25.7060   46.1530 C   0  0  0  0  0  0  0  0  0  0  0  0
   59.3897   26.0634   46.3823 H   0  0  0  0  0  0  0  0  0  0  0  0
  1  2  1  0
  2  3  1  0
  3  4  2  0
  3  5  1  0
  5  6  1  0
  6  7  1  0
  6  8  1  0
  6  9  1  0
  9 10  1  0
  9 11  1  0
  9 12  1  0
 12 13  1  0
 13 14  1  0
 13 15  1  0
 13 16  1  0
 16 17  1  0
 16 18  1  0
 16 19  1  0
 12 20  1  0
 20 21  1  0
 20 22  1  0
 20 23  1  0
 23 24  1  0
 23 25  1  0
 23 26  1  0
  2 27  2  0
 27 28  1  0
 27 29  1  0
 29 30  2  0
 30 31  1  0
 30 32  1  0
 32 33  1  0
 32 34  2  0
 34 35  1  0
 35 36  1  0
 35 37  2  0
 37 38  1  0
 37 39  1  0
 39 40  1  0
 39 41  2  0
 41 42  1  0
 42 43  2  0
 43 44  1  0
 44 45  1  0
 45 46  2  0
 46 47  1  0
 46 48  1  0
 48 49  1  0
 48 50  2  0
 50 51  1  0
 51 52  1  0
 51 53  2  0
 53 54  1  0
 53 55  1  0
 55 56  1  0
 55 57  2  0
 57 58  1  0
 57 59  1  0
 59 60  2  0
 60 61  1  0
 43 29  1  0
 60 45  1  0
 42 34  1  0
 59 50  1  0
M  END
>  <UniqueID>  (21) 
20

>  <SMILES>  (21) 
CCN(CC)CCOC(=O)/C=C\c1ccc2cccnc2c1Oc1ccc2ccccc2c1

>  <Energy>  (21) 
80.26896180472886

>  <Genealogy>  (21) 
CCN(CC)CCOC(=O)/C=C\c1ccc2cccnc2c1Oc1ccc2ccccc2c1 (cis-trans isomerization)
CCN(CC)CCOC(=O)/C=C\c1ccc2cccnc2c1Oc1ccc2ccccc2c1 (3D coordinates assigned)
CCN(CC)CCOC(=O)/C=C\c1ccc2cccnc2c1Oc1ccc2ccccc2c1 (optimized conformer: 80.26896180472886 kcal/mol)

>  <smiles>  (21) 
CCN(CC)CCOC(=O)C=Cc1ccc2cccnc2c1Oc1ccc2ccccc2c1

>  <score_type>  (21) 
oracle

>  <origin>  (21) 
adg

>  <m_score__min__energy>  (21) 
-9.2699999999999996

>  <m_primary>  (21) 
energy

$$$$
21:0
     RDKit          3D

 46 47  0  0  0  0  0  0  0  0999 V2000
   57.7770   26.0550   44.3480 C   0  0  0  0  0  0  0  0  0  0  0  0
   57.7220   26.7680   45.7030 C   0  0  0  0  0  0  0  0  0  0  0  0
   58.7880   27.7840   45.9270 N   0  0  0  0  0  0  0  0  0  0  0  0
   59.4580   28.2130   44.6640 C   0  0  0  0  0  0  0  0  0  0  0  0
   60.8280   28.8930   44.8380 C   0  0  0  0  0  0  0  0  0  0  0  0
   59.7420   27.4550   47.0200 C   0  0  0  0  0  0  0  0  0  0  0  0
   59.5330   28.3040   48.2820 C   0  0  0  0  0  0  0  0  0  0  0  0
   58.7060   29.4190   47.9650 O   0  0  0  0  0  0  0  0  0  0  0  0
   59.2130   30.6110   47.4370 C   0  0  0  0  0  0  0  0  0  0  0  0
   60.4500   30.8540   47.4760 O   0  0  0  0  0  0  0  0  0  0  0  0
   58.2760   31.6240   46.8460 C   0  0  1  0  0  0  0  0  0  0  0  0
   58.8030   33.0250   46.9540 C   0  0  0  0  0  0  0  0  0  0  0  0
   59.3020   33.5240   47.9970 O   0  0  0  0  0  0  0  0  0  0  0  0
   58.6560   33.7360   45.7690 O   0  0  0  0  0  0  0  0  0  0  0  0
   57.8720   32.9450   44.8970 C   0  0  1  0  0  0  0  0  0  0  0  0
   58.1200   33.0820   43.4280 C   0  0  0  0  0  0  0  0  0  0  0  0
   57.6350   32.1110   42.6120 C   0  0  0  0  0  0  0  0  0  0  0  0
   57.8030   32.2480   41.1250 C   0  0  0  0  0  0  0  0  0  0  0  0
   56.8850   30.8900   43.1790 C   0  0  0  0  0  0  0  0  0  0  0  0
   57.1910   30.6260   44.6490 C   0  0  0  0  0  0  0  0  0  0  0  0
   56.6770   29.6900   45.2400 O   0  0  0  0  0  0  0  0  0  0  0  0
   58.1940   31.5180   45.3170 C   0  0  2  0  0  0  0  0  0  0  0  0
   57.8607   24.9699   44.5078 H   0  0  0  0  0  0  0  0  0  0  0  0
   56.8594   26.2725   43.7817 H   0  0  0  0  0  0  0  0  0  0  0  0
   58.6504   26.4107   43.7817 H   0  0  0  0  0  0  0  0  0  0  0  0
   56.7480   27.2729   45.7829 H   0  0  0  0  0  0  0  0  0  0  0  0
   57.8762   25.9896   46.4648 H   0  0  0  0  0  0  0  0  0  0  0  0
   58.2700   28.6360   46.2520 H   0  0  0  0  0  0  0  0  0  0  0  0
   59.5997   27.3212   44.0359 H   0  0  0  0  0  0  0  0  0  0  0  0
   58.7994   28.9714   44.2156 H   0  0  0  0  0  0  0  0  0  0  0  0
   61.0493   29.0029   45.9099 H   0  0  0  0  0  0  0  0  0  0  0  0
   61.6061   28.2765   44.3642 H   0  0  0  0  0  0  0  0  0  0  0  0
   60.8075   29.8855   44.3642 H   0  0  0  0  0  0  0  0  0  0  0  0
   59.6158   26.3953   47.2868 H   0  0  0  0  0  0  0  0  0  0  0  0
   60.7539   27.6696   46.6459 H   0  0  0  0  0  0  0  0  0  0  0  0
   59.0475   27.6950   49.0588 H   0  0  0  0  0  0  0  0  0  0  0  0
   60.5055   28.6592   48.6535 H   0  0  0  0  0  0  0  0  0  0  0  0
   57.3374   31.4309   47.3861 H   0  0  0  0  0  0  0  0  0  0  0  0
   56.8251   33.2673   44.9975 H   0  0  0  0  0  0  0  0  0  0  0  0
   58.6763   33.9401   43.0227 H   0  0  0  0  0  0  0  0  0  0  0  0
   58.6393   32.9300   40.9118 H   0  0  0  0  0  0  0  0  0  0  0  0
   58.0139   31.2611   40.6874 H   0  0  0  0  0  0  0  0  0  0  0  0
   56.8787   32.6532   40.6874 H   0  0  0  0  0  0  0  0  0  0  0  0
   55.8040   31.0635   43.0727 H   0  0  0  0  0  0  0  0  0  0  0  0
   57.2200   30.0088   42.6122 H   0  0  0  0  0  0  0  0  0  0  0  0
   59.1379   31.0481   45.0035 H   0  0  0  0  0  0  0  0  0  0  0  0
  1  2  1  0
  2  3  1  0
  3  4  1  0
  4  5  1  0
  3  6  1  0
  6  7  1  0
  7  8  1  0
  8  9  1  0
  9 10  2  0
  9 11  1  0
 11 12  1  0
 12 13  2  0
 12 14  1  0
 14 15  1  0
 15 16  1  0
 16 17  2  0
 17 18  1  0
 17 19  1  0
 19 20  1  0
 20 21  2  0
 20 22  1  0
 22 11  1  0
 22 15  1  0
  1 23  1  0
  1 24  1  0
  1 25  1  0
  2 26  1  0
  2 27  1  0
  3 28  1  0
  4 29  1  0
  4 30  1  0
  5 31  1  0
  5 32  1  0
  5 33  1  0
  6 34  1  0
  6 35  1  0
  7 36  1  0
  7 37  1  0
 11 38  1  1
 15 39  1  6
 16 40  1  0
 18 41  1  0
 18 42  1  0
 18 43  1  0
 19 44  1  0
 19 45  1  0
 22 46  1  6
M  CHG  1   3   1
M  END
>  <UniqueID>  (22) 
21

>  <SMILES>  (22) 
CC[NH+](CC)CCOC(=O)[C@H]1C(=O)O[C@H]2C=C(C)CC(=O)C12

>  <Energy>  (22) 
70.81408703757266

>  <Genealogy>  (22) 
CC[NH+](CC)CCOC(=O)C1C(=O)OC2C=C(C)CC(=O)C21 (protonated)
CC[NH+](CC)CCOC(=O)[C@H]1C(=O)O[C@H]2C=C(C)CC(=O)C12 (chirality)
CC[NH+](CC)CCOC(=O)[C@H]1C(=O)O[C@H]2C=C(C)CC(=O)C12 (3D coordinates assigned)
CC[NH+](CC)CCOC(=O)[C@H]1C(=O)O[C@H]2C=C(C)CC(=O)C12 (nonaromatic ring conformer: 70.81408703757266 kcal/mol)

>  <smiles>  (22) 
CCN(CC)CCOC(=O)C1C(=O)OC2C=C(C)CC(=O)C21

>  <score_type>  (22) 
oracle

>  <origin>  (22) 
adg

>  <m_score__min__energy>  (22) 
-4.5999999999999996

>  <m_primary>  (22) 
energy

$$$$
22:0
     RDKit          3D

 48 49  0  0  0  0  0  0  0  0999 V2000
   61.2940   30.4960   47.8030 C   0  0  0  0  0  0  0  0  0  0  0  0
   62.3600   31.4050   47.1900 C   0  0  0  0  0  0  0  0  0  0  0  0
   63.0170   32.2430   48.2200 N   0  0  0  0  0  0  0  0  0  0  0  0
   62.3000   32.1940   49.5190 C   0  0  0  0  0  0  0  0  0  0  0  0
   62.6590   33.4240   50.3440 C   0  0  0  0  0  0  0  0  0  0  0  0
   63.1700   33.6320   47.7290 C   0  0  0  0  0  0  0  0  0  0  0  0
   62.4200   33.8590   46.4100 C   0  0  0  0  0  0  0  0  0  0  0  0
   60.7600   34.4840   46.6550 S   0  0  0  0  0  0  0  0  0  0  0  0
   60.4870   34.9420   48.2470 O   0  0  0  0  0  0  0  0  0  0  0  0
   59.4690   33.4610   46.0470 C   0  0  0  0  0  0  0  0  0  0  0  0
   58.9290   33.6820   44.7760 C   0  0  0  0  0  0  0  0  0  0  0  0
   57.8730   32.8910   44.3150 C   0  0  0  0  0  0  0  0  0  0  0  0
   57.3510   31.8680   45.1260 C   0  0  0  0  0  0  0  0  0  0  0  0
   56.2690   31.0360   44.6820 N   0  0  0  0  0  0  0  0  0  0  0  0
   56.2310   29.6050   44.7610 C   0  0  0  0  0  0  0  0  0  0  0  0
   55.1490   29.0130   44.5030 O   0  0  0  0  0  0  0  0  0  0  0  0
   57.4380   28.8070   45.0850 C   0  0  0  0  0  0  0  0  0  0  0  0
   58.6520   29.0620   44.4210 C   0  0  0  0  0  0  0  0  0  0  0  0
   59.7930   28.3140   44.7250 C   0  0  0  0  0  0  0  0  0  0  0  0
   59.7370   27.3140   45.6990 C   0  0  0  0  0  0  0  0  0  0  0  0
   58.5410   27.0650   46.3760 C   0  0  0  0  0  0  0  0  0  0  0  0
   57.3960   27.8090   46.0750 C   0  0  0  0  0  0  0  0  0  0  0  0
   57.9230   31.6250   46.3800 C   0  0  0  0  0  0  0  0  0  0  0  0
   58.9700   32.4250   46.8450 C   0  0  0  0  0  0  0  0  0  0  0  0
   61.3547   30.5478   48.9001 H   0  0  0  0  0  0  0  0  0  0  0  0
   60.2975   30.8266   47.4749 H   0  0  0  0  0  0  0  0  0  0  0  0
   61.4630   29.4598   47.4749 H   0  0  0  0  0  0  0  0  0  0  0  0
   63.1210   30.7817   46.6976 H   0  0  0  0  0  0  0  0  0  0  0  0
   61.8699   32.0710   46.4646 H   0  0  0  0  0  0  0  0  0  0  0  0
   61.2150   32.1774   49.3386 H   0  0  0  0  0  0  0  0  0  0  0  0
   62.5946   31.2865   50.0664 H   0  0  0  0  0  0  0  0  0  0  0  0
   62.5881   33.1810   51.4145 H   0  0  0  0  0  0  0  0  0  0  0  0
   63.6862   33.7378   50.1065 H   0  0  0  0  0  0  0  0  0  0  0  0
   61.9619   34.2411   50.1065 H   0  0  0  0  0  0  0  0  0  0  0  0
   62.7728   34.3229   48.4873 H   0  0  0  0  0  0  0  0  0  0  0  0
   64.2397   33.8135   47.5482 H   0  0  0  0  0  0  0  0  0  0  0  0
   62.9834   34.5852   45.8057 H   0  0  0  0  0  0  0  0  0  0  0  0
   62.3364   32.8856   45.9046 H   0  0  0  0  0  0  0  0  0  0  0  0
   60.8460   34.1950   48.7910 H   0  0  0  0  0  0  0  0  0  0  0  0
   59.3362   34.4800   44.1378 H   0  0  0  0  0  0  0  0  0  0  0  0
   57.4494   33.0692   43.3156 H   0  0  0  0  0  0  0  0  0  0  0  0
   58.7034   29.8537   43.6591 H   0  0  0  0  0  0  0  0  0  0  0  0
   60.7368   28.5131   44.1963 H   0  0  0  0  0  0  0  0  0  0  0  0
   60.6347   26.7228   45.9327 H   0  0  0  0  0  0  0  0  0  0  0  0
   58.4997   26.2820   47.1475 H   0  0  0  0  0  0  0  0  0  0  0  0
   56.4580   27.6128   46.6151 H   0  0  0  0  0  0  0  0  0  0  0  0
   57.5464   30.8001   47.0027 H   0  0  0  0  0  0  0  0  0  0  0  0
   59.4026   32.2404   47.8394 H   0  0  0  0  0  0  0  0  0  0  0  0
  1  2  1  0
  2  3  1  0
  3  4  1  0
  4  5  1  0
  3  6  1  0
  6  7  1  0
  7  8  1  0
  8  9  1  1
  8 10  1  0
 10 11  2  0
 11 12  1  0
 12 13  2  0
 13 14  1  0
 14 15  1  0
 15 16  2  0
 15 17  1  0
 17 18  2  0
 18 19  1  0
 19 20  2  0
 20 21  1  0
 21 22  2  0
 13 23  1  0
 23 24  2  0
 24 10  1  0
 22 17  1  0
  1 25  1  0
  1 26  1  0
  1 27  1  0
  2 28  1  0
  2 29  1  0
  4 30  1  0
  4 31  1  0
  5 32  1  0
  5 33  1  0
  5 34  1  0
  6 35  1  0
  6 36  1  0
  7 37  1  0
  7 38  1  0
  9 39  1  0
 11 40  1  0
 12 41  1  0
 18 42  1  0
 19 43  1  0
 20 44  1  0
 21 45  1  0
 22 46  1  0
 23 47  1  0
 24 48  1  0
M  CHG  2   8   1  14  -1
M  END
>  <UniqueID>  (23) 
22

>  <SMILES>  (23) 
CCN(CC)CC[S@+](O)c1ccc([N-]C(=O)c2ccccc2)cc1

>  <Energy>  (23) 
45.04989291010711

>  <Genealogy>  (23) 
CCN(CC)CC[S+](O)c1ccc([N-]C(=O)c2ccccc2)cc1 (protonated)
CCN(CC)CC[S@+](O)c1ccc([N-]C(=O)c2ccccc2)cc1 (chirality)
CCN(CC)CC[S@+](O)c1ccc([N-]C(=O)c2ccccc2)cc1 (3D coordinates assigned)
CCN(CC)CC[S@+](O)c1ccc([N-]C(=O)c2ccccc2)cc1 (optimized conformer: 45.04989291010711 kcal/mol)

>  <smiles>  (23) 
CCN(CC)CC[S+]([O-])c1ccc(NC(=O)c2ccccc2)cc1

>  <score_type>  (23) 
oracle

>  <origin>  (23) 
adg

>  <m_score__min__energy>  (23) 
-8.0299999999999994

>  <m_primary>  (23) 
energy

$$$$
23:0
     RDKit          3D

 62 63  0  0  0  0  0  0  0  0999 V2000
   61.0140   29.8140   48.8270 C   0  0  0  0  0  0  0  0  0  0  0  0
   59.5660   29.4960   48.4140 C   0  0  0  0  0  0  0  0  0  0  0  0
   59.3410   29.2990   46.9510 N   0  0  0  0  0  0  0  0  0  0  0  0
   60.4600   29.8140   46.1140 C   0  0  0  0  0  0  0  0  0  0  0  0
   60.8210   28.9470   44.9030 C   0  0  0  0  0  0  0  0  0  0  0  0
   58.8910   27.9270   46.6040 C   0  0  0  0  0  0  0  0  0  0  0  0
   57.4750   27.8780   46.0120 C   0  0  0  0  0  0  0  0  0  0  0  0
   56.9590   29.2020   45.9590 O   0  0  0  0  0  0  0  0  0  0  0  0
   56.2690   29.7210   44.8580 C   0  0  0  0  0  0  0  0  0  0  0  0
   55.1360   29.2570   44.5510 O   0  0  0  0  0  0  0  0  0  0  0  0
   56.8860   30.7890   44.0310 C   0  0  0  0  0  0  0  0  0  0  0  0
   56.6850   30.7920   42.6360 C   0  0  0  0  0  0  0  0  0  0  0  0
   57.3150   31.7390   41.8270 C   0  0  0  0  0  0  0  0  0  0  0  0
   58.1560   32.6940   42.3950 C   0  0  0  0  0  0  0  0  0  0  0  0
   58.3620   32.7150   43.7740 C   0  0  0  0  0  0  0  0  0  0  0  0
   57.7250   31.7750   44.6090 C   0  0  0  0  0  0  0  0  0  0  0  0
   57.8970   31.8040   46.0030 O   0  0  0  0  0  0  0  0  0  0  0  0
   57.9010   32.9780   46.8150 C   0  0  0  0  0  0  0  0  0  0  0  0
   59.1220   33.0130   47.6980 C   0  0  0  0  0  0  0  0  0  0  0  0
   58.9830   33.1470   49.0840 C   0  0  0  0  0  0  0  0  0  0  0  0
   60.1100   33.2060   49.9250 C   0  0  0  0  0  0  0  0  0  0  0  0
   59.9590   33.3160   51.3180 O   0  0  0  0  0  0  0  0  0  0  0  0
   60.5380   32.4340   52.2730 C   0  0  0  0  0  0  0  0  0  0  0  0
   61.4060   33.1580   49.3490 C   0  0  0  0  0  0  0  0  0  0  0  0
   62.5980   33.2210   50.0980 O   0  0  0  0  0  0  0  0  0  0  0  0
   63.2350   34.3980   50.5870 C   0  0  0  0  0  0  0  0  0  0  0  0
   61.5430   33.0460   47.9540 C   0  0  0  0  0  0  0  0  0  0  0  0
   62.8420   33.0070   47.4180 O   0  0  0  0  0  0  0  0  0  0  0  0
   63.3140   33.8630   46.3800 C   0  0  0  0  0  0  0  0  0  0  0  0
   60.4000   32.9760   47.1380 C   0  0  0  0  0  0  0  0  0  0  0  0
   61.0872   29.8301   49.9244 H   0  0  0  0  0  0  0  0  0  0  0  0
   61.6876   29.0424   48.4259 H   0  0  0  0  0  0  0  0  0  0  0  0
   61.3023   30.7969   48.4259 H   0  0  0  0  0  0  0  0  0  0  0  0
   59.2615   28.5738   48.9305 H   0  0  0  0  0  0  0  0  0  0  0  0
   58.9725   30.3789   48.6936 H   0  0  0  0  0  0  0  0  0  0  0  0
   58.5350   29.9280   46.7220 H   0  0  0  0  0  0  0  0  0  0  0  0
   60.1788   30.8119   45.7465 H   0  0  0  0  0  0  0  0  0  0  0  0
   61.3489   29.8190   46.7619 H   0  0  0  0  0  0  0  0  0  0  0  0
   61.2224   27.9830   45.2488 H   0  0  0  0  0  0  0  0  0  0  0  0
   59.9207   28.7726   44.2955 H   0  0  0  0  0  0  0  0  0  0  0  0
   61.5790   29.4631   44.2955 H   0  0  0  0  0  0  0  0  0  0  0  0
   59.5912   27.5069   45.8670 H   0  0  0  0  0  0  0  0  0  0  0  0
   58.8712   27.3470   47.5385 H   0  0  0  0  0  0  0  0  0  0  0  0
   57.5119   27.4539   44.9977 H   0  0  0  0  0  0  0  0  0  0  0  0
   56.8274   27.2473   46.6388 H   0  0  0  0  0  0  0  0  0  0  0  0
   56.0245   30.0399   42.1799 H   0  0  0  0  0  0  0  0  0  0  0  0
   57.1475   31.7315   40.7399 H   0  0  0  0  0  0  0  0  0  0  0  0
   58.6586   33.4332   41.7539 H   0  0  0  0  0  0  0  0  0  0  0  0
   59.0277   33.4721   44.2141 H   0  0  0  0  0  0  0  0  0  0  0  0
   57.8999   33.8658   46.1656 H   0  0  0  0  0  0  0  0  0  0  0  0
   57.0046   32.9692   47.4525 H   0  0  0  0  0  0  0  0  0  0  0  0
   57.9764   33.2072   49.5234 H   0  0  0  0  0  0  0  0  0  0  0  0
   60.3052   32.7886   53.2879 H   0  0  0  0  0  0  0  0  0  0  0  0
   60.1273   31.4230   52.1346 H   0  0  0  0  0  0  0  0  0  0  0  0
   61.6290   32.4087   52.1346 H   0  0  0  0  0  0  0  0  0  0  0  0
   63.2295   34.3879   51.6869 H   0  0  0  0  0  0  0  0  0  0  0  0
   64.2735   34.4299   50.2258 H   0  0  0  0  0  0  0  0  0  0  0  0
   62.6937   35.2849   50.2258 H   0  0  0  0  0  0  0  0  0  0  0  0
   63.7999   34.7443   46.8241 H   0  0  0  0  0  0  0  0  0  0  0  0
   64.0396   33.3189   45.7576 H   0  0  0  0  0  0  0  0  0  0  0  0
   62.4666   34.1862   45.7576 H   0  0  0  0  0  0  0  0  0  0  0  0
   60.5142   32.8912   46.0472 H   0  0  0  0  0  0  0  0  0  0  0  0
  1  2  1  0
  2  3  1  0
  3  4  1  0
  4  5  1  0
  3  6  1  0
  6  7  1  0
  7  8  1  0
  8  9  1  0
  9 10  2  0
  9 11  1  0
 11 12  2  0
 12 13  1  0
 13 14  2  0
 14 15  1  0
 15 16  2  0
 16 17  1  0
 17 18  1  0
 18 19  1  0
 19 20  2  0
 20 21  1  0
 21 22  1  0
 22 23  1  0
 21 24  2  0
 24 25  1  0
 25 26  1  0
 24 27  1  0
 27 28  1  0
 28 29  1  0
 27 30  2  0
 16 11  1  0
 30 19  1  0
  1 31  1  0
  1 32  1  0
  1 33  1  0
  2 34  1  0
  2 35  1  0
  3 36  1  0
  4 37  1  0
  4 38  1  0
  5 39  1  0
  5 40  1  0
  5 41  1  0
  6 42  1  0
  6 43  1  0
  7 44  1  0
  7 45  1  0
 12 46  1  0
 13 47  1  0
 14 48  1  0
 15 49  1  0
 18 50  1  0
 18 51  1  0
 20 52  1  0
 23 53  1  0
 23 54  1  0
 23 55  1  0
 26 56  1  0
 26 57  1  0
 26 58  1  0
 29 59  1  0
 29 60  1  0
 29 61  1  0
 30 62  1  0
M  CHG  1   3   1
M  END
>  <UniqueID>  (24) 
23

>  <SMILES>  (24) 
CC[NH+](CC)CCOC(=O)c1ccccc1OCc1cc(OC)c(OC)c(OC)c1

>  <Energy>  (24) 
67.88680301579946

>  <Genealogy>  (24) 
CC[NH+](CC)CCOC(=O)c1ccccc1OCc1cc(OC)c(OC)c(OC)c1 (protonated)
CC[NH+](CC)CCOC(=O)c1ccccc1OCc1cc(OC)c(OC)c(OC)c1 (3D coordinates assigned)
CC[NH+](CC)CCOC(=O)c1ccccc1OCc1cc(OC)c(OC)c(OC)c1 (optimized conformer: 67.88680301579946 kcal/mol)

>  <smiles>  (24) 
CCN(CC)CCOC(=O)c1ccccc1OCc1cc(OC)c(OC)c(OC)c1

>  <score_type>  (24) 
oracle

>  <origin>  (24) 
adg

>  <m_score__min__energy>  (24) 
-5.2699999999999996

>  <m_primary>  (24) 
energy

$$$$
24:0
     RDKit          3D

 31 32  0  0  0  0  0  0  0  0999 V2000
   63.4030   33.8410   46.6110 C   0  0  0  0  0  0  0  0  0  0  0  0
   64.1190   32.7090   47.2040 N   0  0  0  0  0  0  0  0  0  0  0  0
   63.2160   31.8990   48.0350 C   0  0  0  0  0  0  0  0  0  0  0  0
   62.1860   31.1510   47.1790 C   0  0  0  0  0  0  0  0  0  0  0  0
   60.8400   31.3130   47.7280 N   0  0  0  0  0  0  0  0  0  0  0  0
   59.6610   31.3800   46.9050 C   0  0  0  0  0  0  0  0  0  0  0  0
   58.8790   30.2330   46.7080 C   0  0  0  0  0  0  0  0  0  0  0  0
   57.7690   30.2920   45.8620 C   0  0  0  0  0  0  0  0  0  0  0  0
   57.0650   29.2660   45.6760 O   0  0  0  0  0  0  0  0  0  0  0  0
   57.4540   31.4240   45.2450 O   0  0  0  0  0  0  0  0  0  0  0  0
   58.1560   32.5430   45.3940 C   0  0  0  0  0  0  0  0  0  0  0  0
   57.7580   33.7000   44.7140 C   0  0  0  0  0  0  0  0  0  0  0  0
   58.4730   34.8880   44.8710 C   0  0  0  0  0  0  0  0  0  0  0  0
   59.5850   34.9310   45.7140 C   0  0  0  0  0  0  0  0  0  0  0  0
   59.9950   33.7830   46.3990 C   0  0  0  0  0  0  0  0  0  0  0  0
   59.2950   32.5700   46.2380 C   0  0  0  0  0  0  0  0  0  0  0  0
   62.9993   34.4792   47.4109 H   0  0  0  0  0  0  0  0  0  0  0  0
   64.0950   34.4271   45.9884 H   0  0  0  0  0  0  0  0  0  0  0  0
   62.5769   33.4668   45.9884 H   0  0  0  0  0  0  0  0  0  0  0  0
   64.5140   32.1240   46.4300 H   0  0  0  0  0  0  0  0  0  0  0  0
   64.9010   33.0810   47.7920 H   0  0  0  0  0  0  0  0  0  0  0  0
   63.8109   31.1665   48.6003 H   0  0  0  0  0  0  0  0  0  0  0  0
   62.6755   32.5728   48.7161 H   0  0  0  0  0  0  0  0  0  0  0  0
   62.2086   31.5519   46.1549 H   0  0  0  0  0  0  0  0  0  0  0  0
   62.4397   30.0807   47.1764 H   0  0  0  0  0  0  0  0  0  0  0  0
   60.7370   31.2770   48.7680 H   0  0  0  0  0  0  0  0  0  0  0  0
   59.1380   29.2926   47.2165 H   0  0  0  0  0  0  0  0  0  0  0  0
   56.8787   33.6726   44.0537 H   0  0  0  0  0  0  0  0  0  0  0  0
   58.1597   35.7927   44.3293 H   0  0  0  0  0  0  0  0  0  0  0  0
   60.1409   35.8718   45.8399 H   0  0  0  0  0  0  0  0  0  0  0  0
   60.8680   33.8266   47.0668 H   0  0  0  0  0  0  0  0  0  0  0  0
  1  2  1  0
  2  3  1  0
  3  4  1  0
  4  5  1  0
  5  6  1  0
  6  7  2  0
  7  8  1  0
  8  9  2  0
  8 10  1  0
 10 11  1  0
 11 12  2  0
 12 13  1  0
 13 14  2  0
 14 15  1  0
 15 16  2  0
 16  6  1  0
 16 11  1  0
  1 17  1  0
  1 18  1  0
  1 19  1  0
  2 20  1  0
  2 21  1  0
  3 22  1  0
  3 23  1  0
  4 24  1  0
  4 25  1  0
  5 26  1  0
  7 27  1  0
 12 28  1  0
 13 29  1  0
 14 30  1  0
 15 31  1  0
M  CHG  1   2   1
M  END
>  <UniqueID>  (25) 
24

>  <SMILES>  (25) 
C[NH2+]CCNc1cc(=O)oc2ccccc12

>  <Energy>  (25) 
35.65419654901433

>  <Genealogy>  (25) 
C[NH2+]CCNc1cc(=O)oc2ccccc12 (protonated)
C[NH2+]CCNc1cc(=O)oc2ccccc12 (3D coordinates assigned)
C[NH2+]CCNc1cc(=O)oc2ccccc12 (optimized conformer: 35.65419654901433 kcal/mol)

>  <smiles>  (25) 
CNCCNc1cc(=O)oc2ccccc12

>  <score_type>  (25) 
oracle

>  <origin>  (25) 
adg

>  <m_score__min__energy>  (25) 
-4.4900000000000002

>  <m_primary>  (25) 
energy

$$$$
25:0
     RDKit          3D

 45 47  0  0  0  0  0  0  0  0999 V2000
   57.3470   30.4580   43.8640 C   0  0  0  0  0  0  0  0  0  0  0  0
   57.0040   31.4490   44.8280 O   0  0  0  0  0  0  0  0  0  0  0  0
   57.9090   32.0350   45.7290 C   0  0  0  0  0  0  0  0  0  0  0  0
   58.8030   31.2650   46.4890 C   0  0  0  0  0  0  0  0  0  0  0  0
   59.7040   31.8680   47.3830 C   0  0  0  0  0  0  0  0  0  0  0  0
   59.6770   33.2750   47.5810 C   0  0  0  0  0  0  0  0  0  0  0  0
   58.8160   34.0370   46.7580 C   0  0  0  0  0  0  0  0  0  0  0  0
   57.9260   33.4300   45.8600 C   0  0  0  0  0  0  0  0  0  0  0  0
   57.0080   34.2770   45.0220 C   0  0  0  0  0  0  0  0  0  0  0  0
   60.6390   33.9840   48.5610 C   0  0  1  0  0  0  0  0  0  0  0  0
   60.3350   33.6540   50.0180 C   0  0  0  0  0  0  0  0  0  0  0  0
   59.0790   33.1370   50.3900 C   0  0  0  0  0  0  0  0  0  0  0  0
   58.8060   32.8350   51.7270 C   0  0  0  0  0  0  0  0  0  0  0  0
   59.7810   33.0440   52.7050 C   0  0  0  0  0  0  0  0  0  0  0  0
   61.0310   33.5530   52.3480 C   0  0  0  0  0  0  0  0  0  0  0  0
   61.3100   33.8570   51.0120 C   0  0  0  0  0  0  0  0  0  0  0  0
   62.1750   33.7830   48.3130 C   0  0  0  0  0  0  0  0  0  0  0  0
   62.6730   32.4370   48.6940 N   0  0  2  0  0  0  0  0  0  0  0  0
   64.1480   32.4040   48.6550 C   0  0  0  0  0  0  0  0  0  0  0  0
   62.1380   31.3780   47.8030 C   0  0  0  0  0  0  0  0  0  0  0  0
   60.6810   30.9900   48.1170 C   0  0  0  0  0  0  0  0  0  0  0  0
   57.6649   29.5397   44.3794 H   0  0  0  0  0  0  0  0  0  0  0  0
   56.4718   30.2408   43.2341 H   0  0  0  0  0  0  0  0  0  0  0  0
   58.1693   30.8283   43.2341 H   0  0  0  0  0  0  0  0  0  0  0  0
   58.7983   30.1701   46.3830 H   0  0  0  0  0  0  0  0  0  0  0  0
   58.8450   35.1346   46.8238 H   0  0  0  0  0  0  0  0  0  0  0  0
   56.3596   34.8753   45.6789 H   0  0  0  0  0  0  0  0  0  0  0  0
   57.6056   34.9477   44.3871 H   0  0  0  0  0  0  0  0  0  0  0  0
   56.3875   33.6275   44.3871 H   0  0  0  0  0  0  0  0  0  0  0  0
   60.4318   35.0426   48.3455 H   0  0  0  0  0  0  0  0  0  0  0  0
   58.3080   32.9698   49.6235 H   0  0  0  0  0  0  0  0  0  0  0  0
   57.8221   32.4322   52.0094 H   0  0  0  0  0  0  0  0  0  0  0  0
   59.5639   32.8074   53.7571 H   0  0  0  0  0  0  0  0  0  0  0  0
   61.7981   33.7153   53.1195 H   0  0  0  0  0  0  0  0  0  0  0  0
   62.2970   34.2570   50.7366 H   0  0  0  0  0  0  0  0  0  0  0  0
   62.3765   33.9370   47.2426 H   0  0  0  0  0  0  0  0  0  0  0  0
   62.7000   34.5106   48.9495 H   0  0  0  0  0  0  0  0  0  0  0  0
   62.4060   32.2170   49.6830 H   0  0  0  0  0  0  0  0  0  0  0  0
   64.5418   32.3952   49.6820 H   0  0  0  0  0  0  0  0  0  0  0  0
   64.4807   31.4982   48.1269 H   0  0  0  0  0  0  0  0  0  0  0  0
   64.5208   33.2940   48.1269 H   0  0  0  0  0  0  0  0  0  0  0  0
   62.1864   31.7389   46.7650 H   0  0  0  0  0  0  0  0  0  0  0  0
   62.7535   30.4802   47.9613 H   0  0  0  0  0  0  0  0  0  0  0  0
   60.5172   29.9446   47.8165 H   0  0  0  0  0  0  0  0  0  0  0  0
   60.5156   31.1186   49.1969 H   0  0  0  0  0  0  0  0  0  0  0  0
  1  2  1  0
  2  3  1  0
  3  4  2  0
  4  5  1  0
  5  6  2  0
  6  7  1  0
  7  8  2  0
  8  9  1  0
  6 10  1  0
 10 11  1  0
 11 12  2  0
 12 13  1  0
 13 14  2  0
 14 15  1  0
 15 16  2  0
 10 17  1  0
 17 18  1  0
 18 19  1  0
 18 20  1  0
 20 21  1  0
  8  3  1  0
 16 11  1  0
 21  5  1  0
  1 22  1  0
  1 23  1  0
  1 24  1  0
  4 25  1  0
  7 26  1  0
  9 27  1  0
  9 28  1  0
  9 29  1  0
 10 30  1  1
 12 31  1  0
 13 32  1  0
 14 33  1  0
 15 34  1  0
 16 35  1  0
 17 36  1  0
 17 37  1  0
 18 38  1  1
 19 39  1  0
 19 40  1  0
 19 41  1  0
 20 42  1  0
 20 43  1  0
 21 44  1  0
 21 45  1  0
M  CHG  1  18   1
M  END
>  <UniqueID>  (26) 
25

>  <SMILES>  (26) 
COc1cc2c(cc1C)[C@@H](c1ccccc1)C[N@H+](C)CC2

>  <Energy>  (26) 
63.90720178608179

>  <Genealogy>  (26) 
COc1cc2c(cc1C)C(c1ccccc1)C[NH+](C)CC2 (protonated)
COc1cc2c(cc1C)[C@@H](c1ccccc1)C[N@H+](C)CC2 (chirality)
COc1cc2c(cc1C)[C@@H](c1ccccc1)C[N@H+](C)CC2 (3D coordinates assigned)
COc1cc2c(cc1C)[C@@H](c1ccccc1)C[N@H+](C)CC2 (nonaromatic ring conformer: 63.90720178608179 kcal/mol)

>  <smiles>  (26) 
COc1cc2c(cc1C)C(c1ccccc1)CN(C)CC2

>  <score_type>  (26) 
oracle

>  <origin>  (26) 
adg

>  <m_score__min__energy>  (26) 
-3.7200000000000002

>  <m_primary>  (26) 
energy

$$$$
26:0
     RDKit          3D

 58 61  0  0  0  0  0  0  0  0999 V2000
   58.7220   34.6550   44.8920 C   0  0  0  0  0  0  0  0  0  0  0  0
   57.9550   33.4290   44.6210 N   0  0  0  0  0  0  0  0  0  0  0  0
   58.2130   32.9560   43.2460 C   0  0  0  0  0  0  0  0  0  0  0  0
   57.4100   31.6810   42.9760 C   0  0  0  0  0  0  0  0  0  0  0  0
   57.7850   30.6360   43.9470 N   0  0  0  0  0  0  0  0  0  0  0  0
   57.0710   29.3790   43.6460 C   0  0  0  0  0  0  0  0  0  0  0  0
   56.3750   28.8260   44.8640 C   0  0  0  0  0  0  0  0  0  0  0  0
   55.2780   29.3440   45.2080 O   0  0  0  0  0  0  0  0  0  0  0  0
   56.9140   27.7230   45.6270 N   0  0  0  0  0  0  0  0  0  0  0  0
   56.2220   26.5490   46.0380 C   0  0  0  0  0  0  0  0  0  0  0  0
   55.0080   26.3320   45.7850 O   0  0  0  0  0  0  0  0  0  0  0  0
   57.0390   25.6600   46.8900 C   0  0  0  0  0  0  0  0  0  0  0  0
   58.4190   26.3310   46.8660 C   0  0  0  0  0  0  0  0  0  0  0  0
   58.1910   27.7620   46.3350 C   0  0  1  0  0  0  0  0  0  0  0  0
   59.3150   28.2300   45.4500 C   0  0  0  0  0  0  0  0  0  0  0  0
   59.5630   27.6010   44.3860 O   0  0  0  0  0  0  0  0  0  0  0  0
   60.1080   29.3660   45.8170 N   0  0  0  0  0  0  0  0  0  0  0  0
   60.5170   29.6350   47.1970 C   0  0  2  0  0  0  0  0  0  0  0  0
   59.2520   29.7880   48.0910 C   0  0  0  0  0  0  0  0  0  0  0  0
   59.4190   30.8180   49.2120 C   0  0  0  0  0  0  0  0  0  0  0  0
   59.8330   32.1340   48.6200 C   0  0  0  0  0  0  0  0  0  0  0  0
   59.2610   33.3410   49.0530 C   0  0  0  0  0  0  0  0  0  0  0  0
   59.6980   34.5540   48.5140 C   0  0  0  0  0  0  0  0  0  0  0  0
   60.7210   34.5680   47.5590 C   0  0  0  0  0  0  0  0  0  0  0  0
   61.2980   33.3690   47.1270 C   0  0  0  0  0  0  0  0  0  0  0  0
   60.8360   32.1440   47.6340 C   0  0  0  0  0  0  0  0  0  0  0  0
   61.4920   30.8450   47.2280 C   0  0  0  0  0  0  0  0  0  0  0  0
   57.5090   31.1090   45.3210 C   0  0  0  0  0  0  0  0  0  0  0  0
   58.3140   32.3830   45.5970 C   0  0  0  0  0  0  0  0  0  0  0  0
   58.8118   34.7986   45.9789 H   0  0  0  0  0  0  0  0  0  0  0  0
   59.7252   34.5651   44.4499 H   0  0  0  0  0  0  0  0  0  0  0  0
   58.2024   35.5178   44.4499 H   0  0  0  0  0  0  0  0  0  0  0  0
   57.9128   33.7350   42.5297 H   0  0  0  0  0  0  0  0  0  0  0  0
   59.2856   32.7403   43.1318 H   0  0  0  0  0  0  0  0  0  0  0  0
   56.3361   31.8993   43.0717 H   0  0  0  0  0  0  0  0  0  0  0  0
   57.6280   31.3246   41.9584 H   0  0  0  0  0  0  0  0  0  0  0  0
   56.3213   29.5734   42.8649 H   0  0  0  0  0  0  0  0  0  0  0  0
   57.8103   28.6378   43.3081 H   0  0  0  0  0  0  0  0  0  0  0  0
   56.6386   25.6159   47.9136 H   0  0  0  0  0  0  0  0  0  0  0  0
   57.0574   24.6183   46.5371 H   0  0  0  0  0  0  0  0  0  0  0  0
   58.8452   26.3635   47.8796 H   0  0  0  0  0  0  0  0  0  0  0  0
   59.1248   25.7750   46.2314 H   0  0  0  0  0  0  0  0  0  0  0  0
   58.1681   28.4897   47.1596 H   0  0  0  0  0  0  0  0  0  0  0  0
   61.0823   28.7918   47.6206 H   0  0  0  0  0  0  0  0  0  0  0  0
   58.4108   30.0993   47.4542 H   0  0  0  0  0  0  0  0  0  0  0  0
   59.0735   28.8138   48.5697 H   0  0  0  0  0  0  0  0  0  0  0  0
   58.4643   30.9390   49.7448 H   0  0  0  0  0  0  0  0  0  0  0  0
   60.1894   30.4729   49.9173 H   0  0  0  0  0  0  0  0  0  0  0  0
   58.4690   33.3318   49.8164 H   0  0  0  0  0  0  0  0  0  0  0  0
   59.2377   35.4982   48.8405 H   0  0  0  0  0  0  0  0  0  0  0  0
   61.0726   35.5252   47.1466 H   0  0  0  0  0  0  0  0  0  0  0  0
   62.1141   33.3860   46.3897 H   0  0  0  0  0  0  0  0  0  0  0  0
   61.9202   30.9717   46.2227 H   0  0  0  0  0  0  0  0  0  0  0  0
   62.2576   30.6213   47.9855 H   0  0  0  0  0  0  0  0  0  0  0  0
   56.4354   31.3245   45.4253 H   0  0  0  0  0  0  0  0  0  0  0  0
   57.7997   30.3299   46.0410 H   0  0  0  0  0  0  0  0  0  0  0  0
   58.0917   32.7413   46.6130 H   0  0  0  0  0  0  0  0  0  0  0  0
   59.3870   32.1583   45.5066 H   0  0  0  0  0  0  0  0  0  0  0  0
  1  2  1  0
  2  3  1  0
  3  4  1  0
  4  5  1  0
  5  6  1  0
  6  7  1  0
  7  8  2  0
  7  9  1  0
  9 10  1  0
 10 11  2  0
 10 12  1  0
 12 13  1  0
 13 14  1  0
 14 15  1  0
 15 16  2  0
 15 17  1  0
 17 18  1  0
 18 19  1  0
 19 20  1  0
 20 21  1  0
 21 22  2  0
 22 23  1  0
 23 24  2  0
 24 25  1  0
 25 26  2  0
 26 27  1  0
  5 28  1  0
 28 29  1  0
 29  2  1  0
 14  9  1  0
 27 18  1  0
 26 21  1  0
  1 30  1  0
  1 31  1  0
  1 32  1  0
  3 33  1  0
  3 34  1  0
  4 35  1  0
  4 36  1  0
  6 37  1  0
  6 38  1  0
 12 39  1  0
 12 40  1  0
 13 41  1  0
 13 42  1  0
 14 43  1  1
 18 44  1  1
 19 45  1  0
 19 46  1  0
 20 47  1  0
 20 48  1  0
 22 49  1  0
 23 50  1  0
 24 51  1  0
 25 52  1  0
 27 53  1  0
 27 54  1  0
 28 55  1  0
 28 56  1  0
 29 57  1  0
 29 58  1  0
M  CHG  1  17  -1
M  END
>  <UniqueID>  (27) 
26

>  <SMILES>  (27) 
CN1CCN(CC(=O)N2C(=O)CC[C@H]2C(=O)[N-][C@@H]2CCc3ccccc3C2)CC1

>  <Energy>  (27) 
66.78286803655051

>  <Genealogy>  (27) 
CN1CCN(CC(=O)N2C(=O)CCC2C(=O)[N-]C2CCc3ccccc3C2)CC1 (protonated)
CN1CCN(CC(=O)N2C(=O)CC[C@H]2C(=O)[N-][C@@H]2CCc3ccccc3C2)CC1 (chirality)
CN1CCN(CC(=O)N2C(=O)CC[C@H]2C(=O)[N-][C@@H]2CCc3ccccc3C2)CC1 (3D coordinates assigned)
CN1CCN(CC(=O)N2C(=O)CC[C@H]2C(=O)[N-][C@@H]2CCc3ccccc3C2)CC1 (nonaromatic ring conformer: 66.78286803655051 kcal/mol)

>  <smiles>  (27) 
CN1CCN(CC(=O)N2C(=O)CCC2C(=O)NC2CCc3ccccc3C2)CC1

>  <score_type>  (27) 
oracle

>  <origin>  (27) 
adg

>  <m_score__min__energy>  (27) 
-10.43

>  <m_primary>  (27) 
energy

$$$$
27:0
     RDKit          3D

 41 43  0  0  0  0  0  0  0  0999 V2000
   62.6360   34.3910   50.1170 C   0  0  0  0  0  0  0  0  0  0  0  0
   61.5560   34.4120   49.1890 O   0  0  0  0  0  0  0  0  0  0  0  0
   61.0300   33.2750   48.5550 C   0  0  0  0  0  0  0  0  0  0  0  0
   59.6750   32.9130   48.6740 C   0  0  0  0  0  0  0  0  0  0  0  0
   59.1890   31.7710   48.0340 C   0  0  0  0  0  0  0  0  0  0  0  0
   60.0420   30.9730   47.2570 C   0  0  0  0  0  0  0  0  0  0  0  0
   59.5430   29.7470   46.5930 C   0  0  0  0  0  0  0  0  0  0  0  0
   58.2290   29.4810   46.4180 N   0  0  0  0  0  0  0  0  0  0  0  0
   58.0240   28.3300   45.7220 C   0  0  0  0  0  0  0  0  0  0  0  0
   56.6480   27.8810   45.3330 C   0  0  0  0  0  0  0  0  0  0  0  0
   55.7520   29.0400   45.1890 N   0  0  0  0  0  0  0  0  0  0  0  0
   55.9400   29.7470   43.9110 C   0  0  0  0  0  0  0  0  0  0  0  0
   56.7790   30.9740   44.0930 C   0  0  0  0  0  0  0  0  0  0  0  0
   57.5480   31.5800   43.1200 C   0  0  0  0  0  0  0  0  0  0  0  0
   58.1350   32.6650   43.7340 C   0  0  0  0  0  0  0  0  0  0  0  0
   57.6960   32.6480   45.0430 C   0  0  0  0  0  0  0  0  0  0  0  0
   56.8930   31.6260   45.2270 O   0  0  0  0  0  0  0  0  0  0  0  0
   59.1790   27.6610   45.3280 C   0  0  0  0  0  0  0  0  0  0  0  0
   60.4930   28.5520   45.8800 S   0  0  0  0  0  0  0  0  0  0  0  0
   61.3920   31.3400   47.1320 C   0  0  0  0  0  0  0  0  0  0  0  0
   61.8920   32.4830   47.7840 C   0  0  0  0  0  0  0  0  0  0  0  0
   63.2420   32.8600   47.6940 O   0  0  0  0  0  0  0  0  0  0  0  0
   63.7620   33.7770   46.7380 C   0  0  0  0  0  0  0  0  0  0  0  0
   62.2384   34.3987   51.1426 H   0  0  0  0  0  0  0  0  0  0  0  0
   63.2345   33.4810   49.9626 H   0  0  0  0  0  0  0  0  0  0  0  0
   63.2694   35.2770   49.9626 H   0  0  0  0  0  0  0  0  0  0  0  0
   58.9944   33.5338   49.2751 H   0  0  0  0  0  0  0  0  0  0  0  0
   58.1294   31.4951   48.1399 H   0  0  0  0  0  0  0  0  0  0  0  0
   56.6998   27.3417   44.3757 H   0  0  0  0  0  0  0  0  0  0  0  0
   56.2529   27.2198   46.1183 H   0  0  0  0  0  0  0  0  0  0  0  0
   55.9940   29.7170   45.9500 H   0  0  0  0  0  0  0  0  0  0  0  0
   56.4378   29.0737   43.1976 H   0  0  0  0  0  0  0  0  0  0  0  0
   54.9535   30.0510   43.5311 H   0  0  0  0  0  0  0  0  0  0  0  0
   57.6673   31.2631   42.0734 H   0  0  0  0  0  0  0  0  0  0  0  0
   58.8157   33.3967   43.2743 H   0  0  0  0  0  0  0  0  0  0  0  0
   57.9766   33.3799   45.8147 H   0  0  0  0  0  0  0  0  0  0  0  0
   59.2238   26.7206   44.7591 H   0  0  0  0  0  0  0  0  0  0  0  0
   62.0669   30.7266   46.5170 H   0  0  0  0  0  0  0  0  0  0  0  0
   64.2396   34.6193   47.2599 H   0  0  0  0  0  0  0  0  0  0  0  0
   64.5054   33.2672   46.1076 H   0  0  0  0  0  0  0  0  0  0  0  0
   62.9429   34.1533   46.1076 H   0  0  0  0  0  0  0  0  0  0  0  0
  1  2  1  0
  2  3  1  0
  3  4  2  0
  4  5  1  0
  5  6  2  0
  6  7  1  0
  7  8  2  0
  8  9  1  0
  9 10  1  0
 10 11  1  0
 11 12  1  0
 12 13  1  0
 13 14  2  0
 14 15  1  0
 15 16  2  0
 16 17  1  0
  9 18  2  0
 18 19  1  0
  6 20  1  0
 20 21  2  0
 21 22  1  0
 22 23  1  0
 21  3  1  0
 19  7  1  0
 17 13  1  0
  1 24  1  0
  1 25  1  0
  1 26  1  0
  4 27  1  0
  5 28  1  0
 10 29  1  0
 10 30  1  0
 11 31  1  0
 12 32  1  0
 12 33  1  0
 14 34  1  0
 15 35  1  0
 16 36  1  0
 18 37  1  0
 20 38  1  0
 23 39  1  0
 23 40  1  0
 23 41  1  0
M  END
>  <UniqueID>  (28) 
27

>  <SMILES>  (28) 
COc1ccc(-c2nc(CNCc3ccco3)cs2)cc1OC

>  <Energy>  (28) 
93.24075743881679

>  <Genealogy>  (28) 
COc1ccc(-c2nc(CNCc3ccco3)cs2)cc1OC (3D coordinates assigned)
COc1ccc(-c2nc(CNCc3ccco3)cs2)cc1OC (optimized conformer: 93.24075743881679 kcal/mol)

>  <smiles>  (28) 
COc1ccc(-c2nc(CNCc3ccco3)cs2)cc1OC

>  <score_type>  (28) 
oracle

>  <origin>  (28) 
adg

>  <m_score__min__energy>  (28) 
-7.4900000000000002

>  <m_primary>  (28) 
energy

$$$$
28:0
     RDKit          3D

 67 71  0  0  0  0  0  0  0  0999 V2000
   66.2990   34.2510   51.6240 C   0  0  0  0  0  0  0  0  0  0  0  0
   64.8110   33.8500   51.5980 C   0  0  0  0  0  0  0  0  0  0  0  0
   64.4730   32.6880   50.7250 N   0  0  0  0  0  0  0  0  0  0  0  0
   64.6320   31.3740   51.4120 C   0  0  0  0  0  0  0  0  0  0  0  0
   66.0080   30.7100   51.2640 C   0  0  0  0  0  0  0  0  0  0  0  0
   65.1090   32.7420   49.3790 C   0  0  0  0  0  0  0  0  0  0  0  0
   64.1140   33.0670   48.2220 C   0  0  0  0  0  0  0  0  0  0  0  0
   63.1430   34.2150   48.6410 C   0  0  0  0  0  0  0  0  0  0  0  0
   61.6760   33.9090   48.3370 C   0  0  0  0  0  0  0  0  0  0  0  0
   61.3330   32.6050   48.9090 N   0  0  0  0  0  0  0  0  0  0  0  0
   60.2230   32.4890   49.8150 C   0  0  0  0  0  0  0  0  0  0  0  0
   58.8950   32.3490   49.3390 C   0  0  0  0  0  0  0  0  0  0  0  0
   58.6120   32.2520   47.8920 C   0  0  0  0  0  0  0  0  0  0  0  0
   58.3030   33.3380   47.0760 C   0  0  0  0  0  0  0  0  0  0  0  0
   58.1450   32.8070   45.8150 C   0  0  0  0  0  0  0  0  0  0  0  0
   57.8450   33.4330   44.6070 C   0  0  0  0  0  0  0  0  0  0  0  0
   57.7600   32.6310   43.4550 C   0  0  0  0  0  0  0  0  0  0  0  0
   57.9760   31.2390   43.5360 C   0  0  0  0  0  0  0  0  0  0  0  0
   58.2780   30.6340   44.7700 C   0  0  0  0  0  0  0  0  0  0  0  0
   58.3530   31.4530   45.9010 C   0  0  0  0  0  0  0  0  0  0  0  0
   58.6260   31.0970   47.1740 N   0  0  0  0  0  0  0  0  0  0  0  0
   58.9140   29.7490   47.6670 C   0  0  0  0  0  0  0  0  0  0  0  0
   57.8200   32.2830   50.2560 C   0  0  0  0  0  0  0  0  0  0  0  0
   58.0500   32.3730   51.6360 C   0  0  0  0  0  0  0  0  0  0  0  0
   57.0190   32.3190   52.5140 F   0  0  0  0  0  0  0  0  0  0  0  0
   59.3600   32.5270   52.0770 C   0  0  0  0  0  0  0  0  0  0  0  0
   59.9220   32.7120   53.6490 S   0  0  0  0  0  0  0  0  0  0  0  0
   61.5270   32.8560   53.1320 C   0  0  0  0  0  0  0  0  0  0  0  0
   62.6820   33.1310   54.0320 C   0  0  0  0  0  0  0  0  0  0  0  0
   61.6390   32.7890   51.7840 N   0  0  0  0  0  0  0  0  0  0  0  0
   60.4290   32.5890   51.1990 C   0  0  0  0  0  0  0  0  0  0  0  0
   62.1710   31.4330   48.6270 C   0  0  0  0  0  0  0  0  0  0  0  0
   63.3610   31.7980   47.7290 C   0  0  0  0  0  0  0  0  0  0  0  0
   66.6361   34.3418   52.6671 H   0  0  0  0  0  0  0  0  0  0  0  0
   66.8951   33.4815   51.1117 H   0  0  0  0  0  0  0  0  0  0  0  0
   66.4277   35.2159   51.1117 H   0  0  0  0  0  0  0  0  0  0  0  0
   64.5095   33.6003   52.6260 H   0  0  0  0  0  0  0  0  0  0  0  0
   64.2739   34.7115   51.1746 H   0  0  0  0  0  0  0  0  0  0  0  0
   63.4400   32.7690   50.5790 H   0  0  0  0  0  0  0  0  0  0  0  0
   64.4444   31.5282   52.4849 H   0  0  0  0  0  0  0  0  0  0  0  0
   63.9160   30.6932   50.9284 H   0  0  0  0  0  0  0  0  0  0  0  0
   66.4267   30.5079   52.2609 H   0  0  0  0  0  0  0  0  0  0  0  0
   65.9013   29.7642   50.7125 H   0  0  0  0  0  0  0  0  0  0  0  0
   66.6820   31.3820   50.7125 H   0  0  0  0  0  0  0  0  0  0  0  0
   65.8875   33.5190   49.3948 H   0  0  0  0  0  0  0  0  0  0  0  0
   65.5161   31.7401   49.1779 H   0  0  0  0  0  0  0  0  0  0  0  0
   64.6962   33.4256   47.3604 H   0  0  0  0  0  0  0  0  0  0  0  0
   63.2475   34.3828   49.7231 H   0  0  0  0  0  0  0  0  0  0  0  0
   63.4182   35.1041   48.0546 H   0  0  0  0  0  0  0  0  0  0  0  0
   61.0372   34.6864   48.7816 H   0  0  0  0  0  0  0  0  0  0  0  0
   61.5177   33.8909   47.2486 H   0  0  0  0  0  0  0  0  0  0  0  0
   58.2061   34.3923   47.3744 H   0  0  0  0  0  0  0  0  0  0  0  0
   57.6800   34.5194   44.5560 H   0  0  0  0  0  0  0  0  0  0  0  0
   57.5236   33.0918   42.4845 H   0  0  0  0  0  0  0  0  0  0  0  0
   57.9078   30.6222   42.6278 H   0  0  0  0  0  0  0  0  0  0  0  0
   58.4498   29.5499   44.8428 H   0  0  0  0  0  0  0  0  0  0  0  0
   58.9132   29.7529   48.7670 H   0  0  0  0  0  0  0  0  0  0  0  0
   58.1443   29.0529   47.3022 H   0  0  0  0  0  0  0  0  0  0  0  0
   59.9009   29.4283   47.3022 H   0  0  0  0  0  0  0  0  0  0  0  0
   56.7928   32.1598   49.8824 H   0  0  0  0  0  0  0  0  0  0  0  0
   62.3568   33.0536   55.0800 H   0  0  0  0  0  0  0  0  0  0  0  0
   63.4790   32.3975   53.8403 H   0  0  0  0  0  0  0  0  0  0  0  0
   63.0630   34.1450   53.8403 H   0  0  0  0  0  0  0  0  0  0  0  0
   62.5504   31.0276   49.5766 H   0  0  0  0  0  0  0  0  0  0  0  0
   61.5569   30.6869   48.1014 H   0  0  0  0  0  0  0  0  0  0  0  0
   64.0651   30.9530   47.7162 H   0  0  0  0  0  0  0  0  0  0  0  0
   62.9674   32.0127   46.7245 H   0  0  0  0  0  0  0  0  0  0  0  0
  1  2  1  0
  2  3  1  0
  3  4  1  0
  4  5  1  0
  3  6  1  0
  6  7  1  0
  7  8  1  0
  8  9  1  0
  9 10  1  0
 10 11  1  0
 11 12  1  0
 12 13  1  0
 13 14  2  0
 14 15  1  0
 15 16  2  0
 16 17  1  0
 17 18  2  0
 18 19  1  0
 19 20  2  0
 20 21  1  0
 21 22  1  0
 12 23  2  0
 23 24  1  0
 24 25  1  0
 24 26  2  0
 26 27  1  0
 27 28  1  0
 28 29  1  0
 28 30  2  0
 30 31  1  0
 10 32  1  0
 32 33  1  0
 33  7  1  0
 31 11  2  0
 21 13  1  0
 31 26  1  0
 20 15  1  0
  1 34  1  0
  1 35  1  0
  1 36  1  0
  2 37  1  0
  2 38  1  0
  3 39  1  0
  4 40  1  0
  4 41  1  0
  5 42  1  0
  5 43  1  0
  5 44  1  0
  6 45  1  0
  6 46  1  0
  7 47  1  0
  8 48  1  0
  8 49  1  0
  9 50  1  0
  9 51  1  0
 14 52  1  0
 16 53  1  0
 17 54  1  0
 18 55  1  0
 19 56  1  0
 22 57  1  0
 22 58  1  0
 22 59  1  0
 23 60  1  0
 29 61  1  0
 29 62  1  0
 29 63  1  0
 32 64  1  0
 32 65  1  0
 33 66  1  0
 33 67  1  0
M  CHG  1   3   1
M  END
>  <UniqueID>  (29) 
28

>  <SMILES>  (29) 
CC[NH+](CC)CC1CCN(c2c(-c3cc4ccccc4n3C)cc(F)c3sc(C)nc23)CC1

>  <Energy>  (29) 
159.68349797280686

>  <Genealogy>  (29) 
CC[NH+](CC)CC1CCN(c2c(-c3cc4ccccc4n3C)cc(F)c3sc(C)nc23)CC1 (protonated)
CC[NH+](CC)CC1CCN(c2c(-c3cc4ccccc4n3C)cc(F)c3sc(C)nc23)CC1 (3D coordinates assigned)
CC[NH+](CC)CC1CCN(c2c(-c3cc4ccccc4n3C)cc(F)c3sc(C)nc23)CC1 (nonaromatic ring conformer: 159.68349797280686 kcal/mol)

>  <smiles>  (29) 
CCN(CC)CC1CCN(c2c(-c3cc4ccccc4n3C)cc(F)c3sc(C)nc23)CC1

>  <score_type>  (29) 
oracle

>  <origin>  (29) 
adg

>  <m_score__min__energy>  (29) 
-6.5999999999999996

>  <m_primary>  (29) 
energy

$$$$
29:0
     RDKit          3D

 49 52  0  0  0  0  0  0  0  0999 V2000
   57.7750   27.9770   43.4480 C   0  0  0  0  0  0  0  0  0  0  0  0
   57.0210   29.1840   43.3910 O   0  0  0  0  0  0  0  0  0  0  0  0
   57.3990   30.3890   44.0050 C   0  0  0  0  0  0  0  0  0  0  0  0
   57.7640   30.4520   45.3640 C   0  0  0  0  0  0  0  0  0  0  0  0
   58.1340   31.6740   45.9390 C   0  0  0  0  0  0  0  0  0  0  0  0
   58.5040   31.7660   47.2840 C   0  0  0  0  0  0  0  0  0  0  0  0
   58.8850   33.0020   47.8140 C   0  0  0  0  0  0  0  0  0  0  0  0
   59.2660   33.1020   49.2380 C   0  0  0  0  0  0  0  0  0  0  0  0
   58.4570   32.7020   50.2380 N   0  0  0  0  0  0  0  0  0  0  0  0
   59.1320   32.9530   51.3730 C   0  0  0  0  0  0  0  0  0  0  0  0
   60.3560   33.4970   51.0470 C   0  0  0  0  0  0  0  0  0  0  0  0
   60.4440   33.5870   49.7020 N   0  0  0  0  0  0  0  0  0  0  0  0
   61.6230   34.0130   48.9290 C   0  0  0  0  0  0  0  0  0  0  0  0
   62.0350   32.9130   47.9230 C   0  0  0  0  0  0  0  0  0  0  0  0
   63.4610   33.1460   47.4180 C   0  0  0  0  0  0  0  0  0  0  0  0
   64.4960   33.0960   48.5610 C   0  0  0  0  0  0  0  0  0  0  0  0
   63.8990   33.3990   49.9500 C   0  0  0  0  0  0  0  0  0  0  0  0
   62.7770   34.4420   49.8730 C   0  0  0  0  0  0  0  0  0  0  0  0
   58.8440   34.1330   46.9760 C   0  0  0  0  0  0  0  0  0  0  0  0
   59.1300   35.2750   47.4260 O   0  0  0  0  0  0  0  0  0  0  0  0
   58.4860   34.0100   45.7000 O   0  0  0  0  0  0  0  0  0  0  0  0
   58.1410   32.8460   45.1580 C   0  0  0  0  0  0  0  0  0  0  0  0
   57.7790   32.7850   43.8100 C   0  0  0  0  0  0  0  0  0  0  0  0
   57.4080   31.5590   43.2260 C   0  0  0  0  0  0  0  0  0  0  0  0
   57.0390   31.4610   41.8740 O   0  0  0  0  0  0  0  0  0  0  0  0
   57.4250   32.3860   40.8630 C   0  0  0  0  0  0  0  0  0  0  0  0
   57.9471   27.7015   44.4989 H   0  0  0  0  0  0  0  0  0  0  0  0
   57.2184   27.1728   42.9445 H   0  0  0  0  0  0  0  0  0  0  0  0
   58.7418   28.1245   42.9445 H   0  0  0  0  0  0  0  0  0  0  0  0
   57.7584   29.5379   45.9758 H   0  0  0  0  0  0  0  0  0  0  0  0
   58.4953   30.8700   47.9221 H   0  0  0  0  0  0  0  0  0  0  0  0
   57.5010   32.2900   50.1550 H   0  0  0  0  0  0  0  0  0  0  0  0
   58.7682   32.7569   52.3924 H   0  0  0  0  0  0  0  0  0  0  0  0
   61.1318   33.8063   51.7629 H   0  0  0  0  0  0  0  0  0  0  0  0
   61.3653   34.9027   48.3356 H   0  0  0  0  0  0  0  0  0  0  0  0
   61.9837   31.9327   48.4193 H   0  0  0  0  0  0  0  0  0  0  0  0
   61.3473   32.9438   47.0650 H   0  0  0  0  0  0  0  0  0  0  0  0
   63.7081   32.3675   46.6812 H   0  0  0  0  0  0  0  0  0  0  0  0
   63.5016   34.1487   46.9674 H   0  0  0  0  0  0  0  0  0  0  0  0
   64.9387   32.0893   48.5851 H   0  0  0  0  0  0  0  0  0  0  0  0
   65.2423   33.8772   48.3540 H   0  0  0  0  0  0  0  0  0  0  0  0
   63.4919   32.4688   50.3731 H   0  0  0  0  0  0  0  0  0  0  0  0
   64.7001   33.8051   50.5851 H   0  0  0  0  0  0  0  0  0  0  0  0
   62.3676   34.5934   50.8827 H   0  0  0  0  0  0  0  0  0  0  0  0
   63.2115   35.3673   49.4667 H   0  0  0  0  0  0  0  0  0  0  0  0
   57.7839   33.7010   43.2010 H   0  0  0  0  0  0  0  0  0  0  0  0
   57.8080   33.3039   41.3328 H   0  0  0  0  0  0  0  0  0  0  0  0
   58.2115   31.9385   40.2375 H   0  0  0  0  0  0  0  0  0  0  0  0
   56.5537   32.6303   40.2375 H   0  0  0  0  0  0  0  0  0  0  0  0
  1  2  1  0
  2  3  1  0
  3  4  2  0
  4  5  1  0
  5  6  1  0
  6  7  2  0
  7  8  1  0
  8  9  2  0
  9 10  1  0
 10 11  2  0
 11 12  1  0
 12 13  1  0
 13 14  1  0
 14 15  1  0
 15 16  1  0
 16 17  1  0
 17 18  1  0
  7 19  1  0
 19 20  2  0
 19 21  1  0
 21 22  1  0
 22 23  1  0
 23 24  2  0
 24 25  1  0
 25 26  1  0
 24  3  1  0
 22  5  2  0
 12  8  1  0
 18 13  1  0
  1 27  1  0
  1 28  1  0
  1 29  1  0
  4 30  1  0
  6 31  1  0
  9 32  1  0
 10 33  1  0
 11 34  1  0
 13 35  1  0
 14 36  1  0
 14 37  1  0
 15 38  1  0
 15 39  1  0
 16 40  1  0
 16 41  1  0
 17 42  1  0
 17 43  1  0
 18 44  1  0
 18 45  1  0
 23 46  1  0
 26 47  1  0
 26 48  1  0
 26 49  1  0
M  CHG  1   9   1
M  END
>  <UniqueID>  (30) 
29

>  <SMILES>  (30) 
COc1cc2cc(-c3[nH+]ccn3C3CCCCC3)c(=O)oc2cc1OC

>  <Energy>  (30) 
94.06929527633544

>  <Genealogy>  (30) 
COc1cc2cc(-c3[nH+]ccn3C3CCCCC3)c(=O)oc2cc1OC (protonated)
COc1cc2cc(-c3[nH+]ccn3C3CCCCC3)c(=O)oc2cc1OC (3D coordinates assigned)
COc1cc2cc(-c3[nH+]ccn3C3CCCCC3)c(=O)oc2cc1OC (nonaromatic ring conformer: 94.06929527633544 kcal/mol)

>  <smiles>  (30) 
COc1cc2cc(-c3nccn3C3CCCCC3)c(=O)oc2cc1OC

>  <score_type>  (30) 
oracle

>  <origin>  (30) 
adg

>  <m_score__min__energy>  (30) 
-6.3899999999999997

>  <m_primary>  (30) 
energy

$$$$
30:0
     RDKit          3D

 56 59  0  0  0  0  0  0  0  0999 V2000
   62.6280   31.0800   47.9610 C   0  0  0  0  0  0  0  0  0  0  0  0
   61.8940   30.8090   46.7720 O   0  0  0  0  0  0  0  0  0  0  0  0
   60.7890   29.9470   46.6950 C   0  0  0  0  0  0  0  0  0  0  0  0
   60.8800   28.7060   47.3220 C   0  0  0  0  0  0  0  0  0  0  0  0
   59.8220   27.8040   47.2680 C   0  0  0  0  0  0  0  0  0  0  0  0
   58.6430   28.1330   46.5820 C   0  0  0  0  0  0  0  0  0  0  0  0
   57.6000   27.2010   46.5220 C   0  0  0  0  0  0  0  0  0  0  0  0
   56.4320   27.4980   45.8290 C   0  0  0  0  0  0  0  0  0  0  0  0
   56.2780   28.7310   45.1990 C   0  0  0  0  0  0  0  0  0  0  0  0
   55.0990   28.9800   44.5020 O   0  0  0  0  0  0  0  0  0  0  0  0
   57.2970   29.7090   45.2630 C   0  0  0  0  0  0  0  0  0  0  0  0
   57.0460   31.0250   44.5460 C   0  0  0  0  0  0  0  0  0  0  0  0
   57.9060   32.0840   45.1140 N   0  0  0  0  0  0  0  0  0  0  0  0
   57.3470   32.6260   46.3720 C   0  0  0  0  0  0  0  0  0  0  0  0
   58.0540   33.9280   46.8090 C   0  0  0  0  0  0  0  0  0  0  0  0
   59.3640   34.1060   46.1510 N   0  0  0  0  0  0  0  0  0  0  0  0
   60.3650   33.1280   46.6320 C   0  0  0  0  0  0  0  0  0  0  0  0
   60.6750   33.3650   48.0910 C   0  0  0  0  0  0  0  0  0  0  0  0
   61.7320   34.2260   48.4290 C   0  0  0  0  0  0  0  0  0  0  0  0
   62.0560   34.4590   49.7660 C   0  0  0  0  0  0  0  0  0  0  0  0
   61.3320   33.8330   50.7800 C   0  0  0  0  0  0  0  0  0  0  0  0
   60.2810   32.9700   50.4600 C   0  0  0  0  0  0  0  0  0  0  0  0
   59.9420   32.7250   49.1140 C   0  0  0  0  0  0  0  0  0  0  0  0
   58.8950   31.8550   48.7650 O   0  0  0  0  0  0  0  0  0  0  0  0
   58.6460   30.5960   49.3820 C   0  0  0  0  0  0  0  0  0  0  0  0
   59.2280   34.1230   44.6720 C   0  0  0  0  0  0  0  0  0  0  0  0
   58.1350   33.1680   44.1470 C   0  0  0  0  0  0  0  0  0  0  0  0
   58.5130   29.3970   45.9460 C   0  0  0  0  0  0  0  0  0  0  0  0
   59.6080   30.2920   46.0090 C   0  0  0  0  0  0  0  0  0  0  0  0
   62.0044   30.8497   48.8374 H   0  0  0  0  0  0  0  0  0  0  0  0
   63.5345   30.4573   47.9822 H   0  0  0  0  0  0  0  0  0  0  0  0
   62.9124   32.1424   47.9822 H   0  0  0  0  0  0  0  0  0  0  0  0
   61.7978   28.4366   47.8653 H   0  0  0  0  0  0  0  0  0  0  0  0
   59.9103   26.8272   47.7660 H   0  0  0  0  0  0  0  0  0  0  0  0
   57.7052   26.2288   47.0257 H   0  0  0  0  0  0  0  0  0  0  0  0
   55.6234   26.7540   45.7777 H   0  0  0  0  0  0  0  0  0  0  0  0
   57.2737   30.9059   43.4764 H   0  0  0  0  0  0  0  0  0  0  0  0
   55.9913   31.3098   44.6744 H   0  0  0  0  0  0  0  0  0  0  0  0
   56.2775   32.8359   46.2234 H   0  0  0  0  0  0  0  0  0  0  0  0
   57.5007   31.8758   47.1617 H   0  0  0  0  0  0  0  0  0  0  0  0
   57.4107   34.7825   46.5521 H   0  0  0  0  0  0  0  0  0  0  0  0
   58.2291   33.8666   47.8932 H   0  0  0  0  0  0  0  0  0  0  0  0
   59.9665   32.1104   46.5070 H   0  0  0  0  0  0  0  0  0  0  0  0
   61.2891   33.2469   46.0473 H   0  0  0  0  0  0  0  0  0  0  0  0
   62.3088   34.7204   47.6335 H   0  0  0  0  0  0  0  0  0  0  0  0
   62.8837   35.1374   50.0204 H   0  0  0  0  0  0  0  0  0  0  0  0
   61.5887   34.0189   51.8333 H   0  0  0  0  0  0  0  0  0  0  0  0
   59.7140   32.4782   51.2642 H   0  0  0  0  0  0  0  0  0  0  0  0
   58.6691   30.7126   50.4756 H   0  0  0  0  0  0  0  0  0  0  0  0
   57.6572   30.2257   49.0735 H   0  0  0  0  0  0  0  0  0  0  0  0
   59.4194   29.8772   49.0735 H   0  0  0  0  0  0  0  0  0  0  0  0
   58.9779   35.1466   44.3564 H   0  0  0  0  0  0  0  0  0  0  0  0
   60.1863   33.7819   44.2534 H   0  0  0  0  0  0  0  0  0  0  0  0
   57.2003   33.7294   44.0013 H   0  0  0  0  0  0  0  0  0  0  0  0
   58.4635   32.7348   43.1908 H   0  0  0  0  0  0  0  0  0  0  0  0
   59.5355   31.2720   45.5146 H   0  0  0  0  0  0  0  0  0  0  0  0
  1  2  1  0
  2  3  1  0
  3  4  2  0
  4  5  1  0
  5  6  2  0
  6  7  1  0
  7  8  2  0
  8  9  1  0
  9 10  1  0
  9 11  2  0
 11 12  1  0
 12 13  1  0
 13 14  1  0
 14 15  1  0
 15 16  1  0
 16 17  1  0
 17 18  1  0
 18 19  2  0
 19 20  1  0
 20 21  2  0
 21 22  1  0
 22 23  2  0
 23 24  1  0
 24 25  1  0
 16 26  1  0
 26 27  1  0
 11 28  1  0
 28 29  2  0
 29  3  1  0
 28  6  1  0
 27 13  1  0
 23 18  1  0
  1 30  1  0
  1 31  1  0
  1 32  1  0
  4 33  1  0
  5 34  1  0
  7 35  1  0
  8 36  1  0
 12 37  1  0
 12 38  1  0
 14 39  1  0
 14 40  1  0
 15 41  1  0
 15 42  1  0
 17 43  1  0
 17 44  1  0
 19 45  1  0
 20 46  1  0
 21 47  1  0
 22 48  1  0
 25 49  1  0
 25 50  1  0
 25 51  1  0
 26 52  1  0
 26 53  1  0
 27 54  1  0
 27 55  1  0
 29 56  1  0
M  CHG  1  10  -1
M  END
>  <UniqueID>  (31) 
30

>  <SMILES>  (31) 
COc1ccc2ccc([O-])c(CN3CCN(Cc4ccccc4OC)CC3)c2c1

>  <Energy>  (31) 
77.06039954205038

>  <Genealogy>  (31) 
COc1ccc2ccc([O-])c(CN3CCN(Cc4ccccc4OC)CC3)c2c1 (protonated)
COc1ccc2ccc([O-])c(CN3CCN(Cc4ccccc4OC)CC3)c2c1 (3D coordinates assigned)
COc1ccc2ccc([O-])c(CN3CCN(Cc4ccccc4OC)CC3)c2c1 (nonaromatic ring conformer: 77.06039954205038 kcal/mol)

>  <smiles>  (31) 
COc1ccc2ccc(O)c(CN3CCN(Cc4ccccc4OC)CC3)c2c1

>  <score_type>  (31) 
oracle

>  <origin>  (31) 
adg

>  <m_score__min__energy>  (31) 
-10.74

>  <m_primary>  (31) 
energy

$$$$
31:0
     RDKit          3D

 50 54  0  0  0  0  0  0  0  0999 V2000
   57.8960   34.1500   45.2430 C   0  0  0  0  0  0  0  0  0  0  0  0
   59.2690   35.3360   45.3680 S   0  0  0  0  0  0  0  0  0  0  0  0
   60.1840   34.3380   46.5430 C   0  0  0  0  0  0  0  0  0  0  0  0
   59.6690   34.1180   47.8260 C   0  0  0  0  0  0  0  0  0  0  0  0
   60.3770   33.3320   48.7400 C   0  0  0  0  0  0  0  0  0  0  0  0
   61.5960   32.7450   48.3690 C   0  0  0  0  0  0  0  0  0  0  0  0
   62.3280   31.9070   49.3350 C   0  0  0  0  0  0  0  0  0  0  0  0
   63.5990   32.2720   49.6410 N   0  0  0  0  0  0  0  0  0  0  0  0
   64.3550   31.5840   50.5320 C   0  0  0  0  0  0  0  0  0  0  0  0
   63.8060   30.4620   51.1700 C   0  0  0  0  0  0  0  0  0  0  0  0
   64.5910   29.7520   52.0950 C   0  0  0  0  0  0  0  0  0  0  0  0
   65.8630   30.1470   52.3660 N   0  0  0  0  0  0  0  0  0  0  0  0
   66.4210   31.2340   51.7620 C   0  0  0  0  0  0  0  0  0  0  0  0
   67.7380   31.6160   52.0670 C   0  0  0  0  0  0  0  0  0  0  0  0
   68.3090   32.7300   51.4480 C   0  0  0  0  0  0  0  0  0  0  0  0
   67.5750   33.4730   50.5220 C   0  0  0  0  0  0  0  0  0  0  0  0
   66.2630   33.1070   50.2070 C   0  0  0  0  0  0  0  0  0  0  0  0
   65.6730   31.9850   50.8220 C   0  0  0  0  0  0  0  0  0  0  0  0
   62.4840   30.0920   50.8650 C   0  0  0  0  0  0  0  0  0  0  0  0
   61.9720   29.0940   51.4460 O   0  0  0  0  0  0  0  0  0  0  0  0
   61.7530   30.8140   49.9500 N   0  0  0  0  0  0  0  0  0  0  0  0
   60.3430   30.4500   49.6740 C   0  0  0  0  0  0  0  0  0  0  0  0
   60.2390   29.5840   48.4440 C   0  0  0  0  0  0  0  0  0  0  0  0
   60.0200   30.1650   47.1840 C   0  0  0  0  0  0  0  0  0  0  0  0
   59.9420   29.3630   46.0420 C   0  0  0  0  0  0  0  0  0  0  0  0
   60.0750   27.9760   46.1490 C   0  0  0  0  0  0  0  0  0  0  0  0
   60.2810   27.3880   47.3990 C   0  0  0  0  0  0  0  0  0  0  0  0
   60.3560   28.1860   48.5450 C   0  0  0  0  0  0  0  0  0  0  0  0
   62.1190   32.9830   47.0890 C   0  0  0  0  0  0  0  0  0  0  0  0
   61.4110   33.7710   46.1770 C   0  0  0  0  0  0  0  0  0  0  0  0
   57.5652   33.8643   46.2524 H   0  0  0  0  0  0  0  0  0  0  0  0
   57.0590   34.6139   44.7005 H   0  0  0  0  0  0  0  0  0  0  0  0
   58.2333   33.2545   44.7005 H   0  0  0  0  0  0  0  0  0  0  0  0
   58.7061   34.5641   48.1153 H   0  0  0  0  0  0  0  0  0  0  0  0
   59.9773   33.1734   49.7525 H   0  0  0  0  0  0  0  0  0  0  0  0
   64.1729   28.8705   52.6031 H   0  0  0  0  0  0  0  0  0  0  0  0
   66.4150   29.5930   53.0600 H   0  0  0  0  0  0  0  0  0  0  0  0
   68.3218   31.0353   52.7963 H   0  0  0  0  0  0  0  0  0  0  0  0
   69.3410   33.0230   51.6911 H   0  0  0  0  0  0  0  0  0  0  0  0
   68.0305   34.3497   50.0383 H   0  0  0  0  0  0  0  0  0  0  0  0
   65.6895   33.6968   49.4768 H   0  0  0  0  0  0  0  0  0  0  0  0
   59.9381   29.9001   50.5363 H   0  0  0  0  0  0  0  0  0  0  0  0
   59.7701   31.3731   49.5020 H   0  0  0  0  0  0  0  0  0  0  0  0
   59.9094   31.2559   47.0957 H   0  0  0  0  0  0  0  0  0  0  0  0
   59.7757   29.8243   45.0574 H   0  0  0  0  0  0  0  0  0  0  0  0
   60.0174   27.3471   45.2484 H   0  0  0  0  0  0  0  0  0  0  0  0
   60.3844   26.2960   47.4822 H   0  0  0  0  0  0  0  0  0  0  0  0
   60.5071   27.7185   49.5292 H   0  0  0  0  0  0  0  0  0  0  0  0
   63.0882   32.5486   46.8026 H   0  0  0  0  0  0  0  0  0  0  0  0
   61.8183   33.9460   45.1703 H   0  0  0  0  0  0  0  0  0  0  0  0
  1  2  1  0
  2  3  1  0
  3  4  2  0
  4  5  1  0
  5  6  2  0
  6  7  1  0
  7  8  2  0
  8  9  1  0
  9 10  2  0
 10 11  1  0
 11 12  2  0
 12 13  1  0
 13 14  2  0
 14 15  1  0
 15 16  2  0
 16 17  1  0
 17 18  2  0
 10 19  1  0
 19 20  2  0
 19 21  1  0
 21 22  1  0
 22 23  1  0
 23 24  2  0
 24 25  1  0
 25 26  2  0
 26 27  1  0
 27 28  2  0
  6 29  1  0
 29 30  2  0
 30  3  1  0
 21  7  1  0
 28 23  1  0
 18  9  1  0
 18 13  1  0
  1 31  1  0
  1 32  1  0
  1 33  1  0
  4 34  1  0
  5 35  1  0
 11 36  1  0
 12 37  1  0
 14 38  1  0
 15 39  1  0
 16 40  1  0
 17 41  1  0
 22 42  1  0
 22 43  1  0
 24 44  1  0
 25 45  1  0
 26 46  1  0
 27 47  1  0
 28 48  1  0
 29 49  1  0
 30 50  1  0
M  CHG  1  12   1
M  END
>  <UniqueID>  (32) 
31

>  <SMILES>  (32) 
CSc1ccc(-c2nc3c(c[nH+]c4ccccc43)c(=O)n2Cc2ccccc2)cc1

>  <Energy>  (32) 
70.42749580627937

>  <Genealogy>  (32) 
CSc1ccc(-c2nc3c(c[nH+]c4ccccc43)c(=O)n2Cc2ccccc2)cc1 (protonated)
CSc1ccc(-c2nc3c(c[nH+]c4ccccc43)c(=O)n2Cc2ccccc2)cc1 (3D coordinates assigned)
CSc1ccc(-c2nc3c(c[nH+]c4ccccc43)c(=O)n2Cc2ccccc2)cc1 (optimized conformer: 70.42749580627937 kcal/mol)

>  <smiles>  (32) 
CSc1ccc(-c2nc3c(cnc4ccccc43)c(=O)n2Cc2ccccc2)cc1

>  <score_type>  (32) 
oracle

>  <origin>  (32) 
adg

>  <m_score__min__energy>  (32) 
-7.0599999999999996

>  <m_primary>  (32) 
energy

$$$$
32:0
     RDKit          3D

 29 31  0  0  0  0  0  0  0  0999 V2000
   58.4790   25.6330   46.4970 C   0  0  0  0  0  0  0  0  0  0  0  0
   58.2980   27.0590   46.2050 N   0  0  0  0  0  0  0  0  0  0  0  0
   57.3930   27.4390   45.2440 C   0  0  0  0  0  0  0  0  0  0  0  0
   57.2400   28.7920   44.9650 C   0  0  0  0  0  0  0  0  0  0  0  0
   56.4380   29.3520   44.0450 N   0  0  0  0  0  0  0  0  0  0  0  0
   56.6590   30.6840   44.1200 C   0  0  0  0  0  0  0  0  0  0  0  0
   57.6050   30.9670   45.1050 C   0  0  0  0  0  0  0  0  0  0  0  0
   58.0940   32.3110   45.4820 C   0  0  0  0  0  0  0  0  0  0  0  0
   58.1860   32.6710   46.8380 C   0  0  0  0  0  0  0  0  0  0  0  0
   58.6570   33.9360   47.2030 C   0  0  0  0  0  0  0  0  0  0  0  0
   59.0500   34.8460   46.2200 C   0  0  0  0  0  0  0  0  0  0  0  0
   58.9790   34.4910   44.8710 C   0  0  0  0  0  0  0  0  0  0  0  0
   58.5080   33.2280   44.5010 C   0  0  0  0  0  0  0  0  0  0  0  0
   57.9700   29.7370   45.6290 C   0  0  0  0  0  0  0  0  0  0  0  0
   58.9180   29.3730   46.5800 C   0  0  0  0  0  0  0  0  0  0  0  0
   59.0670   28.0010   46.8610 C   0  0  0  0  0  0  0  0  0  0  0  0
   59.9210   27.6440   47.7190 O   0  0  0  0  0  0  0  0  0  0  0  0
   58.4982   25.4813   47.5863 H   0  0  0  0  0  0  0  0  0  0  0  0
   57.6462   25.0610   46.0618 H   0  0  0  0  0  0  0  0  0  0  0  0
   59.4282   25.2872   46.0618 H   0  0  0  0  0  0  0  0  0  0  0  0
   56.7998   26.6858   44.7047 H   0  0  0  0  0  0  0  0  0  0  0  0
   55.7820   28.8620   43.3960 H   0  0  0  0  0  0  0  0  0  0  0  0
   56.1623   31.4385   43.4922 H   0  0  0  0  0  0  0  0  0  0  0  0
   57.8858   31.9536   47.6160 H   0  0  0  0  0  0  0  0  0  0  0  0
   58.7179   34.2143   48.2655 H   0  0  0  0  0  0  0  0  0  0  0  0
   59.4156   35.8427   46.5079 H   0  0  0  0  0  0  0  0  0  0  0  0
   59.2945   35.2071   44.0979 H   0  0  0  0  0  0  0  0  0  0  0  0
   58.4612   32.9508   43.4375 H   0  0  0  0  0  0  0  0  0  0  0  0
   59.5292   30.1295   47.0939 H   0  0  0  0  0  0  0  0  0  0  0  0
  1  2  1  0
  2  3  1  0
  3  4  2  0
  4  5  1  0
  5  6  1  0
  6  7  2  0
  7  8  1  0
  8  9  2  0
  9 10  1  0
 10 11  2  0
 11 12  1  0
 12 13  2  0
  7 14  1  0
 14 15  2  0
 15 16  1  0
 16 17  2  0
 16  2  1  0
 14  4  1  0
 13  8  1  0
  1 18  1  0
  1 19  1  0
  1 20  1  0
  3 21  1  0
  5 22  1  0
  6 23  1  0
  9 24  1  0
 10 25  1  0
 11 26  1  0
 12 27  1  0
 13 28  1  0
 15 29  1  0
M  END
>  <UniqueID>  (33) 
32

>  <SMILES>  (33) 
Cn1cc2[nH]cc(-c3ccccc3)c2cc1=O

>  <Energy>  (33) 
71.63594826180211

>  <Genealogy>  (33) 
Cn1cc2[nH]cc(-c3ccccc3)c2cc1=O (3D coordinates assigned)
Cn1cc2[nH]cc(-c3ccccc3)c2cc1=O (optimized conformer: 71.63594826180211 kcal/mol)

>  <smiles>  (33) 
Cn1cc2[nH]cc(-c3ccccc3)c2cc1=O

>  <score_type>  (33) 
oracle

>  <origin>  (33) 
adg

>  <m_score__min__energy>  (33) 
-6.3099999999999996

>  <m_primary>  (33) 
energy

$$$$
33:0
     RDKit          3D

 48 51  0  0  0  0  0  0  0  0999 V2000
   59.5950   35.3340   46.3160 C   0  0  0  0  0  0  0  0  0  0  0  0
   59.1940   34.9290   44.8990 C   0  0  0  0  0  0  0  0  0  0  0  0
   57.7350   34.4470   44.8530 C   0  0  0  0  0  0  0  0  0  0  0  0
   57.4250   33.4320   45.9630 C   0  0  0  0  0  0  0  0  0  0  0  0
   57.7250   32.0240   45.5230 C   0  0  0  0  0  0  0  0  0  0  0  0
   56.8080   31.2730   44.8590 N   0  0  0  0  0  0  0  0  0  0  0  0
   57.4430   30.1020   44.6780 C   0  0  0  0  0  0  0  0  0  0  0  0
   56.9590   28.9700   44.0260 C   0  0  0  0  0  0  0  0  0  0  0  0
   57.8100   27.8520   43.9350 C   0  0  0  0  0  0  0  0  0  0  0  0
   59.1060   27.8920   44.4950 C   0  0  0  0  0  0  0  0  0  0  0  0
   59.5640   29.0500   45.1480 C   0  0  0  0  0  0  0  0  0  0  0  0
   58.6960   30.1470   45.2160 C   0  0  0  0  0  0  0  0  0  0  0  0
   58.8940   31.3600   45.7650 N   0  0  0  0  0  0  0  0  0  0  0  0
   60.1260   31.8790   46.3720 C   0  0  0  0  0  0  0  0  0  0  0  0
   59.8880   32.2330   47.8190 C   0  0  0  0  0  0  0  0  0  0  0  0
   60.6700   33.2160   48.4420 C   0  0  0  0  0  0  0  0  0  0  0  0
   60.4290   33.5810   49.7690 C   0  0  0  0  0  0  0  0  0  0  0  0
   59.3970   32.9690   50.5040 C   0  0  0  0  0  0  0  0  0  0  0  0
   59.1330   33.3660   51.8660 N   0  0  0  0  0  0  0  0  0  0  0  0
   59.2840   32.6020   52.9720 C   0  0  0  0  0  0  0  0  0  0  0  0
   58.9140   33.3460   54.0780 C   0  0  0  0  0  0  0  0  0  0  0  0
   58.5400   34.5760   53.5700 C   0  0  0  0  0  0  0  0  0  0  0  0
   58.6850   34.5590   52.2320 N   0  0  0  0  0  0  0  0  0  0  0  0
   58.6280   31.9680   49.8830 C   0  0  0  0  0  0  0  0  0  0  0  0
   58.8740   31.6010   48.5560 C   0  0  0  0  0  0  0  0  0  0  0  0
   59.0143   34.7475   47.0432 H   0  0  0  0  0  0  0  0  0  0  0  0
   60.6680   35.1412   46.4627 H   0  0  0  0  0  0  0  0  0  0  0  0
   59.3915   36.4050   46.4627 H   0  0  0  0  0  0  0  0  0  0  0  0
   59.3070   35.7963   44.2319 H   0  0  0  0  0  0  0  0  0  0  0  0
   59.8449   34.1039   44.5741 H   0  0  0  0  0  0  0  0  0  0  0  0
   57.0708   35.3158   44.9716 H   0  0  0  0  0  0  0  0  0  0  0  0
   57.5737   33.9495   43.8853 H   0  0  0  0  0  0  0  0  0  0  0  0
   58.0378   33.6689   46.8452 H   0  0  0  0  0  0  0  0  0  0  0  0
   56.3532   33.4980   46.2013 H   0  0  0  0  0  0  0  0  0  0  0  0
   55.9464   28.9503   43.5968 H   0  0  0  0  0  0  0  0  0  0  0  0
   57.4632   26.9415   43.4244 H   0  0  0  0  0  0  0  0  0  0  0  0
   59.7612   27.0116   44.4198 H   0  0  0  0  0  0  0  0  0  0  0  0
   60.5701   29.0929   45.5905 H   0  0  0  0  0  0  0  0  0  0  0  0
   60.9119   31.1118   46.3107 H   0  0  0  0  0  0  0  0  0  0  0  0
   60.4389   32.7832   45.8293 H   0  0  0  0  0  0  0  0  0  0  0  0
   61.4805   33.7042   47.8810 H   0  0  0  0  0  0  0  0  0  0  0  0
   61.0517   34.3538   50.2434 H   0  0  0  0  0  0  0  0  0  0  0  0
   59.6416   31.5619   52.9891 H   0  0  0  0  0  0  0  0  0  0  0  0
   58.9168   33.0284   55.1311 H   0  0  0  0  0  0  0  0  0  0  0  0
   58.1819   35.4303   54.1632 H   0  0  0  0  0  0  0  0  0  0  0  0
   58.4500   35.3480   51.5870 H   0  0  0  0  0  0  0  0  0  0  0  0
   57.8256   31.4692   50.4464 H   0  0  0  0  0  0  0  0  0  0  0  0
   58.2687   30.8116   48.0865 H   0  0  0  0  0  0  0  0  0  0  0  0
  1  2  1  0
  2  3  1  0
  3  4  1  0
  4  5  1  0
  5  6  2  0
  6  7  1  0
  7  8  2  0
  8  9  1  0
  9 10  2  0
 10 11  1  0
 11 12  2  0
 12 13  1  0
 13 14  1  0
 14 15  1  0
 15 16  2  0
 16 17  1  0
 17 18  2  0
 18 19  1  0
 19 20  1  0
 20 21  2  0
 21 22  1  0
 22 23  2  0
 18 24  1  0
 24 25  2  0
 13  5  1  0
 25 15  1  0
 12  7  1  0
 23 19  1  0
  1 26  1  0
  1 27  1  0
  1 28  1  0
  2 29  1  0
  2 30  1  0
  3 31  1  0
  3 32  1  0
  4 33  1  0
  4 34  1  0
  8 35  1  0
  9 36  1  0
 10 37  1  0
 11 38  1  0
 14 39  1  0
 14 40  1  0
 16 41  1  0
 17 42  1  0
 20 43  1  0
 21 44  1  0
 22 45  1  0
 23 46  1  0
 24 47  1  0
 25 48  1  0
M  CHG  1  23   1
M  END
>  <UniqueID>  (34) 
33

>  <SMILES>  (34) 
CCCCc1nc2ccccc2n1Cc1ccc(-n2ccc[nH+]2)cc1

>  <Energy>  (34) 
114.47022728720671

>  <Genealogy>  (34) 
CCCCc1nc2ccccc2n1Cc1ccc(-n2ccc[nH+]2)cc1 (protonated)
CCCCc1nc2ccccc2n1Cc1ccc(-n2ccc[nH+]2)cc1 (3D coordinates assigned)
CCCCc1nc2ccccc2n1Cc1ccc(-n2ccc[nH+]2)cc1 (optimized conformer: 114.47022728720671 kcal/mol)

>  <smiles>  (34) 
CCCCc1nc2ccccc2n1Cc1ccc(-n2cccn2)cc1

>  <score_type>  (34) 
oracle

>  <origin>  (34) 
adg

>  <m_score__min__energy>  (34) 
-6.8700000000000001

>  <m_primary>  (34) 
energy

$$$$
34:0
     RDKit          3D

 54 56  0  0  0  0  0  0  0  0999 V2000
   57.0760   25.5220   44.8960 C   0  0  0  0  0  0  0  0  0  0  0  0
   56.8930   26.5210   46.0250 C   0  0  0  0  0  0  0  0  0  0  0  0
   55.9610   27.5240   45.6350 O   0  0  0  0  0  0  0  0  0  0  0  0
   56.3470   28.6960   44.9740 C   0  0  0  0  0  0  0  0  0  0  0  0
   55.5470   29.6620   44.8550 O   0  0  0  0  0  0  0  0  0  0  0  0
   57.7260   28.7970   44.4020 C   0  0  0  0  0  0  0  0  0  0  0  0
   58.4940   29.8520   45.0940 N   0  0  0  0  0  0  0  0  0  0  0  0
   59.5260   29.5200   45.9550 C   0  0  0  0  0  0  0  0  0  0  0  0
   59.9970   27.8020   46.2600 S   0  0  0  0  0  0  0  0  0  0  0  0
   59.2690   27.7440   47.9370 C   0  0  0  0  0  0  0  0  0  0  0  0
   60.2350   28.2240   48.9860 C   0  0  0  0  0  0  0  0  0  0  0  0
   60.7850   27.3910   49.7570 O   0  0  0  0  0  0  0  0  0  0  0  0
   60.6270   29.5990   49.0720 N   0  0  0  0  0  0  0  0  0  0  0  0
   61.7630   30.0880   49.8500 C   0  0  0  0  0  0  0  0  0  0  0  0
   62.2470   31.4330   49.2980 C   0  0  1  0  0  0  0  0  0  0  0  0
   63.4600   31.9610   50.0520 C   0  0  0  0  0  0  0  0  0  0  0  0
   64.2090   32.7160   48.9970 C   0  0  0  0  0  0  0  0  0  0  0  0
   63.7370   32.0830   47.7010 C   0  0  0  0  0  0  0  0  0  0  0  0
   62.5940   31.2900   47.9380 O   0  0  0  0  0  0  0  0  0  0  0  0
   60.2010   30.4950   46.6300 N   0  0  0  0  0  0  0  0  0  0  0  0
   59.8650   31.7910   46.4470 C   0  0  0  0  0  0  0  0  0  0  0  0
   60.5640   33.1220   47.1880 S   0  0  0  0  0  0  0  0  0  0  0  0
   59.5470   34.2430   46.4410 C   0  0  0  0  0  0  0  0  0  0  0  0
   59.6310   35.7180   46.6660 C   0  0  0  0  0  0  0  0  0  0  0  0
   58.6490   33.5750   45.5910 C   0  0  0  0  0  0  0  0  0  0  0  0
   57.5990   34.2720   44.7690 C   0  0  0  0  0  0  0  0  0  0  0  0
   58.8420   32.1750   45.6110 C   0  0  0  0  0  0  0  0  0  0  0  0
   58.1360   31.1750   44.9270 C   0  0  0  0  0  0  0  0  0  0  0  0
   57.1740   31.4880   44.1740 O   0  0  0  0  0  0  0  0  0  0  0  0
   57.2591   24.5224   45.3170 H   0  0  0  0  0  0  0  0  0  0  0  0
   56.1673   25.4982   44.2766 H   0  0  0  0  0  0  0  0  0  0  0  0
   57.9342   25.8218   44.2766 H   0  0  0  0  0  0  0  0  0  0  0  0
   56.5160   25.9991   46.9169 H   0  0  0  0  0  0  0  0  0  0  0  0
   57.8602   26.9928   46.2529 H   0  0  0  0  0  0  0  0  0  0  0  0
   58.2413   27.8331   44.5258 H   0  0  0  0  0  0  0  0  0  0  0  0
   57.6519   29.0514   43.3344 H   0  0  0  0  0  0  0  0  0  0  0  0
   58.3743   28.3836   47.9584 H   0  0  0  0  0  0  0  0  0  0  0  0
   59.0146   26.6977   48.1617 H   0  0  0  0  0  0  0  0  0  0  0  0
   61.4565   30.2154   50.8987 H   0  0  0  0  0  0  0  0  0  0  0  0
   62.5831   29.3580   49.7828 H   0  0  0  0  0  0  0  0  0  0  0  0
   61.4224   32.1506   49.4212 H   0  0  0  0  0  0  0  0  0  0  0  0
   63.1562   32.6261   50.8738 H   0  0  0  0  0  0  0  0  0  0  0  0
   64.0572   31.1667   50.5236 H   0  0  0  0  0  0  0  0  0  0  0  0
   63.9563   33.7862   49.0260 H   0  0  0  0  0  0  0  0  0  0  0  0
   65.3000   32.6617   49.1263 H   0  0  0  0  0  0  0  0  0  0  0  0
   63.4876   32.8745   46.9790 H   0  0  0  0  0  0  0  0  0  0  0  0
   64.5390   31.4478   47.2970 H   0  0  0  0  0  0  0  0  0  0  0  0
   60.9700   30.2470   47.2920 H   0  0  0  0  0  0  0  0  0  0  0  0
   59.6427   35.9240   47.7465 H   0  0  0  0  0  0  0  0  0  0  0  0
   60.5527   36.1068   46.2086 H   0  0  0  0  0  0  0  0  0  0  0  0
   58.7594   36.2089   46.2086 H   0  0  0  0  0  0  0  0  0  0  0  0
   56.8711   34.7552   45.4373 H   0  0  0  0  0  0  0  0  0  0  0  0
   58.0759   35.0335   44.1344 H   0  0  0  0  0  0  0  0  0  0  0  0
   57.0824   33.5369   44.1344 H   0  0  0  0  0  0  0  0  0  0  0  0
  1  2  1  0
  2  3  1  0
  3  4  1  0
  4  5  2  0
  4  6  1  0
  6  7  1  0
  7  8  1  0
  8  9  1  0
  9 10  1  0
 10 11  1  0
 11 12  2  0
 11 13  1  0
 13 14  1  0
 14 15  1  0
 15 16  1  0
 16 17  1  0
 17 18  1  0
 18 19  1  0
  8 20  2  0
 20 21  1  0
 21 22  1  0
 22 23  1  0
 23 24  1  0
 23 25  2  0
 25 26  1  0
 25 27  1  0
 27 28  1  0
 28 29  2  0
 28  7  1  0
 19 15  1  0
 27 21  2  0
  1 30  1  0
  1 31  1  0
  1 32  1  0
  2 33  1  0
  2 34  1  0
  6 35  1  0
  6 36  1  0
 10 37  1  0
 10 38  1  0
 14 39  1  0
 14 40  1  0
 15 41  1  6
 16 42  1  0
 16 43  1  0
 17 44  1  0
 17 45  1  0
 18 46  1  0
 18 47  1  0
 20 48  1  0
 24 49  1  0
 24 50  1  0
 24 51  1  0
 26 52  1  0
 26 53  1  0
 26 54  1  0
M  CHG  2  13  -1  20   1
M  END
>  <UniqueID>  (35) 
34

>  <SMILES>  (35) 
CCOC(=O)Cn1c(SCC(=O)[N-]C[C@H]2CCCO2)[nH+]c2sc(C)c(C)c2c1=O

>  <Energy>  (35) 
76.69001871781182

>  <Genealogy>  (35) 
CCOC(=O)Cn1c(SCC(=O)[N-]CC2CCCO2)[nH+]c2sc(C)c(C)c2c1=O (protonated)
CCOC(=O)Cn1c(SCC(=O)[N-]C[C@H]2CCCO2)[nH+]c2sc(C)c(C)c2c1=O (chirality)
CCOC(=O)Cn1c(SCC(=O)[N-]C[C@H]2CCCO2)[nH+]c2sc(C)c(C)c2c1=O (3D coordinates assigned)
CCOC(=O)Cn1c(SCC(=O)[N-]C[C@H]2CCCO2)[nH+]c2sc(C)c(C)c2c1=O (nonaromatic ring conformer: 76.69001871781182 kcal/mol)

>  <smiles>  (35) 
CCOC(=O)Cn1c(SCC(=O)NCC2CCCO2)nc2sc(C)c(C)c2c1=O

>  <score_type>  (35) 
oracle

>  <origin>  (35) 
adg

>  <m_score__min__energy>  (35) 
-8.7200000000000006

>  <m_primary>  (35) 
energy

$$$$
35:0
     RDKit          3D

 39 40  0  0  0  0  0  0  0  0999 V2000
   60.1310   34.5810   47.8610 C   0  0  0  0  0  0  0  0  0  0  0  0
   59.5660   34.7850   46.4610 C   0  0  0  0  0  0  0  0  0  0  0  0
   58.8290   33.5660   46.0050 C   0  0  0  0  0  0  0  0  0  0  0  0
   59.3420   32.2670   46.0020 C   0  0  0  0  0  0  0  0  0  0  0  0
   58.4400   31.3460   45.4560 C   0  0  0  0  0  0  0  0  0  0  0  0
   58.6090   29.9710   45.2970 C   0  0  0  0  0  0  0  0  0  0  0  0
   59.6700   29.4180   45.6940 O   0  0  0  0  0  0  0  0  0  0  0  0
   57.6010   29.2350   44.7100 N   0  0  0  0  0  0  0  0  0  0  0  0
   57.7450   27.7820   44.5150 C   0  0  0  0  0  0  0  0  0  0  0  0
   57.1640   26.9990   45.6680 C   0  0  0  0  0  0  0  0  0  0  0  0
   55.9270   27.0910   45.8930 O   0  0  0  0  0  0  0  0  0  0  0  0
   57.9660   26.1070   46.4720 N   0  0  0  0  0  0  0  0  0  0  0  0
   57.3540   24.8800   47.0010 C   0  0  0  0  0  0  0  0  0  0  0  0
   56.7500   24.0450   45.8780 C   0  0  0  0  0  0  0  0  0  0  0  0
   59.3700   26.4090   46.7860 C   0  0  0  0  0  0  0  0  0  0  0  0
   59.4700   27.4190   47.9270 C   0  0  0  0  0  0  0  0  0  0  0  0
   56.4300   29.8540   44.3330 C   0  0  0  0  0  0  0  0  0  0  0  0
   56.2640   31.1980   44.4880 N   0  0  0  0  0  0  0  0  0  0  0  0
   57.2630   31.9210   45.0380 C   0  0  0  0  0  0  0  0  0  0  0  0
   57.2800   33.5740   45.3150 S   0  0  0  0  0  0  0  0  0  0  0  0
   59.3706   34.8556   48.6069 H   0  0  0  0  0  0  0  0  0  0  0  0
   60.4102   33.5253   47.9935 H   0  0  0  0  0  0  0  0  0  0  0  0
   61.0202   35.2148   47.9935 H   0  0  0  0  0  0  0  0  0  0  0  0
   58.8757   35.6414   46.4715 H   0  0  0  0  0  0  0  0  0  0  0  0
   60.3989   34.9744   45.7679 H   0  0  0  0  0  0  0  0  0  0  0  0
   60.3381   31.9989   46.3839 H   0  0  0  0  0  0  0  0  0  0  0  0
   57.2232   27.4938   43.5905 H   0  0  0  0  0  0  0  0  0  0  0  0
   58.8187   27.5511   44.4527 H   0  0  0  0  0  0  0  0  0  0  0  0
   58.1238   24.2870   47.5165 H   0  0  0  0  0  0  0  0  0  0  0  0
   56.5525   25.1605   47.7002 H   0  0  0  0  0  0  0  0  0  0  0  0
   56.1569   23.2250   46.3091 H   0  0  0  0  0  0  0  0  0  0  0  0
   56.1009   24.6801   45.2572 H   0  0  0  0  0  0  0  0  0  0  0  0
   57.5563   23.6273   45.2572 H   0  0  0  0  0  0  0  0  0  0  0  0
   59.8804   25.4805   47.0816 H   0  0  0  0  0  0  0  0  0  0  0  0
   59.8440   26.8413   45.8925 H   0  0  0  0  0  0  0  0  0  0  0  0
   59.4177   26.8904   48.8902 H   0  0  0  0  0  0  0  0  0  0  0  0
   60.4260   27.9586   47.8563 H   0  0  0  0  0  0  0  0  0  0  0  0
   58.6384   28.1356   47.8563 H   0  0  0  0  0  0  0  0  0  0  0  0
   55.6158   29.2544   43.9000 H   0  0  0  0  0  0  0  0  0  0  0  0
  1  2  1  0
  2  3  1  0
  3  4  2  0
  4  5  1  0
  5  6  1  0
  6  7  2  0
  6  8  1  0
  8  9  1  0
  9 10  1  0
 10 11  2  0
 10 12  1  0
 12 13  1  0
 13 14  1  0
 12 15  1  0
 15 16  1  0
  8 17  1  0
 17 18  2  0
 18 19  1  0
 19 20  1  0
 20  3  1  0
 19  5  2  0
  1 21  1  0
  1 22  1  0
  1 23  1  0
  2 24  1  0
  2 25  1  0
  4 26  1  0
  9 27  1  0
  9 28  1  0
 13 29  1  0
 13 30  1  0
 14 31  1  0
 14 32  1  0
 14 33  1  0
 15 34  1  0
 15 35  1  0
 16 36  1  0
 16 37  1  0
 16 38  1  0
 17 39  1  0
M  END
>  <UniqueID>  (36) 
35

>  <SMILES>  (36) 
CCc1cc2c(=O)n(CC(=O)N(CC)CC)cnc2s1

>  <Energy>  (36) 
64.56610273797226

>  <Genealogy>  (36) 
CCc1cc2c(=O)n(CC(=O)N(CC)CC)cnc2s1 (3D coordinates assigned)
CCc1cc2c(=O)n(CC(=O)N(CC)CC)cnc2s1 (optimized conformer: 64.56610273797226 kcal/mol)

>  <smiles>  (36) 
CCc1cc2c(=O)n(CC(=O)N(CC)CC)cnc2s1

>  <score_type>  (36) 
oracle

>  <origin>  (36) 
adg

>  <m_score__min__energy>  (36) 
-6.6500000000000004

>  <m_primary>  (36) 
energy

$$$$
36:0
     RDKit          3D

 60 63  0  0  0  0  0  0  0  0999 V2000
   56.3220   24.4090   45.0190 C   0  0  0  0  0  0  0  0  0  0  0  0
   57.2310   25.4850   45.4540 N   0  0  0  0  0  0  0  0  0  0  0  0
   58.3190   24.9340   46.2910 C   0  0  0  0  0  0  0  0  0  0  0  0
   59.2070   26.0360   46.7920 C   0  0  0  0  0  0  0  0  0  0  0  0
   60.4530   25.9530   46.6120 O   0  0  0  0  0  0  0  0  0  0  0  0
   58.6470   27.1370   47.5230 N   0  0  0  0  0  0  0  0  0  0  0  0
   59.3690   28.3410   47.8320 C   0  0  0  0  0  0  0  0  0  0  0  0
   60.4650   28.7530   47.0620 C   0  0  0  0  0  0  0  0  0  0  0  0
   61.1400   29.9390   47.3630 C   0  0  0  0  0  0  0  0  0  0  0  0
   60.7340   30.7580   48.4430 C   0  0  0  0  0  0  0  0  0  0  0  0
   61.4400   31.9970   48.7630 N   0  0  0  0  0  0  0  0  0  0  0  0
   61.0950   32.7270   50.0010 C   0  0  0  0  0  0  0  0  0  0  0  0
   61.9800   33.9480   50.2570 C   0  0  0  0  0  0  0  0  0  0  0  0
   62.2540   34.6290   49.0570 O   0  0  0  0  0  0  0  0  0  0  0  0
   63.1060   33.8250   48.2760 C   0  0  0  0  0  0  0  0  0  0  0  0
   62.3790   32.5730   47.7770 C   0  0  0  0  0  0  0  0  0  0  0  0
   59.6060   30.3400   49.1900 C   0  0  0  0  0  0  0  0  0  0  0  0
   58.9350   29.1550   48.8830 C   0  0  0  0  0  0  0  0  0  0  0  0
   57.7780   26.1860   44.2720 C   0  0  0  0  0  0  0  0  0  0  0  0
   57.9130   27.6600   44.5490 C   0  0  0  0  0  0  0  0  0  0  0  0
   56.8900   28.3450   45.2220 C   0  0  0  0  0  0  0  0  0  0  0  0
   57.0180   29.7070   45.5040 C   0  0  0  0  0  0  0  0  0  0  0  0
   58.1730   30.4110   45.1160 C   0  0  0  0  0  0  0  0  0  0  0  0
   58.3140   31.8570   45.4250 C   0  0  0  0  0  0  0  0  0  0  0  0
   58.3260   32.3060   46.7600 C   0  0  0  0  0  0  0  0  0  0  0  0
   58.4660   33.6680   47.0480 C   0  0  0  0  0  0  0  0  0  0  0  0
   58.5970   34.5950   46.0110 C   0  0  0  0  0  0  0  0  0  0  0  0
   58.5860   34.1620   44.6830 C   0  0  0  0  0  0  0  0  0  0  0  0
   58.4440   32.8020   44.3880 C   0  0  0  0  0  0  0  0  0  0  0  0
   59.1930   29.7220   44.4360 C   0  0  0  0  0  0  0  0  0  0  0  0
   59.0650   28.3590   44.1560 C   0  0  0  0  0  0  0  0  0  0  0  0
   55.8984   23.9076   45.9017 H   0  0  0  0  0  0  0  0  0  0  0  0
   55.5086   24.8379   44.4153 H   0  0  0  0  0  0  0  0  0  0  0  0
   56.8807   23.6787   44.4153 H   0  0  0  0  0  0  0  0  0  0  0  0
   57.8818   24.4030   47.1494 H   0  0  0  0  0  0  0  0  0  0  0  0
   58.9199   24.2419   45.6828 H   0  0  0  0  0  0  0  0  0  0  0  0
   57.6850   27.0270   47.9170 H   0  0  0  0  0  0  0  0  0  0  0  0
   60.7969   28.1373   46.2130 H   0  0  0  0  0  0  0  0  0  0  0  0
   62.0018   30.2411   46.7498 H   0  0  0  0  0  0  0  0  0  0  0  0
   60.0504   33.0637   49.9269 H   0  0  0  0  0  0  0  0  0  0  0  0
   61.2515   32.0328   50.8398 H   0  0  0  0  0  0  0  0  0  0  0  0
   61.4624   34.6296   50.9480 H   0  0  0  0  0  0  0  0  0  0  0  0
   62.9307   33.6080   50.6935 H   0  0  0  0  0  0  0  0  0  0  0  0
   63.4548   34.4068   47.4101 H   0  0  0  0  0  0  0  0  0  0  0  0
   63.9565   33.5101   48.8985 H   0  0  0  0  0  0  0  0  0  0  0  0
   61.8126   32.8381   46.8721 H   0  0  0  0  0  0  0  0  0  0  0  0
   63.1483   31.8110   47.5832 H   0  0  0  0  0  0  0  0  0  0  0  0
   59.2522   30.9600   50.0269 H   0  0  0  0  0  0  0  0  0  0  0  0
   58.0558   28.8585   49.4739 H   0  0  0  0  0  0  0  0  0  0  0  0
   58.7677   25.7708   44.0307 H   0  0  0  0  0  0  0  0  0  0  0  0
   57.0908   26.0446   43.4248 H   0  0  0  0  0  0  0  0  0  0  0  0
   55.9816   27.8061   45.5294 H   0  0  0  0  0  0  0  0  0  0  0  0
   56.2100   30.2332   46.0333 H   0  0  0  0  0  0  0  0  0  0  0  0
   58.2247   31.5813   47.5813 H   0  0  0  0  0  0  0  0  0  0  0  0
   58.4729   34.0098   48.0935 H   0  0  0  0  0  0  0  0  0  0  0  0
   58.7087   35.6651   46.2401 H   0  0  0  0  0  0  0  0  0  0  0  0
   58.6893   34.8924   43.8670 H   0  0  0  0  0  0  0  0  0  0  0  0
   58.4338   32.4682   43.3399 H   0  0  0  0  0  0  0  0  0  0  0  0
   60.0993   30.2605   44.1219 H   0  0  0  0  0  0  0  0  0  0  0  0
   59.8709   27.8313   43.6250 H   0  0  0  0  0  0  0  0  0  0  0  0
  1  2  1  0
  2  3  1  0
  3  4  1  0
  4  5  2  0
  4  6  1  0
  6  7  1  0
  7  8  2  0
  8  9  1  0
  9 10  2  0
 10 11  1  0
 11 12  1  0
 12 13  1  0
 13 14  1  0
 14 15  1  0
 15 16  1  0
 10 17  1  0
 17 18  2  0
  2 19  1  0
 19 20  1  0
 20 21  2  0
 21 22  1  0
 22 23  2  0
 23 24  1  0
 24 25  2  0
 25 26  1  0
 26 27  2  0
 27 28  1  0
 28 29  2  0
 23 30  1  0
 30 31  2  0
 18  7  1  0
 31 20  1  0
 16 11  1  0
 29 24  1  0
  1 32  1  0
  1 33  1  0
  1 34  1  0
  3 35  1  0
  3 36  1  0
  6 37  1  0
  8 38  1  0
  9 39  1  0
 12 40  1  0
 12 41  1  0
 13 42  1  0
 13 43  1  0
 15 44  1  0
 15 45  1  0
 16 46  1  0
 16 47  1  0
 17 48  1  0
 18 49  1  0
 19 50  1  0
 19 51  1  0
 21 52  1  0
 22 53  1  0
 25 54  1  0
 26 55  1  0
 27 56  1  0
 28 57  1  0
 29 58  1  0
 30 59  1  0
 31 60  1  0
M  END
>  <UniqueID>  (37) 
36

>  <SMILES>  (37) 
CN(CC(=O)Nc1ccc(N2CCOCC2)cc1)Cc1ccc(-c2ccccc2)cc1

>  <Energy>  (37) 
79.64879342607874

>  <Genealogy>  (37) 
CN(CC(=O)Nc1ccc(N2CCOCC2)cc1)Cc1ccc(-c2ccccc2)cc1 (3D coordinates assigned)
CN(CC(=O)Nc1ccc(N2CCOCC2)cc1)Cc1ccc(-c2ccccc2)cc1 (nonaromatic ring conformer: 79.64879342607874 kcal/mol)

>  <smiles>  (37) 
CN(CC(=O)Nc1ccc(N2CCOCC2)cc1)Cc1ccc(-c2ccccc2)cc1

>  <score_type>  (37) 
oracle

>  <origin>  (37) 
adg

>  <m_score__min__energy>  (37) 
-9.7699999999999996

>  <m_primary>  (37) 
energy

$$$$
37:0
     RDKit          3D

 35 38  0  0  1  0  0  0  0  0999 V2000
   58.8420   26.2850   46.0950 C   0  0  0  0  0  0  0  0  0  0  0  0
   59.2640   27.4430   45.4670 C   0  0  0  0  0  0  0  0  0  0  0  0
   58.2700   28.3320   45.0780 C   0  0  0  0  0  0  0  0  0  0  0  0
   56.9240   28.0740   45.3080 C   0  0  0  0  0  0  0  0  0  0  0  0
   56.0170   29.0880   44.8480 N   0  0  0  0  0  0  0  0  0  0  0  0
   56.5400   30.0980   44.1980 C   0  0  0  0  0  0  0  0  0  0  0  0
   57.1350   31.0300   44.9450 N   0  0  0  0  0  0  0  0  0  0  0  0
   57.6880   32.0870   44.3330 C   0  0  0  0  0  0  0  0  0  0  0  0
   58.3570   33.1440   45.0920 C   0  0  0  0  0  0  0  0  0  0  0  0
   58.7800   34.3910   44.6320 C   0  0  0  0  0  0  0  0  0  0  0  0
   59.3450   35.0460   45.6640 N   0  0  0  0  0  0  0  0  0  0  0  0
   59.2950   34.2610   46.7550 C   0  0  0  0  0  0  0  0  0  0  0  0
   59.7430   34.4930   48.0380 C   0  0  0  0  0  0  0  0  0  0  0  0
   59.5940   33.5450   49.0290 C   0  0  0  0  0  0  0  0  0  0  0  0
   58.9770   32.3620   48.6630 C   0  0  0  0  0  0  0  0  0  0  0  0
   58.5460   32.1810   47.3600 C   0  0  0  0  0  0  0  0  0  0  0  0
   58.7000   33.1200   46.4040 N   0  0  0  0  0  0  0  0  0  0  0  0
   57.6470   32.2160   42.9600 C   0  0  0  0  0  0  0  0  0  0  0  0
   57.0150   31.2160   42.2490 C   0  0  0  0  0  0  0  0  0  0  0  0
   56.4570   30.1490   42.8600 N   0  0  0  0  0  0  0  0  0  0  0  0
   56.5160   26.9300   45.9270 C   0  0  0  0  0  0  0  0  0  0  0  0
   57.4960   26.0220   46.3270 C   0  0  0  0  0  0  0  0  0  0  0  0
   59.5932   25.5503   46.4206 H   0  0  0  0  0  0  0  0  0  0  0  0
   60.3292   27.6488   45.2854 H   0  0  0  0  0  0  0  0  0  0  0  0
   58.5564   29.2666   44.5736 H   0  0  0  0  0  0  0  0  0  0  0  0
   58.6711   34.7725   43.6060 H   0  0  0  0  0  0  0  0  0  0  0  0
   60.2280   35.4513   48.2757 H   0  0  0  0  0  0  0  0  0  0  0  0
   59.9471   33.7204   50.0559 H   0  0  0  0  0  0  0  0  0  0  0  0
   58.8290   31.5655   49.4071 H   0  0  0  0  0  0  0  0  0  0  0  0
   58.0577   31.2321   47.0932 H   0  0  0  0  0  0  0  0  0  0  0  0
   58.0996   33.0807   42.4526 H   0  0  0  0  0  0  0  0  0  0  0  0
   56.9644   31.2904   41.1527 H   0  0  0  0  0  0  0  0  0  0  0  0
   55.9770   29.3950   42.2920 H   0  0  0  0  0  0  0  0  0  0  0  0
   55.4491   26.7297   46.1051 H   0  0  0  0  0  0  0  0  0  0  0  0
   57.2018   25.0893   46.8306 H   0  0  0  0  0  0  0  0  0  0  0  0
  1  2  2  0
  2  3  1  0
  3  4  2  0
  4  5  1  0
  5  6  2  0
  6  7  1  0
  7  8  2  0
  8  9  1  0
  9 10  2  0
 10 11  1  0
 11 12  2  0
 12 13  1  0
 13 14  2  0
 14 15  1  0
 15 16  2  0
 16 17  1  0
  8 18  1  0
 18 19  2  0
 19 20  1  0
  4 21  1  0
 21 22  2  0
 22  1  1  0
 20  6  1  0
 17  9  1  0
 17 12  1  0
  1 23  1  0
  2 24  1  0
  3 25  1  0
 10 26  1  0
 13 27  1  0
 14 28  1  0
 15 29  1  0
 16 30  1  0
 18 31  1  0
 19 32  1  0
 20 33  1  0
 21 34  1  0
 22 35  1  0
M  END
>  <smiles>  (38) 
c1ccc(N=c2nc(-c3cnc4ccccn34)cc[nH]2)cc1

>  <score_type>  (38) 
oracle

>  <origin>  (38) 
adg

>  <m_score__min__energy>  (38) 
-8.1799999999999997

>  <m_primary>  (38) 
energy

$$$$
38:0
     RDKit          3D

 50 52  0  0  0  0  0  0  0  0999 V2000
   59.5650   31.2970   48.4130 C   0  0  0  0  0  0  0  0  0  0  0  0
   60.8450   31.9450   47.9470 C   0  0  0  0  0  0  0  0  0  0  0  0
   61.9050   31.0800   47.6150 C   0  0  0  0  0  0  0  0  0  0  0  0
   63.1090   31.5800   47.1210 C   0  0  0  0  0  0  0  0  0  0  0  0
   63.2680   32.9490   46.9320 C   0  0  0  0  0  0  0  0  0  0  0  0
   62.2410   33.8250   47.2780 C   0  0  0  0  0  0  0  0  0  0  0  0
   61.0390   33.3570   47.8530 C   0  0  0  0  0  0  0  0  0  0  0  0
   59.9990   34.4000   48.2750 C   0  0  0  0  0  0  0  0  0  0  0  0
   59.0060   34.7840   47.2290 N   0  0  0  0  0  0  0  0  0  0  0  0
   59.6250   35.2630   45.9680 C   0  0  0  0  0  0  0  0  0  0  0  0
   59.6900   34.1620   44.9040 C   0  0  0  0  0  0  0  0  0  0  0  0
   58.3400   33.6680   44.5560 N   0  0  0  0  0  0  0  0  0  0  0  0
   58.3620   32.3330   43.9130 C   0  0  0  0  0  0  0  0  0  0  0  0
   57.0310   31.5620   44.0170 C   0  0  0  0  0  0  0  0  0  0  0  0
   57.0190   30.7440   45.1870 O   0  0  0  0  0  0  0  0  0  0  0  0
   57.9100   29.6900   45.4510 C   0  0  0  0  0  0  0  0  0  0  0  0
   57.3770   28.4120   45.6640 C   0  0  0  0  0  0  0  0  0  0  0  0
   58.2160   27.3300   45.9470 C   0  0  0  0  0  0  0  0  0  0  0  0
   59.6000   27.5160   46.0190 C   0  0  0  0  0  0  0  0  0  0  0  0
   60.6530   26.1600   46.3760 Cl  0  0  0  0  0  0  0  0  0  0  0  0
   60.1430   28.7870   45.8050 C   0  0  0  0  0  0  0  0  0  0  0  0
   59.3070   29.8700   45.5200 C   0  0  0  0  0  0  0  0  0  0  0  0
   57.3190   33.8340   45.6170 C   0  0  0  0  0  0  0  0  0  0  0  0
   57.9350   33.7690   47.0250 C   0  0  0  0  0  0  0  0  0  0  0  0
   59.5397   31.2842   49.5126 H   0  0  0  0  0  0  0  0  0  0  0  0
   58.7053   31.8684   48.0331 H   0  0  0  0  0  0  0  0  0  0  0  0
   59.5166   30.2658   48.0331 H   0  0  0  0  0  0  0  0  0  0  0  0
   61.7816   29.9950   47.7472 H   0  0  0  0  0  0  0  0  0  0  0  0
   63.9331   30.8921   46.8807 H   0  0  0  0  0  0  0  0  0  0  0  0
   64.2051   33.3403   46.5091 H   0  0  0  0  0  0  0  0  0  0  0  0
   62.3691   34.9029   47.0996 H   0  0  0  0  0  0  0  0  0  0  0  0
   59.4448   33.9959   49.1350 H   0  0  0  0  0  0  0  0  0  0  0  0
   60.5664   35.3151   48.5000 H   0  0  0  0  0  0  0  0  0  0  0  0
   58.5200   35.6250   47.6260 H   0  0  0  0  0  0  0  0  0  0  0  0
   59.0292   36.1005   45.5760 H   0  0  0  0  0  0  0  0  0  0  0  0
   60.6546   35.5774   46.1938 H   0  0  0  0  0  0  0  0  0  0  0  0
   60.1675   34.5663   43.9992 H   0  0  0  0  0  0  0  0  0  0  0  0
   60.2722   33.3218   45.3102 H   0  0  0  0  0  0  0  0  0  0  0  0
   58.6014   32.4666   42.8477 H   0  0  0  0  0  0  0  0  0  0  0  0
   59.1166   31.7364   44.4466 H   0  0  0  0  0  0  0  0  0  0  0  0
   56.1994   32.2801   44.0685 H   0  0  0  0  0  0  0  0  0  0  0  0
   56.9213   30.9190   43.1313 H   0  0  0  0  0  0  0  0  0  0  0  0
   56.2892   28.2585   45.6081 H   0  0  0  0  0  0  0  0  0  0  0  0
   57.7867   26.3310   46.1132 H   0  0  0  0  0  0  0  0  0  0  0  0
   61.2316   28.9347   45.8612 H   0  0  0  0  0  0  0  0  0  0  0  0
   59.7402   30.8665   45.3489 H   0  0  0  0  0  0  0  0  0  0  0  0
   56.8289   34.8104   45.4886 H   0  0  0  0  0  0  0  0  0  0  0  0
   56.5958   33.0104   45.5243 H   0  0  0  0  0  0  0  0  0  0  0  0
   57.1402   33.9417   47.7656 H   0  0  0  0  0  0  0  0  0  0  0  0
   58.3910   32.7750   47.1436 H   0  0  0  0  0  0  0  0  0  0  0  0
  1  2  1  0
  2  3  2  0
  3  4  1  0
  4  5  2  0
  5  6  1  0
  6  7  2  0
  7  8  1  0
  8  9  1  0
  9 10  1  0
 10 11  1  0
 11 12  1  0
 12 13  1  0
 13 14  1  0
 14 15  1  0
 15 16  1  0
 16 17  2  0
 17 18  1  0
 18 19  2  0
 19 20  1  0
 19 21  1  0
 21 22  2  0
 12 23  1  0
 23 24  1  0
  7  2  1  0
 24  9  1  0
 22 16  1  0
  1 25  1  0
  1 26  1  0
  1 27  1  0
  3 28  1  0
  4 29  1  0
  5 30  1  0
  6 31  1  0
  8 32  1  0
  8 33  1  0
  9 34  1  0
 10 35  1  0
 10 36  1  0
 11 37  1  0
 11 38  1  0
 13 39  1  0
 13 40  1  0
 14 41  1  0
 14 42  1  0
 17 43  1  0
 18 44  1  0
 21 45  1  0
 22 46  1  0
 23 47  1  0
 23 48  1  0
 24 49  1  0
 24 50  1  0
M  CHG  1   9   1
M  END
>  <UniqueID>  (39) 
37

>  <SMILES>  (39) 
Cc1ccccc1C[NH+]1CCN(CCOc2ccc(Cl)cc2)CC1

>  <Energy>  (39) 
72.48652321727653

>  <Genealogy>  (39) 
Cc1ccccc1C[NH+]1CCN(CCOc2ccc(Cl)cc2)CC1 (protonated)
Cc1ccccc1C[NH+]1CCN(CCOc2ccc(Cl)cc2)CC1 (3D coordinates assigned)
Cc1ccccc1C[NH+]1CCN(CCOc2ccc(Cl)cc2)CC1 (nonaromatic ring conformer: 72.48652321727653 kcal/mol)

>  <smiles>  (39) 
Cc1ccccc1CN1CCN(CCOc2ccc(Cl)cc2)CC1

>  <score_type>  (39) 
oracle

>  <origin>  (39) 
adg

>  <m_score__min__energy>  (39) 
-6.3799999999999999

>  <m_primary>  (39) 
energy

$$$$
39:0
     RDKit          3D

 41 44  0  0  0  0  0  0  0  0999 V2000
   57.4873   33.5065   47.4701 H   0  0  0  0  0  0  0  0  0  0  0  0
   58.5020   33.1280   47.6630 C   0  0  0  0  0  0  0  0  0  0  0  0
   59.3120   32.9270   46.6020 C   0  0  0  0  0  0  0  0  0  0  0  0
   60.7790   32.8420   46.8180 C   0  0  0  0  0  0  0  0  0  0  0  0
   61.6100   33.9200   46.4660 C   0  0  0  0  0  0  0  0  0  0  0  0
   61.1702   34.8322   46.0364 H   0  0  0  0  0  0  0  0  0  0  0  0
   62.9930   33.8390   46.6590 C   0  0  0  0  0  0  0  0  0  0  0  0
   63.6367   34.6872   46.3830 H   0  0  0  0  0  0  0  0  0  0  0  0
   63.5580   32.6820   47.2020 C   0  0  0  0  0  0  0  0  0  0  0  0
   64.6458   32.6201   47.3531 H   0  0  0  0  0  0  0  0  0  0  0  0
   62.7420   31.6040   47.5530 C   0  0  0  0  0  0  0  0  0  0  0  0
   63.1881   30.6934   47.9794 H   0  0  0  0  0  0  0  0  0  0  0  0
   61.3590   31.6810   47.3630 C   0  0  0  0  0  0  0  0  0  0  0  0
   60.7205   30.8295   47.6410 H   0  0  0  0  0  0  0  0  0  0  0  0
   58.7760   32.7650   45.1890 C   0  0  0  0  0  0  0  0  0  0  0  0
   58.1365   33.6269   44.9478 H   0  0  0  0  0  0  0  0  0  0  0  0
   59.6308   32.7079   44.4990 H   0  0  0  0  0  0  0  0  0  0  0  0
   57.9920   31.5380   45.0530 N   0  0  0  0  0  0  0  0  0  0  0  0
   56.6750   31.5020   44.8670 N   0  0  0  0  0  0  0  0  0  0  0  0
   56.2360   30.2460   44.7900 N   0  0  0  0  0  0  0  0  0  0  0  0
   57.3270   29.4700   44.9290 C   0  0  0  0  0  0  0  0  0  0  0  0
   57.4150   28.0820   44.9230 C   0  0  0  0  0  0  0  0  0  0  0  0
   56.5216   27.4523   44.7992 H   0  0  0  0  0  0  0  0  0  0  0  0
   58.6960   27.5150   45.0820 C   0  0  0  0  0  0  0  0  0  0  0  0
   58.8122   26.4212   45.0857 H   0  0  0  0  0  0  0  0  0  0  0  0
   59.8340   28.3430   45.2370 C   0  0  0  0  0  0  0  0  0  0  0  0
   60.8279   27.8876   45.3583 H   0  0  0  0  0  0  0  0  0  0  0  0
   59.7030   29.7460   45.2370 C   0  0  0  0  0  0  0  0  0  0  0  0
   60.5776   30.4032   45.3514 H   0  0  0  0  0  0  0  0  0  0  0  0
   58.4190   30.2660   45.0860 C   0  0  0  0  0  0  0  0  0  0  0  0
   58.8870   32.8740   49.0620 C   0  0  0  0  0  0  0  0  0  0  0  0
   59.6510   33.8070   49.7830 C   0  0  0  0  0  0  0  0  0  0  0  0
   59.9678   34.7452   49.3040 H   0  0  0  0  0  0  0  0  0  0  0  0
   60.0090   33.5440   51.1090 C   0  0  0  0  0  0  0  0  0  0  0  0
   60.5978   34.2807   51.6752 H   0  0  0  0  0  0  0  0  0  0  0  0
   59.6200   32.3470   51.7160 C   0  0  0  0  0  0  0  0  0  0  0  0
   59.8963   32.1454   52.7615 H   0  0  0  0  0  0  0  0  0  0  0  0
   58.8800   31.4060   50.9950 C   0  0  0  0  0  0  0  0  0  0  0  0
   58.5787   30.4618   51.4721 H   0  0  0  0  0  0  0  0  0  0  0  0
   58.5220   31.6630   49.6680 C   0  0  0  0  0  0  0  0  0  0  0  0
   57.9529   30.9138   49.0981 H   0  0  0  0  0  0  0  0  0  0  0  0
  1  2  1  0
  2  3  2  0
  3  4  1  0
  4  5  2  0
  5  6  1  0
  5  7  1  0
  7  8  1  0
  7  9  2  0
  9 10  1  0
  9 11  1  0
 11 12  1  0
 11 13  2  0
 13 14  1  0
  3 15  1  0
 15 16  1  0
 15 17  1  0
 15 18  1  0
 18 19  1  0
 19 20  2  0
 20 21  1  0
 21 22  2  0
 22 23  1  0
 22 24  1  0
 24 25  1  0
 24 26  2  0
 26 27  1  0
 26 28  1  0
 28 29  1  0
 28 30  2  0
  2 31  1  0
 31 32  2  0
 32 33  1  0
 32 34  1  0
 34 35  1  0
 34 36  2  0
 36 37  1  0
 36 38  1  0
 38 39  1  0
 38 40  2  0
 40 41  1  0
 13  4  1  0
 30 18  1  0
 40 31  1  0
 30 21  1  0
M  END
>  <UniqueID>  (40) 
38

>  <SMILES>  (40) 
C(=C(\Cn1nnc2ccccc21)c1ccccc1)\c1ccccc1

>  <Energy>  (40) 
99.59823919259372

>  <Genealogy>  (40) 
C(=C(\Cn1nnc2ccccc21)c1ccccc1)\c1ccccc1 (cis-trans isomerization)
C(=C(\Cn1nnc2ccccc21)c1ccccc1)\c1ccccc1 (3D coordinates assigned)
C(=C(\Cn1nnc2ccccc21)c1ccccc1)\c1ccccc1 (optimized conformer: 99.59823919259372 kcal/mol)

>  <smiles>  (40) 
C(=C(Cn1nnc2ccccc21)c1ccccc1)c1ccccc1

>  <score_type>  (40) 
oracle

>  <origin>  (40) 
adg

>  <m_score__min__energy>  (40) 
-8.6600000000000001

>  <m_primary>  (40) 
energy

$$$$
40:0
     RDKit          3D

 50 52  0  0  0  0  0  0  0  0999 V2000
   63.9750   33.2400   47.9240 C   0  0  0  0  0  0  0  0  0  0  0  0
   63.2760   33.8310   46.7030 C   0  0  0  0  0  0  0  0  0  0  0  0
   61.8310   33.5630   46.7370 N   0  0  0  0  0  0  0  0  0  0  0  0
   61.1460   34.2160   47.8670 C   0  0  0  0  0  0  0  0  0  0  0  0
   59.7620   34.7160   47.4360 C   0  0  0  0  0  0  0  0  0  0  0  0
   59.2950   34.0200   46.2140 N   0  0  0  0  0  0  0  0  0  0  0  0
   59.1950   34.9570   45.0810 C   0  0  0  0  0  0  0  0  0  0  0  0
   57.9880   33.3670   46.4450 C   0  0  0  0  0  0  0  0  0  0  0  0
   57.8880   32.0890   45.6370 C   0  0  0  0  0  0  0  0  0  0  0  0
   57.0410   32.0650   44.5190 C   0  0  0  0  0  0  0  0  0  0  0  0
   56.8790   30.9020   43.7700 C   0  0  0  0  0  0  0  0  0  0  0  0
   57.5670   29.7350   44.1180 C   0  0  0  0  0  0  0  0  0  0  0  0
   57.3940   28.5690   43.3560 C   0  0  0  0  0  0  0  0  0  0  0  0
   58.0810   27.4010   43.6900 C   0  0  0  0  0  0  0  0  0  0  0  0
   58.9470   27.3870   44.7830 C   0  0  0  0  0  0  0  0  0  0  0  0
   59.1280   28.5390   45.5520 C   0  0  0  0  0  0  0  0  0  0  0  0
   58.4370   29.7300   45.2400 C   0  0  0  0  0  0  0  0  0  0  0  0
   58.5940   30.9150   46.0080 C   0  0  0  0  0  0  0  0  0  0  0  0
   59.4620   30.9240   47.2090 C   0  0  0  0  0  0  0  0  0  0  0  0
   60.8530   30.7850   47.0820 C   0  0  0  0  0  0  0  0  0  0  0  0
   61.6690   30.8180   48.2160 C   0  0  0  0  0  0  0  0  0  0  0  0
   61.1010   30.9840   49.4830 C   0  0  0  0  0  0  0  0  0  0  0  0
   59.7150   31.1090   49.6170 C   0  0  0  0  0  0  0  0  0  0  0  0
   58.8960   31.0750   48.4850 C   0  0  0  0  0  0  0  0  0  0  0  0
   63.5093   33.6338   48.8395 H   0  0  0  0  0  0  0  0  0  0  0  0
   63.8799   32.1443   47.9063 H   0  0  0  0  0  0  0  0  0  0  0  0
   65.0397   33.5160   47.9063 H   0  0  0  0  0  0  0  0  0  0  0  0
   63.4391   34.9187   46.6875 H   0  0  0  0  0  0  0  0  0  0  0  0
   63.6962   33.3633   45.8004 H   0  0  0  0  0  0  0  0  0  0  0  0
   61.4220   33.9370   45.8480 H   0  0  0  0  0  0  0  0  0  0  0  0
   61.0307   33.4929   48.6878 H   0  0  0  0  0  0  0  0  0  0  0  0
   61.7474   35.0743   48.2012 H   0  0  0  0  0  0  0  0  0  0  0  0
   59.0450   34.5317   48.2496 H   0  0  0  0  0  0  0  0  0  0  0  0
   59.8339   35.7916   47.2171 H   0  0  0  0  0  0  0  0  0  0  0  0
   59.0855   35.9830   45.4623 H   0  0  0  0  0  0  0  0  0  0  0  0
   60.1055   34.8890   44.4675 H   0  0  0  0  0  0  0  0  0  0  0  0
   58.3194   34.6984   44.4675 H   0  0  0  0  0  0  0  0  0  0  0  0
   57.8851   33.1293   47.5141 H   0  0  0  0  0  0  0  0  0  0  0  0
   57.1859   34.0516   46.1321 H   0  0  0  0  0  0  0  0  0  0  0  0
   56.4976   32.9767   44.2301 H   0  0  0  0  0  0  0  0  0  0  0  0
   56.2061   30.9013   42.8998 H   0  0  0  0  0  0  0  0  0  0  0  0
   56.7138   28.5758   42.4916 H   0  0  0  0  0  0  0  0  0  0  0  0
   57.9392   26.4899   43.0901 H   0  0  0  0  0  0  0  0  0  0  0  0
   59.4895   26.4654   45.0405 H   0  0  0  0  0  0  0  0  0  0  0  0
   59.8163   28.5180   46.4098 H   0  0  0  0  0  0  0  0  0  0  0  0
   61.3020   30.6497   46.0870 H   0  0  0  0  0  0  0  0  0  0  0  0
   62.7590   30.7133   48.1119 H   0  0  0  0  0  0  0  0  0  0  0  0
   61.7448   31.0162   50.3743 H   0  0  0  0  0  0  0  0  0  0  0  0
   59.2686   31.2343   50.6145 H   0  0  0  0  0  0  0  0  0  0  0  0
   57.8053   31.1668   48.5940 H   0  0  0  0  0  0  0  0  0  0  0  0
  1  2  1  0
  2  3  1  0
  3  4  1  0
  4  5  1  0
  5  6  1  0
  6  7  1  0
  6  8  1  0
  8  9  1  0
  9 10  2  0
 10 11  1  0
 11 12  2  0
 12 13  1  0
 13 14  2  0
 14 15  1  0
 15 16  2  0
 16 17  1  0
 17 18  2  0
 18 19  1  0
 19 20  2  0
 20 21  1  0
 21 22  2  0
 22 23  1  0
 23 24  2  0
 18  9  1  0
 24 19  1  0
 17 12  1  0
  1 25  1  0
  1 26  1  0
  1 27  1  0
  2 28  1  0
  2 29  1  0
  3 30  1  0
  4 31  1  0
  4 32  1  0
  5 33  1  0
  5 34  1  0
  7 35  1  0
  7 36  1  0
  7 37  1  0
  8 38  1  0
  8 39  1  0
 10 40  1  0
 11 41  1  0
 13 42  1  0
 14 43  1  0
 15 44  1  0
 16 45  1  0
 20 46  1  0
 21 47  1  0
 22 48  1  0
 23 49  1  0
 24 50  1  0
M  END
>  <UniqueID>  (41) 
39

>  <SMILES>  (41) 
CCNCCN(C)Cc1ccc2ccccc2c1-c1ccccc1

>  <Energy>  (41) 
59.41705362523819

>  <Genealogy>  (41) 
CCNCCN(C)Cc1ccc2ccccc2c1-c1ccccc1 (3D coordinates assigned)
CCNCCN(C)Cc1ccc2ccccc2c1-c1ccccc1 (optimized conformer: 59.41705362523819 kcal/mol)

>  <smiles>  (41) 
CCNCCN(C)Cc1ccc2ccccc2c1-c1ccccc1

>  <score_type>  (41) 
oracle

>  <origin>  (41) 
adg

>  <m_score__min__energy>  (41) 
-8.0199999999999996

>  <m_primary>  (41) 
energy

$$$$
41:0
     RDKit          3D

 26 26  0  0  0  0  0  0  0  0999 V2000
   61.4745   34.1256   45.6886 H   0  0  0  0  0  0  0  0  0  0  0  0
   62.0450   33.8410   46.5850 C   0  0  0  0  0  0  0  0  0  0  0  0
   61.4310   33.8520   47.8450 C   0  0  0  0  0  0  0  0  0  0  0  0
   59.9770   34.2140   47.9770 C   0  0  0  0  0  0  0  0  0  0  0  0
   59.6838   34.8507   47.1293 H   0  0  0  0  0  0  0  0  0  0  0  0
   59.8285   34.7531   48.9243 H   0  0  0  0  0  0  0  0  0  0  0  0
   59.1480   33.0070   47.9830 N   0  0  0  0  0  0  0  0  0  0  0  0
   59.4180   32.2220   48.6200 H   0  0  0  0  0  0  0  0  0  0  0  0
   58.2290   32.6920   46.9240 C   0  0  0  0  0  0  0  0  0  0  0  0
   57.3080   33.5320   46.5350 N   0  0  0  0  0  0  0  0  0  0  0  0
   57.2620   34.2310   45.2570 C   0  0  0  0  0  0  0  0  0  0  0  0
   57.1907   35.3143   45.4340 H   0  0  0  0  0  0  0  0  0  0  0  0
   58.1765   34.0121   44.6862 H   0  0  0  0  0  0  0  0  0  0  0  0
   56.3841   33.8942   44.6862 H   0  0  0  0  0  0  0  0  0  0  0  0
   58.2860   31.3870   46.3350 N   0  0  0  0  0  0  0  0  0  0  0  0
   59.0090   30.7070   46.6590 H   0  0  0  0  0  0  0  0  0  0  0  0
   57.4070   30.9910   45.3150 C   0  0  0  0  0  0  0  0  0  0  0  0
   56.6830   30.6640   44.4740 N   0  0  0  0  0  0  0  0  0  0  0  0
   62.1720   33.4590   48.9690 C   0  0  0  0  0  0  0  0  0  0  0  0
   61.7022   33.4397   49.9634 H   0  0  0  0  0  0  0  0  0  0  0  0
   63.5120   33.0920   48.8160 C   0  0  0  0  0  0  0  0  0  0  0  0
   64.1025   32.7927   49.6945 H   0  0  0  0  0  0  0  0  0  0  0  0
   64.0880   33.1040   47.5830 N   0  0  0  0  0  0  0  0  0  0  0  0
   65.0900   32.8260   47.4860 H   0  0  0  0  0  0  0  0  0  0  0  0
   63.3870   33.4660   46.4750 C   0  0  0  0  0  0  0  0  0  0  0  0
   63.8773   33.4636   45.4903 H   0  0  0  0  0  0  0  0  0  0  0  0
  1  2  1  0
  2  3  2  0
  3  4  1  0
  4  5  1  0
  4  6  1  0
  4  7  1  0
  7  8  1  0
  7  9  1  0
  9 10  2  0
 10 11  1  0
 11 12  1  0
 11 13  1  0
 11 14  1  0
  9 15  1  0
 15 16  1  0
 15 17  1  0
 17 18  3  0
  3 19  1  0
 19 20  1  0
 19 21  2  0
 21 22  1  0
 21 23  1  0
 23 24  1  0
 23 25  2  0
 25 26  1  0
 25  2  1  0
M  CHG  1  23   1
M  END
>  <UniqueID>  (42) 
40

>  <SMILES>  (42) 
C/N=C(/NC#N)NCc1cc[nH+]cc1

>  <Energy>  (42) 
25.372134982175385

>  <Genealogy>  (42) 
CN=C(NC#N)NCc1cc[nH+]cc1 (protonated)
C/N=C(/NC#N)NCc1cc[nH+]cc1 (cis-trans isomerization)
C/N=C(/NC#N)NCc1cc[nH+]cc1 (3D coordinates assigned)
C/N=C(/NC#N)NCc1cc[nH+]cc1 (optimized conformer: 25.372134982175385 kcal/mol)

>  <smiles>  (42) 
CN=C(NC#N)NCc1ccncc1

>  <score_type>  (42) 
oracle

>  <origin>  (42) 
adg

>  <m_score__min__energy>  (42) 
-3.4199999999999999

>  <m_primary>  (42) 
energy

$$$$
42:0
     RDKit          3D

 52 55  0  0  0  0  0  0  0  0999 V2000
   56.3050   30.4020   43.2290 C   0  0  0  0  0  0  0  0  0  0  0  0
   56.2030   31.0360   44.5010 O   0  0  0  0  0  0  0  0  0  0  0  0
   57.1890   31.8620   45.0610 C   0  0  0  0  0  0  0  0  0  0  0  0
   57.0120   33.2560   45.1770 C   0  0  0  0  0  0  0  0  0  0  0  0
   58.0220   34.0560   45.7170 C   0  0  0  0  0  0  0  0  0  0  0  0
   59.2150   33.4790   46.1490 C   0  0  0  0  0  0  0  0  0  0  0  0
   59.4030   32.1000   46.0430 C   0  0  0  0  0  0  0  0  0  0  0  0
   58.3960   31.2810   45.5060 C   0  0  0  0  0  0  0  0  0  0  0  0
   58.5970   29.8570   45.4320 N   0  0  0  0  0  0  0  0  0  0  0  0
   59.9280   29.2990   45.1780 C   0  0  0  0  0  0  0  0  0  0  0  0
   60.3940   28.4510   46.3790 C   0  0  0  0  0  0  0  0  0  0  0  0
   59.2810   27.8270   47.1450 N   0  0  0  0  0  0  0  0  0  0  0  0
   58.9680   28.5610   48.3920 C   0  0  0  0  0  0  0  0  0  0  0  0
   60.2470   29.1300   49.0120 C   0  0  0  0  0  0  0  0  0  0  0  0
   60.0620   30.5520   49.3480 N   0  0  0  0  0  0  0  0  0  0  0  0
   58.9430   30.9410   50.1750 C   0  0  0  0  0  0  0  0  0  0  0  0
   58.1130   30.0820   50.5810 O   0  0  0  0  0  0  0  0  0  0  0  0
   58.7980   32.3630   50.6290 C   0  0  0  0  0  0  0  0  0  0  0  0
   59.4340   33.2620   49.7240 O   0  0  0  0  0  0  0  0  0  0  0  0
   60.6170   32.9320   49.0590 C   0  0  0  0  0  0  0  0  0  0  0  0
   61.4300   33.9520   48.5530 C   0  0  0  0  0  0  0  0  0  0  0  0
   62.6320   33.6380   47.9160 C   0  0  0  0  0  0  0  0  0  0  0  0
   63.0220   32.3050   47.7790 C   0  0  0  0  0  0  0  0  0  0  0  0
   62.2040   31.2790   48.2620 C   0  0  0  0  0  0  0  0  0  0  0  0
   60.9770   31.5800   48.8920 C   0  0  0  0  0  0  0  0  0  0  0  0
   58.0760   27.6090   46.3150 C   0  0  0  0  0  0  0  0  0  0  0  0
   57.5090   28.9370   45.7860 C   0  0  0  0  0  0  0  0  0  0  0  0
   56.4783   29.3248   43.3691 H   0  0  0  0  0  0  0  0  0  0  0  0
   55.3710   30.5532   42.6680 H   0  0  0  0  0  0  0  0  0  0  0  0
   57.1445   30.8385   42.6680 H   0  0  0  0  0  0  0  0  0  0  0  0
   56.0719   33.7170   44.8399 H   0  0  0  0  0  0  0  0  0  0  0  0
   57.8755   35.1429   45.8014 H   0  0  0  0  0  0  0  0  0  0  0  0
   60.0089   34.1109   46.5738 H   0  0  0  0  0  0  0  0  0  0  0  0
   60.3478   31.6507   46.3829 H   0  0  0  0  0  0  0  0  0  0  0  0
   59.8898   28.6651   44.2799 H   0  0  0  0  0  0  0  0  0  0  0  0
   60.6384   30.1253   45.0277 H   0  0  0  0  0  0  0  0  0  0  0  0
   61.0482   27.6500   46.0043 H   0  0  0  0  0  0  0  0  0  0  0  0
   60.9133   29.1327   47.0687 H   0  0  0  0  0  0  0  0  0  0  0  0
   58.2779   29.3865   48.1632 H   0  0  0  0  0  0  0  0  0  0  0  0
   58.5030   27.8668   49.1074 H   0  0  0  0  0  0  0  0  0  0  0  0
   60.4876   28.5690   49.9271 H   0  0  0  0  0  0  0  0  0  0  0  0
   61.0688   29.0372   48.2867 H   0  0  0  0  0  0  0  0  0  0  0  0
   57.7284   32.6126   50.6899 H   0  0  0  0  0  0  0  0  0  0  0  0
   59.2774   32.4641   51.6139 H   0  0  0  0  0  0  0  0  0  0  0  0
   61.1217   35.0028   48.6572 H   0  0  0  0  0  0  0  0  0  0  0  0
   63.2718   34.4414   47.5220 H   0  0  0  0  0  0  0  0  0  0  0  0
   63.9762   32.0607   47.2893 H   0  0  0  0  0  0  0  0  0  0  0  0
   62.5185   30.2308   48.1504 H   0  0  0  0  0  0  0  0  0  0  0  0
   58.3411   26.9680   45.4612 H   0  0  0  0  0  0  0  0  0  0  0  0
   57.3080   27.1301   46.9402 H   0  0  0  0  0  0  0  0  0  0  0  0
   56.8975   28.7393   44.8933 H   0  0  0  0  0  0  0  0  0  0  0  0
   56.8944   29.3994   46.5724 H   0  0  0  0  0  0  0  0  0  0  0  0
  1  2  1  0
  2  3  1  0
  3  4  2  0
  4  5  1  0
  5  6  2  0
  6  7  1  0
  7  8  2  0
  8  9  1  0
  9 10  1  0
 10 11  1  0
 11 12  1  0
 12 13  1  0
 13 14  1  0
 14 15  1  0
 15 16  1  0
 16 17  2  0
 16 18  1  0
 18 19  1  0
 19 20  1  0
 20 21  2  0
 21 22  1  0
 22 23  2  0
 23 24  1  0
 24 25  2  0
 12 26  1  0
 26 27  1  0
  8  3  1  0
 27  9  1  0
 25 15  1  0
 25 20  1  0
  1 28  1  0
  1 29  1  0
  1 30  1  0
  4 31  1  0
  5 32  1  0
  6 33  1  0
  7 34  1  0
 10 35  1  0
 10 36  1  0
 11 37  1  0
 11 38  1  0
 13 39  1  0
 13 40  1  0
 14 41  1  0
 14 42  1  0
 18 43  1  0
 18 44  1  0
 21 45  1  0
 22 46  1  0
 23 47  1  0
 24 48  1  0
 26 49  1  0
 26 50  1  0
 27 51  1  0
 27 52  1  0
M  END
>  <UniqueID>  (43) 
41

>  <SMILES>  (43) 
COc1ccccc1N1CCN(CCN2C(=O)COc3ccccc32)CC1

>  <Energy>  (43) 
70.22083496550036

>  <Genealogy>  (43) 
COc1ccccc1N1CCN(CCN2C(=O)COc3ccccc32)CC1 (3D coordinates assigned)
COc1ccccc1N1CCN(CCN2C(=O)COc3ccccc32)CC1 (nonaromatic ring conformer: 70.22083496550036 kcal/mol)

>  <smiles>  (43) 
COc1ccccc1N1CCN(CCN2C(=O)COc3ccccc32)CC1

>  <score_type>  (43) 
oracle

>  <origin>  (43) 
adg

>  <m_score__min__energy>  (43) 
-7.4500000000000002

>  <m_primary>  (43) 
energy

$$$$
43:0
     RDKit          3D

 53 55  0  0  0  0  0  0  0  0999 V2000
   63.7380   33.2060   46.7520 C   0  0  0  0  0  0  0  0  0  0  0  0
   63.5020   33.8300   48.1340 C   0  0  0  0  0  0  0  0  0  0  0  0
   62.9760   32.8880   49.1640 N   0  0  0  0  0  0  0  0  0  0  0  0
   63.9350   32.6250   50.2690 C   0  0  0  0  0  0  0  0  0  0  0  0
   65.4020   32.7100   49.8300 C   0  0  0  0  0  0  0  0  0  0  0  0
   61.6690   33.3040   49.7370 C   0  0  0  0  0  0  0  0  0  0  0  0
   60.6150   32.1800   49.7840 C   0  0  0  0  0  0  0  0  0  0  0  0
   61.0210   31.0360   49.0360 O   0  0  0  0  0  0  0  0  0  0  0  0
   61.0870   31.0070   47.6390 C   0  0  0  0  0  0  0  0  0  0  0  0
   62.1670   30.7080   47.0590 O   0  0  0  0  0  0  0  0  0  0  0  0
   59.8870   31.3160   46.8340 C   0  0  0  0  0  0  0  0  0  0  0  0
   59.0110   30.3390   46.3370 C   0  0  0  0  0  0  0  0  0  0  0  0
   59.0030   28.9420   46.6710 N   0  0  0  0  0  0  0  0  0  0  0  0
   59.1120   28.4140   47.9080 C   0  0  0  0  0  0  0  0  0  0  0  0
   59.1670   27.0660   47.8950 N   0  0  0  0  0  0  0  0  0  0  0  0
   59.0880   26.7500   46.5870 C   0  0  0  0  0  0  0  0  0  0  0  0
   59.1880   25.3580   46.0560 C   0  0  0  0  0  0  0  0  0  0  0  0
   59.0100   27.8950   45.8270 C   0  0  0  0  0  0  0  0  0  0  0  0
   57.8700   31.0620   45.3330 S   0  0  0  0  0  0  0  0  0  0  0  0
   58.4650   32.6210   45.5080 C   0  0  0  0  0  0  0  0  0  0  0  0
   59.5490   32.6150   46.3850 C   0  0  0  0  0  0  0  0  0  0  0  0
   60.3490   33.8700   46.6410 C   0  0  0  0  0  0  0  0  0  0  0  0
   59.5630   35.1400   46.2700 C   0  0  0  0  0  0  0  0  0  0  0  0
   58.8910   35.0020   44.8950 C   0  0  0  0  0  0  0  0  0  0  0  0
   57.8740   33.8520   44.8930 C   0  0  0  0  0  0  0  0  0  0  0  0
   64.1248   32.1833   46.8727 H   0  0  0  0  0  0  0  0  0  0  0  0
   62.7891   33.1760   46.1964 H   0  0  0  0  0  0  0  0  0  0  0  0
   64.4693   33.8114   46.1964 H   0  0  0  0  0  0  0  0  0  0  0  0
   64.4596   34.2327   48.4957 H   0  0  0  0  0  0  0  0  0  0  0  0
   62.7304   34.6020   47.9975 H   0  0  0  0  0  0  0  0  0  0  0  0
   62.8190   31.9710   48.6860 H   0  0  0  0  0  0  0  0  0  0  0  0
   63.7645   33.3664   51.0635 H   0  0  0  0  0  0  0  0  0  0  0  0
   63.7575   31.5969   50.6176 H   0  0  0  0  0  0  0  0  0  0  0  0
   66.0491   32.7475   50.7187 H   0  0  0  0  0  0  0  0  0  0  0  0
   65.6565   31.8251   49.2282 H   0  0  0  0  0  0  0  0  0  0  0  0
   65.5526   33.6184   49.2282 H   0  0  0  0  0  0  0  0  0  0  0  0
   61.8398   33.6603   50.7636 H   0  0  0  0  0  0  0  0  0  0  0  0
   61.2681   34.0868   49.0762 H   0  0  0  0  0  0  0  0  0  0  0  0
   60.4593   31.8826   50.8315 H   0  0  0  0  0  0  0  0  0  0  0  0
   59.6864   32.5658   49.3380 H   0  0  0  0  0  0  0  0  0  0  0  0
   59.1517   29.0171   48.8271 H   0  0  0  0  0  0  0  0  0  0  0  0
   59.2390   24.6483   46.8949 H   0  0  0  0  0  0  0  0  0  0  0  0
   58.3035   25.1358   45.4410 H   0  0  0  0  0  0  0  0  0  0  0  0
   60.0952   25.2645   45.4410 H   0  0  0  0  0  0  0  0  0  0  0  0
   58.9621   27.9446   44.7292 H   0  0  0  0  0  0  0  0  0  0  0  0
   60.6102   33.9131   47.7087 H   0  0  0  0  0  0  0  0  0  0  0  0
   61.2507   33.8325   46.0122 H   0  0  0  0  0  0  0  0  0  0  0  0
   58.7884   35.3165   47.0308 H   0  0  0  0  0  0  0  0  0  0  0  0
   60.2680   35.9834   46.2276 H   0  0  0  0  0  0  0  0  0  0  0  0
   58.3725   35.9412   44.6521 H   0  0  0  0  0  0  0  0  0  0  0  0
   59.6667   34.7853   44.1458 H   0  0  0  0  0  0  0  0  0  0  0  0
   56.9871   34.1534   45.4696 H   0  0  0  0  0  0  0  0  0  0  0  0
   57.5953   33.6284   43.8526 H   0  0  0  0  0  0  0  0  0  0  0  0
  1  2  1  0
  2  3  1  0
  3  4  1  0
  4  5  1  0
  3  6  1  0
  6  7  1  0
  7  8  1  0
  8  9  1  0
  9 10  2  0
  9 11  1  0
 11 12  2  0
 12 13  1  0
 13 14  1  0
 14 15  2  0
 15 16  1  0
 16 17  1  0
 16 18  2  0
 12 19  1  0
 19 20  1  0
 20 21  2  0
 21 22  1  0
 22 23  1  0
 23 24  1  0
 24 25  1  0
 21 11  1  0
 18 13  1  0
 25 20  1  0
  1 26  1  0
  1 27  1  0
  1 28  1  0
  2 29  1  0
  2 30  1  0
  3 31  1  0
  4 32  1  0
  4 33  1  0
  5 34  1  0
  5 35  1  0
  5 36  1  0
  6 37  1  0
  6 38  1  0
  7 39  1  0
  7 40  1  0
 14 41  1  0
 17 42  1  0
 17 43  1  0
 17 44  1  0
 18 45  1  0
 22 46  1  0
 22 47  1  0
 23 48  1  0
 23 49  1  0
 24 50  1  0
 24 51  1  0
 25 52  1  0
 25 53  1  0
M  CHG  1   3   1
M  END
>  <UniqueID>  (44) 
42

>  <SMILES>  (44) 
CC[NH+](CC)CCOC(=O)c1c(-n2cnc(C)c2)sc2c1CCCC2

>  <Energy>  (44) 
113.51228186910943

>  <Genealogy>  (44) 
CC[NH+](CC)CCOC(=O)c1c(-n2cnc(C)c2)sc2c1CCCC2 (protonated)
CC[NH+](CC)CCOC(=O)c1c(-n2cnc(C)c2)sc2c1CCCC2 (3D coordinates assigned)
CC[NH+](CC)CCOC(=O)c1c(-n2cnc(C)c2)sc2c1CCCC2 (nonaromatic ring conformer: 113.51228186910943 kcal/mol)

>  <smiles>  (44) 
CCN(CC)CCOC(=O)c1c(-n2cnc(C)c2)sc2c1CCCC2

>  <score_type>  (44) 
oracle

>  <origin>  (44) 
adg

>  <m_score__min__energy>  (44) 
-5.0899999999999999

>  <m_primary>  (44) 
energy

$$$$
44:0
     RDKit          3D

 31 33  0  0  0  0  0  0  0  0999 V2000
   56.8420   27.8030   45.5920 C   0  0  0  0  0  0  0  0  0  0  0  0
   56.1040   28.9300   45.1340 O   0  0  0  0  0  0  0  0  0  0  0  0
   56.6660   30.0330   44.4730 C   0  0  0  0  0  0  0  0  0  0  0  0
   56.4760   30.1460   43.0930 C   0  0  0  0  0  0  0  0  0  0  0  0
   57.0130   31.2250   42.3920 C   0  0  0  0  0  0  0  0  0  0  0  0
   57.7490   32.2050   43.0620 C   0  0  0  0  0  0  0  0  0  0  0  0
   57.9610   32.1130   44.4510 C   0  0  0  0  0  0  0  0  0  0  0  0
   58.7370   33.1450   45.1880 C   0  0  0  0  0  0  0  0  0  0  0  0
   58.4990   34.5210   45.1070 C   0  0  0  0  0  0  0  0  0  0  0  0
   59.6180   35.2990   46.0900 S   0  0  0  0  0  0  0  0  0  0  0  0
   60.3640   33.8730   46.5830 C   0  0  0  0  0  0  0  0  0  0  0  0
   61.5110   33.7690   47.5120 C   0  0  0  0  0  0  0  0  0  0  0  0
   62.7330   33.2310   47.0770 C   0  0  0  0  0  0  0  0  0  0  0  0
   63.8120   33.1340   47.9570 C   0  0  0  0  0  0  0  0  0  0  0  0
   63.6640   33.5770   49.2710 C   0  0  0  0  0  0  0  0  0  0  0  0
   62.4790   34.0970   49.6830 N   0  0  0  0  0  0  0  0  0  0  0  0
   61.4120   34.2020   48.8470 C   0  0  0  0  0  0  0  0  0  0  0  0
   59.7730   32.8020   46.0050 N   0  0  0  0  0  0  0  0  0  0  0  0
   57.4090   31.0210   45.1500 C   0  0  0  0  0  0  0  0  0  0  0  0
   56.8493   27.7919   46.6919 H   0  0  0  0  0  0  0  0  0  0  0  0
   56.3722   26.8809   45.2191 H   0  0  0  0  0  0  0  0  0  0  0  0
   57.8750   27.8650   45.2191 H   0  0  0  0  0  0  0  0  0  0  0  0
   55.8990   29.3786   42.5563 H   0  0  0  0  0  0  0  0  0  0  0  0
   56.8563   31.3049   41.3062 H   0  0  0  0  0  0  0  0  0  0  0  0
   58.1658   33.0543   42.5008 H   0  0  0  0  0  0  0  0  0  0  0  0
   57.7171   35.0080   44.5058 H   0  0  0  0  0  0  0  0  0  0  0  0
   62.8403   32.8846   46.0385 H   0  0  0  0  0  0  0  0  0  0  0  0
   64.7696   32.7123   47.6175 H   0  0  0  0  0  0  0  0  0  0  0  0
   64.5071   33.5052   49.9738 H   0  0  0  0  0  0  0  0  0  0  0  0
   60.4671   34.6274   49.2160 H   0  0  0  0  0  0  0  0  0  0  0  0
   57.5597   30.9387   46.2365 H   0  0  0  0  0  0  0  0  0  0  0  0
  1  2  1  0
  2  3  1  0
  3  4  2  0
  4  5  1  0
  5  6  2  0
  6  7  1  0
  7  8  1  0
  8  9  2  0
  9 10  1  0
 10 11  1  0
 11 12  1  0
 12 13  2  0
 13 14  1  0
 14 15  2  0
 15 16  1  0
 16 17  2  0
 11 18  2  0
  7 19  2  0
 19  3  1  0
 18  8  1  0
 17 12  1  0
  1 20  1  0
  1 21  1  0
  1 22  1  0
  4 23  1  0
  5 24  1  0
  6 25  1  0
  9 26  1  0
 13 27  1  0
 14 28  1  0
 15 29  1  0
 17 30  1  0
 19 31  1  0
M  END
>  <UniqueID>  (45) 
43

>  <SMILES>  (45) 
COc1cccc(-c2csc(-c3cccnc3)n2)c1

>  <Energy>  (45) 
66.68364700692182

>  <Genealogy>  (45) 
COc1cccc(-c2csc(-c3cccnc3)n2)c1 (3D coordinates assigned)
COc1cccc(-c2csc(-c3cccnc3)n2)c1 (optimized conformer: 66.68364700692182 kcal/mol)

>  <smiles>  (45) 
COc1cccc(-c2csc(-c3cccnc3)n2)c1

>  <score_type>  (45) 
oracle

>  <origin>  (45) 
adg

>  <m_score__min__energy>  (45) 
-7.4800000000000004

>  <m_primary>  (45) 
energy

$$$$
