0:0
     RDKit          3D

 46 49  0  0  0  0  0  0  0  0999 V2000
   65.8384   32.4979   49.6789 H   0  0  0  0  0  0  0  0  0  0  0  0
   64.7820   32.7980   49.6160 C   0  0  0  0  0  0  0  0  0  0  0  0
   64.0120   32.9060   50.7890 C   0  0  0  0  0  0  0  0  0  0  0  0
   64.4744   32.7056   51.7668 H   0  0  0  0  0  0  0  0  0  0  0  0
   62.6570   33.2680   50.7190 C   0  0  0  0  0  0  0  0  0  0  0  0
   62.0601   33.3839   51.6356 H   0  0  0  0  0  0  0  0  0  0  0  0
   62.0790   33.4790   49.4590 C   0  0  0  0  0  0  0  0  0  0  0  0
   62.8550   33.4180   48.3200 C   0  0  0  0  0  0  0  0  0  0  0  0
   64.2060   33.0720   48.3670 C   0  0  0  0  0  0  0  0  0  0  0  0
   64.8051   33.0155   47.4462 H   0  0  0  0  0  0  0  0  0  0  0  0
   62.0720   33.8460   47.1730 C   0  0  0  0  0  0  0  0  0  0  0  0
   62.5100   33.9260   45.9950 O   0  0  0  0  0  0  0  0  0  0  0  0
   60.6820   34.2210   47.5950 C   0  0  1  0  0  0  0  0  0  0  0  0
   60.4069   35.2603   47.3622 H   0  0  0  0  0  0  0  0  0  0  0  0
   59.6420   33.3890   46.8780 C   0  0  0  0  0  0  0  0  0  0  0  0
   58.4350   33.9750   46.4690 C   0  0  0  0  0  0  0  0  0  0  0  0
   58.2505   35.0405   46.6704 H   0  0  0  0  0  0  0  0  0  0  0  0
   57.4650   33.2170   45.8080 C   0  0  0  0  0  0  0  0  0  0  0  0
   56.5225   33.6888   45.4931 H   0  0  0  0  0  0  0  0  0  0  0  0
   57.6880   31.8520   45.5430 C   0  0  0  0  0  0  0  0  0  0  0  0
   56.7460   31.0490   44.8830 O   0  0  0  0  0  0  0  0  0  0  0  0
   56.9350   30.4890   43.5870 C   0  0  0  0  0  0  0  0  0  0  0  0
   57.2854   29.4508   43.6837 H   0  0  0  0  0  0  0  0  0  0  0  0
   55.9818   30.5047   43.0382 H   0  0  0  0  0  0  0  0  0  0  0  0
   57.6838   31.0791   43.0382 H   0  0  0  0  0  0  0  0  0  0  0  0
   58.8920   31.2680   45.9480 C   0  0  0  0  0  0  0  0  0  0  0  0
   59.0764   30.2027   45.7451 H   0  0  0  0  0  0  0  0  0  0  0  0
   59.8630   32.0250   46.6080 C   0  0  0  0  0  0  0  0  0  0  0  0
   60.8064   31.5523   46.9188 H   0  0  0  0  0  0  0  0  0  0  0  0
   60.7210   33.9190   49.0720 C   0  0  0  0  0  0  0  0  0  0  0  0
   59.6650   34.0190   49.8280 N   0  0  0  0  0  0  0  0  0  0  0  0
   58.9000   32.9430   50.3800 C   0  0  0  0  0  0  0  0  0  0  0  0
   58.2550   33.0870   51.6180 C   0  0  0  0  0  0  0  0  0  0  0  0
   58.2966   34.0495   52.1488 H   0  0  0  0  0  0  0  0  0  0  0  0
   57.5600   32.0120   52.1790 C   0  0  0  0  0  0  0  0  0  0  0  0
   57.0381   32.1374   53.1392 H   0  0  0  0  0  0  0  0  0  0  0  0
   57.5260   30.7680   51.5180 C   0  0  0  0  0  0  0  0  0  0  0  0
   56.8390   29.6600   52.0370 O   0  0  0  0  0  0  0  0  0  0  0  0
   55.6940   29.7460   52.8760 C   0  0  0  0  0  0  0  0  0  0  0  0
   56.0089   29.7223   53.9297 H   0  0  0  0  0  0  0  0  0  0  0  0
   55.1610   30.6867   52.6736 H   0  0  0  0  0  0  0  0  0  0  0  0
   55.0264   28.8955   52.6736 H   0  0  0  0  0  0  0  0  0  0  0  0
   58.2030   30.6230   50.3010 C   0  0  0  0  0  0  0  0  0  0  0  0
   58.1874   29.6540   49.7805 H   0  0  0  0  0  0  0  0  0  0  0  0
   58.8980   31.6980   49.7420 C   0  0  0  0  0  0  0  0  0  0  0  0
   59.4454   31.5652   48.7972 H   0  0  0  0  0  0  0  0  0  0  0  0
  1  2  1  0
  2  3  2  0
  3  4  1  0
  3  5  1  0
  5  6  1  0
  5  7  2  0
  7  8  1  0
  8  9  2  0
  9 10  1  0
  8 11  1  0
 11 12  2  0
 11 13  1  0
 13 14  1  1
 13 15  1  0
 15 16  2  0
 16 17  1  0
 16 18  1  0
 18 19  1  0
 18 20  2  0
 20 21  1  0
 21 22  1  0
 22 23  1  0
 22 24  1  0
 22 25  1  0
 20 26  1  0
 26 27  1  0
 26 28  2  0
 28 29  1  0
 13 30  1  0
 30 31  2  0
 31 32  1  0
 32 33  2  0
 33 34  1  0
 33 35  1  0
 35 36  1  0
 35 37  2  0
 37 38  1  0
 38 39  1  0
 39 40  1  0
 39 41  1  0
 39 42  1  0
 37 43  1  0
 43 44  1  0
 43 45  2  0
 45 46  1  0
  9  2  1  0
 28 15  1  0
 45 32  1  0
 30  7  1  0
M  END
>  <UniqueID>  (1) 
1

>  <SMILES>  (1) 
COc1ccc(/N=C2\c3ccccc3C(=O)[C@H]2c2ccc(OC)cc2)cc1

>  <Energy>  (1) 
79.27657564850641

>  <Genealogy>  (1) 
COc1ccc(N=C2c3ccccc3C(=O)[C@H]2c2ccc(OC)cc2)cc1 (chirality)
COc1ccc(/N=C2\c3ccccc3C(=O)[C@H]2c2ccc(OC)cc2)cc1 (cis-trans isomerization)
COc1ccc(/N=C2\c3ccccc3C(=O)[C@H]2c2ccc(OC)cc2)cc1 (3D coordinates assigned)
COc1ccc(/N=C2\c3ccccc3C(=O)[C@H]2c2ccc(OC)cc2)cc1 (nonaromatic ring conformer: 79.27657564850641 kcal/mol)

>  <smiles>  (1) 
COc1ccc(N=C2c3ccccc3C(=O)C2c2ccc(OC)cc2)cc1

>  <score_type>  (1) 
oracle

>  <origin>  (1) 
adg

>  <m_score__min__energy>  (1) 
-8.6199999999999992

>  <m_primary>  (1) 
energy

$$$$
1:0
     RDKit          3D

 43 45  0  0  0  0  0  0  0  0999 V2000
   64.6670   33.3020   49.9770 C   0  0  0  0  0  0  0  0  0  0  0  0
   63.2790   33.4340   49.5530 N   0  0  0  0  0  0  0  0  0  0  0  0
   62.3440   34.2110   50.1350 C   0  0  0  0  0  0  0  0  0  0  0  0
   61.1720   34.1660   49.4040 C   0  0  0  0  0  0  0  0  0  0  0  0
   61.4260   33.3270   48.3310 C   0  0  0  0  0  0  0  0  0  0  0  0
   60.5130   33.0070   47.2640 N   0  0  0  0  0  0  0  0  0  0  0  0
   60.5740   31.7300   46.5500 C   0  0  0  0  0  0  0  0  0  0  0  0
   59.1250   31.1960   46.2380 C   0  0  2  0  0  0  0  0  0  0  0  0
   58.6550   30.3300   47.4440 C   0  0  0  0  0  0  0  0  0  0  0  0
   58.9350   28.8430   47.2350 C   0  0  0  0  0  0  0  0  0  0  0  0
   58.1840   28.3200   46.0010 C   0  0  0  0  0  0  0  0  0  0  0  0
   58.1660   29.2740   44.8700 N   0  0  0  0  0  0  0  0  0  0  0  0
   56.5630   29.7950   44.3840 S   0  0  0  0  0  0  0  0  0  0  0  0
   56.2590   29.7080   42.6270 C   0  0  0  0  0  0  0  0  0  0  0  0
   56.3910   31.2270   44.8070 O   0  0  0  0  0  0  0  0  0  0  0  0
   55.5210   28.9690   45.0860 O   0  0  0  0  0  0  0  0  0  0  0  0
   59.1760   30.3480   44.9300 C   0  0  0  0  0  0  0  0  0  0  0  0
   58.1410   32.2270   46.0710 O   0  0  0  0  0  0  0  0  0  0  0  0
   58.6580   33.4810   45.6720 C   0  0  0  0  0  0  0  0  0  0  0  0
   59.6160   33.9690   46.7050 C   0  0  0  0  0  0  0  0  0  0  0  0
   59.6690   35.1900   47.0170 O   0  0  0  0  0  0  0  0  0  0  0  0
   62.7370   32.9020   48.4410 C   0  0  0  0  0  0  0  0  0  0  0  0
   64.7158   33.2974   51.0759 H   0  0  0  0  0  0  0  0  0  0  0  0
   65.0814   32.3604   49.5876 H   0  0  0  0  0  0  0  0  0  0  0  0
   65.2515   34.1486   49.5876 H   0  0  0  0  0  0  0  0  0  0  0  0
   62.4919   34.7946   51.0556 H   0  0  0  0  0  0  0  0  0  0  0  0
   60.2306   34.6890   49.6281 H   0  0  0  0  0  0  0  0  0  0  0  0
   61.1182   31.8707   45.6045 H   0  0  0  0  0  0  0  0  0  0  0  0
   61.0926   30.9953   47.1835 H   0  0  0  0  0  0  0  0  0  0  0  0
   59.1842   30.6658   48.3480 H   0  0  0  0  0  0  0  0  0  0  0  0
   57.5669   30.4563   47.5447 H   0  0  0  0  0  0  0  0  0  0  0  0
   60.0154   28.6954   47.0902 H   0  0  0  0  0  0  0  0  0  0  0  0
   58.5908   28.2892   48.1209 H   0  0  0  0  0  0  0  0  0  0  0  0
   58.6701   27.3920   45.6655 H   0  0  0  0  0  0  0  0  0  0  0  0
   57.1388   28.1590   46.3038 H   0  0  0  0  0  0  0  0  0  0  0  0
   55.2153   29.4093   42.4498 H   0  0  0  0  0  0  0  0  0  0  0  0
   56.4401   30.6940   42.1743 H   0  0  0  0  0  0  0  0  0  0  0  0
   56.9343   28.9671   42.1743 H   0  0  0  0  0  0  0  0  0  0  0  0
   60.1730   29.8896   44.8539 H   0  0  0  0  0  0  0  0  0  0  0  0
   58.9600   31.0342   44.0978 H   0  0  0  0  0  0  0  0  0  0  0  0
   59.1786   33.3744   44.7089 H   0  0  0  0  0  0  0  0  0  0  0  0
   57.8343   34.2018   45.5628 H   0  0  0  0  0  0  0  0  0  0  0  0
   63.2540   32.2365   47.7340 H   0  0  0  0  0  0  0  0  0  0  0  0
  1  2  1  0
  2  3  1  0
  3  4  2  0
  4  5  1  0
  5  6  1  0
  6  7  1  0
  7  8  1  0
  8  9  1  0
  9 10  1  0
 10 11  1  0
 11 12  1  0
 12 13  1  0
 13 14  1  0
 13 15  2  0
 13 16  2  0
 12 17  1  0
  8 18  1  6
 18 19  1  0
 19 20  1  0
 20 21  2  0
  5 22  2  0
 22  2  1  0
 20  6  1  0
 17  8  1  0
  1 23  1  0
  1 24  1  0
  1 25  1  0
  3 26  1  0
  4 27  1  0
  7 28  1  0
  7 29  1  0
  9 30  1  0
  9 31  1  0
 10 32  1  0
 10 33  1  0
 11 34  1  0
 11 35  1  0
 14 36  1  0
 14 37  1  0
 14 38  1  0
 17 39  1  0
 17 40  1  0
 19 41  1  0
 19 42  1  0
 22 43  1  0
M  END
>  <UniqueID>  (2) 
2

>  <SMILES>  (2) 
Cn1ccc(N2C[C@@]3(CCCN(S(C)(=O)=O)C3)OCC2=O)c1

>  <Energy>  (2) 
92.00163839789752

>  <Genealogy>  (2) 
Cn1ccc(N2C[C@@]3(CCCN(S(C)(=O)=O)C3)OCC2=O)c1 (chirality)
Cn1ccc(N2C[C@@]3(CCCN(S(C)(=O)=O)C3)OCC2=O)c1 (3D coordinates assigned)
Cn1ccc(N2C[C@@]3(CCCN(S(C)(=O)=O)C3)OCC2=O)c1 (nonaromatic ring conformer: 92.00163839789752 kcal/mol)

>  <smiles>  (2) 
Cn1ccc(N2CC3(CCCN(S(C)(=O)=O)C3)OCC2=O)c1

>  <score_type>  (2) 
oracle

>  <origin>  (2) 
adg

>  <m_score__min__energy>  (2) 
-7.7999999999999998

>  <m_primary>  (2) 
energy

$$$$
2:0
     RDKit          3D

 63 67  0  0  0  0  0  0  0  0999 V2000
   60.5769   26.6799   46.1271 H   0  0  0  0  0  0  0  0  0  0  0  0
   59.9770   27.4230   46.6730 C   0  0  0  0  0  0  0  0  0  0  0  0
   58.9190   27.9590   46.0460 C   0  0  0  0  0  0  0  0  0  0  0  0
   57.1990   27.5100   46.3650 S   0  0  0  0  0  0  0  0  0  0  0  0
   56.7130   28.7810   45.1940 C   0  0  0  0  0  0  0  0  0  0  0  0
   55.5100   28.9650   44.8720 O   0  0  0  0  0  0  0  0  0  0  0  0
   57.7740   29.5500   44.6340 N   0  0  0  0  0  0  0  0  0  0  0  0
   57.6120   30.5340   43.5630 C   0  0  0  0  0  0  0  0  0  0  0  0
   58.4475   30.4409   42.8536 H   0  0  0  0  0  0  0  0  0  0  0  0
   56.6595   30.3493   43.0447 H   0  0  0  0  0  0  0  0  0  0  0  0
   57.5990   31.9520   44.1490 C   0  0  0  0  0  0  0  0  0  0  0  0
   58.4186   32.5268   43.6931 H   0  0  0  0  0  0  0  0  0  0  0  0
   56.6150   32.3901   43.9260 H   0  0  0  0  0  0  0  0  0  0  0  0
   57.7760   31.9750   45.6790 C   0  0  0  0  0  0  0  0  0  0  0  0
   56.8930   31.5065   46.1382 H   0  0  0  0  0  0  0  0  0  0  0  0
   58.7043   31.4295   45.9042 H   0  0  0  0  0  0  0  0  0  0  0  0
   57.9330   33.3920   46.2610 C   0  0  0  0  0  0  0  0  0  0  0  0
   57.3173   34.0853   45.6692 H   0  0  0  0  0  0  0  0  0  0  0  0
   57.6108   33.3561   47.3122 H   0  0  0  0  0  0  0  0  0  0  0  0
   59.3370   33.8690   46.2400 N   0  0  0  0  0  0  0  0  0  0  0  0
   59.5670   35.0020   47.1730 C   0  0  0  0  0  0  0  0  0  0  0  0
   60.2722   35.7017   46.7007 H   0  0  0  0  0  0  0  0  0  0  0  0
   58.5855   35.4586   47.3684 H   0  0  0  0  0  0  0  0  0  0  0  0
   60.1450   34.5790   48.5420 C   0  0  0  0  0  0  0  0  0  0  0  0
   61.2355   34.7227   48.5331 H   0  0  0  0  0  0  0  0  0  0  0  0
   59.6840   35.1977   49.3260 H   0  0  0  0  0  0  0  0  0  0  0  0
   59.8480   33.1710   48.8190 N   0  0  0  0  0  0  0  0  0  0  0  0
   59.2200   32.7680   50.0510 C   0  0  0  0  0  0  0  0  0  0  0  0
   59.2850   33.5970   51.1870 C   0  0  0  0  0  0  0  0  0  0  0  0
   59.8327   34.5496   51.1371 H   0  0  0  0  0  0  0  0  0  0  0  0
   58.6580   33.2180   52.3790 C   0  0  0  0  0  0  0  0  0  0  0  0
   58.7181   33.8683   53.2641 H   0  0  0  0  0  0  0  0  0  0  0  0
   57.9560   32.0130   52.4430 C   0  0  0  0  0  0  0  0  0  0  0  0
   57.9000   31.1720   51.3240 C   0  0  0  0  0  0  0  0  0  0  0  0
   58.5120   31.5550   50.1260 C   0  0  0  0  0  0  0  0  0  0  0  0
   58.4394   30.9062   49.2407 H   0  0  0  0  0  0  0  0  0  0  0  0
   57.2290   29.9500   51.4250 O   0  0  0  0  0  0  0  0  0  0  0  0
   56.8440   29.4220   52.6980 C   0  0  0  0  0  0  0  0  0  0  0  0
   56.0324   28.6928   52.5583 H   0  0  0  0  0  0  0  0  0  0  0  0
   57.7136   28.9327   53.1610 H   0  0  0  0  0  0  0  0  0  0  0  0
   56.3580   30.5510   53.6160 C   0  0  0  0  0  0  0  0  0  0  0  0
   55.3853   30.9180   53.2566 H   0  0  0  0  0  0  0  0  0  0  0  0
   56.2583   30.1623   54.6402 H   0  0  0  0  0  0  0  0  0  0  0  0
   57.2980   31.6280   53.6160 O   0  0  0  0  0  0  0  0  0  0  0  0
   60.2540   32.1650   47.8310 C   0  0  0  0  0  0  0  0  0  0  0  0
   61.2405   31.7641   48.1068 H   0  0  0  0  0  0  0  0  0  0  0  0
   59.5071   31.3576   47.8175 H   0  0  0  0  0  0  0  0  0  0  0  0
   60.3360   32.7910   46.4280 C   0  0  0  0  0  0  0  0  0  0  0  0
   61.3425   33.2112   46.2852 H   0  0  0  0  0  0  0  0  0  0  0  0
   60.1253   32.0014   45.6917 H   0  0  0  0  0  0  0  0  0  0  0  0
   59.0270   29.0700   45.1000 C   0  0  0  0  0  0  0  0  0  0  0  0
   60.1250   29.5580   44.7180 O   0  0  0  0  0  0  0  0  0  0  0  0
   60.3880   27.7670   48.0500 C   0  0  0  0  0  0  0  0  0  0  0  0
   60.4940   26.7460   49.0060 C   0  0  0  0  0  0  0  0  0  0  0  0
   60.2947   25.7033   48.7179 H   0  0  0  0  0  0  0  0  0  0  0  0
   60.8520   27.0480   50.3240 C   0  0  0  0  0  0  0  0  0  0  0  0
   60.9488   26.2410   51.0652 H   0  0  0  0  0  0  0  0  0  0  0  0
   61.0870   28.3730   50.7010 C   0  0  0  0  0  0  0  0  0  0  0  0
   61.3766   28.6076   51.7359 H   0  0  0  0  0  0  0  0  0  0  0  0
   60.9540   29.3990   49.7630 C   0  0  0  0  0  0  0  0  0  0  0  0
   61.1304   30.4427   50.0623 H   0  0  0  0  0  0  0  0  0  0  0  0
   60.5970   29.1020   48.4440 C   0  0  0  0  0  0  0  0  0  0  0  0
   60.4791   29.9144   47.7119 H   0  0  0  0  0  0  0  0  0  0  0  0
  1  2  1  0
  2  3  2  0
  3  4  1  0
  4  5  1  0
  5  6  2  0
  5  7  1  0
  7  8  1  0
  8  9  1  0
  8 10  1  0
  8 11  1  0
 11 12  1  0
 11 13  1  0
 11 14  1  0
 14 15  1  0
 14 16  1  0
 14 17  1  0
 17 18  1  0
 17 19  1  0
 17 20  1  0
 20 21  1  0
 21 22  1  0
 21 23  1  0
 21 24  1  0
 24 25  1  0
 24 26  1  0
 24 27  1  0
 27 28  1  0
 28 29  2  0
 29 30  1  0
 29 31  1  0
 31 32  1  0
 31 33  2  0
 33 34  1  0
 34 35  2  0
 35 36  1  0
 34 37  1  0
 37 38  1  0
 38 39  1  0
 38 40  1  0
 38 41  1  0
 41 42  1  0
 41 43  1  0
 41 44  1  0
 27 45  1  0
 45 46  1  0
 45 47  1  0
 45 48  1  0
 48 49  1  0
 48 50  1  0
  7 51  1  0
 51 52  2  0
  2 53  1  0
 53 54  2  0
 54 55  1  0
 54 56  1  0
 56 57  1  0
 56 58  2  0
 58 59  1  0
 58 60  1  0
 60 61  1  0
 60 62  2  0
 62 63  1  0
 51  3  1  0
 62 53  1  0
 48 20  1  0
 35 28  1  0
 44 33  1  0
M  END
>  <UniqueID>  (3) 
3

>  <SMILES>  (3) 
O=C1S/C(=C\c2ccccc2)C(=O)N1CCCCN1CCN(c2ccc3c(c2)OCCO3)CC1

>  <Energy>  (3) 
102.28031339359016

>  <Genealogy>  (3) 
O=C1S/C(=C\c2ccccc2)C(=O)N1CCCCN1CCN(c2ccc3c(c2)OCCO3)CC1 (cis-trans isomerization)
O=C1S/C(=C\c2ccccc2)C(=O)N1CCCCN1CCN(c2ccc3c(c2)OCCO3)CC1 (3D coordinates assigned)
O=C1S/C(=C\c2ccccc2)C(=O)N1CCCCN1CCN(c2ccc3c(c2)OCCO3)CC1 (nonaromatic ring conformer: 102.28031339359016 kcal/mol)

>  <smiles>  (3) 
O=C1SC(=Cc2ccccc2)C(=O)N1CCCCN1CCN(c2ccc3c(c2)OCCO3)CC1

>  <score_type>  (3) 
oracle

>  <origin>  (3) 
adg

>  <m_score__min__energy>  (3) 
-9.2100000000000009

>  <m_primary>  (3) 
energy

$$$$
3:0
     RDKit          3D

 76 78  0  0  0  0  0  0  0  0999 V2000
   60.6510   29.0360   45.1230 C   0  0  0  0  0  0  0  0  0  0  0  0
   59.5760   28.4850   45.6940 C   0  0  0  0  0  0  0  0  0  0  0  0
   58.8820   29.1290   46.8620 C   0  0  0  0  0  0  0  0  0  0  0  0
   59.6390   28.8830   48.1350 C   0  0  0  0  0  0  0  0  0  0  0  0
   60.2250   27.3740   48.4300 S   0  0  0  0  0  0  0  0  0  0  0  0
   59.7150   29.9210   49.1280 N   0  0  0  0  0  0  0  0  0  0  0  0
   60.4520   29.8040   50.3870 C   0  0  0  0  0  0  0  0  0  0  0  0
   59.6190   29.0610   51.4330 C   0  0  0  0  0  0  0  0  0  0  0  0
   58.7620   30.0110   52.1580 N   0  0  0  0  0  0  0  0  0  0  0  0
   57.3980   30.0790   51.6040 C   0  0  0  0  0  0  0  0  0  0  0  0
   56.5610   31.1850   52.2600 C   0  0  0  0  0  0  0  0  0  0  0  0
   57.4600   32.1400   52.9310 N   0  0  0  0  0  0  0  0  0  0  0  0
   57.7680   31.7510   54.3140 C   0  0  0  0  0  0  0  0  0  0  0  0
   59.2550   31.9400   54.5990 C   0  0  0  0  0  0  0  0  0  0  0  0
   59.8970   32.5650   53.4470 N   0  0  0  0  0  0  0  0  0  0  0  0
   60.9890   32.0080   52.7020 C   0  0  0  0  0  0  0  0  0  0  0  0
   61.3450   30.8290   52.9720 O   0  0  0  0  0  0  0  0  0  0  0  0
   61.7830   32.7960   51.6690 C   0  0  1  0  0  0  0  0  0  0  0  0
   62.5470   33.8930   52.4340 C   0  0  0  0  0  0  0  0  0  0  0  0
   62.8010   31.8730   50.9270 C   0  0  0  0  0  0  0  0  0  0  0  0
   62.9910   32.2210   49.4670 C   0  0  0  0  0  0  0  0  0  0  0  0
   62.5320   31.3530   48.4600 C   0  0  0  0  0  0  0  0  0  0  0  0
   62.6900   31.6900   47.1130 C   0  0  0  0  0  0  0  0  0  0  0  0
   63.3130   32.8890   46.7590 C   0  0  0  0  0  0  0  0  0  0  0  0
   63.7850   33.7520   47.7520 C   0  0  0  0  0  0  0  0  0  0  0  0
   63.6290   33.4190   49.1000 C   0  0  0  0  0  0  0  0  0  0  0  0
   60.9020   33.4680   50.7070 N   0  0  0  0  0  0  0  0  0  0  0  0
   59.7890   33.0310   49.9040 C   0  0  0  0  0  0  0  0  0  0  0  0
   58.9280   32.3100   50.4700 O   0  0  0  0  0  0  0  0  0  0  0  0
   59.5670   33.3830   48.4790 C   0  0  0  0  0  0  0  0  0  0  0  0
   59.9670   34.6170   47.9650 C   0  0  0  0  0  0  0  0  0  0  0  0
   59.5530   34.6690   46.3420 S   0  0  0  0  0  0  0  0  0  0  0  0
   58.8760   33.1290   46.3420 C   0  0  0  0  0  0  0  0  0  0  0  0
   58.2820   32.4560   45.1620 C   0  0  0  0  0  0  0  0  0  0  0  0
   58.4610   32.9790   43.8640 C   0  0  0  0  0  0  0  0  0  0  0  0
   57.9030   32.3330   42.7570 C   0  0  0  0  0  0  0  0  0  0  0  0
   57.1620   31.1620   42.9290 C   0  0  0  0  0  0  0  0  0  0  0  0
   56.9760   30.6360   44.2090 C   0  0  0  0  0  0  0  0  0  0  0  0
   57.5310   31.2780   45.3180 C   0  0  0  0  0  0  0  0  0  0  0  0
   58.9560   32.5700   47.5740 N   0  0  0  0  0  0  0  0  0  0  0  0
   61.1359   28.5394   44.2696 H   0  0  0  0  0  0  0  0  0  0  0  0
   61.0511   29.9863   45.5063 H   0  0  0  0  0  0  0  0  0  0  0  0
   59.1882   27.5345   45.2989 H   0  0  0  0  0  0  0  0  0  0  0  0
   58.8130   30.2129   46.6874 H   0  0  0  0  0  0  0  0  0  0  0  0
   57.8774   28.6916   46.9595 H   0  0  0  0  0  0  0  0  0  0  0  0
   59.2100   30.8160   48.9490 H   0  0  0  0  0  0  0  0  0  0  0  0
   61.3857   29.2503   50.2089 H   0  0  0  0  0  0  0  0  0  0  0  0
   60.6734   30.8138   50.7628 H   0  0  0  0  0  0  0  0  0  0  0  0
   58.9894   28.3109   50.9321 H   0  0  0  0  0  0  0  0  0  0  0  0
   60.2931   28.5644   52.1464 H   0  0  0  0  0  0  0  0  0  0  0  0
   59.2040   30.9590   52.1350 H   0  0  0  0  0  0  0  0  0  0  0  0
   57.4637   30.2777   50.5241 H   0  0  0  0  0  0  0  0  0  0  0  0
   56.9035   29.1171   51.8045 H   0  0  0  0  0  0  0  0  0  0  0  0
   55.9760   31.7093   51.4900 H   0  0  0  0  0  0  0  0  0  0  0  0
   55.8761   30.7415   52.9978 H   0  0  0  0  0  0  0  0  0  0  0  0
   58.3600   32.1810   52.3970 H   0  0  0  0  0  0  0  0  0  0  0  0
   57.1838   32.3761   55.0054 H   0  0  0  0  0  0  0  0  0  0  0  0
   57.5090   30.6911   54.4535 H   0  0  0  0  0  0  0  0  0  0  0  0
   59.3799   32.5839   55.4821 H   0  0  0  0  0  0  0  0  0  0  0  0
   59.7185   30.9608   54.7898 H   0  0  0  0  0  0  0  0  0  0  0  0
   62.4345   33.7315   53.5162 H   0  0  0  0  0  0  0  0  0  0  0  0
   63.6131   33.8522   52.1660 H   0  0  0  0  0  0  0  0  0  0  0  0
   62.1391   34.8788   52.1660 H   0  0  0  0  0  0  0  0  0  0  0  0
   63.7747   31.9544   51.4322 H   0  0  0  0  0  0  0  0  0  0  0  0
   62.3918   30.8525   50.9619 H   0  0  0  0  0  0  0  0  0  0  0  0
   62.0465   30.4047   48.7339 H   0  0  0  0  0  0  0  0  0  0  0  0
   62.3231   31.0099   46.3302 H   0  0  0  0  0  0  0  0  0  0  0  0
   63.4322   33.1542   45.6981 H   0  0  0  0  0  0  0  0  0  0  0  0
   64.2795   34.6939   47.4721 H   0  0  0  0  0  0  0  0  0  0  0  0
   64.0074   34.0979   49.8784 H   0  0  0  0  0  0  0  0  0  0  0  0
   60.4680   35.4180   48.5283 H   0  0  0  0  0  0  0  0  0  0  0  0
   59.0435   33.9012   43.7221 H   0  0  0  0  0  0  0  0  0  0  0  0
   58.0479   32.7479   41.7486 H   0  0  0  0  0  0  0  0  0  0  0  0
   56.7250   30.6542   42.0565 H   0  0  0  0  0  0  0  0  0  0  0  0
   56.3912   29.7142   44.3441 H   0  0  0  0  0  0  0  0  0  0  0  0
   57.3791   30.8579   46.3232 H   0  0  0  0  0  0  0  0  0  0  0  0
  1  2  2  0
  2  3  1  0
  3  4  1  0
  4  5  2  0
  4  6  1  0
  6  7  1  0
  7  8  1  0
  8  9  1  0
  9 10  1  0
 10 11  1  0
 11 12  1  0
 12 13  1  0
 13 14  1  0
 14 15  1  0
 15 16  1  0
 16 17  2  0
 16 18  1  0
 18 19  1  0
 18 20  1  0
 20 21  1  0
 21 22  2  0
 22 23  1  0
 23 24  2  0
 24 25  1  0
 25 26  2  0
 18 27  1  6
 27 28  1  0
 28 29  2  0
 28 30  1  0
 30 31  2  0
 31 32  1  0
 32 33  1  0
 33 34  1  0
 34 35  2  0
 35 36  1  0
 36 37  2  0
 37 38  1  0
 38 39  2  0
 33 40  2  0
 26 21  1  0
 40 30  1  0
 39 34  1  0
  1 41  1  0
  1 42  1  0
  2 43  1  0
  3 44  1  0
  3 45  1  0
  6 46  1  0
  7 47  1  0
  7 48  1  0
  8 49  1  0
  8 50  1  0
  9 51  1  0
 10 52  1  0
 10 53  1  0
 11 54  1  0
 11 55  1  0
 12 56  1  0
 13 57  1  0
 13 58  1  0
 14 59  1  0
 14 60  1  0
 19 61  1  0
 19 62  1  0
 19 63  1  0
 20 64  1  0
 20 65  1  0
 22 66  1  0
 23 67  1  0
 24 68  1  0
 25 69  1  0
 26 70  1  0
 31 71  1  0
 35 72  1  0
 36 73  1  0
 37 74  1  0
 38 75  1  0
 39 76  1  0
M  CHG  2  15  -1  27  -1
M  END
>  <UniqueID>  (4) 
4

>  <SMILES>  (4) 
C=CCC(=S)NCCNCCNCC[N-]C(=O)[C@@](C)(Cc1ccccc1)[N-]C(=O)c1csc(-c2ccccc2)n1

>  <Energy>  (4) 
105.77991540213863

>  <Genealogy>  (4) 
C=CCC(=S)NCCNCCNCC[N-]C(=O)C(C)(Cc1ccccc1)[N-]C(=O)c1csc(-c2ccccc2)n1 (protonated)
C=CCC(=S)NCCNCCNCC[N-]C(=O)[C@@](C)(Cc1ccccc1)[N-]C(=O)c1csc(-c2ccccc2)n1 (chirality)
C=CCC(=S)NCCNCCNCC[N-]C(=O)[C@@](C)(Cc1ccccc1)[N-]C(=O)c1csc(-c2ccccc2)n1 (3D coordinates assigned)
C=CCC(=S)NCCNCCNCC[N-]C(=O)[C@@](C)(Cc1ccccc1)[N-]C(=O)c1csc(-c2ccccc2)n1 (optimized conformer: 105.77991540213863 kcal/mol)

>  <smiles>  (4) 
C=CCC(=S)NCCNCCNCCNC(=O)C(C)(Cc1ccccc1)NC(=O)c1csc(-c2ccccc2)n1

>  <score_type>  (4) 
oracle

>  <origin>  (4) 
adg

>  <m_score__min__energy>  (4) 
-13.23

>  <m_primary>  (4) 
energy

$$$$
4:0
     RDKit          3D

 35 36  0  0  0  0  0  0  0  0999 V2000
   56.2720   23.6880   43.3700 C   0  0  0  0  0  0  0  0  0  0  0  0
   56.9390   22.3260   43.5650 C   0  0  0  0  0  0  0  0  0  0  0  0
   58.1500   22.3820   44.5130 C   0  0  0  0  0  0  0  0  0  0  0  0
   58.0590   23.5020   45.5570 C   0  0  0  0  0  0  0  0  0  0  0  0
   57.4610   22.9970   46.8020 N   0  0  0  0  0  0  0  0  0  0  0  0
   57.0290   24.0950   47.6740 C   0  0  0  0  0  0  0  0  0  0  0  0
   56.6580   25.2870   46.8490 C   0  0  0  0  0  0  0  0  0  0  0  0
   57.4790   26.3520   46.5460 C   0  0  0  0  0  0  0  0  0  0  0  0
   56.6490   27.2120   45.8490 C   0  0  0  0  0  0  0  0  0  0  0  0
   56.9950   28.5340   45.2780 C   0  0  0  0  0  0  0  0  0  0  0  0
   56.0300   29.3280   44.6270 C   0  0  0  0  0  0  0  0  0  0  0  0
   56.3810   30.5710   44.0940 C   0  0  0  0  0  0  0  0  0  0  0  0
   57.6950   31.0370   44.2030 C   0  0  0  0  0  0  0  0  0  0  0  0
   58.1320   32.5980   43.5320 Cl  0  0  0  0  0  0  0  0  0  0  0  0
   58.6600   30.2570   44.8470 C   0  0  0  0  0  0  0  0  0  0  0  0
   58.3130   29.0120   45.3820 C   0  0  0  0  0  0  0  0  0  0  0  0
   55.4550   26.6680   45.7730 O   0  0  0  0  0  0  0  0  0  0  0  0
   55.4210   25.5120   46.3690 N   0  0  0  0  0  0  0  0  0  0  0  0
   56.0539   24.1334   44.3519 H   0  0  0  0  0  0  0  0  0  0  0  0
   56.9477   24.3502   42.8089 H   0  0  0  0  0  0  0  0  0  0  0  0
   55.3345   23.5602   42.8089 H   0  0  0  0  0  0  0  0  0  0  0  0
   56.1979   21.6290   43.9832 H   0  0  0  0  0  0  0  0  0  0  0  0
   57.3045   21.9939   42.5821 H   0  0  0  0  0  0  0  0  0  0  0  0
   58.2239   21.4196   45.0405 H   0  0  0  0  0  0  0  0  0  0  0  0
   59.0358   22.5879   43.8942 H   0  0  0  0  0  0  0  0  0  0  0  0
   59.0691   23.8826   45.7688 H   0  0  0  0  0  0  0  0  0  0  0  0
   57.4258   24.3089   45.1595 H   0  0  0  0  0  0  0  0  0  0  0  0
   56.6150   22.4350   46.5440 H   0  0  0  0  0  0  0  0  0  0  0  0
   56.1566   23.7724   48.2612 H   0  0  0  0  0  0  0  0  0  0  0  0
   57.8536   24.3657   48.3498 H   0  0  0  0  0  0  0  0  0  0  0  0
   58.5412   26.4862   46.7983 H   0  0  0  0  0  0  0  0  0  0  0  0
   54.9946   28.9673   44.5379 H   0  0  0  0  0  0  0  0  0  0  0  0
   55.6217   31.1847   43.5873 H   0  0  0  0  0  0  0  0  0  0  0  0
   59.6938   30.6229   44.9331 H   0  0  0  0  0  0  0  0  0  0  0  0
   59.0767   28.4027   45.8876 H   0  0  0  0  0  0  0  0  0  0  0  0
  1  2  1  0
  2  3  1  0
  3  4  1  0
  4  5  1  0
  5  6  1  0
  6  7  1  0
  7  8  1  0
  8  9  2  0
  9 10  1  0
 10 11  2  0
 11 12  1  0
 12 13  2  0
 13 14  1  0
 13 15  1  0
 15 16  2  0
  9 17  1  0
 17 18  1  0
 18  7  2  0
 16 10  1  0
  1 19  1  0
  1 20  1  0
  1 21  1  0
  2 22  1  0
  2 23  1  0
  3 24  1  0
  3 25  1  0
  4 26  1  0
  4 27  1  0
  5 28  1  0
  6 29  1  0
  6 30  1  0
  8 31  1  0
 11 32  1  0
 12 33  1  0
 15 34  1  0
 16 35  1  0
M  END
>  <UniqueID>  (5) 
5

>  <SMILES>  (5) 
CCCCNCc1cc(-c2ccc(Cl)cc2)on1

>  <Energy>  (5) 
57.61304593731703

>  <Genealogy>  (5) 
CCCCNCc1cc(-c2ccc(Cl)cc2)on1 (3D coordinates assigned)
CCCCNCc1cc(-c2ccc(Cl)cc2)on1 (optimized conformer: 57.61304593731703 kcal/mol)

>  <smiles>  (5) 
CCCCNCc1cc(-c2ccc(Cl)cc2)on1

>  <score_type>  (5) 
oracle

>  <origin>  (5) 
adg

>  <m_score__min__energy>  (5) 
-6.9100000000000001

>  <m_primary>  (5) 
energy

$$$$
5:0
     RDKit          3D

 49 51  0  0  1  0  0  0  0  0999 V2000
   60.2160   29.5820   48.8190 C   0  0  0  0  0  0  0  0  0  0  0  0
   59.1150   30.6260   49.0430 C   0  0  0  0  0  0  0  0  0  0  0  0
   58.7470   30.6210   50.3620 O   0  0  0  0  0  0  0  0  0  0  0  0
   59.1260   31.7160   51.0890 C   0  0  0  0  0  0  0  0  0  0  0  0
   60.5640   31.6220   51.4860 C   0  0  0  0  0  0  0  0  0  0  0  0
   61.0420   32.9000   52.1650 C   0  0  0  0  0  0  0  0  0  0  0  0
   61.5670   33.8690   51.2410 N   0  0  0  0  0  0  0  0  0  0  0  0
   62.4300   33.5300   50.3500 C   0  0  0  0  0  0  0  0  0  0  0  0
   63.7660   33.3160   50.6110 C   0  0  0  0  0  0  0  0  0  0  0  0
   64.5610   32.9570   49.5450 C   0  0  0  0  0  0  0  0  0  0  0  0
   66.0080   32.7280   49.8450 C   0  0  0  0  0  0  0  0  0  0  0  0
   64.0690   32.8160   48.2920 N   0  0  0  0  0  0  0  0  0  0  0  0
   62.7460   33.0330   48.0550 C   0  0  0  0  0  0  0  0  0  0  0  0
   61.9990   32.9660   46.9190 N   0  0  0  0  0  0  0  0  0  0  0  0
   60.7220   33.2730   47.2080 C   0  0  0  0  0  0  0  0  0  0  0  0
   59.5610   33.3350   46.3250 C   0  0  0  0  0  0  0  0  0  0  0  0
   59.1990   34.5170   45.7070 C   0  0  0  0  0  0  0  0  0  0  0  0
   58.1090   34.5880   44.8730 C   0  0  0  0  0  0  0  0  0  0  0  0
   57.3790   33.4550   44.6640 C   0  0  0  0  0  0  0  0  0  0  0  0
   57.7160   32.2640   45.2660 C   0  0  0  0  0  0  0  0  0  0  0  0
   57.0010   31.0850   45.0820 O   0  0  0  0  0  0  0  0  0  0  0  0
   56.9030   30.4100   43.8460 C   0  0  0  0  0  0  0  0  0  0  0  0
   58.8120   32.1950   46.1040 C   0  0  0  0  0  0  0  0  0  0  0  0
   60.7040   33.5330   48.5620 C   0  0  0  0  0  0  0  0  0  0  0  0
   61.9440   33.3870   49.0830 N   0  0  0  0  0  0  0  0  0  0  0  0
   60.5891   29.2282   49.7914 H   0  0  0  0  0  0  0  0  0  0  0  0
   59.8063   28.7328   48.2525 H   0  0  0  0  0  0  0  0  0  0  0  0
   61.0423   30.0363   48.2525 H   0  0  0  0  0  0  0  0  0  0  0  0
   59.4930   31.6225   48.7709 H   0  0  0  0  0  0  0  0  0  0  0  0
   58.2440   30.3825   48.4169 H   0  0  0  0  0  0  0  0  0  0  0  0
   58.9789   32.6206   50.4806 H   0  0  0  0  0  0  0  0  0  0  0  0
   58.5123   31.7617   52.0008 H   0  0  0  0  0  0  0  0  0  0  0  0
   60.6880   30.7796   52.1825 H   0  0  0  0  0  0  0  0  0  0  0  0
   61.1634   31.4702   50.5762 H   0  0  0  0  0  0  0  0  0  0  0  0
   60.1929   33.3507   52.6996 H   0  0  0  0  0  0  0  0  0  0  0  0
   61.8588   32.6223   52.8474 H   0  0  0  0  0  0  0  0  0  0  0  0
   64.1788   33.4268   51.6246 H   0  0  0  0  0  0  0  0  0  0  0  0
   66.1573   32.7044   50.9346 H   0  0  0  0  0  0  0  0  0  0  0  0
   66.3252   31.7685   49.4106 H   0  0  0  0  0  0  0  0  0  0  0  0
   66.6059   33.5427   49.4106 H   0  0  0  0  0  0  0  0  0  0  0  0
   64.7050   32.5430   47.5120 H   0  0  0  0  0  0  0  0  0  0  0  0
   59.7974   35.4223   45.8869 H   0  0  0  0  0  0  0  0  0  0  0  0
   57.8323   35.5348   44.3862 H   0  0  0  0  0  0  0  0  0  0  0  0
   56.5026   33.4939   44.0004 H   0  0  0  0  0  0  0  0  0  0  0  0
   56.7471   29.3361   44.0261 H   0  0  0  0  0  0  0  0  0  0  0  0
   56.0540   30.8130   43.2744 H   0  0  0  0  0  0  0  0  0  0  0  0
   57.8316   30.5549   43.2744 H   0  0  0  0  0  0  0  0  0  0  0  0
   59.0847   31.2459   46.5886 H   0  0  0  0  0  0  0  0  0  0  0  0
   59.8100   33.8181   49.1360 H   0  0  0  0  0  0  0  0  0  0  0  0
  1  2  1  0
  2  3  1  0
  3  4  1  0
  4  5  1  0
  5  6  1  0
  6  7  1  0
  7  8  2  0
  8  9  1  0
  9 10  2  0
 10 11  1  0
 10 12  1  0
 12 13  1  0
 13 14  2  0
 14 15  1  0
 15 16  1  0
 16 17  2  0
 17 18  1  0
 18 19  2  0
 19 20  1  0
 20 21  1  0
 21 22  1  0
 20 23  2  0
 15 24  2  0
 24 25  1  0
 25  8  1  0
 25 13  1  0
 23 16  1  0
  1 26  1  0
  1 27  1  0
  1 28  1  0
  2 29  1  0
  2 30  1  0
  4 31  1  0
  4 32  1  0
  5 33  1  0
  5 34  1  0
  6 35  1  0
  6 36  1  0
  9 37  1  0
 11 38  1  0
 11 39  1  0
 11 40  1  0
 12 41  1  0
 17 42  1  0
 18 43  1  0
 19 44  1  0
 22 45  1  0
 22 46  1  0
 22 47  1  0
 23 48  1  0
 24 49  1  0
M  END
>  <smiles>  (6) 
CCOCCCN=c1cc(C)[nH]c2nc(-c3cccc(OC)c3)cn12

>  <score_type>  (6) 
oracle

>  <origin>  (6) 
adg

>  <m_score__min__energy>  (6) 
-7.4500000000000002

>  <m_primary>  (6) 
energy

$$$$
6:0
     RDKit          3D

 42 44  0  0  1  0  0  0  0  0999 V2000
   57.7720   32.3210   41.5830 C   0  0  0  0  0  0  0  0  0  0  0  0
   57.7630   31.7900   42.9920 C   0  0  0  0  0  0  0  0  0  0  0  0
   56.6700   30.7290   43.1030 C   0  0  0  0  0  0  0  0  0  0  0  0
   56.4010   30.5350   44.4960 N   0  0  0  0  0  0  0  0  0  0  0  0
   56.9980   29.6380   45.1940 C   0  0  0  0  0  0  0  0  0  0  0  0
   56.5740   28.3710   45.0570 N   0  0  0  0  0  0  0  0  0  0  0  0
   57.1380   27.3620   45.7460 C   0  0  0  0  0  0  0  0  0  0  0  0
   56.6620   26.0000   45.5800 C   0  0  0  0  0  0  0  0  0  0  0  0
   57.3880   24.9850   45.0230 C   0  0  0  0  0  0  0  0  0  0  0  0
   56.9030   23.6960   44.8790 C   0  0  0  0  0  0  0  0  0  0  0  0
   55.6330   23.4010   45.3100 C   0  0  0  0  0  0  0  0  0  0  0  0
   54.9090   24.4430   45.8730 C   0  0  0  0  0  0  0  0  0  0  0  0
   55.4050   25.6860   46.0000 N   0  0  0  0  0  0  0  0  0  0  0  0
   58.1640   27.6720   46.5960 C   0  0  0  0  0  0  0  0  0  0  0  0
   58.6140   28.9790   46.7490 C   0  0  0  0  0  0  0  0  0  0  0  0
   59.6800   29.2710   47.6380 N   0  0  0  0  0  0  0  0  0  0  0  0
   60.6610   30.3150   47.4440 C   0  0  0  0  0  0  0  0  0  0  0  0
   61.1970   30.6070   48.8380 C   0  0  0  0  0  0  0  0  0  0  0  0
   60.4220   29.7240   49.7830 C   0  0  0  0  0  0  0  0  0  0  0  0
   59.9800   28.5990   48.8700 C   0  0  0  0  0  0  0  0  0  0  0  0
   58.0050   29.9350   46.0290 N   0  0  0  0  0  0  0  0  0  0  0  0
   57.7906   33.4206   41.6057 H   0  0  0  0  0  0  0  0  0  0  0  0
   58.6640   31.9499   41.0570 H   0  0  0  0  0  0  0  0  0  0  0  0
   56.8680   31.9804   41.0570 H   0  0  0  0  0  0  0  0  0  0  0  0
   58.7401   31.3421   43.2260 H   0  0  0  0  0  0  0  0  0  0  0  0
   57.5681   32.6076   43.7017 H   0  0  0  0  0  0  0  0  0  0  0  0
   55.7600   31.0715   42.5885 H   0  0  0  0  0  0  0  0  0  0  0  0
   56.9939   29.7875   42.6353 H   0  0  0  0  0  0  0  0  0  0  0  0
   58.4075   25.2026   44.6719 H   0  0  0  0  0  0  0  0  0  0  0  0
   57.5296   22.9151   44.4233 H   0  0  0  0  0  0  0  0  0  0  0  0
   55.2106   22.3899   45.2139 H   0  0  0  0  0  0  0  0  0  0  0  0
   53.8878   24.2435   46.2298 H   0  0  0  0  0  0  0  0  0  0  0  0
   58.6448   26.8680   47.1725 H   0  0  0  0  0  0  0  0  0  0  0  0
   61.4691   29.9696   46.7824 H   0  0  0  0  0  0  0  0  0  0  0  0
   60.2290   31.2083   46.9692 H   0  0  0  0  0  0  0  0  0  0  0  0
   62.2702   30.3715   48.8904 H   0  0  0  0  0  0  0  0  0  0  0  0
   61.0797   31.6696   49.0969 H   0  0  0  0  0  0  0  0  0  0  0  0
   61.0613   29.3509   50.5967 H   0  0  0  0  0  0  0  0  0  0  0  0
   59.5912   30.2371   50.2895 H   0  0  0  0  0  0  0  0  0  0  0  0
   60.7867   27.8641   48.7315 H   0  0  0  0  0  0  0  0  0  0  0  0
   59.1265   28.0313   49.2691 H   0  0  0  0  0  0  0  0  0  0  0  0
   58.3360   30.9160   46.1380 H   0  0  0  0  0  0  0  0  0  0  0  0
  1  2  1  0
  2  3  1  0
  3  4  1  0
  4  5  2  0
  5  6  1  0
  6  7  2  0
  7  8  1  0
  8  9  2  0
  9 10  1  0
 10 11  2  0
 11 12  1  0
 12 13  2  0
  7 14  1  0
 14 15  2  0
 15 16  1  0
 16 17  1  0
 17 18  1  0
 18 19  1  0
 19 20  1  0
 15 21  1  0
 21  5  1  0
 13  8  1  0
 20 16  1  0
  1 22  1  0
  1 23  1  0
  1 24  1  0
  2 25  1  0
  2 26  1  0
  3 27  1  0
  3 28  1  0
  9 29  1  0
 10 30  1  0
 11 31  1  0
 12 32  1  0
 14 33  1  0
 17 34  1  0
 17 35  1  0
 18 36  1  0
 18 37  1  0
 19 38  1  0
 19 39  1  0
 20 40  1  0
 20 41  1  0
 21 42  1  0
M  END
>  <smiles>  (7) 
CCCN=c1nc(-c2ccccn2)cc(N2CCCC2)[nH]1

>  <score_type>  (7) 
oracle

>  <origin>  (7) 
adg

>  <m_score__min__energy>  (7) 
-6.6500000000000004

>  <m_primary>  (7) 
energy

$$$$
7:0
     RDKit          3D

 44 47  0  0  0  0  0  0  0  0999 V2000
   56.9980   34.2390   44.8830 C   0  0  0  0  0  0  0  0  0  0  0  0
   57.1250   33.7890   46.2290 O   0  0  0  0  0  0  0  0  0  0  0  0
   58.3470   33.5900   46.8880 C   0  0  0  0  0  0  0  0  0  0  0  0
   59.0940   34.7170   47.2490 C   0  0  0  0  0  0  0  0  0  0  0  0
   60.3190   34.5780   47.9040 C   0  0  0  0  0  0  0  0  0  0  0  0
   60.8130   33.3060   48.2070 C   0  0  0  0  0  0  0  0  0  0  0  0
   62.0090   33.1800   48.8340 N   0  0  0  0  0  0  0  0  0  0  0  0
   62.5260   31.9610   49.1420 C   0  0  0  0  0  0  0  0  0  0  0  0
   63.8470   31.8820   49.8150 C   0  0  0  0  0  0  0  0  0  0  0  0
   64.8760   32.7710   49.4490 C   0  0  0  0  0  0  0  0  0  0  0  0
   66.1290   32.6970   50.0650 C   0  0  0  0  0  0  0  0  0  0  0  0
   66.3730   31.7330   51.0460 C   0  0  0  0  0  0  0  0  0  0  0  0
   65.3660   30.8380   51.4090 C   0  0  0  0  0  0  0  0  0  0  0  0
   64.1100   30.9080   50.7990 C   0  0  0  0  0  0  0  0  0  0  0  0
   61.8200   30.8350   48.8310 N   0  0  0  0  0  0  0  0  0  0  0  0
   60.6250   30.9000   48.1810 C   0  0  0  0  0  0  0  0  0  0  0  0
   59.7980   29.3540   47.7550 S   0  0  0  0  0  0  0  0  0  0  0  0
   59.9520   29.5890   45.9480 C   0  0  0  0  0  0  0  0  0  0  0  0
   58.6100   29.8240   45.3130 C   0  0  0  0  0  0  0  0  0  0  0  0
   58.4800   30.6620   44.1950 C   0  0  0  0  0  0  0  0  0  0  0  0
   57.2320   30.8410   43.5970 C   0  0  0  0  0  0  0  0  0  0  0  0
   56.1210   30.1780   44.1210 C   0  0  0  0  0  0  0  0  0  0  0  0
   56.2610   29.3650   45.2020 N   0  0  0  0  0  0  0  0  0  0  0  0
   57.4660   29.1740   45.8030 C   0  0  0  0  0  0  0  0  0  0  0  0
   60.0770   32.1570   47.8530 C   0  0  0  0  0  0  0  0  0  0  0  0
   58.8420   32.3060   47.1930 C   0  0  0  0  0  0  0  0  0  0  0  0
   56.6992   35.2976   44.8770 H   0  0  0  0  0  0  0  0  0  0  0  0
   57.9627   34.1273   44.3665 H   0  0  0  0  0  0  0  0  0  0  0  0
   56.2340   33.6394   44.3665 H   0  0  0  0  0  0  0  0  0  0  0  0
   58.7124   35.7217   47.0145 H   0  0  0  0  0  0  0  0  0  0  0  0
   60.8969   35.4716   48.1823 H   0  0  0  0  0  0  0  0  0  0  0  0
   64.6927   33.5289   48.6731 H   0  0  0  0  0  0  0  0  0  0  0  0
   66.9246   33.3997   49.7764 H   0  0  0  0  0  0  0  0  0  0  0  0
   67.3584   31.6795   51.5320 H   0  0  0  0  0  0  0  0  0  0  0  0
   65.5609   30.0752   52.1772 H   0  0  0  0  0  0  0  0  0  0  0  0
   63.3216   30.1979   51.0891 H   0  0  0  0  0  0  0  0  0  0  0  0
   62.1850   29.8940   49.0970 H   0  0  0  0  0  0  0  0  0  0  0  0
   60.5980   30.4577   45.7531 H   0  0  0  0  0  0  0  0  0  0  0  0
   60.3870   28.6765   45.5144 H   0  0  0  0  0  0  0  0  0  0  0  0
   59.3627   31.1783   43.7896 H   0  0  0  0  0  0  0  0  0  0  0  0
   57.1248   31.4981   42.7213 H   0  0  0  0  0  0  0  0  0  0  0  0
   55.1318   30.3132   43.6593 H   0  0  0  0  0  0  0  0  0  0  0  0
   57.5445   28.5085   46.6753 H   0  0  0  0  0  0  0  0  0  0  0  0
   58.2602   31.4152   46.9139 H   0  0  0  0  0  0  0  0  0  0  0  0
  1  2  1  0
  2  3  1  0
  3  4  2  0
  4  5  1  0
  5  6  2  0
  6  7  1  0
  7  8  2  0
  8  9  1  0
  9 10  2  0
 10 11  1  0
 11 12  2  0
 12 13  1  0
 13 14  2  0
  8 15  1  0
 15 16  2  0
 16 17  1  0
 17 18  1  0
 18 19  1  0
 19 20  2  0
 20 21  1  0
 21 22  2  0
 22 23  1  0
 23 24  2  0
 16 25  1  0
 25 26  2  0
 26  3  1  0
 25  6  1  0
 14  9  1  0
 24 19  1  0
  1 27  1  0
  1 28  1  0
  1 29  1  0
  4 30  1  0
  5 31  1  0
 10 32  1  0
 11 33  1  0
 12 34  1  0
 13 35  1  0
 14 36  1  0
 15 37  1  0
 18 38  1  0
 18 39  1  0
 20 40  1  0
 21 41  1  0
 22 42  1  0
 24 43  1  0
 26 44  1  0
M  CHG  1  15   1
M  END
>  <UniqueID>  (8) 
6

>  <SMILES>  (8) 
COc1ccc2nc(-c3ccccc3)[nH+]c(SCc3cccnc3)c2c1

>  <Energy>  (8) 
50.01397264069724

>  <Genealogy>  (8) 
COc1ccc2nc(-c3ccccc3)[nH+]c(SCc3cccnc3)c2c1 (protonated)
COc1ccc2nc(-c3ccccc3)[nH+]c(SCc3cccnc3)c2c1 (3D coordinates assigned)
COc1ccc2nc(-c3ccccc3)[nH+]c(SCc3cccnc3)c2c1 (optimized conformer: 50.01397264069724 kcal/mol)

>  <smiles>  (8) 
COc1ccc2nc(-c3ccccc3)nc(SCc3cccnc3)c2c1

>  <score_type>  (8) 
oracle

>  <origin>  (8) 
adg

>  <m_score__min__energy>  (8) 
-6.8899999999999997

>  <m_primary>  (8) 
energy

$$$$
8:0
     RDKit          3D

 53 55  0  0  0  0  0  0  0  0999 V2000
   59.3040   34.7760   45.0160 C   0  0  0  0  0  0  0  0  0  0  0  0
   59.1680   33.7320   46.0840 C   0  0  0  0  0  0  0  0  0  0  0  0
   58.0010   33.6560   46.8560 C   0  0  0  0  0  0  0  0  0  0  0  0
   57.8970   32.7050   47.8730 C   0  0  0  0  0  0  0  0  0  0  0  0
   58.9760   31.8460   48.1250 C   0  0  0  0  0  0  0  0  0  0  0  0
   58.8800   30.7890   49.1830 C   0  0  0  0  0  0  0  0  0  0  0  0
   59.6370   29.6030   48.7630 N   0  0  0  0  0  0  0  0  0  0  0  0
   58.8250   28.7120   47.9200 C   0  0  0  0  0  0  0  0  0  0  0  0
   59.4740   28.4950   46.5280 C   0  0  0  0  0  0  0  0  0  0  0  0
   58.6170   29.0810   45.3820 C   0  0  0  0  0  0  0  0  0  0  0  0
   57.2700   28.3470   45.2560 C   0  0  0  0  0  0  0  0  0  0  0  0
   57.4200   26.9090   45.5240 N   0  0  0  0  0  0  0  0  0  0  0  0
   56.3130   26.1650   46.0670 C   0  0  0  0  0  0  0  0  0  0  0  0
   55.1470   26.6450   46.0160 O   0  0  0  0  0  0  0  0  0  0  0  0
   56.5350   24.9030   46.7060 N   0  0  0  0  0  0  0  0  0  0  0  0
   55.7100   23.7250   46.4560 C   0  0  0  0  0  0  0  0  0  0  0  0
   56.3040   22.9120   45.3400 C   0  0  0  0  0  0  0  0  0  0  0  0
   55.9890   23.2060   44.0060 C   0  0  0  0  0  0  0  0  0  0  0  0
   56.5730   22.4710   42.9720 C   0  0  0  0  0  0  0  0  0  0  0  0
   57.4690   21.4460   43.2830 C   0  0  0  0  0  0  0  0  0  0  0  0
   57.7730   21.1740   44.5820 N   0  0  0  0  0  0  0  0  0  0  0  0
   57.2180   21.8790   45.6050 C   0  0  0  0  0  0  0  0  0  0  0  0
   58.7470   26.2980   45.3680 C   0  0  0  0  0  0  0  0  0  0  0  0
   59.7710   26.9870   46.2900 C   0  0  0  0  0  0  0  0  0  0  0  0
   60.1020   31.9390   47.3660 N   0  0  0  0  0  0  0  0  0  0  0  0
   60.2250   32.8580   46.3710 C   0  0  0  0  0  0  0  0  0  0  0  0
   59.4327   35.7636   45.4829 H   0  0  0  0  0  0  0  0  0  0  0  0
   60.1802   34.5490   44.3908 H   0  0  0  0  0  0  0  0  0  0  0  0
   58.3989   34.7811   44.3908 H   0  0  0  0  0  0  0  0  0  0  0  0
   57.1666   34.3457   46.6607 H   0  0  0  0  0  0  0  0  0  0  0  0
   56.9768   32.6304   48.4711 H   0  0  0  0  0  0  0  0  0  0  0  0
   59.2967   31.1748   50.1251 H   0  0  0  0  0  0  0  0  0  0  0  0
   57.8250   30.5156   49.3322 H   0  0  0  0  0  0  0  0  0  0  0  0
   60.4460   29.9340   48.1850 H   0  0  0  0  0  0  0  0  0  0  0  0
   58.7244   27.7387   48.4226 H   0  0  0  0  0  0  0  0  0  0  0  0
   57.8411   29.1810   47.7716 H   0  0  0  0  0  0  0  0  0  0  0  0
   60.4269   29.0445   46.5240 H   0  0  0  0  0  0  0  0  0  0  0  0
   58.4270   30.1452   45.5854 H   0  0  0  0  0  0  0  0  0  0  0  0
   59.1687   28.9563   44.4386 H   0  0  0  0  0  0  0  0  0  0  0  0
   56.5597   28.7744   45.9790 H   0  0  0  0  0  0  0  0  0  0  0  0
   56.9002   28.4726   44.2277 H   0  0  0  0  0  0  0  0  0  0  0  0
   55.6628   23.1124   47.3684 H   0  0  0  0  0  0  0  0  0  0  0  0
   54.6972   24.0460   46.1709 H   0  0  0  0  0  0  0  0  0  0  0  0
   55.2817   24.0158   43.7736 H   0  0  0  0  0  0  0  0  0  0  0  0
   56.3297   22.6972   41.9234 H   0  0  0  0  0  0  0  0  0  0  0  0
   57.9303   20.8570   42.4766 H   0  0  0  0  0  0  0  0  0  0  0  0
   58.4500   20.4080   44.7970 H   0  0  0  0  0  0  0  0  0  0  0  0
   57.4864   21.6388   46.6443 H   0  0  0  0  0  0  0  0  0  0  0  0
   58.6868   25.2308   45.6278 H   0  0  0  0  0  0  0  0  0  0  0  0
   59.0724   26.4168   44.3240 H   0  0  0  0  0  0  0  0  0  0  0  0
   59.7652   26.4731   47.2626 H   0  0  0  0  0  0  0  0  0  0  0  0
   60.7495   26.9243   45.7914 H   0  0  0  0  0  0  0  0  0  0  0  0
   61.1571   32.9154   45.7897 H   0  0  0  0  0  0  0  0  0  0  0  0
  1  2  1  0
  2  3  2  0
  3  4  1  0
  4  5  2  0
  5  6  1  0
  6  7  1  0
  7  8  1  0
  8  9  1  0
  9 10  1  0
 10 11  1  0
 11 12  1  0
 12 13  1  0
 13 14  2  0
 13 15  1  0
 15 16  1  0
 16 17  1  0
 17 18  2  0
 18 19  1  0
 19 20  2  0
 20 21  1  0
 21 22  2  0
 12 23  1  0
 23 24  1  0
  5 25  1  0
 25 26  2  0
 26  2  1  0
 24  9  1  0
 22 17  1  0
  1 27  1  0
  1 28  1  0
  1 29  1  0
  3 30  1  0
  4 31  1  0
  6 32  1  0
  6 33  1  0
  7 34  1  0
  8 35  1  0
  8 36  1  0
  9 37  1  0
 10 38  1  0
 10 39  1  0
 11 40  1  0
 11 41  1  0
 16 42  1  0
 16 43  1  0
 18 44  1  0
 19 45  1  0
 20 46  1  0
 21 47  1  0
 22 48  1  0
 23 49  1  0
 23 50  1  0
 24 51  1  0
 24 52  1  0
 26 53  1  0
M  CHG  2  15  -1  21   1
M  END
>  <UniqueID>  (9) 
7

>  <SMILES>  (9) 
Cc1ccc(CNCC2CCN(C(=O)[N-]Cc3ccc[nH+]c3)CC2)nc1

>  <Energy>  (9) 
52.69410593980984

>  <Genealogy>  (9) 
Cc1ccc(CNCC2CCN(C(=O)[N-]Cc3ccc[nH+]c3)CC2)nc1 (protonated)
Cc1ccc(CNCC2CCN(C(=O)[N-]Cc3ccc[nH+]c3)CC2)nc1 (3D coordinates assigned)
Cc1ccc(CNCC2CCN(C(=O)[N-]Cc3ccc[nH+]c3)CC2)nc1 (nonaromatic ring conformer: 52.69410593980984 kcal/mol)

>  <smiles>  (9) 
Cc1ccc(CNCC2CCN(C(=O)NCc3cccnc3)CC2)nc1

>  <score_type>  (9) 
oracle

>  <origin>  (9) 
adg

>  <m_score__min__energy>  (9) 
-9.25

>  <m_primary>  (9) 
energy

$$$$
9:0
     RDKit          3D

 56 59  0  0  0  0  0  0  0  0999 V2000
   62.2600   33.8140   48.4330 C   0  0  0  0  0  0  0  0  0  0  0  0
   60.9400   33.6420   47.8020 N   0  0  0  0  0  0  0  0  0  0  0  0
   59.9110   34.2760   48.6440 C   0  0  0  0  0  0  0  0  0  0  0  0
   60.9470   34.2210   46.4400 C   0  0  0  0  0  0  0  0  0  0  0  0
   59.8680   35.3030   46.3060 C   0  0  0  0  0  0  0  0  0  0  0  0
   59.2640   35.3110   44.8970 C   0  0  0  0  0  0  0  0  0  0  0  0
   58.0700   34.5290   44.8580 O   0  0  0  0  0  0  0  0  0  0  0  0
   58.0060   33.1290   44.9530 C   0  0  0  0  0  0  0  0  0  0  0  0
   58.2160   32.5430   46.2050 C   0  0  0  0  0  0  0  0  0  0  0  0
   58.1640   31.1550   46.3600 C   0  0  0  0  0  0  0  0  0  0  0  0
   57.8950   30.3220   45.2590 C   0  0  0  0  0  0  0  0  0  0  0  0
   57.8340   28.8470   45.4020 C   0  0  0  0  0  0  0  0  0  0  0  0
   57.9230   28.1190   46.5850 C   0  0  0  0  0  0  0  0  0  0  0  0
   57.8220   26.8240   46.2560 N   0  0  0  0  0  0  0  0  0  0  0  0
   57.8550   25.7200   47.0430 C   0  0  0  0  0  0  0  0  0  0  0  0
   57.7290   24.4660   46.4290 C   0  0  0  0  0  0  0  0  0  0  0  0
   57.5670   24.3810   45.0240 C   0  0  0  0  0  0  0  0  0  0  0  0
   57.4460   23.0990   44.3780 N   0  0  0  0  0  0  0  0  0  0  0  0
   57.9460   21.8840   45.0330 C   0  0  0  0  0  0  0  0  0  0  0  0
   57.0200   20.6770   44.7510 C   0  0  0  0  0  0  0  0  0  0  0  0
   56.0290   20.9330   43.7670 O   0  0  0  0  0  0  0  0  0  0  0  0
   56.6070   21.5670   42.6460 C   0  0  0  0  0  0  0  0  0  0  0  0
   56.9450   23.0160   43.0000 C   0  0  0  0  0  0  0  0  0  0  0  0
   57.5470   25.5660   44.2560 C   0  0  0  0  0  0  0  0  0  0  0  0
   57.6780   26.7810   44.9240 C   0  0  0  0  0  0  0  0  0  0  0  0
   57.6810   28.0000   44.3510 N   0  0  0  0  0  0  0  0  0  0  0  0
   57.6800   30.9140   44.0020 C   0  0  0  0  0  0  0  0  0  0  0  0
   57.7320   32.3020   43.8480 C   0  0  0  0  0  0  0  0  0  0  0  0
   62.1480   33.7994   49.5272 H   0  0  0  0  0  0  0  0  0  0  0  0
   62.9249   32.9949   48.1215 H   0  0  0  0  0  0  0  0  0  0  0  0
   62.6927   34.7761   48.1215 H   0  0  0  0  0  0  0  0  0  0  0  0
   60.1596   34.1228   49.7045 H   0  0  0  0  0  0  0  0  0  0  0  0
   59.8736   35.3540   48.4281 H   0  0  0  0  0  0  0  0  0  0  0  0
   58.9314   33.8246   48.4281 H   0  0  0  0  0  0  0  0  0  0  0  0
   61.9327   34.6674   46.2423 H   0  0  0  0  0  0  0  0  0  0  0  0
   60.7382   33.4211   45.7143 H   0  0  0  0  0  0  0  0  0  0  0  0
   59.0702   35.1068   47.0374 H   0  0  0  0  0  0  0  0  0  0  0  0
   60.3319   36.2829   46.4921 H   0  0  0  0  0  0  0  0  0  0  0  0
   59.0276   36.3465   44.6108 H   0  0  0  0  0  0  0  0  0  0  0  0
   59.9936   34.8798   44.1958 H   0  0  0  0  0  0  0  0  0  0  0  0
   58.4242   33.1808   47.0767 H   0  0  0  0  0  0  0  0  0  0  0  0
   58.3349   30.7102   47.3514 H   0  0  0  0  0  0  0  0  0  0  0  0
   58.0518   28.5289   47.5976 H   0  0  0  0  0  0  0  0  0  0  0  0
   57.9772   25.8061   48.1328 H   0  0  0  0  0  0  0  0  0  0  0  0
   57.7559   23.5497   47.0370 H   0  0  0  0  0  0  0  0  0  0  0  0
   58.9537   21.6600   44.6531 H   0  0  0  0  0  0  0  0  0  0  0  0
   57.9716   22.0581   46.1188 H   0  0  0  0  0  0  0  0  0  0  0  0
   57.6408   19.8363   44.4076 H   0  0  0  0  0  0  0  0  0  0  0  0
   56.4903   20.4534   45.6888 H   0  0  0  0  0  0  0  0  0  0  0  0
   57.5260   21.0358   42.3573 H   0  0  0  0  0  0  0  0  0  0  0  0
   55.8957   21.5501   41.8071 H   0  0  0  0  0  0  0  0  0  0  0  0
   57.7168   23.3878   42.3100 H   0  0  0  0  0  0  0  0  0  0  0  0
   56.0353   23.6281   42.9119 H   0  0  0  0  0  0  0  0  0  0  0  0
   57.4314   25.5304   43.1627 H   0  0  0  0  0  0  0  0  0  0  0  0
   57.4685   30.2776   43.1301 H   0  0  0  0  0  0  0  0  0  0  0  0
   57.5580   32.7500   42.8586 H   0  0  0  0  0  0  0  0  0  0  0  0
  1  2  1  0
  2  3  1  0
  2  4  1  0
  4  5  1  0
  5  6  1  0
  6  7  1  0
  7  8  1  0
  8  9  2  0
  9 10  1  0
 10 11  2  0
 11 12  1  0
 12 13  2  0
 13 14  1  0
 14 15  1  0
 15 16  2  0
 16 17  1  0
 17 18  1  0
 18 19  1  0
 19 20  1  0
 20 21  1  0
 21 22  1  0
 22 23  1  0
 17 24  2  0
 24 25  1  0
 25 26  2  0
 11 27  1  0
 27 28  2  0
 28  8  1  0
 26 12  1  0
 25 14  1  0
 23 18  1  0
  1 29  1  0
  1 30  1  0
  1 31  1  0
  3 32  1  0
  3 33  1  0
  3 34  1  0
  4 35  1  0
  4 36  1  0
  5 37  1  0
  5 38  1  0
  6 39  1  0
  6 40  1  0
  9 41  1  0
 10 42  1  0
 13 43  1  0
 15 44  1  0
 16 45  1  0
 19 46  1  0
 19 47  1  0
 20 48  1  0
 20 49  1  0
 22 50  1  0
 22 51  1  0
 23 52  1  0
 23 53  1  0
 24 54  1  0
 27 55  1  0
 28 56  1  0
M  END
>  <UniqueID>  (10) 
8

>  <SMILES>  (10) 
CN(C)CCCOc1ccc(-c2cn3ccc(N4CCOCC4)cc3n2)cc1

>  <Energy>  (10) 
102.74526732393694

>  <Genealogy>  (10) 
CN(C)CCCOc1ccc(-c2cn3ccc(N4CCOCC4)cc3n2)cc1 (3D coordinates assigned)
CN(C)CCCOc1ccc(-c2cn3ccc(N4CCOCC4)cc3n2)cc1 (nonaromatic ring conformer: 102.74526732393694 kcal/mol)

>  <smiles>  (10) 
CN(C)CCCOc1ccc(-c2cn3ccc(N4CCOCC4)cc3n2)cc1

>  <score_type>  (10) 
oracle

>  <origin>  (10) 
adg

>  <m_score__min__energy>  (10) 
-7.3799999999999999

>  <m_primary>  (10) 
energy

$$$$
10:0
     RDKit          3D

 34 36  0  0  0  0  0  0  0  0999 V2000
   57.4000   31.7050   42.5650 C   0  0  0  0  0  0  0  0  0  0  0  0
   57.2280   30.7890   43.7280 C   0  0  0  0  0  0  0  0  0  0  0  0
   58.2340   30.0980   44.2940 N   0  0  0  0  0  0  0  0  0  0  0  0
   57.5800   29.4220   45.2630 C   0  0  0  0  0  0  0  0  0  0  0  0
   58.2420   28.4870   46.1960 C   0  0  0  0  0  0  0  0  0  0  0  0
   58.1380   27.0950   46.1020 C   0  0  0  0  0  0  0  0  0  0  0  0
   57.3110   26.3630   45.1960 N   0  0  0  0  0  0  0  0  0  0  0  0
   55.9510   25.4260   45.7250 S   0  0  0  0  0  0  0  0  0  0  0  0
   56.3390   24.5230   47.2130 C   0  0  0  0  0  0  0  0  0  0  0  0
   54.7790   26.3300   45.9830 O   0  0  0  0  0  0  0  0  0  0  0  0
   55.5920   24.4400   44.6520 O   0  0  0  0  0  0  0  0  0  0  0  0
   59.0660   26.3640   47.2960 S   0  0  0  0  0  0  0  0  0  0  0  0
   59.5980   27.8030   47.9780 C   0  0  0  0  0  0  0  0  0  0  0  0
   59.0920   28.8810   47.2540 C   0  0  0  0  0  0  0  0  0  0  0  0
   59.4090   30.3060   47.6380 C   0  0  0  0  0  0  0  0  0  0  0  0
   60.6380   30.3940   48.5600 C   0  0  0  0  0  0  0  0  0  0  0  0
   60.5750   29.3460   49.6820 C   0  0  0  0  0  0  0  0  0  0  0  0
   60.5790   27.9220   49.1040 C   0  0  0  0  0  0  0  0  0  0  0  0
   56.2590   29.6920   45.2750 N   0  0  0  0  0  0  0  0  0  0  0  0
   56.0810   30.5400   44.3090 O   0  0  0  0  0  0  0  0  0  0  0  0
   57.5917   32.7257   42.9274 H   0  0  0  0  0  0  0  0  0  0  0  0
   58.2504   31.3669   41.9546 H   0  0  0  0  0  0  0  0  0  0  0  0
   56.4849   31.6984   41.9546 H   0  0  0  0  0  0  0  0  0  0  0  0
   56.0771   25.1324   48.0905 H   0  0  0  0  0  0  0  0  0  0  0  0
   55.7644   23.5852   47.2332 H   0  0  0  0  0  0  0  0  0  0  0  0
   57.4148   24.2944   47.2332 H   0  0  0  0  0  0  0  0  0  0  0  0
   59.6086   30.8843   46.7238 H   0  0  0  0  0  0  0  0  0  0  0  0
   58.5445   30.7114   48.1841 H   0  0  0  0  0  0  0  0  0  0  0  0
   61.5460   30.2244   47.9628 H   0  0  0  0  0  0  0  0  0  0  0  0
   60.6538   31.3928   49.0205 H   0  0  0  0  0  0  0  0  0  0  0  0
   61.4478   29.4700   50.3399 H   0  0  0  0  0  0  0  0  0  0  0  0
   59.6431   29.4928   50.2477 H   0  0  0  0  0  0  0  0  0  0  0  0
   61.5867   27.6869   48.7309 H   0  0  0  0  0  0  0  0  0  0  0  0
   60.2914   27.2178   49.8986 H   0  0  0  0  0  0  0  0  0  0  0  0
  1  2  1  0
  2  3  2  0
  3  4  1  0
  4  5  1  0
  5  6  2  0
  6  7  1  0
  7  8  1  0
  8  9  1  0
  8 10  2  0
  8 11  2  0
  6 12  1  0
 12 13  1  0
 13 14  2  0
 14 15  1  0
 15 16  1  0
 16 17  1  0
 17 18  1  0
  4 19  2  0
 19 20  1  0
 20  2  1  0
 14  5  1  0
 18 13  1  0
  1 21  1  0
  1 22  1  0
  1 23  1  0
  9 24  1  0
  9 25  1  0
  9 26  1  0
 15 27  1  0
 15 28  1  0
 16 29  1  0
 16 30  1  0
 17 31  1  0
 17 32  1  0
 18 33  1  0
 18 34  1  0
M  CHG  1   7  -1
M  END
>  <UniqueID>  (11) 
9

>  <SMILES>  (11) 
Cc1nc(-c2c([N-]S(C)(=O)=O)sc3c2CCCC3)no1

>  <Energy>  (11) 
98.27106694181883

>  <Genealogy>  (11) 
Cc1nc(-c2c([N-]S(C)(=O)=O)sc3c2CCCC3)no1 (protonated)
Cc1nc(-c2c([N-]S(C)(=O)=O)sc3c2CCCC3)no1 (3D coordinates assigned)
Cc1nc(-c2c([N-]S(C)(=O)=O)sc3c2CCCC3)no1 (nonaromatic ring conformer: 98.27106694181883 kcal/mol)

>  <smiles>  (11) 
Cc1nc(-c2c(NS(C)(=O)=O)sc3c2CCCC3)no1

>  <score_type>  (11) 
oracle

>  <origin>  (11) 
adg

>  <m_score__min__energy>  (11) 
-9.6400000000000006

>  <m_primary>  (11) 
energy

$$$$
11:0
     RDKit          3D

 24 26  0  0  0  0  0  0  0  0999 V2000
   59.6090   33.3380   50.6090 C   0  0  0  0  0  0  0  0  0  0  0  0
   59.4610   33.4810   49.1320 C   0  0  0  0  0  0  0  0  0  0  0  0
   59.8260   34.5910   48.4470 N   0  0  0  0  0  0  0  0  0  0  0  0
   59.4790   34.3440   47.1960 N   0  0  0  0  0  0  0  0  0  0  0  0
   59.6420   35.1630   46.1290 C   0  0  0  0  0  0  0  0  0  0  0  0
   59.1970   34.7190   44.8760 C   0  0  0  0  0  0  0  0  0  0  0  0
   58.5940   33.4460   44.7580 C   0  0  0  0  0  0  0  0  0  0  0  0
   58.1400   32.9840   43.5140 C   0  0  0  0  0  0  0  0  0  0  0  0
   57.5430   31.7240   43.4080 C   0  0  0  0  0  0  0  0  0  0  0  0
   57.3940   30.9140   44.5390 C   0  0  0  0  0  0  0  0  0  0  0  0
   56.6440   29.3350   44.3900 Cl  0  0  0  0  0  0  0  0  0  0  0  0
   57.8410   31.3590   45.7880 C   0  0  0  0  0  0  0  0  0  0  0  0
   58.4410   32.6230   45.9070 C   0  0  0  0  0  0  0  0  0  0  0  0
   58.9130   33.1310   47.1260 C   0  0  0  0  0  0  0  0  0  0  0  0
   58.8770   32.5500   48.3390 N   0  0  0  0  0  0  0  0  0  0  0  0
   58.9067   34.0166   51.1153 H   0  0  0  0  0  0  0  0  0  0  0  0
   59.3907   32.3001   50.9006 H   0  0  0  0  0  0  0  0  0  0  0  0
   60.6388   33.5919   50.9006 H   0  0  0  0  0  0  0  0  0  0  0  0
   60.1116   36.1512   46.2431 H   0  0  0  0  0  0  0  0  0  0  0  0
   59.3165   35.3582   43.9888 H   0  0  0  0  0  0  0  0  0  0  0  0
   58.2538   33.6143   42.6197 H   0  0  0  0  0  0  0  0  0  0  0  0
   57.1884   31.3675   42.4296 H   0  0  0  0  0  0  0  0  0  0  0  0
   57.7226   30.7197   46.6753 H   0  0  0  0  0  0  0  0  0  0  0  0
   58.4890   31.6220   48.6180 H   0  0  0  0  0  0  0  0  0  0  0  0
  1  2  1  0
  2  3  2  0
  3  4  1  0
  4  5  1  0
  5  6  2  0
  6  7  1  0
  7  8  2  0
  8  9  1  0
  9 10  2  0
 10 11  1  0
 10 12  1  0
 12 13  2  0
 13 14  1  0
 14 15  2  0
 15  2  1  0
 14  4  1  0
 13  7  1  0
  1 16  1  0
  1 17  1  0
  1 18  1  0
  5 19  1  0
  6 20  1  0
  8 21  1  0
  9 22  1  0
 12 23  1  0
 15 24  1  0
M  CHG  1  15   1
M  END
>  <UniqueID>  (12) 
10

>  <SMILES>  (12) 
Cc1nn2ccc3ccc(Cl)cc3c2[nH+]1

>  <Energy>  (12) 
68.53620278998223

>  <Genealogy>  (12) 
Cc1nn2ccc3ccc(Cl)cc3c2[nH+]1 (protonated)
Cc1nn2ccc3ccc(Cl)cc3c2[nH+]1 (3D coordinates assigned)
Cc1nn2ccc3ccc(Cl)cc3c2[nH+]1 (optimized conformer: 68.53620278998223 kcal/mol)

>  <smiles>  (12) 
Cc1nc2c3cc(Cl)ccc3ccn2n1

>  <score_type>  (12) 
oracle

>  <origin>  (12) 
adg

>  <m_score__min__energy>  (12) 
-5.1500000000000004

>  <m_primary>  (12) 
energy

$$$$
12:0
     RDKit          3D

 69 72  0  0  0  0  0  0  0  0999 V2000
   63.8635   33.7544   50.0035 H   0  0  0  0  0  0  0  0  0  0  0  0
   62.8320   33.9390   50.3380 C   0  0  0  0  0  0  0  0  0  0  0  0
   62.0190   34.5430   49.5220 N   0  0  0  0  0  0  0  0  0  0  0  0
   60.7930   33.9900   49.0310 C   0  0  0  0  0  0  0  0  0  0  0  0
   59.7310   34.6580   49.1440 O   0  0  0  0  0  0  0  0  0  0  0  0
   60.7760   32.6660   48.3640 C   0  0  0  0  0  0  0  0  0  0  0  0
   59.8460   31.6420   48.5430 C   0  0  0  0  0  0  0  0  0  0  0  0
   58.6050   31.6840   49.3840 C   0  0  0  0  0  0  0  0  0  0  0  0
   58.8828   31.6746   50.4483 H   0  0  0  0  0  0  0  0  0  0  0  0
   58.0413   32.6017   49.1603 H   0  0  0  0  0  0  0  0  0  0  0  0
   57.9806   30.8065   49.1603 H   0  0  0  0  0  0  0  0  0  0  0  0
   60.3490   30.5310   47.8760 C   0  0  0  0  0  0  0  0  0  0  0  0
   59.7900   29.1350   47.9050 C   0  0  0  0  0  0  0  0  0  0  0  0
   60.6171   28.4167   48.0054 H   0  0  0  0  0  0  0  0  0  0  0  0
   59.1025   29.0467   48.7591 H   0  0  0  0  0  0  0  0  0  0  0  0
   59.0320   28.8410   46.6420 C   0  0  0  0  0  0  0  0  0  0  0  0
   58.8510   27.6020   46.0370 C   0  0  0  0  0  0  0  0  0  0  0  0
   59.3070   26.3930   46.5480 O   0  0  0  0  0  0  0  0  0  0  0  0
   58.1590   27.7130   44.8770 N   0  0  0  0  0  0  0  0  0  0  0  0
   57.7780   26.6080   43.9940 C   0  0  0  0  0  0  0  0  0  0  0  0
   56.9984   26.9519   43.2984 H   0  0  0  0  0  0  0  0  0  0  0  0
   58.6644   26.2766   43.4333 H   0  0  0  0  0  0  0  0  0  0  0  0
   57.2480   25.4500   44.8020 C   0  0  0  0  0  0  0  0  0  0  0  0
   57.8860   24.1990   44.7390 C   0  0  0  0  0  0  0  0  0  0  0  0
   58.7553   24.0611   44.0793 H   0  0  0  0  0  0  0  0  0  0  0  0
   57.4220   23.1290   45.5100 C   0  0  0  0  0  0  0  0  0  0  0  0
   57.9247   22.1522   45.4533 H   0  0  0  0  0  0  0  0  0  0  0  0
   56.3210   23.2990   46.3520 C   0  0  0  0  0  0  0  0  0  0  0  0
   55.9560   22.4560   46.9570 H   0  0  0  0  0  0  0  0  0  0  0  0
   55.6830   24.5400   46.4260 C   0  0  0  0  0  0  0  0  0  0  0  0
   54.8166   24.6719   47.0907 H   0  0  0  0  0  0  0  0  0  0  0  0
   56.1420   25.6150   45.6580 C   0  0  0  0  0  0  0  0  0  0  0  0
   55.5080   26.8110   45.7480 F   0  0  0  0  0  0  0  0  0  0  0  0
   57.8880   29.0310   44.7410 C   0  0  0  0  0  0  0  0  0  0  0  0
   57.2070   29.6750   43.7000 C   0  0  0  0  0  0  0  0  0  0  0  0
   56.8015   29.1040   42.8517 H   0  0  0  0  0  0  0  0  0  0  0  0
   57.0560   31.0710   43.7690 C   0  0  0  0  0  0  0  0  0  0  0  0
   56.5237   31.6026   42.9664 H   0  0  0  0  0  0  0  0  0  0  0  0
   57.5820   31.7960   44.8600 C   0  0  0  0  0  0  0  0  0  0  0  0
   57.3760   33.5360   44.9340 Cl  0  0  0  0  0  0  0  0  0  0  0  0
   58.2680   31.1290   45.8910 C   0  0  0  0  0  0  0  0  0  0  0  0
   58.6822   31.6834   46.7460 H   0  0  0  0  0  0  0  0  0  0  0  0
   58.4080   29.7440   45.7980 C   0  0  0  0  0  0  0  0  0  0  0  0
   61.5120   30.8430   47.2740 N   0  0  0  0  0  0  0  0  0  0  0  0
   62.1180   30.1960   46.7210 H   0  0  0  0  0  0  0  0  0  0  0  0
   61.7790   32.1310   47.5600 C   0  0  0  0  0  0  0  0  0  0  0  0
   63.0510   32.8070   47.1520 C   0  0  0  0  0  0  0  0  0  0  0  0
   63.6121   33.1052   48.0499 H   0  0  0  0  0  0  0  0  0  0  0  0
   63.6592   32.1131   46.5532 H   0  0  0  0  0  0  0  0  0  0  0  0
   62.8163   33.6993   46.5532 H   0  0  0  0  0  0  0  0  0  0  0  0
   62.4350   33.4770   51.7220 C   0  0  0  0  0  0  0  0  0  0  0  0
   62.6850   34.2681   52.4443 H   0  0  0  0  0  0  0  0  0  0  0  0
   62.9840   32.5485   51.9374 H   0  0  0  0  0  0  0  0  0  0  0  0
   60.9820   33.1800   51.8220 N   0  0  0  0  0  0  0  0  0  0  0  0
   60.5100   33.5880   50.9820 H   0  0  0  0  0  0  0  0  0  0  0  0
   60.7230   31.7180   51.7530 C   0  0  0  0  0  0  0  0  0  0  0  0
   59.9094   31.5474   51.0326 H   0  0  0  0  0  0  0  0  0  0  0  0
   60.4693   31.3980   52.7744 H   0  0  0  0  0  0  0  0  0  0  0  0
   61.9310   30.8740   51.3200 C   0  0  0  0  0  0  0  0  0  0  0  0
   62.4590   30.5051   52.2117 H   0  0  0  0  0  0  0  0  0  0  0  0
   61.5852   30.0200   50.7191 H   0  0  0  0  0  0  0  0  0  0  0  0
   62.6139   31.4925   50.7191 H   0  0  0  0  0  0  0  0  0  0  0  0
   60.3850   33.8400   53.0120 C   0  0  0  0  0  0  0  0  0  0  0  0
   60.4676   33.1580   53.8711 H   0  0  0  0  0  0  0  0  0  0  0  0
   60.9345   34.7775   53.1825 H   0  0  0  0  0  0  0  0  0  0  0  0
   58.9080   34.1990   52.8110 C   0  0  0  0  0  0  0  0  0  0  0  0
   58.4227   34.3170   53.7911 H   0  0  0  0  0  0  0  0  0  0  0  0
   58.8330   35.1415   52.2489 H   0  0  0  0  0  0  0  0  0  0  0  0
   58.4087   33.3961   52.2489 H   0  0  0  0  0  0  0  0  0  0  0  0
  1  2  1  0
  2  3  2  0
  3  4  1  0
  4  5  2  0
  4  6  1  0
  6  7  1  0
  7  8  1  0
  8  9  1  0
  8 10  1  0
  8 11  1  0
  7 12  2  0
 12 13  1  0
 13 14  1  0
 13 15  1  0
 13 16  1  0
 16 17  2  0
 17 18  1  0
 17 19  1  0
 19 20  1  0
 20 21  1  0
 20 22  1  0
 20 23  1  0
 23 24  2  0
 24 25  1  0
 24 26  1  0
 26 27  1  0
 26 28  2  0
 28 29  1  0
 28 30  1  0
 30 31  1  0
 30 32  2  0
 32 33  1  0
 19 34  1  0
 34 35  2  0
 35 36  1  0
 35 37  1  0
 37 38  1  0
 37 39  2  0
 39 40  1  0
 39 41  1  0
 41 42  1  0
 41 43  2  0
 12 44  1  0
 44 45  1  0
 44 46  1  0
 46 47  1  0
 47 48  1  0
 47 49  1  0
 47 50  1  0
  2 51  1  0
 51 52  1  0
 51 53  1  0
 51 54  1  0
 54 55  1  0
 54 56  1  0
 56 57  1  0
 56 58  1  0
 56 59  1  0
 59 60  1  0
 59 61  1  0
 59 62  1  0
 54 63  1  0
 63 64  1  0
 63 65  1  0
 63 66  1  0
 66 67  1  0
 66 68  1  0
 66 69  1  0
 46  6  2  0
 43 16  1  0
 32 23  1  0
 43 34  1  0
M  CHG  2  18  -1  54   1
M  END
>  <UniqueID>  (13) 
11

>  <SMILES>  (13) 
CC[NH+](CC)C/C=N\C(=O)c1c(C)[nH]c(Cc2c([O-])n(Cc3ccccc3F)c3ccc(Cl)cc23)c1C

>  <Energy>  (13) 
134.20585112136027

>  <Genealogy>  (13) 
CC[NH+](CC)CC=NC(=O)c1c(C)[nH]c(Cc2c([O-])n(Cc3ccccc3F)c3ccc(Cl)cc23)c1C (protonated)
CC[NH+](CC)C/C=N\C(=O)c1c(C)[nH]c(Cc2c([O-])n(Cc3ccccc3F)c3ccc(Cl)cc23)c1C (cis-trans isomerization)
CC[NH+](CC)C/C=N\C(=O)c1c(C)[nH]c(Cc2c([O-])n(Cc3ccccc3F)c3ccc(Cl)cc23)c1C (3D coordinates assigned)
CC[NH+](CC)C/C=N\C(=O)c1c(C)[nH]c(Cc2c([O-])n(Cc3ccccc3F)c3ccc(Cl)cc23)c1C (optimized conformer: 134.20585112136027 kcal/mol)

>  <smiles>  (13) 
CCN(CC)CC=NC(=O)c1c(C)[nH]c(Cc2c(O)n(Cc3ccccc3F)c3ccc(Cl)cc23)c1C

>  <score_type>  (13) 
oracle

>  <origin>  (13) 
adg

>  <m_score__min__energy>  (13) 
-10.6

>  <m_primary>  (13) 
energy

$$$$
13:0
     RDKit          3D

 58 61  0  0  0  0  0  0  0  0999 V2000
   60.9377   27.9770   48.9138 H   0  0  0  0  0  0  0  0  0  0  0  0
   60.1050   28.0300   48.1970 C   0  0  0  0  0  0  0  0  0  0  0  0
   59.6000   29.1930   47.7110 N   0  0  0  0  0  0  0  0  0  0  0  0
   59.9840   30.5550   48.0790 C   0  0  0  0  0  0  0  0  0  0  0  0
   60.9466   30.5266   48.6106 H   0  0  0  0  0  0  0  0  0  0  0  0
   59.2008   30.9787   48.7248 H   0  0  0  0  0  0  0  0  0  0  0  0
   60.1240   31.4400   46.8330 C   0  0  0  0  0  0  0  0  0  0  0  0
   59.6423   30.9387   45.9806 H   0  0  0  0  0  0  0  0  0  0  0  0
   61.1946   31.5972   46.6352 H   0  0  0  0  0  0  0  0  0  0  0  0
   59.4860   32.7600   47.0410 N   0  0  0  0  0  0  0  0  0  0  0  0
   58.0470   32.7970   46.7030 C   0  0  0  0  0  0  0  0  0  0  0  0
   57.4849   33.0754   47.6067 H   0  0  0  0  0  0  0  0  0  0  0  0
   57.7776   31.7967   46.3330 H   0  0  0  0  0  0  0  0  0  0  0  0
   57.7020   33.7920   45.5940 C   0  0  0  0  0  0  0  0  0  0  0  0
   57.3729   34.7411   46.0423 H   0  0  0  0  0  0  0  0  0  0  0  0
   58.5911   33.9695   44.9710 H   0  0  0  0  0  0  0  0  0  0  0  0
   56.8939   33.3811   44.9710 H   0  0  0  0  0  0  0  0  0  0  0  0
   60.2590   33.9560   46.6210 C   0  0  0  0  0  0  0  0  0  0  0  0
   60.0232   34.1615   45.5664 H   0  0  0  0  0  0  0  0  0  0  0  0
   59.9625   34.7678   47.3015 H   0  0  0  0  0  0  0  0  0  0  0  0
   61.7840   33.8230   46.7510 C   0  0  0  0  0  0  0  0  0  0  0  0
   62.0605   33.7989   47.8154 H   0  0  0  0  0  0  0  0  0  0  0  0
   62.1137   32.8927   46.2653 H   0  0  0  0  0  0  0  0  0  0  0  0
   62.2697   34.6822   46.2653 H   0  0  0  0  0  0  0  0  0  0  0  0
   58.6120   28.8030   46.8910 C   0  0  0  0  0  0  0  0  0  0  0  0
   57.7400   29.5920   46.2230 N   0  0  0  0  0  0  0  0  0  0  0  0
   56.7480   28.9920   45.4950 C   0  0  0  0  0  0  0  0  0  0  0  0
   55.8760   29.7050   44.8500 N   0  0  0  0  0  0  0  0  0  0  0  0
   56.2370   30.8440   44.0100 C   0  0  0  0  0  0  0  0  0  0  0  0
   55.5360   31.5737   44.4414 H   0  0  0  0  0  0  0  0  0  0  0  0
   57.7020   30.8530   43.6220 C   0  0  0  0  0  0  0  0  0  0  0  0
   58.2371   31.8082   43.5162 H   0  0  0  0  0  0  0  0  0  0  0  0
   58.6149   30.3857   44.0198 H   0  0  0  0  0  0  0  0  0  0  0  0
   56.6470   30.4550   42.6010 C   0  0  0  0  0  0  0  0  0  0  0  0
   56.4182   31.1224   41.7571 H   0  0  0  0  0  0  0  0  0  0  0  0
   56.4795   29.5810   41.9544 H   0  0  0  0  0  0  0  0  0  0  0  0
   56.6530   27.6240   45.4610 N   0  0  0  0  0  0  0  0  0  0  0  0
   57.5290   26.8170   46.1370 C   0  0  0  0  0  0  0  0  0  0  0  0
   57.3980   25.3830   46.0740 N   0  0  0  0  0  0  0  0  0  0  0  0
   56.2590   24.7360   46.7350 C   0  0  0  0  0  0  0  0  0  0  0  0
   56.6111   23.8705   47.3154 H   0  0  0  0  0  0  0  0  0  0  0  0
   55.7677   25.4476   47.4149 H   0  0  0  0  0  0  0  0  0  0  0  0
   55.2670   24.2690   45.6640 C   0  0  0  0  0  0  0  0  0  0  0  0
   54.4542   23.7064   46.1465 H   0  0  0  0  0  0  0  0  0  0  0  0
   54.8667   25.1528   45.1457 H   0  0  0  0  0  0  0  0  0  0  0  0
   55.9070   23.4360   44.7120 O   0  0  0  0  0  0  0  0  0  0  0  0
   56.9060   24.1640   44.0160 C   0  0  0  0  0  0  0  0  0  0  0  0
   57.3472   23.5179   43.2427 H   0  0  0  0  0  0  0  0  0  0  0  0
   56.4378   25.0497   43.5617 H   0  0  0  0  0  0  0  0  0  0  0  0
   58.0190   24.6370   44.9700 C   0  0  2  0  0  0  0  0  0  0  0  0
   58.7191   25.2891   44.4271 H   0  0  0  0  0  0  0  0  0  0  0  0
   58.8300   23.4460   45.5030 C   0  0  0  0  0  0  0  0  0  0  0  0
   58.8210   23.4591   46.6029 H   0  0  0  0  0  0  0  0  0  0  0  0
   58.3824   22.5075   45.1439 H   0  0  0  0  0  0  0  0  0  0  0  0
   59.8672   23.5186   45.1439 H   0  0  0  0  0  0  0  0  0  0  0  0
   58.5310   27.4490   46.8760 C   0  0  0  0  0  0  0  0  0  0  0  0
   59.4670   26.9400   47.6990 N   0  0  0  0  0  0  0  0  0  0  0  0
   59.6470   25.9430   47.9430 H   0  0  0  0  0  0  0  0  0  0  0  0
  1  2  1  0
  2  3  1  0
  3  4  1  0
  4  5  1  0
  4  6  1  0
  4  7  1  0
  7  8  1  0
  7  9  1  0
  7 10  1  0
 10 11  1  0
 11 12  1  0
 11 13  1  0
 11 14  1  0
 14 15  1  0
 14 16  1  0
 14 17  1  0
 10 18  1  0
 18 19  1  0
 18 20  1  0
 18 21  1  0
 21 22  1  0
 21 23  1  0
 21 24  1  0
  3 25  1  0
 25 26  1  0
 26 27  1  0
 27 28  2  0
 28 29  1  0
 29 30  1  0
 29 31  1  0
 31 32  1  0
 31 33  1  0
 31 34  1  0
 34 35  1  0
 34 36  1  0
 27 37  1  0
 37 38  2  0
 38 39  1  0
 39 40  1  0
 40 41  1  0
 40 42  1  0
 40 43  1  0
 43 44  1  0
 43 45  1  0
 43 46  1  0
 46 47  1  0
 47 48  1  0
 47 49  1  0
 47 50  1  0
 50 51  1  6
 50 52  1  0
 52 53  1  0
 52 54  1  0
 52 55  1  0
 38 56  1  0
 56 57  1  0
 57 58  1  0
 57  2  2  0
 56 25  2  0
 34 29  1  0
 50 39  1  0
M  CHG  2  26  -1  57   1
M  END
>  <UniqueID>  (14) 
12

>  <SMILES>  (14) 
CCN(CC)CCn1c[nH+]c2c(N3CCOC[C@@H]3C)n/c(=N/C3CC3)[n-]c21

>  <Energy>  (14) 
372.55107456749136

>  <Genealogy>  (14) 
CCN(CC)CCn1c[nH+]c2c(N3CCOCC3C)nc(=NC3CC3)[n-]c21 (protonated)
CCN(CC)CCn1c[nH+]c2c(N3CCOC[C@@H]3C)nc(=NC3CC3)[n-]c21 (chirality)
CCN(CC)CCn1c[nH+]c2c(N3CCOC[C@@H]3C)n/c(=N/C3CC3)[n-]c21 (cis-trans isomerization)
CCN(CC)CCn1c[nH+]c2c(N3CCOC[C@@H]3C)n/c(=N/C3CC3)[n-]c21 (3D coordinates assigned)
CCN(CC)CCn1c[nH+]c2c(N3CCOC[C@@H]3C)n/c(=N/C3CC3)[n-]c21 (nonaromatic ring conformer: 372.55107456749136 kcal/mol)

>  <smiles>  (14) 
CCN(CC)CCn1cnc2c(N3CCOCC3C)nc(=NC3CC3)[nH]c21

>  <score_type>  (14) 
oracle

>  <origin>  (14) 
adg

>  <m_score__min__energy>  (14) 
-6.6100000000000003

>  <m_primary>  (14) 
energy

$$$$
14:0
     RDKit          3D

 41 43  0  0  0  0  0  0  0  0999 V2000
   63.3540   33.5790   46.5630 C   0  0  0  0  0  0  0  0  0  0  0  0
   62.0450   34.0720   46.8240 O   0  0  0  0  0  0  0  0  0  0  0  0
   61.3420   33.8760   48.0260 C   0  0  0  0  0  0  0  0  0  0  0  0
   61.9770   33.9900   49.2790 C   0  0  0  0  0  0  0  0  0  0  0  0
   61.2640   33.7570   50.4570 C   0  0  0  0  0  0  0  0  0  0  0  0
   59.9160   33.4070   50.4030 C   0  0  0  0  0  0  0  0  0  0  0  0
   59.2720   33.2970   49.1700 C   0  0  0  0  0  0  0  0  0  0  0  0
   59.9710   33.5370   47.9740 C   0  0  0  0  0  0  0  0  0  0  0  0
   59.2580   33.4230   46.6790 C   0  0  0  0  0  0  0  0  0  0  0  0
   58.7060   34.5580   46.0650 C   0  0  0  0  0  0  0  0  0  0  0  0
   58.0200   34.4410   44.8550 C   0  0  0  0  0  0  0  0  0  0  0  0
   57.8740   33.1920   44.2470 C   0  0  0  0  0  0  0  0  0  0  0  0
   58.4210   32.0400   44.8410 C   0  0  0  0  0  0  0  0  0  0  0  0
   58.2140   30.6820   44.1850 C   0  0  0  0  0  0  0  0  0  0  0  0
   56.9690   30.6830   43.2710 C   0  0  0  0  0  0  0  0  0  0  0  0
   55.6580   30.3960   44.0290 C   0  0  0  0  0  0  0  0  0  0  0  0
   55.7500   29.3190   45.0380 N   0  0  0  0  0  0  0  0  0  0  0  0
   57.0150   28.5740   45.0120 C   0  0  0  0  0  0  0  0  0  0  0  0
   58.2100   29.5150   45.2090 C   0  0  0  0  0  0  0  0  0  0  0  0
   59.1040   32.1680   46.0650 C   0  0  0  0  0  0  0  0  0  0  0  0
   63.8693   33.3849   47.5152 H   0  0  0  0  0  0  0  0  0  0  0  0
   63.2857   32.6450   45.9860 H   0  0  0  0  0  0  0  0  0  0  0  0
   63.9189   34.3260   45.9860 H   0  0  0  0  0  0  0  0  0  0  0  0
   63.0411   34.2643   49.3294 H   0  0  0  0  0  0  0  0  0  0  0  0
   61.7678   33.8500   51.4304 H   0  0  0  0  0  0  0  0  0  0  0  0
   59.3595   33.2174   51.3327 H   0  0  0  0  0  0  0  0  0  0  0  0
   58.2081   33.0201   49.1334 H   0  0  0  0  0  0  0  0  0  0  0  0
   58.8145   35.5444   46.5396 H   0  0  0  0  0  0  0  0  0  0  0  0
   57.5928   35.3357   44.3785 H   0  0  0  0  0  0  0  0  0  0  0  0
   57.3270   33.1085   43.2963 H   0  0  0  0  0  0  0  0  0  0  0  0
   59.0854   30.4993   43.5390 H   0  0  0  0  0  0  0  0  0  0  0  0
   56.8873   31.6703   42.7929 H   0  0  0  0  0  0  0  0  0  0  0  0
   57.1037   29.8768   42.5349 H   0  0  0  0  0  0  0  0  0  0  0  0
   55.3491   31.3194   44.5408 H   0  0  0  0  0  0  0  0  0  0  0  0
   54.9324   30.0547   43.2760 H   0  0  0  0  0  0  0  0  0  0  0  0
   55.6280   29.7310   45.9930 H   0  0  0  0  0  0  0  0  0  0  0  0
   57.0089   27.8262   45.8187 H   0  0  0  0  0  0  0  0  0  0  0  0
   57.1129   28.0828   44.0326 H   0  0  0  0  0  0  0  0  0  0  0  0
   58.1660   29.9353   46.2246 H   0  0  0  0  0  0  0  0  0  0  0  0
   59.1288   28.9297   45.0568 H   0  0  0  0  0  0  0  0  0  0  0  0
   59.5233   31.2731   46.5480 H   0  0  0  0  0  0  0  0  0  0  0  0
  1  2  1  0
  2  3  1  0
  3  4  2  0
  4  5  1  0
  5  6  2  0
  6  7  1  0
  7  8  2  0
  8  9  1  0
  9 10  2  0
 10 11  1  0
 11 12  2  0
 12 13  1  0
 13 14  1  0
 14 15  1  0
 15 16  1  0
 16 17  1  0
 17 18  1  0
 18 19  1  0
 13 20  2  0
  8  3  1  0
 20  9  1  0
 19 14  1  0
  1 21  1  0
  1 22  1  0
  1 23  1  0
  4 24  1  0
  5 25  1  0
  6 26  1  0
  7 27  1  0
 10 28  1  0
 11 29  1  0
 12 30  1  0
 14 31  1  0
 15 32  1  0
 15 33  1  0
 16 34  1  0
 16 35  1  0
 17 36  1  0
 18 37  1  0
 18 38  1  0
 19 39  1  0
 19 40  1  0
 20 41  1  0
M  END
>  <UniqueID>  (15) 
13

>  <SMILES>  (15) 
COc1ccccc1-c1cccc(C2CCNCC2)c1

>  <Energy>  (15) 
56.48660511294853

>  <Genealogy>  (15) 
COc1ccccc1-c1cccc(C2CCNCC2)c1 (3D coordinates assigned)
COc1ccccc1-c1cccc(C2CCNCC2)c1 (nonaromatic ring conformer: 56.48660511294853 kcal/mol)

>  <smiles>  (15) 
COc1ccccc1-c1cccc(C2CCNCC2)c1

>  <score_type>  (15) 
oracle

>  <origin>  (15) 
adg

>  <m_score__min__energy>  (15) 
-8.5099999999999998

>  <m_primary>  (15) 
energy

$$$$
15:0
     RDKit          3D

 56 60  0  0  0  0  0  0  0  0999 V2000
   61.2150   33.8798   51.5637 H   0  0  0  0  0  0  0  0  0  0  0  0
   60.7820   33.2470   50.7750 C   0  0  0  0  0  0  0  0  0  0  0  0
   59.8550   34.1470   46.0150 C   0  0  0  0  0  0  0  0  0  0  0  0
   60.2260   33.4600   48.3920 C   0  0  0  0  0  0  0  0  0  0  0  0
   59.0380   33.0820   48.5900 O   0  0  0  0  0  0  0  0  0  0  0  0
   60.6890   33.8300   47.0290 C   0  0  0  0  0  0  0  0  0  0  0  0
   61.2000   33.4520   49.5070 C   0  0  0  0  0  0  0  0  0  0  0  0
   59.7603   35.2117   45.7552 H   0  0  0  0  0  0  0  0  0  0  0  0
   59.0600   33.1860   45.2260 C   0  0  0  0  0  0  0  0  0  0  0  0
   60.1110   30.8730   51.0730 C   0  0  0  0  0  0  0  0  0  0  0  0
   61.1078   30.5767   50.7143 H   0  0  0  0  0  0  0  0  0  0  0  0
   59.1780   29.8910   51.4200 C   0  0  0  0  0  0  0  0  0  0  0  0
   59.4481   28.8271   51.3481 H   0  0  0  0  0  0  0  0  0  0  0  0
   57.9030   30.2590   51.8580 C   0  0  0  0  0  0  0  0  0  0  0  0
   56.9940   29.3050   52.1960 N   0  0  0  0  0  0  0  0  0  0  0  0
   55.7420   29.6280   52.6170 C   0  0  0  0  0  0  0  0  0  0  0  0
   55.0310   28.8324   52.8843 H   0  0  0  0  0  0  0  0  0  0  0  0
   55.3560   30.9680   52.7110 C   0  0  0  0  0  0  0  0  0  0  0  0
   54.3434   31.2308   53.0509 H   0  0  0  0  0  0  0  0  0  0  0  0
   56.2660   31.9700   52.3700 C   0  0  0  0  0  0  0  0  0  0  0  0
   55.9719   33.0278   52.4379 H   0  0  0  0  0  0  0  0  0  0  0  0
   57.5550   31.6260   51.9410 C   0  0  0  0  0  0  0  0  0  0  0  0
   58.4930   32.6070   51.5910 C   0  0  0  0  0  0  0  0  0  0  0  0
   58.2180   33.6710   51.6387 H   0  0  0  0  0  0  0  0  0  0  0  0
   62.1800   33.9110   46.7690 C   0  0  0  0  0  0  0  0  0  0  0  0
   62.3905   33.4438   45.7957 H   0  0  0  0  0  0  0  0  0  0  0  0
   62.4562   34.9756   46.7864 H   0  0  0  0  0  0  0  0  0  0  0  0
   62.9910   33.2320   47.8000 N   0  0  0  0  0  0  0  0  0  0  0  0
   62.9450   31.7640   47.6690 C   0  0  0  0  0  0  0  0  0  0  0  0
   62.9307   31.3069   48.6694 H   0  0  0  0  0  0  0  0  0  0  0  0
   62.0373   31.4731   47.1199 H   0  0  0  0  0  0  0  0  0  0  0  0
   63.8327   31.4169   47.1199 H   0  0  0  0  0  0  0  0  0  0  0  0
   62.6580   33.6890   49.1630 C   0  0  0  0  0  0  0  0  0  0  0  0
   63.2851   33.1426   49.8828 H   0  0  0  0  0  0  0  0  0  0  0  0
   62.8443   34.7721   49.2108 H   0  0  0  0  0  0  0  0  0  0  0  0
   59.7850   32.2340   51.1790 C   0  0  0  0  0  0  0  0  0  0  0  0
   58.6920   33.5110   43.9140 C   0  0  0  0  0  0  0  0  0  0  0  0
   59.0272   34.4610   43.4724 H   0  0  0  0  0  0  0  0  0  0  0  0
   57.9020   32.6370   43.1620 C   0  0  0  0  0  0  0  0  0  0  0  0
   57.6331   32.8937   42.1267 H   0  0  0  0  0  0  0  0  0  0  0  0
   57.4510   31.4330   43.7240 C   0  0  0  0  0  0  0  0  0  0  0  0
   56.6590   30.5480   42.9780 C   0  0  0  0  0  0  0  0  0  0  0  0
   56.3912   30.7940   41.9398 H   0  0  0  0  0  0  0  0  0  0  0  0
   56.2090   29.3550   43.5490 C   0  0  0  0  0  0  0  0  0  0  0  0
   55.5894   28.6656   42.9567 H   0  0  0  0  0  0  0  0  0  0  0  0
   56.5430   29.0290   44.8770 C   0  0  0  0  0  0  0  0  0  0  0  0
   56.1130   27.8430   45.4910 O   0  0  0  0  0  0  0  0  0  0  0  0
   56.9830   26.8250   45.9740 C   0  0  0  0  0  0  0  0  0  0  0  0
   56.9785   26.8303   47.0740 H   0  0  0  0  0  0  0  0  0  0  0  0
   56.6386   25.8455   45.6106 H   0  0  0  0  0  0  0  0  0  0  0  0
   58.0042   27.0126   45.6106 H   0  0  0  0  0  0  0  0  0  0  0  0
   57.3330   29.9120   45.6240 C   0  0  0  0  0  0  0  0  0  0  0  0
   57.5960   29.6632   46.6627 H   0  0  0  0  0  0  0  0  0  0  0  0
   57.7920   31.1120   45.0580 C   0  0  0  0  0  0  0  0  0  0  0  0
   58.5840   31.9960   45.8050 C   0  0  0  0  0  0  0  0  0  0  0  0
   58.8342   31.7574   46.8492 H   0  0  0  0  0  0  0  0  0  0  0  0
  1  2  1  0
  2  3  2  0
  3  4  1  0
  4  5  2  0
  4  6  1  0
  6  7  2  0
  7  8  1  0
  7  9  1  0
  9 10  2  0
 10 11  1  0
 10 12  1  0
 12 13  1  0
 12 14  2  0
 14 15  1  0
 15 16  2  0
 16 17  1  0
 16 18  1  0
 18 19  1  0
 18 20  2  0
 20 21  1  0
 20 22  1  0
 22 23  2  0
 23 24  1  0
  6 25  1  0
 25 26  1  0
 25 27  1  0
 25 28  1  0
 28 29  1  0
 29 30  1  0
 29 31  1  0
 29 32  1  0
 28 33  1  0
 33 34  1  0
 33 35  1  0
  2 36  1  0
 36 37  2  0
 37 38  1  0
 37 39  1  0
 39 40  1  0
 39 41  2  0
 41 42  1  0
 42 43  1  0
 42 44  2  0
 44 45  1  0
 44 46  1  0
 46 47  1  0
 47 48  1  0
 48 49  1  0
 48 50  1  0
 48 51  1  0
 46 52  2  0
 52 53  1  0
 52 54  1  0
 54 55  2  0
 55 56  1  0
 33  3  1  0
 55 36  1  0
 23  9  1  0
 54 41  1  0
 22 14  1  0
M  END
>  <UniqueID>  (16) 
14

>  <SMILES>  (16) 
COc1ccc2ccc(/C=C3/CN(C)C/C(=C\c4ccc5ncccc5c4)C3=O)cc2c1

>  <Energy>  (16) 
89.07232031495968

>  <Genealogy>  (16) 
COc1ccc2ccc(/C=C3/CN(C)C/C(=C\c4ccc5ncccc5c4)C3=O)cc2c1 (cis-trans isomerization)
COc1ccc2ccc(/C=C3/CN(C)C/C(=C\c4ccc5ncccc5c4)C3=O)cc2c1 (3D coordinates assigned)
COc1ccc2ccc(/C=C3/CN(C)C/C(=C\c4ccc5ncccc5c4)C3=O)cc2c1 (nonaromatic ring conformer: 89.07232031495968 kcal/mol)

>  <smiles>  (16) 
COc1ccc2ccc(C=C3CN(C)CC(=Cc4ccc5ncccc5c4)C3=O)cc2c1

>  <score_type>  (16) 
oracle

>  <origin>  (16) 
adg

>  <m_score__min__energy>  (16) 
-10.33

>  <m_primary>  (16) 
energy

$$$$
16:0
     RDKit          3D

 35 35  0  0  0  0  0  0  0  0999 V2000
   56.1121   33.1903   45.7648 H   0  0  0  0  0  0  0  0  0  0  0  0
   57.1980   33.0480   45.8680 C   0  0  0  0  0  0  0  0  0  0  0  0
   57.8150   31.9780   45.0570 C   0  0  0  0  0  0  0  0  0  0  0  0
   57.9490   32.1760   43.8200 O   0  0  0  0  0  0  0  0  0  0  0  0
   58.2130   30.6640   45.6200 C   0  0  0  0  0  0  0  0  0  0  0  0
   57.3370   29.5610   45.5060 C   0  0  0  0  0  0  0  0  0  0  0  0
   56.1080   29.7310   44.8460 O   0  0  0  0  0  0  0  0  0  0  0  0
   55.9400   29.7330   43.4330 C   0  0  0  0  0  0  0  0  0  0  0  0
   54.8669   29.7458   43.1914 H   0  0  0  0  0  0  0  0  0  0  0  0
   56.4223   30.6255   43.0077 H   0  0  0  0  0  0  0  0  0  0  0  0
   56.4009   28.8293   43.0077 H   0  0  0  0  0  0  0  0  0  0  0  0
   57.7210   28.3150   46.0380 C   0  0  0  0  0  0  0  0  0  0  0  0
   57.0422   27.4534   45.9557 H   0  0  0  0  0  0  0  0  0  0  0  0
   58.9550   28.1660   46.6680 C   0  0  0  0  0  0  0  0  0  0  0  0
   59.2482   27.1865   47.0738 H   0  0  0  0  0  0  0  0  0  0  0  0
   59.8190   29.2530   46.7860 C   0  0  0  0  0  0  0  0  0  0  0  0
   60.7912   29.1259   47.2846 H   0  0  0  0  0  0  0  0  0  0  0  0
   59.4570   30.5120   46.2720 C   0  0  0  0  0  0  0  0  0  0  0  0
   60.3040   31.6270   46.4000 O   0  0  0  0  0  0  0  0  0  0  0  0
   61.5320   31.6340   47.1170 C   0  0  0  0  0  0  0  0  0  0  0  0
   61.3257   31.6328   48.1975 H   0  0  0  0  0  0  0  0  0  0  0  0
   62.1152   30.7392   46.8541 H   0  0  0  0  0  0  0  0  0  0  0  0
   62.1050   32.5354   46.8541 H   0  0  0  0  0  0  0  0  0  0  0  0
   57.8430   33.8640   46.7210 C   0  0  0  0  0  0  0  0  0  0  0  0
   57.2412   34.4140   47.4594 H   0  0  0  0  0  0  0  0  0  0  0  0
   59.2790   34.0670   46.7320 N   0  0  0  0  0  0  0  0  0  0  0  0
   59.7810   33.1700   46.5560 H   0  0  0  0  0  0  0  0  0  0  0  0
   59.6640   35.0550   45.7090 C   0  0  0  0  0  0  0  0  0  0  0  0
   60.0213   35.9718   46.2008 H   0  0  0  0  0  0  0  0  0  0  0  0
   60.4659   34.6393   45.0812 H   0  0  0  0  0  0  0  0  0  0  0  0
   58.7922   35.2915   45.0812 H   0  0  0  0  0  0  0  0  0  0  0  0
   59.7070   34.5330   48.0620 C   0  0  0  0  0  0  0  0  0  0  0  0
   59.1801   33.9593   48.8386 H   0  0  0  0  0  0  0  0  0  0  0  0
   60.7918   34.3863   48.1703 H   0  0  0  0  0  0  0  0  0  0  0  0
   59.4688   35.6014   48.1703 H   0  0  0  0  0  0  0  0  0  0  0  0
  1  2  1  0
  2  3  1  0
  3  4  2  0
  3  5  1  0
  5  6  2  0
  6  7  1  0
  7  8  1  0
  8  9  1  0
  8 10  1  0
  8 11  1  0
  6 12  1  0
 12 13  1  0
 12 14  2  0
 14 15  1  0
 14 16  1  0
 16 17  1  0
 16 18  2  0
 18 19  1  0
 19 20  1  0
 20 21  1  0
 20 22  1  0
 20 23  1  0
  2 24  2  0
 24 25  1  0
 24 26  1  0
 26 27  1  0
 26 28  1  0
 28 29  1  0
 28 30  1  0
 28 31  1  0
 26 32  1  0
 32 33  1  0
 32 34  1  0
 32 35  1  0
 18  5  1  0
M  CHG  1  26   1
M  END
>  <UniqueID>  (17) 
15

>  <SMILES>  (17) 
COc1cccc(OC)c1C(=O)/C=C\[NH+](C)C

>  <Energy>  (17) 
41.76604141725055

>  <Genealogy>  (17) 
COc1cccc(OC)c1C(=O)C=C[NH+](C)C (protonated)
COc1cccc(OC)c1C(=O)/C=C\[NH+](C)C (cis-trans isomerization)
COc1cccc(OC)c1C(=O)/C=C\[NH+](C)C (3D coordinates assigned)
COc1cccc(OC)c1C(=O)/C=C\[NH+](C)C (optimized conformer: 41.76604141725055 kcal/mol)

>  <smiles>  (17) 
COc1cccc(OC)c1C(=O)C=CN(C)C

>  <score_type>  (17) 
oracle

>  <origin>  (17) 
adg

>  <m_score__min__energy>  (17) 
-3.77

>  <m_primary>  (17) 
energy

$$$$
17:0
     RDKit          3D

 29 31  0  0  0  0  0  0  0  0999 V2000
   60.0150   35.1980   46.3920 C   0  0  0  0  0  0  0  0  0  0  0  0
   59.1110   34.1580   45.9090 N   0  0  0  0  0  0  0  0  0  0  0  0
   58.0560   34.4220   45.1450 N   0  0  0  0  0  0  0  0  0  0  0  0
   57.4220   33.2590   44.8710 C   0  0  0  0  0  0  0  0  0  0  0  0
   58.1090   32.2340   45.4870 C   0  0  0  0  0  0  0  0  0  0  0  0
   57.8780   30.8580   45.5330 C   0  0  0  0  0  0  0  0  0  0  0  0
   56.7590   30.2590   44.8520 C   0  0  0  0  0  0  0  0  0  0  0  0
   55.8600   29.7780   44.3050 N   0  0  0  0  0  0  0  0  0  0  0  0
   58.7790   30.0690   46.2710 C   0  0  0  0  0  0  0  0  0  0  0  0
   59.8720   30.6650   46.9350 C   0  0  0  0  0  0  0  0  0  0  0  0
   60.0870   32.0580   46.8730 C   0  0  0  0  0  0  0  0  0  0  0  0
   61.2450   32.6400   47.5680 C   0  0  0  0  0  0  0  0  0  0  0  0
   61.0590   33.4960   48.6590 C   0  0  0  0  0  0  0  0  0  0  0  0
   62.1680   34.0550   49.2990 C   0  0  0  0  0  0  0  0  0  0  0  0
   63.4490   33.7590   48.8300 C   0  0  0  0  0  0  0  0  0  0  0  0
   63.6120   32.9350   47.7580 N   0  0  0  0  0  0  0  0  0  0  0  0
   62.5460   32.3790   47.1210 C   0  0  0  0  0  0  0  0  0  0  0  0
   59.1680   32.8240   46.1290 C   0  0  0  0  0  0  0  0  0  0  0  0
   60.0169   35.2002   47.4920 H   0  0  0  0  0  0  0  0  0  0  0  0
   61.0324   34.9994   46.0239 H   0  0  0  0  0  0  0  0  0  0  0  0
   59.6767   36.1778   46.0239 H   0  0  0  0  0  0  0  0  0  0  0  0
   56.5133   33.1494   44.2608 H   0  0  0  0  0  0  0  0  0  0  0  0
   58.6305   28.9807   46.3308 H   0  0  0  0  0  0  0  0  0  0  0  0
   60.5666   30.0344   47.5094 H   0  0  0  0  0  0  0  0  0  0  0  0
   60.0432   33.7280   49.0116 H   0  0  0  0  0  0  0  0  0  0  0  0
   62.0331   34.7215   50.1636 H   0  0  0  0  0  0  0  0  0  0  0  0
   64.3291   34.1924   49.3276 H   0  0  0  0  0  0  0  0  0  0  0  0
   64.5780   32.7260   47.4160 H   0  0  0  0  0  0  0  0  0  0  0  0
   62.7066   31.7229   46.2528 H   0  0  0  0  0  0  0  0  0  0  0  0
  1  2  1  0
  2  3  1  0
  3  4  2  0
  4  5  1  0
  5  6  2  0
  6  7  1  0
  7  8  3  0
  6  9  1  0
  9 10  2  0
 10 11  1  0
 11 12  1  0
 12 13  2  0
 13 14  1  0
 14 15  2  0
 15 16  1  0
 16 17  2  0
 11 18  2  0
 18  2  1  0
 18  5  1  0
 17 12  1  0
  1 19  1  0
  1 20  1  0
  1 21  1  0
  4 22  1  0
  9 23  1  0
 10 24  1  0
 13 25  1  0
 14 26  1  0
 15 27  1  0
 16 28  1  0
 17 29  1  0
M  CHG  1  16   1
M  END
>  <UniqueID>  (18) 
16

>  <SMILES>  (18) 
Cn1ncc2c(C#N)ccc(-c3ccc[nH+]c3)c21

>  <Energy>  (18) 
77.98459940484284

>  <Genealogy>  (18) 
Cn1ncc2c(C#N)ccc(-c3ccc[nH+]c3)c21 (protonated)
Cn1ncc2c(C#N)ccc(-c3ccc[nH+]c3)c21 (3D coordinates assigned)
Cn1ncc2c(C#N)ccc(-c3ccc[nH+]c3)c21 (optimized conformer: 77.98459940484284 kcal/mol)

>  <smiles>  (18) 
Cn1ncc2c(C#N)ccc(-c3cccnc3)c21

>  <score_type>  (18) 
oracle

>  <origin>  (18) 
adg

>  <m_score__min__energy>  (18) 
-5.5800000000000001

>  <m_primary>  (18) 
energy

$$$$
18:0
     RDKit          3D

 38 41  0  0  0  0  0  0  0  0999 V2000
   55.8940   29.7150   42.6400 C   0  0  0  0  0  0  0  0  0  0  0  0
   56.7740   30.3340   43.6920 C   0  0  0  0  0  0  0  0  0  0  0  0
   57.4880   31.5040   43.3920 C   0  0  0  0  0  0  0  0  0  0  0  0
   58.3110   32.0990   44.3480 C   0  0  0  0  0  0  0  0  0  0  0  0
   58.4500   31.5310   45.6240 C   0  0  0  0  0  0  0  0  0  0  0  0
   59.3350   32.1690   46.6270 C   0  0  0  0  0  0  0  0  0  0  0  0
   60.6790   31.9790   46.6590 N   0  0  0  0  0  0  0  0  0  0  0  0
   61.2560   32.6750   47.6720 C   0  0  0  0  0  0  0  0  0  0  0  0
   62.6240   32.6740   47.9510 C   0  0  0  0  0  0  0  0  0  0  0  0
   63.0930   33.4420   49.0320 C   0  0  0  0  0  0  0  0  0  0  0  0
   62.1950   34.1960   49.8150 C   0  0  0  0  0  0  0  0  0  0  0  0
   60.8210   34.1880   49.5240 C   0  0  0  0  0  0  0  0  0  0  0  0
   60.3840   33.4190   48.4470 C   0  0  0  0  0  0  0  0  0  0  0  0
   58.8260   33.2160   47.8660 S   0  0  0  0  0  0  0  0  0  0  0  0
   57.7470   30.3520   45.9230 C   0  0  0  0  0  0  0  0  0  0  0  0
   56.9020   29.7510   44.9730 C   0  0  0  0  0  0  0  0  0  0  0  0
   56.2190   28.5240   45.2900 N   0  0  0  0  0  0  0  0  0  0  0  0
   56.8990   27.3440   45.7550 C   0  0  0  0  0  0  0  0  0  0  0  0
   58.0910   27.4190   46.1550 O   0  0  0  0  0  0  0  0  0  0  0  0
   56.2120   26.0430   45.8080 C   0  0  0  0  0  0  0  0  0  0  0  0
   56.7980   24.8030   45.9910 C   0  0  0  0  0  0  0  0  0  0  0  0
   55.7600   23.8970   45.9770 C   0  0  0  0  0  0  0  0  0  0  0  0
   54.6090   24.6330   45.7900 C   0  0  0  0  0  0  0  0  0  0  0  0
   54.9100   25.9070   45.6940 O   0  0  0  0  0  0  0  0  0  0  0  0
   55.0865   29.1470   43.1252 H   0  0  0  0  0  0  0  0  0  0  0  0
   55.4594   30.5073   42.0129 H   0  0  0  0  0  0  0  0  0  0  0  0
   56.4928   29.0381   42.0129 H   0  0  0  0  0  0  0  0  0  0  0  0
   57.3978   31.9563   42.3933 H   0  0  0  0  0  0  0  0  0  0  0  0
   58.8560   33.0217   44.0998 H   0  0  0  0  0  0  0  0  0  0  0  0
   63.3212   32.0843   47.3376 H   0  0  0  0  0  0  0  0  0  0  0  0
   64.1673   33.4545   49.2681 H   0  0  0  0  0  0  0  0  0  0  0  0
   62.5724   34.7935   50.6580 H   0  0  0  0  0  0  0  0  0  0  0  0
   60.1108   34.7715   50.1283 H   0  0  0  0  0  0  0  0  0  0  0  0
   57.8593   29.8917   46.9157 H   0  0  0  0  0  0  0  0  0  0  0  0
   55.1770   28.5130   45.2510 H   0  0  0  0  0  0  0  0  0  0  0  0
   57.8686   24.5859   46.1206 H   0  0  0  0  0  0  0  0  0  0  0  0
   55.8345   22.8056   46.0919 H   0  0  0  0  0  0  0  0  0  0  0  0
   53.5929   24.2158   45.7303 H   0  0  0  0  0  0  0  0  0  0  0  0
  1  2  1  0
  2  3  2  0
  3  4  1  0
  4  5  2  0
  5  6  1  0
  6  7  2  0
  7  8  1  0
  8  9  2  0
  9 10  1  0
 10 11  2  0
 11 12  1  0
 12 13  2  0
 13 14  1  0
  5 15  1  0
 15 16  2  0
 16 17  1  0
 17 18  1  0
 18 19  2  0
 18 20  1  0
 20 21  2  0
 21 22  1  0
 22 23  2  0
 23 24  1  0
 16  2  1  0
 24 20  1  0
 14  6  1  0
 13  8  1  0
  1 25  1  0
  1 26  1  0
  1 27  1  0
  3 28  1  0
  4 29  1  0
  9 30  1  0
 10 31  1  0
 11 32  1  0
 12 33  1  0
 15 34  1  0
 17 35  1  0
 21 36  1  0
 22 37  1  0
 23 38  1  0
M  END
>  <UniqueID>  (19) 
17

>  <SMILES>  (19) 
Cc1ccc(-c2nc3ccccc3s2)cc1NC(=O)c1ccco1

>  <Energy>  (19) 
107.56400039201979

>  <Genealogy>  (19) 
Cc1ccc(-c2nc3ccccc3s2)cc1NC(=O)c1ccco1 (3D coordinates assigned)
Cc1ccc(-c2nc3ccccc3s2)cc1NC(=O)c1ccco1 (optimized conformer: 107.56400039201979 kcal/mol)

>  <smiles>  (19) 
Cc1ccc(-c2nc3ccccc3s2)cc1NC(=O)c1ccco1

>  <score_type>  (19) 
oracle

>  <origin>  (19) 
adg

>  <m_score__min__energy>  (19) 
-8.5199999999999996

>  <m_primary>  (19) 
energy

$$$$
19:0
     RDKit          3D

 69 70  0  0  0  0  0  0  0  0999 V2000
   63.3340   33.8070   46.3410 C   0  0  0  0  0  0  0  0  0  0  0  0
   63.5370   32.5580   47.2140 C   0  0  0  0  0  0  0  0  0  0  0  0
   63.6770   32.8570   48.6570 N   0  0  0  0  0  0  0  0  0  0  0  0
   62.7820   33.9500   49.1080 C   0  0  0  0  0  0  0  0  0  0  0  0
   63.0650   34.2660   50.5720 C   0  0  0  0  0  0  0  0  0  0  0  0
   63.6170   31.6450   49.5050 C   0  0  0  0  0  0  0  0  0  0  0  0
   62.1810   31.1190   49.6240 C   0  0  0  0  0  0  0  0  0  0  0  0
   61.7090   30.5820   48.3900 O   0  0  0  0  0  0  0  0  0  0  0  0
   60.6190   29.7060   48.2940 C   0  0  0  0  0  0  0  0  0  0  0  0
   60.7770   28.5320   47.8630 O   0  0  0  0  0  0  0  0  0  0  0  0
   59.2560   30.1340   48.7560 C   0  0  0  0  0  0  0  0  0  0  0  0
   58.7260   31.3440   47.9700 C   0  0  0  0  0  0  0  0  0  0  0  0
   59.3820   32.6740   48.3850 C   0  0  0  0  0  0  0  0  0  0  0  0
   59.9540   33.5290   47.2350 C   0  0  0  0  0  0  0  0  0  0  0  0
   58.9120   34.2900   46.3860 C   0  0  0  0  0  0  0  0  0  0  0  0
   57.7370   33.4260   45.8980 C   0  0  0  0  0  0  0  0  0  0  0  0
   57.5270   33.4880   44.3790 C   0  0  0  0  0  0  0  0  0  0  0  0
   57.9480   32.2710   43.7630 O   0  0  0  0  0  0  0  0  0  0  0  0
   57.8440   30.9920   44.3370 C   0  0  0  0  0  0  0  0  0  0  0  0
   56.5850   30.3820   44.3660 C   0  0  0  0  0  0  0  0  0  0  0  0
   56.4220   29.1100   44.9200 C   0  0  0  0  0  0  0  0  0  0  0  0
   57.5220   28.4200   45.4600 C   0  0  0  0  0  0  0  0  0  0  0  0
   57.3530   27.0650   46.0450 C   0  0  0  0  0  0  0  0  0  0  0  0
   58.4140   26.4120   46.6910 C   0  0  0  0  0  0  0  0  0  0  0  0
   58.2370   25.1720   47.2140 N   0  0  0  0  0  0  0  0  0  0  0  0
   57.0390   24.5380   47.1310 C   0  0  0  0  0  0  0  0  0  0  0  0
   56.9100   23.3510   47.6430 N   0  0  0  0  0  0  0  0  0  0  0  0
   55.6470   22.8050   48.1290 C   0  0  0  0  0  0  0  0  0  0  0  0
   55.9930   25.1510   46.5120 N   0  0  0  0  0  0  0  0  0  0  0  0
   56.1250   26.3900   45.9720 C   0  0  0  0  0  0  0  0  0  0  0  0
   58.7860   29.0360   45.4360 C   0  0  0  0  0  0  0  0  0  0  0  0
   58.9470   30.3090   44.8810 C   0  0  0  0  0  0  0  0  0  0  0  0
   63.1911   34.6862   46.9864 H   0  0  0  0  0  0  0  0  0  0  0  0
   64.2193   33.9583   45.7060 H   0  0  0  0  0  0  0  0  0  0  0  0
   62.4463   33.6702   45.7060 H   0  0  0  0  0  0  0  0  0  0  0  0
   62.6694   31.8953   47.0792 H   0  0  0  0  0  0  0  0  0  0  0  0
   64.4778   32.0888   46.8901 H   0  0  0  0  0  0  0  0  0  0  0  0
   62.9623   34.8472   48.4976 H   0  0  0  0  0  0  0  0  0  0  0  0
   61.7338   33.6356   48.9964 H   0  0  0  0  0  0  0  0  0  0  0  0
   62.4685   33.6000   51.2128 H   0  0  0  0  0  0  0  0  0  0  0  0
   64.1344   34.1139   50.7799 H   0  0  0  0  0  0  0  0  0  0  0  0
   62.7963   35.3122   50.7799 H   0  0  0  0  0  0  0  0  0  0  0  0
   64.2491   30.8634   49.0583 H   0  0  0  0  0  0  0  0  0  0  0  0
   63.9754   31.9071   50.5114 H   0  0  0  0  0  0  0  0  0  0  0  0
   62.1534   30.3295   50.3895 H   0  0  0  0  0  0  0  0  0  0  0  0
   61.5304   31.9616   49.9010 H   0  0  0  0  0  0  0  0  0  0  0  0
   58.5582   29.2939   48.6247 H   0  0  0  0  0  0  0  0  0  0  0  0
   59.3364   30.4286   49.8128 H   0  0  0  0  0  0  0  0  0  0  0  0
   58.9201   31.1777   46.9001 H   0  0  0  0  0  0  0  0  0  0  0  0
   57.6511   31.4288   48.1877 H   0  0  0  0  0  0  0  0  0  0  0  0
   58.6237   33.2755   48.9077 H   0  0  0  0  0  0  0  0  0  0  0  0
   60.2444   32.3991   49.0100 H   0  0  0  0  0  0  0  0  0  0  0  0
   60.6396   34.2695   47.6727 H   0  0  0  0  0  0  0  0  0  0  0  0
   60.4421   32.8215   46.5485 H   0  0  0  0  0  0  0  0  0  0  0  0
   58.5057   35.1111   46.9948 H   0  0  0  0  0  0  0  0  0  0  0  0
   59.4373   34.6427   45.4862 H   0  0  0  0  0  0  0  0  0  0  0  0
   57.9310   32.3809   46.1812 H   0  0  0  0  0  0  0  0  0  0  0  0
   56.8248   33.8209   46.3691 H   0  0  0  0  0  0  0  0  0  0  0  0
   56.4596   33.6495   44.1680 H   0  0  0  0  0  0  0  0  0  0  0  0
   58.1252   34.3166   43.9721 H   0  0  0  0  0  0  0  0  0  0  0  0
   55.7148   30.9095   43.9483 H   0  0  0  0  0  0  0  0  0  0  0  0
   55.4255   28.6445   44.9340 H   0  0  0  0  0  0  0  0  0  0  0  0
   59.3929   26.9070   46.7738 H   0  0  0  0  0  0  0  0  0  0  0  0
   55.6467   22.8049   49.2290 H   0  0  0  0  0  0  0  0  0  0  0  0
   54.8147   23.4237   47.7622 H   0  0  0  0  0  0  0  0  0  0  0  0
   55.5275   21.7749   47.7622 H   0  0  0  0  0  0  0  0  0  0  0  0
   55.2664   26.8660   45.4757 H   0  0  0  0  0  0  0  0  0  0  0  0
   59.6560   28.5114   45.8578 H   0  0  0  0  0  0  0  0  0  0  0  0
   59.9414   30.7791   44.8696 H   0  0  0  0  0  0  0  0  0  0  0  0
  1  2  1  0
  2  3  1  0
  3  4  1  0
  4  5  1  0
  3  6  1  0
  6  7  1  0
  7  8  1  0
  8  9  1  0
  9 10  2  0
  9 11  1  0
 11 12  1  0
 12 13  1  0
 13 14  1  0
 14 15  1  0
 15 16  1  0
 16 17  1  0
 17 18  1  0
 18 19  1  0
 19 20  2  0
 20 21  1  0
 21 22  2  0
 22 23  1  0
 23 24  1  0
 24 25  2  0
 25 26  1  0
 26 27  2  3
 27 28  1  0
 26 29  1  0
 29 30  1  0
 22 31  1  0
 31 32  2  0
 32 19  1  0
 30 23  2  0
  1 33  1  0
  1 34  1  0
  1 35  1  0
  2 36  1  0
  2 37  1  0
  4 38  1  0
  4 39  1  0
  5 40  1  0
  5 41  1  0
  5 42  1  0
  6 43  1  0
  6 44  1  0
  7 45  1  0
  7 46  1  0
 11 47  1  0
 11 48  1  0
 12 49  1  0
 12 50  1  0
 13 51  1  0
 13 52  1  0
 14 53  1  0
 14 54  1  0
 15 55  1  0
 15 56  1  0
 16 57  1  0
 16 58  1  0
 17 59  1  0
 17 60  1  0
 20 61  1  0
 21 62  1  0
 24 63  1  0
 28 64  1  0
 28 65  1  0
 28 66  1  0
 30 67  1  0
 31 68  1  0
 32 69  1  0
M  CHG  1  29  -1
M  END
>  <UniqueID>  (20) 
18

>  <SMILES>  (20) 
CCN(CC)CCOC(=O)CCCCCCCOc1ccc(-c2cnc(=NC)[n-]c2)cc1

>  <Energy>  (20) 
65.74615453142043

>  <Genealogy>  (20) 
CCN(CC)CCOC(=O)CCCCCCCOc1ccc(-c2cnc(=NC)[n-]c2)cc1 (protonated)
CCN(CC)CCOC(=O)CCCCCCCOc1ccc(-c2cnc(=NC)[n-]c2)cc1 (3D coordinates assigned)
CCN(CC)CCOC(=O)CCCCCCCOc1ccc(-c2cnc(=NC)[n-]c2)cc1 (optimized conformer: 65.74615453142043 kcal/mol)

>  <smiles>  (20) 
CCN(CC)CCOC(=O)CCCCCCCOc1ccc(-c2cnc(=NC)[nH]c2)cc1

>  <score_type>  (20) 
oracle

>  <origin>  (20) 
adg

>  <m_score__min__energy>  (20) 
-8.0299999999999994

>  <m_primary>  (20) 
energy

$$$$
20:0
     RDKit          3D

 54 58  0  0  0  0  0  0  0  0999 V2000
   63.9940   30.2760   53.0300 C   0  0  0  0  0  0  0  0  0  0  0  0
   64.3260   31.7640   52.9780 C   0  0  0  0  0  0  0  0  0  0  0  0
   64.7370   32.1550   51.6260 N   0  0  0  0  0  0  0  0  0  0  0  0
   65.9750   32.1090   51.0490 C   0  0  0  0  0  0  0  0  0  0  0  0
   67.2220   31.6710   51.7130 C   0  0  0  0  0  0  0  0  0  0  0  0
   67.5210   30.3460   52.0310 C   0  0  0  0  0  0  0  0  0  0  0  0
   68.9970   30.3340   52.8370 S   0  0  0  0  0  0  0  0  0  0  0  0
   69.1990   31.9990   52.7670 C   0  0  0  0  0  0  0  0  0  0  0  0
   68.1500   32.5720   52.1400 N   0  0  0  0  0  0  0  0  0  0  0  0
   65.9650   32.4630   49.7370 N   0  0  0  0  0  0  0  0  0  0  0  0
   64.6740   32.7540   49.5040 C   0  0  0  0  0  0  0  0  0  0  0  0
   64.1050   33.1690   48.3030 C   0  0  0  0  0  0  0  0  0  0  0  0
   62.7090   33.3880   48.2680 C   0  0  0  0  0  0  0  0  0  0  0  0
   62.0640   33.8470   47.0190 C   0  0  0  0  0  0  0  0  0  0  0  0
   62.7880   34.2020   46.0500 O   0  0  0  0  0  0  0  0  0  0  0  0
   60.6310   33.8830   46.8850 N   0  0  0  0  0  0  0  0  0  0  0  0
   59.8300   32.7250   47.3200 C   0  0  0  0  0  0  0  0  0  0  0  0
   58.4030   32.7970   46.7700 C   0  0  0  0  0  0  0  0  0  0  0  0
   58.4390   33.1890   45.3540 N   0  0  0  0  0  0  0  0  0  0  0  0
   57.8230   32.3650   44.3440 C   0  0  0  0  0  0  0  0  0  0  0  0
   57.0770   31.2300   44.7090 C   0  0  0  0  0  0  0  0  0  0  0  0
   56.4930   30.4220   43.7280 C   0  0  0  0  0  0  0  0  0  0  0  0
   56.6540   30.7360   42.3750 C   0  0  0  0  0  0  0  0  0  0  0  0
   57.3990   31.8570   42.0020 C   0  0  0  0  0  0  0  0  0  0  0  0
   57.9840   32.6680   42.9810 C   0  0  0  0  0  0  0  0  0  0  0  0
   59.1960   34.3860   44.9520 C   0  0  0  0  0  0  0  0  0  0  0  0
   59.9920   34.9680   46.1270 C   0  0  0  0  0  0  0  0  0  0  0  0
   61.9410   33.1990   49.4480 C   0  0  0  0  0  0  0  0  0  0  0  0
   62.5510   32.7750   50.6420 C   0  0  0  0  0  0  0  0  0  0  0  0
   63.9320   32.5680   50.6300 C   0  0  0  0  0  0  0  0  0  0  0  0
   63.9219   29.9528   54.0790 H   0  0  0  0  0  0  0  0  0  0  0  0
   63.0338   30.0967   52.5243 H   0  0  0  0  0  0  0  0  0  0  0  0
   64.7869   29.7055   52.5243 H   0  0  0  0  0  0  0  0  0  0  0  0
   63.4364   32.3430   53.2669 H   0  0  0  0  0  0  0  0  0  0  0  0
   65.1545   31.9666   53.6726 H   0  0  0  0  0  0  0  0  0  0  0  0
   66.9025   29.4670   51.7967 H   0  0  0  0  0  0  0  0  0  0  0  0
   70.0628   32.5451   53.1740 H   0  0  0  0  0  0  0  0  0  0  0  0
   68.0700   33.6040   51.9970 H   0  0  0  0  0  0  0  0  0  0  0  0
   64.7242   33.3221   47.4068 H   0  0  0  0  0  0  0  0  0  0  0  0
   60.3075   31.8027   46.9576 H   0  0  0  0  0  0  0  0  0  0  0  0
   59.7791   32.7313   48.4188 H   0  0  0  0  0  0  0  0  0  0  0  0
   57.9241   31.8113   46.8648 H   0  0  0  0  0  0  0  0  0  0  0  0
   57.8290   33.5420   47.3406 H   0  0  0  0  0  0  0  0  0  0  0  0
   56.9521   30.9763   45.7720 H   0  0  0  0  0  0  0  0  0  0  0  0
   55.9065   29.5387   44.0211 H   0  0  0  0  0  0  0  0  0  0  0  0
   56.1939   30.1001   41.6043 H   0  0  0  0  0  0  0  0  0  0  0  0
   57.5261   32.1027   40.9373 H   0  0  0  0  0  0  0  0  0  0  0  0
   58.5731   33.5475   42.6821 H   0  0  0  0  0  0  0  0  0  0  0  0
   59.8944   34.1137   44.1470 H   0  0  0  0  0  0  0  0  0  0  0  0
   58.4807   35.1478   44.6084 H   0  0  0  0  0  0  0  0  0  0  0  0
   60.7656   35.6486   45.7419 H   0  0  0  0  0  0  0  0  0  0  0  0
   59.3084   35.5188   46.7898 H   0  0  0  0  0  0  0  0  0  0  0  0
   60.8573   33.3864   49.4275 H   0  0  0  0  0  0  0  0  0  0  0  0
   61.9599   32.6118   51.5552 H   0  0  0  0  0  0  0  0  0  0  0  0
  1  2  1  0
  2  3  1  0
  3  4  1  0
  4  5  1  0
  5  6  2  0
  6  7  1  0
  7  8  1  0
  8  9  2  0
  4 10  2  0
 10 11  1  0
 11 12  2  0
 12 13  1  0
 13 14  1  0
 14 15  2  0
 14 16  1  0
 16 17  1  0
 17 18  1  0
 18 19  1  0
 19 20  1  0
 20 21  2  0
 21 22  1  0
 22 23  2  0
 23 24  1  0
 24 25  2  0
 19 26  1  0
 26 27  1  0
 13 28  2  0
 28 29  1  0
 29 30  2  0
 30  3  1  0
  9  5  1  0
 30 11  1  0
 27 16  1  0
 25 20  1  0
  1 31  1  0
  1 32  1  0
  1 33  1  0
  2 34  1  0
  2 35  1  0
  6 36  1  0
  8 37  1  0
  9 38  1  0
 12 39  1  0
 17 40  1  0
 17 41  1  0
 18 42  1  0
 18 43  1  0
 21 44  1  0
 22 45  1  0
 23 46  1  0
 24 47  1  0
 25 48  1  0
 26 49  1  0
 26 50  1  0
 27 51  1  0
 27 52  1  0
 28 53  1  0
 29 54  1  0
M  CHG  1   9   1
M  END
>  <UniqueID>  (21) 
19

>  <SMILES>  (21) 
CCn1c(-c2csc[nH+]2)nc2cc(C(=O)N3CCN(c4ccccc4)CC3)ccc21

>  <Energy>  (21) 
137.27603785186471

>  <Genealogy>  (21) 
CCn1c(-c2csc[nH+]2)nc2cc(C(=O)N3CCN(c4ccccc4)CC3)ccc21 (protonated)
CCn1c(-c2csc[nH+]2)nc2cc(C(=O)N3CCN(c4ccccc4)CC3)ccc21 (3D coordinates assigned)
CCn1c(-c2csc[nH+]2)nc2cc(C(=O)N3CCN(c4ccccc4)CC3)ccc21 (nonaromatic ring conformer: 137.27603785186471 kcal/mol)

>  <smiles>  (21) 
CCn1c(-c2cscn2)nc2cc(C(=O)N3CCN(c4ccccc4)CC3)ccc21

>  <score_type>  (21) 
oracle

>  <origin>  (21) 
adg

>  <m_score__min__energy>  (21) 
-7.0599999999999996

>  <m_primary>  (21) 
energy

$$$$
21:0
     RDKit          3D

 44 47  0  0  0  0  0  0  0  0999 V2000
   66.3527   31.0931   52.3398 H   0  0  0  0  0  0  0  0  0  0  0  0
   65.7260   31.4720   51.5190 C   0  0  0  0  0  0  0  0  0  0  0  0
   66.1520   32.5220   50.7680 N   0  0  0  0  0  0  0  0  0  0  0  0
   65.4000   33.0260   49.7510 C   0  0  0  0  0  0  0  0  0  0  0  0
   65.7753   33.8732   49.1582 H   0  0  0  0  0  0  0  0  0  0  0  0
   64.1480   32.4670   49.4580 C   0  0  0  0  0  0  0  0  0  0  0  0
   63.3050   33.0080   48.3720 C   0  0  0  0  0  0  0  0  0  0  0  0
   62.0570   33.5120   48.5110 N   0  0  0  0  0  0  0  0  0  0  0  0
   61.2320   33.6310   49.7230 C   0  0  0  0  0  0  0  0  0  0  0  0
   61.8929   33.6821   50.6008 H   0  0  0  0  0  0  0  0  0  0  0  0
   60.6226   34.5426   49.6357 H   0  0  0  0  0  0  0  0  0  0  0  0
   60.2990   32.4530   49.8800 C   0  0  0  0  0  0  0  0  0  0  0  0
   59.1310   32.5770   50.6530 C   0  0  0  0  0  0  0  0  0  0  0  0
   58.8977   33.5339   51.1428 H   0  0  0  0  0  0  0  0  0  0  0  0
   58.2650   31.4900   50.8020 C   0  0  0  0  0  0  0  0  0  0  0  0
   57.3575   31.5911   51.4154 H   0  0  0  0  0  0  0  0  0  0  0  0
   58.5500   30.2750   50.1730 C   0  0  0  0  0  0  0  0  0  0  0  0
   57.8703   29.4190   50.2962 H   0  0  0  0  0  0  0  0  0  0  0  0
   59.6980   30.1480   49.3880 C   0  0  0  0  0  0  0  0  0  0  0  0
   59.9195   29.1929   48.8894 H   0  0  0  0  0  0  0  0  0  0  0  0
   60.5660   31.2330   49.2350 C   0  0  0  0  0  0  0  0  0  0  0  0
   61.4629   31.1315   48.6064 H   0  0  0  0  0  0  0  0  0  0  0  0
   61.7180   33.8440   47.2440 C   0  0  0  0  0  0  0  0  0  0  0  0
   60.1700   34.6150   46.7510 S   0  0  0  0  0  0  0  0  0  0  0  0
   59.5390   33.1460   45.8690 C   0  0  0  0  0  0  0  0  0  0  0  0
   60.3739   32.4564   45.6756 H   0  0  0  0  0  0  0  0  0  0  0  0
   59.0831   33.4741   44.9232 H   0  0  0  0  0  0  0  0  0  0  0  0
   58.4920   32.4350   46.6850 C   0  0  0  0  0  0  0  0  0  0  0  0
   57.7770   33.1060   47.4750 O   0  0  0  0  0  0  0  0  0  0  0  0
   58.2280   31.0320   46.5390 N   0  0  0  0  0  0  0  0  0  0  0  0
   57.6970   30.4510   45.5040 C   0  0  0  0  0  0  0  0  0  0  0  0
   56.5880   30.8910   44.8660 N   0  0  0  0  0  0  0  0  0  0  0  0
   56.2830   30.1020   43.8010 C   0  0  0  0  0  0  0  0  0  0  0  0
   55.4102   30.2896   43.1583 H   0  0  0  0  0  0  0  0  0  0  0  0
   57.1550   29.0410   43.5840 C   0  0  0  0  0  0  0  0  0  0  0  0
   57.0767   28.2962   42.7783 H   0  0  0  0  0  0  0  0  0  0  0  0
   58.3510   29.0930   44.7670 S   0  0  0  0  0  0  0  0  0  0  0  0
   62.6950   33.5420   46.3680 N   0  0  0  0  0  0  0  0  0  0  0  0
   63.6770   33.0120   47.0780 N   0  0  0  0  0  0  0  0  0  0  0  0
   64.5810   32.6730   46.6810 H   0  0  0  0  0  0  0  0  0  0  0  0
   63.7050   31.3700   50.2090 C   0  0  0  0  0  0  0  0  0  0  0  0
   62.7373   30.9002   49.9792 H   0  0  0  0  0  0  0  0  0  0  0  0
   64.4930   30.8740   51.2490 C   0  0  0  0  0  0  0  0  0  0  0  0
   64.1463   30.0205   51.8501 H   0  0  0  0  0  0  0  0  0  0  0  0
  1  2  1  0
  2  3  2  0
  3  4  1  0
  4  5  1  0
  4  6  2  0
  6  7  1  0
  7  8  1  0
  8  9  1  0
  9 10  1  0
  9 11  1  0
  9 12  1  0
 12 13  2  0
 13 14  1  0
 13 15  1  0
 15 16  1  0
 15 17  2  0
 17 18  1  0
 17 19  1  0
 19 20  1  0
 19 21  2  0
 21 22  1  0
  8 23  1  0
 23 24  1  0
 24 25  1  0
 25 26  1  0
 25 27  1  0
 25 28  1  0
 28 29  2  0
 28 30  1  0
 30 31  2  0
 31 32  1  0
 32 33  1  0
 33 34  1  0
 33 35  2  0
 35 36  1  0
 35 37  1  0
 23 38  2  0
 38 39  1  0
 39 40  1  0
  6 41  1  0
 41 42  1  0
 41 43  2  0
 43 44  1  0
 43  2  1  0
 39  7  2  0
 21 12  1  0
 37 31  1  0
M  CHG  2  32  -1  39   1
M  END
>  <UniqueID>  (22) 
20

>  <SMILES>  (22) 
O=C(CSc1n[nH+]c(-c2cccnc2)n1Cc1ccccc1)/N=c1\[n-]ccs1

>  <Energy>  (22) 
116.5113047916568

>  <Genealogy>  (22) 
O=C(CSc1n[nH+]c(-c2cccnc2)n1Cc1ccccc1)N=c1[n-]ccs1 (protonated)
O=C(CSc1n[nH+]c(-c2cccnc2)n1Cc1ccccc1)/N=c1\[n-]ccs1 (cis-trans isomerization)
O=C(CSc1n[nH+]c(-c2cccnc2)n1Cc1ccccc1)/N=c1\[n-]ccs1 (3D coordinates assigned)
O=C(CSc1n[nH+]c(-c2cccnc2)n1Cc1ccccc1)/N=c1\[n-]ccs1 (optimized conformer: 116.5113047916568 kcal/mol)

>  <smiles>  (22) 
O=C(CSc1nnc(-c2cccnc2)n1Cc1ccccc1)N=c1[nH]ccs1

>  <score_type>  (22) 
oracle

>  <origin>  (22) 
adg

>  <m_score__min__energy>  (22) 
-9.2899999999999991

>  <m_primary>  (22) 
energy

$$$$
22:0
     RDKit          3D

 44 47  0  0  0  0  0  0  0  0999 V2000
   57.2180   34.0820   45.2440 C   0  0  0  0  0  0  0  0  0  0  0  0
   58.4390   34.0080   46.1110 C   0  0  0  0  0  0  0  0  0  0  0  0
   59.7080   34.2590   45.5660 C   0  0  0  0  0  0  0  0  0  0  0  0
   60.8440   34.2250   46.3810 C   0  0  0  0  0  0  0  0  0  0  0  0
   60.7240   33.9660   47.7540 C   0  0  0  0  0  0  0  0  0  0  0  0
   61.9320   33.9290   48.5990 C   0  0  0  0  0  0  0  0  0  0  0  0
   61.9310   34.3140   49.8980 N   0  0  0  0  0  0  0  0  0  0  0  0
   63.1830   34.0380   50.3140 C   0  0  0  0  0  0  0  0  0  0  0  0
   63.6650   34.2250   51.6080 C   0  0  0  0  0  0  0  0  0  0  0  0
   64.9820   33.8250   51.8810 C   0  0  0  0  0  0  0  0  0  0  0  0
   65.7730   33.2500   50.8690 C   0  0  0  0  0  0  0  0  0  0  0  0
   65.2380   33.0840   49.5840 C   0  0  0  0  0  0  0  0  0  0  0  0
   63.9600   33.4930   49.3590 N   0  0  0  0  0  0  0  0  0  0  0  0
   63.1850   33.4210   48.2590 C   0  0  0  0  0  0  0  0  0  0  0  0
   63.5130   32.6630   47.0740 N   0  0  0  0  0  0  0  0  0  0  0  0
   63.2920   31.2210   47.2750 C   0  0  0  0  0  0  0  0  0  0  0  0
   61.8780   30.9240   47.7140 C   0  0  0  0  0  0  0  0  0  0  0  0
   61.5810   30.7430   49.0750 C   0  0  0  0  0  0  0  0  0  0  0  0
   60.2850   30.4000   49.4730 C   0  0  0  0  0  0  0  0  0  0  0  0
   59.2790   30.2370   48.5180 C   0  0  0  0  0  0  0  0  0  0  0  0
   59.5670   30.4150   47.1610 C   0  0  0  0  0  0  0  0  0  0  0  0
   60.8620   30.7550   46.7590 C   0  0  0  0  0  0  0  0  0  0  0  0
   59.4550   33.7100   48.2980 C   0  0  0  0  0  0  0  0  0  0  0  0
   58.3190   33.7430   47.4830 C   0  0  0  0  0  0  0  0  0  0  0  0
   56.3208   34.1364   45.8781 H   0  0  0  0  0  0  0  0  0  0  0  0
   57.2730   34.9785   44.6089 H   0  0  0  0  0  0  0  0  0  0  0  0
   57.1644   33.1855   44.6089 H   0  0  0  0  0  0  0  0  0  0  0  0
   59.8093   34.4833   44.4939 H   0  0  0  0  0  0  0  0  0  0  0  0
   61.8372   34.4024   45.9426 H   0  0  0  0  0  0  0  0  0  0  0  0
   63.0335   34.6717   52.3901 H   0  0  0  0  0  0  0  0  0  0  0  0
   65.3978   33.9614   52.8902 H   0  0  0  0  0  0  0  0  0  0  0  0
   66.8040   32.9330   51.0848 H   0  0  0  0  0  0  0  0  0  0  0  0
   65.8363   32.6344   48.7779 H   0  0  0  0  0  0  0  0  0  0  0  0
   64.5030   32.8370   46.7900 H   0  0  0  0  0  0  0  0  0  0  0  0
   62.9150   32.9830   46.2810 H   0  0  0  0  0  0  0  0  0  0  0  0
   63.4883   30.6958   46.3286 H   0  0  0  0  0  0  0  0  0  0  0  0
   63.9740   30.8787   48.0673 H   0  0  0  0  0  0  0  0  0  0  0  0
   62.3704   30.8715   49.8302 H   0  0  0  0  0  0  0  0  0  0  0  0
   60.0576   30.2584   50.5399 H   0  0  0  0  0  0  0  0  0  0  0  0
   58.2599   29.9686   48.8332 H   0  0  0  0  0  0  0  0  0  0  0  0
   58.7739   30.2874   46.4095 H   0  0  0  0  0  0  0  0  0  0  0  0
   61.0862   30.8907   45.6907 H   0  0  0  0  0  0  0  0  0  0  0  0
   59.3540   33.4826   49.3695 H   0  0  0  0  0  0  0  0  0  0  0  0
   57.3263   33.5602   47.9203 H   0  0  0  0  0  0  0  0  0  0  0  0
  1  2  1  0
  2  3  2  0
  3  4  1  0
  4  5  2  0
  5  6  1  0
  6  7  1  0
  7  8  2  0
  8  9  1  0
  9 10  2  0
 10 11  1  0
 11 12  2  0
 12 13  1  0
 13 14  1  0
 14 15  1  0
 15 16  1  0
 16 17  1  0
 17 18  2  0
 18 19  1  0
 19 20  2  0
 20 21  1  0
 21 22  2  0
  5 23  1  0
 23 24  2  0
 24  2  1  0
 14  6  2  0
 22 17  1  0
 13  8  1  0
  1 25  1  0
  1 26  1  0
  1 27  1  0
  3 28  1  0
  4 29  1  0
  9 30  1  0
 10 31  1  0
 11 32  1  0
 12 33  1  0
 15 34  1  0
 15 35  1  0
 16 36  1  0
 16 37  1  0
 18 38  1  0
 19 39  1  0
 20 40  1  0
 21 41  1  0
 22 42  1  0
 23 43  1  0
 24 44  1  0
M  CHG  1  15   1
M  END
>  <UniqueID>  (23) 
21

>  <SMILES>  (23) 
Cc1ccc(-c2nc3ccccn3c2[NH2+]Cc2ccccc2)cc1

>  <Energy>  (23) 
86.71231570856102

>  <Genealogy>  (23) 
Cc1ccc(-c2nc3ccccn3c2[NH2+]Cc2ccccc2)cc1 (protonated)
Cc1ccc(-c2nc3ccccn3c2[NH2+]Cc2ccccc2)cc1 (3D coordinates assigned)
Cc1ccc(-c2nc3ccccn3c2[NH2+]Cc2ccccc2)cc1 (optimized conformer: 86.71231570856102 kcal/mol)

>  <smiles>  (23) 
Cc1ccc(-c2nc3ccccn3c2NCc2ccccc2)cc1

>  <score_type>  (23) 
oracle

>  <origin>  (23) 
adg

>  <m_score__min__energy>  (23) 
-5.8700000000000001

>  <m_primary>  (23) 
energy

$$$$
23:0
     RDKit          3D

 37 38  0  0  0  0  0  0  0  0999 V2000
   61.1708   27.0460   45.9388 H   0  0  0  0  0  0  0  0  0  0  0  0
   60.0900   26.9270   46.1050 C   0  0  0  0  0  0  0  0  0  0  0  0
   59.6470   25.7570   46.5870 C   0  0  0  0  0  0  0  0  0  0  0  0
   59.5845   25.6439   47.6794 H   0  0  0  0  0  0  0  0  0  0  0  0
   59.2280   24.5840   45.7340 C   0  0  0  0  0  0  0  0  0  0  0  0
   59.7213   24.6625   44.7539 H   0  0  0  0  0  0  0  0  0  0  0  0
   59.5243   23.6608   46.2535 H   0  0  0  0  0  0  0  0  0  0  0  0
   57.7350   24.5460   45.5270 C   0  0  0  0  0  0  0  0  0  0  0  0
   56.9350   25.6380   45.9070 C   0  0  0  0  0  0  0  0  0  0  0  0
   57.3959   26.5123   46.3899 H   0  0  0  0  0  0  0  0  0  0  0  0
   55.5560   25.6180   45.6740 C   0  0  0  0  0  0  0  0  0  0  0  0
   54.7760   26.7100   46.0330 O   0  0  0  0  0  0  0  0  0  0  0  0
   54.9640   24.5020   45.0760 C   0  0  0  0  0  0  0  0  0  0  0  0
   53.8797   24.4876   44.8917 H   0  0  0  0  0  0  0  0  0  0  0  0
   55.7490   23.4040   44.7120 C   0  0  0  0  0  0  0  0  0  0  0  0
   55.1580   22.2940   44.1210 O   0  0  0  0  0  0  0  0  0  0  0  0
   57.1290   23.4240   44.9380 C   0  0  0  0  0  0  0  0  0  0  0  0
   57.7429   22.5568   44.6531 H   0  0  0  0  0  0  0  0  0  0  0  0
   59.2060   28.0620   45.7860 C   0  0  0  0  0  0  0  0  0  0  0  0
   59.0090   29.0580   46.7520 C   0  0  0  0  0  0  0  0  0  0  0  0
   59.4758   28.9580   47.7430 H   0  0  0  0  0  0  0  0  0  0  0  0
   58.2250   30.1750   46.4650 C   0  0  0  0  0  0  0  0  0  0  0  0
   58.0877   30.9578   47.2255 H   0  0  0  0  0  0  0  0  0  0  0  0
   57.6090   30.3050   45.2070 C   0  0  0  0  0  0  0  0  0  0  0  0
   56.8250   31.4170   44.8670 O   0  0  0  0  0  0  0  0  0  0  0  0
   57.3120   32.7520   44.7930 C   0  0  0  0  0  0  0  0  0  0  0  0
   57.4560   33.1467   45.8096 H   0  0  0  0  0  0  0  0  0  0  0  0
   58.2720   32.7629   44.2561 H   0  0  0  0  0  0  0  0  0  0  0  0
   56.5845   33.3785   44.2561 H   0  0  0  0  0  0  0  0  0  0  0  0
   57.7780   29.2950   44.2550 C   0  0  0  0  0  0  0  0  0  0  0  0
   57.2858   29.3847   43.2754 H   0  0  0  0  0  0  0  0  0  0  0  0
   58.5710   28.1630   44.5340 C   0  0  0  0  0  0  0  0  0  0  0  0
   58.7430   27.1280   43.6000 O   0  0  0  0  0  0  0  0  0  0  0  0
   57.7960   26.7790   42.5960 C   0  0  0  0  0  0  0  0  0  0  0  0
   56.8658   26.4362   43.0727 H   0  0  0  0  0  0  0  0  0  0  0  0
   57.5847   27.6583   41.9698 H   0  0  0  0  0  0  0  0  0  0  0  0
   58.2058   25.9728   41.9698 H   0  0  0  0  0  0  0  0  0  0  0  0
  1  2  1  0
  2  3  2  0
  3  4  1  0
  3  5  1  0
  5  6  1  0
  5  7  1  0
  5  8  1  0
  8  9  2  0
  9 10  1  0
  9 11  1  0
 11 12  1  0
 11 13  2  0
 13 14  1  0
 13 15  1  0
 15 16  1  0
 15 17  2  0
 17 18  1  0
  2 19  1  0
 19 20  2  0
 20 21  1  0
 20 22  1  0
 22 23  1  0
 22 24  2  0
 24 25  1  0
 25 26  1  0
 26 27  1  0
 26 28  1  0
 26 29  1  0
 24 30  1  0
 30 31  1  0
 30 32  2  0
 32 33  1  0
 33 34  1  0
 34 35  1  0
 34 36  1  0
 34 37  1  0
 17  8  1  0
 32 19  1  0
M  CHG  2  12  -1  16  -1
M  END
>  <UniqueID>  (24) 
22

>  <SMILES>  (24) 
COc1ccc(/C=C\Cc2cc([O-])cc([O-])c2)c(OC)c1

>  <Energy>  (24) 
39.43760755089354

>  <Genealogy>  (24) 
COc1ccc(C=CCc2cc([O-])cc([O-])c2)c(OC)c1 (protonated)
COc1ccc(/C=C\Cc2cc([O-])cc([O-])c2)c(OC)c1 (cis-trans isomerization)
COc1ccc(/C=C\Cc2cc([O-])cc([O-])c2)c(OC)c1 (3D coordinates assigned)
COc1ccc(/C=C\Cc2cc([O-])cc([O-])c2)c(OC)c1 (optimized conformer: 39.43760755089354 kcal/mol)

>  <smiles>  (24) 
COc1ccc(C=CCc2cc(O)cc(O)c2)c(OC)c1

>  <score_type>  (24) 
oracle

>  <origin>  (24) 
adg

>  <m_score__min__energy>  (24) 
-12.25

>  <m_primary>  (24) 
energy

$$$$
24:0
     RDKit          3D

 58 60  0  0  0  0  0  0  0  0999 V2000
   63.3930   33.8180   46.3560 C   0  0  0  0  0  0  0  0  0  0  0  0
   62.7590   32.6590   47.1430 C   0  0  0  0  0  0  0  0  0  0  0  0
   62.8710   32.8250   48.6240 N   0  0  0  0  0  0  0  0  0  0  0  0
   62.5090   34.1990   49.0810 C   0  0  0  0  0  0  0  0  0  0  0  0
   63.0010   34.5480   50.5010 C   0  0  0  0  0  0  0  0  0  0  0  0
   64.2000   32.4060   49.1600 C   0  0  0  0  0  0  0  0  0  0  0  0
   64.1680   31.2770   50.2220 C   0  0  0  0  0  0  0  0  0  0  0  0
   62.8510   30.6140   50.2340 N   0  0  0  0  0  0  0  0  0  0  0  0
   62.0040   31.0950   51.3420 C   0  0  0  0  0  0  0  0  0  0  0  0
   60.6910   31.6800   50.8000 C   0  0  0  0  0  0  0  0  0  0  0  0
   60.5100   31.3550   49.3720 N   0  0  0  0  0  0  0  0  0  0  0  0
   59.1580   30.9290   48.9400 C   0  0  0  0  0  0  0  0  0  0  0  0
   58.7690   31.3430   47.5220 C   0  0  0  0  0  0  0  0  0  0  0  0
   58.1780   30.3610   46.7140 C   0  0  0  0  0  0  0  0  0  0  0  0
   57.8400   30.6140   45.3820 C   0  0  0  0  0  0  0  0  0  0  0  0
   57.2780   29.5780   44.6120 C   0  0  0  0  0  0  0  0  0  0  0  0
   56.9500   29.7870   43.2750 C   0  0  0  0  0  0  0  0  0  0  0  0
   57.1730   31.0280   42.6910 C   0  0  0  0  0  0  0  0  0  0  0  0
   57.7310   32.0730   43.4410 C   0  0  0  0  0  0  0  0  0  0  0  0
   58.0790   31.8910   44.8090 C   0  0  0  0  0  0  0  0  0  0  0  0
   58.6670   32.9210   45.6200 C   0  0  0  0  0  0  0  0  0  0  0  0
   58.9540   34.2130   45.1110 C   0  0  0  0  0  0  0  0  0  0  0  0
   59.5360   35.1940   45.9160 C   0  0  0  0  0  0  0  0  0  0  0  0
   59.8380   34.9230   47.2440 C   0  0  0  0  0  0  0  0  0  0  0  0
   59.5720   33.6660   47.7810 C   0  0  0  0  0  0  0  0  0  0  0  0
   58.9940   32.6410   46.9900 C   0  0  0  0  0  0  0  0  0  0  0  0
   63.7989   34.5600   47.0593 H   0  0  0  0  0  0  0  0  0  0  0  0
   64.2048   33.4305   45.7229 H   0  0  0  0  0  0  0  0  0  0  0  0
   62.6289   34.2926   45.7229 H   0  0  0  0  0  0  0  0  0  0  0  0
   61.6934   32.5972   46.8773 H   0  0  0  0  0  0  0  0  0  0  0  0
   63.3047   31.7427   46.8737 H   0  0  0  0  0  0  0  0  0  0  0  0
   62.1730   32.1750   49.0760 H   0  0  0  0  0  0  0  0  0  0  0  0
   62.9472   34.9223   48.3775 H   0  0  0  0  0  0  0  0  0  0  0  0
   61.4102   34.2412   49.1100 H   0  0  0  0  0  0  0  0  0  0  0  0
   62.3394   34.0787   51.2440 H   0  0  0  0  0  0  0  0  0  0  0  0
   64.0268   34.1745   50.6357 H   0  0  0  0  0  0  0  0  0  0  0  0
   62.9876   35.6396   50.6357 H   0  0  0  0  0  0  0  0  0  0  0  0
   64.8116   32.0581   48.3145 H   0  0  0  0  0  0  0  0  0  0  0  0
   64.6102   33.2891   49.6717 H   0  0  0  0  0  0  0  0  0  0  0  0
   64.9444   30.5348   49.9844 H   0  0  0  0  0  0  0  0  0  0  0  0
   64.3531   31.7167   51.2132 H   0  0  0  0  0  0  0  0  0  0  0  0
   63.0060   29.5850   50.3780 H   0  0  0  0  0  0  0  0  0  0  0  0
   61.7758   30.2549   52.0144 H   0  0  0  0  0  0  0  0  0  0  0  0
   62.5453   31.8814   51.8884 H   0  0  0  0  0  0  0  0  0  0  0  0
   59.8493   31.2627   51.3722 H   0  0  0  0  0  0  0  0  0  0  0  0
   60.7280   32.7743   50.9057 H   0  0  0  0  0  0  0  0  0  0  0  0
   61.2600   30.7330   48.9890 H   0  0  0  0  0  0  0  0  0  0  0  0
   59.1117   29.8316   48.9991 H   0  0  0  0  0  0  0  0  0  0  0  0
   58.4488   31.4350   49.6116 H   0  0  0  0  0  0  0  0  0  0  0  0
   57.9755   29.3670   47.1393 H   0  0  0  0  0  0  0  0  0  0  0  0
   57.0964   28.5948   45.0706 H   0  0  0  0  0  0  0  0  0  0  0  0
   56.5144   28.9699   42.6812 H   0  0  0  0  0  0  0  0  0  0  0  0
   56.9105   31.1913   41.6353 H   0  0  0  0  0  0  0  0  0  0  0  0
   57.9026   33.0494   42.9644 H   0  0  0  0  0  0  0  0  0  0  0  0
   58.7138   34.4465   44.0632 H   0  0  0  0  0  0  0  0  0  0  0  0
   59.7564   36.1866   45.4962 H   0  0  0  0  0  0  0  0  0  0  0  0
   60.2889   35.7039   47.8740 H   0  0  0  0  0  0  0  0  0  0  0  0
   59.8140   33.4652   48.8351 H   0  0  0  0  0  0  0  0  0  0  0  0
  1  2  1  0
  2  3  1  0
  3  4  1  0
  4  5  1  0
  3  6  1  0
  6  7  1  0
  7  8  1  0
  8  9  1  0
  9 10  1  0
 10 11  1  0
 11 12  1  0
 12 13  1  0
 13 14  2  0
 14 15  1  0
 15 16  2  0
 16 17  1  0
 17 18  2  0
 18 19  1  0
 19 20  2  0
 20 21  1  0
 21 22  2  0
 22 23  1  0
 23 24  2  0
 24 25  1  0
 25 26  2  0
 26 13  1  0
 20 15  1  0
 26 21  1  0
  1 27  1  0
  1 28  1  0
  1 29  1  0
  2 30  1  0
  2 31  1  0
  3 32  1  0
  4 33  1  0
  4 34  1  0
  5 35  1  0
  5 36  1  0
  5 37  1  0
  6 38  1  0
  6 39  1  0
  7 40  1  0
  7 41  1  0
  8 42  1  0
  9 43  1  0
  9 44  1  0
 10 45  1  0
 10 46  1  0
 11 47  1  0
 12 48  1  0
 12 49  1  0
 14 50  1  0
 16 51  1  0
 17 52  1  0
 18 53  1  0
 19 54  1  0
 22 55  1  0
 23 56  1  0
 24 57  1  0
 25 58  1  0
M  CHG  1   3   1
M  END
>  <UniqueID>  (25) 
23

>  <SMILES>  (25) 
CC[NH+](CC)CCNCCNCc1cc2ccccc2c2ccccc12

>  <Energy>  (25) 
81.87501454535544

>  <Genealogy>  (25) 
CC[NH+](CC)CCNCCNCc1cc2ccccc2c2ccccc12 (protonated)
CC[NH+](CC)CCNCCNCc1cc2ccccc2c2ccccc12 (3D coordinates assigned)
CC[NH+](CC)CCNCCNCc1cc2ccccc2c2ccccc12 (optimized conformer: 81.87501454535544 kcal/mol)

>  <smiles>  (25) 
CCN(CC)CCNCCNCc1cc2ccccc2c2ccccc12

>  <score_type>  (25) 
oracle

>  <origin>  (25) 
adg

>  <m_score__min__energy>  (25) 
-6.0300000000000002

>  <m_primary>  (25) 
energy

$$$$
25:0
     RDKit          3D

 47 50  0  0  0  0  0  0  0  0999 V2000
   59.5920   31.7790   48.6060 O   0  0  0  0  0  0  0  0  0  0  0  0
   59.3440   32.5390   47.6270 C   0  0  0  0  0  0  0  0  0  0  0  0
   58.7850   31.9570   46.3840 C   0  0  0  0  0  0  0  0  0  0  0  0
   58.6000   30.5670   46.2610 C   0  0  0  0  0  0  0  0  0  0  0  0
   58.0660   30.0130   45.0840 C   0  0  0  0  0  0  0  0  0  0  0  0
   57.8780   28.5450   44.9580 C   0  0  0  0  0  0  0  0  0  0  0  0
   57.4040   27.7870   46.0470 C   0  0  0  0  0  0  0  0  0  0  0  0
   57.2290   26.4060   45.9260 C   0  0  0  0  0  0  0  0  0  0  0  0
   57.5210   25.7650   44.7190 C   0  0  0  0  0  0  0  0  0  0  0  0
   57.9900   26.5050   43.6310 C   0  0  0  0  0  0  0  0  0  0  0  0
   58.1690   27.8870   43.7480 C   0  0  0  0  0  0  0  0  0  0  0  0
   57.7170   30.8690   44.0270 C   0  0  0  0  0  0  0  0  0  0  0  0
   57.8970   32.2480   44.1450 C   0  0  0  0  0  0  0  0  0  0  0  0
   58.4160   32.8000   45.3240 C   0  0  0  0  0  0  0  0  0  0  0  0
   58.6430   34.2810   45.4040 C   0  0  0  0  0  0  0  0  0  0  0  0
   58.7800   34.7900   46.8490 C   0  0  0  0  0  0  0  0  0  0  0  0
   59.6280   33.9550   47.7460 N   0  0  2  0  0  0  0  0  0  0  0  0
   61.1030   34.2140   47.7300 C   0  0  0  0  0  0  0  0  0  0  0  0
   61.7570   33.8380   46.3700 C   0  0  0  0  0  0  0  0  0  0  0  0
   63.2850   33.8090   46.4870 C   0  0  0  0  0  0  0  0  0  0  0  0
   63.7650   32.7480   47.4980 C   0  0  0  0  0  0  0  0  0  0  0  0
   62.7240   32.4160   48.5840 C   0  0  0  0  0  0  0  0  0  0  0  0
   61.8830   33.6470   48.9520 C   0  0  0  0  0  0  0  0  0  0  0  0
   58.8765   29.9061   47.0957 H   0  0  0  0  0  0  0  0  0  0  0  0
   57.1701   28.2859   46.9991 H   0  0  0  0  0  0  0  0  0  0  0  0
   56.8607   25.8222   46.7825 H   0  0  0  0  0  0  0  0  0  0  0  0
   57.3815   24.6779   44.6257 H   0  0  0  0  0  0  0  0  0  0  0  0
   58.2188   26.0000   42.6809 H   0  0  0  0  0  0  0  0  0  0  0  0
   58.5399   28.4642   42.8882 H   0  0  0  0  0  0  0  0  0  0  0  0
   57.2990   30.4499   43.0998 H   0  0  0  0  0  0  0  0  0  0  0  0
   57.6293   32.9069   43.3058 H   0  0  0  0  0  0  0  0  0  0  0  0
   59.5661   34.5243   44.8575 H   0  0  0  0  0  0  0  0  0  0  0  0
   57.7635   34.7733   44.9633 H   0  0  0  0  0  0  0  0  0  0  0  0
   59.2164   35.7991   46.8128 H   0  0  0  0  0  0  0  0  0  0  0  0
   57.7671   34.7598   47.2770 H   0  0  0  0  0  0  0  0  0  0  0  0
   59.3150   34.2060   48.7150 H   0  0  0  0  0  0  0  0  0  0  0  0
   61.1916   35.3049   47.8403 H   0  0  0  0  0  0  0  0  0  0  0  0
   61.4005   32.8441   46.0616 H   0  0  0  0  0  0  0  0  0  0  0  0
   61.4761   34.5957   45.6237 H   0  0  0  0  0  0  0  0  0  0  0  0
   63.7128   33.5788   45.5001 H   0  0  0  0  0  0  0  0  0  0  0  0
   63.6180   34.7948   46.8439 H   0  0  0  0  0  0  0  0  0  0  0  0
   64.0004   31.8249   46.9480 H   0  0  0  0  0  0  0  0  0  0  0  0
   64.6443   33.1652   48.0106 H   0  0  0  0  0  0  0  0  0  0  0  0
   62.0565   31.6259   48.2097 H   0  0  0  0  0  0  0  0  0  0  0  0
   63.2594   32.0818   49.4849 H   0  0  0  0  0  0  0  0  0  0  0  0
   61.1612   33.3625   49.7318 H   0  0  0  0  0  0  0  0  0  0  0  0
   62.5689   34.4302   49.3073 H   0  0  0  0  0  0  0  0  0  0  0  0
  1  2  2  0
  2  3  1  0
  3  4  2  0
  4  5  1  0
  5  6  1  0
  6  7  2  0
  7  8  1  0
  8  9  2  0
  9 10  1  0
 10 11  2  0
  5 12  2  0
 12 13  1  0
 13 14  2  0
 14 15  1  0
 15 16  1  0
 16 17  1  0
 17 18  1  0
 18 19  1  0
 19 20  1  0
 20 21  1  0
 21 22  1  0
 22 23  1  0
 17  2  1  0
 23 18  1  0
 14  3  1  0
 11  6  1  0
  4 24  1  0
  7 25  1  0
  8 26  1  0
  9 27  1  0
 10 28  1  0
 11 29  1  0
 12 30  1  0
 13 31  1  0
 15 32  1  0
 15 33  1  0
 16 34  1  0
 16 35  1  0
 17 36  1  1
 18 37  1  0
 19 38  1  0
 19 39  1  0
 20 40  1  0
 20 41  1  0
 21 42  1  0
 21 43  1  0
 22 44  1  0
 22 45  1  0
 23 46  1  0
 23 47  1  0
M  CHG  1  17   1
M  END
>  <UniqueID>  (26) 
24

>  <SMILES>  (26) 
O=C1c2cc(-c3ccccc3)ccc2CC[N@@H+]1C1CCCCC1

>  <Energy>  (26) 
73.24581075587395

>  <Genealogy>  (26) 
O=C1c2cc(-c3ccccc3)ccc2CC[NH+]1C1CCCCC1 (protonated)
O=C1c2cc(-c3ccccc3)ccc2CC[N@@H+]1C1CCCCC1 (chirality)
O=C1c2cc(-c3ccccc3)ccc2CC[N@@H+]1C1CCCCC1 (3D coordinates assigned)
O=C1c2cc(-c3ccccc3)ccc2CC[N@@H+]1C1CCCCC1 (nonaromatic ring conformer: 73.24581075587395 kcal/mol)

>  <smiles>  (26) 
O=C1c2cc(-c3ccccc3)ccc2CCN1C1CCCCC1

>  <score_type>  (26) 
oracle

>  <origin>  (26) 
adg

>  <m_score__min__energy>  (26) 
-7.3499999999999996

>  <m_primary>  (26) 
energy

$$$$
26:0
     RDKit          3D

 43 44  0  0  0  0  0  0  0  0999 V2000
   58.0010   21.7820   44.1580 C   0  0  0  0  0  0  0  0  0  0  0  0
   56.9670   21.8180   43.0320 C   0  0  0  0  0  0  0  0  0  0  0  0
   55.7660   22.4200   43.4830 O   0  0  0  0  0  0  0  0  0  0  0  0
   55.9360   23.8090   43.7160 C   0  0  0  0  0  0  0  0  0  0  0  0
   55.9260   24.1260   45.2210 C   0  0  0  0  0  0  0  0  0  0  0  0
   54.7910   25.0850   45.6260 C   0  0  0  0  0  0  0  0  0  0  0  0
   55.3070   26.4150   45.9370 N   0  0  0  0  0  0  0  0  0  0  0  0
   56.7020   26.7310   45.9970 C   0  0  0  0  0  0  0  0  0  0  0  0
   57.3780   26.4560   47.0280 O   0  0  0  0  0  0  0  0  0  0  0  0
   57.3470   27.4520   44.8580 C   0  0  0  0  0  0  0  0  0  0  0  0
   57.9590   28.6910   45.3420 N   0  0  0  0  0  0  0  0  0  0  0  0
   57.3310   29.9720   45.2950 C   0  0  0  0  0  0  0  0  0  0  0  0
   56.2250   30.1540   44.7190 O   0  0  0  0  0  0  0  0  0  0  0  0
   58.1850   31.2960   46.1570 S   0  0  0  0  0  0  0  0  0  0  0  0
   59.3170   30.0540   46.8060 C   0  0  0  0  0  0  0  0  0  0  0  0
   60.2330   30.3680   47.7360 C   0  0  0  0  0  0  0  0  0  0  0  0
   61.1900   31.4880   47.6290 C   0  0  0  0  0  0  0  0  0  0  0  0
   60.9280   32.5430   46.7410 C   0  0  0  0  0  0  0  0  0  0  0  0
   61.8060   33.6290   46.6540 C   0  0  0  0  0  0  0  0  0  0  0  0
   62.9400   33.6770   47.4680 C   0  0  0  0  0  0  0  0  0  0  0  0
   63.1930   32.6450   48.3790 C   0  0  0  0  0  0  0  0  0  0  0  0
   64.7340   32.7220   49.5040 Br  0  0  0  0  0  0  0  0  0  0  0  0
   62.3160   31.5570   48.4690 C   0  0  0  0  0  0  0  0  0  0  0  0
   59.0950   28.7360   46.1950 C   0  0  0  0  0  0  0  0  0  0  0  0
   59.8540   27.7410   46.3550 O   0  0  0  0  0  0  0  0  0  0  0  0
   57.4857   21.7999   45.1297 H   0  0  0  0  0  0  0  0  0  0  0  0
   58.5993   20.8625   44.0772 H   0  0  0  0  0  0  0  0  0  0  0  0
   58.6618   22.6577   44.0772 H   0  0  0  0  0  0  0  0  0  0  0  0
   57.3693   22.3990   42.1890 H   0  0  0  0  0  0  0  0  0  0  0  0
   56.7515   20.7877   42.7125 H   0  0  0  0  0  0  0  0  0  0  0  0
   56.8974   24.1295   43.2882 H   0  0  0  0  0  0  0  0  0  0  0  0
   55.1018   24.3464   43.2414 H   0  0  0  0  0  0  0  0  0  0  0  0
   55.8046   23.1845   45.7768 H   0  0  0  0  0  0  0  0  0  0  0  0
   56.8779   24.6233   45.4590 H   0  0  0  0  0  0  0  0  0  0  0  0
   54.0746   25.1637   44.7950 H   0  0  0  0  0  0  0  0  0  0  0  0
   54.3008   24.6834   46.5251 H   0  0  0  0  0  0  0  0  0  0  0  0
   58.1218   26.8115   44.4115 H   0  0  0  0  0  0  0  0  0  0  0  0
   56.5859   27.6928   44.1012 H   0  0  0  0  0  0  0  0  0  0  0  0
   60.2737   29.7466   48.6427 H   0  0  0  0  0  0  0  0  0  0  0  0
   60.0274   32.5159   46.1100 H   0  0  0  0  0  0  0  0  0  0  0  0
   61.6032   34.4449   45.9446 H   0  0  0  0  0  0  0  0  0  0  0  0
   63.6348   34.5265   47.3930 H   0  0  0  0  0  0  0  0  0  0  0  0
   62.5079   30.7554   49.1975 H   0  0  0  0  0  0  0  0  0  0  0  0
  1  2  1  0
  2  3  1  0
  3  4  1  0
  4  5  1  0
  5  6  1  0
  6  7  1  0
  7  8  1  0
  8  9  2  0
  8 10  1  0
 10 11  1  0
 11 12  1  0
 12 13  2  0
 12 14  1  0
 14 15  1  0
 15 16  2  3
 16 17  1  0
 17 18  2  0
 18 19  1  0
 19 20  2  0
 20 21  1  0
 21 22  1  0
 21 23  2  0
 15 24  1  0
 24 25  2  0
 24 11  1  0
 23 17  1  0
  1 26  1  0
  1 27  1  0
  1 28  1  0
  2 29  1  0
  2 30  1  0
  4 31  1  0
  4 32  1  0
  5 33  1  0
  5 34  1  0
  6 35  1  0
  6 36  1  0
 10 37  1  0
 10 38  1  0
 16 39  1  0
 18 40  1  0
 19 41  1  0
 20 42  1  0
 23 43  1  0
M  CHG  1   7  -1
M  END
>  <UniqueID>  (27) 
25

>  <SMILES>  (27) 
CCOCCC[N-]C(=O)CN1C(=O)SC(=Cc2cccc(Br)c2)C1=O

>  <Energy>  (27) 
61.76455013236661

>  <Genealogy>  (27) 
CCOCCC[N-]C(=O)CN1C(=O)SC(=Cc2cccc(Br)c2)C1=O (protonated)
CCOCCC[N-]C(=O)CN1C(=O)SC(=Cc2cccc(Br)c2)C1=O (3D coordinates assigned)
CCOCCC[N-]C(=O)CN1C(=O)SC(=Cc2cccc(Br)c2)C1=O (nonaromatic ring conformer: 61.76455013236661 kcal/mol)

>  <smiles>  (27) 
CCOCCCNC(=O)CN1C(=O)SC(=Cc2cccc(Br)c2)C1=O

>  <score_type>  (27) 
oracle

>  <origin>  (27) 
adg

>  <m_score__min__energy>  (27) 
-10.529999999999999

>  <m_primary>  (27) 
energy

$$$$
27:0
     RDKit          3D

 48 51  0  0  0  0  0  0  0  0999 V2000
   55.6490   29.7470   43.6500 C   0  0  0  0  0  0  0  0  0  0  0  0
   56.9690   29.9180   44.3460 C   0  0  0  0  0  0  0  0  0  0  0  0
   57.1310   31.0360   45.1100 N   0  0  0  0  0  0  0  0  0  0  0  0
   58.3050   31.2500   45.7360 C   0  0  0  0  0  0  0  0  0  0  0  0
   58.6440   32.3010   46.5530 C   0  0  0  0  0  0  0  0  0  0  0  0
   59.9610   32.0050   46.9150 C   0  0  0  0  0  0  0  0  0  0  0  0
   60.8380   32.8090   47.8010 C   0  0  0  0  0  0  0  0  0  0  0  0
   62.2040   32.9540   47.4920 C   0  0  0  0  0  0  0  0  0  0  0  0
   63.0420   33.7100   48.3170 C   0  0  0  0  0  0  0  0  0  0  0  0
   62.5290   34.3290   49.4590 C   0  0  0  0  0  0  0  0  0  0  0  0
   63.3440   35.0610   50.2580 F   0  0  0  0  0  0  0  0  0  0  0  0
   61.1760   34.1940   49.7770 C   0  0  0  0  0  0  0  0  0  0  0  0
   60.3330   33.4400   48.9550 C   0  0  0  0  0  0  0  0  0  0  0  0
   60.3510   30.8440   46.3340 N   0  0  0  0  0  0  0  0  0  0  0  0
   59.3280   30.4040   45.6210 N   0  0  0  0  0  0  0  0  0  0  0  0
   59.2730   29.2720   44.8690 C   0  0  0  0  0  0  0  0  0  0  0  0
   60.4820   28.3690   44.8180 C   0  0  0  0  0  0  0  0  0  0  0  0
   58.0400   28.9740   44.2110 C   0  0  0  0  0  0  0  0  0  0  0  0
   57.8610   27.6930   43.4040 C   0  0  0  0  0  0  0  0  0  0  0  0
   57.7210   26.4440   44.2890 C   0  0  0  0  0  0  0  0  0  0  0  0
   57.0770   26.7600   45.6140 C   0  0  0  0  0  0  0  0  0  0  0  0
   55.9290   27.2740   45.6250 O   0  0  0  0  0  0  0  0  0  0  0  0
   57.6760   26.3830   46.8610 N   0  0  0  0  0  0  0  0  0  0  0  0
   58.7030   27.1030   47.5500 C   0  0  0  0  0  0  0  0  0  0  0  0
   58.4540   28.4060   47.9910 C   0  0  0  0  0  0  0  0  0  0  0  0
   59.4600   29.1280   48.6350 C   0  0  0  0  0  0  0  0  0  0  0  0
   60.7170   28.5440   48.8100 C   0  0  0  0  0  0  0  0  0  0  0  0
   60.9540   27.2880   48.3440 N   0  0  0  0  0  0  0  0  0  0  0  0
   59.9880   26.5640   47.7180 C   0  0  0  0  0  0  0  0  0  0  0  0
   54.8502   29.6435   44.3991 H   0  0  0  0  0  0  0  0  0  0  0  0
   55.4497   30.6268   43.0206 H   0  0  0  0  0  0  0  0  0  0  0  0
   55.6804   28.8454   43.0206 H   0  0  0  0  0  0  0  0  0  0  0  0
   58.0296   33.1639   46.8495 H   0  0  0  0  0  0  0  0  0  0  0  0
   62.6150   32.4687   46.5945 H   0  0  0  0  0  0  0  0  0  0  0  0
   64.1076   33.8175   48.0662 H   0  0  0  0  0  0  0  0  0  0  0  0
   60.7724   34.6821   50.6764 H   0  0  0  0  0  0  0  0  0  0  0  0
   59.2680   33.3387   49.2111 H   0  0  0  0  0  0  0  0  0  0  0  0
   60.8037   28.1287   45.8421 H   0  0  0  0  0  0  0  0  0  0  0  0
   60.2241   27.4406   44.2874 H   0  0  0  0  0  0  0  0  0  0  0  0
   61.2990   28.8798   44.2874 H   0  0  0  0  0  0  0  0  0  0  0  0
   56.9550   27.7900   42.7877 H   0  0  0  0  0  0  0  0  0  0  0  0
   58.7627   27.5620   42.7878 H   0  0  0  0  0  0  0  0  0  0  0  0
   57.1028   25.7026   43.7616 H   0  0  0  0  0  0  0  0  0  0  0  0
   58.7300   26.0528   44.4865 H   0  0  0  0  0  0  0  0  0  0  0  0
   57.4659   28.8620   47.8306 H   0  0  0  0  0  0  0  0  0  0  0  0
   59.2650   30.1468   49.0011 H   0  0  0  0  0  0  0  0  0  0  0  0
   61.5149   29.0996   49.3245 H   0  0  0  0  0  0  0  0  0  0  0  0
   60.2139   25.5549   47.3429 H   0  0  0  0  0  0  0  0  0  0  0  0
  1  2  1  0
  2  3  2  0
  3  4  1  0
  4  5  2  0
  5  6  1  0
  6  7  1  0
  7  8  2  0
  8  9  1  0
  9 10  2  0
 10 11  1  0
 10 12  1  0
 12 13  2  0
  6 14  2  0
 14 15  1  0
 15 16  1  0
 16 17  1  0
 16 18  2  0
 18 19  1  0
 19 20  1  0
 20 21  1  0
 21 22  2  0
 21 23  1  0
 23 24  1  0
 24 25  2  0
 25 26  1  0
 26 27  2  0
 27 28  1  0
 28 29  2  0
 18  2  1  0
 29 24  1  0
 15  4  1  0
 13  7  1  0
  1 30  1  0
  1 31  1  0
  1 32  1  0
  5 33  1  0
  8 34  1  0
  9 35  1  0
 12 36  1  0
 13 37  1  0
 17 38  1  0
 17 39  1  0
 17 40  1  0
 19 41  1  0
 19 42  1  0
 20 43  1  0
 20 44  1  0
 25 45  1  0
 26 46  1  0
 27 47  1  0
 29 48  1  0
M  CHG  1  23  -1
M  END
>  <UniqueID>  (28) 
26

>  <SMILES>  (28) 
Cc1nc2cc(-c3ccc(F)cc3)nn2c(C)c1CCC(=O)[N-]c1cccnc1

>  <Energy>  (28) 
96.99567219918124

>  <Genealogy>  (28) 
Cc1nc2cc(-c3ccc(F)cc3)nn2c(C)c1CCC(=O)[N-]c1cccnc1 (protonated)
Cc1nc2cc(-c3ccc(F)cc3)nn2c(C)c1CCC(=O)[N-]c1cccnc1 (3D coordinates assigned)
Cc1nc2cc(-c3ccc(F)cc3)nn2c(C)c1CCC(=O)[N-]c1cccnc1 (optimized conformer: 96.99567219918124 kcal/mol)

>  <smiles>  (28) 
Cc1nc2cc(-c3ccc(F)cc3)nn2c(C)c1CCC(=O)Nc1cccnc1

>  <score_type>  (28) 
oracle

>  <origin>  (28) 
adg

>  <m_score__min__energy>  (28) 
-11.050000000000001

>  <m_primary>  (28) 
energy

$$$$
28:0
     RDKit          3D

 40 42  0  0  0  0  0  0  0  0999 V2000
   55.9950   31.2460   44.4820 O   0  0  0  0  0  0  0  0  0  0  0  0
   56.8980   30.3670   44.4300 C   0  0  0  0  0  0  0  0  0  0  0  0
   56.6280   29.0940   43.6770 C   0  0  0  0  0  0  0  0  0  0  0  0
   57.5220   27.9910   44.0870 N   0  0  2  0  0  0  0  0  0  0  0  0
   57.0980   27.3820   45.3390 C   0  0  0  0  0  0  0  0  0  0  0  0
   55.9110   27.3210   45.6320 O   0  0  0  0  0  0  0  0  0  0  0  0
   58.1040   26.7650   46.2710 C   0  0  0  0  0  0  0  0  0  0  0  0
   57.8210   25.2960   46.4300 C   0  0  0  0  0  0  0  0  0  0  0  0
   58.3740   24.3650   45.5390 C   0  0  0  0  0  0  0  0  0  0  0  0
   58.1330   23.0030   45.7300 C   0  0  0  0  0  0  0  0  0  0  0  0
   57.3750   22.5850   46.7790 N   0  0  0  0  0  0  0  0  0  0  0  0
   56.8370   23.4640   47.6650 C   0  0  0  0  0  0  0  0  0  0  0  0
   57.0540   24.8360   47.5110 C   0  0  0  0  0  0  0  0  0  0  0  0
   58.9380   28.4110   44.1200 C   0  0  0  0  0  0  0  0  0  0  0  0
   59.2000   29.5600   45.1060 C   0  0  0  0  0  0  0  0  0  0  0  0
   58.1940   30.6220   45.0030 N   0  0  0  0  0  0  0  0  0  0  0  0
   58.4520   31.8630   45.6780 C   0  0  0  0  0  0  0  0  0  0  0  0
   58.7020   31.8710   47.0590 C   0  0  0  0  0  0  0  0  0  0  0  0
   58.9450   33.0770   47.7230 C   0  0  0  0  0  0  0  0  0  0  0  0
   58.9310   34.2820   47.0160 C   0  0  0  0  0  0  0  0  0  0  0  0
   58.6730   34.2830   45.6410 C   0  0  0  0  0  0  0  0  0  0  0  0
   58.4320   33.0780   44.9710 C   0  0  0  0  0  0  0  0  0  0  0  0
   58.1610   33.0960   43.6420 F   0  0  0  0  0  0  0  0  0  0  0  0
   55.5868   28.7903   43.8603 H   0  0  0  0  0  0  0  0  0  0  0  0
   56.8109   29.2924   42.6106 H   0  0  0  0  0  0  0  0  0  0  0  0
   57.4480   27.2640   43.3360 H   0  0  0  0  0  0  0  0  0  0  0  0
   59.1145   26.8991   45.8576 H   0  0  0  0  0  0  0  0  0  0  0  0
   58.0361   27.2553   47.2533 H   0  0  0  0  0  0  0  0  0  0  0  0
   58.9931   24.7052   44.6958 H   0  0  0  0  0  0  0  0  0  0  0  0
   58.5568   22.2670   45.0310 H   0  0  0  0  0  0  0  0  0  0  0  0
   56.2298   23.0950   48.5047 H   0  0  0  0  0  0  0  0  0  0  0  0
   56.6270   25.5493   48.2313 H   0  0  0  0  0  0  0  0  0  0  0  0
   59.5529   27.5481   44.4157 H   0  0  0  0  0  0  0  0  0  0  0  0
   59.1972   28.7743   43.1146 H   0  0  0  0  0  0  0  0  0  0  0  0
   59.1862   29.1577   46.1297 H   0  0  0  0  0  0  0  0  0  0  0  0
   60.1784   29.9982   44.8598 H   0  0  0  0  0  0  0  0  0  0  0  0
   58.7068   30.9253   47.6207 H   0  0  0  0  0  0  0  0  0  0  0  0
   59.1476   33.0772   48.8042 H   0  0  0  0  0  0  0  0  0  0  0  0
   59.1228   35.2297   47.5404 H   0  0  0  0  0  0  0  0  0  0  0  0
   58.6595   35.2324   45.0855 H   0  0  0  0  0  0  0  0  0  0  0  0
  1  2  2  0
  2  3  1  0
  3  4  1  0
  4  5  1  0
  5  6  2  0
  5  7  1  0
  7  8  1  0
  8  9  2  0
  9 10  1  0
 10 11  2  0
 11 12  1  0
 12 13  2  0
  4 14  1  0
 14 15  1  0
 15 16  1  0
 16 17  1  0
 17 18  2  0
 18 19  1  0
 19 20  2  0
 20 21  1  0
 21 22  2  0
 22 23  1  0
 16  2  1  0
 22 17  1  0
 13  8  1  0
  3 24  1  0
  3 25  1  0
  4 26  1  6
  7 27  1  0
  7 28  1  0
  9 29  1  0
 10 30  1  0
 12 31  1  0
 13 32  1  0
 14 33  1  0
 14 34  1  0
 15 35  1  0
 15 36  1  0
 18 37  1  0
 19 38  1  0
 20 39  1  0
 21 40  1  0
M  CHG  1   4   1
M  END
>  <UniqueID>  (29) 
27

>  <SMILES>  (29) 
O=C1C[N@H+](C(=O)Cc2ccncc2)CCN1c1ccccc1F

>  <Energy>  (29) 
52.39312808564446

>  <Genealogy>  (29) 
O=C1C[NH+](C(=O)Cc2ccncc2)CCN1c1ccccc1F (protonated)
O=C1C[N@H+](C(=O)Cc2ccncc2)CCN1c1ccccc1F (chirality)
O=C1C[N@H+](C(=O)Cc2ccncc2)CCN1c1ccccc1F (3D coordinates assigned)
O=C1C[N@H+](C(=O)Cc2ccncc2)CCN1c1ccccc1F (nonaromatic ring conformer: 52.39312808564446 kcal/mol)

>  <smiles>  (29) 
O=C(Cc1ccncc1)N1CCN(c2ccccc2F)C(=O)C1

>  <score_type>  (29) 
oracle

>  <origin>  (29) 
adg

>  <m_score__min__energy>  (29) 
-5.9400000000000004

>  <m_primary>  (29) 
energy

$$$$
29:0
     RDKit          3D

 20 20  0  0  0  0  0  0  0  0999 V2000
   55.3070   29.3360   44.8530 N   0  0  0  0  0  0  0  0  0  0  0  0
   55.9310   30.0070   43.7160 C   0  0  0  0  0  0  0  0  0  0  0  0
   57.4430   30.1400   43.9220 C   0  0  0  0  0  0  0  0  0  0  0  0
   57.8020   31.4340   44.6080 C   0  0  0  0  0  0  0  0  0  0  0  0
   57.7440   32.6470   43.9030 C   0  0  0  0  0  0  0  0  0  0  0  0
   58.0510   33.8510   44.5440 C   0  0  0  0  0  0  0  0  0  0  0  0
   58.4110   33.8530   45.8950 C   0  0  0  0  0  0  0  0  0  0  0  0
   58.4620   32.6510   46.6070 C   0  0  0  0  0  0  0  0  0  0  0  0
   58.9440   32.6560   48.4550 Br  0  0  0  0  0  0  0  0  0  0  0  0
   58.1560   31.4440   45.9680 C   0  0  0  0  0  0  0  0  0  0  0  0
   55.0980   30.0540   45.5850 H   0  0  0  0  0  0  0  0  0  0  0  0
   54.3810   28.9680   44.5360 H   0  0  0  0  0  0  0  0  0  0  0  0
   55.7419   29.4215   42.8042 H   0  0  0  0  0  0  0  0  0  0  0  0
   55.4992   31.0144   43.6223 H   0  0  0  0  0  0  0  0  0  0  0  0
   57.7936   29.3001   44.5397 H   0  0  0  0  0  0  0  0  0  0  0  0
   57.9253   30.1313   42.9334 H   0  0  0  0  0  0  0  0  0  0  0  0
   57.4557   32.6500   42.8415 H   0  0  0  0  0  0  0  0  0  0  0  0
   58.0093   34.7974   43.9850 H   0  0  0  0  0  0  0  0  0  0  0  0
   58.6542   34.8006   46.3978 H   0  0  0  0  0  0  0  0  0  0  0  0
   58.1927   30.5003   46.5320 H   0  0  0  0  0  0  0  0  0  0  0  0
  1  2  1  0
  2  3  1  0
  3  4  1  0
  4  5  2  0
  5  6  1  0
  6  7  2  0
  7  8  1  0
  8  9  1  0
  8 10  2  0
 10  4  1  0
  1 11  1  0
  1 12  1  0
  2 13  1  0
  2 14  1  0
  3 15  1  0
  3 16  1  0
  5 17  1  0
  6 18  1  0
  7 19  1  0
 10 20  1  0
M  END
>  <UniqueID>  (30) 
28

>  <SMILES>  (30) 
NCCc1cccc(Br)c1

>  <Energy>  (30) 
14.257320986397835

>  <Genealogy>  (30) 
NCCc1cccc(Br)c1 (3D coordinates assigned)
NCCc1cccc(Br)c1 (optimized conformer: 14.257320986397835 kcal/mol)

>  <smiles>  (30) 
NCCc1cccc(Br)c1

>  <score_type>  (30) 
oracle

>  <origin>  (30) 
adg

>  <m_score__min__energy>  (30) 
-5.9100000000000001

>  <m_primary>  (30) 
energy

$$$$
30:0
     RDKit          3D

 44 46  0  0  0  0  0  0  0  0999 V2000
   59.2220   25.8820   45.6670 C   0  0  0  0  0  0  0  0  0  0  0  0
   58.6590   27.2720   45.5420 C   0  0  0  0  0  0  0  0  0  0  0  0
   58.6620   28.1200   46.6630 C   0  0  0  0  0  0  0  0  0  0  0  0
   58.1510   29.4150   46.5750 C   0  0  0  0  0  0  0  0  0  0  0  0
   57.6200   29.8870   45.3650 C   0  0  0  0  0  0  0  0  0  0  0  0
   57.1050   31.1860   45.2380 O   0  0  0  0  0  0  0  0  0  0  0  0
   57.8590   32.3670   45.3190 C   0  0  0  0  0  0  0  0  0  0  0  0
   58.2520   33.0040   44.1410 C   0  0  0  0  0  0  0  0  0  0  0  0
   57.8430   32.3330   42.5700 Cl  0  0  0  0  0  0  0  0  0  0  0  0
   58.9910   34.1800   44.2180 C   0  0  0  0  0  0  0  0  0  0  0  0
   59.3040   34.6980   45.4320 N   0  0  0  0  0  0  0  0  0  0  0  0
   58.9260   34.1140   46.5750 N   0  0  0  0  0  0  0  0  0  0  0  0
   59.2690   34.7860   47.8350 C   0  0  0  0  0  0  0  0  0  0  0  0
   60.0540   33.8500   48.7610 C   0  0  0  0  0  0  0  0  0  0  0  0
   61.4630   33.6420   48.2710 C   0  0  0  0  0  0  0  0  0  0  0  0
   62.4400   33.1160   49.1310 C   0  0  0  0  0  0  0  0  0  0  0  0
   63.7250   32.8750   48.6440 C   0  0  0  0  0  0  0  0  0  0  0  0
   64.0250   33.1540   47.3110 C   0  0  0  0  0  0  0  0  0  0  0  0
   63.0290   33.6700   46.4790 C   0  0  0  0  0  0  0  0  0  0  0  0
   61.7780   33.8970   46.9680 N   0  0  0  0  0  0  0  0  0  0  0  0
   58.1900   32.9570   46.5510 C   0  0  0  0  0  0  0  0  0  0  0  0
   57.7830   32.4360   47.6270 O   0  0  0  0  0  0  0  0  0  0  0  0
   57.6360   29.0590   44.2390 C   0  0  0  0  0  0  0  0  0  0  0  0
   58.1530   27.7540   44.3100 C   0  0  0  0  0  0  0  0  0  0  0  0
   58.1380   26.8870   43.0790 C   0  0  0  0  0  0  0  0  0  0  0  0
   59.3268   25.6232   46.7310 H   0  0  0  0  0  0  0  0  0  0  0  0
   58.5429   25.1662   45.1807 H   0  0  0  0  0  0  0  0  0  0  0  0
   60.2078   25.8406   45.1807 H   0  0  0  0  0  0  0  0  0  0  0  0
   59.0710   27.7592   47.6183 H   0  0  0  0  0  0  0  0  0  0  0  0
   58.1644   30.0696   47.4589 H   0  0  0  0  0  0  0  0  0  0  0  0
   59.3199   34.6873   43.2991 H   0  0  0  0  0  0  0  0  0  0  0  0
   59.8828   35.6719   47.6147 H   0  0  0  0  0  0  0  0  0  0  0  0
   58.3372   35.0788   48.3409 H   0  0  0  0  0  0  0  0  0  0  0  0
   60.0874   34.2897   49.7687 H   0  0  0  0  0  0  0  0  0  0  0  0
   59.5464   32.8742   48.7759 H   0  0  0  0  0  0  0  0  0  0  0  0
   62.1944   32.8956   50.1803 H   0  0  0  0  0  0  0  0  0  0  0  0
   64.4994   32.4660   49.3097 H   0  0  0  0  0  0  0  0  0  0  0  0
   65.0360   32.9695   46.9188 H   0  0  0  0  0  0  0  0  0  0  0  0
   63.2553   33.8937   45.4260 H   0  0  0  0  0  0  0  0  0  0  0  0
   61.0490   34.2710   46.3190 H   0  0  0  0  0  0  0  0  0  0  0  0
   57.2385   29.4339   43.2843 H   0  0  0  0  0  0  0  0  0  0  0  0
   58.1197   25.8281   43.3765 H   0  0  0  0  0  0  0  0  0  0  0  0
   57.2437   27.1153   42.4806 H   0  0  0  0  0  0  0  0  0  0  0  0
   59.0397   27.0842   42.4806 H   0  0  0  0  0  0  0  0  0  0  0  0
  1  2  1  0
  2  3  2  0
  3  4  1  0
  4  5  2  0
  5  6  1  0
  6  7  1  0
  7  8  2  0
  8  9  1  0
  8 10  1  0
 10 11  2  0
 11 12  1  0
 12 13  1  0
 13 14  1  0
 14 15  1  0
 15 16  2  0
 16 17  1  0
 17 18  2  0
 18 19  1  0
 19 20  2  0
 12 21  1  0
 21 22  2  0
  5 23  1  0
 23 24  2  0
 24 25  1  0
 24  2  1  0
 21  7  1  0
 20 15  1  0
  1 26  1  0
  1 27  1  0
  1 28  1  0
  3 29  1  0
  4 30  1  0
 10 31  1  0
 13 32  1  0
 13 33  1  0
 14 34  1  0
 14 35  1  0
 16 36  1  0
 17 37  1  0
 18 38  1  0
 19 39  1  0
 20 40  1  0
 23 41  1  0
 25 42  1  0
 25 43  1  0
 25 44  1  0
M  CHG  1  20   1
M  END
>  <UniqueID>  (31) 
29

>  <SMILES>  (31) 
Cc1ccc(Oc2c(Cl)cnn(CCc3cccc[nH+]3)c2=O)cc1C

>  <Energy>  (31) 
52.32055963875091

>  <Genealogy>  (31) 
Cc1ccc(Oc2c(Cl)cnn(CCc3cccc[nH+]3)c2=O)cc1C (protonated)
Cc1ccc(Oc2c(Cl)cnn(CCc3cccc[nH+]3)c2=O)cc1C (3D coordinates assigned)
Cc1ccc(Oc2c(Cl)cnn(CCc3cccc[nH+]3)c2=O)cc1C (optimized conformer: 52.32055963875091 kcal/mol)

>  <smiles>  (31) 
Cc1ccc(Oc2c(Cl)cnn(CCc3ccccn3)c2=O)cc1C

>  <score_type>  (31) 
oracle

>  <origin>  (31) 
adg

>  <m_score__min__energy>  (31) 
-6.8399999999999999

>  <m_primary>  (31) 
energy

$$$$
31:0
     RDKit          3D

 47 49  0  0  0  0  0  0  0  0999 V2000
   63.2610   33.4650   46.7180 C   0  0  0  0  0  0  0  0  0  0  0  0
   63.0310   33.5780   48.1990 C   0  0  0  0  0  0  0  0  0  0  0  0
   64.1260   33.4800   49.0740 C   0  0  0  0  0  0  0  0  0  0  0  0
   63.9370   33.5490   50.4560 C   0  0  0  0  0  0  0  0  0  0  0  0
   62.6540   33.7180   50.9800 C   0  0  0  0  0  0  0  0  0  0  0  0
   61.5590   33.8370   50.1210 C   0  0  0  0  0  0  0  0  0  0  0  0
   61.7380   33.7940   48.7340 C   0  0  0  0  0  0  0  0  0  0  0  0
   60.6140   33.9420   47.9100 O   0  0  0  0  0  0  0  0  0  0  0  0
   60.0520   32.9100   47.1450 C   0  0  0  0  0  0  0  0  0  0  0  0
   60.2840   31.5520   47.4380 C   0  0  0  0  0  0  0  0  0  0  0  0
   59.7010   30.5530   46.6530 C   0  0  0  0  0  0  0  0  0  0  0  0
   58.8910   30.8990   45.5640 C   0  0  0  0  0  0  0  0  0  0  0  0
   58.2790   29.8770   44.7720 N   0  0  0  0  0  0  0  0  0  0  0  0
   59.0350   28.6760   44.4190 C   0  0  0  0  0  0  0  0  0  0  0  0
   58.4390   27.4700   45.0930 C   0  0  0  0  0  0  0  0  0  0  0  0
   58.3750   27.4040   46.4940 C   0  0  0  0  0  0  0  0  0  0  0  0
   57.7760   26.3070   47.1200 C   0  0  0  0  0  0  0  0  0  0  0  0
   57.2300   25.2740   46.3540 C   0  0  0  0  0  0  0  0  0  0  0  0
   57.2810   25.3380   44.9590 C   0  0  0  0  0  0  0  0  0  0  0  0
   57.8790   26.4330   44.3280 C   0  0  0  0  0  0  0  0  0  0  0  0
   56.5770   29.9660   44.4410 S   0  0  0  0  0  0  0  0  0  0  0  0
   56.2660   29.6980   42.7080 C   0  0  0  0  0  0  0  0  0  0  0  0
   55.8550   28.9070   45.2240 O   0  0  0  0  0  0  0  0  0  0  0  0
   56.0610   31.3220   44.8340 O   0  0  0  0  0  0  0  0  0  0  0  0
   58.6690   32.2480   45.2630 C   0  0  0  0  0  0  0  0  0  0  0  0
   59.2540   33.2470   46.0470 C   0  0  0  0  0  0  0  0  0  0  0  0
   64.2343   32.9868   46.5335 H   0  0  0  0  0  0  0  0  0  0  0  0
   62.4625   32.8566   46.2683 H   0  0  0  0  0  0  0  0  0  0  0  0
   63.2546   34.4689   46.2683 H   0  0  0  0  0  0  0  0  0  0  0  0
   65.1396   33.3480   48.6675 H   0  0  0  0  0  0  0  0  0  0  0  0
   64.8005   33.4701   51.1329 H   0  0  0  0  0  0  0  0  0  0  0  0
   62.5055   33.7574   52.0692 H   0  0  0  0  0  0  0  0  0  0  0  0
   60.5491   33.9654   50.5378 H   0  0  0  0  0  0  0  0  0  0  0  0
   60.9262   31.2766   48.2875 H   0  0  0  0  0  0  0  0  0  0  0  0
   59.8786   29.4938   46.8909 H   0  0  0  0  0  0  0  0  0  0  0  0
   59.0045   28.5349   43.3285 H   0  0  0  0  0  0  0  0  0  0  0  0
   60.0761   28.7961   44.7532 H   0  0  0  0  0  0  0  0  0  0  0  0
   58.7976   28.2182   47.1010 H   0  0  0  0  0  0  0  0  0  0  0  0
   57.7344   26.2570   48.2181 H   0  0  0  0  0  0  0  0  0  0  0  0
   56.7603   24.4110   46.8486 H   0  0  0  0  0  0  0  0  0  0  0  0
   56.8498   24.5252   44.3561 H   0  0  0  0  0  0  0  0  0  0  0  0
   57.9112   26.4828   43.2296 H   0  0  0  0  0  0  0  0  0  0  0  0
   55.4375   28.9841   42.5903 H   0  0  0  0  0  0  0  0  0  0  0  0
   55.9979   30.6526   42.2317 H   0  0  0  0  0  0  0  0  0  0  0  0
   57.1705   29.2918   42.2317 H   0  0  0  0  0  0  0  0  0  0  0  0
   58.0333   32.5225   44.4083 H   0  0  0  0  0  0  0  0  0  0  0  0
   59.0855   34.3052   45.7985 H   0  0  0  0  0  0  0  0  0  0  0  0
  1  2  1  0
  2  3  2  0
  3  4  1  0
  4  5  2  0
  5  6  1  0
  6  7  2  0
  7  8  1  0
  8  9  1  0
  9 10  2  0
 10 11  1  0
 11 12  2  0
 12 13  1  0
 13 14  1  0
 14 15  1  0
 15 16  2  0
 16 17  1  0
 17 18  2  0
 18 19  1  0
 19 20  2  0
 13 21  1  0
 21 22  1  0
 21 23  2  0
 21 24  2  0
 12 25  1  0
 25 26  2  0
  7  2  1  0
 26  9  1  0
 20 15  1  0
  1 27  1  0
  1 28  1  0
  1 29  1  0
  3 30  1  0
  4 31  1  0
  5 32  1  0
  6 33  1  0
 10 34  1  0
 11 35  1  0
 14 36  1  0
 14 37  1  0
 16 38  1  0
 17 39  1  0
 18 40  1  0
 19 41  1  0
 20 42  1  0
 22 43  1  0
 22 44  1  0
 22 45  1  0
 25 46  1  0
 26 47  1  0
M  END
>  <UniqueID>  (32) 
30

>  <SMILES>  (32) 
Cc1ccccc1Oc1ccc(N(Cc2ccccc2)S(C)(=O)=O)cc1

>  <Energy>  (32) 
57.323564446804475

>  <Genealogy>  (32) 
Cc1ccccc1Oc1ccc(N(Cc2ccccc2)S(C)(=O)=O)cc1 (3D coordinates assigned)
Cc1ccccc1Oc1ccc(N(Cc2ccccc2)S(C)(=O)=O)cc1 (optimized conformer: 57.323564446804475 kcal/mol)

>  <smiles>  (32) 
Cc1ccccc1Oc1ccc(N(Cc2ccccc2)S(C)(=O)=O)cc1

>  <score_type>  (32) 
oracle

>  <origin>  (32) 
adg

>  <m_score__min__energy>  (32) 
-8.5500000000000007

>  <m_primary>  (32) 
energy

$$$$
32:0
     RDKit          3D

 28 29  0  0  0  0  0  0  0  0999 V2000
   59.6430   35.2140   47.1310 C   0  0  0  0  0  0  0  0  0  0  0  0
   59.3300   34.8560   45.7880 O   0  0  0  0  0  0  0  0  0  0  0  0
   58.7160   33.6520   45.4120 C   0  0  0  0  0  0  0  0  0  0  0  0
   58.4240   32.6330   46.3370 C   0  0  0  0  0  0  0  0  0  0  0  0
   57.8120   31.4490   45.9110 C   0  0  0  0  0  0  0  0  0  0  0  0
   57.4970   31.2610   44.5590 C   0  0  0  0  0  0  0  0  0  0  0  0
   56.7170   29.7640   44.0220 S   0  0  0  0  0  0  0  0  0  0  0  0
   56.2680   29.9340   42.5980 O   0  0  0  0  0  0  0  0  0  0  0  0
   55.4960   29.5240   44.8660 O   0  0  0  0  0  0  0  0  0  0  0  0
   57.7560   28.3560   44.1200 N   0  0  0  0  0  0  0  0  0  0  0  0
   57.6040   27.6650   45.4060 C   0  0  0  0  0  0  0  0  0  0  0  0
   58.9940   28.0500   45.8710 C   0  0  0  0  0  0  0  0  0  0  0  0
   59.1200   28.7210   44.5170 C   0  0  0  0  0  0  0  0  0  0  0  0
   57.7710   32.2850   43.6410 C   0  0  0  0  0  0  0  0  0  0  0  0
   58.3820   33.4680   44.0660 C   0  0  0  0  0  0  0  0  0  0  0  0
   59.0801   34.5701   47.8228 H   0  0  0  0  0  0  0  0  0  0  0  0
   60.7215   35.0830   47.3036 H   0  0  0  0  0  0  0  0  0  0  0  0
   59.3691   36.2653   47.3036 H   0  0  0  0  0  0  0  0  0  0  0  0
   58.6777   32.7675   47.3989 H   0  0  0  0  0  0  0  0  0  0  0  0
   57.5769   30.6613   46.6419 H   0  0  0  0  0  0  0  0  0  0  0  0
   56.8025   28.0817   46.0336 H   0  0  0  0  0  0  0  0  0  0  0  0
   57.3225   26.6016   45.4048 H   0  0  0  0  0  0  0  0  0  0  0  0
   59.0267   28.7300   46.7350 H   0  0  0  0  0  0  0  0  0  0  0  0
   59.7240   27.3180   46.2469 H   0  0  0  0  0  0  0  0  0  0  0  0
   59.2802   29.8074   44.5812 H   0  0  0  0  0  0  0  0  0  0  0  0
   59.9557   28.4355   43.8612 H   0  0  0  0  0  0  0  0  0  0  0  0
   57.5039   32.1566   42.5817 H   0  0  0  0  0  0  0  0  0  0  0  0
   58.6021   34.2610   43.3361 H   0  0  0  0  0  0  0  0  0  0  0  0
  1  2  1  0
  2  3  1  0
  3  4  2  0
  4  5  1  0
  5  6  2  0
  6  7  1  0
  7  8  2  0
  7  9  2  0
  7 10  1  0
 10 11  1  0
 11 12  1  0
 12 13  1  0
  6 14  1  0
 14 15  2  0
 15  3  1  0
 13 10  1  0
  1 16  1  0
  1 17  1  0
  1 18  1  0
  4 19  1  0
  5 20  1  0
 11 21  1  0
 11 22  1  0
 12 23  1  0
 12 24  1  0
 13 25  1  0
 13 26  1  0
 14 27  1  0
 15 28  1  0
M  END
>  <UniqueID>  (33) 
31

>  <SMILES>  (33) 
COc1ccc(S(=O)(=O)N2CCC2)cc1

>  <Energy>  (33) 
94.3398530311451

>  <Genealogy>  (33) 
COc1ccc(S(=O)(=O)N2CCC2)cc1 (3D coordinates assigned)
COc1ccc(S(=O)(=O)N2CCC2)cc1 (nonaromatic ring conformer: 94.3398530311451 kcal/mol)

>  <smiles>  (33) 
COc1ccc(S(=O)(=O)N2CCC2)cc1

>  <score_type>  (33) 
oracle

>  <origin>  (33) 
adg

>  <m_score__min__energy>  (33) 
-5.9400000000000004

>  <m_primary>  (33) 
energy

$$$$
33:0
     RDKit          3D

 28 30  0  0  0  0  0  0  0  0999 V2000
   57.7650   25.5920   44.2130 C   0  0  0  0  0  0  0  0  0  0  0  0
   58.2260   26.9210   44.7350 C   0  0  0  0  0  0  0  0  0  0  0  0
   59.3210   26.9980   45.6020 C   0  0  0  0  0  0  0  0  0  0  0  0
   59.7740   28.2380   46.0570 C   0  0  0  0  0  0  0  0  0  0  0  0
   59.1490   29.4340   45.6460 C   0  0  0  0  0  0  0  0  0  0  0  0
   58.0580   29.3490   44.7590 C   0  0  0  0  0  0  0  0  0  0  0  0
   57.6090   28.1020   44.3030 C   0  0  0  0  0  0  0  0  0  0  0  0
   57.2450   30.7860   44.1870 S   0  0  0  0  0  0  0  0  0  0  0  0
   57.4130   30.8990   42.6980 O   0  0  0  0  0  0  0  0  0  0  0  0
   55.7850   30.7050   44.5390 O   0  0  0  0  0  0  0  0  0  0  0  0
   57.9490   32.1860   44.9610 C   0  0  0  0  0  0  0  0  0  0  0  0
   57.4030   33.4480   44.6870 C   0  0  0  0  0  0  0  0  0  0  0  0
   57.9380   34.5920   45.2780 C   0  0  0  0  0  0  0  0  0  0  0  0
   59.0230   34.4820   46.1460 C   0  0  0  0  0  0  0  0  0  0  0  0
   59.5740   33.2300   46.4250 C   0  0  0  0  0  0  0  0  0  0  0  0
   59.0460   32.0600   45.8370 C   0  0  0  0  0  0  0  0  0  0  0  0
   59.6630   30.7390   46.1590 C   0  0  0  0  0  0  0  0  0  0  0  0
   60.6760   30.7240   46.9120 O   0  0  0  0  0  0  0  0  0  0  0  0
   57.5341   24.9263   45.0577 H   0  0  0  0  0  0  0  0  0  0  0  0
   56.8629   25.7320   43.5993 H   0  0  0  0  0  0  0  0  0  0  0  0
   58.5600   25.1433   43.5993 H   0  0  0  0  0  0  0  0  0  0  0  0
   59.8277   26.0773   45.9269 H   0  0  0  0  0  0  0  0  0  0  0  0
   60.6305   28.2829   46.7458 H   0  0  0  0  0  0  0  0  0  0  0  0
   56.7647   28.0503   43.5998 H   0  0  0  0  0  0  0  0  0  0  0  0
   56.5472   33.5362   44.0015 H   0  0  0  0  0  0  0  0  0  0  0  0
   57.5047   35.5792   45.0597 H   0  0  0  0  0  0  0  0  0  0  0  0
   59.4462   35.3839   46.6123 H   0  0  0  0  0  0  0  0  0  0  0  0
   60.4302   33.1541   47.1115 H   0  0  0  0  0  0  0  0  0  0  0  0
  1  2  1  0
  2  3  2  0
  3  4  1  0
  4  5  2  0
  5  6  1  0
  6  7  2  0
  6  8  1  0
  8  9  2  0
  8 10  2  0
  8 11  1  0
 11 12  2  0
 12 13  1  0
 13 14  2  0
 14 15  1  0
 15 16  2  0
 16 17  1  0
 17 18  2  0
  7  2  1  0
 16 11  1  0
 17  5  1  0
  1 19  1  0
  1 20  1  0
  1 21  1  0
  3 22  1  0
  4 23  1  0
  7 24  1  0
 12 25  1  0
 13 26  1  0
 14 27  1  0
 15 28  1  0
M  END
>  <UniqueID>  (34) 
32

>  <SMILES>  (34) 
Cc1ccc2c(c1)S(=O)(=O)c1ccccc1C2=O

>  <Energy>  (34) 
38.40573149401503

>  <Genealogy>  (34) 
Cc1ccc2c(c1)S(=O)(=O)c1ccccc1C2=O (3D coordinates assigned)
Cc1ccc2c(c1)S(=O)(=O)c1ccccc1C2=O (nonaromatic ring conformer: 38.40573149401503 kcal/mol)

>  <smiles>  (34) 
Cc1ccc2c(c1)S(=O)(=O)c1ccccc1C2=O

>  <score_type>  (34) 
oracle

>  <origin>  (34) 
adg

>  <m_score__min__energy>  (34) 
-7.6500000000000004

>  <m_primary>  (34) 
energy

$$$$
34:0
     RDKit          3D

 35 37  0  0  0  0  0  0  0  0999 V2000
   57.3518   34.5598   44.6744 H   0  0  0  0  0  0  0  0  0  0  0  0
   58.3060   34.0340   44.8260 C   0  0  0  0  0  0  0  0  0  0  0  0
   59.2560   34.6190   45.7980 C   0  0  0  0  0  0  0  0  0  0  0  0
   59.7270   35.7750   45.6210 O   0  0  0  0  0  0  0  0  0  0  0  0
   59.6310   33.8690   46.9670 N   0  0  0  0  0  0  0  0  0  0  0  0
   61.0210   33.5300   47.2400 C   0  0  0  0  0  0  0  0  0  0  0  0
   62.0600   34.0000   46.4030 C   0  0  0  0  0  0  0  0  0  0  0  0
   61.8282   34.7167   45.6014 H   0  0  0  0  0  0  0  0  0  0  0  0
   63.3760   33.5670   46.5800 C   0  0  0  0  0  0  0  0  0  0  0  0
   64.1698   33.9390   45.9155 H   0  0  0  0  0  0  0  0  0  0  0  0
   63.6860   32.6660   47.5950 C   0  0  0  0  0  0  0  0  0  0  0  0
   64.7178   32.3034   47.7129 H   0  0  0  0  0  0  0  0  0  0  0  0
   62.6890   32.2240   48.4610 C   0  0  0  0  0  0  0  0  0  0  0  0
   62.9401   31.5185   49.2667 H   0  0  0  0  0  0  0  0  0  0  0  0
   61.3690   32.6700   48.3150 C   0  0  0  0  0  0  0  0  0  0  0  0
   60.1890   32.1850   49.5810 S   0  0  0  0  0  0  0  0  0  0  0  0
   58.7990   32.0600   48.4310 C   0  0  0  0  0  0  0  0  0  0  0  0
   57.9053   31.7024   48.9633 H   0  0  0  0  0  0  0  0  0  0  0  0
   59.0332   31.3494   47.6247 H   0  0  0  0  0  0  0  0  0  0  0  0
   58.5380   33.4440   47.8560 C   0  0  0  0  0  0  0  0  0  0  0  0
   58.4479   34.1642   48.6826 H   0  0  0  0  0  0  0  0  0  0  0  0
   57.6083   33.4063   47.2693 H   0  0  0  0  0  0  0  0  0  0  0  0
   58.5120   32.9150   44.1140 C   0  0  0  0  0  0  0  0  0  0  0  0
   59.1918   32.9823   43.2518 H   0  0  0  0  0  0  0  0  0  0  0  0
   57.8990   31.5990   44.3950 C   0  0  0  0  0  0  0  0  0  0  0  0
   56.7450   31.2160   43.6940 C   0  0  0  0  0  0  0  0  0  0  0  0
   56.3288   31.8779   42.9202 H   0  0  0  0  0  0  0  0  0  0  0  0
   56.1220   29.9950   43.9760 C   0  0  0  0  0  0  0  0  0  0  0  0
   55.2270   29.6921   43.4127 H   0  0  0  0  0  0  0  0  0  0  0  0
   56.6350   29.1600   44.9720 C   0  0  0  0  0  0  0  0  0  0  0  0
   56.0270   27.9790   45.2460 F   0  0  0  0  0  0  0  0  0  0  0  0
   57.7650   29.5490   45.6970 C   0  0  0  0  0  0  0  0  0  0  0  0
   58.1627   28.8956   46.4875 H   0  0  0  0  0  0  0  0  0  0  0  0
   58.3900   30.7680   45.4180 C   0  0  0  0  0  0  0  0  0  0  0  0
   59.2695   31.0786   46.0011 H   0  0  0  0  0  0  0  0  0  0  0  0
  1  2  1  0
  2  3  1  0
  3  4  2  0
  3  5  1  0
  5  6  1  0
  6  7  2  0
  7  8  1  0
  7  9  1  0
  9 10  1  0
  9 11  2  0
 11 12  1  0
 11 13  1  0
 13 14  1  0
 13 15  2  0
 15 16  1  0
 16 17  1  0
 17 18  1  0
 17 19  1  0
 17 20  1  0
 20 21  1  0
 20 22  1  0
  2 23  2  0
 23 24  1  0
 23 25  1  0
 25 26  2  0
 26 27  1  0
 26 28  1  0
 28 29  1  0
 28 30  2  0
 30 31  1  0
 30 32  1  0
 32 33  1  0
 32 34  2  0
 34 35  1  0
 20  5  1  0
 34 25  1  0
 15  6  1  0
M  END
>  <UniqueID>  (35) 
33

>  <SMILES>  (35) 
O=C(/C=C\c1ccc(F)cc1)N1CCSc2ccccc21

>  <Energy>  (35) 
58.07759911736073

>  <Genealogy>  (35) 
O=C(/C=C\c1ccc(F)cc1)N1CCSc2ccccc21 (cis-trans isomerization)
O=C(/C=C\c1ccc(F)cc1)N1CCSc2ccccc21 (3D coordinates assigned)
O=C(/C=C\c1ccc(F)cc1)N1CCSc2ccccc21 (nonaromatic ring conformer: 58.07759911736073 kcal/mol)

>  <smiles>  (35) 
O=C(C=Cc1ccc(F)cc1)N1CCSc2ccccc21

>  <score_type>  (35) 
oracle

>  <origin>  (35) 
adg

>  <m_score__min__energy>  (35) 
-7.5800000000000001

>  <m_primary>  (35) 
energy

$$$$
35:0
     RDKit          3D

 44 45  0  0  0  0  0  0  0  0999 V2000
   59.2590   30.9330   48.9690 C   0  0  0  0  0  0  0  0  0  0  0  0
   60.1620   30.7610   47.8150 N   0  0  0  0  0  0  0  0  0  0  0  0
   61.5620   30.8480   48.2700 C   0  0  0  0  0  0  0  0  0  0  0  0
   59.9370   29.4660   47.1300 C   0  0  0  0  0  0  0  0  0  0  0  0
   60.0710   29.5800   45.6010 C   0  0  0  0  0  0  0  0  0  0  0  0
   58.7500   29.9580   44.9750 C   0  0  0  0  0  0  0  0  0  0  0  0
   58.0070   28.9890   44.2810 C   0  0  0  0  0  0  0  0  0  0  0  0
   56.7900   29.3250   43.6850 C   0  0  0  0  0  0  0  0  0  0  0  0
   56.3010   30.6280   43.7810 C   0  0  0  0  0  0  0  0  0  0  0  0
   57.0200   31.5980   44.4810 C   0  0  0  0  0  0  0  0  0  0  0  0
   58.2480   31.2720   45.0920 C   0  0  0  0  0  0  0  0  0  0  0  0
   58.9900   32.2140   45.8240 O   0  0  0  0  0  0  0  0  0  0  0  0
   58.9030   33.6330   45.6860 C   0  0  0  0  0  0  0  0  0  0  0  0
   59.2570   34.3380   47.0000 C   0  0  0  0  0  0  0  0  0  0  0  0
   60.6990   34.1030   47.3690 C   0  0  0  0  0  0  0  0  0  0  0  0
   61.1180   34.2170   48.7060 C   0  0  0  0  0  0  0  0  0  0  0  0
   62.4670   34.0580   49.0370 C   0  0  0  0  0  0  0  0  0  0  0  0
   63.4060   33.7870   48.0380 C   0  0  0  0  0  0  0  0  0  0  0  0
   62.9980   33.6760   46.7060 C   0  0  0  0  0  0  0  0  0  0  0  0
   61.6500   33.8370   46.3710 C   0  0  0  0  0  0  0  0  0  0  0  0
   59.8314   30.8240   49.9020 H   0  0  0  0  0  0  0  0  0  0  0  0
   58.8042   31.9339   48.9327 H   0  0  0  0  0  0  0  0  0  0  0  0
   58.4681   30.1694   48.9327 H   0  0  0  0  0  0  0  0  0  0  0  0
   59.9990   31.5460   47.1410 H   0  0  0  0  0  0  0  0  0  0  0  0
   61.5907   30.8498   49.3696 H   0  0  0  0  0  0  0  0  0  0  0  0
   62.1255   29.9831   47.8899 H   0  0  0  0  0  0  0  0  0  0  0  0
   62.0141   31.7760   47.8899 H   0  0  0  0  0  0  0  0  0  0  0  0
   60.6771   28.7393   47.4963 H   0  0  0  0  0  0  0  0  0  0  0  0
   58.9097   29.1424   47.3535 H   0  0  0  0  0  0  0  0  0  0  0  0
   60.8179   30.3509   45.3607 H   0  0  0  0  0  0  0  0  0  0  0  0
   60.3855   28.6050   45.2004 H   0  0  0  0  0  0  0  0  0  0  0  0
   58.3862   27.9591   44.2066 H   0  0  0  0  0  0  0  0  0  0  0  0
   56.2162   28.5616   43.1392 H   0  0  0  0  0  0  0  0  0  0  0  0
   55.3458   30.8917   43.3035 H   0  0  0  0  0  0  0  0  0  0  0  0
   56.6264   32.6224   44.5564 H   0  0  0  0  0  0  0  0  0  0  0  0
   59.6019   33.9613   44.9026 H   0  0  0  0  0  0  0  0  0  0  0  0
   57.8692   33.8950   45.4165 H   0  0  0  0  0  0  0  0  0  0  0  0
   59.0868   35.4187   46.8853 H   0  0  0  0  0  0  0  0  0  0  0  0
   58.6204   33.9296   47.7987 H   0  0  0  0  0  0  0  0  0  0  0  0
   60.3819   34.4321   49.4946 H   0  0  0  0  0  0  0  0  0  0  0  0
   62.7897   34.1463   50.0849 H   0  0  0  0  0  0  0  0  0  0  0  0
   64.4668   33.6610   48.3003 H   0  0  0  0  0  0  0  0  0  0  0  0
   63.7378   33.4618   45.9206 H   0  0  0  0  0  0  0  0  0  0  0  0
   61.3332   33.7549   45.3208 H   0  0  0  0  0  0  0  0  0  0  0  0
  1  2  1  0
  2  3  1  0
  2  4  1  0
  4  5  1  0
  5  6  1  0
  6  7  2  0
  7  8  1  0
  8  9  2  0
  9 10  1  0
 10 11  2  0
 11 12  1  0
 12 13  1  0
 13 14  1  0
 14 15  1  0
 15 16  2  0
 16 17  1  0
 17 18  2  0
 18 19  1  0
 19 20  2  0
 11  6  1  0
 20 15  1  0
  1 21  1  0
  1 22  1  0
  1 23  1  0
  2 24  1  0
  3 25  1  0
  3 26  1  0
  3 27  1  0
  4 28  1  0
  4 29  1  0
  5 30  1  0
  5 31  1  0
  7 32  1  0
  8 33  1  0
  9 34  1  0
 10 35  1  0
 13 36  1  0
 13 37  1  0
 14 38  1  0
 14 39  1  0
 16 40  1  0
 17 41  1  0
 18 42  1  0
 19 43  1  0
 20 44  1  0
M  CHG  1   2   1
M  END
>  <UniqueID>  (36) 
34

>  <SMILES>  (36) 
C[NH+](C)CCc1ccccc1OCCc1ccccc1

>  <Energy>  (36) 
39.35336310679372

>  <Genealogy>  (36) 
C[NH+](C)CCc1ccccc1OCCc1ccccc1 (protonated)
C[NH+](C)CCc1ccccc1OCCc1ccccc1 (3D coordinates assigned)
C[NH+](C)CCc1ccccc1OCCc1ccccc1 (optimized conformer: 39.35336310679372 kcal/mol)

>  <smiles>  (36) 
CN(C)CCc1ccccc1OCCc1ccccc1

>  <score_type>  (36) 
oracle

>  <origin>  (36) 
adg

>  <m_score__min__energy>  (36) 
-5.2999999999999998

>  <m_primary>  (36) 
energy

$$$$
36:0
     RDKit          3D

 37 40  0  0  0  0  0  0  0  0999 V2000
   59.7580   30.9950   47.3250 C   0  0  0  0  0  0  0  0  0  0  0  0
   58.5320   31.9000   47.2460 C   0  0  0  0  0  0  0  0  0  0  0  0
   58.1700   32.1550   45.8490 N   0  0  0  0  0  0  0  0  0  0  0  0
   58.3440   33.2930   45.1190 C   0  0  0  0  0  0  0  0  0  0  0  0
   58.9170   34.5740   45.6560 C   0  0  0  0  0  0  0  0  0  0  0  0
   60.0990   34.3070   46.4710 N   0  0  0  0  0  0  0  0  0  0  0  0
   61.2400   33.8150   45.9970 N   0  0  0  0  0  0  0  0  0  0  0  0
   62.0590   33.7230   47.0680 C   0  0  0  0  0  0  0  0  0  0  0  0
   63.3750   33.2680   47.0740 C   0  0  0  0  0  0  0  0  0  0  0  0
   64.0510   33.2620   48.3080 C   0  0  0  0  0  0  0  0  0  0  0  0
   63.4030   33.7030   49.4810 C   0  0  0  0  0  0  0  0  0  0  0  0
   62.0750   34.1520   49.4120 C   0  0  0  0  0  0  0  0  0  0  0  0
   61.4670   34.1380   48.1990 N   0  0  0  0  0  0  0  0  0  0  0  0
   60.2390   34.4960   47.8010 C   0  0  0  0  0  0  0  0  0  0  0  0
   59.3400   34.9470   48.5610 O   0  0  0  0  0  0  0  0  0  0  0  0
   57.9560   33.1660   43.8230 N   0  0  0  0  0  0  0  0  0  0  0  0
   57.5250   31.8940   43.7560 C   0  0  0  0  0  0  0  0  0  0  0  0
   57.0190   31.2280   42.6430 C   0  0  0  0  0  0  0  0  0  0  0  0
   56.6350   29.8820   42.8030 C   0  0  0  0  0  0  0  0  0  0  0  0
   56.7670   29.2450   44.0570 C   0  0  0  0  0  0  0  0  0  0  0  0
   57.2840   29.9470   45.1620 C   0  0  0  0  0  0  0  0  0  0  0  0
   57.6530   31.2800   44.9680 C   0  0  0  0  0  0  0  0  0  0  0  0
   60.0094   30.8094   48.3797 H   0  0  0  0  0  0  0  0  0  0  0  0
   59.5408   30.0390   46.8261 H   0  0  0  0  0  0  0  0  0  0  0  0
   60.6076   31.4842   46.8261 H   0  0  0  0  0  0  0  0  0  0  0  0
   57.6882   31.4112   47.7550 H   0  0  0  0  0  0  0  0  0  0  0  0
   58.7658   32.8582   47.7330 H   0  0  0  0  0  0  0  0  0  0  0  0
   59.1975   35.2251   44.8149 H   0  0  0  0  0  0  0  0  0  0  0  0
   58.1585   35.0665   46.2822 H   0  0  0  0  0  0  0  0  0  0  0  0
   63.8665   32.9269   46.1509 H   0  0  0  0  0  0  0  0  0  0  0  0
   65.0923   32.9109   48.3585 H   0  0  0  0  0  0  0  0  0  0  0  0
   63.9352   33.6950   50.4436 H   0  0  0  0  0  0  0  0  0  0  0  0
   61.5455   34.5030   50.3100 H   0  0  0  0  0  0  0  0  0  0  0  0
   56.9223   31.7354   41.6718 H   0  0  0  0  0  0  0  0  0  0  0  0
   56.2299   29.3236   41.9462 H   0  0  0  0  0  0  0  0  0  0  0  0
   56.4638   28.1937   44.1706 H   0  0  0  0  0  0  0  0  0  0  0  0
   57.3936   29.4629   46.1436 H   0  0  0  0  0  0  0  0  0  0  0  0
  1  2  1  0
  2  3  1  0
  3  4  1  0
  4  5  1  0
  5  6  1  0
  6  7  1  0
  7  8  2  0
  8  9  1  0
  9 10  2  0
 10 11  1  0
 11 12  2  0
 12 13  1  0
 13 14  1  0
 14 15  2  0
  4 16  2  0
 16 17  1  0
 17 18  2  0
 18 19  1  0
 19 20  2  0
 20 21  1  0
 21 22  2  0
 22  3  1  0
 14  6  1  0
 22 17  1  0
 13  8  1  0
  1 23  1  0
  1 24  1  0
  1 25  1  0
  2 26  1  0
  2 27  1  0
  5 28  1  0
  5 29  1  0
  9 30  1  0
 10 31  1  0
 11 32  1  0
 12 33  1  0
 18 34  1  0
 19 35  1  0
 20 36  1  0
 21 37  1  0
M  END
>  <UniqueID>  (37) 
35

>  <SMILES>  (37) 
CCn1c(Cn2nc3ccccn3c2=O)nc2ccccc21

>  <Energy>  (37) 
116.9786700608555

>  <Genealogy>  (37) 
CCn1c(Cn2nc3ccccn3c2=O)nc2ccccc21 (3D coordinates assigned)
CCn1c(Cn2nc3ccccn3c2=O)nc2ccccc21 (optimized conformer: 116.9786700608555 kcal/mol)

>  <smiles>  (37) 
CCn1c(Cn2nc3ccccn3c2=O)nc2ccccc21

>  <score_type>  (37) 
oracle

>  <origin>  (37) 
adg

>  <m_score__min__energy>  (37) 
-7.4000000000000004

>  <m_primary>  (37) 
energy

$$$$
37:0
     RDKit          3D

 45 47  0  0  0  0  0  0  0  0999 V2000
   64.0190   32.7430   48.6160 C   0  0  0  0  0  0  0  0  0  0  0  0
   62.7160   33.3590   49.7260 S   0  0  0  0  0  0  0  0  0  0  0  0
   61.6410   33.8430   48.3790 C   0  0  0  0  0  0  0  0  0  0  0  0
   61.9730   33.5160   47.1040 N   0  0  0  0  0  0  0  0  0  0  0  0
   61.1760   33.8640   46.0610 C   0  0  0  0  0  0  0  0  0  0  0  0
   59.9790   34.5560   46.2900 C   0  0  0  0  0  0  0  0  0  0  0  0
   59.0670   34.9400   45.1420 C   0  0  0  0  0  0  0  0  0  0  0  0
   57.9910   33.9570   44.8750 N   0  0  0  0  0  0  0  0  0  0  0  0
   57.3340   33.4150   46.0870 C   0  0  0  0  0  0  0  0  0  0  0  0
   57.7540   31.9640   46.3600 C   0  0  0  0  0  0  0  0  0  0  0  0
   57.4070   31.0620   45.2300 N   0  0  0  0  0  0  0  0  0  0  0  0
   58.2870   29.8730   45.2010 C   0  0  0  0  0  0  0  0  0  0  0  0
   59.1970   29.8430   46.4020 C   0  0  0  0  0  0  0  0  0  0  0  0
   58.7780   29.2160   47.5870 C   0  0  0  0  0  0  0  0  0  0  0  0
   59.6080   29.2090   48.7120 C   0  0  0  0  0  0  0  0  0  0  0  0
   60.8590   29.8320   48.6640 C   0  0  0  0  0  0  0  0  0  0  0  0
   61.6620   29.8260   49.7570 F   0  0  0  0  0  0  0  0  0  0  0  0
   61.2800   30.4640   47.4910 C   0  0  0  0  0  0  0  0  0  0  0  0
   60.4530   30.4730   46.3630 C   0  0  0  0  0  0  0  0  0  0  0  0
   57.3850   31.7480   43.9120 C   0  0  0  0  0  0  0  0  0  0  0  0
   58.3560   32.9360   43.8670 C   0  0  0  0  0  0  0  0  0  0  0  0
   59.6740   34.9070   47.6120 C   0  0  0  0  0  0  0  0  0  0  0  0
   60.4990   34.5380   48.6280 N   0  0  0  0  0  0  0  0  0  0  0  0
   64.8537   32.3484   49.2139 H   0  0  0  0  0  0  0  0  0  0  0  0
   63.6117   31.9421   47.9814 H   0  0  0  0  0  0  0  0  0  0  0  0
   64.3795   33.5660   47.9814 H   0  0  0  0  0  0  0  0  0  0  0  0
   61.4706   33.6021   45.0340 H   0  0  0  0  0  0  0  0  0  0  0  0
   58.6009   35.9078   45.3788 H   0  0  0  0  0  0  0  0  0  0  0  0
   59.6923   34.9822   44.2380 H   0  0  0  0  0  0  0  0  0  0  0  0
   57.6130   34.0355   46.9514 H   0  0  0  0  0  0  0  0  0  0  0  0
   56.2463   33.4321   45.9240 H   0  0  0  0  0  0  0  0  0  0  0  0
   58.8421   31.9329   46.5180 H   0  0  0  0  0  0  0  0  0  0  0  0
   57.2125   31.6154   47.2518 H   0  0  0  0  0  0  0  0  0  0  0  0
   57.6652   28.9656   45.1985 H   0  0  0  0  0  0  0  0  0  0  0  0
   58.9070   29.9189   44.2935 H   0  0  0  0  0  0  0  0  0  0  0  0
   57.7929   28.7285   47.6300 H   0  0  0  0  0  0  0  0  0  0  0  0
   59.2766   28.7128   49.6361 H   0  0  0  0  0  0  0  0  0  0  0  0
   62.2635   30.9553   47.4547 H   0  0  0  0  0  0  0  0  0  0  0  0
   60.7865   30.9746   45.4426 H   0  0  0  0  0  0  0  0  0  0  0  0
   57.6692   31.0270   43.1314 H   0  0  0  0  0  0  0  0  0  0  0  0
   56.3681   32.1332   43.7459 H   0  0  0  0  0  0  0  0  0  0  0  0
   59.3749   32.5759   44.0722 H   0  0  0  0  0  0  0  0  0  0  0  0
   58.3034   33.3944   42.8684 H   0  0  0  0  0  0  0  0  0  0  0  0
   58.7628   35.4838   47.8288 H   0  0  0  0  0  0  0  0  0  0  0  0
   60.2520   34.8000   49.6080 H   0  0  0  0  0  0  0  0  0  0  0  0
  1  2  1  0
  2  3  1  0
  3  4  2  0
  4  5  1  0
  5  6  2  0
  6  7  1  0
  7  8  1  0
  8  9  1  0
  9 10  1  0
 10 11  1  0
 11 12  1  0
 12 13  1  0
 13 14  2  0
 14 15  1  0
 15 16  2  0
 16 17  1  0
 16 18  1  0
 18 19  2  0
 11 20  1  0
 20 21  1  0
  6 22  1  0
 22 23  2  0
 23  3  1  0
 21  8  1  0
 19 13  1  0
  1 24  1  0
  1 25  1  0
  1 26  1  0
  5 27  1  0
  7 28  1  0
  7 29  1  0
  9 30  1  0
  9 31  1  0
 10 32  1  0
 10 33  1  0
 12 34  1  0
 12 35  1  0
 14 36  1  0
 15 37  1  0
 18 38  1  0
 19 39  1  0
 20 40  1  0
 20 41  1  0
 21 42  1  0
 21 43  1  0
 22 44  1  0
 23 45  1  0
M  CHG  1  23   1
M  END
>  <UniqueID>  (38) 
36

>  <SMILES>  (38) 
CSc1ncc(CN2CCN(Cc3ccc(F)cc3)CC2)c[nH+]1

>  <Energy>  (38) 
57.286266200384624

>  <Genealogy>  (38) 
CSc1ncc(CN2CCN(Cc3ccc(F)cc3)CC2)c[nH+]1 (protonated)
CSc1ncc(CN2CCN(Cc3ccc(F)cc3)CC2)c[nH+]1 (3D coordinates assigned)
CSc1ncc(CN2CCN(Cc3ccc(F)cc3)CC2)c[nH+]1 (nonaromatic ring conformer: 57.286266200384624 kcal/mol)

>  <smiles>  (38) 
CSc1ncc(CN2CCN(Cc3ccc(F)cc3)CC2)cn1

>  <score_type>  (38) 
oracle

>  <origin>  (38) 
adg

>  <m_score__min__energy>  (38) 
-6.2599999999999998

>  <m_primary>  (38) 
energy

$$$$
38:0
     RDKit          3D

 43 45  0  0  0  0  0  0  0  0999 V2000
   57.4380   27.9290   46.3940 C   0  0  0  0  0  0  0  0  0  0  0  0
   56.7630   28.2960   45.1950 O   0  0  0  0  0  0  0  0  0  0  0  0
   56.9700   29.5010   44.5060 C   0  0  0  0  0  0  0  0  0  0  0  0
   56.5810   29.5720   43.1640 C   0  0  0  0  0  0  0  0  0  0  0  0
   56.7660   30.7480   42.4340 C   0  0  0  0  0  0  0  0  0  0  0  0
   57.3420   31.8660   43.0400 C   0  0  0  0  0  0  0  0  0  0  0  0
   57.7410   31.8180   44.3840 C   0  0  0  0  0  0  0  0  0  0  0  0
   58.3500   33.0050   45.0190 C   0  0  0  0  0  0  0  0  0  0  0  0
   58.6870   33.0660   46.3270 N   0  0  0  0  0  0  0  0  0  0  0  0
   59.1950   34.3060   46.4520 C   0  0  0  0  0  0  0  0  0  0  0  0
   59.7340   34.8660   47.7320 C   0  0  0  0  0  0  0  0  0  0  0  0
   61.0120   34.2100   48.0790 N   0  0  0  0  0  0  0  0  0  0  0  0
   61.5240   33.4300   46.9310 C   0  0  0  0  0  0  0  0  0  0  0  0
   63.0530   33.5260   46.7600 C   0  0  0  0  0  0  0  0  0  0  0  0
   63.8770   33.6430   48.0640 C   0  0  0  0  0  0  0  0  0  0  0  0
   63.4320   32.7010   49.1950 C   0  0  0  0  0  0  0  0  0  0  0  0
   62.2720   33.2280   50.0750 C   0  0  0  0  0  0  0  0  0  0  0  0
   60.9210   33.4600   49.3580 C   0  0  0  0  0  0  0  0  0  0  0  0
   59.1540   34.9490   45.2350 C   0  0  0  0  0  0  0  0  0  0  0  0
   58.6260   34.1170   44.3730 O   0  0  0  0  0  0  0  0  0  0  0  0
   57.5520   30.6310   45.1150 C   0  0  0  0  0  0  0  0  0  0  0  0
   56.8447   28.2516   47.2623 H   0  0  0  0  0  0  0  0  0  0  0  0
   57.5664   26.8369   46.4230 H   0  0  0  0  0  0  0  0  0  0  0  0
   58.4244   28.4150   46.4230 H   0  0  0  0  0  0  0  0  0  0  0  0
   56.1261   28.6950   42.6803 H   0  0  0  0  0  0  0  0  0  0  0  0
   56.4572   30.7935   41.3792 H   0  0  0  0  0  0  0  0  0  0  0  0
   57.4838   32.7900   42.4602 H   0  0  0  0  0  0  0  0  0  0  0  0
   59.9009   35.9468   47.6137 H   0  0  0  0  0  0  0  0  0  0  0  0
   59.0072   34.6837   48.5373 H   0  0  0  0  0  0  0  0  0  0  0  0
   61.2552   32.3737   47.0793 H   0  0  0  0  0  0  0  0  0  0  0  0
   61.0682   33.8510   46.0227 H   0  0  0  0  0  0  0  0  0  0  0  0
   63.3893   32.6229   46.2297 H   0  0  0  0  0  0  0  0  0  0  0  0
   63.2311   34.4633   46.2125 H   0  0  0  0  0  0  0  0  0  0  0  0
   64.9275   33.4197   47.8261 H   0  0  0  0  0  0  0  0  0  0  0  0
   63.7243   34.6669   48.4359 H   0  0  0  0  0  0  0  0  0  0  0  0
   63.1104   31.7522   48.7407 H   0  0  0  0  0  0  0  0  0  0  0  0
   64.2990   32.5968   49.8639 H   0  0  0  0  0  0  0  0  0  0  0  0
   62.1034   32.4979   50.8803 H   0  0  0  0  0  0  0  0  0  0  0  0
   62.5944   34.2204   50.4232 H   0  0  0  0  0  0  0  0  0  0  0  0
   60.4732   32.4777   49.1469 H   0  0  0  0  0  0  0  0  0  0  0  0
   60.3145   34.0787   50.0358 H   0  0  0  0  0  0  0  0  0  0  0  0
   59.5005   35.9718   45.0259 H   0  0  0  0  0  0  0  0  0  0  0  0
   57.8607   30.5844   46.1698 H   0  0  0  0  0  0  0  0  0  0  0  0
  1  2  1  0
  2  3  1  0
  3  4  2  0
  4  5  1  0
  5  6  2  0
  6  7  1  0
  7  8  1  0
  8  9  2  0
  9 10  1  0
 10 11  1  0
 11 12  1  0
 12 13  1  0
 13 14  1  0
 14 15  1  0
 15 16  1  0
 16 17  1  0
 17 18  1  0
 10 19  2  0
 19 20  1  0
  7 21  2  0
 21  3  1  0
 20  8  1  0
 18 12  1  0
  1 22  1  0
  1 23  1  0
  1 24  1  0
  4 25  1  0
  5 26  1  0
  6 27  1  0
 11 28  1  0
 11 29  1  0
 13 30  1  0
 13 31  1  0
 14 32  1  0
 14 33  1  0
 15 34  1  0
 15 35  1  0
 16 36  1  0
 16 37  1  0
 17 38  1  0
 17 39  1  0
 18 40  1  0
 18 41  1  0
 19 42  1  0
 21 43  1  0
M  END
>  <UniqueID>  (39) 
37

>  <SMILES>  (39) 
COc1cccc(-c2nc(CN3CCCCCC3)co2)c1

>  <Energy>  (39) 
86.82930851774722

>  <Genealogy>  (39) 
COc1cccc(-c2nc(CN3CCCCCC3)co2)c1 (3D coordinates assigned)
COc1cccc(-c2nc(CN3CCCCCC3)co2)c1 (nonaromatic ring conformer: 86.82930851774722 kcal/mol)

>  <smiles>  (39) 
COc1cccc(-c2nc(CN3CCCCCC3)co2)c1

>  <score_type>  (39) 
oracle

>  <origin>  (39) 
adg

>  <m_score__min__energy>  (39) 
-5.5099999999999998

>  <m_primary>  (39) 
energy

$$$$
39:0
     RDKit          3D

 43 46  0  0  0  0  0  0  0  0999 V2000
   58.2250   33.6070   44.8050 C   0  0  0  0  0  0  0  0  0  0  0  0
   59.1890   34.6000   44.9820 C   0  0  0  0  0  0  0  0  0  0  0  0
   59.6450   34.9130   46.2670 C   0  0  0  0  0  0  0  0  0  0  0  0
   59.1330   34.2400   47.3890 C   0  0  0  0  0  0  0  0  0  0  0  0
   59.6200   34.5860   48.6980 N   0  0  0  0  0  0  0  0  0  0  0  0
   60.5240   33.7550   49.4930 C   0  0  0  0  0  0  0  0  0  0  0  0
   61.7740   33.4150   48.7230 C   0  0  0  0  0  0  0  0  0  0  0  0
   62.9260   34.1810   48.7190 C   0  0  0  0  0  0  0  0  0  0  0  0
   63.8720   33.4640   48.0150 C   0  0  0  0  0  0  0  0  0  0  0  0
   63.2690   32.2870   47.6250 C   0  0  0  0  0  0  0  0  0  0  0  0
   61.9910   32.2660   48.0470 N   0  0  0  0  0  0  0  0  0  0  0  0
   61.0870   31.1700   47.8680 C   0  0  0  0  0  0  0  0  0  0  0  0
   60.3890   30.5980   48.8730 N   0  0  0  0  0  0  0  0  0  0  0  0
   59.5550   29.6430   48.4680 N   0  0  0  0  0  0  0  0  0  0  0  0
   59.5840   29.4570   47.1290 C   0  0  0  0  0  0  0  0  0  0  0  0
   58.7710   28.4910   46.4510 N   0  0  0  0  0  0  0  0  0  0  0  0
   58.5080   28.5340   45.0250 C   0  0  0  0  0  0  0  0  0  0  0  0
   57.7510   27.2520   44.7100 C   0  0  0  0  0  0  0  0  0  0  0  0
   57.2560   26.7140   46.0520 C   0  0  0  0  0  0  0  0  0  0  0  0
   58.1280   27.3720   47.1150 C   0  0  0  0  0  0  0  0  0  0  0  0
   60.6630   30.5160   46.3740 S   0  0  0  0  0  0  0  0  0  0  0  0
   58.1710   33.2290   47.1980 C   0  0  0  0  0  0  0  0  0  0  0  0
   57.7180   32.9190   45.9110 C   0  0  0  0  0  0  0  0  0  0  0  0
   57.8638   33.3654   43.7945 H   0  0  0  0  0  0  0  0  0  0  0  0
   59.5909   35.1373   44.1103 H   0  0  0  0  0  0  0  0  0  0  0  0
   60.4102   35.6919   46.3999 H   0  0  0  0  0  0  0  0  0  0  0  0
   59.2830   35.4750   49.1320 H   0  0  0  0  0  0  0  0  0  0  0  0
   60.8030   34.3012   50.4061 H   0  0  0  0  0  0  0  0  0  0  0  0
   60.0047   32.8182   49.7434 H   0  0  0  0  0  0  0  0  0  0  0  0
   63.0614   35.1680   49.1855 H   0  0  0  0  0  0  0  0  0  0  0  0
   64.9070   33.7720   47.8055 H   0  0  0  0  0  0  0  0  0  0  0  0
   63.7593   31.4847   47.0541 H   0  0  0  0  0  0  0  0  0  0  0  0
   60.4450   30.8990   49.8700 H   0  0  0  0  0  0  0  0  0  0  0  0
   57.8962   29.4129   44.7737 H   0  0  0  0  0  0  0  0  0  0  0  0
   59.4374   28.6119   44.4417 H   0  0  0  0  0  0  0  0  0  0  0  0
   56.9000   27.4640   44.0460 H   0  0  0  0  0  0  0  0  0  0  0  0
   58.3925   26.5216   44.1952 H   0  0  0  0  0  0  0  0  0  0  0  0
   56.1999   26.9810   46.2049 H   0  0  0  0  0  0  0  0  0  0  0  0
   57.3245   25.6170   46.0967 H   0  0  0  0  0  0  0  0  0  0  0  0
   57.5105   27.7259   47.9537 H   0  0  0  0  0  0  0  0  0  0  0  0
   58.8630   26.6683   47.5328 H   0  0  0  0  0  0  0  0  0  0  0  0
   57.7739   32.6805   48.0649 H   0  0  0  0  0  0  0  0  0  0  0  0
   56.9618   32.1328   45.7694 H   0  0  0  0  0  0  0  0  0  0  0  0
  1  2  2  0
  2  3  1  0
  3  4  2  0
  4  5  1  0
  5  6  1  0
  6  7  1  0
  7  8  2  0
  8  9  1  0
  9 10  2  0
 10 11  1  0
 11 12  1  0
 12 13  2  0
 13 14  1  0
 14 15  2  0
 15 16  1  0
 16 17  1  0
 17 18  1  0
 18 19  1  0
 19 20  1  0
 15 21  1  0
  4 22  1  0
 22 23  2  0
 23  1  1  0
 11  7  1  0
 21 12  1  0
 20 16  1  0
  1 24  1  0
  2 25  1  0
  3 26  1  0
  5 27  1  0
  6 28  1  0
  6 29  1  0
  8 30  1  0
  9 31  1  0
 10 32  1  0
 13 33  1  0
 17 34  1  0
 17 35  1  0
 18 36  1  0
 18 37  1  0
 19 38  1  0
 19 39  1  0
 20 40  1  0
 20 41  1  0
 22 42  1  0
 23 43  1  0
M  CHG  1  13   1
M  END
>  <UniqueID>  (40) 
38

>  <SMILES>  (40) 
c1ccc(NCc2cccn2-c2[nH+]nc(N3CCCC3)s2)cc1

>  <Energy>  (40) 
109.01078685586278

>  <Genealogy>  (40) 
c1ccc(NCc2cccn2-c2[nH+]nc(N3CCCC3)s2)cc1 (protonated)
c1ccc(NCc2cccn2-c2[nH+]nc(N3CCCC3)s2)cc1 (3D coordinates assigned)
c1ccc(NCc2cccn2-c2[nH+]nc(N3CCCC3)s2)cc1 (nonaromatic ring conformer: 109.01078685586278 kcal/mol)

>  <smiles>  (40) 
c1ccc(NCc2cccn2-c2nnc(N3CCCC3)s2)cc1

>  <score_type>  (40) 
oracle

>  <origin>  (40) 
adg

>  <m_score__min__energy>  (40) 
-5.9000000000000004

>  <m_primary>  (40) 
energy

$$$$
40:0
     RDKit          3D

 37 38  0  0  0  0  0  0  0  0999 V2000
   56.8720   30.4130   43.8190 C   0  0  0  0  0  0  0  0  0  0  0  0
   57.0120   31.0700   45.0760 O   0  0  0  0  0  0  0  0  0  0  0  0
   57.7540   32.2430   45.2780 C   0  0  0  0  0  0  0  0  0  0  0  0
   57.4380   33.4540   44.6360 C   0  0  0  0  0  0  0  0  0  0  0  0
   58.2080   34.5950   44.8740 C   0  0  0  0  0  0  0  0  0  0  0  0
   59.2930   34.5420   45.7490 C   0  0  0  0  0  0  0  0  0  0  0  0
   59.6260   33.3400   46.4000 C   0  0  0  0  0  0  0  0  0  0  0  0
   60.7520   33.2830   47.3050 N   0  0  0  0  0  0  0  0  0  0  0  0
   62.1260   33.2260   46.7900 C   0  0  0  0  0  0  0  0  0  0  0  0
   63.0920   33.8430   47.8110 C   0  0  0  0  0  0  0  0  0  0  0  0
   63.0440   33.1650   49.1490 N   0  0  0  0  0  0  0  0  0  0  0  0
   64.0770   32.0990   49.1950 C   0  0  0  0  0  0  0  0  0  0  0  0
   63.3740   34.1610   50.1990 C   0  0  0  0  0  0  0  0  0  0  0  0
   61.7080   32.5540   49.4500 C   0  0  0  0  0  0  0  0  0  0  0  0
   60.5440   33.2810   48.7600 C   0  0  0  0  0  0  0  0  0  0  0  0
   58.8460   32.1960   46.1530 C   0  0  0  0  0  0  0  0  0  0  0  0
   56.6454   29.3494   43.9844 H   0  0  0  0  0  0  0  0  0  0  0  0
   56.0529   30.8785   43.2512 H   0  0  0  0  0  0  0  0  0  0  0  0
   57.8097   30.5041   43.2512 H   0  0  0  0  0  0  0  0  0  0  0  0
   56.5832   33.5026   43.9454 H   0  0  0  0  0  0  0  0  0  0  0  0
   57.9575   35.5396   44.3691 H   0  0  0  0  0  0  0  0  0  0  0  0
   59.8924   35.4462   45.9313 H   0  0  0  0  0  0  0  0  0  0  0  0
   62.4053   32.1772   46.6110 H   0  0  0  0  0  0  0  0  0  0  0  0
   62.1839   33.7918   45.8485 H   0  0  0  0  0  0  0  0  0  0  0  0
   64.1156   33.7661   47.4158 H   0  0  0  0  0  0  0  0  0  0  0  0
   62.7870   34.8891   47.9615 H   0  0  0  0  0  0  0  0  0  0  0  0
   64.3097   31.8589   50.2430 H   0  0  0  0  0  0  0  0  0  0  0  0
   63.6982   31.1993   48.6881 H   0  0  0  0  0  0  0  0  0  0  0  0
   64.9882   32.4493   48.6881 H   0  0  0  0  0  0  0  0  0  0  0  0
   63.2248   33.7107   51.1914 H   0  0  0  0  0  0  0  0  0  0  0  0
   64.4234   34.4727   50.0918 H   0  0  0  0  0  0  0  0  0  0  0  0
   62.7183   35.0377   50.0918 H   0  0  0  0  0  0  0  0  0  0  0  0
   61.7173   31.5075   49.1112 H   0  0  0  0  0  0  0  0  0  0  0  0
   61.5476   32.6340   50.5353 H   0  0  0  0  0  0  0  0  0  0  0  0
   59.6011   32.7649   48.9936 H   0  0  0  0  0  0  0  0  0  0  0  0
   60.4976   34.3187   49.1221 H   0  0  0  0  0  0  0  0  0  0  0  0
   59.0977   31.2501   46.6548 H   0  0  0  0  0  0  0  0  0  0  0  0
  1  2  1  0
  2  3  1  0
  3  4  2  0
  4  5  1  0
  5  6  2  0
  6  7  1  0
  7  8  1  0
  8  9  1  0
  9 10  1  0
 10 11  1  0
 11 12  1  0
 11 13  1  0
 11 14  1  0
 14 15  1  0
  7 16  2  0
 16  3  1  0
 15  8  1  0
  1 17  1  0
  1 18  1  0
  1 19  1  0
  4 20  1  0
  5 21  1  0
  6 22  1  0
  9 23  1  0
  9 24  1  0
 10 25  1  0
 10 26  1  0
 12 27  1  0
 12 28  1  0
 12 29  1  0
 13 30  1  0
 13 31  1  0
 13 32  1  0
 14 33  1  0
 14 34  1  0
 15 35  1  0
 15 36  1  0
 16 37  1  0
M  CHG  1  11   1
M  END
>  <UniqueID>  (41) 
39

>  <SMILES>  (41) 
COc1cccc(N2CC[N+](C)(C)CC2)c1

>  <Energy>  (41) 
49.755819011647965

>  <Genealogy>  (41) 
COc1cccc(N2CC[N+](C)(C)CC2)c1 (3D coordinates assigned)
COc1cccc(N2CC[N+](C)(C)CC2)c1 (nonaromatic ring conformer: 49.755819011647965 kcal/mol)

>  <smiles>  (41) 
COc1cccc(N2CC[N+](C)(C)CC2)c1

>  <score_type>  (41) 
oracle

>  <origin>  (41) 
adg

>  <m_score__min__energy>  (41) 
-4.4699999999999998

>  <m_primary>  (41) 
energy

$$$$
41:0
     RDKit          3D

 63 65  0  0  0  0  0  0  0  0999 V2000
   59.5630   35.2970   45.8650 C   0  0  0  0  0  0  0  0  0  0  0  0
   58.9670   34.3210   44.8500 C   0  0  0  0  0  0  0  0  0  0  0  0
   57.5720   33.8150   45.2680 C   0  0  0  0  0  0  0  0  0  0  0  0
   57.5160   32.3190   45.3190 C   0  0  0  0  0  0  0  0  0  0  0  0
   58.3540   31.5380   46.0220 N   0  0  0  0  0  0  0  0  0  0  0  0
   57.9110   30.3000   45.7330 C   0  0  0  0  0  0  0  0  0  0  0  0
   58.5420   29.0370   46.2350 C   0  0  0  0  0  0  0  0  0  0  0  0
   59.6430   29.3340   47.2540 C   0  0  0  0  0  0  0  0  0  0  0  0
   58.9060   29.7660   48.8730 S   0  0  0  0  0  0  0  0  0  0  0  0
   60.0910   28.8340   49.9120 C   0  0  0  0  0  0  0  0  0  0  0  0
   59.9040   29.1860   51.3880 C   0  0  0  0  0  0  0  0  0  0  0  0
   61.0500   30.0670   51.9150 C   0  0  0  0  0  0  0  0  0  0  0  0
   60.5430   31.3910   52.3370 N   0  0  0  0  0  0  0  0  0  0  0  0
   61.3480   32.4770   51.7290 C   0  0  0  0  0  0  0  0  0  0  0  0
   60.5620   33.7970   51.6710 C   0  0  0  0  0  0  0  0  0  0  0  0
   59.3520   33.6820   50.8160 N   0  0  0  0  0  0  0  0  0  0  0  0
   59.6120   34.2250   49.4640 C   0  0  0  0  0  0  0  0  0  0  0  0
   59.2560   33.2460   48.3830 C   0  0  0  0  0  0  0  0  0  0  0  0
   58.0480   33.0640   48.0690 O   0  0  0  0  0  0  0  0  0  0  0  0
   60.2960   32.5510   47.6880 N   0  0  0  0  0  0  0  0  0  0  0  0
   61.6780   32.5600   48.0660 C   0  0  0  0  0  0  0  0  0  0  0  0
   62.4680   33.6620   47.7220 C   0  0  0  0  0  0  0  0  0  0  0  0
   63.8000   33.7330   48.1470 C   0  0  0  0  0  0  0  0  0  0  0  0
   64.3420   32.7140   48.9380 C   0  0  0  0  0  0  0  0  0  0  0  0
   65.6270   32.7930   49.3680 F   0  0  0  0  0  0  0  0  0  0  0  0
   63.5530   31.6200   49.3020 C   0  0  0  0  0  0  0  0  0  0  0  0
   62.2260   31.5400   48.8650 C   0  0  0  0  0  0  0  0  0  0  0  0
   58.8070   32.2980   50.7680 C   0  0  0  0  0  0  0  0  0  0  0  0
   59.0870   31.5280   52.0660 C   0  0  0  0  0  0  0  0  0  0  0  0
   56.8550   30.3290   44.8900 N   0  0  0  0  0  0  0  0  0  0  0  0
   56.6450   31.5910   44.6590 O   0  0  0  0  0  0  0  0  0  0  0  0
   59.3471   34.9435   46.8840 H   0  0  0  0  0  0  0  0  0  0  0  0
   60.6518   35.3567   45.7206 H   0  0  0  0  0  0  0  0  0  0  0  0
   59.1188   36.2929   45.7206 H   0  0  0  0  0  0  0  0  0  0  0  0
   58.8813   34.8303   43.8788 H   0  0  0  0  0  0  0  0  0  0  0  0
   59.6355   33.4494   44.7913 H   0  0  0  0  0  0  0  0  0  0  0  0
   57.3319   34.2146   46.2643 H   0  0  0  0  0  0  0  0  0  0  0  0
   56.8443   34.1594   44.5185 H   0  0  0  0  0  0  0  0  0  0  0  0
   59.1510   31.8130   46.6370 H   0  0  0  0  0  0  0  0  0  0  0  0
   57.7699   28.4156   46.7123 H   0  0  0  0  0  0  0  0  0  0  0  0
   58.9919   28.5099   45.3808 H   0  0  0  0  0  0  0  0  0  0  0  0
   60.2799   28.4447   47.3704 H   0  0  0  0  0  0  0  0  0  0  0  0
   60.2445   30.1824   46.8956 H   0  0  0  0  0  0  0  0  0  0  0  0
   59.9233   27.7557   49.7733 H   0  0  0  0  0  0  0  0  0  0  0  0
   61.1144   29.1015   49.6102 H   0  0  0  0  0  0  0  0  0  0  0  0
   58.9544   29.7282   51.5072 H   0  0  0  0  0  0  0  0  0  0  0  0
   59.8997   28.2494   51.9649 H   0  0  0  0  0  0  0  0  0  0  0  0
   61.5205   29.5698   52.7760 H   0  0  0  0  0  0  0  0  0  0  0  0
   61.7837   30.2111   51.1082 H   0  0  0  0  0  0  0  0  0  0  0  0
   62.2564   32.6282   52.3306 H   0  0  0  0  0  0  0  0  0  0  0  0
   61.6037   32.1824   50.7005 H   0  0  0  0  0  0  0  0  0  0  0  0
   60.2529   34.0724   52.6901 H   0  0  0  0  0  0  0  0  0  0  0  0
   61.2168   34.5658   51.2350 H   0  0  0  0  0  0  0  0  0  0  0  0
   59.0130   35.1374   49.3272 H   0  0  0  0  0  0  0  0  0  0  0  0
   60.6884   34.4381   49.3863 H   0  0  0  0  0  0  0  0  0  0  0  0
   62.0415   34.4749   47.1160 H   0  0  0  0  0  0  0  0  0  0  0  0
   64.4225   34.5927   47.8582 H   0  0  0  0  0  0  0  0  0  0  0  0
   63.9744   30.8224   49.9314 H   0  0  0  0  0  0  0  0  0  0  0  0
   61.6081   30.6750   49.1477 H   0  0  0  0  0  0  0  0  0  0  0  0
   57.7193   32.3492   50.6123 H   0  0  0  0  0  0  0  0  0  0  0  0
   59.3008   31.7653   49.9420 H   0  0  0  0  0  0  0  0  0  0  0  0
   58.6200   32.0658   52.9043 H   0  0  0  0  0  0  0  0  0  0  0  0
   58.6683   30.5169   51.9550 H   0  0  0  0  0  0  0  0  0  0  0  0
  1  2  1  0
  2  3  1  0
  3  4  1  0
  4  5  2  0
  5  6  1  0
  6  7  1  0
  7  8  1  0
  8  9  1  0
  9 10  1  0
 10 11  1  0
 11 12  1  0
 12 13  1  0
 13 14  1  0
 14 15  1  0
 15 16  1  0
 16 17  1  0
 17 18  1  0
 18 19  2  0
 18 20  1  0
 20 21  1  0
 21 22  2  0
 22 23  1  0
 23 24  2  0
 24 25  1  0
 24 26  1  0
 26 27  2  0
 16 28  1  0
 28 29  1  0
  6 30  2  0
 30 31  1  0
 31  4  1  0
 29 13  1  0
 27 21  1  0
  1 32  1  0
  1 33  1  0
  1 34  1  0
  2 35  1  0
  2 36  1  0
  3 37  1  0
  3 38  1  0
  5 39  1  0
  7 40  1  0
  7 41  1  0
  8 42  1  0
  8 43  1  0
 10 44  1  0
 10 45  1  0
 11 46  1  0
 11 47  1  0
 12 48  1  0
 12 49  1  0
 14 50  1  0
 14 51  1  0
 15 52  1  0
 15 53  1  0
 17 54  1  0
 17 55  1  0
 22 56  1  0
 23 57  1  0
 26 58  1  0
 27 59  1  0
 28 60  1  0
 28 61  1  0
 29 62  1  0
 29 63  1  0
M  CHG  2   5   1  20  -1
M  END
>  <UniqueID>  (42) 
40

>  <SMILES>  (42) 
CCCc1[nH+]c(CCSCCCN2CCN(CC(=O)[N-]c3ccc(F)cc3)CC2)no1

>  <Energy>  (42) 
99.67137292524237

>  <Genealogy>  (42) 
CCCc1[nH+]c(CCSCCCN2CCN(CC(=O)[N-]c3ccc(F)cc3)CC2)no1 (protonated)
CCCc1[nH+]c(CCSCCCN2CCN(CC(=O)[N-]c3ccc(F)cc3)CC2)no1 (3D coordinates assigned)
CCCc1[nH+]c(CCSCCCN2CCN(CC(=O)[N-]c3ccc(F)cc3)CC2)no1 (nonaromatic ring conformer: 99.67137292524237 kcal/mol)

>  <smiles>  (42) 
CCCc1nc(CCSCCCN2CCN(CC(=O)Nc3ccc(F)cc3)CC2)no1

>  <score_type>  (42) 
oracle

>  <origin>  (42) 
adg

>  <m_score__min__energy>  (42) 
-9.0199999999999996

>  <m_primary>  (42) 
energy

$$$$
42:0
     RDKit          3D

 59 62  0  0  0  0  0  0  0  0999 V2000
   56.6030   25.5570   45.3230 C   0  0  0  0  0  0  0  0  0  0  0  0
   57.3790   26.5940   46.0740 C   0  0  0  0  0  0  0  0  0  0  0  0
   58.2480   26.2150   47.1070 C   0  0  0  0  0  0  0  0  0  0  0  0
   59.0070   27.1770   47.7780 C   0  0  0  0  0  0  0  0  0  0  0  0
   58.9180   28.5360   47.4220 C   0  0  0  0  0  0  0  0  0  0  0  0
   59.6990   29.5370   48.1140 N   0  0  0  0  0  0  0  0  0  0  0  0
   61.1130   29.7360   47.7600 C   0  0  0  0  0  0  0  0  0  0  0  0
   61.5990   31.1100   48.2310 C   0  0  0  0  0  0  0  0  0  0  0  0
   61.3910   31.2810   49.6880 N   0  0  0  0  0  0  0  0  0  0  0  0
   61.7440   32.6490   50.1440 C   0  0  0  0  0  0  0  0  0  0  0  0
   62.2380   33.6120   49.0280 C   0  0  0  0  0  0  0  0  0  0  0  0
   61.1770   33.9340   48.0550 N   0  0  0  0  0  0  0  0  0  0  0  0
   59.8600   34.3260   48.4960 C   0  0  0  0  0  0  0  0  0  0  0  0
   59.6180   34.5000   49.7210 O   0  0  0  0  0  0  0  0  0  0  0  0
   58.7690   34.6020   47.5020 C   0  0  0  0  0  0  0  0  0  0  0  0
   58.9940   33.8380   46.1770 C   0  0  0  0  0  0  0  0  0  0  0  0
   58.8310   32.3190   46.3580 C   0  0  0  0  0  0  0  0  0  0  0  0
   58.3710   31.7880   45.0100 C   0  0  0  0  0  0  0  0  0  0  0  0
   57.6170   32.9270   44.3430 C   0  0  0  0  0  0  0  0  0  0  0  0
   57.9090   34.1970   45.1480 C   0  0  0  0  0  0  0  0  0  0  0  0
   60.3980   34.1870   45.6240 C   0  0  0  0  0  0  0  0  0  0  0  0
   61.4810   33.9630   46.6430 C   0  0  0  0  0  0  0  0  0  0  0  0
   62.6710   33.8510   46.2480 O   0  0  0  0  0  0  0  0  0  0  0  0
   60.0550   30.8270   50.1860 C   0  0  0  0  0  0  0  0  0  0  0  0
   59.0680   30.4620   49.0670 C   0  0  0  0  0  0  0  0  0  0  0  0
   58.0590   28.9050   46.3710 C   0  0  0  0  0  0  0  0  0  0  0  0
   57.3000   27.9420   45.7010 C   0  0  0  0  0  0  0  0  0  0  0  0
   56.1013   24.8865   46.0363 H   0  0  0  0  0  0  0  0  0  0  0  0
   55.8497   26.0494   44.6905 H   0  0  0  0  0  0  0  0  0  0  0  0
   57.2879   24.9732   44.6905 H   0  0  0  0  0  0  0  0  0  0  0  0
   58.3325   25.1555   47.3904 H   0  0  0  0  0  0  0  0  0  0  0  0
   59.6802   26.8697   48.5918 H   0  0  0  0  0  0  0  0  0  0  0  0
   61.7193   28.9540   48.2404 H   0  0  0  0  0  0  0  0  0  0  0  0
   61.2159   29.6795   46.6663 H   0  0  0  0  0  0  0  0  0  0  0  0
   62.6717   31.2071   48.0078 H   0  0  0  0  0  0  0  0  0  0  0  0
   61.0217   31.8835   47.7034 H   0  0  0  0  0  0  0  0  0  0  0  0
   62.1010   30.6560   50.1430 H   0  0  0  0  0  0  0  0  0  0  0  0
   60.8511   33.0943   50.6070 H   0  0  0  0  0  0  0  0  0  0  0  0
   62.5874   32.5305   50.8402 H   0  0  0  0  0  0  0  0  0  0  0  0
   62.5849   34.5457   49.4947 H   0  0  0  0  0  0  0  0  0  0  0  0
   63.0507   33.1078   48.4845 H   0  0  0  0  0  0  0  0  0  0  0  0
   57.8065   34.2904   47.9338 H   0  0  0  0  0  0  0  0  0  0  0  0
   58.7722   35.6795   47.2806 H   0  0  0  0  0  0  0  0  0  0  0  0
   59.7903   31.8621   46.6425 H   0  0  0  0  0  0  0  0  0  0  0  0
   58.1100   32.0813   47.1541 H   0  0  0  0  0  0  0  0  0  0  0  0
   59.2376   31.4947   44.3994 H   0  0  0  0  0  0  0  0  0  0  0  0
   57.7350   30.8979   45.1246 H   0  0  0  0  0  0  0  0  0  0  0  0
   57.9618   33.0507   43.3058 H   0  0  0  0  0  0  0  0  0  0  0  0
   56.5370   32.7193   44.3199 H   0  0  0  0  0  0  0  0  0  0  0  0
   58.2704   34.9928   44.4801 H   0  0  0  0  0  0  0  0  0  0  0  0
   56.9998   34.5625   45.6477 H   0  0  0  0  0  0  0  0  0  0  0  0
   60.6005   33.5549   44.7468 H   0  0  0  0  0  0  0  0  0  0  0  0
   60.4005   35.2542   45.3572 H   0  0  0  0  0  0  0  0  0  0  0  0
   60.2040   29.9405   50.8199 H   0  0  0  0  0  0  0  0  0  0  0  0
   59.6154   31.6704   50.7387 H   0  0  0  0  0  0  0  0  0  0  0  0
   58.1817   29.9815   49.5069 H   0  0  0  0  0  0  0  0  0  0  0  0
   58.7736   31.3789   48.5354 H   0  0  0  0  0  0  0  0  0  0  0  0
   57.9841   29.9614   46.0738 H   0  0  0  0  0  0  0  0  0  0  0  0
   56.6372   28.2438   44.8766 H   0  0  0  0  0  0  0  0  0  0  0  0
  1  2  1  0
  2  3  2  0
  3  4  1  0
  4  5  2  0
  5  6  1  0
  6  7  1  0
  7  8  1  0
  8  9  1  0
  9 10  1  0
 10 11  1  0
 11 12  1  0
 12 13  1  0
 13 14  2  0
 13 15  1  0
 15 16  1  0
 16 17  1  0
 17 18  1  0
 18 19  1  0
 19 20  1  0
 16 21  1  0
 21 22  1  0
 22 23  2  0
  9 24  1  0
 24 25  1  0
  5 26  1  0
 26 27  2  0
 27  2  1  0
 25  6  1  0
 22 12  1  0
 20 16  1  0
  1 28  1  0
  1 29  1  0
  1 30  1  0
  3 31  1  0
  4 32  1  0
  7 33  1  0
  7 34  1  0
  8 35  1  0
  8 36  1  0
  9 37  1  0
 10 38  1  0
 10 39  1  0
 11 40  1  0
 11 41  1  0
 15 42  1  0
 15 43  1  0
 17 44  1  0
 17 45  1  0
 18 46  1  0
 18 47  1  0
 19 48  1  0
 19 49  1  0
 20 50  1  0
 20 51  1  0
 21 52  1  0
 21 53  1  0
 24 54  1  0
 24 55  1  0
 25 56  1  0
 25 57  1  0
 26 58  1  0
 27 59  1  0
M  CHG  1   9   1
M  END
>  <UniqueID>  (43) 
41

>  <SMILES>  (43) 
Cc1ccc(N2CC[NH+](CCN3C(=O)CC4(CCCC4)CC3=O)CC2)cc1

>  <Energy>  (43) 
75.18624631167138

>  <Genealogy>  (43) 
Cc1ccc(N2CC[NH+](CCN3C(=O)CC4(CCCC4)CC3=O)CC2)cc1 (protonated)
Cc1ccc(N2CC[NH+](CCN3C(=O)CC4(CCCC4)CC3=O)CC2)cc1 (3D coordinates assigned)
Cc1ccc(N2CC[NH+](CCN3C(=O)CC4(CCCC4)CC3=O)CC2)cc1 (nonaromatic ring conformer: 75.18624631167138 kcal/mol)

>  <smiles>  (43) 
Cc1ccc(N2CCN(CCN3C(=O)CC4(CCCC4)CC3=O)CC2)cc1

>  <score_type>  (43) 
oracle

>  <origin>  (43) 
adg

>  <m_score__min__energy>  (43) 
-7.0999999999999996

>  <m_primary>  (43) 
energy

$$$$
43:0
     RDKit          3D

 33 34  0  0  0  0  0  0  0  0999 V2000
   60.4220   30.5590   47.6780 C   0  0  0  0  0  0  0  0  0  0  0  0
   58.9890   30.6770   48.1710 C   0  0  0  0  0  0  0  0  0  0  0  0
   58.2000   31.3350   47.1840 O   0  0  0  0  0  0  0  0  0  0  0  0
   58.5640   32.5260   46.5310 C   0  0  0  0  0  0  0  0  0  0  0  0
   59.1370   33.6110   47.2260 C   0  0  0  0  0  0  0  0  0  0  0  0
   59.4750   34.7840   46.5510 C   0  0  0  0  0  0  0  0  0  0  0  0
   59.2430   34.8950   45.1780 C   0  0  0  0  0  0  0  0  0  0  0  0
   58.6740   33.8310   44.4770 C   0  0  0  0  0  0  0  0  0  0  0  0
   58.3380   32.6410   45.1460 C   0  0  0  0  0  0  0  0  0  0  0  0
   57.6000   31.3080   44.2480 S   0  0  0  0  0  0  0  0  0  0  0  0
   56.1250   31.2590   44.5380 O   0  0  0  0  0  0  0  0  0  0  0  0
   57.7920   31.5580   42.7780 O   0  0  0  0  0  0  0  0  0  0  0  0
   58.3120   29.7500   44.6840 C   0  0  0  0  0  0  0  0  0  0  0  0
   59.6870   29.5310   44.5150 C   0  0  0  0  0  0  0  0  0  0  0  0
   60.2420   28.3060   44.8830 C   0  0  0  0  0  0  0  0  0  0  0  0
   59.4310   27.3120   45.4210 C   0  0  0  0  0  0  0  0  0  0  0  0
   58.0670   27.5580   45.5820 C   0  0  0  0  0  0  0  0  0  0  0  0
   57.5290   28.7590   45.2150 N   0  0  0  0  0  0  0  0  0  0  0  0
   56.1760   28.9760   45.3860 O   0  0  0  0  0  0  0  0  0  0  0  0
   61.1029   30.5029   48.5401 H   0  0  0  0  0  0  0  0  0  0  0  0
   60.5264   29.6492   47.0686 H   0  0  0  0  0  0  0  0  0  0  0  0
   60.6738   31.4395   47.0686 H   0  0  0  0  0  0  0  0  0  0  0  0
   58.5812   29.6724   48.3566 H   0  0  0  0  0  0  0  0  0  0  0  0
   58.9690   31.2589   49.1043 H   0  0  0  0  0  0  0  0  0  0  0  0
   59.3187   33.5318   48.3080 H   0  0  0  0  0  0  0  0  0  0  0  0
   59.9252   35.6234   47.1011 H   0  0  0  0  0  0  0  0  0  0  0  0
   59.5091   35.8220   44.6489 H   0  0  0  0  0  0  0  0  0  0  0  0
   58.4876   33.9237   43.3969 H   0  0  0  0  0  0  0  0  0  0  0  0
   60.3247   30.3222   44.0940 H   0  0  0  0  0  0  0  0  0  0  0  0
   61.3188   28.1260   44.7482 H   0  0  0  0  0  0  0  0  0  0  0  0
   59.8601   26.3431   45.7161 H   0  0  0  0  0  0  0  0  0  0  0  0
   57.4190   26.7780   46.0082 H   0  0  0  0  0  0  0  0  0  0  0  0
   55.8280   29.7180   45.9840 H   0  0  0  0  0  0  0  0  0  0  0  0
  1  2  1  0
  2  3  1  0
  3  4  1  0
  4  5  2  0
  5  6  1  0
  6  7  2  0
  7  8  1  0
  8  9  2  0
  9 10  1  0
 10 11  2  0
 10 12  2  0
 10 13  1  0
 13 14  2  0
 14 15  1  0
 15 16  2  0
 16 17  1  0
 17 18  2  0
 18 19  1  0
  9  4  1  0
 18 13  1  0
  1 20  1  0
  1 21  1  0
  1 22  1  0
  2 23  1  0
  2 24  1  0
  5 25  1  0
  6 26  1  0
  7 27  1  0
  8 28  1  0
 14 29  1  0
 15 30  1  0
 16 31  1  0
 17 32  1  0
 19 33  1  0
M  CHG  1  18   1
M  END
>  <UniqueID>  (44) 
42

>  <SMILES>  (44) 
CCOc1ccccc1S(=O)(=O)c1cccc[n+]1O

>  <Energy>  (44) 
33.51652719962974

>  <Genealogy>  (44) 
CCOc1ccccc1S(=O)(=O)c1cccc[n+]1O (protonated)
CCOc1ccccc1S(=O)(=O)c1cccc[n+]1O (3D coordinates assigned)
CCOc1ccccc1S(=O)(=O)c1cccc[n+]1O (optimized conformer: 33.51652719962974 kcal/mol)

>  <smiles>  (44) 
CCOc1ccccc1S(=O)(=O)c1cccc[n+]1[O-]

>  <score_type>  (44) 
oracle

>  <origin>  (44) 
adg

>  <m_score__min__energy>  (44) 
-5.79

>  <m_primary>  (44) 
energy

$$$$
44:0
     RDKit          3D

 46 48  0  0  0  0  0  0  0  0999 V2000
   57.3460   31.5110   51.5790 C   0  0  0  0  0  0  0  0  0  0  0  0
   57.7520   30.6870   50.4930 O   0  0  0  0  0  0  0  0  0  0  0  0
   58.8910   29.8650   50.4960 C   0  0  0  0  0  0  0  0  0  0  0  0
   59.4400   29.3750   51.6990 C   0  0  0  0  0  0  0  0  0  0  0  0
   60.5510   28.5330   51.6800 C   0  0  0  0  0  0  0  0  0  0  0  0
   61.1210   28.1530   50.4680 C   0  0  0  0  0  0  0  0  0  0  0  0
   60.5950   28.6350   49.2680 C   0  0  0  0  0  0  0  0  0  0  0  0
   59.4960   29.5080   49.2670 C   0  0  0  0  0  0  0  0  0  0  0  0
   59.0250   30.0770   47.9490 C   0  0  0  0  0  0  0  0  0  0  0  0
   58.8300   31.5270   48.0520 N   0  0  0  0  0  0  0  0  0  0  0  0
   58.5680   32.3800   46.9200 C   0  0  0  0  0  0  0  0  0  0  0  0
   58.0520   31.8410   45.7240 C   0  0  0  0  0  0  0  0  0  0  0  0
   57.7450   32.6650   44.6400 C   0  0  0  0  0  0  0  0  0  0  0  0
   57.9640   34.0380   44.7250 C   0  0  0  0  0  0  0  0  0  0  0  0
   58.5100   34.5860   45.8840 C   0  0  0  0  0  0  0  0  0  0  0  0
   58.8280   33.7730   46.9780 C   0  0  0  0  0  0  0  0  0  0  0  0
   59.6470   34.5650   48.3740 S   0  0  0  0  0  0  0  0  0  0  0  0
   61.1750   33.6210   48.2550 C   0  0  0  0  0  0  0  0  0  0  0  0
   62.0590   33.8360   47.1880 C   0  0  0  0  0  0  0  0  0  0  0  0
   63.2370   33.0920   47.0900 C   0  0  0  0  0  0  0  0  0  0  0  0
   63.5280   32.1130   48.0410 C   0  0  0  0  0  0  0  0  0  0  0  0
   62.6410   31.8740   49.0940 C   0  0  0  0  0  0  0  0  0  0  0  0
   61.4540   32.6240   49.2090 C   0  0  0  0  0  0  0  0  0  0  0  0
   60.5250   32.3970   50.2390 O   0  0  0  0  0  0  0  0  0  0  0  0
   60.4510   33.1500   51.4450 C   0  0  0  0  0  0  0  0  0  0  0  0
   57.5913   31.0131   52.5287 H   0  0  0  0  0  0  0  0  0  0  0  0
   57.8720   32.4755   51.5241 H   0  0  0  0  0  0  0  0  0  0  0  0
   56.2607   31.6816   51.5241 H   0  0  0  0  0  0  0  0  0  0  0  0
   58.9878   29.6596   52.6605 H   0  0  0  0  0  0  0  0  0  0  0  0
   60.9785   28.1678   52.6254 H   0  0  0  0  0  0  0  0  0  0  0  0
   61.9856   27.4731   50.4559 H   0  0  0  0  0  0  0  0  0  0  0  0
   61.0466   28.3274   48.3133 H   0  0  0  0  0  0  0  0  0  0  0  0
   59.7783   29.8678   47.1752 H   0  0  0  0  0  0  0  0  0  0  0  0
   58.0658   29.6085   47.6834 H   0  0  0  0  0  0  0  0  0  0  0  0
   58.7920   31.9310   49.0170 H   0  0  0  0  0  0  0  0  0  0  0  0
   57.8890   30.7561   45.6439 H   0  0  0  0  0  0  0  0  0  0  0  0
   57.3302   32.2302   43.7187 H   0  0  0  0  0  0  0  0  0  0  0  0
   57.7059   34.6896   43.8772 H   0  0  0  0  0  0  0  0  0  0  0  0
   58.6931   35.6692   45.9397 H   0  0  0  0  0  0  0  0  0  0  0  0
   61.8239   34.5932   46.4255 H   0  0  0  0  0  0  0  0  0  0  0  0
   63.9366   33.2781   46.2618 H   0  0  0  0  0  0  0  0  0  0  0  0
   64.4567   31.5288   47.9616 H   0  0  0  0  0  0  0  0  0  0  0  0
   62.8708   31.0961   49.8370 H   0  0  0  0  0  0  0  0  0  0  0  0
   60.5179   32.4696   52.3068 H   0  0  0  0  0  0  0  0  0  0  0  0
   61.2828   33.8689   51.4800 H   0  0  0  0  0  0  0  0  0  0  0  0
   59.4951   33.6932   51.4800 H   0  0  0  0  0  0  0  0  0  0  0  0
  1  2  1  0
  2  3  1  0
  3  4  2  0
  4  5  1  0
  5  6  2  0
  6  7  1  0
  7  8  2  0
  8  9  1  0
  9 10  1  0
 10 11  1  0
 11 12  2  0
 12 13  1  0
 13 14  2  0
 14 15  1  0
 15 16  2  0
 16 17  1  0
 17 18  1  0
 18 19  2  0
 19 20  1  0
 20 21  2  0
 21 22  1  0
 22 23  2  0
 23 24  1  0
 24 25  1  0
  8  3  1  0
 16 11  1  0
 23 18  1  0
  1 26  1  0
  1 27  1  0
  1 28  1  0
  4 29  1  0
  5 30  1  0
  6 31  1  0
  7 32  1  0
  9 33  1  0
  9 34  1  0
 10 35  1  0
 12 36  1  0
 13 37  1  0
 14 38  1  0
 15 39  1  0
 19 40  1  0
 20 41  1  0
 21 42  1  0
 22 43  1  0
 25 44  1  0
 25 45  1  0
 25 46  1  0
M  END
>  <UniqueID>  (45) 
43

>  <SMILES>  (45) 
COc1ccccc1CNc1ccccc1Sc1ccccc1OC

>  <Energy>  (45) 
45.20671849567131

>  <Genealogy>  (45) 
COc1ccccc1CNc1ccccc1Sc1ccccc1OC (3D coordinates assigned)
COc1ccccc1CNc1ccccc1Sc1ccccc1OC (optimized conformer: 45.20671849567131 kcal/mol)

>  <smiles>  (45) 
COc1ccccc1CNc1ccccc1Sc1ccccc1OC

>  <score_type>  (45) 
oracle

>  <origin>  (45) 
adg

>  <m_score__min__energy>  (45) 
-7.7000000000000002

>  <m_primary>  (45) 
energy

$$$$
45:0
     RDKit          3D

 33 33  0  0  0  0  0  0  0  0999 V2000
   59.6670   35.3190   45.9890 C   0  0  0  0  0  0  0  0  0  0  0  0
   58.5070   34.3370   46.1590 C   0  0  0  0  0  0  0  0  0  0  0  0
   58.9740   32.8720   46.2940 C   0  0  0  0  0  0  0  0  0  0  0  0
   58.6470   32.0670   45.0940 N   0  0  0  0  0  0  0  0  0  0  0  0
   58.1360   32.9430   44.0250 C   0  0  0  0  0  0  0  0  0  0  0  0
   57.9940   32.1250   42.7520 C   0  0  0  0  0  0  0  0  0  0  0  0
   57.0850   30.9640   42.9960 C   0  0  0  0  0  0  0  0  0  0  0  0
   56.9320   30.4120   44.2150 C   0  0  0  0  0  0  0  0  0  0  0  0
   55.8450   29.3970   44.3970 C   0  0  0  0  0  0  0  0  0  0  0  0
   54.7590   29.5590   43.7750 O   0  0  0  0  0  0  0  0  0  0  0  0
   55.9400   28.2430   45.2490 N   0  0  0  0  0  0  0  0  0  0  0  0
   57.1270   27.4990   45.6430 C   0  0  0  0  0  0  0  0  0  0  0  0
   57.9730   27.2080   44.4110 C   0  0  0  0  0  0  0  0  0  0  0  0
   57.6940   30.9720   45.4130 C   0  0  0  0  0  0  0  0  0  0  0  0
   60.0331   35.6289   46.9789 H   0  0  0  0  0  0  0  0  0  0  0  0
   60.4814   34.8317   45.4329 H   0  0  0  0  0  0  0  0  0  0  0  0
   59.3208   36.2027   45.4329 H   0  0  0  0  0  0  0  0  0  0  0  0
   57.9452   34.6110   47.0642 H   0  0  0  0  0  0  0  0  0  0  0  0
   57.8842   34.4026   45.2546 H   0  0  0  0  0  0  0  0  0  0  0  0
   60.0639   32.8600   46.4423 H   0  0  0  0  0  0  0  0  0  0  0  0
   58.4480   32.4278   47.1519 H   0  0  0  0  0  0  0  0  0  0  0  0
   57.1558   33.3488   44.3157 H   0  0  0  0  0  0  0  0  0  0  0  0
   58.8329   33.7777   43.8588 H   0  0  0  0  0  0  0  0  0  0  0  0
   57.5733   32.7575   41.9564 H   0  0  0  0  0  0  0  0  0  0  0  0
   58.9833   31.7541   42.4459 H   0  0  0  0  0  0  0  0  0  0  0  0
   56.5207   30.5453   42.1497 H   0  0  0  0  0  0  0  0  0  0  0  0
   57.7130   28.0947   46.3583 H   0  0  0  0  0  0  0  0  0  0  0  0
   56.8273   26.5518   46.1152 H   0  0  0  0  0  0  0  0  0  0  0  0
   58.9703   26.8650   44.7237 H   0  0  0  0  0  0  0  0  0  0  0  0
   57.4878   26.4251   43.8096 H   0  0  0  0  0  0  0  0  0  0  0  0
   58.0721   28.1237   43.8096 H   0  0  0  0  0  0  0  0  0  0  0  0
   56.9592   31.3583   46.1347 H   0  0  0  0  0  0  0  0  0  0  0  0
   58.2991   30.1426   45.8080 H   0  0  0  0  0  0  0  0  0  0  0  0
  1  2  1  0
  2  3  1  0
  3  4  1  0
  4  5  1  0
  5  6  1  0
  6  7  1  0
  7  8  2  0
  8  9  1  0
  9 10  2  0
  9 11  1  0
 11 12  1  0
 12 13  1  0
  8 14  1  0
 14  4  1  0
  1 15  1  0
  1 16  1  0
  1 17  1  0
  2 18  1  0
  2 19  1  0
  3 20  1  0
  3 21  1  0
  5 22  1  0
  5 23  1  0
  6 24  1  0
  6 25  1  0
  7 26  1  0
 12 27  1  0
 12 28  1  0
 13 29  1  0
 13 30  1  0
 13 31  1  0
 14 32  1  0
 14 33  1  0
M  CHG  1  11  -1
M  END
>  <UniqueID>  (46) 
44

>  <SMILES>  (46) 
CCCN1CCC=C(C(=O)[N-]CC)C1

>  <Energy>  (46) 
35.0264666470404

>  <Genealogy>  (46) 
CCCN1CCC=C(C(=O)[N-]CC)C1 (protonated)
CCCN1CCC=C(C(=O)[N-]CC)C1 (3D coordinates assigned)
CCCN1CCC=C(C(=O)[N-]CC)C1 (nonaromatic ring conformer: 35.0264666470404 kcal/mol)

>  <smiles>  (46) 
CCCN1CCC=C(C(=O)NCC)C1

>  <score_type>  (46) 
oracle

>  <origin>  (46) 
adg

>  <m_score__min__energy>  (46) 
-8.0299999999999994

>  <m_primary>  (46) 
energy

$$$$
46:0
     RDKit          3D

 35 37  0  0  0  0  0  0  0  0999 V2000
   54.8000   24.9140   45.6220 C   0  0  0  0  0  0  0  0  0  0  0  0
   55.0190   26.3120   45.7850 O   0  0  0  0  0  0  0  0  0  0  0  0
   56.2630   26.8930   46.0830 C   0  0  0  0  0  0  0  0  0  0  0  0
   57.2400   26.2170   46.8380 C   0  0  0  0  0  0  0  0  0  0  0  0
   58.4690   26.8230   47.1100 C   0  0  0  0  0  0  0  0  0  0  0  0
   59.3940   26.1720   47.8610 N   0  0  0  0  0  0  0  0  0  0  0  0
   60.5900   26.7440   48.1510 C   0  0  0  0  0  0  0  0  0  0  0  0
   60.8860   27.9810   47.6760 N   0  0  0  0  0  0  0  0  0  0  0  0
   60.0080   28.6750   46.9050 C   0  0  0  0  0  0  0  0  0  0  0  0
   60.3880   29.9370   46.4310 O   0  0  0  0  0  0  0  0  0  0  0  0
   59.8520   31.1520   46.8870 C   0  0  0  0  0  0  0  0  0  0  0  0
   60.1060   31.6450   48.1830 C   0  0  0  0  0  0  0  0  0  0  0  0
   59.5560   32.8650   48.5900 C   0  0  0  0  0  0  0  0  0  0  0  0
   58.7470   33.5950   47.7180 C   0  0  0  0  0  0  0  0  0  0  0  0
   58.4810   33.1060   46.4350 C   0  0  0  0  0  0  0  0  0  0  0  0
   57.3710   34.1040   45.2420 Br  0  0  0  0  0  0  0  0  0  0  0  0
   59.0300   31.8860   46.0240 C   0  0  0  0  0  0  0  0  0  0  0  0
   58.7460   28.1150   46.6170 C   0  0  0  0  0  0  0  0  0  0  0  0
   57.7600   28.8000   45.8870 C   0  0  0  0  0  0  0  0  0  0  0  0
   56.5220   28.1880   45.6080 C   0  0  0  0  0  0  0  0  0  0  0  0
   55.5250   28.8350   44.8620 O   0  0  0  0  0  0  0  0  0  0  0  0
   55.7760   29.7580   43.8060 C   0  0  0  0  0  0  0  0  0  0  0  0
   54.7253   24.4369   46.6103 H   0  0  0  0  0  0  0  0  0  0  0  0
   53.8655   24.7518   45.0649 H   0  0  0  0  0  0  0  0  0  0  0  0
   55.6401   24.4737   45.0649 H   0  0  0  0  0  0  0  0  0  0  0  0
   57.0344   25.2048   47.2164 H   0  0  0  0  0  0  0  0  0  0  0  0
   61.3206   26.2047   48.7718 H   0  0  0  0  0  0  0  0  0  0  0  0
   60.7378   31.0693   48.8754 H   0  0  0  0  0  0  0  0  0  0  0  0
   59.7616   33.2499   49.5997 H   0  0  0  0  0  0  0  0  0  0  0  0
   58.3183   34.5555   48.0400 H   0  0  0  0  0  0  0  0  0  0  0  0
   58.8141   31.5015   45.0163 H   0  0  0  0  0  0  0  0  0  0  0  0
   57.9562   29.8220   45.5306 H   0  0  0  0  0  0  0  0  0  0  0  0
   56.0423   30.7372   44.2305 H   0  0  0  0  0  0  0  0  0  0  0  0
   56.6064   29.3890   43.1861 H   0  0  0  0  0  0  0  0  0  0  0  0
   54.8731   29.8604   43.1861 H   0  0  0  0  0  0  0  0  0  0  0  0
  1  2  1  0
  2  3  1  0
  3  4  2  0
  4  5  1  0
  5  6  2  0
  6  7  1  0
  7  8  2  0
  8  9  1  0
  9 10  1  0
 10 11  1  0
 11 12  2  0
 12 13  1  0
 13 14  2  0
 14 15  1  0
 15 16  1  0
 15 17  2  0
  9 18  2  0
 18 19  1  0
 19 20  2  0
 20 21  1  0
 21 22  1  0
 20  3  1  0
 18  5  1  0
 17 11  1  0
  1 23  1  0
  1 24  1  0
  1 25  1  0
  4 26  1  0
  7 27  1  0
 12 28  1  0
 13 29  1  0
 14 30  1  0
 17 31  1  0
 19 32  1  0
 22 33  1  0
 22 34  1  0
 22 35  1  0
M  END
>  <UniqueID>  (47) 
45

>  <SMILES>  (47) 
COc1cc2ncnc(Oc3cccc(Br)c3)c2cc1OC

>  <Energy>  (47) 
49.03087514766514

>  <Genealogy>  (47) 
COc1cc2ncnc(Oc3cccc(Br)c3)c2cc1OC (3D coordinates assigned)
COc1cc2ncnc(Oc3cccc(Br)c3)c2cc1OC (optimized conformer: 49.03087514766514 kcal/mol)

>  <smiles>  (47) 
COc1cc2ncnc(Oc3cccc(Br)c3)c2cc1OC

>  <score_type>  (47) 
oracle

>  <origin>  (47) 
adg

>  <m_score__min__energy>  (47) 
-7.1699999999999999

>  <m_primary>  (47) 
energy

$$$$
