0:0
     RDKit          3D

 51 53  0  0  0  0  0  0  0  0999 V2000
   65.9480   32.6570   50.2070 C   0  0  0  0  0  0  0  0  0  0  0  0
   64.9510   31.9990   49.4310 O   0  0  0  0  0  0  0  0  0  0  0  0
   63.8270   32.6250   48.8710 C   0  0  0  0  0  0  0  0  0  0  0  0
   63.7660   32.9020   47.4730 C   0  0  0  0  0  0  0  0  0  0  0  0
   62.6460   33.5290   46.9080 C   0  0  0  0  0  0  0  0  0  0  0  0
   61.5960   33.8640   47.7560 C   0  0  0  0  0  0  0  0  0  0  0  0
   61.6380   33.6120   49.0940 C   0  0  0  0  0  0  0  0  0  0  0  0
   60.5140   34.0570   49.6900 N   0  0  0  0  0  0  0  0  0  0  0  0
   59.8020   34.5820   48.6590 C   0  0  0  0  0  0  0  0  0  0  0  0
   60.4330   34.4690   47.4660 N   0  0  0  0  0  0  0  0  0  0  0  0
   59.9810   34.9960   46.1780 C   0  0  0  0  0  0  0  0  0  0  0  0
   59.1870   33.9220   45.4220 C   0  0  0  0  0  0  0  0  0  0  0  0
   57.9510   33.4180   46.2090 C   0  0  0  0  0  0  0  0  0  0  0  0
   58.2330   32.1740   47.0780 C   0  0  0  0  0  0  0  0  0  0  0  0
   58.4700   30.9140   46.2380 C   0  0  0  0  0  0  0  0  0  0  0  0
   57.3860   30.7230   45.2590 N   0  0  0  0  0  0  0  0  0  0  0  0
   56.9930   29.3950   44.8470 C   0  0  0  0  0  0  0  0  0  0  0  0
   56.5850   29.1970   43.6690 O   0  0  0  0  0  0  0  0  0  0  0  0
   57.0630   28.2200   45.7800 C   0  0  0  0  0  0  0  0  0  0  0  0
   55.8930   27.3670   45.6030 N   0  0  0  0  0  0  0  0  0  0  0  0
   57.0090   31.8680   44.4160 C   0  0  0  0  0  0  0  0  0  0  0  0
   56.7690   33.1210   45.2670 C   0  0  0  0  0  0  0  0  0  0  0  0
   62.7300   32.9940   49.7060 C   0  0  0  0  0  0  0  0  0  0  0  0
   62.6730   32.7810   51.0940 O   0  0  0  0  0  0  0  0  0  0  0  0
   61.8470   31.8350   51.7640 C   0  0  0  0  0  0  0  0  0  0  0  0
   65.7331   32.5152   51.2764 H   0  0  0  0  0  0  0  0  0  0  0  0
   66.9351   32.2324   49.9719 H   0  0  0  0  0  0  0  0  0  0  0  0
   65.9457   33.7316   49.9719 H   0  0  0  0  0  0  0  0  0  0  0  0
   64.6109   32.6193   46.8279 H   0  0  0  0  0  0  0  0  0  0  0  0
   62.5997   33.7483   45.8311 H   0  0  0  0  0  0  0  0  0  0  0  0
   58.8143   35.0508   48.7807 H   0  0  0  0  0  0  0  0  0  0  0  0
   59.3382   35.8723   46.3481 H   0  0  0  0  0  0  0  0  0  0  0  0
   60.8566   35.2868   45.5791 H   0  0  0  0  0  0  0  0  0  0  0  0
   58.8452   34.3462   44.4664 H   0  0  0  0  0  0  0  0  0  0  0  0
   59.8559   33.0616   45.2729 H   0  0  0  0  0  0  0  0  0  0  0  0
   57.6904   34.2419   46.8896 H   0  0  0  0  0  0  0  0  0  0  0  0
   59.1282   32.3651   47.6880 H   0  0  0  0  0  0  0  0  0  0  0  0
   57.3472   31.9962   47.7054 H   0  0  0  0  0  0  0  0  0  0  0  0
   59.4257   31.0128   45.7024 H   0  0  0  0  0  0  0  0  0  0  0  0
   58.4941   30.0433   46.9098 H   0  0  0  0  0  0  0  0  0  0  0  0
   57.9722   27.6391   45.5655 H   0  0  0  0  0  0  0  0  0  0  0  0
   57.0875   28.5857   46.8172 H   0  0  0  0  0  0  0  0  0  0  0  0
   56.1610   26.5670   44.9840 H   0  0  0  0  0  0  0  0  0  0  0  0
   55.1740   27.9180   45.0790 H   0  0  0  0  0  0  0  0  0  0  0  0
   57.8190   32.0694   43.6995 H   0  0  0  0  0  0  0  0  0  0  0  0
   56.0778   31.6210   43.8852 H   0  0  0  0  0  0  0  0  0  0  0  0
   56.6242   33.9818   44.5976 H   0  0  0  0  0  0  0  0  0  0  0  0
   55.8783   32.9430   45.8875 H   0  0  0  0  0  0  0  0  0  0  0  0
   61.9553   31.9590   52.8516 H   0  0  0  0  0  0  0  0  0  0  0  0
   60.7971   31.9982   51.4791 H   0  0  0  0  0  0  0  0  0  0  0  0
   62.1502   30.8167   51.4791 H   0  0  0  0  0  0  0  0  0  0  0  0
  1  2  1  0
  2  3  1  0
  3  4  2  0
  4  5  1  0
  5  6  2  0
  6  7  1  0
  7  8  1  0
  8  9  2  0
  9 10  1  0
 10 11  1  0
 11 12  1  0
 12 13  1  0
 13 14  1  0
 14 15  1  0
 15 16  1  0
 16 17  1  0
 17 18  2  0
 17 19  1  0
 19 20  1  0
 16 21  1  0
 21 22  1  0
  7 23  2  0
 23 24  1  0
 24 25  1  0
 23  3  1  0
 10  6  1  0
 22 13  1  0
  1 26  1  0
  1 27  1  0
  1 28  1  0
  4 29  1  0
  5 30  1  0
  9 31  1  0
 11 32  1  0
 11 33  1  0
 12 34  1  0
 12 35  1  0
 13 36  1  0
 14 37  1  0
 14 38  1  0
 15 39  1  0
 15 40  1  0
 19 41  1  0
 19 42  1  0
 20 43  1  0
 20 44  1  0
 21 45  1  0
 21 46  1  0
 22 47  1  0
 22 48  1  0
 25 49  1  0
 25 50  1  0
 25 51  1  0
M  END
>  <UniqueID>  (1) 
1

>  <SMILES>  (1) 
COc1ccc2c(ncn2CCC2CCN(C(=O)CN)CC2)c1OC

>  <Energy>  (1) 
83.47807188542905

>  <Genealogy>  (1) 
COc1ccc2c(ncn2CCC2CCN(C(=O)CN)CC2)c1OC (3D coordinates assigned)
COc1ccc2c(ncn2CCC2CCN(C(=O)CN)CC2)c1OC (nonaromatic ring conformer: 83.47807188542905 kcal/mol)

>  <smiles>  (1) 
COc1ccc2c(ncn2CCC2CCN(C(=O)CN)CC2)c1OC

>  <score_type>  (1) 
oracle

>  <origin>  (1) 
adg

>  <m_score__min__energy>  (1) 
-8.3100000000000005

>  <m_primary>  (1) 
energy

$$$$
1:0
     RDKit          3D

 49 50  0  0  1  0  0  0  0  0999 V2000
   55.5940   29.8770   44.0160 C   0  0  0  0  0  0  0  0  0  0  0  0
   56.3250   30.0840   42.7210 C   0  0  0  0  0  0  0  0  0  0  0  0
   57.2180   31.2320   42.7650 N   0  0  0  0  0  0  0  0  0  0  0  0
   57.3980   31.9990   41.5390 C   0  0  0  0  0  0  0  0  0  0  0  0
   57.8720   31.5600   43.9840 C   0  0  0  0  0  0  0  0  0  0  0  0
   57.7560   32.8490   44.4250 N   0  0  0  0  0  0  0  0  0  0  0  0
   58.3580   33.1900   45.5750 C   0  0  0  0  0  0  0  0  0  0  0  0
   59.0860   32.2240   46.2870 C   0  0  0  0  0  0  0  0  0  0  0  0
   59.1790   30.9470   45.8130 C   0  0  0  0  0  0  0  0  0  0  0  0
   59.8370   30.0780   46.4560 N   0  0  0  0  0  0  0  0  0  0  0  0
   59.3810   28.7990   46.8460 C   0  0  0  0  0  0  0  0  0  0  0  0
   59.2530   27.8380   45.6800 C   0  0  0  0  0  0  0  0  0  0  0  0
   58.0000   27.7780   45.0430 N   0  0  0  0  0  0  0  0  0  0  0  0
   56.9860   27.0010   45.7020 C   0  0  0  0  0  0  0  0  0  0  0  0
   58.1590   27.2780   43.6940 C   0  0  0  0  0  0  0  0  0  0  0  0
   58.5650   30.6420   44.6620 N   0  0  0  0  0  0  0  0  0  0  0  0
   59.7040   32.7070   47.5460 C   0  0  0  0  0  0  0  0  0  0  0  0
   60.4060   33.9180   47.2600 N   0  0  0  0  0  0  0  0  0  0  0  0
   61.7000   33.7950   46.6990 C   0  0  0  0  0  0  0  0  0  0  0  0
   59.5760   34.9660   46.8530 C   0  0  0  0  0  0  0  0  0  0  0  0
   58.3240   34.5350   46.1750 C   0  0  0  0  0  0  0  0  0  0  0  0
   56.2762   30.0702   44.8570 H   0  0  0  0  0  0  0  0  0  0  0  0
   54.7404   30.5688   44.0699 H   0  0  0  0  0  0  0  0  0  0  0  0
   55.2299   28.8404   44.0699 H   0  0  0  0  0  0  0  0  0  0  0  0
   56.9178   29.1836   42.5022 H   0  0  0  0  0  0  0  0  0  0  0  0
   55.5747   30.2727   41.9390 H   0  0  0  0  0  0  0  0  0  0  0  0
   57.6426   33.0414   41.7912 H   0  0  0  0  0  0  0  0  0  0  0  0
   58.2180   31.5621   40.9502 H   0  0  0  0  0  0  0  0  0  0  0  0
   56.4692   31.9725   40.9502 H   0  0  0  0  0  0  0  0  0  0  0  0
   60.0932   28.3784   47.5711 H   0  0  0  0  0  0  0  0  0  0  0  0
   58.3791   28.9243   47.2823 H   0  0  0  0  0  0  0  0  0  0  0  0
   59.9970   28.1304   44.9244 H   0  0  0  0  0  0  0  0  0  0  0  0
   59.4045   26.8381   46.1127 H   0  0  0  0  0  0  0  0  0  0  0  0
   57.1047   27.0920   46.7918 H   0  0  0  0  0  0  0  0  0  0  0  0
   55.9924   27.3711   45.4093 H   0  0  0  0  0  0  0  0  0  0  0  0
   57.0849   25.9453   45.4093 H   0  0  0  0  0  0  0  0  0  0  0  0
   58.4922   26.2302   43.7282 H   0  0  0  0  0  0  0  0  0  0  0  0
   57.1969   27.3397   43.1643 H   0  0  0  0  0  0  0  0  0  0  0  0
   58.9087   27.8841   43.1643 H   0  0  0  0  0  0  0  0  0  0  0  0
   58.6160   29.6900   44.2820 H   0  0  0  0  0  0  0  0  0  0  0  0
   58.9221   32.8975   48.2959 H   0  0  0  0  0  0  0  0  0  0  0  0
   60.3958   31.9508   47.9454 H   0  0  0  0  0  0  0  0  0  0  0  0
   62.4443   33.7243   47.5059 H   0  0  0  0  0  0  0  0  0  0  0  0
   61.7456   32.8885   46.0776 H   0  0  0  0  0  0  0  0  0  0  0  0
   61.9156   34.6767   46.0776 H   0  0  0  0  0  0  0  0  0  0  0  0
   59.3007   35.5513   47.7427 H   0  0  0  0  0  0  0  0  0  0  0  0
   60.1469   35.5478   46.1144 H   0  0  0  0  0  0  0  0  0  0  0  0
   57.5126   34.5544   46.9175 H   0  0  0  0  0  0  0  0  0  0  0  0
   58.1771   35.2348   45.3391 H   0  0  0  0  0  0  0  0  0  0  0  0
  1  2  1  0
  2  3  1  0
  3  4  1  0
  3  5  1  0
  5  6  2  0
  6  7  1  0
  7  8  2  0
  8  9  1  0
  9 10  2  0
 10 11  1  0
 11 12  1  0
 12 13  1  0
 13 14  1  0
 13 15  1  0
  9 16  1  0
  8 17  1  0
 17 18  1  0
 18 19  1  0
 18 20  1  0
 20 21  1  0
 16  5  1  0
 21  7  1  0
  1 22  1  0
  1 23  1  0
  1 24  1  0
  2 25  1  0
  2 26  1  0
  4 27  1  0
  4 28  1  0
  4 29  1  0
 11 30  1  0
 11 31  1  0
 12 32  1  0
 12 33  1  0
 14 34  1  0
 14 35  1  0
 14 36  1  0
 15 37  1  0
 15 38  1  0
 15 39  1  0
 16 40  1  0
 17 41  1  0
 17 42  1  0
 19 43  1  0
 19 44  1  0
 19 45  1  0
 20 46  1  0
 20 47  1  0
 21 48  1  0
 21 49  1  0
M  END
>  <smiles>  (2) 
CCN(C)c1nc2c(c(=NCCN(C)C)[nH]1)CN(C)CC2

>  <score_type>  (2) 
oracle

>  <origin>  (2) 
adg

>  <m_score__min__energy>  (2) 
-5.7699999999999996

>  <m_primary>  (2) 
energy

$$$$
2:0
     RDKit          3D

 53 55  0  0  0  0  0  0  0  0999 V2000
   58.1280   26.7850   44.3060 C   0  0  0  0  0  0  0  0  0  0  0  0
   58.6660   28.0680   44.8400 C   0  0  0  0  0  0  0  0  0  0  0  0
   58.8170   29.1920   44.1190 N   0  0  0  0  0  0  0  0  0  0  0  0
   59.2900   30.1220   44.9290 N   0  0  0  0  0  0  0  0  0  0  0  0
   59.4080   29.5250   46.1350 C   0  0  0  0  0  0  0  0  0  0  0  0
   59.8860   30.2000   47.3560 C   0  0  0  0  0  0  0  0  0  0  0  0
   59.0330   30.3730   48.4580 C   0  0  0  0  0  0  0  0  0  0  0  0
   59.4990   30.9950   49.6180 C   0  0  0  0  0  0  0  0  0  0  0  0
   60.8240   31.4280   49.6980 C   0  0  0  0  0  0  0  0  0  0  0  0
   61.7010   31.2350   48.6170 C   0  0  0  0  0  0  0  0  0  0  0  0
   63.1460   31.6650   48.7220 C   0  0  0  0  0  0  0  0  0  0  0  0
   63.3950   33.0880   48.3850 N   0  0  0  0  0  0  0  0  0  0  0  0
   62.7350   34.1000   49.2170 C   0  0  0  0  0  0  0  0  0  0  0  0
   61.2950   34.3890   48.7850 C   0  0  0  0  0  0  0  0  0  0  0  0
   61.0270   34.1460   47.3570 N   0  0  0  0  0  0  0  0  0  0  0  0
   59.6670   34.2640   46.8950 C   0  0  0  0  0  0  0  0  0  0  0  0
   58.7550   34.5940   47.7010 O   0  0  0  0  0  0  0  0  0  0  0  0
   59.3680   33.9960   45.5490 O   0  0  0  0  0  0  0  0  0  0  0  0
   58.1340   33.4700   45.0390 C   0  0  0  0  0  0  0  0  0  0  0  0
   58.3570   32.7760   43.6820 C   0  0  0  0  0  0  0  0  0  0  0  0
   57.0800   34.5870   44.9130 C   0  0  0  0  0  0  0  0  0  0  0  0
   57.6320   32.4290   46.0520 C   0  0  0  0  0  0  0  0  0  0  0  0
   62.0490   33.7490   46.3730 C   0  0  0  0  0  0  0  0  0  0  0  0
   63.4380   33.4640   46.9670 C   0  0  0  0  0  0  0  0  0  0  0  0
   61.2110   30.6570   47.4350 C   0  0  0  0  0  0  0  0  0  0  0  0
   59.0250   28.2660   46.0840 O   0  0  0  0  0  0  0  0  0  0  0  0
   57.8519   26.1266   45.1428 H   0  0  0  0  0  0  0  0  0  0  0  0
   57.2392   26.9880   43.6905 H   0  0  0  0  0  0  0  0  0  0  0  0
   58.8957   26.2934   43.6905 H   0  0  0  0  0  0  0  0  0  0  0  0
   58.6030   29.3310   43.1070 H   0  0  0  0  0  0  0  0  0  0  0  0
   57.9934   30.0170   48.4072 H   0  0  0  0  0  0  0  0  0  0  0  0
   58.8206   31.1443   50.4709 H   0  0  0  0  0  0  0  0  0  0  0  0
   61.1834   31.9229   50.6123 H   0  0  0  0  0  0  0  0  0  0  0  0
   63.4801   31.4942   49.7560 H   0  0  0  0  0  0  0  0  0  0  0  0
   63.7021   31.0688   47.9836 H   0  0  0  0  0  0  0  0  0  0  0  0
   62.7232   33.7437   50.2576 H   0  0  0  0  0  0  0  0  0  0  0  0
   63.3035   35.0353   49.1074 H   0  0  0  0  0  0  0  0  0  0  0  0
   60.6237   33.7476   49.3749 H   0  0  0  0  0  0  0  0  0  0  0  0
   61.1250   35.4620   48.9579 H   0  0  0  0  0  0  0  0  0  0  0  0
   58.6896   31.7410   43.8498 H   0  0  0  0  0  0  0  0  0  0  0  0
   57.4152   32.7710   43.1136 H   0  0  0  0  0  0  0  0  0  0  0  0
   59.1254   33.3205   43.1136 H   0  0  0  0  0  0  0  0  0  0  0  0
   56.7710   34.9145   45.9166 H   0  0  0  0  0  0  0  0  0  0  0  0
   57.5115   35.4383   44.3662 H   0  0  0  0  0  0  0  0  0  0  0  0
   56.2051   34.2056   44.3662 H   0  0  0  0  0  0  0  0  0  0  0  0
   57.8092   32.7964   47.0736 H   0  0  0  0  0  0  0  0  0  0  0  0
   56.5548   32.2629   45.9037 H   0  0  0  0  0  0  0  0  0  0  0  0
   58.1728   31.4826   45.9037 H   0  0  0  0  0  0  0  0  0  0  0  0
   61.7000   32.8375   45.8656 H   0  0  0  0  0  0  0  0  0  0  0  0
   62.1724   34.6040   45.6920 H   0  0  0  0  0  0  0  0  0  0  0  0
   63.8980   32.6406   46.4009 H   0  0  0  0  0  0  0  0  0  0  0  0
   64.0218   34.3934   46.8931 H   0  0  0  0  0  0  0  0  0  0  0  0
   61.8725   30.5612   46.5614 H   0  0  0  0  0  0  0  0  0  0  0  0
  1  2  1  0
  2  3  2  0
  3  4  1  0
  4  5  2  0
  5  6  1  0
  6  7  2  0
  7  8  1  0
  8  9  2  0
  9 10  1  0
 10 11  1  0
 11 12  1  0
 12 13  1  0
 13 14  1  0
 14 15  1  0
 15 16  1  0
 16 17  2  0
 16 18  1  0
 18 19  1  0
 19 20  1  0
 19 21  1  0
 19 22  1  0
 15 23  1  0
 23 24  1  0
 10 25  2  0
  5 26  1  0
 26  2  1  0
 25  6  1  0
 24 12  1  0
  1 27  1  0
  1 28  1  0
  1 29  1  0
  3 30  1  0
  7 31  1  0
  8 32  1  0
  9 33  1  0
 11 34  1  0
 11 35  1  0
 13 36  1  0
 13 37  1  0
 14 38  1  0
 14 39  1  0
 20 40  1  0
 20 41  1  0
 20 42  1  0
 21 43  1  0
 21 44  1  0
 21 45  1  0
 22 46  1  0
 22 47  1  0
 22 48  1  0
 23 49  1  0
 23 50  1  0
 24 51  1  0
 24 52  1  0
 25 53  1  0
M  CHG  1   3   1
M  END
>  <UniqueID>  (3) 
2

>  <SMILES>  (3) 
Cc1[nH+]nc(-c2cccc(CN3CCN(C(=O)OC(C)(C)C)CC3)c2)o1

>  <Energy>  (3) 
91.11879477856029

>  <Genealogy>  (3) 
Cc1[nH+]nc(-c2cccc(CN3CCN(C(=O)OC(C)(C)C)CC3)c2)o1 (protonated)
Cc1[nH+]nc(-c2cccc(CN3CCN(C(=O)OC(C)(C)C)CC3)c2)o1 (3D coordinates assigned)
Cc1[nH+]nc(-c2cccc(CN3CCN(C(=O)OC(C)(C)C)CC3)c2)o1 (nonaromatic ring conformer: 91.11879477856029 kcal/mol)

>  <smiles>  (3) 
Cc1nnc(-c2cccc(CN3CCN(C(=O)OC(C)(C)C)CC3)c2)o1

>  <score_type>  (3) 
oracle

>  <origin>  (3) 
adg

>  <m_score__min__energy>  (3) 
-7.3499999999999996

>  <m_primary>  (3) 
energy

$$$$
3:0
     RDKit          3D

 46 48  0  0  0  0  0  0  0  0999 V2000
   57.0280   28.4930   45.6050 C   0  0  0  0  0  0  0  0  0  0  0  0
   55.8750   29.1980   45.1970 O   0  0  0  0  0  0  0  0  0  0  0  0
   56.0470   29.6970   43.8840 C   0  0  0  0  0  0  0  0  0  0  0  0
   56.7810   31.0010   43.9120 C   0  0  0  0  0  0  0  0  0  0  0  0
   57.4190   31.5930   42.8380 C   0  0  0  0  0  0  0  0  0  0  0  0
   57.9820   32.7510   43.3280 C   0  0  0  0  0  0  0  0  0  0  0  0
   57.6530   32.7870   44.6710 C   0  0  0  0  0  0  0  0  0  0  0  0
   58.0640   33.8450   45.6470 C   0  0  0  0  0  0  0  0  0  0  0  0
   59.4900   33.7010   46.0150 N   0  0  0  0  0  0  0  0  0  0  0  0
   59.8630   34.4190   47.2530 C   0  0  0  0  0  0  0  0  0  0  0  0
   59.1570   33.8610   48.5000 C   0  0  0  0  0  0  0  0  0  0  0  0
   59.1070   32.3540   48.5100 C   0  0  0  0  0  0  0  0  0  0  0  0
   58.6870   31.6950   49.6710 C   0  0  0  0  0  0  0  0  0  0  0  0
   58.5760   30.3020   49.7190 C   0  0  0  0  0  0  0  0  0  0  0  0
   58.1470   29.7450   50.9380 O   0  0  0  0  0  0  0  0  0  0  0  0
   57.6230   30.4540   52.0540 C   0  0  0  0  0  0  0  0  0  0  0  0
   58.8940   29.5400   48.5660 C   0  0  0  0  0  0  0  0  0  0  0  0
   58.8010   28.1390   48.6020 O   0  0  0  0  0  0  0  0  0  0  0  0
   59.6400   27.2450   47.8770 C   0  0  0  0  0  0  0  0  0  0  0  0
   59.3040   30.2090   47.3940 C   0  0  0  0  0  0  0  0  0  0  0  0
   59.3910   31.6060   47.3540 C   0  0  0  0  0  0  0  0  0  0  0  0
   59.8930   32.2830   46.0990 C   0  0  0  0  0  0  0  0  0  0  0  0
   56.9400   31.7310   44.9920 O   0  0  0  0  0  0  0  0  0  0  0  0
   57.0718   28.4662   46.7038 H   0  0  0  0  0  0  0  0  0  0  0  0
   56.9868   27.4655   45.2146 H   0  0  0  0  0  0  0  0  0  0  0  0
   57.9239   28.9980   45.2146 H   0  0  0  0  0  0  0  0  0  0  0  0
   56.6229   28.9698   43.2927 H   0  0  0  0  0  0  0  0  0  0  0  0
   55.0574   29.8549   43.4304 H   0  0  0  0  0  0  0  0  0  0  0  0
   57.4672   31.2171   41.8054 H   0  0  0  0  0  0  0  0  0  0  0  0
   58.5706   33.4925   42.7679 H   0  0  0  0  0  0  0  0  0  0  0  0
   57.9079   34.8343   45.1922 H   0  0  0  0  0  0  0  0  0  0  0  0
   57.4546   33.7389   46.5566 H   0  0  0  0  0  0  0  0  0  0  0  0
   60.9502   34.3320   47.3960 H   0  0  0  0  0  0  0  0  0  0  0  0
   59.5499   35.4670   47.1357 H   0  0  0  0  0  0  0  0  0  0  0  0
   59.6992   34.2018   49.3944 H   0  0  0  0  0  0  0  0  0  0  0  0
   58.1206   34.2295   48.4901 H   0  0  0  0  0  0  0  0  0  0  0  0
   58.4388   32.2857   50.5651 H   0  0  0  0  0  0  0  0  0  0  0  0
   57.9716   29.9823   52.9846 H   0  0  0  0  0  0  0  0  0  0  0  0
   57.9684   31.4978   52.0203 H   0  0  0  0  0  0  0  0  0  0  0  0
   56.5238   30.4302   52.0203 H   0  0  0  0  0  0  0  0  0  0  0  0
   60.2172   26.6299   48.5831 H   0  0  0  0  0  0  0  0  0  0  0  0
   59.0205   26.5927   47.2440 H   0  0  0  0  0  0  0  0  0  0  0  0
   60.3303   27.8219   47.2440 H   0  0  0  0  0  0  0  0  0  0  0  0
   59.5593   29.6245   46.4978 H   0  0  0  0  0  0  0  0  0  0  0  0
   60.9915   32.2282   46.0852 H   0  0  0  0  0  0  0  0  0  0  0  0
   59.4482   31.7602   45.2394 H   0  0  0  0  0  0  0  0  0  0  0  0
  1  2  1  0
  2  3  1  0
  3  4  1  0
  4  5  2  0
  5  6  1  0
  6  7  2  0
  7  8  1  0
  8  9  1  0
  9 10  1  0
 10 11  1  0
 11 12  1  0
 12 13  2  0
 13 14  1  0
 14 15  1  0
 15 16  1  0
 14 17  2  0
 17 18  1  0
 18 19  1  0
 17 20  1  0
 20 21  2  0
 21 22  1  0
  7 23  1  0
 23  4  1  0
 22  9  1  0
 21 12  1  0
  1 24  1  0
  1 25  1  0
  1 26  1  0
  3 27  1  0
  3 28  1  0
  5 29  1  0
  6 30  1  0
  8 31  1  0
  8 32  1  0
 10 33  1  0
 10 34  1  0
 11 35  1  0
 11 36  1  0
 13 37  1  0
 16 38  1  0
 16 39  1  0
 16 40  1  0
 19 41  1  0
 19 42  1  0
 19 43  1  0
 20 44  1  0
 22 45  1  0
 22 46  1  0
M  END
>  <UniqueID>  (4) 
3

>  <SMILES>  (4) 
COCc1ccc(CN2CCc3cc(OC)c(OC)cc3C2)o1

>  <Energy>  (4) 
80.66145818422517

>  <Genealogy>  (4) 
COCc1ccc(CN2CCc3cc(OC)c(OC)cc3C2)o1 (3D coordinates assigned)
COCc1ccc(CN2CCc3cc(OC)c(OC)cc3C2)o1 (nonaromatic ring conformer: 80.66145818422517 kcal/mol)

>  <smiles>  (4) 
COCc1ccc(CN2CCc3cc(OC)c(OC)cc3C2)o1

>  <score_type>  (4) 
oracle

>  <origin>  (4) 
adg

>  <m_score__min__energy>  (4) 
-7.0700000000000003

>  <m_primary>  (4) 
energy

$$$$
4:0
     RDKit          3D

 39 39  0  0  0  0  0  0  0  0999 V2000
   57.3259   29.7893   42.2696 H   0  0  0  0  0  0  0  0  0  0  0  0
   56.9970   30.3790   43.1380 C   0  0  0  0  0  0  0  0  0  0  0  0
   55.9910   29.7760   44.0300 C   0  0  0  0  0  0  0  0  0  0  0  0
   54.7810   29.7010   43.6770 O   0  0  0  0  0  0  0  0  0  0  0  0
   56.4050   29.2500   45.2580 O   0  0  0  0  0  0  0  0  0  0  0  0
   57.0100   27.9640   45.3920 C   0  0  0  0  0  0  0  0  0  0  0  0
   57.7106   27.8103   44.5580 H   0  0  0  0  0  0  0  0  0  0  0  0
   56.2133   27.2056   45.3801 H   0  0  0  0  0  0  0  0  0  0  0  0
   57.7750   27.8360   46.7150 C   0  0  0  0  0  0  0  0  0  0  0  0
   57.5926   26.8392   47.1430 H   0  0  0  0  0  0  0  0  0  0  0  0
   57.4229   28.6170   47.4050 H   0  0  0  0  0  0  0  0  0  0  0  0
   59.2300   28.0130   46.4960 N   0  0  0  0  0  0  0  0  0  0  0  0
   60.0160   26.9120   47.1040 C   0  0  0  0  0  0  0  0  0  0  0  0
   60.9416   26.7751   46.5257 H   0  0  0  0  0  0  0  0  0  0  0  0
   59.3972   26.0027   47.0859 H   0  0  0  0  0  0  0  0  0  0  0  0
   60.3820   27.2050   48.5590 C   0  0  0  0  0  0  0  0  0  0  0  0
   59.6992   26.6584   49.2261 H   0  0  0  0  0  0  0  0  0  0  0  0
   61.4164   26.8826   48.7490 H   0  0  0  0  0  0  0  0  0  0  0  0
   60.2938   28.2849   48.7490 H   0  0  0  0  0  0  0  0  0  0  0  0
   59.5550   28.2640   45.0690 C   0  0  0  0  0  0  0  0  0  0  0  0
   59.5098   27.3060   44.5304 H   0  0  0  0  0  0  0  0  0  0  0  0
   58.8195   28.9935   44.6989 H   0  0  0  0  0  0  0  0  0  0  0  0
   60.9440   28.8800   44.8430 C   0  0  0  0  0  0  0  0  0  0  0  0
   61.4150   29.0889   45.8149 H   0  0  0  0  0  0  0  0  0  0  0  0
   61.5699   28.1751   44.2762 H   0  0  0  0  0  0  0  0  0  0  0  0
   60.8417   29.8171   44.2762 H   0  0  0  0  0  0  0  0  0  0  0  0
   57.5420   31.5940   43.3060 C   0  0  0  0  0  0  0  0  0  0  0  0
   57.7745   32.1757   42.4018 H   0  0  0  0  0  0  0  0  0  0  0  0
   57.8540   32.2110   44.6140 C   0  0  0  0  0  0  0  0  0  0  0  0
   57.7190   33.5990   44.7710 C   0  0  0  0  0  0  0  0  0  0  0  0
   57.3582   34.2123   43.9321 H   0  0  0  0  0  0  0  0  0  0  0  0
   58.0410   34.2060   45.9890 C   0  0  0  0  0  0  0  0  0  0  0  0
   57.9180   35.2924   46.1103 H   0  0  0  0  0  0  0  0  0  0  0  0
   58.5190   33.4350   47.0530 C   0  0  0  0  0  0  0  0  0  0  0  0
   58.7626   33.9129   48.0134 H   0  0  0  0  0  0  0  0  0  0  0  0
   58.6870   32.0560   46.8950 C   0  0  0  0  0  0  0  0  0  0  0  0
   59.3560   30.9990   48.3400 Br  0  0  0  0  0  0  0  0  0  0  0  0
   58.3700   31.4480   45.6770 C   0  0  0  0  0  0  0  0  0  0  0  0
   58.5250   30.3665   45.5490 H   0  0  0  0  0  0  0  0  0  0  0  0
  1  2  1  0
  2  3  1  0
  3  4  2  0
  3  5  1  0
  5  6  1  0
  6  7  1  0
  6  8  1  0
  6  9  1  0
  9 10  1  0
  9 11  1  0
  9 12  1  0
 12 13  1  0
 13 14  1  0
 13 15  1  0
 13 16  1  0
 16 17  1  0
 16 18  1  0
 16 19  1  0
 12 20  1  0
 20 21  1  0
 20 22  1  0
 20 23  1  0
 23 24  1  0
 23 25  1  0
 23 26  1  0
  2 27  2  0
 27 28  1  0
 27 29  1  0
 29 30  2  0
 30 31  1  0
 30 32  1  0
 32 33  1  0
 32 34  2  0
 34 35  1  0
 34 36  1  0
 36 37  1  0
 36 38  2  0
 38 39  1  0
 38 29  1  0
M  END
>  <UniqueID>  (5) 
4

>  <SMILES>  (5) 
CCN(CC)CCOC(=O)/C=C\c1cccc(Br)c1

>  <Energy>  (5) 
41.77373459258354

>  <Genealogy>  (5) 
CCN(CC)CCOC(=O)/C=C\c1cccc(Br)c1 (cis-trans isomerization)
CCN(CC)CCOC(=O)/C=C\c1cccc(Br)c1 (3D coordinates assigned)
CCN(CC)CCOC(=O)/C=C\c1cccc(Br)c1 (optimized conformer: 41.77373459258354 kcal/mol)

>  <smiles>  (5) 
CCN(CC)CCOC(=O)C=Cc1cccc(Br)c1

>  <score_type>  (5) 
oracle

>  <origin>  (5) 
adg

>  <m_score__min__energy>  (5) 
-6.5099999999999998

>  <m_primary>  (5) 
energy

$$$$
5:0
     RDKit          3D

 31 33  0  0  0  0  0  0  0  0999 V2000
   59.7610   34.9960   46.7600 C   0  0  0  0  0  0  0  0  0  0  0  0
   59.2770   33.8990   47.3480 C   0  0  0  0  0  0  0  0  0  0  0  0
   57.8670   33.4350   47.1130 C   0  0  0  0  0  0  0  0  0  0  0  0
   57.7960   32.5920   45.9160 N   0  0  0  0  0  0  0  0  0  0  0  0
   57.7520   31.2650   46.0770 N   0  0  0  0  0  0  0  0  0  0  0  0
   57.7090   30.4050   45.0230 C   0  0  0  0  0  0  0  0  0  0  0  0
   57.6620   28.9530   45.2620 C   0  0  0  0  0  0  0  0  0  0  0  0
   58.7570   28.0930   45.2280 C   0  0  0  0  0  0  0  0  0  0  0  0
   58.2260   26.8550   45.5070 C   0  0  0  0  0  0  0  0  0  0  0  0
   58.8310   25.6040   45.6110 C   0  0  0  0  0  0  0  0  0  0  0  0
   58.0090   24.5040   45.9140 C   0  0  0  0  0  0  0  0  0  0  0  0
   56.6180   24.6800   46.1020 C   0  0  0  0  0  0  0  0  0  0  0  0
   56.0400   25.9580   45.9910 C   0  0  0  0  0  0  0  0  0  0  0  0
   56.8800   27.0280   45.6900 C   0  0  0  0  0  0  0  0  0  0  0  0
   56.5530   28.2870   45.5410 O   0  0  0  0  0  0  0  0  0  0  0  0
   57.7130   30.9220   43.7260 C   0  0  0  0  0  0  0  0  0  0  0  0
   57.7660   32.3000   43.5440 C   0  0  0  0  0  0  0  0  0  0  0  0
   57.8120   33.1370   44.6590 C   0  0  0  0  0  0  0  0  0  0  0  0
   57.8700   34.3860   44.4960 O   0  0  0  0  0  0  0  0  0  0  0  0
   60.7974   35.3109   46.9514 H   0  0  0  0  0  0  0  0  0  0  0  0
   59.1232   35.5847   46.0842 H   0  0  0  0  0  0  0  0  0  0  0  0
   59.9267   33.3205   48.0212 H   0  0  0  0  0  0  0  0  0  0  0  0
   57.5267   32.8559   47.9841 H   0  0  0  0  0  0  0  0  0  0  0  0
   57.2230   34.3147   46.9669 H   0  0  0  0  0  0  0  0  0  0  0  0
   59.8079   28.3462   45.0243 H   0  0  0  0  0  0  0  0  0  0  0  0
   59.9138   25.4812   45.4613 H   0  0  0  0  0  0  0  0  0  0  0  0
   58.4503   23.5006   46.0054 H   0  0  0  0  0  0  0  0  0  0  0  0
   55.9842   23.8121   46.3365 H   0  0  0  0  0  0  0  0  0  0  0  0
   54.9600   26.1075   46.1371 H   0  0  0  0  0  0  0  0  0  0  0  0
   57.6747   30.2473   42.8581 H   0  0  0  0  0  0  0  0  0  0  0  0
   57.7716   32.7259   42.5298 H   0  0  0  0  0  0  0  0  0  0  0  0
  1  2  2  0
  2  3  1  0
  3  4  1  0
  4  5  1  0
  5  6  2  0
  6  7  1  0
  7  8  2  0
  8  9  1  0
  9 10  2  0
 10 11  1  0
 11 12  2  0
 12 13  1  0
 13 14  2  0
 14 15  1  0
  6 16  1  0
 16 17  2  0
 17 18  1  0
 18 19  2  0
 18  4  1  0
 15  7  1  0
 14  9  1  0
  1 20  1  0
  1 21  1  0
  2 22  1  0
  3 23  1  0
  3 24  1  0
  8 25  1  0
 10 26  1  0
 11 27  1  0
 12 28  1  0
 13 29  1  0
 16 30  1  0
 17 31  1  0
M  END
>  <UniqueID>  (6) 
5

>  <SMILES>  (6) 
C=CCn1nc(-c2cc3ccccc3o2)ccc1=O

>  <Energy>  (6) 
65.16583858522397

>  <Genealogy>  (6) 
C=CCn1nc(-c2cc3ccccc3o2)ccc1=O (3D coordinates assigned)
C=CCn1nc(-c2cc3ccccc3o2)ccc1=O (optimized conformer: 65.16583858522397 kcal/mol)

>  <smiles>  (6) 
C=CCn1nc(-c2cc3ccccc3o2)ccc1=O

>  <score_type>  (6) 
oracle

>  <origin>  (6) 
adg

>  <m_score__min__energy>  (6) 
-6.5499999999999998

>  <m_primary>  (6) 
energy

$$$$
6:0
     RDKit          3D

 49 51  0  0  0  0  0  0  0  0999 V2000
   58.1430   32.5550   41.3240 C   0  0  0  0  0  0  0  0  0  0  0  0
   57.0470   31.6160   41.8320 C   0  0  0  0  0  0  0  0  0  0  0  0
   57.0350   31.5380   43.3120 N   0  0  0  0  0  0  0  0  0  0  0  0
   57.1420   30.1310   43.7690 C   0  0  0  0  0  0  0  0  0  0  0  0
   55.8510   29.6680   44.4420 C   0  0  0  0  0  0  0  0  0  0  0  0
   58.1060   32.3880   43.9000 C   0  0  0  0  0  0  0  0  0  0  0  0
   57.5260   33.3490   44.9460 C   0  0  0  0  0  0  0  0  0  0  0  0
   57.9130   32.9770   46.3120 N   0  0  0  0  0  0  0  0  0  0  0  0
   58.9110   31.9880   46.6200 C   0  0  0  0  0  0  0  0  0  0  0  0
   58.5430   30.6350   46.5510 C   0  0  0  0  0  0  0  0  0  0  0  0
   59.4810   29.6240   46.7670 C   0  0  0  0  0  0  0  0  0  0  0  0
   59.0680   28.1980   46.7100 C   0  0  0  0  0  0  0  0  0  0  0  0
   57.7730   27.7120   46.5310 C   0  0  0  0  0  0  0  0  0  0  0  0
   57.6970   26.3130   46.5150 C   0  0  0  0  0  0  0  0  0  0  0  0
   58.9220   25.6830   46.6800 C   0  0  0  0  0  0  0  0  0  0  0  0
   60.0980   26.8690   46.8480 S   0  0  0  0  0  0  0  0  0  0  0  0
   60.7720   29.9620   47.0280 N   0  0  0  0  0  0  0  0  0  0  0  0
   61.1850   31.2560   47.1000 C   0  0  0  0  0  0  0  0  0  0  0  0
   62.4940   31.5070   47.3610 N   0  0  0  0  0  0  0  0  0  0  0  0
   62.9860   32.7610   47.4600 C   0  0  0  0  0  0  0  0  0  0  0  0
   62.1430   33.8510   47.3150 C   0  0  0  0  0  0  0  0  0  0  0  0
   60.7730   33.6640   47.0660 C   0  0  0  0  0  0  0  0  0  0  0  0
   59.9340   34.9150   46.9760 C   0  0  0  0  0  0  0  0  0  0  0  0
   60.2670   32.3300   46.9140 C   0  0  0  0  0  0  0  0  0  0  0  0
   58.6671   33.0041   42.1805 H   0  0  0  0  0  0  0  0  0  0  0  0
   58.8593   31.9860   40.7131 H   0  0  0  0  0  0  0  0  0  0  0  0
   57.6906   33.3501   40.7131 H   0  0  0  0  0  0  0  0  0  0  0  0
   56.0709   31.9875   41.4866 H   0  0  0  0  0  0  0  0  0  0  0  0
   57.2477   30.6092   41.4370 H   0  0  0  0  0  0  0  0  0  0  0  0
   57.3451   29.4865   42.9010 H   0  0  0  0  0  0  0  0  0  0  0  0
   57.9596   30.0645   44.5019 H   0  0  0  0  0  0  0  0  0  0  0  0
   55.9712   29.7111   45.5346 H   0  0  0  0  0  0  0  0  0  0  0  0
   55.0229   30.3252   44.1380 H   0  0  0  0  0  0  0  0  0  0  0  0
   55.6293   28.6343   44.1380 H   0  0  0  0  0  0  0  0  0  0  0  0
   58.8561   31.7423   44.3801 H   0  0  0  0  0  0  0  0  0  0  0  0
   58.5683   32.9793   43.0958 H   0  0  0  0  0  0  0  0  0  0  0  0
   57.8937   34.3645   44.7372 H   0  0  0  0  0  0  0  0  0  0  0  0
   56.4291   33.3003   44.8795 H   0  0  0  0  0  0  0  0  0  0  0  0
   57.5730   33.5880   47.0860 H   0  0  0  0  0  0  0  0  0  0  0  0
   57.5005   30.3677   46.3235 H   0  0  0  0  0  0  0  0  0  0  0  0
   56.8953   28.3646   46.4136 H   0  0  0  0  0  0  0  0  0  0  0  0
   56.7526   25.7645   46.3837 H   0  0  0  0  0  0  0  0  0  0  0  0
   59.0928   24.5965   46.6976 H   0  0  0  0  0  0  0  0  0  0  0  0
   61.4810   29.2150   47.2030 H   0  0  0  0  0  0  0  0  0  0  0  0
   64.0571   32.9171   47.6560 H   0  0  0  0  0  0  0  0  0  0  0  0
   62.5493   34.8701   47.3954 H   0  0  0  0  0  0  0  0  0  0  0  0
   59.6957   35.2703   47.9894 H   0  0  0  0  0  0  0  0  0  0  0  0
   60.4933   35.6936   46.4365 H   0  0  0  0  0  0  0  0  0  0  0  0
   59.0014   34.6930   46.4365 H   0  0  0  0  0  0  0  0  0  0  0  0
  1  2  1  0
  2  3  1  0
  3  4  1  0
  4  5  1  0
  3  6  1  0
  6  7  1  0
  7  8  1  0
  8  9  1  0
  9 10  2  0
 10 11  1  0
 11 12  1  0
 12 13  2  0
 13 14  1  0
 14 15  2  0
 15 16  1  0
 11 17  2  0
 17 18  1  0
 18 19  2  0
 19 20  1  0
 20 21  2  0
 21 22  1  0
 22 23  1  0
 22 24  2  0
 24  9  1  0
 16 12  1  0
 24 18  1  0
  1 25  1  0
  1 26  1  0
  1 27  1  0
  2 28  1  0
  2 29  1  0
  4 30  1  0
  4 31  1  0
  5 32  1  0
  5 33  1  0
  5 34  1  0
  6 35  1  0
  6 36  1  0
  7 37  1  0
  7 38  1  0
  8 39  1  0
 10 40  1  0
 13 41  1  0
 14 42  1  0
 15 43  1  0
 17 44  1  0
 20 45  1  0
 21 46  1  0
 23 47  1  0
 23 48  1  0
 23 49  1  0
M  CHG  1  17   1
M  END
>  <UniqueID>  (7) 
6

>  <SMILES>  (7) 
CCN(CC)CCNc1cc(-c2cccs2)[nH+]c2nccc(C)c12

>  <Energy>  (7) 
88.71619713490729

>  <Genealogy>  (7) 
CCN(CC)CCNc1cc(-c2cccs2)[nH+]c2nccc(C)c12 (protonated)
CCN(CC)CCNc1cc(-c2cccs2)[nH+]c2nccc(C)c12 (3D coordinates assigned)
CCN(CC)CCNc1cc(-c2cccs2)[nH+]c2nccc(C)c12 (optimized conformer: 88.71619713490729 kcal/mol)

>  <smiles>  (7) 
CCN(CC)CCNc1cc(-c2cccs2)nc2nccc(C)c12

>  <score_type>  (7) 
oracle

>  <origin>  (7) 
adg

>  <m_score__min__energy>  (7) 
-5.8399999999999999

>  <m_primary>  (7) 
energy

$$$$
7:0
     RDKit          3D

 37 38  0  0  0  0  0  0  0  0999 V2000
   57.8960   31.5540   43.2300 C   0  0  0  0  0  0  0  0  0  0  0  0
   57.6030   31.3170   44.6640 N   0  0  0  0  0  0  0  0  0  0  0  0
   57.0850   32.5640   45.2780 C   0  0  0  0  0  0  0  0  0  0  0  0
   58.8650   30.9470   45.3470 C   0  0  0  0  0  0  0  0  0  0  0  0
   56.6310   30.1960   44.8340 C   0  0  0  0  0  0  0  0  0  0  0  0
   57.2650   28.8290   44.8180 C   0  0  0  0  0  0  0  0  0  0  0  0
   57.7480   28.3740   43.7460 O   0  0  0  0  0  0  0  0  0  0  0  0
   57.2730   28.0390   46.0120 N   0  0  0  0  0  0  0  0  0  0  0  0
   57.1880   26.6050   46.0530 C   0  0  0  0  0  0  0  0  0  0  0  0
   58.3670   25.8440   46.0030 C   0  0  0  0  0  0  0  0  0  0  0  0
   59.6510   26.5050   45.9320 C   0  0  0  0  0  0  0  0  0  0  0  0
   60.6790   27.0340   45.8750 N   0  0  0  0  0  0  0  0  0  0  0  0
   58.3010   24.4820   46.0410 N   0  0  0  0  0  0  0  0  0  0  0  0
   59.4700   23.7490   46.0090 O   0  0  0  0  0  0  0  0  0  0  0  0
   57.0950   23.8430   46.1120 C   0  0  0  0  0  0  0  0  0  0  0  0
   57.0180   22.4370   46.1560 C   0  0  0  0  0  0  0  0  0  0  0  0
   55.7780   21.7980   46.2130 C   0  0  0  0  0  0  0  0  0  0  0  0
   55.7170   20.4440   46.2560 F   0  0  0  0  0  0  0  0  0  0  0  0
   54.6020   22.5510   46.2260 C   0  0  0  0  0  0  0  0  0  0  0  0
   53.3980   21.9270   46.2810 F   0  0  0  0  0  0  0  0  0  0  0  0
   54.6600   23.9460   46.1820 C   0  0  0  0  0  0  0  0  0  0  0  0
   55.9030   24.6060   46.1280 C   0  0  0  0  0  0  0  0  0  0  0  0
   55.9760   25.9710   46.0840 N   0  0  0  0  0  0  0  0  0  0  0  0
   54.8180   26.7130   46.0020 O   0  0  0  0  0  0  0  0  0  0  0  0
   58.7483   32.2434   43.1390 H   0  0  0  0  0  0  0  0  0  0  0  0
   58.1434   30.5989   42.7436 H   0  0  0  0  0  0  0  0  0  0  0  0
   57.0137   31.9955   42.7436 H   0  0  0  0  0  0  0  0  0  0  0  0
   57.1216   32.4758   46.3738 H   0  0  0  0  0  0  0  0  0  0  0  0
   57.7040   33.4150   44.9577 H   0  0  0  0  0  0  0  0  0  0  0  0
   56.0452   32.7259   44.9577 H   0  0  0  0  0  0  0  0  0  0  0  0
   58.7186   30.9899   46.4364 H   0  0  0  0  0  0  0  0  0  0  0  0
   59.1539   29.9263   45.0558 H   0  0  0  0  0  0  0  0  0  0  0  0
   59.6593   31.6501   45.0558 H   0  0  0  0  0  0  0  0  0  0  0  0
   56.1160   30.3275   45.7971 H   0  0  0  0  0  0  0  0  0  0  0  0
   55.9426   30.2382   43.9771 H   0  0  0  0  0  0  0  0  0  0  0  0
   57.9410   21.8387   46.1454 H   0  0  0  0  0  0  0  0  0  0  0  0
   53.7294   24.5325   46.1896 H   0  0  0  0  0  0  0  0  0  0  0  0
  1  2  1  0
  2  3  1  0
  2  4  1  0
  2  5  1  0
  5  6  1  0
  6  7  2  0
  6  8  1  0
  8  9  1  0
  9 10  2  0
 10 11  1  0
 11 12  3  0
 10 13  1  0
 13 14  1  0
 13 15  2  0
 15 16  1  0
 16 17  2  0
 17 18  1  0
 17 19  1  0
 19 20  1  0
 19 21  2  0
 21 22  1  0
 22 23  2  0
 23 24  1  0
 23  9  1  0
 22 15  1  0
  1 25  1  0
  1 26  1  0
  1 27  1  0
  3 28  1  0
  3 29  1  0
  3 30  1  0
  4 31  1  0
  4 32  1  0
  4 33  1  0
  5 34  1  0
  5 35  1  0
 16 36  1  0
 21 37  1  0
M  CHG  6   2   1   8  -1  13   1  14  -1  23   1  24  -1
M  END
>  <UniqueID>  (8) 
7

>  <SMILES>  (8) 
C[N+](C)(C)CC(=O)[N-]c1c(C#N)[n+]([O-])c2cc(F)c(F)cc2[n+]1[O-]

>  <Energy>  (8) 
54.14375015556936

>  <Genealogy>  (8) 
C[N+](C)(C)CC(=O)[N-]c1c(C#N)[n+]([O-])c2cc(F)c(F)cc2[n+]1[O-] (protonated)
C[N+](C)(C)CC(=O)[N-]c1c(C#N)[n+]([O-])c2cc(F)c(F)cc2[n+]1[O-] (3D coordinates assigned)
C[N+](C)(C)CC(=O)[N-]c1c(C#N)[n+]([O-])c2cc(F)c(F)cc2[n+]1[O-] (optimized conformer: 54.14375015556936 kcal/mol)

>  <smiles>  (8) 
C[N+](C)(C)CC(=O)Nc1c(C#N)[n+]([O-])c2cc(F)c(F)cc2[n+]1[O-]

>  <score_type>  (8) 
oracle

>  <origin>  (8) 
adg

>  <m_score__min__energy>  (8) 
-7.21

>  <m_primary>  (8) 
energy

$$$$
8:0
     RDKit          3D

 43 45  0  0  0  0  0  0  0  0999 V2000
   61.6544   35.2141   46.6019 H   0  0  0  0  0  0  0  0  0  0  0  0
   61.2340   34.1980   46.5720 C   0  0  0  0  0  0  0  0  0  0  0  0
   62.0600   33.1680   46.7920 C   0  0  0  0  0  0  0  0  0  0  0  0
   62.9764   33.0842   46.1894 H   0  0  0  0  0  0  0  0  0  0  0  0
   61.7830   32.1380   47.8180 C   0  0  0  0  0  0  0  0  0  0  0  0
   61.1020   30.9810   47.6170 N   0  0  0  0  0  0  0  0  0  0  0  0
   60.5260   30.4480   46.3810 C   0  0  0  0  0  0  0  0  0  0  0  0
   60.3825   31.2698   45.6641 H   0  0  0  0  0  0  0  0  0  0  0  0
   61.2120   29.6969   45.9623 H   0  0  0  0  0  0  0  0  0  0  0  0
   59.1750   29.7840   46.6650 C   0  0  0  0  0  0  0  0  0  0  0  0
   59.3277   28.7059   46.8209 H   0  0  0  0  0  0  0  0  0  0  0  0
   58.7378   30.2404   47.5653 H   0  0  0  0  0  0  0  0  0  0  0  0
   58.2320   29.9880   45.5110 C   0  0  0  0  0  0  0  0  0  0  0  0
   57.0320   29.2600   45.4410 C   0  0  0  0  0  0  0  0  0  0  0  0
   56.7953   28.5176   46.2174 H   0  0  0  0  0  0  0  0  0  0  0  0
   56.1380   29.4760   44.3880 C   0  0  0  0  0  0  0  0  0  0  0  0
   55.2032   28.8987   44.3337 H   0  0  0  0  0  0  0  0  0  0  0  0
   56.4310   30.4250   43.4040 C   0  0  0  0  0  0  0  0  0  0  0  0
   55.7278   30.5919   42.5748 H   0  0  0  0  0  0  0  0  0  0  0  0
   57.6170   31.1620   43.4730 C   0  0  0  0  0  0  0  0  0  0  0  0
   57.8449   31.9105   42.6998 H   0  0  0  0  0  0  0  0  0  0  0  0
   58.5140   30.9480   44.5250 C   0  0  0  0  0  0  0  0  0  0  0  0
   59.4435   31.5336   44.5803 H   0  0  0  0  0  0  0  0  0  0  0  0
   61.1560   30.3200   48.7920 C   0  0  0  0  0  0  0  0  0  0  0  0
   60.7004   29.3401   48.9975 H   0  0  0  0  0  0  0  0  0  0  0  0
   61.8760   31.0750   49.6920 C   0  0  0  0  0  0  0  0  0  0  0  0
   62.0962   30.7984   50.7336 H   0  0  0  0  0  0  0  0  0  0  0  0
   62.2640   32.2090   49.0790 N   0  0  0  0  0  0  0  0  0  0  0  0
   63.1040   33.2560   49.6540 C   0  0  0  0  0  0  0  0  0  0  0  0
   63.0594   33.2004   50.7517 H   0  0  0  0  0  0  0  0  0  0  0  0
   64.1432   33.1161   49.3217 H   0  0  0  0  0  0  0  0  0  0  0  0
   62.7421   34.2402   49.3217 H   0  0  0  0  0  0  0  0  0  0  0  0
   59.7840   34.0500   46.2900 C   0  0  0  0  0  0  0  0  0  0  0  0
   59.2110   34.3870   45.0460 C   0  0  0  0  0  0  0  0  0  0  0  0
   59.8486   34.7696   44.2354 H   0  0  0  0  0  0  0  0  0  0  0  0
   57.8350   34.2370   44.8380 C   0  0  0  0  0  0  0  0  0  0  0  0
   57.3958   34.4982   43.8639 H   0  0  0  0  0  0  0  0  0  0  0  0
   57.0190   33.7570   45.8630 C   0  0  0  0  0  0  0  0  0  0  0  0
   55.9392   33.6329   45.6938 H   0  0  0  0  0  0  0  0  0  0  0  0
   57.5730   33.4340   47.1040 C   0  0  0  0  0  0  0  0  0  0  0  0
   56.9279   33.0611   47.9132 H   0  0  0  0  0  0  0  0  0  0  0  0
   58.9460   33.5840   47.3190 C   0  0  0  0  0  0  0  0  0  0  0  0
   59.3746   33.3355   48.3011 H   0  0  0  0  0  0  0  0  0  0  0  0
  1  2  1  0
  2  3  2  0
  3  4  1  0
  3  5  1  0
  5  6  1  0
  6  7  1  0
  7  8  1  0
  7  9  1  0
  7 10  1  0
 10 11  1  0
 10 12  1  0
 10 13  1  0
 13 14  2  0
 14 15  1  0
 14 16  1  0
 16 17  1  0
 16 18  2  0
 18 19  1  0
 18 20  1  0
 20 21  1  0
 20 22  2  0
 22 23  1  0
  6 24  1  0
 24 25  1  0
 24 26  2  0
 26 27  1  0
 26 28  1  0
 28 29  1  0
 29 30  1  0
 29 31  1  0
 29 32  1  0
  2 33  1  0
 33 34  2  0
 34 35  1  0
 34 36  1  0
 36 37  1  0
 36 38  2  0
 38 39  1  0
 38 40  1  0
 40 41  1  0
 40 42  2  0
 42 43  1  0
 28  5  2  0
 42 33  1  0
 22 13  1  0
M  CHG  1  28   1
M  END
>  <UniqueID>  (9) 
8

>  <SMILES>  (9) 
C[n+]1ccn(CCc2ccccc2)c1/C=C/c1ccccc1

>  <Energy>  (9) 
78.33032738196518

>  <Genealogy>  (9) 
C[n+]1ccn(CCc2ccccc2)c1/C=C/c1ccccc1 (cis-trans isomerization)
C[n+]1ccn(CCc2ccccc2)c1/C=C/c1ccccc1 (3D coordinates assigned)
C[n+]1ccn(CCc2ccccc2)c1/C=C/c1ccccc1 (optimized conformer: 78.33032738196518 kcal/mol)

>  <smiles>  (9) 
C[n+]1ccn(CCc2ccccc2)c1C=Cc1ccccc1

>  <score_type>  (9) 
oracle

>  <origin>  (9) 
adg

>  <m_score__min__energy>  (9) 
-6

>  <m_primary>  (9) 
energy

$$$$
9:0
     RDKit          3D

 55 57  0  0  0  0  0  0  0  0999 V2000
   55.3850   29.9850   52.7650 C   0  0  0  0  0  0  0  0  0  0  0  0
   56.5670   29.7740   51.9910 O   0  0  0  0  0  0  0  0  0  0  0  0
   57.4700   30.7880   51.6280 C   0  0  0  0  0  0  0  0  0  0  0  0
   58.3620   30.5390   50.5800 C   0  0  0  0  0  0  0  0  0  0  0  0
   59.2570   31.5260   50.1560 C   0  0  0  0  0  0  0  0  0  0  0  0
   59.2860   32.7840   50.7800 C   0  0  0  0  0  0  0  0  0  0  0  0
   60.2090   33.8530   50.2340 C   0  0  0  0  0  0  0  0  0  0  0  0
   59.5680   34.5520   49.1090 N   0  0  0  0  0  0  0  0  0  0  0  0
   60.3980   34.5890   47.8900 C   0  0  0  0  0  0  0  0  0  0  0  0
   60.2010   33.2900   47.0720 C   0  0  0  0  0  0  0  0  0  0  0  0
   60.5940   33.5350   45.7620 F   0  0  0  0  0  0  0  0  0  0  0  0
   61.0870   32.1550   47.6310 C   0  0  0  0  0  0  0  0  0  0  0  0
   60.9720   30.9010   46.7440 C   0  0  0  0  0  0  0  0  0  0  0  0
   59.5950   30.6940   46.2610 N   0  0  0  0  0  0  0  0  0  0  0  0
   59.3690   29.7430   45.1950 C   0  0  0  0  0  0  0  0  0  0  0  0
   60.1540   28.7590   45.0820 O   0  0  0  0  0  0  0  0  0  0  0  0
   58.2720   29.8950   44.1530 C   0  0  1  0  0  0  0  0  0  0  0  0
   57.1180   28.9410   44.3520 C   0  0  0  0  0  0  0  0  0  0  0  0
   55.8950   29.8430   44.3190 C   0  0  0  0  0  0  0  0  0  0  0  0
   56.2930   31.1740   44.5520 O   0  0  0  0  0  0  0  0  0  0  0  0
   57.6230   31.2770   44.1120 C   0  0  0  0  0  0  0  0  0  0  0  0
   58.5000   31.3350   47.0000 C   0  0  0  0  0  0  0  0  0  0  0  0
   58.7080   32.8550   47.0710 C   0  0  0  0  0  0  0  0  0  0  0  0
   58.4180   33.0330   51.8800 C   0  0  0  0  0  0  0  0  0  0  0  0
   58.3930   34.3630   52.5900 C   0  0  0  0  0  0  0  0  0  0  0  0
   57.5020   32.0400   52.2770 C   0  0  0  0  0  0  0  0  0  0  0  0
   55.6348   29.9404   53.8353 H   0  0  0  0  0  0  0  0  0  0  0  0
   54.9629   30.9727   52.5278 H   0  0  0  0  0  0  0  0  0  0  0  0
   54.6472   29.2044   52.5278 H   0  0  0  0  0  0  0  0  0  0  0  0
   58.3594   29.5570   50.0844 H   0  0  0  0  0  0  0  0  0  0  0  0
   59.9458   31.3150   49.3248 H   0  0  0  0  0  0  0  0  0  0  0  0
   60.4365   34.5776   51.0297 H   0  0  0  0  0  0  0  0  0  0  0  0
   61.1368   33.3796   49.8805 H   0  0  0  0  0  0  0  0  0  0  0  0
   59.3720   35.5360   49.4120 H   0  0  0  0  0  0  0  0  0  0  0  0
   60.1045   35.4534   47.2762 H   0  0  0  0  0  0  0  0  0  0  0  0
   61.4561   34.6760   48.1777 H   0  0  0  0  0  0  0  0  0  0  0  0
   62.1347   32.4895   47.6524 H   0  0  0  0  0  0  0  0  0  0  0  0
   60.7501   31.9060   48.6481 H   0  0  0  0  0  0  0  0  0  0  0  0
   61.6394   31.0161   45.8772 H   0  0  0  0  0  0  0  0  0  0  0  0
   61.2558   30.0277   47.3497 H   0  0  0  0  0  0  0  0  0  0  0  0
   58.8224   29.6910   43.2227 H   0  0  0  0  0  0  0  0  0  0  0  0
   57.0793   28.1978   43.5419 H   0  0  0  0  0  0  0  0  0  0  0  0
   57.1975   28.3646   45.2855 H   0  0  0  0  0  0  0  0  0  0  0  0
   55.4116   29.7710   43.3336 H   0  0  0  0  0  0  0  0  0  0  0  0
   55.1839   29.5290   45.0972 H   0  0  0  0  0  0  0  0  0  0  0  0
   57.6413   31.6620   43.0817 H   0  0  0  0  0  0  0  0  0  0  0  0
   58.1772   31.9660   44.7663 H   0  0  0  0  0  0  0  0  0  0  0  0
   57.5485   31.1244   46.4898 H   0  0  0  0  0  0  0  0  0  0  0  0
   58.4820   30.9329   48.0237 H   0  0  0  0  0  0  0  0  0  0  0  0
   58.2150   33.3126   46.2006 H   0  0  0  0  0  0  0  0  0  0  0  0
   58.2782   33.1906   48.0263 H   0  0  0  0  0  0  0  0  0  0  0  0
   58.3961   34.1982   53.6776 H   0  0  0  0  0  0  0  0  0  0  0  0
   59.2803   34.9474   52.3052 H   0  0  0  0  0  0  0  0  0  0  0  0
   57.4843   34.9137   52.3052 H   0  0  0  0  0  0  0  0  0  0  0  0
   56.8037   32.2428   53.1023 H   0  0  0  0  0  0  0  0  0  0  0  0
  1  2  1  0
  2  3  1  0
  3  4  2  0
  4  5  1  0
  5  6  2  0
  6  7  1  0
  7  8  1  0
  8  9  1  0
  9 10  1  0
 10 11  1  0
 10 12  1  0
 12 13  1  0
 13 14  1  0
 14 15  1  0
 15 16  2  0
 15 17  1  0
 17 18  1  0
 18 19  1  0
 19 20  1  0
 20 21  1  0
 14 22  1  0
 22 23  1  0
  6 24  1  0
 24 25  1  0
 24 26  2  0
 26  3  1  0
 23 10  1  0
 21 17  1  0
  1 27  1  0
  1 28  1  0
  1 29  1  0
  4 30  1  0
  5 31  1  0
  7 32  1  0
  7 33  1  0
  8 34  1  0
  9 35  1  0
  9 36  1  0
 12 37  1  0
 12 38  1  0
 13 39  1  0
 13 40  1  0
 17 41  1  6
 18 42  1  0
 18 43  1  0
 19 44  1  0
 19 45  1  0
 21 46  1  0
 21 47  1  0
 22 48  1  0
 22 49  1  0
 23 50  1  0
 23 51  1  0
 25 52  1  0
 25 53  1  0
 25 54  1  0
 26 55  1  0
M  END
>  <UniqueID>  (10) 
9

>  <SMILES>  (10) 
COc1ccc(CNCC2(F)CCN(C(=O)[C@H]3CCOC3)CC2)c(C)c1

>  <Energy>  (10) 
60.966709471546366

>  <Genealogy>  (10) 
COc1ccc(CNCC2(F)CCN(C(=O)[C@H]3CCOC3)CC2)c(C)c1 (chirality)
COc1ccc(CNCC2(F)CCN(C(=O)[C@H]3CCOC3)CC2)c(C)c1 (3D coordinates assigned)
COc1ccc(CNCC2(F)CCN(C(=O)[C@H]3CCOC3)CC2)c(C)c1 (nonaromatic ring conformer: 60.966709471546366 kcal/mol)

>  <smiles>  (10) 
COc1ccc(CNCC2(F)CCN(C(=O)C3CCOC3)CC2)c(C)c1

>  <score_type>  (10) 
oracle

>  <origin>  (10) 
adg

>  <m_score__min__energy>  (10) 
-7.8399999999999999

>  <m_primary>  (10) 
energy

$$$$
10:0
     RDKit          3D

 54 56  0  0  0  0  0  0  0  0999 V2000
   59.8420   30.0440   49.4820 C   0  0  0  0  0  0  0  0  0  0  0  0
   60.4000   31.0400   48.6540 O   0  0  0  0  0  0  0  0  0  0  0  0
   61.3370   30.4480   47.7770 C   0  0  0  0  0  0  0  0  0  0  0  0
   60.6860   30.2490   46.4110 C   0  0  0  0  0  0  0  0  0  0  0  0
   59.3230   30.7890   46.3920 N   0  0  0  0  0  0  0  0  0  0  0  0
   58.3960   30.4310   45.3620 C   0  0  0  0  0  0  0  0  0  0  0  0
   58.4940   29.1480   44.7990 C   0  0  0  0  0  0  0  0  0  0  0  0
   57.6750   28.7710   43.7860 N   0  0  0  0  0  0  0  0  0  0  0  0
   56.7400   29.6090   43.2800 C   0  0  0  0  0  0  0  0  0  0  0  0
   56.6060   30.8970   43.7930 C   0  0  0  0  0  0  0  0  0  0  0  0
   57.4240   31.3390   44.8530 C   0  0  0  0  0  0  0  0  0  0  0  0
   57.1940   32.7780   45.3320 C   0  0  2  0  0  0  0  0  0  0  0  0
   57.8490   33.8190   44.3960 C   0  0  0  0  0  0  0  0  0  0  0  0
   59.2770   34.1660   44.8070 C   0  0  0  0  0  0  0  0  0  0  0  0
   59.3080   34.5760   46.2780 C   0  0  0  0  0  0  0  0  0  0  0  0
   58.8450   33.4570   47.1130 N   0  0  0  0  0  0  0  0  0  0  0  0
   59.1160   33.6510   48.5570 C   0  0  0  0  0  0  0  0  0  0  0  0
   60.3130   34.5820   48.8880 C   0  0  0  0  0  0  0  0  0  0  0  0
   61.6470   33.9160   48.6470 C   0  0  0  0  0  0  0  0  0  0  0  0
   62.1770   33.8100   47.3470 C   0  0  0  0  0  0  0  0  0  0  0  0
   63.4160   33.1960   47.1380 C   0  0  0  0  0  0  0  0  0  0  0  0
   64.1430   32.6970   48.2210 C   0  0  0  0  0  0  0  0  0  0  0  0
   63.6350   32.8130   49.5180 C   0  0  0  0  0  0  0  0  0  0  0  0
   62.3950   33.4230   49.7310 C   0  0  0  0  0  0  0  0  0  0  0  0
   57.4450   33.0780   46.8340 C   0  0  0  0  0  0  0  0  0  0  0  0
   59.9945   30.3163   50.5368 H   0  0  0  0  0  0  0  0  0  0  0  0
   58.7646   29.9584   49.2775 H   0  0  0  0  0  0  0  0  0  0  0  0
   60.3317   29.0805   49.2775 H   0  0  0  0  0  0  0  0  0  0  0  0
   62.2129   31.1056   47.6753 H   0  0  0  0  0  0  0  0  0  0  0  0
   61.6586   29.4761   48.1794 H   0  0  0  0  0  0  0  0  0  0  0  0
   61.2874   30.7647   45.6479 H   0  0  0  0  0  0  0  0  0  0  0  0
   60.6373   29.1703   46.2010 H   0  0  0  0  0  0  0  0  0  0  0  0
   59.0820   31.6040   46.9990 H   0  0  0  0  0  0  0  0  0  0  0  0
   59.2435   28.4410   45.1841 H   0  0  0  0  0  0  0  0  0  0  0  0
   56.0853   29.2724   42.4627 H   0  0  0  0  0  0  0  0  0  0  0  0
   55.8537   31.5768   43.3665 H   0  0  0  0  0  0  0  0  0  0  0  0
   56.1016   32.8839   45.2579 H   0  0  0  0  0  0  0  0  0  0  0  0
   57.8662   33.4117   43.3743 H   0  0  0  0  0  0  0  0  0  0  0  0
   57.2528   34.7414   44.4569 H   0  0  0  0  0  0  0  0  0  0  0  0
   59.9229   33.2880   44.6591 H   0  0  0  0  0  0  0  0  0  0  0  0
   59.6392   35.0014   44.1899 H   0  0  0  0  0  0  0  0  0  0  0  0
   60.3366   34.8432   46.5618 H   0  0  0  0  0  0  0  0  0  0  0  0
   58.6470   35.4421   46.4294 H   0  0  0  0  0  0  0  0  0  0  0  0
   58.2140   34.0805   49.0173 H   0  0  0  0  0  0  0  0  0  0  0  0
   59.3832   32.6598   48.9522 H   0  0  0  0  0  0  0  0  0  0  0  0
   60.2473   35.4796   48.2555 H   0  0  0  0  0  0  0  0  0  0  0  0
   60.2540   34.8355   49.9568 H   0  0  0  0  0  0  0  0  0  0  0  0
   61.6140   34.2120   46.4918 H   0  0  0  0  0  0  0  0  0  0  0  0
   63.8188   33.1059   46.1184 H   0  0  0  0  0  0  0  0  0  0  0  0
   65.1161   32.2123   48.0532 H   0  0  0  0  0  0  0  0  0  0  0  0
   64.2107   32.4245   50.3710 H   0  0  0  0  0  0  0  0  0  0  0  0
   62.0017   33.5180   50.7539 H   0  0  0  0  0  0  0  0  0  0  0  0
   57.2008   32.1785   47.4182 H   0  0  0  0  0  0  0  0  0  0  0  0
   56.8079   33.9300   47.1138 H   0  0  0  0  0  0  0  0  0  0  0  0
  1  2  1  0
  2  3  1  0
  3  4  1  0
  4  5  1  0
  5  6  1  0
  6  7  2  0
  7  8  1  0
  8  9  2  0
  9 10  1  0
 10 11  2  0
 11 12  1  0
 12 13  1  0
 13 14  1  0
 14 15  1  0
 15 16  1  0
 16 17  1  0
 17 18  1  0
 18 19  1  0
 19 20  2  0
 20 21  1  0
 21 22  2  0
 22 23  1  0
 23 24  2  0
 16 25  1  0
 11  6  1  0
 25 12  1  0
 24 19  1  0
  1 26  1  0
  1 27  1  0
  1 28  1  0
  3 29  1  0
  3 30  1  0
  4 31  1  0
  4 32  1  0
  5 33  1  0
  7 34  1  0
  9 35  1  0
 10 36  1  0
 12 37  1  1
 13 38  1  0
 13 39  1  0
 14 40  1  0
 14 41  1  0
 15 42  1  0
 15 43  1  0
 17 44  1  0
 17 45  1  0
 18 46  1  0
 18 47  1  0
 20 48  1  0
 21 49  1  0
 22 50  1  0
 23 51  1  0
 24 52  1  0
 25 53  1  0
 25 54  1  0
M  END
>  <UniqueID>  (11) 
10

>  <SMILES>  (11) 
COCCNc1cnccc1[C@@H]1CCCN(CCc2ccccc2)C1

>  <Energy>  (11) 
69.42327848985215

>  <Genealogy>  (11) 
COCCNc1cnccc1[C@@H]1CCCN(CCc2ccccc2)C1 (chirality)
COCCNc1cnccc1[C@@H]1CCCN(CCc2ccccc2)C1 (3D coordinates assigned)
COCCNc1cnccc1[C@@H]1CCCN(CCc2ccccc2)C1 (nonaromatic ring conformer: 69.42327848985215 kcal/mol)

>  <smiles>  (11) 
COCCNc1cnccc1C1CCCN(CCc2ccccc2)C1

>  <score_type>  (11) 
oracle

>  <origin>  (11) 
adg

>  <m_score__min__energy>  (11) 
-7.9100000000000001

>  <m_primary>  (11) 
energy

$$$$
11:0
     RDKit          3D

 43 44  0  0  0  0  0  0  0  0999 V2000
   56.2980   24.7950   46.7240 C   0  0  0  0  0  0  0  0  0  0  0  0
   57.6150   25.4200   47.1760 C   0  0  0  0  0  0  0  0  0  0  0  0
   58.0120   26.5470   46.2620 C   0  0  0  0  0  0  0  0  0  0  0  0
   59.3620   26.7610   45.9500 C   0  0  0  0  0  0  0  0  0  0  0  0
   59.7320   27.8250   45.1280 C   0  0  0  0  0  0  0  0  0  0  0  0
   58.7630   28.6910   44.6160 C   0  0  0  0  0  0  0  0  0  0  0  0
   57.4000   28.5040   44.9240 C   0  0  0  0  0  0  0  0  0  0  0  0
   56.3460   29.4180   44.4000 C   0  0  0  0  0  0  0  0  0  0  0  0
   55.1770   29.3490   44.8710 O   0  0  0  0  0  0  0  0  0  0  0  0
   56.6200   30.4590   43.3470 C   0  0  0  0  0  0  0  0  0  0  0  0
   57.6450   31.4890   43.8460 C   0  0  0  0  0  0  0  0  0  0  0  0
   57.3460   31.9250   45.2280 N   0  0  0  0  0  0  0  0  0  0  0  0
   58.4290   31.5380   46.1690 C   0  0  0  0  0  0  0  0  0  0  0  0
   58.4340   32.4200   47.4270 C   0  0  0  0  0  0  0  0  0  0  0  0
   58.6370   33.8550   47.1070 N   0  0  0  0  0  0  0  0  0  0  0  0
   60.0300   34.2650   47.3380 C   0  0  0  0  0  0  0  0  0  0  0  0
   58.2120   34.2220   45.7360 C   0  0  0  0  0  0  0  0  0  0  0  0
   57.0160   33.3740   45.2800 C   0  0  0  0  0  0  0  0  0  0  0  0
   57.0400   27.4260   45.7580 C   0  0  0  0  0  0  0  0  0  0  0  0
   55.7041   24.5132   47.6060 H   0  0  0  0  0  0  0  0  0  0  0  0
   55.7353   25.5221   46.1201 H   0  0  0  0  0  0  0  0  0  0  0  0
   56.5054   23.8993   46.1201 H   0  0  0  0  0  0  0  0  0  0  0  0
   57.4977   25.8088   48.1983 H   0  0  0  0  0  0  0  0  0  0  0  0
   58.3995   24.6494   47.1475 H   0  0  0  0  0  0  0  0  0  0  0  0
   60.1317   26.0875   46.3549 H   0  0  0  0  0  0  0  0  0  0  0  0
   60.7923   27.9831   44.8816 H   0  0  0  0  0  0  0  0  0  0  0  0
   59.0659   29.5259   43.9670 H   0  0  0  0  0  0  0  0  0  0  0  0
   57.0150   29.9652   42.4469 H   0  0  0  0  0  0  0  0  0  0  0  0
   55.6799   30.9822   43.1178 H   0  0  0  0  0  0  0  0  0  0  0  0
   58.6472   31.0362   43.8229 H   0  0  0  0  0  0  0  0  0  0  0  0
   57.5982   32.3695   43.1883 H   0  0  0  0  0  0  0  0  0  0  0  0
   58.2820   30.4901   46.4694 H   0  0  0  0  0  0  0  0  0  0  0  0
   59.3923   31.6705   45.6547 H   0  0  0  0  0  0  0  0  0  0  0  0
   57.4695   32.3055   47.9433 H   0  0  0  0  0  0  0  0  0  0  0  0
   59.2706   32.0950   48.0630 H   0  0  0  0  0  0  0  0  0  0  0  0
   60.2211   34.3212   48.4198 H   0  0  0  0  0  0  0  0  0  0  0  0
   60.7091   33.5286   46.8835 H   0  0  0  0  0  0  0  0  0  0  0  0
   60.2019   35.2518   46.8835 H   0  0  0  0  0  0  0  0  0  0  0  0
   57.9254   35.2839   45.7213 H   0  0  0  0  0  0  0  0  0  0  0  0
   59.0517   34.0375   45.0498 H   0  0  0  0  0  0  0  0  0  0  0  0
   56.1854   33.5237   45.9855 H   0  0  0  0  0  0  0  0  0  0  0  0
   56.7398   33.6955   44.2649 H   0  0  0  0  0  0  0  0  0  0  0  0
   55.9824   27.2712   46.0177 H   0  0  0  0  0  0  0  0  0  0  0  0
  1  2  1  0
  2  3  1  0
  3  4  2  0
  4  5  1  0
  5  6  2  0
  6  7  1  0
  7  8  1  0
  8  9  2  0
  8 10  1  0
 10 11  1  0
 11 12  1  0
 12 13  1  0
 13 14  1  0
 14 15  1  0
 15 16  1  0
 15 17  1  0
 17 18  1  0
  7 19  2  0
 19  3  1  0
 18 12  1  0
  1 20  1  0
  1 21  1  0
  1 22  1  0
  2 23  1  0
  2 24  1  0
  4 25  1  0
  5 26  1  0
  6 27  1  0
 10 28  1  0
 10 29  1  0
 11 30  1  0
 11 31  1  0
 13 32  1  0
 13 33  1  0
 14 34  1  0
 14 35  1  0
 16 36  1  0
 16 37  1  0
 16 38  1  0
 17 39  1  0
 17 40  1  0
 18 41  1  0
 18 42  1  0
 19 43  1  0
M  END
>  <UniqueID>  (12) 
11

>  <SMILES>  (12) 
CCc1cccc(C(=O)CCN2CCN(C)CC2)c1

>  <Energy>  (12) 
50.7891169894121

>  <Genealogy>  (12) 
CCc1cccc(C(=O)CCN2CCN(C)CC2)c1 (3D coordinates assigned)
CCc1cccc(C(=O)CCN2CCN(C)CC2)c1 (nonaromatic ring conformer: 50.7891169894121 kcal/mol)

>  <smiles>  (12) 
CCc1cccc(C(=O)CCN2CCN(C)CC2)c1

>  <score_type>  (12) 
oracle

>  <origin>  (12) 
adg

>  <m_score__min__energy>  (12) 
-7.5300000000000002

>  <m_primary>  (12) 
energy

$$$$
12:0
     RDKit          3D

 57 60  0  0  0  0  0  0  0  0999 V2000
   59.6670   35.0450   47.0140 C   0  0  0  0  0  0  0  0  0  0  0  0
   59.2500   34.8730   45.6620 O   0  0  0  0  0  0  0  0  0  0  0  0
   58.6330   33.7120   45.1690 C   0  0  0  0  0  0  0  0  0  0  0  0
   58.4280   33.4930   43.7920 C   0  0  0  0  0  0  0  0  0  0  0  0
   57.8060   32.3210   43.3500 C   0  0  0  0  0  0  0  0  0  0  0  0
   57.3890   31.3520   44.2720 C   0  0  0  0  0  0  0  0  0  0  0  0
   56.6260   29.8650   43.7240 S   0  0  0  0  0  0  0  0  0  0  0  0
   55.5120   29.5160   44.6690 O   0  0  0  0  0  0  0  0  0  0  0  0
   56.0580   30.0320   42.3440 O   0  0  0  0  0  0  0  0  0  0  0  0
   57.7850   28.5710   43.7050 N   0  0  0  0  0  0  0  0  0  0  0  0
   58.2780   27.9160   44.8880 C   0  0  0  0  0  0  0  0  0  0  0  0
   58.4870   26.5300   44.8640 C   0  0  0  0  0  0  0  0  0  0  0  0
   58.9540   25.8640   45.9970 C   0  0  0  0  0  0  0  0  0  0  0  0
   59.2120   26.5720   47.1710 C   0  0  0  0  0  0  0  0  0  0  0  0
   59.0100   27.9630   47.2260 C   0  0  0  0  0  0  0  0  0  0  0  0
   59.2510   28.6930   48.4980 C   0  0  0  0  0  0  0  0  0  0  0  0
   60.2390   28.2970   49.4110 C   0  0  0  0  0  0  0  0  0  0  0  0
   60.4380   29.0370   50.5730 C   0  0  0  0  0  0  0  0  0  0  0  0
   59.6410   30.1650   50.8180 C   0  0  0  0  0  0  0  0  0  0  0  0
   59.8120   30.9710   52.0050 N   0  0  0  0  0  0  0  0  0  0  0  0
   58.6420   31.1740   52.8760 C   0  0  0  0  0  0  0  0  0  0  0  0
   57.7650   32.3790   52.4940 C   0  0  0  0  0  0  0  0  0  0  0  0
   58.3960   33.7270   52.8760 C   0  0  0  0  0  0  0  0  0  0  0  0
   59.8210   33.8880   52.3250 C   0  0  0  0  0  0  0  0  0  0  0  0
   60.8420   32.9770   53.0140 C   0  0  0  0  0  0  0  0  0  0  0  0
   61.0840   31.6740   52.2450 C   0  0  0  0  0  0  0  0  0  0  0  0
   58.6770   30.4890   49.9140 N   0  0  0  0  0  0  0  0  0  0  0  0
   58.4920   29.7820   48.7990 N   0  0  0  0  0  0  0  0  0  0  0  0
   58.5370   28.6250   46.0760 C   0  0  0  0  0  0  0  0  0  0  0  0
   57.5920   31.5680   45.6410 C   0  0  0  0  0  0  0  0  0  0  0  0
   58.2090   32.7420   46.0850 C   0  0  0  0  0  0  0  0  0  0  0  0
   58.8648   34.7141   47.6900 H   0  0  0  0  0  0  0  0  0  0  0  0
   60.5715   34.4465   47.1977 H   0  0  0  0  0  0  0  0  0  0  0  0
   59.8865   36.1071   47.1977 H   0  0  0  0  0  0  0  0  0  0  0  0
   58.7585   34.2467   43.0621 H   0  0  0  0  0  0  0  0  0  0  0  0
   57.6435   32.1593   42.2741 H   0  0  0  0  0  0  0  0  0  0  0  0
   58.2040   28.3260   42.7760 H   0  0  0  0  0  0  0  0  0  0  0  0
   58.2810   25.9631   43.9441 H   0  0  0  0  0  0  0  0  0  0  0  0
   59.1194   24.7770   45.9647 H   0  0  0  0  0  0  0  0  0  0  0  0
   59.5764   26.0381   48.0610 H   0  0  0  0  0  0  0  0  0  0  0  0
   60.8531   27.4068   49.2100 H   0  0  0  0  0  0  0  0  0  0  0  0
   61.2142   28.7396   51.2935 H   0  0  0  0  0  0  0  0  0  0  0  0
   58.0195   30.2681   52.8322 H   0  0  0  0  0  0  0  0  0  0  0  0
   59.0332   31.3781   53.8836 H   0  0  0  0  0  0  0  0  0  0  0  0
   57.6031   32.3637   51.4061 H   0  0  0  0  0  0  0  0  0  0  0  0
   56.8210   32.2883   53.0514 H   0  0  0  0  0  0  0  0  0  0  0  0
   57.7690   34.5364   52.4738 H   0  0  0  0  0  0  0  0  0  0  0  0
   58.4559   33.7684   53.9736 H   0  0  0  0  0  0  0  0  0  0  0  0
   59.8093   33.6503   51.2511 H   0  0  0  0  0  0  0  0  0  0  0  0
   60.1293   34.9266   52.5155 H   0  0  0  0  0  0  0  0  0  0  0  0
   61.7959   33.5181   53.0989 H   0  0  0  0  0  0  0  0  0  0  0  0
   60.4370   32.7103   54.0013 H   0  0  0  0  0  0  0  0  0  0  0  0
   61.5567   31.9064   51.2793 H   0  0  0  0  0  0  0  0  0  0  0  0
   61.7408   31.0254   52.8432 H   0  0  0  0  0  0  0  0  0  0  0  0
   58.3677   29.7114   46.1069 H   0  0  0  0  0  0  0  0  0  0  0  0
   57.2650   30.8115   46.3695 H   0  0  0  0  0  0  0  0  0  0  0  0
   58.3623   32.9044   47.1621 H   0  0  0  0  0  0  0  0  0  0  0  0
  1  2  1  0
  2  3  1  0
  3  4  2  0
  4  5  1  0
  5  6  2  0
  6  7  1  0
  7  8  2  0
  7  9  2  0
  7 10  1  0
 10 11  1  0
 11 12  2  0
 12 13  1  0
 13 14  2  0
 14 15  1  0
 15 16  1  0
 16 17  2  0
 17 18  1  0
 18 19  2  0
 19 20  1  0
 20 21  1  0
 21 22  1  0
 22 23  1  0
 23 24  1  0
 24 25  1  0
 25 26  1  0
 19 27  1  0
 27 28  2  0
 15 29  2  0
  6 30  1  0
 30 31  2  0
 31  3  1  0
 29 11  1  0
 28 16  1  0
 26 20  1  0
  1 32  1  0
  1 33  1  0
  1 34  1  0
  4 35  1  0
  5 36  1  0
 10 37  1  0
 12 38  1  0
 13 39  1  0
 14 40  1  0
 17 41  1  0
 18 42  1  0
 21 43  1  0
 21 44  1  0
 22 45  1  0
 22 46  1  0
 23 47  1  0
 23 48  1  0
 24 49  1  0
 24 50  1  0
 25 51  1  0
 25 52  1  0
 26 53  1  0
 26 54  1  0
 29 55  1  0
 30 56  1  0
 31 57  1  0
M  END
>  <UniqueID>  (13) 
12

>  <SMILES>  (13) 
COc1ccc(S(=O)(=O)Nc2cccc(-c3ccc(N4CCCCCC4)nn3)c2)cc1

>  <Energy>  (13) 
68.3635934553084

>  <Genealogy>  (13) 
COc1ccc(S(=O)(=O)Nc2cccc(-c3ccc(N4CCCCCC4)nn3)c2)cc1 (3D coordinates assigned)
COc1ccc(S(=O)(=O)Nc2cccc(-c3ccc(N4CCCCCC4)nn3)c2)cc1 (nonaromatic ring conformer: 68.3635934553084 kcal/mol)

>  <smiles>  (13) 
COc1ccc(S(=O)(=O)Nc2cccc(-c3ccc(N4CCCCCC4)nn3)c2)cc1

>  <score_type>  (13) 
oracle

>  <origin>  (13) 
adg

>  <m_score__min__energy>  (13) 
-7.3099999999999996

>  <m_primary>  (13) 
energy

$$$$
13:0
     RDKit          3D

 38 40  0  0  0  0  0  0  0  0999 V2000
   57.0340   34.3600   44.8710 C   0  0  0  0  0  0  0  0  0  0  0  0
   58.0660   33.3850   45.3770 C   0  0  0  0  0  0  0  0  0  0  0  0
   59.1640   33.8700   46.1060 C   0  0  0  0  0  0  0  0  0  0  0  0
   60.1370   32.9840   46.5900 C   0  0  0  0  0  0  0  0  0  0  0  0
   61.2720   33.4650   47.3380 N   0  0  0  0  0  0  0  0  0  0  0  0
   62.6170   33.3560   46.7400 C   0  0  0  0  0  0  0  0  0  0  0  0
   63.7270   33.9080   47.6600 C   0  0  0  0  0  0  0  0  0  0  0  0
   63.9400   33.1360   48.9700 C   0  0  0  0  0  0  0  0  0  0  0  0
   63.0270   33.5910   50.1190 C   0  0  0  0  0  0  0  0  0  0  0  0
   61.5150   33.4530   49.8550 C   0  0  0  0  0  0  0  0  0  0  0  0
   61.0320   34.2000   48.5990 C   0  0  0  0  0  0  0  0  0  0  0  0
   60.0020   31.6520   46.3570 N   0  0  0  0  0  0  0  0  0  0  0  0
   58.9580   31.1370   45.6590 C   0  0  0  0  0  0  0  0  0  0  0  0
   58.8790   29.7540   45.4530 C   0  0  0  0  0  0  0  0  0  0  0  0
   57.8120   29.2110   44.7370 C   0  0  0  0  0  0  0  0  0  0  0  0
   56.8160   30.0450   44.2240 C   0  0  0  0  0  0  0  0  0  0  0  0
   56.8820   31.4270   44.4230 C   0  0  0  0  0  0  0  0  0  0  0  0
   57.9550   31.9930   45.1440 C   0  0  0  0  0  0  0  0  0  0  0  0
   56.5299   34.8363   45.7248 H   0  0  0  0  0  0  0  0  0  0  0  0
   57.5263   35.1305   44.2595 H   0  0  0  0  0  0  0  0  0  0  0  0
   56.2927   33.8248   44.2595 H   0  0  0  0  0  0  0  0  0  0  0  0
   59.2610   34.9488   46.2980 H   0  0  0  0  0  0  0  0  0  0  0  0
   62.8256   32.2956   46.5348 H   0  0  0  0  0  0  0  0  0  0  0  0
   62.6200   33.9579   45.8193 H   0  0  0  0  0  0  0  0  0  0  0  0
   64.6728   33.8914   47.0985 H   0  0  0  0  0  0  0  0  0  0  0  0
   63.4045   34.9183   47.9522 H   0  0  0  0  0  0  0  0  0  0  0  0
   63.7493   32.0698   48.7781 H   0  0  0  0  0  0  0  0  0  0  0  0
   64.9745   33.3304   49.2894 H   0  0  0  0  0  0  0  0  0  0  0  0
   63.2730   32.9896   51.0066 H   0  0  0  0  0  0  0  0  0  0  0  0
   63.2155   34.6670   50.2485 H   0  0  0  0  0  0  0  0  0  0  0  0
   61.2801   32.3851   49.7349 H   0  0  0  0  0  0  0  0  0  0  0  0
   60.9977   33.9043   50.7144 H   0  0  0  0  0  0  0  0  0  0  0  0
   59.9509   34.3786   48.6960 H   0  0  0  0  0  0  0  0  0  0  0  0
   61.6095   35.1344   48.5401 H   0  0  0  0  0  0  0  0  0  0  0  0
   59.6607   29.0939   45.8570 H   0  0  0  0  0  0  0  0  0  0  0  0
   57.7550   28.1243   44.5762 H   0  0  0  0  0  0  0  0  0  0  0  0
   55.9759   29.6124   43.6609 H   0  0  0  0  0  0  0  0  0  0  0  0
   56.0935   32.0767   44.0155 H   0  0  0  0  0  0  0  0  0  0  0  0
  1  2  1  0
  2  3  2  0
  3  4  1  0
  4  5  1  0
  5  6  1  0
  6  7  1  0
  7  8  1  0
  8  9  1  0
  9 10  1  0
 10 11  1  0
  4 12  2  0
 12 13  1  0
 13 14  2  0
 14 15  1  0
 15 16  2  0
 16 17  1  0
 17 18  2  0
 18  2  1  0
 11  5  1  0
 18 13  1  0
  1 19  1  0
  1 20  1  0
  1 21  1  0
  3 22  1  0
  6 23  1  0
  6 24  1  0
  7 25  1  0
  7 26  1  0
  8 27  1  0
  8 28  1  0
  9 29  1  0
  9 30  1  0
 10 31  1  0
 10 32  1  0
 11 33  1  0
 11 34  1  0
 14 35  1  0
 15 36  1  0
 16 37  1  0
 17 38  1  0
M  END
>  <UniqueID>  (14) 
13

>  <SMILES>  (14) 
Cc1cc(N2CCCCCC2)nc2ccccc12

>  <Energy>  (14) 
52.139371033790326

>  <Genealogy>  (14) 
Cc1cc(N2CCCCCC2)nc2ccccc12 (3D coordinates assigned)
Cc1cc(N2CCCCCC2)nc2ccccc12 (nonaromatic ring conformer: 52.139371033790326 kcal/mol)

>  <smiles>  (14) 
Cc1cc(N2CCCCCC2)nc2ccccc12

>  <score_type>  (14) 
oracle

>  <origin>  (14) 
adg

>  <m_score__min__energy>  (14) 
-5.0800000000000001

>  <m_primary>  (14) 
energy

$$$$
14:0
     RDKit          3D

 50 52  0  0  0  0  0  0  0  0999 V2000
   58.8080   32.6890   48.6280 C   0  0  0  0  0  0  0  0  0  0  0  0
   59.5290   32.6020   47.4040 O   0  0  0  0  0  0  0  0  0  0  0  0
   60.9280   32.6420   47.2940 C   0  0  0  0  0  0  0  0  0  0  0  0
   61.6090   33.8430   47.0130 C   0  0  0  0  0  0  0  0  0  0  0  0
   63.0040   33.8700   46.9550 C   0  0  0  0  0  0  0  0  0  0  0  0
   63.7360   32.7080   47.1870 C   0  0  0  0  0  0  0  0  0  0  0  0
   63.0750   31.5100   47.4600 C   0  0  0  0  0  0  0  0  0  0  0  0
   61.6690   31.4530   47.4840 C   0  0  0  0  0  0  0  0  0  0  0  0
   60.9780   30.1280   47.7820 C   0  0  0  0  0  0  0  0  0  0  0  0
   59.9000   29.7540   46.8280 N   0  0  0  0  0  0  0  0  0  0  0  0
   58.9940   28.7050   47.3640 C   0  0  0  0  0  0  0  0  0  0  0  0
   58.2780   27.8990   46.2570 C   0  0  0  0  0  0  0  0  0  0  0  0
   58.0180   28.7070   45.0530 N   0  0  0  0  0  0  0  0  0  0  0  0
   56.9450   29.7070   45.2550 C   0  0  0  0  0  0  0  0  0  0  0  0
   56.8850   30.6800   44.0720 C   0  0  0  0  0  0  0  0  0  0  0  0
   57.4300   32.0330   44.4500 C   0  0  0  0  0  0  0  0  0  0  0  0
   56.9050   32.7260   45.5530 C   0  0  0  0  0  0  0  0  0  0  0  0
   57.4380   33.9650   45.9240 C   0  0  0  0  0  0  0  0  0  0  0  0
   58.5000   34.5160   45.2020 C   0  0  0  0  0  0  0  0  0  0  0  0
   59.0340   33.8260   44.1100 C   0  0  0  0  0  0  0  0  0  0  0  0
   58.5050   32.5880   43.7360 C   0  0  0  0  0  0  0  0  0  0  0  0
   59.2570   29.2810   44.4710 C   0  0  0  0  0  0  0  0  0  0  0  0
   60.4140   29.4130   45.4870 C   0  0  0  0  0  0  0  0  0  0  0  0
   59.5077   32.6046   49.4725 H   0  0  0  0  0  0  0  0  0  0  0  0
   58.2871   33.6565   48.6787 H   0  0  0  0  0  0  0  0  0  0  0  0
   58.0719   31.8732   48.6787 H   0  0  0  0  0  0  0  0  0  0  0  0
   61.0375   34.7664   46.8380 H   0  0  0  0  0  0  0  0  0  0  0  0
   63.5258   34.8108   46.7256 H   0  0  0  0  0  0  0  0  0  0  0  0
   64.8352   32.7348   47.1550 H   0  0  0  0  0  0  0  0  0  0  0  0
   63.6595   30.5996   47.6588 H   0  0  0  0  0  0  0  0  0  0  0  0
   61.7395   29.3344   47.7650 H   0  0  0  0  0  0  0  0  0  0  0  0
   60.4938   30.2469   48.7625 H   0  0  0  0  0  0  0  0  0  0  0  0
   59.3290   30.6250   46.7160 H   0  0  0  0  0  0  0  0  0  0  0  0
   59.5872   28.0092   47.9756 H   0  0  0  0  0  0  0  0  0  0  0  0
   58.2172   29.2129   47.9544 H   0  0  0  0  0  0  0  0  0  0  0  0
   58.9101   27.0430   45.9783 H   0  0  0  0  0  0  0  0  0  0  0  0
   57.3072   27.5700   46.6562 H   0  0  0  0  0  0  0  0  0  0  0  0
   55.9794   29.1879   45.3456 H   0  0  0  0  0  0  0  0  0  0  0  0
   57.1584   30.2760   46.1719 H   0  0  0  0  0  0  0  0  0  0  0  0
   57.4807   30.2725   43.2419 H   0  0  0  0  0  0  0  0  0  0  0  0
   55.8332   30.7997   43.7729 H   0  0  0  0  0  0  0  0  0  0  0  0
   56.0723   32.2932   46.1268 H   0  0  0  0  0  0  0  0  0  0  0  0
   57.0204   34.5065   46.7856 H   0  0  0  0  0  0  0  0  0  0  0  0
   58.9155   35.4921   45.4928 H   0  0  0  0  0  0  0  0  0  0  0  0
   59.8723   34.2584   43.5440 H   0  0  0  0  0  0  0  0  0  0  0  0
   58.9319   32.0460   42.8793 H   0  0  0  0  0  0  0  0  0  0  0  0
   59.5889   28.6302   43.6486 H   0  0  0  0  0  0  0  0  0  0  0  0
   59.0117   30.2968   44.1276 H   0  0  0  0  0  0  0  0  0  0  0  0
   60.9566   28.4577   45.5413 H   0  0  0  0  0  0  0  0  0  0  0  0
   61.0857   30.2174   45.1527 H   0  0  0  0  0  0  0  0  0  0  0  0
  1  2  1  0
  2  3  1  0
  3  4  2  0
  4  5  1  0
  5  6  2  0
  6  7  1  0
  7  8  2  0
  8  9  1  0
  9 10  1  0
 10 11  1  0
 11 12  1  0
 12 13  1  0
 13 14  1  0
 14 15  1  0
 15 16  1  0
 16 17  2  0
 17 18  1  0
 18 19  2  0
 19 20  1  0
 20 21  2  0
 13 22  1  0
 22 23  1  0
  8  3  1  0
 23 10  1  0
 21 16  1  0
  1 24  1  0
  1 25  1  0
  1 26  1  0
  4 27  1  0
  5 28  1  0
  6 29  1  0
  7 30  1  0
  9 31  1  0
  9 32  1  0
 10 33  1  0
 11 34  1  0
 11 35  1  0
 12 36  1  0
 12 37  1  0
 14 38  1  0
 14 39  1  0
 15 40  1  0
 15 41  1  0
 17 42  1  0
 18 43  1  0
 19 44  1  0
 20 45  1  0
 21 46  1  0
 22 47  1  0
 22 48  1  0
 23 49  1  0
 23 50  1  0
M  CHG  1  10   1
M  END
>  <UniqueID>  (15) 
14

>  <SMILES>  (15) 
COc1ccccc1C[NH+]1CCN(CCc2ccccc2)CC1

>  <Energy>  (15) 
65.48026022635173

>  <Genealogy>  (15) 
COc1ccccc1C[NH+]1CCN(CCc2ccccc2)CC1 (protonated)
COc1ccccc1C[NH+]1CCN(CCc2ccccc2)CC1 (3D coordinates assigned)
COc1ccccc1C[NH+]1CCN(CCc2ccccc2)CC1 (nonaromatic ring conformer: 65.48026022635173 kcal/mol)

>  <smiles>  (15) 
COc1ccccc1CN1CCN(CCc2ccccc2)CC1

>  <score_type>  (15) 
oracle

>  <origin>  (15) 
adg

>  <m_score__min__energy>  (15) 
-5.9100000000000001

>  <m_primary>  (15) 
energy

$$$$
15:0
     RDKit          3D

 49 52  0  0  0  0  0  0  0  0999 V2000
   66.4920   32.8870   50.4220 C   0  0  0  0  0  0  0  0  0  0  0  0
   65.4600   33.8570   50.5600 O   0  0  0  0  0  0  0  0  0  0  0  0
   64.1910   33.7540   49.9700 C   0  0  0  0  0  0  0  0  0  0  0  0
   64.0900   33.1540   48.7100 C   0  0  0  0  0  0  0  0  0  0  0  0
   62.8490   33.0290   48.0810 C   0  0  0  0  0  0  0  0  0  0  0  0
   61.6840   33.5080   48.7020 C   0  0  0  0  0  0  0  0  0  0  0  0
   60.4020   33.3650   48.0600 N   0  0  0  0  0  0  0  0  0  0  0  0
   59.3650   32.5300   48.6880 C   0  0  0  0  0  0  0  0  0  0  0  0
   58.1790   32.2940   47.7430 C   0  0  0  0  0  0  0  0  0  0  0  0
   58.6610   32.0340   46.3800 N   0  0  0  0  0  0  0  0  0  0  0  0
   58.0020   31.0560   45.5630 C   0  0  0  0  0  0  0  0  0  0  0  0
   56.9050   31.4170   44.8480 N   0  0  0  0  0  0  0  0  0  0  0  0
   56.2550   30.5270   44.0560 C   0  0  0  0  0  0  0  0  0  0  0  0
   56.6930   29.2450   43.9700 N   0  0  0  0  0  0  0  0  0  0  0  0
   57.7810   28.8250   44.6690 C   0  0  0  0  0  0  0  0  0  0  0  0
   58.1940   27.4920   44.5440 O   0  0  0  0  0  0  0  0  0  0  0  0
   57.4070   26.3820   44.8840 C   0  0  0  0  0  0  0  0  0  0  0  0
   57.4240   25.1890   44.1390 C   0  0  0  0  0  0  0  0  0  0  0  0
   56.6250   24.1120   44.5280 C   0  0  0  0  0  0  0  0  0  0  0  0
   55.8210   24.2340   45.6620 C   0  0  0  0  0  0  0  0  0  0  0  0
   55.8240   25.3890   46.3790 N   0  0  0  0  0  0  0  0  0  0  0  0
   56.5930   26.4510   46.0200 C   0  0  0  0  0  0  0  0  0  0  0  0
   58.4870   29.7410   45.4710 C   0  0  0  0  0  0  0  0  0  0  0  0
   60.0110   29.2870   46.2340 Cl  0  0  0  0  0  0  0  0  0  0  0  0
   59.6620   32.9160   45.7650 C   0  0  0  0  0  0  0  0  0  0  0  0
   60.1470   33.9820   46.7520 C   0  0  0  0  0  0  0  0  0  0  0  0
   61.7830   34.1030   49.9700 C   0  0  0  0  0  0  0  0  0  0  0  0
   63.0250   34.2290   50.5990 C   0  0  0  0  0  0  0  0  0  0  0  0
   66.8312   32.5682   51.4186 H   0  0  0  0  0  0  0  0  0  0  0  0
   66.1061   32.0171   49.8703 H   0  0  0  0  0  0  0  0  0  0  0  0
   67.3364   33.3259   49.8703 H   0  0  0  0  0  0  0  0  0  0  0  0
   64.9951   32.7777   48.2108 H   0  0  0  0  0  0  0  0  0  0  0  0
   62.7838   32.5519   47.0920 H   0  0  0  0  0  0  0  0  0  0  0  0
   59.8045   31.5585   48.9583 H   0  0  0  0  0  0  0  0  0  0  0  0
   58.9941   33.0560   49.5801 H   0  0  0  0  0  0  0  0  0  0  0  0
   57.6004   31.4274   48.0954 H   0  0  0  0  0  0  0  0  0  0  0  0
   57.5429   33.1914   47.7339 H   0  0  0  0  0  0  0  0  0  0  0  0
   55.3717   30.8450   43.4827 H   0  0  0  0  0  0  0  0  0  0  0  0
   56.1780   28.5690   43.3600 H   0  0  0  0  0  0  0  0  0  0  0  0
   58.0666   25.1045   43.2502 H   0  0  0  0  0  0  0  0  0  0  0  0
   56.6293   23.1779   43.9471 H   0  0  0  0  0  0  0  0  0  0  0  0
   55.1838   23.3943   45.9763 H   0  0  0  0  0  0  0  0  0  0  0  0
   56.5752   27.3691   46.6256 H   0  0  0  0  0  0  0  0  0  0  0  0
   60.5214   32.3109   45.4404 H   0  0  0  0  0  0  0  0  0  0  0  0
   59.1967   33.4236   44.9072 H   0  0  0  0  0  0  0  0  0  0  0  0
   61.0754   34.4351   46.3741 H   0  0  0  0  0  0  0  0  0  0  0  0
   59.3747   34.7579   46.8592 H   0  0  0  0  0  0  0  0  0  0  0  0
   60.8767   34.4726   50.4720 H   0  0  0  0  0  0  0  0  0  0  0  0
   63.0913   34.7016   51.5901 H   0  0  0  0  0  0  0  0  0  0  0  0
  1  2  1  0
  2  3  1  0
  3  4  2  0
  4  5  1  0
  5  6  2  0
  6  7  1  0
  7  8  1  0
  8  9  1  0
  9 10  1  0
 10 11  1  0
 11 12  2  0
 12 13  1  0
 13 14  2  0
 14 15  1  0
 15 16  1  0
 16 17  1  0
 17 18  2  0
 18 19  1  0
 19 20  2  0
 20 21  1  0
 21 22  2  0
 15 23  2  0
 23 24  1  0
 10 25  1  0
 25 26  1  0
  6 27  1  0
 27 28  2  0
 28  3  1  0
 26  7  1  0
 23 11  1  0
 22 17  1  0
  1 29  1  0
  1 30  1  0
  1 31  1  0
  4 32  1  0
  5 33  1  0
  8 34  1  0
  8 35  1  0
  9 36  1  0
  9 37  1  0
 13 38  1  0
 14 39  1  0
 18 40  1  0
 19 41  1  0
 20 42  1  0
 22 43  1  0
 25 44  1  0
 25 45  1  0
 26 46  1  0
 26 47  1  0
 27 48  1  0
 28 49  1  0
M  CHG  1  14   1
M  END
>  <UniqueID>  (16) 
15

>  <SMILES>  (16) 
COc1ccc(N2CCN(c3nc[nH+]c(Oc4cccnc4)c3Cl)CC2)cc1

>  <Energy>  (16) 
71.48590251293149

>  <Genealogy>  (16) 
COc1ccc(N2CCN(c3nc[nH+]c(Oc4cccnc4)c3Cl)CC2)cc1 (protonated)
COc1ccc(N2CCN(c3nc[nH+]c(Oc4cccnc4)c3Cl)CC2)cc1 (3D coordinates assigned)
COc1ccc(N2CCN(c3nc[nH+]c(Oc4cccnc4)c3Cl)CC2)cc1 (nonaromatic ring conformer: 71.48590251293149 kcal/mol)

>  <smiles>  (16) 
COc1ccc(N2CCN(c3ncnc(Oc4cccnc4)c3Cl)CC2)cc1

>  <score_type>  (16) 
oracle

>  <origin>  (16) 
adg

>  <m_score__min__energy>  (16) 
-6.4100000000000001

>  <m_primary>  (16) 
energy

$$$$
16:0
     RDKit          3D

 48 51  0  0  0  0  0  0  0  0999 V2000
   66.1100   32.6120   50.1250 C   0  0  0  0  0  0  0  0  0  0  0  0
   65.3500   33.1090   49.0290 O   0  0  0  0  0  0  0  0  0  0  0  0
   63.9620   32.9520   48.8930 C   0  0  0  0  0  0  0  0  0  0  0  0
   63.2150   32.1050   49.7260 C   0  0  0  0  0  0  0  0  0  0  0  0
   61.8400   31.9590   49.5370 C   0  0  0  0  0  0  0  0  0  0  0  0
   61.1660   32.6510   48.5010 C   0  0  0  0  0  0  0  0  0  0  0  0
   59.7700   32.4930   48.2410 C   0  0  0  0  0  0  0  0  0  0  0  0
   58.9090   31.5690   49.1010 C   0  0  0  0  0  0  0  0  0  0  0  0
   59.3210   30.1010   48.9340 C   0  0  0  0  0  0  0  0  0  0  0  0
   58.4800   29.4620   47.9100 N   0  0  0  0  0  0  0  0  0  0  0  0
   59.2400   29.0830   46.7140 C   0  0  0  0  0  0  0  0  0  0  0  0
   58.3690   29.2660   45.5070 C   0  0  0  0  0  0  0  0  0  0  0  0
   58.4200   28.3490   44.4480 C   0  0  0  0  0  0  0  0  0  0  0  0
   57.5290   28.4820   43.3840 C   0  0  0  0  0  0  0  0  0  0  0  0
   56.6010   29.5250   43.3810 C   0  0  0  0  0  0  0  0  0  0  0  0
   56.5770   30.4220   44.4530 C   0  0  0  0  0  0  0  0  0  0  0  0
   57.4440   30.2670   45.4880 N   0  0  0  0  0  0  0  0  0  0  0  0
   59.2030   33.1710   47.1210 C   0  0  0  0  0  0  0  0  0  0  0  0
   57.8530   33.0040   46.7250 C   0  0  0  0  0  0  0  0  0  0  0  0
   57.3330   33.7080   45.6370 C   0  0  0  0  0  0  0  0  0  0  0  0
   58.1390   34.5800   44.9120 C   0  0  0  0  0  0  0  0  0  0  0  0
   59.4770   34.7420   45.2630 C   0  0  0  0  0  0  0  0  0  0  0  0
   60.0200   34.0400   46.3540 C   0  0  0  0  0  0  0  0  0  0  0  0
   61.3370   34.1900   46.6530 N   0  0  0  0  0  0  0  0  0  0  0  0
   61.9280   33.5140   47.6730 C   0  0  0  0  0  0  0  0  0  0  0  0
   63.3100   33.6590   47.8840 C   0  0  0  0  0  0  0  0  0  0  0  0
   65.6374   32.9210   51.0690 H   0  0  0  0  0  0  0  0  0  0  0  0
   66.1484   31.5137   50.0765 H   0  0  0  0  0  0  0  0  0  0  0  0
   67.1315   33.0171   50.0765 H   0  0  0  0  0  0  0  0  0  0  0  0
   63.7169   31.5522   50.5338 H   0  0  0  0  0  0  0  0  0  0  0  0
   61.2700   31.2953   50.2038 H   0  0  0  0  0  0  0  0  0  0  0  0
   59.0231   31.8544   50.1572 H   0  0  0  0  0  0  0  0  0  0  0  0
   57.8625   31.6728   48.7785 H   0  0  0  0  0  0  0  0  0  0  0  0
   60.3754   30.0503   48.6246 H   0  0  0  0  0  0  0  0  0  0  0  0
   59.1906   29.5755   49.8915 H   0  0  0  0  0  0  0  0  0  0  0  0
   57.7120   30.1200   47.6350 H   0  0  0  0  0  0  0  0  0  0  0  0
   60.1320   29.7207   46.6258 H   0  0  0  0  0  0  0  0  0  0  0  0
   59.5553   28.0319   46.7903 H   0  0  0  0  0  0  0  0  0  0  0  0
   59.1564   27.5319   44.4564 H   0  0  0  0  0  0  0  0  0  0  0  0
   57.5571   27.7668   42.5488 H   0  0  0  0  0  0  0  0  0  0  0  0
   55.8963   29.6398   42.5442 H   0  0  0  0  0  0  0  0  0  0  0  0
   55.8565   31.2531   44.4588 H   0  0  0  0  0  0  0  0  0  0  0  0
   57.2059   32.3105   47.2820 H   0  0  0  0  0  0  0  0  0  0  0  0
   56.2794   33.5723   45.3513 H   0  0  0  0  0  0  0  0  0  0  0  0
   57.7203   35.1404   44.0631 H   0  0  0  0  0  0  0  0  0  0  0  0
   60.1144   35.4248   44.6820 H   0  0  0  0  0  0  0  0  0  0  0  0
   61.9210   34.8280   46.0620 H   0  0  0  0  0  0  0  0  0  0  0  0
   63.8865   34.3416   47.2424 H   0  0  0  0  0  0  0  0  0  0  0  0
  1  2  1  0
  2  3  1  0
  3  4  2  0
  4  5  1  0
  5  6  2  0
  6  7  1  0
  7  8  1  0
  8  9  1  0
  9 10  1  0
 10 11  1  0
 11 12  1  0
 12 13  2  0
 13 14  1  0
 14 15  2  0
 15 16  1  0
 16 17  2  0
  7 18  2  0
 18 19  1  0
 19 20  2  0
 20 21  1  0
 21 22  2  0
 22 23  1  0
 23 24  2  0
 24 25  1  0
 25 26  2  0
 26  3  1  0
 25  6  1  0
 17 12  1  0
 23 18  1  0
  1 27  1  0
  1 28  1  0
  1 29  1  0
  4 30  1  0
  5 31  1  0
  8 32  1  0
  8 33  1  0
  9 34  1  0
  9 35  1  0
 10 36  1  0
 11 37  1  0
 11 38  1  0
 13 39  1  0
 14 40  1  0
 15 41  1  0
 16 42  1  0
 19 43  1  0
 20 44  1  0
 21 45  1  0
 22 46  1  0
 24 47  1  0
 26 48  1  0
M  CHG  1  24   1
M  END
>  <UniqueID>  (17) 
16

>  <SMILES>  (17) 
COc1ccc2c(CCNCc3ccccn3)c3ccccc3[nH+]c2c1

>  <Energy>  (17) 
61.10194388657529

>  <Genealogy>  (17) 
COc1ccc2c(CCNCc3ccccn3)c3ccccc3[nH+]c2c1 (protonated)
COc1ccc2c(CCNCc3ccccn3)c3ccccc3[nH+]c2c1 (3D coordinates assigned)
COc1ccc2c(CCNCc3ccccn3)c3ccccc3[nH+]c2c1 (optimized conformer: 61.10194388657529 kcal/mol)

>  <smiles>  (17) 
COc1ccc2c(CCNCc3ccccn3)c3ccccc3nc2c1

>  <score_type>  (17) 
oracle

>  <origin>  (17) 
adg

>  <m_score__min__energy>  (17) 
-6.4900000000000002

>  <m_primary>  (17) 
energy

$$$$
17:0
     RDKit          3D

 61 65  0  0  0  0  0  0  0  0999 V2000
   57.4280   32.3560   40.6590 C   0  0  0  0  0  0  0  0  0  0  0  0
   58.1440   32.0970   41.9840 C   0  0  0  0  0  0  0  0  0  0  0  0
   57.4060   32.7160   43.1810 C   0  0  0  0  0  0  0  0  0  0  0  0
   57.8850   32.1480   44.4620 N   0  0  0  0  0  0  0  0  0  0  0  0
   58.3010   32.9940   45.4630 C   0  0  0  0  0  0  0  0  0  0  0  0
   58.3130   34.2440   45.2870 O   0  0  0  0  0  0  0  0  0  0  0  0
   58.7190   32.4450   46.6760 C   0  0  0  0  0  0  0  0  0  0  0  0
   58.6990   31.0880   46.8560 C   0  0  0  0  0  0  0  0  0  0  0  0
   59.1800   30.8440   48.1450 C   0  0  0  0  0  0  0  0  0  0  0  0
   59.5080   32.0920   48.6560 C   0  0  0  0  0  0  0  0  0  0  0  0
   59.2060   33.0760   47.7700 N   0  0  0  0  0  0  0  0  0  0  0  0
   59.3700   34.5190   47.9580 C   0  0  0  0  0  0  0  0  0  0  0  0
   60.1050   32.2860   49.9900 C   0  0  0  0  0  0  0  0  0  0  0  0
   61.0670   33.0950   50.1190 O   0  0  0  0  0  0  0  0  0  0  0  0
   59.6920   31.4380   51.0930 N   0  0  2  0  0  0  0  0  0  0  0  0
   59.6580   32.2070   52.3830 C   0  0  0  0  0  0  0  0  0  0  0  0
   58.6820   33.3880   52.3270 C   0  0  0  0  0  0  0  0  0  0  0  0
   60.5100   30.1800   51.0940 C   0  0  0  0  0  0  0  0  0  0  0  0
   60.2050   29.2210   52.2580 C   0  0  0  0  0  0  0  0  0  0  0  0
   61.6410   29.3750   52.7550 C   0  0  0  0  0  0  0  0  0  0  0  0
   61.9510   30.3430   51.6160 C   0  0  0  0  0  0  0  0  0  0  0  0
   60.4620   29.4460   49.8010 N   0  0  0  0  0  0  0  0  0  0  0  0
   61.2770   28.3780   49.6200 O   0  0  0  0  0  0  0  0  0  0  0  0
   59.3670   29.5810   48.8850 C   0  0  0  0  0  0  0  0  0  0  0  0
   58.5590   28.6260   48.7460 O   0  0  0  0  0  0  0  0  0  0  0  0
   58.3410   30.2370   45.8470 N   0  0  0  0  0  0  0  0  0  0  0  0
   58.4920   28.8120   45.9550 C   0  0  0  0  0  0  0  0  0  0  0  0
   59.7730   28.2360   45.9610 C   0  0  0  0  0  0  0  0  0  0  0  0
   59.9170   26.8460   46.0270 C   0  0  0  0  0  0  0  0  0  0  0  0
   58.7850   26.0260   46.0770 C   0  0  0  0  0  0  0  0  0  0  0  0
   57.5070   26.5920   46.0580 C   0  0  0  0  0  0  0  0  0  0  0  0
   57.3580   27.9810   45.9910 C   0  0  0  0  0  0  0  0  0  0  0  0
   57.9160   30.7790   44.6520 C   0  0  0  0  0  0  0  0  0  0  0  0
   57.5660   30.0080   43.7120 O   0  0  0  0  0  0  0  0  0  0  0  0
   56.4106   32.7240   40.8578 H   0  0  0  0  0  0  0  0  0  0  0  0
   57.9845   33.1098   40.0827 H   0  0  0  0  0  0  0  0  0  0  0  0
   57.3735   31.4206   40.0827 H   0  0  0  0  0  0  0  0  0  0  0  0
   58.2183   31.0105   42.1386 H   0  0  0  0  0  0  0  0  0  0  0  0
   59.1376   32.5653   41.9247 H   0  0  0  0  0  0  0  0  0  0  0  0
   57.5776   33.8025   43.1846 H   0  0  0  0  0  0  0  0  0  0  0  0
   56.3339   32.4911   43.0813 H   0  0  0  0  0  0  0  0  0  0  0  0
   59.3960   34.7480   49.0336 H   0  0  0  0  0  0  0  0  0  0  0  0
   60.3110   34.8450   47.4908 H   0  0  0  0  0  0  0  0  0  0  0  0
   58.5262   35.0479   47.4908 H   0  0  0  0  0  0  0  0  0  0  0  0
   58.7110   31.1330   50.8860 H   0  0  0  0  0  0  0  0  0  0  0  0
   59.3477   31.5289   53.1917 H   0  0  0  0  0  0  0  0  0  0  0  0
   60.6657   32.6096   52.5631 H   0  0  0  0  0  0  0  0  0  0  0  0
   58.4244   33.6996   53.3500 H   0  0  0  0  0  0  0  0  0  0  0  0
   59.1530   34.2280   51.7954 H   0  0  0  0  0  0  0  0  0  0  0  0
   57.7683   33.0837   51.7954 H   0  0  0  0  0  0  0  0  0  0  0  0
   59.4439   29.5931   52.9596 H   0  0  0  0  0  0  0  0  0  0  0  0
   59.7855   28.2229   52.0637 H   0  0  0  0  0  0  0  0  0  0  0  0
   61.7211   29.8235   53.7562 H   0  0  0  0  0  0  0  0  0  0  0  0
   62.2692   28.4850   52.9076 H   0  0  0  0  0  0  0  0  0  0  0  0
   62.1972   31.3628   51.9466 H   0  0  0  0  0  0  0  0  0  0  0  0
   62.8095   30.1671   50.9511 H   0  0  0  0  0  0  0  0  0  0  0  0
   60.6644   28.8788   45.9137 H   0  0  0  0  0  0  0  0  0  0  0  0
   60.9214   26.3976   46.0396 H   0  0  0  0  0  0  0  0  0  0  0  0
   58.9007   24.9334   46.1314 H   0  0  0  0  0  0  0  0  0  0  0  0
   56.6183   25.9448   46.0957 H   0  0  0  0  0  0  0  0  0  0  0  0
   56.3516   28.4245   45.9664 H   0  0  0  0  0  0  0  0  0  0  0  0
  1  2  1  0
  2  3  1  0
  3  4  1  0
  4  5  1  0
  5  6  2  0
  5  7  1  0
  7  8  2  0
  8  9  1  0
  9 10  2  0
 10 11  1  0
 11 12  1  0
 10 13  1  0
 13 14  2  0
 13 15  1  0
 15 16  1  0
 16 17  1  0
 15 18  1  0
 18 19  1  0
 19 20  1  0
 20 21  1  0
 18 22  1  0
 22 23  1  0
 22 24  1  0
 24 25  2  0
  8 26  1  0
 26 27  1  0
 27 28  2  0
 28 29  1  0
 29 30  2  0
 30 31  1  0
 31 32  2  0
 26 33  1  0
 33 34  2  0
 33  4  1  0
 11  7  1  0
 21 18  1  0
 32 27  1  0
 24  9  1  0
  1 35  1  0
  1 36  1  0
  1 37  1  0
  2 38  1  0
  2 39  1  0
  3 40  1  0
  3 41  1  0
 12 42  1  0
 12 43  1  0
 12 44  1  0
 15 45  1  6
 16 46  1  0
 16 47  1  0
 17 48  1  0
 17 49  1  0
 17 50  1  0
 19 51  1  0
 19 52  1  0
 20 53  1  0
 20 54  1  0
 21 55  1  0
 21 56  1  0
 28 57  1  0
 29 58  1  0
 30 59  1  0
 31 60  1  0
 32 61  1  0
M  CHG  2  15   1  23  -1
M  END
>  <UniqueID>  (18) 
17

>  <SMILES>  (18) 
CCCn1c(=O)c2c(c3c(n2C)C(=O)[N@H+](CC)C2(CCC2)N([O-])C3=O)n(-c2ccccc2)c1=O

>  <Energy>  (18) 
206.18048848077504

>  <Genealogy>  (18) 
CCCn1c(=O)c2c(c3c(n2C)C(=O)[NH+](CC)C2(CCC2)N([O-])C3=O)n(-c2ccccc2)c1=O (protonated)
CCCn1c(=O)c2c(c3c(n2C)C(=O)[N@H+](CC)C2(CCC2)N([O-])C3=O)n(-c2ccccc2)c1=O (chirality)
CCCn1c(=O)c2c(c3c(n2C)C(=O)[N@H+](CC)C2(CCC2)N([O-])C3=O)n(-c2ccccc2)c1=O (3D coordinates assigned)
CCCn1c(=O)c2c(c3c(n2C)C(=O)[N@H+](CC)C2(CCC2)N([O-])C3=O)n(-c2ccccc2)c1=O (nonaromatic ring conformer: 206.18048848077504 kcal/mol)

>  <smiles>  (18) 
CCCn1c(=O)c2c(c3c(n2C)C(=O)N(CC)C2(CCC2)N(O)C3=O)n(-c2ccccc2)c1=O

>  <score_type>  (18) 
oracle

>  <origin>  (18) 
adg

>  <m_score__min__energy>  (18) 
-7.6399999999999997

>  <m_primary>  (18) 
energy

$$$$
18:0
     RDKit          3D

 44 47  0  0  0  0  0  0  0  0999 V2000
   65.7330   33.2640   50.6580 C   0  0  0  0  0  0  0  0  0  0  0  0
   65.3270   32.7870   49.3790 O   0  0  0  0  0  0  0  0  0  0  0  0
   64.1350   33.1560   48.7390 C   0  0  0  0  0  0  0  0  0  0  0  0
   64.1020   33.1510   47.3400 C   0  0  0  0  0  0  0  0  0  0  0  0
   62.9380   33.5110   46.6550 C   0  0  0  0  0  0  0  0  0  0  0  0
   61.7850   33.8820   47.3640 C   0  0  0  0  0  0  0  0  0  0  0  0
   60.5400   34.2830   46.6180 C   0  0  0  0  0  0  0  0  0  0  0  0
   59.3390   33.9260   47.4010 N   0  0  0  0  0  0  0  0  0  0  0  0
   59.3680   32.5320   47.8700 C   0  0  0  0  0  0  0  0  0  0  0  0
   58.2930   31.7440   47.1340 C   0  0  2  0  0  0  0  0  0  0  0  0
   58.7370   31.0830   45.8240 C   0  0  0  0  0  0  0  0  0  0  0  0
   57.7850   32.0150   45.0540 C   0  0  1  0  0  0  0  0  0  0  0  0
   58.4200   32.7840   43.9010 C   0  0  0  0  0  0  0  0  0  0  0  0
   58.1520   31.8880   42.7130 C   0  0  0  0  0  0  0  0  0  0  0  0
   56.9030   31.0910   43.0860 C   0  0  0  0  0  0  0  0  0  0  0  0
   56.6150   31.3180   44.5050 N   0  0  0  0  0  0  0  0  0  0  0  0
   57.4470   32.7440   46.3720 C   0  0  2  0  0  0  0  0  0  0  0  0
   58.0890   34.1110   46.6410 C   0  0  0  0  0  0  0  0  0  0  0  0
   61.8140   33.8900   48.7670 C   0  0  0  0  0  0  0  0  0  0  0  0
   62.9780   33.5290   49.4510 C   0  0  0  0  0  0  0  0  0  0  0  0
   65.2338   32.6775   51.4434 H   0  0  0  0  0  0  0  0  0  0  0  0
   66.8233   33.1593   50.7592 H   0  0  0  0  0  0  0  0  0  0  0  0
   65.4554   34.3236   50.7592 H   0  0  0  0  0  0  0  0  0  0  0  0
   64.9999   32.8612   46.7745 H   0  0  0  0  0  0  0  0  0  0  0  0
   62.9256   33.5035   45.5551 H   0  0  0  0  0  0  0  0  0  0  0  0
   60.5528   35.3696   46.4473 H   0  0  0  0  0  0  0  0  0  0  0  0
   60.5117   33.7520   45.6551 H   0  0  0  0  0  0  0  0  0  0  0  0
   60.3551   32.0928   47.6632 H   0  0  0  0  0  0  0  0  0  0  0  0
   59.1803   32.4983   48.9533 H   0  0  0  0  0  0  0  0  0  0  0  0
   57.9017   31.0764   47.9158 H   0  0  0  0  0  0  0  0  0  0  0  0
   59.8010   31.2254   45.5839 H   0  0  0  0  0  0  0  0  0  0  0  0
   58.6818   29.9918   45.6969 H   0  0  0  0  0  0  0  0  0  0  0  0
   57.9443   33.7673   43.7710 H   0  0  0  0  0  0  0  0  0  0  0  0
   59.4885   32.9955   44.0547 H   0  0  0  0  0  0  0  0  0  0  0  0
   57.9706   32.4890   41.8097 H   0  0  0  0  0  0  0  0  0  0  0  0
   59.0070   31.2324   42.4913 H   0  0  0  0  0  0  0  0  0  0  0  0
   56.0518   31.4275   42.4759 H   0  0  0  0  0  0  0  0  0  0  0  0
   57.0697   30.0195   42.9012 H   0  0  0  0  0  0  0  0  0  0  0  0
   56.4300   30.4060   44.9840 H   0  0  0  0  0  0  0  0  0  0  0  0
   56.3797   32.9591   46.5288 H   0  0  0  0  0  0  0  0  0  0  0  0
   58.3114   34.6063   45.6843 H   0  0  0  0  0  0  0  0  0  0  0  0
   57.3944   34.7340   47.2236 H   0  0  0  0  0  0  0  0  0  0  0  0
   60.9160   34.1819   49.3312 H   0  0  0  0  0  0  0  0  0  0  0  0
   62.9909   33.5361   50.5509 H   0  0  0  0  0  0  0  0  0  0  0  0
  1  2  1  0
  2  3  1  0
  3  4  2  0
  4  5  1  0
  5  6  2  0
  6  7  1  0
  7  8  1  0
  8  9  1  0
  9 10  1  0
 10 11  1  0
 11 12  1  0
 12 13  1  0
 13 14  1  0
 14 15  1  0
 15 16  1  0
 12 17  1  0
 17 18  1  0
  6 19  1  0
 19 20  2  0
 20  3  1  0
 18  8  1  0
 17 10  1  0
 12 16  1  6
  1 21  1  0
  1 22  1  0
  1 23  1  0
  4 24  1  0
  5 25  1  0
  7 26  1  0
  7 27  1  0
  9 28  1  0
  9 29  1  0
 10 30  1  1
 11 31  1  0
 11 32  1  0
 13 33  1  0
 13 34  1  0
 14 35  1  0
 14 36  1  0
 15 37  1  0
 15 38  1  0
 16 39  1  0
 17 40  1  1
 18 41  1  0
 18 42  1  0
 19 43  1  0
 20 44  1  0
M  END
>  <UniqueID>  (19) 
18

>  <SMILES>  (19) 
COc1ccc(CN2CC3[C@H](C2)C[C@]32CCCN2)cc1

>  <Energy>  (19) 
118.49239235676785

>  <Genealogy>  (19) 
COc1ccc(CN2CC3[C@H](C2)C[C@]32CCCN2)cc1 (chirality)
COc1ccc(CN2CC3[C@H](C2)C[C@]32CCCN2)cc1 (3D coordinates assigned)
COc1ccc(CN2CC3[C@H](C2)C[C@]32CCCN2)cc1 (nonaromatic ring conformer: 118.49239235676785 kcal/mol)

>  <smiles>  (19) 
COc1ccc(CN2CC3CC4(CCCN4)C3C2)cc1

>  <score_type>  (19) 
oracle

>  <origin>  (19) 
adg

>  <m_score__min__energy>  (19) 
-7.7800000000000002

>  <m_primary>  (19) 
energy

$$$$
19:0
     RDKit          3D

 41 43  0  0  0  0  0  0  0  0999 V2000
   57.0410   33.6100   44.9750 C   0  0  0  0  0  0  0  0  0  0  0  0
   57.4990   32.1870   44.5970 C   0  0  0  0  0  0  0  0  0  0  0  0
   58.1360   32.2530   43.1920 C   0  0  0  0  0  0  0  0  0  0  0  0
   56.3380   31.3580   44.5330 O   0  0  0  0  0  0  0  0  0  0  0  0
   56.3460   29.9940   44.8450 C   0  0  0  0  0  0  0  0  0  0  0  0
   55.1600   29.2280   44.6440 N   0  0  0  0  0  0  0  0  0  0  0  0
   57.4000   29.4230   45.3470 N   0  0  0  0  0  0  0  0  0  0  0  0
   58.6900   30.0860   45.5940 C   0  0  2  0  0  0  0  0  0  0  0  0
   59.6350   29.6660   44.4360 C   0  0  0  0  0  0  0  0  0  0  0  0
   59.2750   29.5880   46.9330 C   0  0  0  0  0  0  0  0  0  0  0  0
   60.2510   30.3430   47.6240 C   0  0  0  0  0  0  0  0  0  0  0  0
   60.8090   29.8630   48.8220 C   0  0  0  0  0  0  0  0  0  0  0  0
   61.7920   30.6230   49.5530 N   0  0  0  0  0  0  0  0  0  0  0  0
   62.4260   31.7230   49.0980 C   0  0  0  0  0  0  0  0  0  0  0  0
   63.2740   32.1860   50.0850 C   0  0  0  0  0  0  0  0  0  0  0  0
   63.1010   31.3120   51.1410 C   0  0  0  0  0  0  0  0  0  0  0  0
   62.1980   30.3790   50.7900 N   0  0  0  0  0  0  0  0  0  0  0  0
   60.4050   28.6580   49.3060 N   0  0  0  0  0  0  0  0  0  0  0  0
   59.4940   27.8890   48.6610 C   0  0  0  0  0  0  0  0  0  0  0  0
   58.9250   28.3240   47.4640 C   0  0  0  0  0  0  0  0  0  0  0  0
   58.0410   27.5080   46.8390 F   0  0  0  0  0  0  0  0  0  0  0  0
   58.4760   31.6380   45.6850 C   0  0  0  0  0  0  0  0  0  0  0  0
   59.6880   32.3080   45.6150 F   0  0  0  0  0  0  0  0  0  0  0  0
   57.9300   31.9150   46.9330 F   0  0  0  0  0  0  0  0  0  0  0  0
   57.0100   33.7064   46.0703 H   0  0  0  0  0  0  0  0  0  0  0  0
   57.7481   34.3446   44.5622 H   0  0  0  0  0  0  0  0  0  0  0  0
   56.0382   33.7942   44.5622 H   0  0  0  0  0  0  0  0  0  0  0  0
   59.2259   32.3659   43.2885 H   0  0  0  0  0  0  0  0  0  0  0  0
   57.9105   31.3267   42.6433 H   0  0  0  0  0  0  0  0  0  0  0  0
   57.7254   33.1134   42.6433 H   0  0  0  0  0  0  0  0  0  0  0  0
   55.1370   28.2120   44.8830 H   0  0  0  0  0  0  0  0  0  0  0  0
   54.3050   29.6800   44.2540 H   0  0  0  0  0  0  0  0  0  0  0  0
   60.5650   29.2526   44.8533 H   0  0  0  0  0  0  0  0  0  0  0  0
   59.1400   28.9032   43.8171 H   0  0  0  0  0  0  0  0  0  0  0  0
   59.8695   30.5446   43.8171 H   0  0  0  0  0  0  0  0  0  0  0  0
   60.5762   31.3135   47.2210 H   0  0  0  0  0  0  0  0  0  0  0  0
   62.2902   32.1764   48.1050 H   0  0  0  0  0  0  0  0  0  0  0  0
   63.9411   33.0595   50.0401 H   0  0  0  0  0  0  0  0  0  0  0  0
   63.6175   31.3698   52.1105 H   0  0  0  0  0  0  0  0  0  0  0  0
   61.8560   29.6140   51.4110 H   0  0  0  0  0  0  0  0  0  0  0  0
   59.2018   26.9165   49.0839 H   0  0  0  0  0  0  0  0  0  0  0  0
  1  2  1  0
  2  3  1  0
  2  4  1  0
  4  5  1  0
  5  6  1  0
  5  7  2  0
  7  8  1  0
  8  9  1  6
  8 10  1  0
 10 11  2  0
 11 12  1  0
 12 13  1  0
 13 14  1  0
 14 15  2  0
 15 16  1  0
 16 17  2  0
 12 18  2  0
 18 19  1  0
 19 20  2  0
 20 21  1  0
  8 22  1  0
 22 23  1  0
 22 24  1  0
 22  2  1  0
 20 10  1  0
 17 13  1  0
  1 25  1  0
  1 26  1  0
  1 27  1  0
  3 28  1  0
  3 29  1  0
  3 30  1  0
  6 31  1  0
  6 32  1  0
  9 33  1  0
  9 34  1  0
  9 35  1  0
 11 36  1  0
 14 37  1  0
 15 38  1  0
 16 39  1  0
 17 40  1  0
 19 41  1  0
M  CHG  1  17   1
M  END
>  <UniqueID>  (20) 
19

>  <SMILES>  (20) 
CC1(C)OC(N)=N[C@](C)(c2cc(-n3ccc[nH+]3)ncc2F)C1(F)F

>  <Energy>  (20) 
85.83354810589609

>  <Genealogy>  (20) 
CC1(C)OC(N)=NC(C)(c2cc(-n3ccc[nH+]3)ncc2F)C1(F)F (protonated)
CC1(C)OC(N)=N[C@](C)(c2cc(-n3ccc[nH+]3)ncc2F)C1(F)F (chirality)
CC1(C)OC(N)=N[C@](C)(c2cc(-n3ccc[nH+]3)ncc2F)C1(F)F (3D coordinates assigned)
CC1(C)OC(N)=N[C@](C)(c2cc(-n3ccc[nH+]3)ncc2F)C1(F)F (nonaromatic ring conformer: 85.83354810589609 kcal/mol)

>  <smiles>  (20) 
CC1(C)OC(N)=NC(C)(c2cc(-n3cccn3)ncc2F)C1(F)F

>  <score_type>  (20) 
oracle

>  <origin>  (20) 
adg

>  <m_score__min__energy>  (20) 
-5.9000000000000004

>  <m_primary>  (20) 
energy

$$$$
20:0
     RDKit          3D

 57 59  0  0  0  0  0  0  0  0999 V2000
   56.9930   30.8980   42.9310 C   0  0  0  0  0  0  0  0  0  0  0  0
   56.0560   29.8030   43.4280 C   0  0  0  0  0  0  0  0  0  0  0  0
   56.0940   29.7130   44.8520 O   0  0  0  0  0  0  0  0  0  0  0  0
   57.2010   29.3100   45.6160 C   0  0  0  0  0  0  0  0  0  0  0  0
   57.3760   27.9880   46.0720 C   0  0  0  0  0  0  0  0  0  0  0  0
   58.4990   27.6450   46.8290 C   0  0  0  0  0  0  0  0  0  0  0  0
   59.4670   28.6120   47.1390 C   0  0  0  0  0  0  0  0  0  0  0  0
   60.6700   28.2530   47.9730 C   0  0  0  0  0  0  0  0  0  0  0  0
   60.3010   28.1110   49.3950 N   0  0  0  0  0  0  0  0  0  0  0  0
   60.7640   26.8290   49.9540 C   0  0  0  0  0  0  0  0  0  0  0  0
   60.7330   29.2690   50.2140 C   0  0  0  0  0  0  0  0  0  0  0  0
   59.9630   30.5470   49.9390 C   0  0  0  0  0  0  0  0  0  0  0  0
   58.7240   30.9200   50.4540 C   0  0  0  0  0  0  0  0  0  0  0  0
   57.8420   30.1410   51.3800 C   0  0  0  0  0  0  0  0  0  0  0  0
   58.4320   32.1650   50.0350 N   0  0  0  0  0  0  0  0  0  0  0  0
   59.4030   32.5930   49.2460 N   0  0  0  0  0  0  0  0  0  0  0  0
   59.4600   33.9510   48.7000 C   0  0  0  0  0  0  0  0  0  0  0  0
   58.8910   33.9690   47.3070 C   0  0  0  0  0  0  0  0  0  0  0  0
   59.6010   34.5640   46.2510 C   0  0  0  0  0  0  0  0  0  0  0  0
   59.0480   34.6100   44.9680 C   0  0  0  0  0  0  0  0  0  0  0  0
   57.7830   34.0630   44.7310 C   0  0  0  0  0  0  0  0  0  0  0  0
   57.0710   33.4700   45.7760 C   0  0  0  0  0  0  0  0  0  0  0  0
   57.6200   33.4230   47.0610 C   0  0  0  0  0  0  0  0  0  0  0  0
   60.3480   31.6280   49.1450 C   0  0  0  0  0  0  0  0  0  0  0  0
   61.6170   31.7620   48.3520 C   0  0  0  0  0  0  0  0  0  0  0  0
   59.2940   29.9280   46.6870 C   0  0  0  0  0  0  0  0  0  0  0  0
   58.1710   30.2700   45.9290 C   0  0  0  0  0  0  0  0  0  0  0  0
   57.4382   31.4183   43.7919 H   0  0  0  0  0  0  0  0  0  0  0  0
   57.7909   30.4490   42.3212 H   0  0  0  0  0  0  0  0  0  0  0  0
   56.4261   31.6169   42.3212 H   0  0  0  0  0  0  0  0  0  0  0  0
   55.0292   30.0341   43.1083 H   0  0  0  0  0  0  0  0  0  0  0  0
   56.3808   28.8411   43.0045 H   0  0  0  0  0  0  0  0  0  0  0  0
   56.6243   27.2221   45.8306 H   0  0  0  0  0  0  0  0  0  0  0  0
   58.6249   26.6114   47.1838 H   0  0  0  0  0  0  0  0  0  0  0  0
   61.0874   27.3013   47.6124 H   0  0  0  0  0  0  0  0  0  0  0  0
   61.4142   29.0578   47.8815 H   0  0  0  0  0  0  0  0  0  0  0  0
   60.7456   26.8800   51.0527 H   0  0  0  0  0  0  0  0  0  0  0  0
   60.1013   26.0198   49.6134 H   0  0  0  0  0  0  0  0  0  0  0  0
   61.7908   26.6299   49.6134 H   0  0  0  0  0  0  0  0  0  0  0  0
   60.6025   29.0091   51.2749 H   0  0  0  0  0  0  0  0  0  0  0  0
   61.7820   29.4690   49.9502 H   0  0  0  0  0  0  0  0  0  0  0  0
   58.1067   30.3748   52.4218 H   0  0  0  0  0  0  0  0  0  0  0  0
   56.7911   30.4111   51.1992 H   0  0  0  0  0  0  0  0  0  0  0  0
   57.9802   29.0648   51.1992 H   0  0  0  0  0  0  0  0  0  0  0  0
   57.5870   32.7220   50.3000 H   0  0  0  0  0  0  0  0  0  0  0  0
   58.8750   34.6265   49.3414 H   0  0  0  0  0  0  0  0  0  0  0  0
   60.5080   34.2835   48.6667 H   0  0  0  0  0  0  0  0  0  0  0  0
   60.5961   34.9954   46.4344 H   0  0  0  0  0  0  0  0  0  0  0  0
   59.6082   35.0767   44.1444 H   0  0  0  0  0  0  0  0  0  0  0  0
   57.3485   34.0998   43.7211 H   0  0  0  0  0  0  0  0  0  0  0  0
   56.0765   33.0392   45.5877 H   0  0  0  0  0  0  0  0  0  0  0  0
   57.0551   32.9571   47.8819 H   0  0  0  0  0  0  0  0  0  0  0  0
   62.4711   31.8522   49.0393 H   0  0  0  0  0  0  0  0  0  0  0  0
   61.7488   30.8728   47.7180 H   0  0  0  0  0  0  0  0  0  0  0  0
   61.5602   32.6591   47.7180 H   0  0  0  0  0  0  0  0  0  0  0  0
   60.0451   30.6940   46.9300 H   0  0  0  0  0  0  0  0  0  0  0  0
   58.0478   31.3040   45.5746 H   0  0  0  0  0  0  0  0  0  0  0  0
  1  2  1  0
  2  3  1  0
  3  4  1  0
  4  5  2  0
  5  6  1  0
  6  7  2  0
  7  8  1  0
  8  9  1  0
  9 10  1  0
  9 11  1  0
 11 12  1  0
 12 13  1  0
 13 14  1  0
 13 15  2  0
 15 16  1  0
 16 17  1  0
 17 18  1  0
 18 19  2  0
 19 20  1  0
 20 21  2  0
 21 22  1  0
 22 23  2  0
 16 24  1  0
 24 25  1  0
  7 26  1  0
 26 27  2  0
 27  4  1  0
 24 12  2  0
 23 18  1  0
  1 28  1  0
  1 29  1  0
  1 30  1  0
  2 31  1  0
  2 32  1  0
  5 33  1  0
  6 34  1  0
  8 35  1  0
  8 36  1  0
 10 37  1  0
 10 38  1  0
 10 39  1  0
 11 40  1  0
 11 41  1  0
 14 42  1  0
 14 43  1  0
 14 44  1  0
 15 45  1  0
 17 46  1  0
 17 47  1  0
 19 48  1  0
 20 49  1  0
 21 50  1  0
 22 51  1  0
 23 52  1  0
 25 53  1  0
 25 54  1  0
 25 55  1  0
 26 56  1  0
 27 57  1  0
M  CHG  1  15   1
M  END
>  <UniqueID>  (21) 
20

>  <SMILES>  (21) 
CCOc1ccc(CN(C)Cc2c(C)[nH+]n(Cc3ccccc3)c2C)cc1

>  <Energy>  (21) 
86.07877006523734

>  <Genealogy>  (21) 
CCOc1ccc(CN(C)Cc2c(C)[nH+]n(Cc3ccccc3)c2C)cc1 (protonated)
CCOc1ccc(CN(C)Cc2c(C)[nH+]n(Cc3ccccc3)c2C)cc1 (3D coordinates assigned)
CCOc1ccc(CN(C)Cc2c(C)[nH+]n(Cc3ccccc3)c2C)cc1 (optimized conformer: 86.07877006523734 kcal/mol)

>  <smiles>  (21) 
CCOc1ccc(CN(C)Cc2c(C)nn(Cc3ccccc3)c2C)cc1

>  <score_type>  (21) 
oracle

>  <origin>  (21) 
adg

>  <m_score__min__energy>  (21) 
-7.0899999999999999

>  <m_primary>  (21) 
energy

$$$$
21:0
     RDKit          3D

 44 45  0  0  0  0  0  0  0  0999 V2000
   63.0070   33.1760   47.0820 C   0  0  0  0  0  0  0  0  0  0  0  0
   61.7700   33.8480   46.9910 O   0  0  0  0  0  0  0  0  0  0  0  0
   61.2510   34.1000   48.2830 C   0  0  0  0  0  0  0  0  0  0  0  0
   59.7640   34.4510   48.1990 C   0  0  0  0  0  0  0  0  0  0  0  0
   58.9710   33.2750   48.3380 O   0  0  0  0  0  0  0  0  0  0  0  0
   59.1110   32.1470   47.5190 C   0  0  0  0  0  0  0  0  0  0  0  0
   59.6560   31.1010   47.9680 O   0  0  0  0  0  0  0  0  0  0  0  0
   58.5980   32.1830   46.1320 C   0  0  0  0  0  0  0  0  0  0  0  0
   58.9480   33.2260   45.2550 C   0  0  0  0  0  0  0  0  0  0  0  0
   58.5020   33.2140   43.9310 C   0  0  0  0  0  0  0  0  0  0  0  0
   57.7190   32.1550   43.4620 C   0  0  0  0  0  0  0  0  0  0  0  0
   57.3650   31.1100   44.3240 C   0  0  0  0  0  0  0  0  0  0  0  0
   56.4490   29.7270   43.7310 S   0  0  0  0  0  0  0  0  0  0  0  0
   56.0460   29.9340   42.2980 O   0  0  0  0  0  0  0  0  0  0  0  0
   55.2160   29.5640   44.5740 O   0  0  0  0  0  0  0  0  0  0  0  0
   57.4210   28.2930   43.8480 N   0  0  0  0  0  0  0  0  0  0  0  0
   58.4110   28.1310   44.8760 C   0  0  0  0  0  0  0  0  0  0  0  0
   59.7200   28.6060   44.6850 C   0  0  0  0  0  0  0  0  0  0  0  0
   60.6730   28.4800   45.6970 C   0  0  0  0  0  0  0  0  0  0  0  0
   60.3320   27.8790   46.9070 C   0  0  0  0  0  0  0  0  0  0  0  0
   59.0360   27.4000   47.1120 C   0  0  0  0  0  0  0  0  0  0  0  0
   58.0620   27.5250   46.0990 C   0  0  0  0  0  0  0  0  0  0  0  0
   56.7410   27.0830   46.2840 O   0  0  0  0  0  0  0  0  0  0  0  0
   56.2860   25.7630   46.0020 C   0  0  0  0  0  0  0  0  0  0  0  0
   57.7830   31.1420   45.6610 C   0  0  0  0  0  0  0  0  0  0  0  0
   63.2697   33.0333   48.1406 H   0  0  0  0  0  0  0  0  0  0  0  0
   62.9292   32.1962   46.5882 H   0  0  0  0  0  0  0  0  0  0  0  0
   63.7867   33.7746   46.5882 H   0  0  0  0  0  0  0  0  0  0  0  0
   61.3773   33.2024   48.9062 H   0  0  0  0  0  0  0  0  0  0  0  0
   61.7939   34.9470   48.7277 H   0  0  0  0  0  0  0  0  0  0  0  0
   59.5114   35.1566   49.0042 H   0  0  0  0  0  0  0  0  0  0  0  0
   59.5584   34.9083   47.2199 H   0  0  0  0  0  0  0  0  0  0  0  0
   59.5759   34.0550   45.6135 H   0  0  0  0  0  0  0  0  0  0  0  0
   58.7678   34.0404   43.2554 H   0  0  0  0  0  0  0  0  0  0  0  0
   57.3809   32.1427   42.4153 H   0  0  0  0  0  0  0  0  0  0  0  0
   57.1090   27.4610   43.3000 H   0  0  0  0  0  0  0  0  0  0  0  0
   59.9953   29.0803   43.7314 H   0  0  0  0  0  0  0  0  0  0  0  0
   61.6947   28.8557   45.5391 H   0  0  0  0  0  0  0  0  0  0  0  0
   61.0852   27.7815   47.7027 H   0  0  0  0  0  0  0  0  0  0  0  0
   58.7735   26.9230   48.0678 H   0  0  0  0  0  0  0  0  0  0  0  0
   56.1020   25.2291   46.9460 H   0  0  0  0  0  0  0  0  0  0  0  0
   55.3532   25.8130   45.4211 H   0  0  0  0  0  0  0  0  0  0  0  0
   57.0514   25.2276   45.4211 H   0  0  0  0  0  0  0  0  0  0  0  0
   57.4691   30.3429   46.3486 H   0  0  0  0  0  0  0  0  0  0  0  0
  1  2  1  0
  2  3  1  0
  3  4  1  0
  4  5  1  0
  5  6  1  0
  6  7  2  0
  6  8  1  0
  8  9  2  0
  9 10  1  0
 10 11  2  0
 11 12  1  0
 12 13  1  0
 13 14  2  0
 13 15  2  0
 13 16  1  0
 16 17  1  0
 17 18  2  0
 18 19  1  0
 19 20  2  0
 20 21  1  0
 21 22  2  0
 22 23  1  0
 23 24  1  0
 12 25  2  0
 25  8  1  0
 22 17  1  0
  1 26  1  0
  1 27  1  0
  1 28  1  0
  3 29  1  0
  3 30  1  0
  4 31  1  0
  4 32  1  0
  9 33  1  0
 10 34  1  0
 11 35  1  0
 16 36  1  0
 18 37  1  0
 19 38  1  0
 20 39  1  0
 21 40  1  0
 24 41  1  0
 24 42  1  0
 24 43  1  0
 25 44  1  0
M  END
>  <UniqueID>  (22) 
21

>  <SMILES>  (22) 
COCCOC(=O)c1cccc(S(=O)(=O)Nc2ccccc2OC)c1

>  <Energy>  (22) 
45.02865948952639

>  <Genealogy>  (22) 
COCCOC(=O)c1cccc(S(=O)(=O)Nc2ccccc2OC)c1 (3D coordinates assigned)
COCCOC(=O)c1cccc(S(=O)(=O)Nc2ccccc2OC)c1 (optimized conformer: 45.02865948952639 kcal/mol)

>  <smiles>  (22) 
COCCOC(=O)c1cccc(S(=O)(=O)Nc2ccccc2OC)c1

>  <score_type>  (22) 
oracle

>  <origin>  (22) 
adg

>  <m_score__min__energy>  (22) 
-8.1999999999999993

>  <m_primary>  (22) 
energy

$$$$
22:0
     RDKit          3D

 57 60  0  0  0  0  0  0  0  0999 V2000
   57.2870   29.5600   53.1800 C   0  0  0  0  0  0  0  0  0  0  0  0
   58.3320   29.3580   52.2330 O   0  0  0  0  0  0  0  0  0  0  0  0
   58.5110   30.1300   51.0760 C   0  0  0  0  0  0  0  0  0  0  0  0
   58.2440   31.5030   51.1440 C   0  0  0  0  0  0  0  0  0  0  0  0
   58.4090   32.3160   50.0190 C   0  0  0  0  0  0  0  0  0  0  0  0
   58.8600   31.7680   48.8080 C   0  0  0  0  0  0  0  0  0  0  0  0
   59.0370   32.6110   47.6060 C   0  0  0  0  0  0  0  0  0  0  0  0
   58.0390   32.7190   46.6860 N   0  0  0  0  0  0  0  0  0  0  0  0
   58.3540   33.5630   45.6810 C   0  0  0  0  0  0  0  0  0  0  0  0
   57.4680   33.8020   44.4940 C   0  0  0  0  0  0  0  0  0  0  0  0
   57.6810   32.7930   43.4440 N   0  0  0  0  0  0  0  0  0  0  0  0
   57.5300   31.4540   43.9610 C   0  0  0  0  0  0  0  0  0  0  0  0
   56.2690   30.8360   43.9760 C   0  0  0  0  0  0  0  0  0  0  0  0
   56.1180   29.5530   44.5020 C   0  0  0  0  0  0  0  0  0  0  0  0
   57.2210   28.8710   45.0180 C   0  0  0  0  0  0  0  0  0  0  0  0
   58.4970   29.4680   45.0200 C   0  0  0  0  0  0  0  0  0  0  0  0
   59.6630   28.7260   45.5700 C   0  0  0  0  0  0  0  0  0  0  0  0
   59.6240   27.2430   45.7960 C   0  0  0  0  0  0  0  0  0  0  0  0
   60.7200   29.3490   45.8620 O   0  0  0  0  0  0  0  0  0  0  0  0
   58.6370   30.7660   44.4900 C   0  0  0  0  0  0  0  0  0  0  0  0
   59.8950   34.2000   45.8730 S   0  0  0  0  0  0  0  0  0  0  0  0
   60.1810   33.3730   47.3120 C   0  0  0  0  0  0  0  0  0  0  0  0
   61.4720   33.3960   48.0340 C   0  0  0  0  0  0  0  0  0  0  0  0
   62.5780   32.6760   47.5540 C   0  0  0  0  0  0  0  0  0  0  0  0
   63.7910   32.6990   48.2480 C   0  0  0  0  0  0  0  0  0  0  0  0
   63.9220   33.4590   49.4260 C   0  0  0  0  0  0  0  0  0  0  0  0
   65.1150   33.5080   50.1620 O   0  0  0  0  0  0  0  0  0  0  0  0
   66.1130   32.4940   50.1390 C   0  0  0  0  0  0  0  0  0  0  0  0
   62.8270   34.1970   49.8850 C   0  0  0  0  0  0  0  0  0  0  0  0
   61.6120   34.1730   49.1930 C   0  0  0  0  0  0  0  0  0  0  0  0
   59.1090   30.3880   48.7320 C   0  0  0  0  0  0  0  0  0  0  0  0
   58.9430   29.5750   49.8570 C   0  0  0  0  0  0  0  0  0  0  0  0
   57.6949   29.4812   54.1985 H   0  0  0  0  0  0  0  0  0  0  0  0
   56.8501   30.5592   53.0363 H   0  0  0  0  0  0  0  0  0  0  0  0
   56.5092   28.7956   53.0363 H   0  0  0  0  0  0  0  0  0  0  0  0
   57.9014   31.9456   52.0910 H   0  0  0  0  0  0  0  0  0  0  0  0
   58.1842   33.3909   50.0830 H   0  0  0  0  0  0  0  0  0  0  0  0
   56.4179   33.7620   44.8191 H   0  0  0  0  0  0  0  0  0  0  0  0
   57.7138   34.7893   44.0758 H   0  0  0  0  0  0  0  0  0  0  0  0
   57.0170   32.9600   42.6510 H   0  0  0  0  0  0  0  0  0  0  0  0
   58.6490   32.9070   43.0620 H   0  0  0  0  0  0  0  0  0  0  0  0
   55.3951   31.3669   43.5705 H   0  0  0  0  0  0  0  0  0  0  0  0
   55.1263   29.0771   44.5102 H   0  0  0  0  0  0  0  0  0  0  0  0
   57.0928   27.8579   45.4269 H   0  0  0  0  0  0  0  0  0  0  0  0
   59.6186   27.0368   46.8765 H   0  0  0  0  0  0  0  0  0  0  0  0
   58.7146   26.8262   45.3386 H   0  0  0  0  0  0  0  0  0  0  0  0
   60.5103   26.7790   45.3386 H   0  0  0  0  0  0  0  0  0  0  0  0
   59.6258   31.2480   44.4899 H   0  0  0  0  0  0  0  0  0  0  0  0
   62.4892   32.0908   46.6268 H   0  0  0  0  0  0  0  0  0  0  0  0
   64.6476   32.1204   47.8720 H   0  0  0  0  0  0  0  0  0  0  0  0
   66.3819   32.2208   51.1700 H   0  0  0  0  0  0  0  0  0  0  0  0
   65.7242   31.6087   49.6146 H   0  0  0  0  0  0  0  0  0  0  0  0
   67.0044   32.8687   49.6146 H   0  0  0  0  0  0  0  0  0  0  0  0
   62.9220   34.8020   50.7987 H   0  0  0  0  0  0  0  0  0  0  0  0
   60.7617   34.7667   49.5597 H   0  0  0  0  0  0  0  0  0  0  0  0
   59.4369   29.9437   47.7806 H   0  0  0  0  0  0  0  0  0  0  0  0
   59.1509   28.4970   49.7892 H   0  0  0  0  0  0  0  0  0  0  0  0
  1  2  1  0
  2  3  1  0
  3  4  2  0
  4  5  1  0
  5  6  2  0
  6  7  1  0
  7  8  1  0
  8  9  2  0
  9 10  1  0
 10 11  1  0
 11 12  1  0
 12 13  2  0
 13 14  1  0
 14 15  2  0
 15 16  1  0
 16 17  1  0
 17 18  1  0
 17 19  2  0
 16 20  2  0
  9 21  1  0
 21 22  1  0
 22 23  1  0
 23 24  2  0
 24 25  1  0
 25 26  2  0
 26 27  1  0
 27 28  1  0
 26 29  1  0
 29 30  2  0
  6 31  1  0
 31 32  2  0
 32  3  1  0
 22  7  2  0
 30 23  1  0
 20 12  1  0
  1 33  1  0
  1 34  1  0
  1 35  1  0
  4 36  1  0
  5 37  1  0
 10 38  1  0
 10 39  1  0
 11 40  1  0
 11 41  1  0
 13 42  1  0
 14 43  1  0
 15 44  1  0
 18 45  1  0
 18 46  1  0
 18 47  1  0
 20 48  1  0
 24 49  1  0
 25 50  1  0
 28 51  1  0
 28 52  1  0
 28 53  1  0
 29 54  1  0
 30 55  1  0
 31 56  1  0
 32 57  1  0
M  CHG  1  11   1
M  END
>  <UniqueID>  (23) 
22

>  <SMILES>  (23) 
COc1ccc(-c2nc(C[NH2+]c3cccc(C(C)=O)c3)sc2-c2ccc(OC)cc2)cc1

>  <Energy>  (23) 
97.34317853542919

>  <Genealogy>  (23) 
COc1ccc(-c2nc(C[NH2+]c3cccc(C(C)=O)c3)sc2-c2ccc(OC)cc2)cc1 (protonated)
COc1ccc(-c2nc(C[NH2+]c3cccc(C(C)=O)c3)sc2-c2ccc(OC)cc2)cc1 (3D coordinates assigned)
COc1ccc(-c2nc(C[NH2+]c3cccc(C(C)=O)c3)sc2-c2ccc(OC)cc2)cc1 (optimized conformer: 97.34317853542919 kcal/mol)

>  <smiles>  (23) 
COc1ccc(-c2nc(CNc3cccc(C(C)=O)c3)sc2-c2ccc(OC)cc2)cc1

>  <score_type>  (23) 
oracle

>  <origin>  (23) 
adg

>  <m_score__min__energy>  (23) 
-6.9100000000000001

>  <m_primary>  (23) 
energy

$$$$
23:0
     RDKit          3D

 43 46  0  0  0  0  0  0  0  0999 V2000
   60.7550   27.0090   49.5210 C   0  0  0  0  0  0  0  0  0  0  0  0
   60.5160   27.0150   48.1170 O   0  0  0  0  0  0  0  0  0  0  0  0
   59.2480   26.9110   47.5220 C   0  0  0  0  0  0  0  0  0  0  0  0
   58.5690   25.6770   47.4450 C   0  0  0  0  0  0  0  0  0  0  0  0
   57.3290   25.5890   46.8090 C   0  0  0  0  0  0  0  0  0  0  0  0
   56.7530   26.7230   46.2400 C   0  0  0  0  0  0  0  0  0  0  0  0
   55.5500   26.6320   45.6190 F   0  0  0  0  0  0  0  0  0  0  0  0
   57.4080   27.9540   46.3120 C   0  0  0  0  0  0  0  0  0  0  0  0
   58.6510   28.0630   46.9620 C   0  0  0  0  0  0  0  0  0  0  0  0
   59.3140   29.3870   47.0380 C   0  0  0  0  0  0  0  0  0  0  0  0
   58.8380   30.5550   46.4700 C   0  0  0  0  0  0  0  0  0  0  0  0
   59.7410   31.5500   46.7990 C   0  0  0  0  0  0  0  0  0  0  0  0
   59.5980   32.9810   46.4520 C   0  0  0  0  0  0  0  0  0  0  0  0
   59.7990   33.9820   47.4160 C   0  0  0  0  0  0  0  0  0  0  0  0
   59.6460   35.3240   47.0610 C   0  0  0  0  0  0  0  0  0  0  0  0
   59.2940   35.6580   45.7920 N   0  0  0  0  0  0  0  0  0  0  0  0
   59.0800   34.7120   44.8400 C   0  0  0  0  0  0  0  0  0  0  0  0
   59.2220   33.3570   45.1530 C   0  0  0  0  0  0  0  0  0  0  0  0
   60.7370   30.9410   47.5600 C   0  0  0  0  0  0  0  0  0  0  0  0
   61.9730   31.5660   48.0770 C   0  0  0  0  0  0  0  0  0  0  0  0
   62.7000   32.4640   47.2760 C   0  0  0  0  0  0  0  0  0  0  0  0
   63.8750   33.0480   47.7580 C   0  0  0  0  0  0  0  0  0  0  0  0
   64.3390   32.7340   49.0380 C   0  0  0  0  0  0  0  0  0  0  0  0
   65.4800   33.3010   49.5030 F   0  0  0  0  0  0  0  0  0  0  0  0
   63.6300   31.8340   49.8370 C   0  0  0  0  0  0  0  0  0  0  0  0
   62.4530   31.2480   49.3610 C   0  0  0  0  0  0  0  0  0  0  0  0
   61.7680   30.3960   50.1650 F   0  0  0  0  0  0  0  0  0  0  0  0
   60.4610   29.6290   47.7040 N   0  0  0  0  0  0  0  0  0  0  0  0
   59.7945   27.0331   50.0566 H   0  0  0  0  0  0  0  0  0  0  0  0
   61.3050   26.0968   49.7954 H   0  0  0  0  0  0  0  0  0  0  0  0
   61.3501   27.8925   49.7954 H   0  0  0  0  0  0  0  0  0  0  0  0
   59.0197   24.7773   47.8893 H   0  0  0  0  0  0  0  0  0  0  0  0
   56.8060   24.6227   46.7571 H   0  0  0  0  0  0  0  0  0  0  0  0
   56.9492   28.8445   45.8575 H   0  0  0  0  0  0  0  0  0  0  0  0
   57.9210   30.6701   45.8735 H   0  0  0  0  0  0  0  0  0  0  0  0
   60.0755   33.7105   48.4455 H   0  0  0  0  0  0  0  0  0  0  0  0
   59.8108   36.1122   47.8104 H   0  0  0  0  0  0  0  0  0  0  0  0
   58.7945   35.0131   43.8213 H   0  0  0  0  0  0  0  0  0  0  0  0
   59.0401   32.5900   44.3858 H   0  0  0  0  0  0  0  0  0  0  0  0
   62.3424   32.7083   46.2649 H   0  0  0  0  0  0  0  0  0  0  0  0
   64.4350   33.7556   47.1289 H   0  0  0  0  0  0  0  0  0  0  0  0
   63.9985   31.5856   50.8432 H   0  0  0  0  0  0  0  0  0  0  0  0
   61.0340   28.9350   48.2340 H   0  0  0  0  0  0  0  0  0  0  0  0
  1  2  1  0
  2  3  1  0
  3  4  2  0
  4  5  1  0
  5  6  2  0
  6  7  1  0
  6  8  1  0
  8  9  2  0
  9 10  1  0
 10 11  2  0
 11 12  1  0
 12 13  1  0
 13 14  2  0
 14 15  1  0
 15 16  2  0
 16 17  1  0
 17 18  2  0
 12 19  2  0
 19 20  1  0
 20 21  2  0
 21 22  1  0
 22 23  2  0
 23 24  1  0
 23 25  1  0
 25 26  2  0
 26 27  1  0
 19 28  1  0
  9  3  1  0
 28 10  1  0
 18 13  1  0
 26 20  1  0
  1 29  1  0
  1 30  1  0
  1 31  1  0
  4 32  1  0
  5 33  1  0
  8 34  1  0
 11 35  1  0
 14 36  1  0
 15 37  1  0
 17 38  1  0
 18 39  1  0
 21 40  1  0
 22 41  1  0
 25 42  1  0
 28 43  1  0
M  END
>  <UniqueID>  (24) 
23

>  <SMILES>  (24) 
COc1ccc(F)cc1-c1cc(-c2ccncc2)c(-c2ccc(F)cc2F)[nH]1

>  <Energy>  (24) 
87.06923383480986

>  <Genealogy>  (24) 
COc1ccc(F)cc1-c1cc(-c2ccncc2)c(-c2ccc(F)cc2F)[nH]1 (3D coordinates assigned)
COc1ccc(F)cc1-c1cc(-c2ccncc2)c(-c2ccc(F)cc2F)[nH]1 (optimized conformer: 87.06923383480986 kcal/mol)

>  <smiles>  (24) 
COc1ccc(F)cc1-c1cc(-c2ccncc2)c(-c2ccc(F)cc2F)[nH]1

>  <score_type>  (24) 
oracle

>  <origin>  (24) 
adg

>  <m_score__min__energy>  (24) 
-7.1100000000000003

>  <m_primary>  (24) 
energy

$$$$
24:0
     RDKit          3D

 42 44  0  0  0  0  0  0  0  0999 V2000
   57.7030   26.8950   44.9360 C   0  0  0  0  0  0  0  0  0  0  0  0
   57.2220   27.9460   45.7690 O   0  0  0  0  0  0  0  0  0  0  0  0
   57.8830   29.1680   45.9700 C   0  0  0  0  0  0  0  0  0  0  0  0
   59.0130   29.2770   46.8020 C   0  0  0  0  0  0  0  0  0  0  0  0
   59.6440   30.5110   46.9810 C   0  0  0  0  0  0  0  0  0  0  0  0
   60.7480   30.5970   47.7670 N   0  0  0  0  0  0  0  0  0  0  0  0
   61.3960   31.7770   47.9540 C   0  0  0  0  0  0  0  0  0  0  0  0
   62.6060   31.8410   48.8100 C   0  0  0  0  0  0  0  0  0  0  0  0
   62.7020   31.0630   49.9770 C   0  0  0  0  0  0  0  0  0  0  0  0
   63.8510   31.1380   50.7680 C   0  0  0  0  0  0  0  0  0  0  0  0
   64.8750   31.9610   50.4150 N   0  0  0  0  0  0  0  0  0  0  0  0
   64.8110   32.7260   49.2920 C   0  0  0  0  0  0  0  0  0  0  0  0
   63.6820   32.6810   48.4720 C   0  0  0  0  0  0  0  0  0  0  0  0
   60.9230   32.9000   47.3510 N   0  0  0  0  0  0  0  0  0  0  0  0
   59.8150   32.8820   46.5630 C   0  0  0  0  0  0  0  0  0  0  0  0
   59.3570   34.1110   45.9790 N   0  0  0  0  0  0  0  0  0  0  0  0
   59.2770   35.3270   46.7890 C   0  0  0  0  0  0  0  0  0  0  0  0
   59.2210   34.2000   44.5260 C   0  0  0  0  0  0  0  0  0  0  0  0
   59.1440   31.6620   46.3410 C   0  0  0  0  0  0  0  0  0  0  0  0
   58.0280   31.5500   45.4950 C   0  0  0  0  0  0  0  0  0  0  0  0
   57.3910   30.3070   45.3130 C   0  0  0  0  0  0  0  0  0  0  0  0
   56.2670   30.1600   44.4830 O   0  0  0  0  0  0  0  0  0  0  0  0
   56.3190   29.7830   43.1110 C   0  0  0  0  0  0  0  0  0  0  0  0
   58.0791   26.0732   45.5630 H   0  0  0  0  0  0  0  0  0  0  0  0
   56.8839   26.5264   44.3009 H   0  0  0  0  0  0  0  0  0  0  0  0
   58.5173   27.2740   44.3009 H   0  0  0  0  0  0  0  0  0  0  0  0
   59.4020   28.3850   47.3147 H   0  0  0  0  0  0  0  0  0  0  0  0
   61.8753   30.3975   50.2663 H   0  0  0  0  0  0  0  0  0  0  0  0
   63.9281   30.5287   51.6806 H   0  0  0  0  0  0  0  0  0  0  0  0
   65.7270   32.0050   51.0160 H   0  0  0  0  0  0  0  0  0  0  0  0
   65.6529   33.3832   49.0287 H   0  0  0  0  0  0  0  0  0  0  0  0
   63.6342   33.3006   47.5644 H   0  0  0  0  0  0  0  0  0  0  0  0
   59.2946   35.0589   47.8557 H   0  0  0  0  0  0  0  0  0  0  0  0
   60.1343   35.9771   46.5601 H   0  0  0  0  0  0  0  0  0  0  0  0
   58.3419   35.8592   46.5601 H   0  0  0  0  0  0  0  0  0  0  0  0
   58.3245   34.7867   44.2769 H   0  0  0  0  0  0  0  0  0  0  0  0
   60.1099   34.6917   44.1040 H   0  0  0  0  0  0  0  0  0  0  0  0
   59.1263   33.1886   44.1040 H   0  0  0  0  0  0  0  0  0  0  0  0
   57.6488   32.4397   44.9708 H   0  0  0  0  0  0  0  0  0  0  0  0
   56.4689   28.6959   43.0349 H   0  0  0  0  0  0  0  0  0  0  0  0
   55.3744   30.0582   42.6191 H   0  0  0  0  0  0  0  0  0  0  0  0
   57.1538   30.3036   42.6191 H   0  0  0  0  0  0  0  0  0  0  0  0
  1  2  1  0
  2  3  1  0
  3  4  2  0
  4  5  1  0
  5  6  2  0
  6  7  1  0
  7  8  1  0
  8  9  2  0
  9 10  1  0
 10 11  2  0
 11 12  1  0
 12 13  2  0
  7 14  2  0
 14 15  1  0
 15 16  1  0
 16 17  1  0
 16 18  1  0
 15 19  2  0
 19 20  1  0
 20 21  2  0
 21 22  1  0
 22 23  1  0
 21  3  1  0
 19  5  1  0
 13  8  1  0
  1 24  1  0
  1 25  1  0
  1 26  1  0
  4 27  1  0
  9 28  1  0
 10 29  1  0
 11 30  1  0
 12 31  1  0
 13 32  1  0
 17 33  1  0
 17 34  1  0
 17 35  1  0
 18 36  1  0
 18 37  1  0
 18 38  1  0
 20 39  1  0
 23 40  1  0
 23 41  1  0
 23 42  1  0
M  CHG  1  11   1
M  END
>  <UniqueID>  (25) 
24

>  <SMILES>  (25) 
COc1cc2nc(-c3cc[nH+]cc3)nc(N(C)C)c2cc1OC

>  <Energy>  (25) 
51.79776814617987

>  <Genealogy>  (25) 
COc1cc2nc(-c3cc[nH+]cc3)nc(N(C)C)c2cc1OC (protonated)
COc1cc2nc(-c3cc[nH+]cc3)nc(N(C)C)c2cc1OC (3D coordinates assigned)
COc1cc2nc(-c3cc[nH+]cc3)nc(N(C)C)c2cc1OC (optimized conformer: 51.79776814617987 kcal/mol)

>  <smiles>  (25) 
COc1cc2nc(-c3ccncc3)nc(N(C)C)c2cc1OC

>  <score_type>  (25) 
oracle

>  <origin>  (25) 
adg

>  <m_score__min__energy>  (25) 
-5.0199999999999996

>  <m_primary>  (25) 
energy

$$$$
25:0
     RDKit          3D

 50 53  0  0  0  0  0  0  0  0999 V2000
   59.0060   32.8380   49.5500 C   0  0  0  0  0  0  0  0  0  0  0  0
   59.6710   33.7510   48.6820 O   0  0  0  0  0  0  0  0  0  0  0  0
   61.0360   33.6880   48.3550 C   0  0  0  0  0  0  0  0  0  0  0  0
   62.0400   33.7060   49.3450 C   0  0  0  0  0  0  0  0  0  0  0  0
   63.3870   33.6410   48.9860 C   0  0  0  0  0  0  0  0  0  0  0  0
   63.7510   33.5630   47.6420 C   0  0  0  0  0  0  0  0  0  0  0  0
   62.7680   33.5450   46.6520 C   0  0  0  0  0  0  0  0  0  0  0  0
   61.4050   33.5910   46.9980 C   0  0  0  0  0  0  0  0  0  0  0  0
   60.3900   33.6040   45.9800 N   0  0  0  0  0  0  0  0  0  0  0  0
   59.6000   34.7590   45.6630 C   0  0  0  0  0  0  0  0  0  0  0  0
   60.0010   35.9130   45.9750 O   0  0  0  0  0  0  0  0  0  0  0  0
   58.3180   34.6060   44.9000 C   0  0  0  0  0  0  0  0  0  0  0  0
   57.4780   33.6290   45.5160 O   0  0  0  0  0  0  0  0  0  0  0  0
   57.6920   32.2410   45.4840 C   0  0  0  0  0  0  0  0  0  0  0  0
   58.2630   31.6340   46.6060 C   0  0  0  0  0  0  0  0  0  0  0  0
   58.4880   30.2550   46.6330 C   0  0  0  0  0  0  0  0  0  0  0  0
   58.1450   29.4540   45.5280 C   0  0  0  0  0  0  0  0  0  0  0  0
   58.3830   27.9880   45.5540 C   0  0  0  0  0  0  0  0  0  0  0  0
   59.3790   27.4430   46.3830 C   0  0  0  0  0  0  0  0  0  0  0  0
   59.6070   26.0650   46.4130 C   0  0  0  0  0  0  0  0  0  0  0  0
   58.8410   25.2060   45.6140 C   0  0  0  0  0  0  0  0  0  0  0  0
   59.0620   23.8190   45.6370 C   0  0  0  0  0  0  0  0  0  0  0  0
   58.2920   22.9730   44.8350 C   0  0  0  0  0  0  0  0  0  0  0  0
   57.2990   23.5010   44.0050 C   0  0  0  0  0  0  0  0  0  0  0  0
   57.0690   24.8790   43.9730 C   0  0  0  0  0  0  0  0  0  0  0  0
   57.8350   25.7410   44.7750 C   0  0  0  0  0  0  0  0  0  0  0  0
   57.6140   27.1260   44.7510 C   0  0  0  0  0  0  0  0  0  0  0  0
   57.5770   30.0670   44.3970 C   0  0  0  0  0  0  0  0  0  0  0  0
   57.3540   31.4460   44.3730 C   0  0  0  0  0  0  0  0  0  0  0  0
   59.2069   33.1138   50.5957 H   0  0  0  0  0  0  0  0  0  0  0  0
   57.9228   32.8764   49.3623 H   0  0  0  0  0  0  0  0  0  0  0  0
   59.3748   31.8188   49.3623 H   0  0  0  0  0  0  0  0  0  0  0  0
   61.7598   33.7717   50.4067 H   0  0  0  0  0  0  0  0  0  0  0  0
   64.1635   33.6513   49.7650 H   0  0  0  0  0  0  0  0  0  0  0  0
   64.8138   33.5156   47.3622 H   0  0  0  0  0  0  0  0  0  0  0  0
   63.0609   33.4945   45.5929 H   0  0  0  0  0  0  0  0  0  0  0  0
   60.2320   32.7380   45.4170 H   0  0  0  0  0  0  0  0  0  0  0  0
   57.7927   35.5723   44.8789 H   0  0  0  0  0  0  0  0  0  0  0  0
   58.5523   34.2768   43.8769 H   0  0  0  0  0  0  0  0  0  0  0  0
   58.5380   32.2478   47.4764 H   0  0  0  0  0  0  0  0  0  0  0  0
   58.9365   29.7923   47.5245 H   0  0  0  0  0  0  0  0  0  0  0  0
   59.9853   28.1087   47.0148 H   0  0  0  0  0  0  0  0  0  0  0  0
   60.3905   25.6531   47.0661 H   0  0  0  0  0  0  0  0  0  0  0  0
   59.8427   23.3982   46.2877 H   0  0  0  0  0  0  0  0  0  0  0  0
   58.4678   21.8874   44.8568 H   0  0  0  0  0  0  0  0  0  0  0  0
   56.6968   22.8298   43.3751 H   0  0  0  0  0  0  0  0  0  0  0  0
   56.2863   25.2896   43.3182 H   0  0  0  0  0  0  0  0  0  0  0  0
   56.8323   27.5419   44.0984 H   0  0  0  0  0  0  0  0  0  0  0  0
   57.3059   29.4555   43.5237 H   0  0  0  0  0  0  0  0  0  0  0  0
   56.9117   31.9130   43.4806 H   0  0  0  0  0  0  0  0  0  0  0  0
  1  2  1  0
  2  3  1  0
  3  4  2  0
  4  5  1  0
  5  6  2  0
  6  7  1  0
  7  8  2  0
  8  9  1  0
  9 10  1  0
 10 11  2  0
 10 12  1  0
 12 13  1  0
 13 14  1  0
 14 15  2  0
 15 16  1  0
 16 17  2  0
 17 18  1  0
 18 19  2  0
 19 20  1  0
 20 21  2  0
 21 22  1  0
 22 23  2  0
 23 24  1  0
 24 25  2  0
 25 26  1  0
 26 27  2  0
 17 28  1  0
 28 29  2  0
  8  3  1  0
 29 14  1  0
 27 18  1  0
 26 21  1  0
  1 30  1  0
  1 31  1  0
  1 32  1  0
  4 33  1  0
  5 34  1  0
  6 35  1  0
  7 36  1  0
  9 37  1  0
 12 38  1  0
 12 39  1  0
 15 40  1  0
 16 41  1  0
 19 42  1  0
 20 43  1  0
 22 44  1  0
 23 45  1  0
 24 46  1  0
 25 47  1  0
 27 48  1  0
 28 49  1  0
 29 50  1  0
M  END
>  <UniqueID>  (26) 
25

>  <SMILES>  (26) 
COc1ccccc1NC(=O)COc1ccc(-c2ccc3ccccc3c2)cc1

>  <Energy>  (26) 
64.78785786765636

>  <Genealogy>  (26) 
COc1ccccc1NC(=O)COc1ccc(-c2ccc3ccccc3c2)cc1 (3D coordinates assigned)
COc1ccccc1NC(=O)COc1ccc(-c2ccc3ccccc3c2)cc1 (optimized conformer: 64.78785786765636 kcal/mol)

>  <smiles>  (26) 
COc1ccccc1NC(=O)COc1ccc(-c2ccc3ccccc3c2)cc1

>  <score_type>  (26) 
oracle

>  <origin>  (26) 
adg

>  <m_score__min__energy>  (26) 
-9.8499999999999996

>  <m_primary>  (26) 
energy

$$$$
26:0
     RDKit          3D

 49 51  0  0  0  0  0  0  0  0999 V2000
   58.0630   31.0990   51.1840 C   0  0  0  0  0  0  0  0  0  0  0  0
   58.2780   30.1390   50.1530 O   0  0  0  0  0  0  0  0  0  0  0  0
   58.9600   30.3830   48.9500 C   0  0  0  0  0  0  0  0  0  0  0  0
   59.1400   31.6980   48.4750 C   0  0  0  0  0  0  0  0  0  0  0  0
   59.8120   31.9480   47.2660 C   0  0  0  0  0  0  0  0  0  0  0  0
   60.0310   33.3490   46.7030 C   0  0  2  0  0  0  0  0  0  0  0  0
   59.7970   34.5430   47.6220 C   0  0  0  0  0  0  0  0  0  0  0  0
   59.6650   35.7090   46.6590 C   0  0  0  0  0  0  0  0  0  0  0  0
   59.4220   35.0810   45.2840 C   0  0  0  0  0  0  0  0  0  0  0  0
   59.2970   33.6240   45.4530 N   0  0  0  0  0  0  0  0  0  0  0  0
   57.5940   33.1820   45.5200 S   0  0  0  0  0  0  0  0  0  0  0  0
   57.1420   33.0050   46.9420 O   0  0  0  0  0  0  0  0  0  0  0  0
   56.7510   34.2430   44.8670 O   0  0  0  0  0  0  0  0  0  0  0  0
   57.3610   31.6430   44.6960 C   0  0  0  0  0  0  0  0  0  0  0  0
   57.1070   31.5970   43.3160 C   0  0  0  0  0  0  0  0  0  0  0  0
   56.9300   30.3660   42.6770 C   0  0  0  0  0  0  0  0  0  0  0  0
   57.0030   29.1780   43.4100 C   0  0  0  0  0  0  0  0  0  0  0  0
   57.2520   29.2200   44.7850 C   0  0  0  0  0  0  0  0  0  0  0  0
   57.4310   30.4490   45.4270 C   0  0  0  0  0  0  0  0  0  0  0  0
   60.3340   30.8640   46.5480 C   0  0  0  0  0  0  0  0  0  0  0  0
   60.1640   29.5450   47.0010 C   0  0  0  0  0  0  0  0  0  0  0  0
   60.6640   28.4470   46.2840 O   0  0  0  0  0  0  0  0  0  0  0  0
   60.7830   28.3910   44.8650 C   0  0  0  0  0  0  0  0  0  0  0  0
   59.4770   29.2970   48.1980 C   0  0  0  0  0  0  0  0  0  0  0  0
   59.3470   27.9480   48.5830 O   0  0  0  0  0  0  0  0  0  0  0  0
   60.4000   27.0620   48.9450 C   0  0  0  0  0  0  0  0  0  0  0  0
   58.1717   30.6138   52.1652 H   0  0  0  0  0  0  0  0  0  0  0  0
   58.8021   31.9084   51.0913 H   0  0  0  0  0  0  0  0  0  0  0  0
   57.0493   31.5158   51.0913 H   0  0  0  0  0  0  0  0  0  0  0  0
   58.7479   32.5428   49.0604 H   0  0  0  0  0  0  0  0  0  0  0  0
   61.1155   33.2791   46.5330 H   0  0  0  0  0  0  0  0  0  0  0  0
   58.8767   34.4124   48.2102 H   0  0  0  0  0  0  0  0  0  0  0  0
   60.6031   34.6830   48.3572 H   0  0  0  0  0  0  0  0  0  0  0  0
   58.8169   36.3487   46.9444 H   0  0  0  0  0  0  0  0  0  0  0  0
   60.5627   36.3446   46.6635 H   0  0  0  0  0  0  0  0  0  0  0  0
   58.4958   35.4852   44.8496 H   0  0  0  0  0  0  0  0  0  0  0  0
   60.2599   35.3123   44.6099 H   0  0  0  0  0  0  0  0  0  0  0  0
   57.0472   32.5303   42.7369 H   0  0  0  0  0  0  0  0  0  0  0  0
   56.7329   30.3324   41.5953 H   0  0  0  0  0  0  0  0  0  0  0  0
   56.8646   28.2105   42.9052 H   0  0  0  0  0  0  0  0  0  0  0  0
   57.3071   28.2853   45.3623 H   0  0  0  0  0  0  0  0  0  0  0  0
   57.6273   30.4791   46.5089 H   0  0  0  0  0  0  0  0  0  0  0  0
   60.8858   31.0486   45.6145 H   0  0  0  0  0  0  0  0  0  0  0  0
   61.7480   27.9369   44.5956 H   0  0  0  0  0  0  0  0  0  0  0  0
   59.9640   27.7838   44.4520 H   0  0  0  0  0  0  0  0  0  0  0  0
   60.7289   29.4091   44.4520 H   0  0  0  0  0  0  0  0  0  0  0  0
   60.4695   27.0036   50.0412 H   0  0  0  0  0  0  0  0  0  0  0  0
   60.1940   26.0615   48.5368 H   0  0  0  0  0  0  0  0  0  0  0  0
   61.3505   27.4360   48.5368 H   0  0  0  0  0  0  0  0  0  0  0  0
  1  2  1  0
  2  3  1  0
  3  4  2  0
  4  5  1  0
  5  6  1  0
  6  7  1  0
  7  8  1  0
  8  9  1  0
  9 10  1  0
 10 11  1  0
 11 12  2  0
 11 13  2  0
 11 14  1  0
 14 15  2  0
 15 16  1  0
 16 17  2  0
 17 18  1  0
 18 19  2  0
  5 20  2  0
 20 21  1  0
 21 22  1  0
 22 23  1  0
 21 24  2  0
 24 25  1  0
 25 26  1  0
 24  3  1  0
 10  6  1  0
 19 14  1  0
  1 27  1  0
  1 28  1  0
  1 29  1  0
  4 30  1  0
  6 31  1  6
  7 32  1  0
  7 33  1  0
  8 34  1  0
  8 35  1  0
  9 36  1  0
  9 37  1  0
 15 38  1  0
 16 39  1  0
 17 40  1  0
 18 41  1  0
 19 42  1  0
 20 43  1  0
 23 44  1  0
 23 45  1  0
 23 46  1  0
 26 47  1  0
 26 48  1  0
 26 49  1  0
M  END
>  <UniqueID>  (27) 
26

>  <SMILES>  (27) 
COc1cc([C@@H]2CCCN2S(=O)(=O)c2ccccc2)cc(OC)c1OC

>  <Energy>  (27) 
62.05059958287935

>  <Genealogy>  (27) 
COc1cc([C@@H]2CCCN2S(=O)(=O)c2ccccc2)cc(OC)c1OC (chirality)
COc1cc([C@@H]2CCCN2S(=O)(=O)c2ccccc2)cc(OC)c1OC (3D coordinates assigned)
COc1cc([C@@H]2CCCN2S(=O)(=O)c2ccccc2)cc(OC)c1OC (nonaromatic ring conformer: 62.05059958287935 kcal/mol)

>  <smiles>  (27) 
COc1cc(C2CCCN2S(=O)(=O)c2ccccc2)cc(OC)c1OC

>  <score_type>  (27) 
oracle

>  <origin>  (27) 
adg

>  <m_score__min__energy>  (27) 
-7.0800000000000001

>  <m_primary>  (27) 
energy

$$$$
27:0
     RDKit          3D

 47 50  0  0  0  0  0  0  0  0999 V2000
   56.4740   30.9460   52.1660 C   0  0  0  0  0  0  0  0  0  0  0  0
   57.4270   30.1090   51.5200 O   0  0  0  0  0  0  0  0  0  0  0  0
   58.5720   30.5760   50.8570 C   0  0  0  0  0  0  0  0  0  0  0  0
   59.8090   29.9170   50.9340 C   0  0  0  0  0  0  0  0  0  0  0  0
   60.9190   30.4210   50.2550 C   0  0  0  0  0  0  0  0  0  0  0  0
   60.8210   31.5870   49.4760 C   0  0  0  0  0  0  0  0  0  0  0  0
   61.9780   32.0450   48.7480 N   0  0  0  0  0  0  0  0  0  0  0  0
   62.8920   32.8700   49.2380 N   0  0  0  0  0  0  0  0  0  0  0  0
   63.7720   33.0890   48.2440 C   0  0  0  0  0  0  0  0  0  0  0  0
   63.3480   32.3780   47.1440 C   0  0  0  0  0  0  0  0  0  0  0  0
   62.2160   31.7350   47.4820 N   0  0  0  0  0  0  0  0  0  0  0  0
   59.5760   32.2600   49.4080 C   0  0  0  0  0  0  0  0  0  0  0  0
   59.4210   33.5390   48.6900 C   0  0  0  0  0  0  0  0  0  0  0  0
   59.8340   34.5990   49.2360 O   0  0  0  0  0  0  0  0  0  0  0  0
   58.8220   33.5930   47.3830 N   0  0  0  0  0  0  0  0  0  0  0  0
   59.3920   34.3510   46.2850 C   0  0  0  0  0  0  0  0  0  0  0  0
   58.6610   33.8800   45.0350 C   0  0  0  0  0  0  0  0  0  0  0  0
   57.3980   33.1710   45.5280 C   0  0  1  0  0  0  0  0  0  0  0  0
   57.1330   32.0220   44.7200 O   0  0  0  0  0  0  0  0  0  0  0  0
   57.8130   30.7950   44.8010 C   0  0  0  0  0  0  0  0  0  0  0  0
   59.1250   30.6900   45.3060 C   0  0  0  0  0  0  0  0  0  0  0  0
   59.7610   29.4470   45.3640 C   0  0  0  0  0  0  0  0  0  0  0  0
   59.0990   28.2990   44.9250 C   0  0  0  0  0  0  0  0  0  0  0  0
   57.7970   28.3910   44.4280 C   0  0  0  0  0  0  0  0  0  0  0  0
   57.1540   29.6320   44.3670 C   0  0  0  0  0  0  0  0  0  0  0  0
   55.5180   29.7190   43.7330 Cl  0  0  0  0  0  0  0  0  0  0  0  0
   57.6850   32.7830   46.9780 C   0  0  0  0  0  0  0  0  0  0  0  0
   58.4680   31.7450   50.0980 C   0  0  0  0  0  0  0  0  0  0  0  0
   56.5822   30.8510   53.2565 H   0  0  0  0  0  0  0  0  0  0  0  0
   56.6444   31.9917   51.8703 H   0  0  0  0  0  0  0  0  0  0  0  0
   55.4590   30.6421   51.8703 H   0  0  0  0  0  0  0  0  0  0  0  0
   59.9038   28.9989   51.5324 H   0  0  0  0  0  0  0  0  0  0  0  0
   61.8841   29.8986   50.3304 H   0  0  0  0  0  0  0  0  0  0  0  0
   64.6694   33.7226   48.3002 H   0  0  0  0  0  0  0  0  0  0  0  0
   63.8460   32.3422   46.1638 H   0  0  0  0  0  0  0  0  0  0  0  0
   59.2326   35.4284   46.4394 H   0  0  0  0  0  0  0  0  0  0  0  0
   60.4776   34.1935   46.2037 H   0  0  0  0  0  0  0  0  0  0  0  0
   58.3947   34.7388   44.4013 H   0  0  0  0  0  0  0  0  0  0  0  0
   59.2889   33.2103   44.4290 H   0  0  0  0  0  0  0  0  0  0  0  0
   56.5060   33.8113   45.4619 H   0  0  0  0  0  0  0  0  0  0  0  0
   59.6506   31.5907   45.6560 H   0  0  0  0  0  0  0  0  0  0  0  0
   60.7859   29.3730   45.7566 H   0  0  0  0  0  0  0  0  0  0  0  0
   59.6027   27.3222   44.9705 H   0  0  0  0  0  0  0  0  0  0  0  0
   57.2759   27.4855   44.0837 H   0  0  0  0  0  0  0  0  0  0  0  0
   56.8135   33.0002   47.6131 H   0  0  0  0  0  0  0  0  0  0  0  0
   57.8959   31.7080   47.0770 H   0  0  0  0  0  0  0  0  0  0  0  0
   57.5027   32.2694   50.0407 H   0  0  0  0  0  0  0  0  0  0  0  0
  1  2  1  0
  2  3  1  0
  3  4  2  0
  4  5  1  0
  5  6  2  0
  6  7  1  0
  7  8  1  0
  8  9  2  0
  9 10  1  0
 10 11  2  0
  6 12  1  0
 12 13  1  0
 13 14  2  0
 13 15  1  0
 15 16  1  0
 16 17  1  0
 17 18  1  0
 18 19  1  0
 19 20  1  0
 20 21  2  0
 21 22  1  0
 22 23  2  0
 23 24  1  0
 24 25  2  0
 25 26  1  0
 18 27  1  0
 12 28  2  0
 28  3  1  0
 11  7  1  0
 27 15  1  0
 25 20  1  0
  1 29  1  0
  1 30  1  0
  1 31  1  0
  4 32  1  0
  5 33  1  0
  9 34  1  0
 10 35  1  0
 16 36  1  0
 16 37  1  0
 17 38  1  0
 17 39  1  0
 18 40  1  1
 21 41  1  0
 22 42  1  0
 23 43  1  0
 24 44  1  0
 27 45  1  0
 27 46  1  0
 28 47  1  0
M  END
>  <UniqueID>  (28) 
27

>  <SMILES>  (28) 
COc1ccc(-n2nccn2)c(C(=O)N2CC[C@@H](Oc3ccccc3Cl)C2)c1

>  <Energy>  (28) 
93.20337231136538

>  <Genealogy>  (28) 
COc1ccc(-n2nccn2)c(C(=O)N2CC[C@@H](Oc3ccccc3Cl)C2)c1 (chirality)
COc1ccc(-n2nccn2)c(C(=O)N2CC[C@@H](Oc3ccccc3Cl)C2)c1 (3D coordinates assigned)
COc1ccc(-n2nccn2)c(C(=O)N2CC[C@@H](Oc3ccccc3Cl)C2)c1 (nonaromatic ring conformer: 93.20337231136538 kcal/mol)

>  <smiles>  (28) 
COc1ccc(-n2nccn2)c(C(=O)N2CCC(Oc3ccccc3Cl)C2)c1

>  <score_type>  (28) 
oracle

>  <origin>  (28) 
adg

>  <m_score__min__energy>  (28) 
-8.8200000000000003

>  <m_primary>  (28) 
energy

$$$$
28:0
     RDKit          3D

 34 35  0  0  0  0  0  0  0  0999 V2000
   58.0580   29.0300   44.1370 C   0  0  0  0  0  0  0  0  0  0  0  0
   56.4580   29.8110   44.1040 S   0  0  0  0  0  0  0  0  0  0  0  0
   56.0000   29.9170   42.6760 O   0  0  0  0  0  0  0  0  0  0  0  0
   55.4730   28.9720   44.8710 O   0  0  0  0  0  0  0  0  0  0  0  0
   56.5310   31.4080   44.7910 N   0  0  0  0  0  0  0  0  0  0  0  0
   57.9110   31.8010   45.1000 C   0  0  0  0  0  0  0  0  0  0  0  0
   58.2420   31.3620   46.5430 C   0  0  0  0  0  0  0  0  0  0  0  0
   59.3040   32.2760   47.1610 C   0  0  0  0  0  0  0  0  0  0  0  0
   58.8050   33.6670   47.2810 N   0  0  0  0  0  0  0  0  0  0  0  0
   59.8680   34.6440   47.6010 C   0  0  0  0  0  0  0  0  0  0  0  0
   61.2600   34.0600   47.5590 C   0  0  0  0  0  0  0  0  0  0  0  0
   61.9590   33.8220   46.3770 C   0  0  0  0  0  0  0  0  0  0  0  0
   63.4620   33.1790   46.7700 S   0  0  0  0  0  0  0  0  0  0  0  0
   63.2450   33.2090   48.4330 C   0  0  0  0  0  0  0  0  0  0  0  0
   64.5270   32.6320   49.7200 Br  0  0  0  0  0  0  0  0  0  0  0  0
   61.9900   33.7260   48.7120 C   0  0  0  0  0  0  0  0  0  0  0  0
   57.8730   34.1010   46.2100 C   0  0  0  0  0  0  0  0  0  0  0  0
   58.0820   33.3270   44.9000 C   0  0  0  0  0  0  0  0  0  0  0  0
   58.3702   28.8776   45.1807 H   0  0  0  0  0  0  0  0  0  0  0  0
   58.0021   28.0578   43.6253 H   0  0  0  0  0  0  0  0  0  0  0  0
   58.7901   29.6721   43.6253 H   0  0  0  0  0  0  0  0  0  0  0  0
   58.6166   31.3041   44.4180 H   0  0  0  0  0  0  0  0  0  0  0  0
   57.3275   31.4086   47.1526 H   0  0  0  0  0  0  0  0  0  0  0  0
   58.6339   30.3345   46.5171 H   0  0  0  0  0  0  0  0  0  0  0  0
   59.5640   31.8998   48.1614 H   0  0  0  0  0  0  0  0  0  0  0  0
   60.1885   32.2768   46.5070 H   0  0  0  0  0  0  0  0  0  0  0  0
   59.8143   35.4669   46.8731 H   0  0  0  0  0  0  0  0  0  0  0  0
   59.6926   34.9846   48.6321 H   0  0  0  0  0  0  0  0  0  0  0  0
   61.5901   34.0210   45.3600 H   0  0  0  0  0  0  0  0  0  0  0  0
   61.6042   33.8613   49.7332 H   0  0  0  0  0  0  0  0  0  0  0  0
   56.8406   33.9401   46.5540 H   0  0  0  0  0  0  0  0  0  0  0  0
   58.0699   35.1638   46.0056 H   0  0  0  0  0  0  0  0  0  0  0  0
   57.3456   33.6738   44.1602 H   0  0  0  0  0  0  0  0  0  0  0  0
   59.1091   33.5133   44.5530 H   0  0  0  0  0  0  0  0  0  0  0  0
  1  2  1  0
  2  3  2  0
  2  4  2  0
  2  5  1  0
  5  6  1  0
  6  7  1  0
  7  8  1  0
  8  9  1  0
  9 10  1  0
 10 11  1  0
 11 12  2  0
 12 13  1  0
 13 14  1  0
 14 15  1  0
 14 16  2  0
  9 17  1  0
 17 18  1  0
 18  6  1  0
 16 11  1  0
  1 19  1  0
  1 20  1  0
  1 21  1  0
  6 22  1  0
  7 23  1  0
  7 24  1  0
  8 25  1  0
  8 26  1  0
 10 27  1  0
 10 28  1  0
 12 29  1  0
 16 30  1  0
 17 31  1  0
 17 32  1  0
 18 33  1  0
 18 34  1  0
M  CHG  1   5  -1
M  END
>  <UniqueID>  (29) 
28

>  <SMILES>  (29) 
CS(=O)(=O)[N-]C1CCN(Cc2csc(Br)c2)CC1

>  <Energy>  (29) 
63.22539159561362

>  <Genealogy>  (29) 
CS(=O)(=O)[N-]C1CCN(Cc2csc(Br)c2)CC1 (protonated)
CS(=O)(=O)[N-]C1CCN(Cc2csc(Br)c2)CC1 (3D coordinates assigned)
CS(=O)(=O)[N-]C1CCN(Cc2csc(Br)c2)CC1 (nonaromatic ring conformer: 63.22539159561362 kcal/mol)

>  <smiles>  (29) 
CS(=O)(=O)NC1CCN(Cc2csc(Br)c2)CC1

>  <score_type>  (29) 
oracle

>  <origin>  (29) 
adg

>  <m_score__min__energy>  (29) 
-10

>  <m_primary>  (29) 
energy

$$$$
29:0
     RDKit          3D

 41 43  0  0  0  0  0  0  0  0999 V2000
   58.1790   29.1390   46.3700 C   0  0  0  0  0  0  0  0  0  0  0  0
   57.2320   30.0960   45.9100 O   0  0  0  0  0  0  0  0  0  0  0  0
   57.2560   30.6930   44.6390 C   0  0  0  0  0  0  0  0  0  0  0  0
   56.7100   30.0550   43.5070 C   0  0  0  0  0  0  0  0  0  0  0  0
   56.7770   30.6650   42.2510 C   0  0  0  0  0  0  0  0  0  0  0  0
   57.3850   31.9120   42.1100 C   0  0  0  0  0  0  0  0  0  0  0  0
   57.9250   32.5570   43.2250 C   0  0  0  0  0  0  0  0  0  0  0  0
   57.8590   31.9580   44.4920 C   0  0  0  0  0  0  0  0  0  0  0  0
   58.4080   32.6440   45.6290 N   0  0  0  0  0  0  0  0  0  0  0  0
   57.7650   33.8650   46.1260 C   0  0  0  0  0  0  0  0  0  0  0  0
   58.6670   34.5760   47.1440 C   0  0  0  0  0  0  0  0  0  0  0  0
   60.0430   34.6900   46.6310 N   0  0  0  0  0  0  0  0  0  0  0  0
   60.6710   33.3890   46.2520 C   0  0  1  0  0  0  0  0  0  0  0  0
   61.8550   33.0510   47.1450 C   0  0  0  0  0  0  0  0  0  0  0  0
   61.7590   32.0100   48.0850 C   0  0  0  0  0  0  0  0  0  0  0  0
   62.8410   31.7050   48.9180 C   0  0  0  0  0  0  0  0  0  0  0  0
   64.0270   32.4370   48.8220 C   0  0  0  0  0  0  0  0  0  0  0  0
   64.1320   33.4780   47.8960 C   0  0  0  0  0  0  0  0  0  0  0  0
   63.0530   33.7870   47.0630 C   0  0  0  0  0  0  0  0  0  0  0  0
   59.6760   32.2070   46.2160 C   0  0  0  0  0  0  0  0  0  0  0  0
   58.1872   29.1307   47.4699 H   0  0  0  0  0  0  0  0  0  0  0  0
   57.9026   28.1415   45.9979 H   0  0  0  0  0  0  0  0  0  0  0  0
   59.1794   29.4049   45.9979 H   0  0  0  0  0  0  0  0  0  0  0  0
   56.2285   29.0716   43.6125 H   0  0  0  0  0  0  0  0  0  0  0  0
   56.3493   30.1603   41.3722 H   0  0  0  0  0  0  0  0  0  0  0  0
   57.4394   32.3881   41.1199 H   0  0  0  0  0  0  0  0  0  0  0  0
   58.4047   33.5401   43.1091 H   0  0  0  0  0  0  0  0  0  0  0  0
   57.5716   34.5413   45.2803 H   0  0  0  0  0  0  0  0  0  0  0  0
   56.8206   33.5921   46.6195 H   0  0  0  0  0  0  0  0  0  0  0  0
   58.2692   35.5832   47.3372 H   0  0  0  0  0  0  0  0  0  0  0  0
   58.6839   33.9872   48.0730 H   0  0  0  0  0  0  0  0  0  0  0  0
   60.0190   35.3120   45.7880 H   0  0  0  0  0  0  0  0  0  0  0  0
   60.6160   35.1970   47.3460 H   0  0  0  0  0  0  0  0  0  0  0  0
   61.0309   33.5350   45.2228 H   0  0  0  0  0  0  0  0  0  0  0  0
   60.8270   31.4314   48.1661 H   0  0  0  0  0  0  0  0  0  0  0  0
   62.7577   30.8877   49.6495 H   0  0  0  0  0  0  0  0  0  0  0  0
   64.8780   32.1939   49.4753 H   0  0  0  0  0  0  0  0  0  0  0  0
   65.0654   34.0554   47.8224 H   0  0  0  0  0  0  0  0  0  0  0  0
   63.1401   34.6103   46.3387 H   0  0  0  0  0  0  0  0  0  0  0  0
   60.0981   31.3927   45.6088 H   0  0  0  0  0  0  0  0  0  0  0  0
   59.4979   31.8507   47.2414 H   0  0  0  0  0  0  0  0  0  0  0  0
  1  2  1  0
  2  3  1  0
  3  4  2  0
  4  5  1  0
  5  6  2  0
  6  7  1  0
  7  8  2  0
  8  9  1  0
  9 10  1  0
 10 11  1  0
 11 12  1  0
 12 13  1  0
 13 14  1  0
 14 15  2  0
 15 16  1  0
 16 17  2  0
 17 18  1  0
 18 19  2  0
 13 20  1  0
  8  3  1  0
 20  9  1  0
 19 14  1  0
  1 21  1  0
  1 22  1  0
  1 23  1  0
  4 24  1  0
  5 25  1  0
  6 26  1  0
  7 27  1  0
 10 28  1  0
 10 29  1  0
 11 30  1  0
 11 31  1  0
 12 32  1  0
 12 33  1  0
 13 34  1  6
 15 35  1  0
 16 36  1  0
 17 37  1  0
 18 38  1  0
 19 39  1  0
 20 40  1  0
 20 41  1  0
M  CHG  1  12   1
M  END
>  <UniqueID>  (30) 
29

>  <SMILES>  (30) 
COc1ccccc1N1CC[NH2+][C@@H](c2ccccc2)C1

>  <Energy>  (30) 
54.08790678334257

>  <Genealogy>  (30) 
COc1ccccc1N1CC[NH2+]C(c2ccccc2)C1 (protonated)
COc1ccccc1N1CC[NH2+][C@@H](c2ccccc2)C1 (chirality)
COc1ccccc1N1CC[NH2+][C@@H](c2ccccc2)C1 (3D coordinates assigned)
COc1ccccc1N1CC[NH2+][C@@H](c2ccccc2)C1 (nonaromatic ring conformer: 54.08790678334257 kcal/mol)

>  <smiles>  (30) 
COc1ccccc1N1CCNC(c2ccccc2)C1

>  <score_type>  (30) 
oracle

>  <origin>  (30) 
adg

>  <m_score__min__energy>  (30) 
-5.3600000000000003

>  <m_primary>  (30) 
energy

$$$$
30:0
     RDKit          3D

 49 53  0  0  0  0  0  0  0  0999 V2000
   66.9670   31.9420   50.7360 C   0  0  0  0  0  0  0  0  0  0  0  0
   65.5500   32.0740   50.2860 C   0  0  0  0  0  0  0  0  0  0  0  0
   65.1600   33.0190   49.3430 C   0  0  0  0  0  0  0  0  0  0  0  0
   63.8330   33.0620   49.0000 C   0  0  0  0  0  0  0  0  0  0  0  0
   63.1700   33.8360   48.1260 N   0  0  0  0  0  0  0  0  0  0  0  0
   61.8820   33.4880   48.1340 C   0  0  0  0  0  0  0  0  0  0  0  0
   60.8690   34.1610   47.2610 C   0  0  0  0  0  0  0  0  0  0  0  0
   61.6660   32.4710   49.0190 N   0  0  0  0  0  0  0  0  0  0  0  0
   60.3830   31.8790   49.2380 C   0  0  0  0  0  0  0  0  0  0  0  0
   60.0560   30.7240   48.3930 C   0  0  0  0  0  0  0  0  0  0  0  0
   60.6640   30.3440   47.2420 C   0  0  0  0  0  0  0  0  0  0  0  0
   60.2530   29.2180   46.5140 C   0  0  0  0  0  0  0  0  0  0  0  0
   59.2050   28.4310   46.9250 C   0  0  0  0  0  0  0  0  0  0  0  0
   58.7410   27.2520   46.2110 C   0  0  0  0  0  0  0  0  0  0  0  0
   59.2750   26.0330   46.6310 C   0  0  0  0  0  0  0  0  0  0  0  0
   58.9060   24.8600   46.0030 C   0  0  0  0  0  0  0  0  0  0  0  0
   58.0060   24.9400   44.9630 C   0  0  0  0  0  0  0  0  0  0  0  0
   57.4870   26.1530   44.5620 C   0  0  0  0  0  0  0  0  0  0  0  0
   57.8410   27.3460   45.1740 C   0  0  0  0  0  0  0  0  0  0  0  0
   57.2590   28.6180   44.7330 C   0  0  0  0  0  0  0  0  0  0  0  0
   57.9240   29.6720   44.3210 N   0  0  0  0  0  0  0  0  0  0  0  0
   57.5700   30.6840   43.9720 C   0  0  0  0  0  0  0  0  0  0  0  0
   57.9460   31.8740   43.5260 O   0  0  0  0  0  0  0  0  0  0  0  0
   55.6860   30.4750   44.1370 S   0  0  0  0  0  0  0  0  0  0  0  0
   55.9150   28.8060   44.7280 N   0  0  0  0  0  0  0  0  0  0  0  0
   58.5760   28.8140   48.1040 C   0  0  0  0  0  0  0  0  0  0  0  0
   58.9800   29.9120   48.8100 C   0  0  0  0  0  0  0  0  0  0  0  0
   62.8740   32.2230   49.5380 C   0  0  0  0  0  0  0  0  0  0  0  0
   63.3150   31.3050   50.4660 C   0  0  0  0  0  0  0  0  0  0  0  0
   62.2590   30.1380   51.2030 Cl  0  0  0  0  0  0  0  0  0  0  0  0
   64.6150   31.2700   50.7970 N   0  0  0  0  0  0  0  0  0  0  0  0
   67.0038   31.9386   51.8354 H   0  0  0  0  0  0  0  0  0  0  0  0
   67.3875   31.0008   50.3521 H   0  0  0  0  0  0  0  0  0  0  0  0
   67.5541   32.7893   50.3521 H   0  0  0  0  0  0  0  0  0  0  0  0
   65.8890   33.7064   48.8891 H   0  0  0  0  0  0  0  0  0  0  0  0
   60.1172   34.6605   47.8897 H   0  0  0  0  0  0  0  0  0  0  0  0
   61.3698   34.9066   46.6259 H   0  0  0  0  0  0  0  0  0  0  0  0
   60.3757   33.4104   46.6259 H   0  0  0  0  0  0  0  0  0  0  0  0
   60.3375   31.5522   50.2874 H   0  0  0  0  0  0  0  0  0  0  0  0
   59.6489   32.6555   48.9769 H   0  0  0  0  0  0  0  0  0  0  0  0
   61.5090   30.9397   46.8663 H   0  0  0  0  0  0  0  0  0  0  0  0
   60.7852   28.9576   45.5872 H   0  0  0  0  0  0  0  0  0  0  0  0
   59.9920   26.0066   47.4648 H   0  0  0  0  0  0  0  0  0  0  0  0
   59.3179   23.8916   46.3232 H   0  0  0  0  0  0  0  0  0  0  0  0
   57.6963   24.0210   44.4439 H   0  0  0  0  0  0  0  0  0  0  0  0
   56.7686   26.1750   43.7293 H   0  0  0  0  0  0  0  0  0  0  0  0
   55.1490   28.1600   44.9970 H   0  0  0  0  0  0  0  0  0  0  0  0
   57.7310   28.2176   48.4784 H   0  0  0  0  0  0  0  0  0  0  0  0
   58.4473   30.1722   49.7366 H   0  0  0  0  0  0  0  0  0  0  0  0
  1  2  1  0
  2  3  2  0
  3  4  1  0
  4  5  1  0
  5  6  2  0
  6  7  1  0
  6  8  1  0
  8  9  1  0
  9 10  1  0
 10 11  2  0
 11 12  1  0
 12 13  2  0
 13 14  1  0
 14 15  2  0
 15 16  1  0
 16 17  2  0
 17 18  1  0
 18 19  2  0
 19 20  1  0
 20 21  2  0
 21 22  1  0
 22 23  2  0
 22 24  1  0
 24 25  1  0
 13 26  1  0
 26 27  2  0
  8 28  1  0
 28 29  1  0
 29 30  1  0
 29 31  2  0
 31  2  1  0
 28  4  2  0
 27 10  1  0
 19 14  1  0
 25 20  1  0
  1 32  1  0
  1 33  1  0
  1 34  1  0
  3 35  1  0
  7 36  1  0
  7 37  1  0
  7 38  1  0
  9 39  1  0
  9 40  1  0
 11 41  1  0
 12 42  1  0
 15 43  1  0
 16 44  1  0
 17 45  1  0
 18 46  1  0
 25 47  1  0
 26 48  1  0
 27 49  1  0
M  END
>  <smiles>  (31) 
Cc1cc2nc(C)n(Cc3ccc(-c4ccccc4-c4nc(=O)s[nH]4)cc3)c2c(Cl)n1

>  <score_type>  (31) 
oracle

>  <origin>  (31) 
adg

>  <m_score__min__energy>  (31) 
-9.2599999999999998

>  <m_primary>  (31) 
energy

$$$$
31:0
     RDKit          3D

 43 44  0  0  0  0  0  0  0  0999 V2000
   59.5840   33.8730   50.5520 C   0  0  0  0  0  0  0  0  0  0  0  0
   59.2940   33.3860   49.1990 N   0  0  0  0  0  0  0  0  0  0  0  0
   59.2750   34.4820   48.2020 C   0  0  0  0  0  0  0  0  0  0  0  0
   59.7910   34.0340   46.8100 C   0  0  1  0  0  0  0  0  0  0  0  0
   61.3090   34.2090   46.6390 C   0  0  0  0  0  0  0  0  0  0  0  0
   62.1850   33.2310   47.4920 C   0  0  0  0  0  0  0  0  0  0  0  0
   63.5230   33.0310   46.7450 C   0  0  0  0  0  0  0  0  0  0  0  0
   62.4910   33.8760   48.8720 C   0  0  0  0  0  0  0  0  0  0  0  0
   61.5280   31.9030   47.6660 N   0  0  0  0  0  0  0  0  0  0  0  0
   62.1800   30.8640   48.4820 C   0  0  0  0  0  0  0  0  0  0  0  0
   60.2870   31.5730   46.9790 C   0  0  0  0  0  0  0  0  0  0  0  0
   59.9110   30.2350   46.7360 C   0  0  0  0  0  0  0  0  0  0  0  0
   58.7290   29.9350   46.0560 C   0  0  0  0  0  0  0  0  0  0  0  0
   57.8920   30.9650   45.5970 C   0  0  0  0  0  0  0  0  0  0  0  0
   56.6970   30.7140   44.9070 O   0  0  0  0  0  0  0  0  0  0  0  0
   56.6240   30.1270   43.6110 C   0  0  0  0  0  0  0  0  0  0  0  0
   58.2560   32.2920   45.8330 C   0  0  0  0  0  0  0  0  0  0  0  0
   59.4380   32.6020   46.5260 C   0  0  0  0  0  0  0  0  0  0  0  0
   59.1671   33.1729   51.2909 H   0  0  0  0  0  0  0  0  0  0  0  0
   60.6729   33.9461   50.6898 H   0  0  0  0  0  0  0  0  0  0  0  0
   59.1295   34.8652   50.6898 H   0  0  0  0  0  0  0  0  0  0  0  0
   59.9870   32.6430   48.9500 H   0  0  0  0  0  0  0  0  0  0  0  0
   58.3490   32.9330   49.2230 H   0  0  0  0  0  0  0  0  0  0  0  0
   58.2412   34.8423   48.0948 H   0  0  0  0  0  0  0  0  0  0  0  0
   59.9462   35.2738   48.5660 H   0  0  0  0  0  0  0  0  0  0  0  0
   59.2864   34.6965   46.0914 H   0  0  0  0  0  0  0  0  0  0  0  0
   61.5540   34.0506   45.5784 H   0  0  0  0  0  0  0  0  0  0  0  0
   61.5447   35.2234   46.9933 H   0  0  0  0  0  0  0  0  0  0  0  0
   64.3362   32.9094   47.4756 H   0  0  0  0  0  0  0  0  0  0  0  0
   63.4598   32.1323   46.1138 H   0  0  0  0  0  0  0  0  0  0  0  0
   63.7253   33.9089   46.1138 H   0  0  0  0  0  0  0  0  0  0  0  0
   62.1684   33.1960   49.6742 H   0  0  0  0  0  0  0  0  0  0  0  0
   63.5721   34.0594   48.9594 H   0  0  0  0  0  0  0  0  0  0  0  0
   61.9492   34.8293   48.9594 H   0  0  0  0  0  0  0  0  0  0  0  0
   62.0369   31.0920   49.5486 H   0  0  0  0  0  0  0  0  0  0  0  0
   61.7342   29.8847   48.2533 H   0  0  0  0  0  0  0  0  0  0  0  0
   63.2557   30.8395   48.2533 H   0  0  0  0  0  0  0  0  0  0  0  0
   60.5577   29.4173   47.0869 H   0  0  0  0  0  0  0  0  0  0  0  0
   58.4517   28.8854   45.8787 H   0  0  0  0  0  0  0  0  0  0  0  0
   56.4888   29.0397   43.7081 H   0  0  0  0  0  0  0  0  0  0  0  0
   55.7721   30.5549   43.0621 H   0  0  0  0  0  0  0  0  0  0  0  0
   57.5547   30.3332   43.0621 H   0  0  0  0  0  0  0  0  0  0  0  0
   57.6091   33.1050   45.4718 H   0  0  0  0  0  0  0  0  0  0  0  0
  1  2  1  0
  2  3  1  0
  3  4  1  0
  4  5  1  0
  5  6  1  0
  6  7  1  0
  6  8  1  0
  6  9  1  0
  9 10  1  0
  9 11  1  0
 11 12  2  0
 12 13  1  0
 13 14  2  0
 14 15  1  0
 15 16  1  0
 14 17  1  0
 17 18  2  0
 18  4  1  0
 18 11  1  0
  1 19  1  0
  1 20  1  0
  1 21  1  0
  2 22  1  0
  2 23  1  0
  3 24  1  0
  3 25  1  0
  4 26  1  6
  5 27  1  0
  5 28  1  0
  7 29  1  0
  7 30  1  0
  7 31  1  0
  8 32  1  0
  8 33  1  0
  8 34  1  0
 10 35  1  0
 10 36  1  0
 10 37  1  0
 12 38  1  0
 13 39  1  0
 16 40  1  0
 16 41  1  0
 16 42  1  0
 17 43  1  0
M  CHG  1   2   1
M  END
>  <UniqueID>  (32) 
30

>  <SMILES>  (32) 
C[NH2+]C[C@H]1CC(C)(C)N(C)c2ccc(OC)cc21

>  <Energy>  (32) 
48.684724616974215

>  <Genealogy>  (32) 
C[NH2+]CC1CC(C)(C)N(C)c2ccc(OC)cc21 (protonated)
C[NH2+]C[C@H]1CC(C)(C)N(C)c2ccc(OC)cc21 (chirality)
C[NH2+]C[C@H]1CC(C)(C)N(C)c2ccc(OC)cc21 (3D coordinates assigned)
C[NH2+]C[C@H]1CC(C)(C)N(C)c2ccc(OC)cc21 (nonaromatic ring conformer: 48.684724616974215 kcal/mol)

>  <smiles>  (32) 
CNCC1CC(C)(C)N(C)c2ccc(OC)cc21

>  <score_type>  (32) 
oracle

>  <origin>  (32) 
adg

>  <m_score__min__energy>  (32) 
-4.4000000000000004

>  <m_primary>  (32) 
energy

$$$$
32:0
     RDKit          3D

 41 43  0  0  0  0  0  0  0  0999 V2000
   62.8260   34.5250   49.2300 O   0  0  0  0  0  0  0  0  0  0  0  0
   63.5940   33.5520   48.9840 C   0  0  0  0  0  0  0  0  0  0  0  0
   64.5930   33.1580   50.0090 C   0  0  0  0  0  0  0  0  0  0  0  0
   64.5460   33.6950   51.3080 C   0  0  0  0  0  0  0  0  0  0  0  0
   65.5010   33.3030   52.2490 C   0  0  0  0  0  0  0  0  0  0  0  0
   66.4880   32.3840   51.8970 C   0  0  0  0  0  0  0  0  0  0  0  0
   66.5080   31.8670   50.6000 C   0  0  0  0  0  0  0  0  0  0  0  0
   65.5700   32.2600   49.6970 N   0  0  0  0  0  0  0  0  0  0  0  0
   63.5060   32.8450   47.7130 N   0  0  1  0  0  0  0  0  0  0  0  0
   62.7730   31.5410   47.7910 C   0  0  0  0  0  0  0  0  0  0  0  0
   61.2330   31.6340   47.8390 C   0  0  0  0  0  0  0  0  0  0  0  0
   60.6980   32.9220   48.4880 C   0  0  0  0  0  0  0  0  0  0  0  0
   60.7910   34.1140   47.6140 N   0  0  0  0  0  0  0  0  0  0  0  0
   59.4430   34.6380   47.3000 C   0  0  0  0  0  0  0  0  0  0  0  0
   58.7070   33.7050   46.3840 C   0  0  0  0  0  0  0  0  0  0  0  0
   58.6020   33.8140   45.0150 C   0  0  0  0  0  0  0  0  0  0  0  0
   57.8000   32.7630   44.6230 C   0  0  0  0  0  0  0  0  0  0  0  0
   57.4340   32.0650   45.6750 O   0  0  0  0  0  0  0  0  0  0  0  0
   57.9590   32.6050   46.7500 C   0  0  0  0  0  0  0  0  0  0  0  0
   61.5460   33.8410   46.3720 C   0  0  0  0  0  0  0  0  0  0  0  0
   63.0790   33.7400   46.6050 C   0  0  0  0  0  0  0  0  0  0  0  0
   63.7633   34.4181   51.5808 H   0  0  0  0  0  0  0  0  0  0  0  0
   65.4741   33.7192   53.2669 H   0  0  0  0  0  0  0  0  0  0  0  0
   67.2428   32.0695   52.6327 H   0  0  0  0  0  0  0  0  0  0  0  0
   67.2823   31.1420   50.3087 H   0  0  0  0  0  0  0  0  0  0  0  0
   64.4930   32.5790   47.4810 H   0  0  0  0  0  0  0  0  0  0  0  0
   63.0472   30.9470   46.9067 H   0  0  0  0  0  0  0  0  0  0  0  0
   63.0734   31.0879   48.7473 H   0  0  0  0  0  0  0  0  0  0  0  0
   60.8522   31.5834   46.8082 H   0  0  0  0  0  0  0  0  0  0  0  0
   60.8856   30.7979   48.4637 H   0  0  0  0  0  0  0  0  0  0  0  0
   59.6412   32.7654   48.7499 H   0  0  0  0  0  0  0  0  0  0  0  0
   61.3248   33.1211   49.3697 H   0  0  0  0  0  0  0  0  0  0  0  0
   58.8732   34.7497   48.2343 H   0  0  0  0  0  0  0  0  0  0  0  0
   59.5517   35.6108   46.7982 H   0  0  0  0  0  0  0  0  0  0  0  0
   59.0610   34.5781   44.3705 H   0  0  0  0  0  0  0  0  0  0  0  0
   57.5099   32.5418   43.5852 H   0  0  0  0  0  0  0  0  0  0  0  0
   57.8241   32.2390   47.7785 H   0  0  0  0  0  0  0  0  0  0  0  0
   61.1921   32.8896   45.9483 H   0  0  0  0  0  0  0  0  0  0  0  0
   61.3714   34.6845   45.6878 H   0  0  0  0  0  0  0  0  0  0  0  0
   63.5382   33.3705   45.6762 H   0  0  0  0  0  0  0  0  0  0  0  0
   63.4053   34.7502   46.8933 H   0  0  0  0  0  0  0  0  0  0  0  0
  1  2  2  0
  2  3  1  0
  3  4  2  0
  4  5  1  0
  5  6  2  0
  6  7  1  0
  7  8  2  0
  2  9  1  0
  9 10  1  0
 10 11  1  0
 11 12  1  0
 12 13  1  0
 13 14  1  0
 14 15  1  0
 15 16  1  0
 16 17  2  0
 17 18  1  0
 18 19  1  0
 13 20  1  0
 20 21  1  0
  8  3  1  0
 21  9  1  0
 19 15  2  0
  4 22  1  0
  5 23  1  0
  6 24  1  0
  7 25  1  0
  9 26  1  6
 10 27  1  0
 10 28  1  0
 11 29  1  0
 11 30  1  0
 12 31  1  0
 12 32  1  0
 14 33  1  0
 14 34  1  0
 16 35  1  0
 17 36  1  0
 19 37  1  0
 20 38  1  0
 20 39  1  0
 21 40  1  0
 21 41  1  0
M  CHG  1   9   1
M  END
>  <UniqueID>  (33) 
31

>  <SMILES>  (33) 
O=C(c1ccccn1)[N@H+]1CCCN(Cc2ccoc2)CC1

>  <Energy>  (33) 
91.95087824249556

>  <Genealogy>  (33) 
O=C(c1ccccn1)[NH+]1CCCN(Cc2ccoc2)CC1 (protonated)
O=C(c1ccccn1)[N@H+]1CCCN(Cc2ccoc2)CC1 (chirality)
O=C(c1ccccn1)[N@H+]1CCCN(Cc2ccoc2)CC1 (3D coordinates assigned)
O=C(c1ccccn1)[N@H+]1CCCN(Cc2ccoc2)CC1 (nonaromatic ring conformer: 91.95087824249556 kcal/mol)

>  <smiles>  (33) 
O=C(c1ccccn1)N1CCCN(Cc2ccoc2)CC1

>  <score_type>  (33) 
oracle

>  <origin>  (33) 
adg

>  <m_score__min__energy>  (33) 
-3.9900000000000002

>  <m_primary>  (33) 
energy

$$$$
33:0
     RDKit          3D

 42 45  0  0  0  0  0  0  0  0999 V2000
   56.6830   24.3230   43.8970 C   0  0  0  0  0  0  0  0  0  0  0  0
   57.1190   24.9720   45.0880 O   0  0  0  0  0  0  0  0  0  0  0  0
   57.4130   26.3410   45.1810 C   0  0  0  0  0  0  0  0  0  0  0  0
   58.6820   26.8610   44.8600 C   0  0  0  0  0  0  0  0  0  0  0  0
   58.9310   28.2310   44.9680 C   0  0  0  0  0  0  0  0  0  0  0  0
   57.9210   29.1010   45.4030 C   0  0  0  0  0  0  0  0  0  0  0  0
   58.1820   30.5560   45.5100 C   0  0  0  0  0  0  0  0  0  0  0  0
   57.3660   31.4460   44.7870 C   0  0  0  0  0  0  0  0  0  0  0  0
   56.3240   30.9670   43.9970 O   0  0  0  0  0  0  0  0  0  0  0  0
   57.5970   32.8210   44.8410 C   0  0  0  0  0  0  0  0  0  0  0  0
   58.6410   33.3320   45.6100 C   0  0  0  0  0  0  0  0  0  0  0  0
   59.4660   32.4690   46.3440 C   0  0  0  0  0  0  0  0  0  0  0  0
   60.5090   32.9940   47.1240 C   0  0  0  0  0  0  0  0  0  0  0  0
   61.3330   32.1490   47.8830 C   0  0  0  0  0  0  0  0  0  0  0  0
   62.4360   32.7090   48.7070 C   0  0  0  0  0  0  0  0  0  0  0  0
   62.1760   33.7110   49.6610 C   0  0  0  0  0  0  0  0  0  0  0  0
   63.2150   34.2380   50.4350 C   0  0  0  0  0  0  0  0  0  0  0  0
   64.5210   33.7710   50.2670 C   0  0  0  0  0  0  0  0  0  0  0  0
   64.7900   32.7760   49.3240 C   0  0  0  0  0  0  0  0  0  0  0  0
   63.7550   32.2470   48.5470 C   0  0  0  0  0  0  0  0  0  0  0  0
   61.0970   30.7650   47.8590 C   0  0  0  0  0  0  0  0  0  0  0  0
   60.0640   30.2310   47.0860 C   0  0  0  0  0  0  0  0  0  0  0  0
   59.2400   31.0690   46.3080 C   0  0  0  0  0  0  0  0  0  0  0  0
   56.6550   28.5870   45.7180 C   0  0  0  0  0  0  0  0  0  0  0  0
   56.4040   27.2150   45.6090 C   0  0  0  0  0  0  0  0  0  0  0  0
   55.1440   26.7220   45.9280 O   0  0  0  0  0  0  0  0  0  0  0  0
   56.0873   23.4363   44.1596 H   0  0  0  0  0  0  0  0  0  0  0  0
   56.0670   25.0166   43.3059 H   0  0  0  0  0  0  0  0  0  0  0  0
   57.5580   24.0149   43.3059 H   0  0  0  0  0  0  0  0  0  0  0  0
   59.4811   26.1846   44.5225 H   0  0  0  0  0  0  0  0  0  0  0  0
   59.9236   28.6292   44.7107 H   0  0  0  0  0  0  0  0  0  0  0  0
   56.9508   33.5063   44.2728 H   0  0  0  0  0  0  0  0  0  0  0  0
   58.8182   34.4172   45.6410 H   0  0  0  0  0  0  0  0  0  0  0  0
   60.6821   34.0802   47.1402 H   0  0  0  0  0  0  0  0  0  0  0  0
   61.1495   34.0817   49.7986 H   0  0  0  0  0  0  0  0  0  0  0  0
   63.0035   35.0216   51.1774 H   0  0  0  0  0  0  0  0  0  0  0  0
   65.3368   34.1865   50.8768 H   0  0  0  0  0  0  0  0  0  0  0  0
   65.8182   32.4080   49.1925 H   0  0  0  0  0  0  0  0  0  0  0  0
   63.9736   31.4643   47.8056 H   0  0  0  0  0  0  0  0  0  0  0  0
   61.7327   30.0942   48.4556 H   0  0  0  0  0  0  0  0  0  0  0  0
   59.8915   29.1446   47.0842 H   0  0  0  0  0  0  0  0  0  0  0  0
   55.8560   29.2652   46.0521 H   0  0  0  0  0  0  0  0  0  0  0  0
  1  2  1  0
  2  3  1  0
  3  4  2  0
  4  5  1  0
  5  6  2  0
  6  7  1  0
  7  8  2  0
  8  9  1  0
  8 10  1  0
 10 11  2  0
 11 12  1  0
 12 13  2  0
 13 14  1  0
 14 15  1  0
 15 16  2  0
 16 17  1  0
 17 18  2  0
 18 19  1  0
 19 20  2  0
 14 21  2  0
 21 22  1  0
 22 23  2  0
  6 24  1  0
 24 25  2  0
 25 26  1  0
 25  3  1  0
 23  7  1  0
 23 12  1  0
 20 15  1  0
  1 27  1  0
  1 28  1  0
  1 29  1  0
  4 30  1  0
  5 31  1  0
 10 32  1  0
 11 33  1  0
 13 34  1  0
 16 35  1  0
 17 36  1  0
 18 37  1  0
 19 38  1  0
 20 39  1  0
 21 40  1  0
 22 41  1  0
 24 42  1  0
M  CHG  2   9  -1  26  -1
M  END
>  <UniqueID>  (34) 
32

>  <SMILES>  (34) 
COc1ccc(-c2c([O-])ccc3cc(-c4ccccc4)ccc23)cc1[O-]

>  <Energy>  (34) 
64.69272968654606

>  <Genealogy>  (34) 
COc1ccc(-c2c([O-])ccc3cc(-c4ccccc4)ccc23)cc1[O-] (protonated)
COc1ccc(-c2c([O-])ccc3cc(-c4ccccc4)ccc23)cc1[O-] (3D coordinates assigned)
COc1ccc(-c2c([O-])ccc3cc(-c4ccccc4)ccc23)cc1[O-] (optimized conformer: 64.69272968654606 kcal/mol)

>  <smiles>  (34) 
COc1ccc(-c2c(O)ccc3cc(-c4ccccc4)ccc23)cc1O

>  <score_type>  (34) 
oracle

>  <origin>  (34) 
adg

>  <m_score__min__energy>  (34) 
-12.619999999999999

>  <m_primary>  (34) 
energy

$$$$
34:0
     RDKit          3D

 35 37  0  0  0  0  0  0  0  0999 V2000
   57.0030   31.0330   43.3480 C   0  0  0  0  0  0  0  0  0  0  0  0
   56.9820   31.0960   44.7700 O   0  0  0  0  0  0  0  0  0  0  0  0
   57.7010   32.0280   45.5330 C   0  0  0  0  0  0  0  0  0  0  0  0
   57.9300   33.3420   45.0970 C   0  0  0  0  0  0  0  0  0  0  0  0
   58.6500   34.2310   45.8950 C   0  0  0  0  0  0  0  0  0  0  0  0
   59.1590   33.8340   47.1370 C   0  0  0  0  0  0  0  0  0  0  0  0
   58.9480   32.5060   47.5800 C   0  0  0  0  0  0  0  0  0  0  0  0
   58.2060   31.6240   46.7730 C   0  0  0  0  0  0  0  0  0  0  0  0
   59.4340   32.0030   48.8860 C   0  0  0  0  0  0  0  0  0  0  0  0
   58.6150   31.3800   49.6170 O   0  0  0  0  0  0  0  0  0  0  0  0
   60.8210   32.1000   49.3100 N   0  0  1  0  0  0  0  0  0  0  0  0
   61.6190   30.9980   48.7300 C   0  0  0  0  0  0  0  0  0  0  0  0
   61.9300   31.2090   47.2310 C   0  0  0  0  0  0  0  0  0  0  0  0
   61.9190   32.6250   46.8360 N   0  0  0  0  0  0  0  0  0  0  0  0
   62.4220   33.4850   47.9070 C   0  0  0  0  0  0  0  0  0  0  0  0
   61.4740   33.4310   49.1330 C   0  0  1  0  0  0  0  0  0  0  0  0
   60.4630   34.6000   49.1480 C   0  0  0  0  0  0  0  0  0  0  0  0
   59.8640   34.7960   47.8730 O   0  0  0  0  0  0  0  0  0  0  0  0
   57.3360   30.0340   43.0301 H   0  0  0  0  0  0  0  0  0  0  0  0
   55.9926   31.2242   42.9575 H   0  0  0  0  0  0  0  0  0  0  0  0
   57.6967   31.7922   42.9575 H   0  0  0  0  0  0  0  0  0  0  0  0
   57.5404   33.6720   44.1227 H   0  0  0  0  0  0  0  0  0  0  0  0
   58.8203   35.2592   45.5431 H   0  0  0  0  0  0  0  0  0  0  0  0
   58.0198   30.5982   47.1237 H   0  0  0  0  0  0  0  0  0  0  0  0
   60.8110   31.9230   50.3440 H   0  0  0  0  0  0  0  0  0  0  0  0
   62.5692   30.9252   49.2793 H   0  0  0  0  0  0  0  0  0  0  0  0
   61.0250   30.0764   48.8187 H   0  0  0  0  0  0  0  0  0  0  0  0
   62.9258   30.7933   47.0177 H   0  0  0  0  0  0  0  0  0  0  0  0
   61.1414   30.7010   46.6566 H   0  0  0  0  0  0  0  0  0  0  0  0
   62.5390   32.7410   46.0010 H   0  0  0  0  0  0  0  0  0  0  0  0
   63.4231   33.1421   48.2074 H   0  0  0  0  0  0  0  0  0  0  0  0
   62.4720   34.5206   47.5396 H   0  0  0  0  0  0  0  0  0  0  0  0
   62.1148   33.5648   50.0170 H   0  0  0  0  0  0  0  0  0  0  0  0
   59.6740   34.3791   49.8820 H   0  0  0  0  0  0  0  0  0  0  0  0
   61.0059   35.5184   49.4158 H   0  0  0  0  0  0  0  0  0  0  0  0
  1  2  1  0
  2  3  1  0
  3  4  2  0
  4  5  1  0
  5  6  2  0
  6  7  1  0
  7  8  2  0
  7  9  1  0
  9 10  2  0
  9 11  1  0
 11 12  1  0
 12 13  1  0
 13 14  1  0
 14 15  1  0
 15 16  1  0
 16 17  1  0
 17 18  1  0
  8  3  1  0
 16 11  1  0
 18  6  1  0
  1 19  1  0
  1 20  1  0
  1 21  1  0
  4 22  1  0
  5 23  1  0
  8 24  1  0
 11 25  1  1
 12 26  1  0
 12 27  1  0
 13 28  1  0
 13 29  1  0
 14 30  1  0
 15 31  1  0
 15 32  1  0
 16 33  1  1
 17 34  1  0
 17 35  1  0
M  CHG  1  11   1
M  END
>  <UniqueID>  (35) 
33

>  <SMILES>  (35) 
COc1ccc2c(c1)C(=O)[N@H+]1CCNC[C@H]1CO2

>  <Energy>  (35) 
60.817290713875295

>  <Genealogy>  (35) 
COc1ccc2c(c1)C(=O)[NH+]1CCNCC1CO2 (protonated)
COc1ccc2c(c1)C(=O)[N@H+]1CCNC[C@H]1CO2 (chirality)
COc1ccc2c(c1)C(=O)[N@H+]1CCNC[C@H]1CO2 (3D coordinates assigned)
COc1ccc2c(c1)C(=O)[N@H+]1CCNC[C@H]1CO2 (nonaromatic ring conformer: 60.817290713875295 kcal/mol)

>  <smiles>  (35) 
COc1ccc2c(c1)C(=O)N1CCNCC1CO2

>  <score_type>  (35) 
oracle

>  <origin>  (35) 
adg

>  <m_score__min__energy>  (35) 
-2.9500000000000002

>  <m_primary>  (35) 
energy

$$$$
35:0
     RDKit          3D

 34 36  0  0  0  0  0  0  0  0999 V2000
   55.5500   29.3760   44.4360 C   0  0  0  0  0  0  0  0  0  0  0  0
   56.4680   30.4850   44.0320 C   0  0  0  0  0  0  0  0  0  0  0  0
   56.6490   30.7970   42.6790 C   0  0  0  0  0  0  0  0  0  0  0  0
   57.5300   31.8190   42.3260 C   0  0  0  0  0  0  0  0  0  0  0  0
   58.2150   32.5220   43.3180 C   0  0  0  0  0  0  0  0  0  0  0  0
   57.9980   32.2000   44.6690 C   0  0  0  0  0  0  0  0  0  0  0  0
   58.7160   32.8920   45.7610 C   0  0  0  0  0  0  0  0  0  0  0  0
   58.3020   34.1410   46.1150 N   0  0  0  0  0  0  0  0  0  0  0  0
   58.8990   34.8500   47.1070 C   0  0  0  0  0  0  0  0  0  0  0  0
   59.9830   34.3080   47.7960 C   0  0  0  0  0  0  0  0  0  0  0  0
   60.4500   33.0420   47.4470 C   0  0  0  0  0  0  0  0  0  0  0  0
   59.8210   32.3140   46.4230 C   0  0  0  0  0  0  0  0  0  0  0  0
   60.3240   31.0720   46.0050 O   0  0  0  0  0  0  0  0  0  0  0  0
   59.6190   29.8590   46.0280 C   0  0  0  0  0  0  0  0  0  0  0  0
   59.6140   29.0630   44.8770 C   0  0  0  0  0  0  0  0  0  0  0  0
   58.9090   27.8550   44.8540 C   0  0  0  0  0  0  0  0  0  0  0  0
   58.1940   27.4410   45.9810 C   0  0  0  0  0  0  0  0  0  0  0  0
   57.5100   26.2710   45.9590 F   0  0  0  0  0  0  0  0  0  0  0  0
   58.1780   28.2390   47.1300 C   0  0  0  0  0  0  0  0  0  0  0  0
   58.8830   29.4470   47.1540 C   0  0  0  0  0  0  0  0  0  0  0  0
   57.1480   31.1830   44.9820 N   0  0  0  0  0  0  0  0  0  0  0  0
   55.5036   29.3199   45.5336 H   0  0  0  0  0  0  0  0  0  0  0  0
   54.5437   29.5688   44.0358 H   0  0  0  0  0  0  0  0  0  0  0  0
   55.9274   28.4234   44.0358 H   0  0  0  0  0  0  0  0  0  0  0  0
   56.1021   30.2419   41.9027 H   0  0  0  0  0  0  0  0  0  0  0  0
   57.6848   32.0707   41.2664 H   0  0  0  0  0  0  0  0  0  0  0  0
   58.9192   33.3217   43.0449 H   0  0  0  0  0  0  0  0  0  0  0  0
   58.5274   35.8521   47.3671 H   0  0  0  0  0  0  0  0  0  0  0  0
   60.4649   34.8738   48.6069 H   0  0  0  0  0  0  0  0  0  0  0  0
   61.3137   32.6114   47.9749 H   0  0  0  0  0  0  0  0  0  0  0  0
   60.1681   29.3894   43.9845 H   0  0  0  0  0  0  0  0  0  0  0  0
   58.9175   27.2307   43.9484 H   0  0  0  0  0  0  0  0  0  0  0  0
   57.6105   27.9162   48.0153 H   0  0  0  0  0  0  0  0  0  0  0  0
   58.8619   30.0765   48.0558 H   0  0  0  0  0  0  0  0  0  0  0  0
  1  2  1  0
  2  3  2  0
  3  4  1  0
  4  5  2  0
  5  6  1  0
  6  7  1  0
  7  8  2  0
  8  9  1  0
  9 10  2  0
 10 11  1  0
 11 12  2  0
 12 13  1  0
 13 14  1  0
 14 15  2  0
 15 16  1  0
 16 17  2  0
 17 18  1  0
 17 19  1  0
 19 20  2  0
  6 21  2  0
 21  2  1  0
 12  7  1  0
 20 14  1  0
  1 22  1  0
  1 23  1  0
  1 24  1  0
  3 25  1  0
  4 26  1  0
  5 27  1  0
  9 28  1  0
 10 29  1  0
 11 30  1  0
 15 31  1  0
 16 32  1  0
 19 33  1  0
 20 34  1  0
M  END
>  <UniqueID>  (36) 
34

>  <SMILES>  (36) 
Cc1cccc(-c2ncccc2Oc2ccc(F)cc2)n1

>  <Energy>  (36) 
47.97647640691947

>  <Genealogy>  (36) 
Cc1cccc(-c2ncccc2Oc2ccc(F)cc2)n1 (3D coordinates assigned)
Cc1cccc(-c2ncccc2Oc2ccc(F)cc2)n1 (optimized conformer: 47.97647640691947 kcal/mol)

>  <smiles>  (36) 
Cc1cccc(-c2ncccc2Oc2ccc(F)cc2)n1

>  <score_type>  (36) 
oracle

>  <origin>  (36) 
adg

>  <m_score__min__energy>  (36) 
-7.1299999999999999

>  <m_primary>  (36) 
energy

$$$$
36:0
     RDKit          3D

 50 52  0  0  0  0  0  0  0  0999 V2000
   59.6600   35.3290   46.0780 C   0  0  0  0  0  0  0  0  0  0  0  0
   59.2610   34.8060   44.8150 O   0  0  0  0  0  0  0  0  0  0  0  0
   58.5820   33.5920   44.6410 C   0  0  0  0  0  0  0  0  0  0  0  0
   58.4200   33.0980   43.3420 C   0  0  0  0  0  0  0  0  0  0  0  0
   57.7670   31.8820   43.1190 C   0  0  0  0  0  0  0  0  0  0  0  0
   57.2580   31.1490   44.1980 C   0  0  0  0  0  0  0  0  0  0  0  0
   56.5280   29.5680   43.9260 S   0  0  0  0  0  0  0  0  0  0  0  0
   55.3410   29.3940   44.8320 O   0  0  0  0  0  0  0  0  0  0  0  0
   56.0630   29.4650   42.5010 O   0  0  0  0  0  0  0  0  0  0  0  0
   57.7280   28.2870   44.2580 C   0  0  0  0  0  0  0  0  0  0  0  0
   58.6800   28.7370   45.3310 C   0  0  0  0  0  0  0  0  0  0  0  0
   58.2570   28.8190   46.6650 C   0  0  0  0  0  0  0  0  0  0  0  0
   59.1050   29.3420   47.6440 C   0  0  0  0  0  0  0  0  0  0  0  0
   60.3800   29.8180   47.2990 C   0  0  0  0  0  0  0  0  0  0  0  0
   61.2850   30.4430   48.3410 C   0  0  0  0  0  0  0  0  0  0  0  0
   62.2630   31.4050   47.7800 N   0  0  0  0  0  0  0  0  0  0  0  0
   61.6370   32.5590   47.0920 C   0  0  0  0  0  0  0  0  0  0  0  0
   62.6890   33.6040   46.7080 C   0  0  0  0  0  0  0  0  0  0  0  0
   63.4100   34.1600   47.9520 C   0  0  0  0  0  0  0  0  0  0  0  0
   63.3610   33.1980   49.1520 C   0  0  0  0  0  0  0  0  0  0  0  0
   63.3900   31.7360   48.6870 C   0  0  0  0  0  0  0  0  0  0  0  0
   60.8120   29.7120   45.9670 C   0  0  0  0  0  0  0  0  0  0  0  0
   59.9690   29.1790   44.9900 C   0  0  0  0  0  0  0  0  0  0  0  0
   57.4090   31.6410   45.5010 C   0  0  0  0  0  0  0  0  0  0  0  0
   58.0660   32.8550   45.7240 C   0  0  0  0  0  0  0  0  0  0  0  0
   59.2048   34.7324   46.8823 H   0  0  0  0  0  0  0  0  0  0  0  0
   60.7558   35.2845   46.1637 H   0  0  0  0  0  0  0  0  0  0  0  0
   59.3276   36.3741   46.1637 H   0  0  0  0  0  0  0  0  0  0  0  0
   58.8100   33.6716   42.4883 H   0  0  0  0  0  0  0  0  0  0  0  0
   57.6529   31.5003   42.0937 H   0  0  0  0  0  0  0  0  0  0  0  0
   57.2067   27.3778   44.5920 H   0  0  0  0  0  0  0  0  0  0  0  0
   58.2945   28.0771   43.3387 H   0  0  0  0  0  0  0  0  0  0  0  0
   57.2516   28.4695   46.9424 H   0  0  0  0  0  0  0  0  0  0  0  0
   58.7719   29.3812   48.6916 H   0  0  0  0  0  0  0  0  0  0  0  0
   60.6578   30.9725   49.0733 H   0  0  0  0  0  0  0  0  0  0  0  0
   61.8630   29.6257   48.7970 H   0  0  0  0  0  0  0  0  0  0  0  0
   61.1325   32.2046   46.1811 H   0  0  0  0  0  0  0  0  0  0  0  0
   60.9128   33.0250   47.7763 H   0  0  0  0  0  0  0  0  0  0  0  0
   63.4308   33.1375   46.0431 H   0  0  0  0  0  0  0  0  0  0  0  0
   62.1802   34.4374   46.2015 H   0  0  0  0  0  0  0  0  0  0  0  0
   64.4630   34.3457   47.6937 H   0  0  0  0  0  0  0  0  0  0  0  0
   62.8922   35.0842   48.2483 H   0  0  0  0  0  0  0  0  0  0  0  0
   64.2298   33.3866   49.7998 H   0  0  0  0  0  0  0  0  0  0  0  0
   62.4246   33.3720   49.7023 H   0  0  0  0  0  0  0  0  0  0  0  0
   64.3357   31.5537   48.1555 H   0  0  0  0  0  0  0  0  0  0  0  0
   63.2982   31.0998   49.5796 H   0  0  0  0  0  0  0  0  0  0  0  0
   61.8215   30.0512   45.6915 H   0  0  0  0  0  0  0  0  0  0  0  0
   60.3157   29.1049   43.9487 H   0  0  0  0  0  0  0  0  0  0  0  0
   57.0092   31.0701   46.3520 H   0  0  0  0  0  0  0  0  0  0  0  0
   58.1802   33.2358   46.7497 H   0  0  0  0  0  0  0  0  0  0  0  0
  1  2  1  0
  2  3  1  0
  3  4  2  0
  4  5  1  0
  5  6  2  0
  6  7  1  0
  7  8  2  0
  7  9  2  0
  7 10  1  0
 10 11  1  0
 11 12  2  0
 12 13  1  0
 13 14  2  0
 14 15  1  0
 15 16  1  0
 16 17  1  0
 17 18  1  0
 18 19  1  0
 19 20  1  0
 20 21  1  0
 14 22  1  0
 22 23  2  0
  6 24  1  0
 24 25  2  0
 25  3  1  0
 23 11  1  0
 21 16  1  0
  1 26  1  0
  1 27  1  0
  1 28  1  0
  4 29  1  0
  5 30  1  0
 10 31  1  0
 10 32  1  0
 12 33  1  0
 13 34  1  0
 15 35  1  0
 15 36  1  0
 17 37  1  0
 17 38  1  0
 18 39  1  0
 18 40  1  0
 19 41  1  0
 19 42  1  0
 20 43  1  0
 20 44  1  0
 21 45  1  0
 21 46  1  0
 22 47  1  0
 23 48  1  0
 24 49  1  0
 25 50  1  0
M  END
>  <UniqueID>  (37) 
35

>  <SMILES>  (37) 
COc1ccc(S(=O)(=O)Cc2ccc(CN3CCCCC3)cc2)cc1

>  <Energy>  (37) 
51.52551886553193

>  <Genealogy>  (37) 
COc1ccc(S(=O)(=O)Cc2ccc(CN3CCCCC3)cc2)cc1 (3D coordinates assigned)
COc1ccc(S(=O)(=O)Cc2ccc(CN3CCCCC3)cc2)cc1 (nonaromatic ring conformer: 51.52551886553193 kcal/mol)

>  <smiles>  (37) 
COc1ccc(S(=O)(=O)Cc2ccc(CN3CCCCC3)cc2)cc1

>  <score_type>  (37) 
oracle

>  <origin>  (37) 
adg

>  <m_score__min__energy>  (37) 
-9.1899999999999995

>  <m_primary>  (37) 
energy

$$$$
37:0
     RDKit          3D

 34 35  0  0  0  0  0  0  0  0999 V2000
   65.2590   32.6130   50.0080 C   0  0  0  0  0  0  0  0  0  0  0  0
   64.2980   33.3080   49.0390 C   0  0  0  0  0  0  0  0  0  0  0  0
   64.1430   32.5640   47.7760 N   0  0  0  0  0  0  0  0  0  0  0  0
   62.7520   32.3960   47.4260 C   0  0  0  0  0  0  0  0  0  0  0  0
   62.1680   31.1200   47.4410 C   0  0  0  0  0  0  0  0  0  0  0  0
   60.8210   30.9580   47.1130 C   0  0  0  0  0  0  0  0  0  0  0  0
   60.0430   32.0660   46.7760 C   0  0  0  0  0  0  0  0  0  0  0  0
   60.5960   33.3580   46.7720 C   0  0  0  0  0  0  0  0  0  0  0  0
   59.7010   34.5250   46.3710 C   0  0  1  0  0  0  0  0  0  0  0  0
   59.2800   34.5820   44.8810 C   0  0  0  0  0  0  0  0  0  0  0  0
   58.2150   33.6170   44.5880 N   0  0  0  0  0  0  0  0  0  0  0  0
   57.0990   33.7990   45.5170 C   0  0  0  0  0  0  0  0  0  0  0  0
   57.6040   33.6620   46.9550 C   0  0  0  0  0  0  0  0  0  0  0  0
   58.5850   34.6410   47.2410 O   0  0  0  0  0  0  0  0  0  0  0  0
   61.9610   33.5110   47.0880 C   0  0  0  0  0  0  0  0  0  0  0  0
   64.9574   32.8311   51.0431 H   0  0  0  0  0  0  0  0  0  0  0  0
   65.2286   31.5266   49.8384 H   0  0  0  0  0  0  0  0  0  0  0  0
   66.2813   32.9821   49.8384 H   0  0  0  0  0  0  0  0  0  0  0  0
   63.3130   33.3970   49.5205 H   0  0  0  0  0  0  0  0  0  0  0  0
   64.7180   34.2958   48.7986 H   0  0  0  0  0  0  0  0  0  0  0  0
   64.6630   33.0510   47.0090 H   0  0  0  0  0  0  0  0  0  0  0  0
   64.5800   31.6200   47.8910 H   0  0  0  0  0  0  0  0  0  0  0  0
   62.7746   30.2435   47.7125 H   0  0  0  0  0  0  0  0  0  0  0  0
   60.3716   29.9540   47.1202 H   0  0  0  0  0  0  0  0  0  0  0  0
   58.9847   31.9267   46.5104 H   0  0  0  0  0  0  0  0  0  0  0  0
   60.3443   35.4095   46.4883 H   0  0  0  0  0  0  0  0  0  0  0  0
   58.9186   35.5949   44.6498 H   0  0  0  0  0  0  0  0  0  0  0  0
   60.1551   34.3293   44.2643 H   0  0  0  0  0  0  0  0  0  0  0  0
   57.8650   33.8030   43.6200 H   0  0  0  0  0  0  0  0  0  0  0  0
   56.6634   34.7991   45.3752 H   0  0  0  0  0  0  0  0  0  0  0  0
   56.3326   33.0341   45.3234 H   0  0  0  0  0  0  0  0  0  0  0  0
   56.7582   33.7867   47.6472 H   0  0  0  0  0  0  0  0  0  0  0  0
   58.0555   32.6662   47.0756 H   0  0  0  0  0  0  0  0  0  0  0  0
   62.4139   34.5133   47.0704 H   0  0  0  0  0  0  0  0  0  0  0  0
  1  2  1  0
  2  3  1  0
  3  4  1  0
  4  5  2  0
  5  6  1  0
  6  7  2  0
  7  8  1  0
  8  9  1  0
  9 10  1  0
 10 11  1  0
 11 12  1  0
 12 13  1  0
 13 14  1  0
  8 15  2  0
 15  4  1  0
 14  9  1  0
  1 16  1  0
  1 17  1  0
  1 18  1  0
  2 19  1  0
  2 20  1  0
  3 21  1  0
  3 22  1  0
  5 23  1  0
  6 24  1  0
  7 25  1  0
  9 26  1  1
 10 27  1  0
 10 28  1  0
 11 29  1  0
 12 30  1  0
 12 31  1  0
 13 32  1  0
 13 33  1  0
 15 34  1  0
M  CHG  1   3   1
M  END
>  <UniqueID>  (38) 
36

>  <SMILES>  (38) 
CC[NH2+]c1cccc([C@H]2CNCCO2)c1

>  <Energy>  (38) 
37.747499159397236

>  <Genealogy>  (38) 
CC[NH2+]c1cccc(C2CNCCO2)c1 (protonated)
CC[NH2+]c1cccc([C@H]2CNCCO2)c1 (chirality)
CC[NH2+]c1cccc([C@H]2CNCCO2)c1 (3D coordinates assigned)
CC[NH2+]c1cccc([C@H]2CNCCO2)c1 (nonaromatic ring conformer: 37.747499159397236 kcal/mol)

>  <smiles>  (38) 
CCNc1cccc(C2CNCCO2)c1

>  <score_type>  (38) 
oracle

>  <origin>  (38) 
adg

>  <m_score__min__energy>  (38) 
-4.5199999999999996

>  <m_primary>  (38) 
energy

$$$$
38:0
     RDKit          3D

 37 40  0  0  0  0  0  0  0  0999 V2000
   56.9150   20.9910   42.9970 C   0  0  0  0  0  0  0  0  0  0  0  0
   57.1430   22.3440   43.6030 C   0  0  0  0  0  0  0  0  0  0  0  0
   57.9420   22.4850   44.7440 C   0  0  0  0  0  0  0  0  0  0  0  0
   58.1790   23.7530   45.2760 C   0  0  0  0  0  0  0  0  0  0  0  0
   57.6220   24.8820   44.6540 C   0  0  0  0  0  0  0  0  0  0  0  0
   57.8570   26.1980   45.1920 N   0  0  0  0  0  0  0  0  0  0  0  0
   57.9300   26.3630   46.5570 C   0  0  0  0  0  0  0  0  0  0  0  0
   58.1650   27.5920   47.1030 N   0  0  0  0  0  0  0  0  0  0  0  0
   58.3240   28.6640   46.2930 C   0  0  0  0  0  0  0  0  0  0  0  0
   58.5700   29.9690   46.7240 C   0  0  0  0  0  0  0  0  0  0  0  0
   58.6730   30.8680   45.6560 C   0  0  0  0  0  0  0  0  0  0  0  0
   59.0020   32.3060   45.7830 C   0  0  0  0  0  0  0  0  0  0  0  0
   58.1790   33.2480   45.1390 C   0  0  0  0  0  0  0  0  0  0  0  0
   58.4420   34.6160   45.2510 C   0  0  0  0  0  0  0  0  0  0  0  0
   59.5320   35.0600   45.9990 C   0  0  0  0  0  0  0  0  0  0  0  0
   60.3670   34.1370   46.6310 C   0  0  0  0  0  0  0  0  0  0  0  0
   60.1150   32.7630   46.5280 C   0  0  0  0  0  0  0  0  0  0  0  0
   61.2660   31.6610   47.2770 Cl  0  0  0  0  0  0  0  0  0  0  0  0
   58.4900   30.0180   44.1970 S   0  0  0  0  0  0  0  0  0  0  0  0
   58.2510   28.5250   44.9270 C   0  0  0  0  0  0  0  0  0  0  0  0
   58.0130   27.2810   44.3600 C   0  0  0  0  0  0  0  0  0  0  0  0
   57.9260   27.1610   43.1060 O   0  0  0  0  0  0  0  0  0  0  0  0
   56.8650   24.7230   43.5290 N   0  0  0  0  0  0  0  0  0  0  0  0
   56.6240   23.4940   42.9950 C   0  0  0  0  0  0  0  0  0  0  0  0
   56.7896   20.2471   43.7975 H   0  0  0  0  0  0  0  0  0  0  0  0
   56.0084   21.0161   42.3745 H   0  0  0  0  0  0  0  0  0  0  0  0
   57.7797   20.7176   42.3745 H   0  0  0  0  0  0  0  0  0  0  0  0
   58.3826   21.5969   45.2207 H   0  0  0  0  0  0  0  0  0  0  0  0
   58.7987   23.8675   46.1776 H   0  0  0  0  0  0  0  0  0  0  0  0
   57.7972   25.4927   47.2165 H   0  0  0  0  0  0  0  0  0  0  0  0
   58.6712   30.2574   47.7807 H   0  0  0  0  0  0  0  0  0  0  0  0
   57.3211   32.9048   44.5422 H   0  0  0  0  0  0  0  0  0  0  0  0
   57.7881   35.3438   44.7483 H   0  0  0  0  0  0  0  0  0  0  0  0
   59.7338   36.1374   46.0910 H   0  0  0  0  0  0  0  0  0  0  0  0
   61.2296   34.4914   47.2144 H   0  0  0  0  0  0  0  0  0  0  0  0
   56.4730   25.5630   43.0460 H   0  0  0  0  0  0  0  0  0  0  0  0
   56.0184   23.4038   42.0811 H   0  0  0  0  0  0  0  0  0  0  0  0
  1  2  1  0
  2  3  2  0
  3  4  1  0
  4  5  2  0
  5  6  1  0
  6  7  1  0
  7  8  2  0
  8  9  1  0
  9 10  1  0
 10 11  2  0
 11 12  1  0
 12 13  2  0
 13 14  1  0
 14 15  2  0
 15 16  1  0
 16 17  2  0
 17 18  1  0
 11 19  1  0
 19 20  1  0
 20 21  1  0
 21 22  2  0
  5 23  1  0
 23 24  2  0
 24  2  1  0
 21  6  1  0
 20  9  2  0
 17 12  1  0
  1 25  1  0
  1 26  1  0
  1 27  1  0
  3 28  1  0
  4 29  1  0
  7 30  1  0
 10 31  1  0
 13 32  1  0
 14 33  1  0
 15 34  1  0
 16 35  1  0
 23 36  1  0
 24 37  1  0
M  CHG  1  23   1
M  END
>  <UniqueID>  (39) 
37

>  <SMILES>  (39) 
Cc1ccc(-n2cnc3cc(-c4ccccc4Cl)sc3c2=O)[nH+]c1

>  <Energy>  (39) 
88.50523904395673

>  <Genealogy>  (39) 
Cc1ccc(-n2cnc3cc(-c4ccccc4Cl)sc3c2=O)[nH+]c1 (protonated)
Cc1ccc(-n2cnc3cc(-c4ccccc4Cl)sc3c2=O)[nH+]c1 (3D coordinates assigned)
Cc1ccc(-n2cnc3cc(-c4ccccc4Cl)sc3c2=O)[nH+]c1 (optimized conformer: 88.50523904395673 kcal/mol)

>  <smiles>  (39) 
Cc1ccc(-n2cnc3cc(-c4ccccc4Cl)sc3c2=O)nc1

>  <score_type>  (39) 
oracle

>  <origin>  (39) 
adg

>  <m_score__min__energy>  (39) 
-6.75

>  <m_primary>  (39) 
energy

$$$$
39:0
     RDKit          3D

 52 54  0  0  0  0  0  0  0  0999 V2000
   56.6270   26.2570   45.4510 C   0  0  0  0  0  0  0  0  0  0  0  0
   56.0980   27.5670   45.6190 O   0  0  0  0  0  0  0  0  0  0  0  0
   56.6170   28.7220   45.0090 C   0  0  0  0  0  0  0  0  0  0  0  0
   55.7930   29.6200   44.3010 C   0  0  0  0  0  0  0  0  0  0  0  0
   56.3410   30.7510   43.6910 C   0  0  0  0  0  0  0  0  0  0  0  0
   57.7110   30.9980   43.7740 C   0  0  0  0  0  0  0  0  0  0  0  0
   58.5390   30.1170   44.4730 C   0  0  0  0  0  0  0  0  0  0  0  0
   58.0010   28.9850   45.1060 C   0  0  0  0  0  0  0  0  0  0  0  0
   58.9200   28.0300   45.8270 C   0  0  0  0  0  0  0  0  0  0  0  0
   58.9340   28.3240   47.3290 C   0  0  0  0  0  0  0  0  0  0  0  0
   59.5190   29.6460   47.5830 N   0  0  0  0  0  0  0  0  0  0  0  0
   59.0370   30.5050   48.6620 C   0  0  0  0  0  0  0  0  0  0  0  0
   60.2450   31.0350   49.4430 C   0  0  0  0  0  0  0  0  0  0  0  0
   61.1980   31.8260   48.6010 N   0  0  2  0  0  0  0  0  0  0  0  0
   61.0000   33.2820   48.8280 C   0  0  0  0  0  0  0  0  0  0  0  0
   60.9910   34.1170   47.5290 C   0  0  0  0  0  0  0  0  0  0  0  0
   59.6610   34.0570   46.8200 C   0  0  0  0  0  0  0  0  0  0  0  0
   58.5250   33.5470   47.4710 C   0  0  0  0  0  0  0  0  0  0  0  0
   57.3000   33.4740   46.8000 C   0  0  0  0  0  0  0  0  0  0  0  0
   57.2000   33.9100   45.4760 C   0  0  0  0  0  0  0  0  0  0  0  0
   58.3240   34.4200   44.8210 C   0  0  0  0  0  0  0  0  0  0  0  0
   59.5510   34.4930   45.4880 C   0  0  0  0  0  0  0  0  0  0  0  0
   61.1670   31.5010   47.1400 C   0  0  0  0  0  0  0  0  0  0  0  0
   60.6600   30.1170   46.8560 C   0  0  0  0  0  0  0  0  0  0  0  0
   61.2050   29.4070   45.9680 O   0  0  0  0  0  0  0  0  0  0  0  0
   56.8092   25.8058   46.4375 H   0  0  0  0  0  0  0  0  0  0  0  0
   55.9076   25.6399   44.8928 H   0  0  0  0  0  0  0  0  0  0  0  0
   57.5732   26.3125   44.8928 H   0  0  0  0  0  0  0  0  0  0  0  0
   54.7121   29.4292   44.2284 H   0  0  0  0  0  0  0  0  0  0  0  0
   55.6901   31.4487   43.1437 H   0  0  0  0  0  0  0  0  0  0  0  0
   58.1397   31.8872   43.2886 H   0  0  0  0  0  0  0  0  0  0  0  0
   59.6203   30.3113   44.5281 H   0  0  0  0  0  0  0  0  0  0  0  0
   58.5706   26.9998   45.6638 H   0  0  0  0  0  0  0  0  0  0  0  0
   59.9393   28.1538   45.4325 H   0  0  0  0  0  0  0  0  0  0  0  0
   57.9033   28.3033   47.7126 H   0  0  0  0  0  0  0  0  0  0  0  0
   59.5404   27.5602   47.8379 H   0  0  0  0  0  0  0  0  0  0  0  0
   58.4703   31.3478   48.2395 H   0  0  0  0  0  0  0  0  0  0  0  0
   58.3785   29.9326   49.3319 H   0  0  0  0  0  0  0  0  0  0  0  0
   59.8791   31.6804   50.2551 H   0  0  0  0  0  0  0  0  0  0  0  0
   60.7952   30.1611   49.8218 H   0  0  0  0  0  0  0  0  0  0  0  0
   62.1570   31.5830   48.9490 H   0  0  0  0  0  0  0  0  0  0  0  0
   60.0371   33.4259   49.3401 H   0  0  0  0  0  0  0  0  0  0  0  0
   61.8517   33.6324   49.4296 H   0  0  0  0  0  0  0  0  0  0  0  0
   61.2110   35.1650   47.7805 H   0  0  0  0  0  0  0  0  0  0  0  0
   61.7518   33.6980   46.8540 H   0  0  0  0  0  0  0  0  0  0  0  0
   58.5995   33.2035   48.5133 H   0  0  0  0  0  0  0  0  0  0  0  0
   56.4145   33.0730   47.3149 H   0  0  0  0  0  0  0  0  0  0  0  0
   56.2361   33.8517   44.9493 H   0  0  0  0  0  0  0  0  0  0  0  0
   58.2436   34.7645   43.7794 H   0  0  0  0  0  0  0  0  0  0  0  0
   60.4339   34.8933   44.9682 H   0  0  0  0  0  0  0  0  0  0  0  0
   60.5113   32.2249   46.6340 H   0  0  0  0  0  0  0  0  0  0  0  0
   62.2015   31.5541   46.7698 H   0  0  0  0  0  0  0  0  0  0  0  0
  1  2  1  0
  2  3  1  0
  3  4  2  0
  4  5  1  0
  5  6  2  0
  6  7  1  0
  7  8  2  0
  8  9  1  0
  9 10  1  0
 10 11  1  0
 11 12  1  0
 12 13  1  0
 13 14  1  0
 14 15  1  0
 15 16  1  0
 16 17  1  0
 17 18  2  0
 18 19  1  0
 19 20  2  0
 20 21  1  0
 21 22  2  0
 14 23  1  0
 23 24  1  0
 24 25  2  0
  8  3  1  0
 24 11  1  0
 22 17  1  0
  1 26  1  0
  1 27  1  0
  1 28  1  0
  4 29  1  0
  5 30  1  0
  6 31  1  0
  7 32  1  0
  9 33  1  0
  9 34  1  0
 10 35  1  0
 10 36  1  0
 12 37  1  0
 12 38  1  0
 13 39  1  0
 13 40  1  0
 14 41  1  1
 15 42  1  0
 15 43  1  0
 16 44  1  0
 16 45  1  0
 18 46  1  0
 19 47  1  0
 20 48  1  0
 21 49  1  0
 22 50  1  0
 23 51  1  0
 23 52  1  0
M  CHG  1  14   1
M  END
>  <UniqueID>  (40) 
38

>  <SMILES>  (40) 
COc1ccccc1CCN1CC[N@H+](CCc2ccccc2)CC1=O

>  <Energy>  (40) 
58.35399310793599

>  <Genealogy>  (40) 
COc1ccccc1CCN1CC[NH+](CCc2ccccc2)CC1=O (protonated)
COc1ccccc1CCN1CC[N@H+](CCc2ccccc2)CC1=O (chirality)
COc1ccccc1CCN1CC[N@H+](CCc2ccccc2)CC1=O (3D coordinates assigned)
COc1ccccc1CCN1CC[N@H+](CCc2ccccc2)CC1=O (nonaromatic ring conformer: 58.35399310793599 kcal/mol)

>  <smiles>  (40) 
COc1ccccc1CCN1CCN(CCc2ccccc2)CC1=O

>  <score_type>  (40) 
oracle

>  <origin>  (40) 
adg

>  <m_score__min__energy>  (40) 
-6.46

>  <m_primary>  (40) 
energy

$$$$
40:0
     RDKit          3D

 40 43  0  0  1  0  0  0  0  0999 V2000
   56.2520   29.6720   43.4080 C   0  0  0  0  0  0  0  0  0  0  0  0
   56.9050   30.6880   44.2570 C   0  0  0  0  0  0  0  0  0  0  0  0
   56.7120   31.8510   44.5020 N   0  0  0  0  0  0  0  0  0  0  0  0
   57.3890   32.6470   45.2940 C   0  0  0  0  0  0  0  0  0  0  0  0
   57.0430   34.0930   45.5180 C   0  0  0  0  0  0  0  0  0  0  0  0
   58.4660   32.0630   45.9280 C   0  0  0  0  0  0  0  0  0  0  0  0
   59.4580   32.5250   46.8500 C   0  0  0  0  0  0  0  0  0  0  0  0
   60.7300   32.5140   46.5000 N   0  0  0  0  0  0  0  0  0  0  0  0
   61.6420   32.9550   47.3870 C   0  0  0  0  0  0  0  0  0  0  0  0
   62.9560   32.9270   46.9870 C   0  0  0  0  0  0  0  0  0  0  0  0
   63.8930   33.3750   47.8830 C   0  0  0  0  0  0  0  0  0  0  0  0
   63.6280   33.8430   49.1330 C   0  0  0  0  0  0  0  0  0  0  0  0
   62.2730   33.8600   49.5150 C   0  0  0  0  0  0  0  0  0  0  0  0
   61.3220   33.4200   48.6430 C   0  0  0  0  0  0  0  0  0  0  0  0
   60.0130   33.4260   48.9860 C   0  0  0  0  0  0  0  0  0  0  0  0
   59.5620   33.8080   50.0650 N   0  0  0  0  0  0  0  0  0  0  0  0
   58.9160   33.1500   51.0510 C   0  0  0  0  0  0  0  0  0  0  0  0
   58.9240   33.6770   52.3660 C   0  0  0  0  0  0  0  0  0  0  0  0
   58.1620   33.0500   53.3450 C   0  0  0  0  0  0  0  0  0  0  0  0
   57.3970   31.9260   53.0720 C   0  0  0  0  0  0  0  0  0  0  0  0
   57.3920   31.4090   51.7740 C   0  0  0  0  0  0  0  0  0  0  0  0
   58.1310   32.0010   50.7830 C   0  0  0  0  0  0  0  0  0  0  0  0
   59.1080   32.9690   48.0600 N   0  0  0  0  0  0  0  0  0  0  0  0
   58.4010   30.3100   45.2820 S   0  0  0  0  0  0  0  0  0  0  0  0
   55.7673   28.9179   44.0456 H   0  0  0  0  0  0  0  0  0  0  0  0
   55.4955   30.1561   42.7729 H   0  0  0  0  0  0  0  0  0  0  0  0
   57.0066   29.1849   42.7729 H   0  0  0  0  0  0  0  0  0  0  0  0
   56.9946   34.2954   46.5981 H   0  0  0  0  0  0  0  0  0  0  0  0
   57.8141   34.7298   45.0599 H   0  0  0  0  0  0  0  0  0  0  0  0
   56.0672   34.3117   45.0599 H   0  0  0  0  0  0  0  0  0  0  0  0
   63.2444   32.5609   45.9906 H   0  0  0  0  0  0  0  0  0  0  0  0
   64.9458   33.3542   47.5648 H   0  0  0  0  0  0  0  0  0  0  0  0
   64.4265   34.1882   49.8063 H   0  0  0  0  0  0  0  0  0  0  0  0
   61.9835   34.2261   50.5111 H   0  0  0  0  0  0  0  0  0  0  0  0
   59.5230   34.5672   52.6082 H   0  0  0  0  0  0  0  0  0  0  0  0
   58.1659   33.4575   54.3667 H   0  0  0  0  0  0  0  0  0  0  0  0
   56.8031   31.4487   53.8654 H   0  0  0  0  0  0  0  0  0  0  0  0
   56.7890   30.5180   51.5451 H   0  0  0  0  0  0  0  0  0  0  0  0
   58.1146   31.5791   49.7673 H   0  0  0  0  0  0  0  0  0  0  0  0
   58.0860   32.9550   48.2820 H   0  0  0  0  0  0  0  0  0  0  0  0
  1  2  1  0
  2  3  2  0
  3  4  1  0
  4  5  1  0
  4  6  2  0
  6  7  1  0
  7  8  2  0
  8  9  1  0
  9 10  2  0
 10 11  1  0
 11 12  2  0
 12 13  1  0
 13 14  2  0
 14 15  1  0
 15 16  2  0
 16 17  1  0
 17 18  2  0
 18 19  1  0
 19 20  2  0
 20 21  1  0
 21 22  2  0
 15 23  1  0
  6 24  1  0
 24  2  1  0
 23  7  1  0
 14  9  1  0
 22 17  1  0
  1 25  1  0
  1 26  1  0
  1 27  1  0
  5 28  1  0
  5 29  1  0
  5 30  1  0
 10 31  1  0
 11 32  1  0
 12 33  1  0
 13 34  1  0
 18 35  1  0
 19 36  1  0
 20 37  1  0
 21 38  1  0
 22 39  1  0
 23 40  1  0
M  END
>  <smiles>  (41) 
Cc1nc(C)c(-c2nc3ccccc3c(=Nc3ccccc3)[nH]2)s1

>  <score_type>  (41) 
oracle

>  <origin>  (41) 
adg

>  <m_score__min__energy>  (41) 
-7.9699999999999998

>  <m_primary>  (41) 
energy

$$$$
41:0
     RDKit          3D

 42 44  0  0  0  0  0  0  0  0999 V2000
   61.1000   28.6150   44.8790 C   0  0  0  0  0  0  0  0  0  0  0  0
   59.6590   28.9830   44.5300 C   0  0  0  0  0  0  0  0  0  0  0  0
   58.9500   29.5370   45.7070 N   0  0  0  0  0  0  0  0  0  0  0  0
   57.5290   29.1210   45.7250 C   0  0  0  0  0  0  0  0  0  0  0  0
   56.7980   29.6720   44.5040 C   0  0  0  0  0  0  0  0  0  0  0  0
   59.6410   29.1790   46.9730 C   0  0  0  0  0  0  0  0  0  0  0  0
   59.5430   30.3310   47.9790 C   0  0  0  0  0  0  0  0  0  0  0  0
   60.0120   31.5890   47.3900 N   0  0  0  0  0  0  0  0  0  0  0  0
   59.2830   32.5120   46.7100 C   0  0  0  0  0  0  0  0  0  0  0  0
   57.9070   32.5070   46.4520 C   0  0  0  0  0  0  0  0  0  0  0  0
   57.3720   33.5640   45.6930 C   0  0  0  0  0  0  0  0  0  0  0  0
   58.2050   34.5940   45.2070 C   0  0  0  0  0  0  0  0  0  0  0  0
   59.5850   34.5790   45.4700 C   0  0  0  0  0  0  0  0  0  0  0  0
   60.0900   33.5240   46.2260 C   0  0  0  0  0  0  0  0  0  0  0  0
   61.3730   33.2160   46.6170 C   0  0  0  0  0  0  0  0  0  0  0  0
   62.5880   33.8540   46.3930 C   0  0  0  0  0  0  0  0  0  0  0  0
   63.7390   33.2390   46.9180 C   0  0  0  0  0  0  0  0  0  0  0  0
   63.6460   32.0610   47.6120 N   0  0  0  0  0  0  0  0  0  0  0  0
   62.4470   31.4390   47.8240 C   0  0  0  0  0  0  0  0  0  0  0  0
   61.2910   32.0340   47.3180 C   0  0  0  0  0  0  0  0  0  0  0  0
   61.2163   28.5853   45.9724 H   0  0  0  0  0  0  0  0  0  0  0  0
   61.3384   27.6271   44.4579 H   0  0  0  0  0  0  0  0  0  0  0  0
   61.7829   29.3676   44.4579 H   0  0  0  0  0  0  0  0  0  0  0  0
   59.6646   29.7350   43.7272 H   0  0  0  0  0  0  0  0  0  0  0  0
   59.1352   28.0726   44.2032 H   0  0  0  0  0  0  0  0  0  0  0  0
   57.4728   28.0225   45.7159 H   0  0  0  0  0  0  0  0  0  0  0  0
   57.0529   29.5163   46.6344 H   0  0  0  0  0  0  0  0  0  0  0  0
   55.9597   30.3039   44.8327 H   0  0  0  0  0  0  0  0  0  0  0  0
   57.4943   30.2719   43.8996 H   0  0  0  0  0  0  0  0  0  0  0  0
   56.4131   28.8374   43.8996 H   0  0  0  0  0  0  0  0  0  0  0  0
   59.1701   28.2821   47.4019 H   0  0  0  0  0  0  0  0  0  0  0  0
   60.7016   28.9825   46.7575 H   0  0  0  0  0  0  0  0  0  0  0  0
   58.4942   30.4487   48.2890 H   0  0  0  0  0  0  0  0  0  0  0  0
   60.1783   30.0930   48.8449 H   0  0  0  0  0  0  0  0  0  0  0  0
   57.2629   31.7002   46.8316 H   0  0  0  0  0  0  0  0  0  0  0  0
   56.2938   33.5877   45.4764 H   0  0  0  0  0  0  0  0  0  0  0  0
   57.7706   35.4150   44.6177 H   0  0  0  0  0  0  0  0  0  0  0  0
   60.2445   35.3739   45.0915 H   0  0  0  0  0  0  0  0  0  0  0  0
   62.6465   34.7974   45.8304 H   0  0  0  0  0  0  0  0  0  0  0  0
   64.7229   33.7080   46.7701 H   0  0  0  0  0  0  0  0  0  0  0  0
   64.5160   31.6240   47.9880 H   0  0  0  0  0  0  0  0  0  0  0  0
   62.3950   30.4916   48.3805 H   0  0  0  0  0  0  0  0  0  0  0  0
  1  2  1  0
  2  3  1  0
  3  4  1  0
  4  5  1  0
  3  6  1  0
  6  7  1  0
  7  8  1  0
  8  9  1  0
  9 10  2  0
 10 11  1  0
 11 12  2  0
 12 13  1  0
 13 14  2  0
 14 15  1  0
 15 16  2  0
 16 17  1  0
 17 18  2  0
 18 19  1  0
 19 20  2  0
 20  8  1  0
 14  9  1  0
 20 15  1  0
  1 21  1  0
  1 22  1  0
  1 23  1  0
  2 24  1  0
  2 25  1  0
  4 26  1  0
  4 27  1  0
  5 28  1  0
  5 29  1  0
  5 30  1  0
  6 31  1  0
  6 32  1  0
  7 33  1  0
  7 34  1  0
 10 35  1  0
 11 36  1  0
 12 37  1  0
 13 38  1  0
 16 39  1  0
 17 40  1  0
 18 41  1  0
 19 42  1  0
M  CHG  1  18   1
M  END
>  <UniqueID>  (42) 
39

>  <SMILES>  (42) 
CCN(CC)CCn1c2ccccc2c2cc[nH+]cc21

>  <Energy>  (42) 
81.34315531438708

>  <Genealogy>  (42) 
CCN(CC)CCn1c2ccccc2c2cc[nH+]cc21 (protonated)
CCN(CC)CCn1c2ccccc2c2cc[nH+]cc21 (3D coordinates assigned)
CCN(CC)CCn1c2ccccc2c2cc[nH+]cc21 (optimized conformer: 81.34315531438708 kcal/mol)

>  <smiles>  (42) 
CCN(CC)CCn1c2ccccc2c2ccncc21

>  <score_type>  (42) 
oracle

>  <origin>  (42) 
adg

>  <m_score__min__energy>  (42) 
-5.5499999999999998

>  <m_primary>  (42) 
energy

$$$$
42:0
     RDKit          3D

 70 71  0  0  0  0  0  0  0  0999 V2000
   55.9380   25.4480   45.9370 C   0  0  0  0  0  0  0  0  0  0  0  0
   57.0310   25.4700   44.8720 C   0  0  0  0  0  0  0  0  0  0  0  0
   58.0430   26.5040   45.2080 N   0  0  0  0  0  0  0  0  0  0  0  0
   57.5950   27.3860   46.3150 C   0  0  0  0  0  0  0  0  0  0  0  0
   58.5630   27.3040   47.5020 C   0  0  0  0  0  0  0  0  0  0  0  0
   59.1720   28.6150   47.7640 N   0  0  0  0  0  0  0  0  0  0  0  0
   60.1060   28.5920   48.9000 C   0  0  0  0  0  0  0  0  0  0  0  0
   60.1210   29.9270   49.6680 C   0  0  0  0  0  0  0  0  0  0  0  0
   58.8980   30.7950   49.3340 C   0  0  0  0  0  0  0  0  0  0  0  0
   59.2430   32.1710   49.1430 O   0  0  0  0  0  0  0  0  0  0  0  0
   59.1680   32.8840   47.9320 C   0  0  0  0  0  0  0  0  0  0  0  0
   57.9670   33.4730   47.4880 C   0  0  0  0  0  0  0  0  0  0  0  0
   57.9300   34.2010   46.2970 C   0  0  0  0  0  0  0  0  0  0  0  0
   59.0740   34.3270   45.5130 C   0  0  0  0  0  0  0  0  0  0  0  0
   60.2600   33.7140   45.9130 C   0  0  0  0  0  0  0  0  0  0  0  0
   60.3290   32.9980   47.1240 C   0  0  0  0  0  0  0  0  0  0  0  0
   61.6160   32.2680   47.4790 C   0  0  0  0  0  0  0  0  0  0  0  0
   62.7300   33.1430   47.9600 N   0  0  0  0  0  0  0  0  0  0  0  0
   62.2370   34.1500   48.9250 C   0  0  0  0  0  0  0  0  0  0  0  0
   63.7310   32.2880   48.6400 C   0  0  0  0  0  0  0  0  0  0  0  0
   63.3980   33.8360   46.8330 C   0  0  0  0  0  0  0  0  0  0  0  0
   58.4360   27.2960   44.0200 C   0  0  0  0  0  0  0  0  0  0  0  0
   58.0300   28.7440   44.1770 C   0  0  0  0  0  0  0  0  0  0  0  0
   56.7780   29.1540   43.6810 C   0  0  0  0  0  0  0  0  0  0  0  0
   56.3550   30.4730   43.8310 C   0  0  0  0  0  0  0  0  0  0  0  0
   57.1730   31.3990   44.4790 C   0  0  0  0  0  0  0  0  0  0  0  0
   58.4170   31.0080   44.9820 C   0  0  0  0  0  0  0  0  0  0  0  0
   58.8590   29.6790   44.8370 C   0  0  0  0  0  0  0  0  0  0  0  0
   60.1040   29.2620   45.3390 O   0  0  0  0  0  0  0  0  0  0  0  0
   61.1530   28.7100   44.5500 C   0  0  0  0  0  0  0  0  0  0  0  0
   56.3990   25.4573   46.9357 H   0  0  0  0  0  0  0  0  0  0  0  0
   55.2956   26.3334   45.8214 H   0  0  0  0  0  0  0  0  0  0  0  0
   55.3317   24.5375   45.8214 H   0  0  0  0  0  0  0  0  0  0  0  0
   57.5173   24.4843   44.8280 H   0  0  0  0  0  0  0  0  0  0  0  0
   56.5815   25.7066   43.8963 H   0  0  0  0  0  0  0  0  0  0  0  0
   57.5534   28.4244   45.9545 H   0  0  0  0  0  0  0  0  0  0  0  0
   56.5998   27.0563   46.6480 H   0  0  0  0  0  0  0  0  0  0  0  0
   58.0120   26.9762   48.3958 H   0  0  0  0  0  0  0  0  0  0  0  0
   59.3596   26.5847   47.2610 H   0  0  0  0  0  0  0  0  0  0  0  0
   59.6710   28.9400   46.9050 H   0  0  0  0  0  0  0  0  0  0  0  0
   59.8050   27.7898   49.5899 H   0  0  0  0  0  0  0  0  0  0  0  0
   61.1171   28.4197   48.5024 H   0  0  0  0  0  0  0  0  0  0  0  0
   60.1230   29.7160   50.7476 H   0  0  0  0  0  0  0  0  0  0  0  0
   61.0234   30.4811   49.3701 H   0  0  0  0  0  0  0  0  0  0  0  0
   58.4362   30.4149   48.4108 H   0  0  0  0  0  0  0  0  0  0  0  0
   58.2029   30.7378   50.1846 H   0  0  0  0  0  0  0  0  0  0  0  0
   57.0504   33.3581   48.0852 H   0  0  0  0  0  0  0  0  0  0  0  0
   56.9919   34.6776   45.9763 H   0  0  0  0  0  0  0  0  0  0  0  0
   59.0416   34.9090   44.5801 H   0  0  0  0  0  0  0  0  0  0  0  0
   61.1530   33.7903   45.2752 H   0  0  0  0  0  0  0  0  0  0  0  0
   61.3875   31.5405   48.2718 H   0  0  0  0  0  0  0  0  0  0  0  0
   61.9717   31.8036   46.5474 H   0  0  0  0  0  0  0  0  0  0  0  0
   62.4123   33.7920   49.9502 H   0  0  0  0  0  0  0  0  0  0  0  0
   62.7727   35.0983   48.7712 H   0  0  0  0  0  0  0  0  0  0  0  0
   61.1594   34.3085   48.7712 H   0  0  0  0  0  0  0  0  0  0  0  0
   63.6168   32.3855   49.7297 H   0  0  0  0  0  0  0  0  0  0  0  0
   63.5763   31.2389   48.3476 H   0  0  0  0  0  0  0  0  0  0  0  0
   64.7430   32.6048   48.3476 H   0  0  0  0  0  0  0  0  0  0  0  0
   64.1106   34.5752   47.2277 H   0  0  0  0  0  0  0  0  0  0  0  0
   63.9363   33.1002   46.2174 H   0  0  0  0  0  0  0  0  0  0  0  0
   62.6430   34.3469   46.2174 H   0  0  0  0  0  0  0  0  0  0  0  0
   59.5274   27.2397   43.8949 H   0  0  0  0  0  0  0  0  0  0  0  0
   57.9257   26.8821   43.1378 H   0  0  0  0  0  0  0  0  0  0  0  0
   56.1285   28.4273   43.1710 H   0  0  0  0  0  0  0  0  0  0  0  0
   55.3758   30.7844   43.4384 H   0  0  0  0  0  0  0  0  0  0  0  0
   56.8378   32.4403   44.5944 H   0  0  0  0  0  0  0  0  0  0  0  0
   59.0549   31.7432   45.4944 H   0  0  0  0  0  0  0  0  0  0  0  0
   61.9317   28.3003   45.2102 H   0  0  0  0  0  0  0  0  0  0  0  0
   60.7506   27.9068   43.9152 H   0  0  0  0  0  0  0  0  0  0  0  0
   61.5871   29.4965   43.9152 H   0  0  0  0  0  0  0  0  0  0  0  0
  1  2  1  0
  2  3  1  0
  3  4  1  0
  4  5  1  0
  5  6  1  0
  6  7  1  0
  7  8  1  0
  8  9  1  0
  9 10  1  0
 10 11  1  0
 11 12  2  0
 12 13  1  0
 13 14  2  0
 14 15  1  0
 15 16  2  0
 16 17  1  0
 17 18  1  0
 18 19  1  0
 18 20  1  0
 18 21  1  0
  3 22  1  0
 22 23  1  0
 23 24  2  0
 24 25  1  0
 25 26  2  0
 26 27  1  0
 27 28  2  0
 28 29  1  0
 29 30  1  0
 16 11  1  0
 28 23  1  0
  1 31  1  0
  1 32  1  0
  1 33  1  0
  2 34  1  0
  2 35  1  0
  4 36  1  0
  4 37  1  0
  5 38  1  0
  5 39  1  0
  6 40  1  0
  7 41  1  0
  7 42  1  0
  8 43  1  0
  8 44  1  0
  9 45  1  0
  9 46  1  0
 12 47  1  0
 13 48  1  0
 14 49  1  0
 15 50  1  0
 17 51  1  0
 17 52  1  0
 19 53  1  0
 19 54  1  0
 19 55  1  0
 20 56  1  0
 20 57  1  0
 20 58  1  0
 21 59  1  0
 21 60  1  0
 21 61  1  0
 22 62  1  0
 22 63  1  0
 24 64  1  0
 25 65  1  0
 26 66  1  0
 27 67  1  0
 30 68  1  0
 30 69  1  0
 30 70  1  0
M  CHG  1  18   1
M  END
>  <UniqueID>  (43) 
40

>  <SMILES>  (43) 
CCN(CCNCCCOc1ccccc1C[N+](C)(C)C)Cc1ccccc1OC

>  <Energy>  (43) 
73.33354089301095

>  <Genealogy>  (43) 
CCN(CCNCCCOc1ccccc1C[N+](C)(C)C)Cc1ccccc1OC (3D coordinates assigned)
CCN(CCNCCCOc1ccccc1C[N+](C)(C)C)Cc1ccccc1OC (optimized conformer: 73.33354089301095 kcal/mol)

>  <smiles>  (43) 
CCN(CCNCCCOc1ccccc1C[N+](C)(C)C)Cc1ccccc1OC

>  <score_type>  (43) 
oracle

>  <origin>  (43) 
adg

>  <m_score__min__energy>  (43) 
-5.5499999999999998

>  <m_primary>  (43) 
energy

$$$$
43:0
     RDKit          3D

 36 37  0  0  0  0  0  0  0  0999 V2000
   60.1110   34.5130   48.5680 C   0  0  0  0  0  0  0  0  0  0  0  0
   59.9980   33.3120   47.6690 C   0  0  0  0  0  0  0  0  0  0  0  0
   58.9810   33.2310   46.7120 C   0  0  0  0  0  0  0  0  0  0  0  0
   58.8700   32.1450   45.8780 N   0  0  0  0  0  0  0  0  0  0  0  0
   57.7690   32.0740   44.8790 C   0  0  1  0  0  0  0  0  0  0  0  0
   58.2390   31.7570   43.4620 C   0  0  0  0  0  0  0  0  0  0  0  0
   57.0350   31.1170   42.8490 C   0  0  0  0  0  0  0  0  0  0  0  0
   56.3390   30.4840   44.0480 C   0  0  1  0  0  0  0  0  0  0  0  0
   56.5730   28.9660   44.0940 C   0  0  0  0  0  0  0  0  0  0  0  0
   55.9030   28.3740   45.2480 N   0  0  0  0  0  0  0  0  0  0  0  0
   56.3800   27.2100   45.9330 C   0  0  0  0  0  0  0  0  0  0  0  0
   55.6420   26.1990   46.0680 O   0  0  0  0  0  0  0  0  0  0  0  0
   57.7440   27.2220   46.5460 C   0  0  0  0  0  0  0  0  0  0  0  0
   58.1140   28.5340   46.8660 O   0  0  0  0  0  0  0  0  0  0  0  0
   56.8290   31.0780   45.2330 O   0  0  0  0  0  0  0  0  0  0  0  0
   59.7020   31.0670   46.0890 C   0  0  0  0  0  0  0  0  0  0  0  0
   59.5530   29.9980   45.4370 O   0  0  0  0  0  0  0  0  0  0  0  0
   60.6910   31.1270   47.0230 N   0  0  0  0  0  0  0  0  0  0  0  0
   60.8590   32.2210   47.8070 C   0  0  0  0  0  0  0  0  0  0  0  0
   61.7820   32.2380   48.6660 O   0  0  0  0  0  0  0  0  0  0  0  0
   60.0805   34.1887   49.6187 H   0  0  0  0  0  0  0  0  0  0  0  0
   61.0618   35.0301   48.3713 H   0  0  0  0  0  0  0  0  0  0  0  0
   59.2734   35.1983   48.3713 H   0  0  0  0  0  0  0  0  0  0  0  0
   58.2556   34.0534   46.6255 H   0  0  0  0  0  0  0  0  0  0  0  0
   57.3231   33.0795   44.8871 H   0  0  0  0  0  0  0  0  0  0  0  0
   58.5180   32.6742   42.9226 H   0  0  0  0  0  0  0  0  0  0  0  0
   59.1341   31.1183   43.4328 H   0  0  0  0  0  0  0  0  0  0  0  0
   56.3901   31.8668   42.3674 H   0  0  0  0  0  0  0  0  0  0  0  0
   57.2825   30.3935   42.0583 H   0  0  0  0  0  0  0  0  0  0  0  0
   55.2565   30.6564   43.9554 H   0  0  0  0  0  0  0  0  0  0  0  0
   56.1762   28.5117   43.1741 H   0  0  0  0  0  0  0  0  0  0  0  0
   57.6535   28.7777   44.1781 H   0  0  0  0  0  0  0  0  0  0  0  0
   57.7373   26.6119   47.4613 H   0  0  0  0  0  0  0  0  0  0  0  0
   58.4665   26.8084   45.8270 H   0  0  0  0  0  0  0  0  0  0  0  0
   57.7110   29.1210   46.1740 H   0  0  0  0  0  0  0  0  0  0  0  0
   61.3230   30.3040   47.1520 H   0  0  0  0  0  0  0  0  0  0  0  0
  1  2  1  0
  2  3  2  0
  3  4  1  0
  4  5  1  0
  5  6  1  0
  6  7  1  0
  7  8  1  0
  8  9  1  0
  9 10  1  0
 10 11  1  0
 11 12  2  0
 11 13  1  0
 13 14  1  0
  8 15  1  0
  4 16  1  0
 16 17  2  0
 16 18  1  0
 18 19  1  0
 19 20  2  0
 19  2  1  0
 15  5  1  0
  1 21  1  0
  1 22  1  0
  1 23  1  0
  3 24  1  0
  5 25  1  6
  6 26  1  0
  6 27  1  0
  7 28  1  0
  7 29  1  0
  8 30  1  6
  9 31  1  0
  9 32  1  0
 13 33  1  0
 13 34  1  0
 14 35  1  0
 18 36  1  0
M  CHG  1  10  -1
M  END
>  <UniqueID>  (44) 
41

>  <SMILES>  (44) 
Cc1cn([C@H]2CC[C@@H](C[N-]C(=O)CO)O2)c(=O)[nH]c1=O

>  <Energy>  (44) 
39.119300575866305

>  <Genealogy>  (44) 
Cc1cn(C2CCC(C[N-]C(=O)CO)O2)c(=O)[nH]c1=O (protonated)
Cc1cn([C@H]2CC[C@@H](C[N-]C(=O)CO)O2)c(=O)[nH]c1=O (chirality)
Cc1cn([C@H]2CC[C@@H](C[N-]C(=O)CO)O2)c(=O)[nH]c1=O (3D coordinates assigned)
Cc1cn([C@H]2CC[C@@H](C[N-]C(=O)CO)O2)c(=O)[nH]c1=O (nonaromatic ring conformer: 39.119300575866305 kcal/mol)

>  <smiles>  (44) 
Cc1cn(C2CCC(CNC(=O)CO)O2)c(=O)[nH]c1=O

>  <score_type>  (44) 
oracle

>  <origin>  (44) 
adg

>  <m_score__min__energy>  (44) 
-9.3000000000000007

>  <m_primary>  (44) 
energy

$$$$
44:0
     RDKit          3D

 38 41  0  0  1  0  0  0  0  0999 V2000
   59.6830   22.9670   45.2450 C   0  0  0  0  0  0  0  0  0  0  0  0
   59.4070   24.0650   46.0950 O   0  0  0  0  0  0  0  0  0  0  0  0
   58.1780   24.6980   45.9620 C   0  0  0  0  0  0  0  0  0  0  0  0
   56.9400   24.1610   45.9120 N   0  0  0  0  0  0  0  0  0  0  0  0
   56.0290   25.1110   45.7790 N   0  0  0  0  0  0  0  0  0  0  0  0
   56.6560   26.2990   45.7390 C   0  0  0  0  0  0  0  0  0  0  0  0
   56.1760   27.5320   45.6160 N   0  0  0  0  0  0  0  0  0  0  0  0
   57.0310   28.5860   45.6010 C   0  0  0  0  0  0  0  0  0  0  0  0
   56.4960   29.7470   45.4790 N   0  0  0  0  0  0  0  0  0  0  0  0
   56.9960   30.6940   44.5300 C   0  0  0  0  0  0  0  0  0  0  0  0
   56.8420   30.5020   43.1700 C   0  0  0  0  0  0  0  0  0  0  0  0
   57.3410   31.4450   42.2830 C   0  0  0  0  0  0  0  0  0  0  0  0
   57.9910   32.5770   42.6820 C   0  0  0  0  0  0  0  0  0  0  0  0
   58.1490   32.7750   44.0520 C   0  0  0  0  0  0  0  0  0  0  0  0
   58.8050   33.9170   44.4930 C   0  0  0  0  0  0  0  0  0  0  0  0
   58.9570   34.1040   45.8680 C   0  0  0  0  0  0  0  0  0  0  0  0
   58.4640   33.1730   46.7780 C   0  0  0  0  0  0  0  0  0  0  0  0
   57.8170   32.0500   46.2860 C   0  0  0  0  0  0  0  0  0  0  0  0
   57.6520   31.8390   44.9220 C   0  0  0  0  0  0  0  0  0  0  0  0
   58.3660   28.4290   45.7070 N   0  0  0  0  0  0  0  0  0  0  0  0
   58.8370   27.1680   45.8310 C   0  0  0  0  0  0  0  0  0  0  0  0
   60.3010   26.9100   45.9540 C   0  0  0  0  0  0  0  0  0  0  0  0
   58.0110   26.0630   45.8520 C   0  0  0  0  0  0  0  0  0  0  0  0
   59.9063   22.0787   45.8542 H   0  0  0  0  0  0  0  0  0  0  0  0
   58.8075   22.7656   44.6102 H   0  0  0  0  0  0  0  0  0  0  0  0
   60.5496   23.2035   44.6102 H   0  0  0  0  0  0  0  0  0  0  0  0
   56.7130   23.1470   45.9690 H   0  0  0  0  0  0  0  0  0  0  0  0
   55.1490   27.6820   45.5320 H   0  0  0  0  0  0  0  0  0  0  0  0
   56.3266   29.6064   42.7928 H   0  0  0  0  0  0  0  0  0  0  0  0
   57.2061   31.2718   41.2051 H   0  0  0  0  0  0  0  0  0  0  0  0
   58.3748   33.3039   41.9510 H   0  0  0  0  0  0  0  0  0  0  0  0
   59.1949   34.6554   43.7769 H   0  0  0  0  0  0  0  0  0  0  0  0
   59.4745   35.0012   46.2383 H   0  0  0  0  0  0  0  0  0  0  0  0
   58.5848   33.3247   47.8608 H   0  0  0  0  0  0  0  0  0  0  0  0
   57.4236   31.3058   46.9941 H   0  0  0  0  0  0  0  0  0  0  0  0
   60.5766   26.8614   47.0178 H   0  0  0  0  0  0  0  0  0  0  0  0
   60.5471   25.9546   45.4675 H   0  0  0  0  0  0  0  0  0  0  0  0
   60.8589   27.7237   45.4675 H   0  0  0  0  0  0  0  0  0  0  0  0
  1  2  1  0
  2  3  1  0
  3  4  1  0
  4  5  1  0
  5  6  2  0
  6  7  1  0
  7  8  1  0
  8  9  2  0
  9 10  1  0
 10 11  2  0
 11 12  1  0
 12 13  2  0
 13 14  1  0
 14 15  2  0
 15 16  1  0
 16 17  2  0
 17 18  1  0
 18 19  2  0
  8 20  1  0
 20 21  2  0
 21 22  1  0
 21 23  1  0
 23  3  2  0
 23  6  1  0
 19 10  1  0
 19 14  1  0
  1 24  1  0
  1 25  1  0
  1 26  1  0
  4 27  1  0
  7 28  1  0
 11 29  1  0
 12 30  1  0
 13 31  1  0
 15 32  1  0
 16 33  1  0
 17 34  1  0
 18 35  1  0
 22 36  1  0
 22 37  1  0
 22 38  1  0
M  END
>  <smiles>  (45) 
COc1[nH]nc2[nH]c(=Nc3cccc4ccccc34)nc(C)c12

>  <score_type>  (45) 
oracle

>  <origin>  (45) 
adg

>  <m_score__min__energy>  (45) 
-8.0199999999999996

>  <m_primary>  (45) 
energy

$$$$
45:0
     RDKit          3D

 52 54  0  0  0  0  0  0  0  0999 V2000
   57.9420   21.4840   44.0590 C   0  0  0  0  0  0  0  0  0  0  0  0
   56.8640   21.2110   43.0170 C   0  0  0  0  0  0  0  0  0  0  0  0
   55.8870   22.2940   42.9930 N   0  0  0  0  0  0  0  0  0  0  0  0
   55.4160   22.9650   44.1680 C   0  0  0  0  0  0  0  0  0  0  0  0
   54.6040   22.3920   44.9440 O   0  0  0  0  0  0  0  0  0  0  0  0
   55.8710   24.3680   44.4690 C   0  0  2  0  0  0  0  0  0  0  0  0
   57.1960   24.6860   43.7400 C   0  0  0  0  0  0  0  0  0  0  0  0
   57.9840   25.8280   44.4160 C   0  0  0  0  0  0  0  0  0  0  0  0
   57.0900   26.7310   45.1690 N   0  0  2  0  0  0  0  0  0  0  0  0
   57.8310   27.8930   45.6190 C   0  0  0  0  0  0  0  0  0  0  0  0
   58.6680   27.7790   46.5590 O   0  0  0  0  0  0  0  0  0  0  0  0
   57.6640   29.2230   44.9740 C   0  0  0  0  0  0  0  0  0  0  0  0
   57.0170   29.3510   43.7370 C   0  0  0  0  0  0  0  0  0  0  0  0
   56.8840   30.6020   43.1400 C   0  0  0  0  0  0  0  0  0  0  0  0
   57.3930   31.7410   43.7640 C   0  0  0  0  0  0  0  0  0  0  0  0
   58.0580   31.6550   45.0090 C   0  0  0  0  0  0  0  0  0  0  0  0
   58.5970   32.8460   45.6630 N   0  0  0  0  0  0  0  0  0  0  0  0
   58.6440   32.9020   47.1390 C   0  0  0  0  0  0  0  0  0  0  0  0
   59.3000   34.1740   47.6860 C   0  0  0  0  0  0  0  0  0  0  0  0
   58.9520   35.2950   46.9090 O   0  0  0  0  0  0  0  0  0  0  0  0
   59.5690   35.1710   45.6510 C   0  0  0  0  0  0  0  0  0  0  0  0
   58.9470   34.0280   44.8450 C   0  0  0  0  0  0  0  0  0  0  0  0
   58.1900   30.3710   45.5940 C   0  0  0  0  0  0  0  0  0  0  0  0
   56.4530   26.0340   46.3160 C   0  0  0  0  0  0  0  0  0  0  0  0
   56.0130   24.5870   45.9830 C   0  0  0  0  0  0  0  0  0  0  0  0
   57.5140   21.3756   45.0665 H   0  0  0  0  0  0  0  0  0  0  0  0
   58.7656   20.7661   43.9313 H   0  0  0  0  0  0  0  0  0  0  0  0
   58.3246   22.5074   43.9313 H   0  0  0  0  0  0  0  0  0  0  0  0
   57.3329   21.1251   42.0257 H   0  0  0  0  0  0  0  0  0  0  0  0
   56.3489   20.2744   43.2767 H   0  0  0  0  0  0  0  0  0  0  0  0
   55.1022   25.0610   44.0965 H   0  0  0  0  0  0  0  0  0  0  0  0
   57.8214   23.7811   43.7345 H   0  0  0  0  0  0  0  0  0  0  0  0
   56.9459   25.0114   42.7194 H   0  0  0  0  0  0  0  0  0  0  0  0
   58.7193   25.3934   45.1091 H   0  0  0  0  0  0  0  0  0  0  0  0
   58.4844   26.4138   43.6309 H   0  0  0  0  0  0  0  0  0  0  0  0
   56.3200   27.0490   44.5350 H   0  0  0  0  0  0  0  0  0  0  0  0
   56.6126   28.4593   43.2357 H   0  0  0  0  0  0  0  0  0  0  0  0
   56.3740   30.6926   42.1696 H   0  0  0  0  0  0  0  0  0  0  0  0
   57.2752   32.7217   43.2799 H   0  0  0  0  0  0  0  0  0  0  0  0
   57.6140   32.8503   47.5216 H   0  0  0  0  0  0  0  0  0  0  0  0
   59.2588   32.0535   47.4737 H   0  0  0  0  0  0  0  0  0  0  0  0
   58.9642   34.3354   48.7210 H   0  0  0  0  0  0  0  0  0  0  0  0
   60.3922   34.0482   47.6505 H   0  0  0  0  0  0  0  0  0  0  0  0
   59.4449   36.1121   45.0952 H   0  0  0  0  0  0  0  0  0  0  0  0
   60.6360   34.9516   45.8042 H   0  0  0  0  0  0  0  0  0  0  0  0
   58.0310   34.4008   44.3635 H   0  0  0  0  0  0  0  0  0  0  0  0
   59.7018   33.7016   44.1144 H   0  0  0  0  0  0  0  0  0  0  0  0
   58.7158   30.2697   46.5549 H   0  0  0  0  0  0  0  0  0  0  0  0
   57.1731   25.9979   47.1468 H   0  0  0  0  0  0  0  0  0  0  0  0
   55.5465   26.5988   46.5790 H   0  0  0  0  0  0  0  0  0  0  0  0
   56.7655   23.8869   46.3750 H   0  0  0  0  0  0  0  0  0  0  0  0
   55.0311   24.4128   46.4473 H   0  0  0  0  0  0  0  0  0  0  0  0
  1  2  1  0
  2  3  1  0
  3  4  1  0
  4  5  2  0
  4  6  1  0
  6  7  1  0
  7  8  1  0
  8  9  1  0
  9 10  1  0
 10 11  2  0
 10 12  1  0
 12 13  2  0
 13 14  1  0
 14 15  2  0
 15 16  1  0
 16 17  1  0
 17 18  1  0
 18 19  1  0
 19 20  1  0
 20 21  1  0
 21 22  1  0
 16 23  2  0
  9 24  1  0
 24 25  1  0
 25  6  1  0
 23 12  1  0
 22 17  1  0
  1 26  1  0
  1 27  1  0
  1 28  1  0
  2 29  1  0
  2 30  1  0
  6 31  1  6
  7 32  1  0
  7 33  1  0
  8 34  1  0
  8 35  1  0
  9 36  1  6
 13 37  1  0
 14 38  1  0
 15 39  1  0
 18 40  1  0
 18 41  1  0
 19 42  1  0
 19 43  1  0
 21 44  1  0
 21 45  1  0
 22 46  1  0
 22 47  1  0
 23 48  1  0
 24 49  1  0
 24 50  1  0
 25 51  1  0
 25 52  1  0
M  CHG  2   3  -1   9   1
M  END
>  <UniqueID>  (46) 
42

>  <SMILES>  (46) 
CC[N-]C(=O)C1CC[NH+](C(=O)c2cccc(N3CCOCC3)c2)CC1

>  <Energy>  (46) 
65.78588939924992

>  <Genealogy>  (46) 
CC[N-]C(=O)C1CC[NH+](C(=O)c2cccc(N3CCOCC3)c2)CC1 (protonated)
CC[N-]C(=O)C1CC[NH+](C(=O)c2cccc(N3CCOCC3)c2)CC1 (3D coordinates assigned)
CC[N-]C(=O)C1CC[NH+](C(=O)c2cccc(N3CCOCC3)c2)CC1 (nonaromatic ring conformer: 65.78588939924992 kcal/mol)

>  <smiles>  (46) 
CCNC(=O)C1CCN(C(=O)c2cccc(N3CCOCC3)c2)CC1

>  <score_type>  (46) 
oracle

>  <origin>  (46) 
adg

>  <m_score__min__energy>  (46) 
-8.0800000000000001

>  <m_primary>  (46) 
energy

$$$$
46:0
     RDKit          3D

 45 47  0  0  0  0  0  0  0  0999 V2000
   64.0855   33.0749   46.2196 H   0  0  0  0  0  0  0  0  0  0  0  0
   63.5020   33.0830   47.1520 C   0  0  0  0  0  0  0  0  0  0  0  0
   64.1240   33.3920   48.3590 C   0  0  0  0  0  0  0  0  0  0  0  0
   65.2032   33.6036   48.3815 H   0  0  0  0  0  0  0  0  0  0  0  0
   63.3820   33.4340   49.5400 C   0  0  0  0  0  0  0  0  0  0  0  0
   63.8768   33.7055   50.4842 H   0  0  0  0  0  0  0  0  0  0  0  0
   62.0040   33.1320   49.5360 C   0  0  0  0  0  0  0  0  0  0  0  0
   61.1830   33.3370   50.7980 C   0  0  0  0  0  0  0  0  0  0  0  0
   61.9580   33.8670   51.8110 F   0  0  0  0  0  0  0  0  0  0  0  0
   60.6780   32.1180   51.2120 F   0  0  0  0  0  0  0  0  0  0  0  0
   60.1200   34.1980   50.5820 F   0  0  0  0  0  0  0  0  0  0  0  0
   61.3920   32.7580   48.3100 C   0  0  0  0  0  0  0  0  0  0  0  0
   59.6510   32.2780   48.2290 S   0  0  0  0  0  0  0  0  0  0  0  0
   59.3680   32.6200   46.4300 C   0  0  2  0  0  0  0  0  0  0  0  0
   60.2422   32.2176   45.8972 H   0  0  0  0  0  0  0  0  0  0  0  0
   59.2570   34.1130   46.2010 C   0  0  0  0  0  0  0  0  0  0  0  0
   59.7180   34.9030   47.0110 O   0  0  0  0  0  0  0  0  0  0  0  0
   58.7120   34.6340   44.9000 C   0  0  0  0  0  0  0  0  0  0  0  0
   58.5131   35.7117   44.9952 H   0  0  0  0  0  0  0  0  0  0  0  0
   59.4513   34.4568   44.1050 H   0  0  0  0  0  0  0  0  0  0  0  0
   57.4140   33.9110   44.5430 C   0  0  0  0  0  0  0  0  0  0  0  0
   56.6487   34.1561   45.2941 H   0  0  0  0  0  0  0  0  0  0  0  0
   57.0959   34.2404   43.5429 H   0  0  0  0  0  0  0  0  0  0  0  0
   57.6150   32.3950   44.5120 C   0  0  0  0  0  0  0  0  0  0  0  0
   56.6499   31.9065   44.3121 H   0  0  0  0  0  0  0  0  0  0  0  0
   58.3375   32.1495   43.7197 H   0  0  0  0  0  0  0  0  0  0  0  0
   58.1600   31.8990   45.8430 C   0  0  0  0  0  0  0  0  0  0  0  0
   57.7980   30.7710   46.3630 N   0  0  0  0  0  0  0  0  0  0  0  0
   58.1270   29.4380   45.9020 C   0  0  0  0  0  0  0  0  0  0  0  0
   59.1076   29.4595   45.4041 H   0  0  0  0  0  0  0  0  0  0  0  0
   58.1545   28.7602   46.7679 H   0  0  0  0  0  0  0  0  0  0  0  0
   57.0690   28.9320   44.9110 C   0  0  1  0  0  0  0  0  0  0  0  0
   56.8944   27.8683   45.1300 H   0  0  0  0  0  0  0  0  0  0  0  0
   55.8740   29.6660   45.0680 O   0  0  0  0  0  0  0  0  0  0  0  0
   55.4570   30.0920   43.7910 C   0  0  0  0  0  0  0  0  0  0  0  0
   55.5972   31.1794   43.7024 H   0  0  0  0  0  0  0  0  0  0  0  0
   54.3934   29.8490   43.6505 H   0  0  0  0  0  0  0  0  0  0  0  0
   56.2820   29.3880   42.7350 C   0  0  0  0  0  0  0  0  0  0  0  0
   56.4861   30.0533   41.8831 H   0  0  0  0  0  0  0  0  0  0  0  0
   55.7797   28.5091   42.3046 H   0  0  0  0  0  0  0  0  0  0  0  0
   57.5410   29.0500   43.4680 C   0  0  0  0  0  0  0  0  0  0  0  0
   58.2893   29.8490   43.3598 H   0  0  0  0  0  0  0  0  0  0  0  0
   58.0318   28.1393   43.0942 H   0  0  0  0  0  0  0  0  0  0  0  0
   62.1410   32.7840   47.1240 C   0  0  0  0  0  0  0  0  0  0  0  0
   61.6500   32.5666   46.1640 H   0  0  0  0  0  0  0  0  0  0  0  0
  1  2  1  0
  2  3  2  0
  3  4  1  0
  3  5  1  0
  5  6  1  0
  5  7  2  0
  7  8  1  0
  8  9  1  0
  8 10  1  0
  8 11  1  0
  7 12  1  0
 12 13  1  0
 13 14  1  0
 14 15  1  6
 14 16  1  0
 16 17  2  0
 16 18  1  0
 18 19  1  0
 18 20  1  0
 18 21  1  0
 21 22  1  0
 21 23  1  0
 21 24  1  0
 24 25  1  0
 24 26  1  0
 24 27  1  0
 27 28  2  0
 28 29  1  0
 29 30  1  0
 29 31  1  0
 29 32  1  0
 32 33  1  1
 32 34  1  0
 34 35  1  0
 35 36  1  0
 35 37  1  0
 35 38  1  0
 38 39  1  0
 38 40  1  0
 38 41  1  0
 41 42  1  0
 41 43  1  0
 12 44  2  0
 44 45  1  0
 44  2  1  0
 27 14  1  0
 41 32  1  0
M  END
>  <UniqueID>  (47) 
43

>  <SMILES>  (47) 
O=C1CCC/C(=N\C[C@@H]2CCCO2)[C@@H]1Sc1ccccc1C(F)(F)F

>  <Energy>  (47) 
47.58832858316301

>  <Genealogy>  (47) 
O=C1CCCC(=NC[C@@H]2CCCO2)[C@@H]1Sc1ccccc1C(F)(F)F (chirality)
O=C1CCC/C(=N\C[C@@H]2CCCO2)[C@@H]1Sc1ccccc1C(F)(F)F (cis-trans isomerization)
O=C1CCC/C(=N\C[C@@H]2CCCO2)[C@@H]1Sc1ccccc1C(F)(F)F (3D coordinates assigned)
O=C1CCC/C(=N\C[C@@H]2CCCO2)[C@@H]1Sc1ccccc1C(F)(F)F (nonaromatic ring conformer: 47.58832858316301 kcal/mol)

>  <smiles>  (47) 
O=C1CCCC(=NCC2CCCO2)C1Sc1ccccc1C(F)(F)F

>  <score_type>  (47) 
oracle

>  <origin>  (47) 
adg

>  <m_score__min__energy>  (47) 
-8.0800000000000001

>  <m_primary>  (47) 
energy

$$$$
47:0
     RDKit          3D

 37 38  0  0  0  0  0  0  0  0999 V2000
   53.9240   24.1270   45.6240 C   0  0  0  0  0  0  0  0  0  0  0  0
   55.2310   24.7430   45.3490 N   0  0  0  0  0  0  0  0  0  0  0  0
   55.8520   24.0780   44.1910 C   0  0  0  0  0  0  0  0  0  0  0  0
   56.0990   24.6550   46.5450 C   0  0  0  0  0  0  0  0  0  0  0  0
   57.0080   25.8860   46.6650 C   0  0  0  0  0  0  0  0  0  0  0  0
   56.7220   26.8600   45.6100 N   0  0  0  0  0  0  0  0  0  0  0  0
   57.1660   28.2300   45.6200 C   0  0  0  0  0  0  0  0  0  0  0  0
   58.2500   28.5970   46.4290 C   0  0  0  0  0  0  0  0  0  0  0  0
   58.6980   29.9180   46.4560 C   0  0  0  0  0  0  0  0  0  0  0  0
   58.0490   30.8870   45.6730 C   0  0  0  0  0  0  0  0  0  0  0  0
   58.4890   32.3070   45.6590 C   0  0  0  0  0  0  0  0  0  0  0  0
   59.6190   32.7320   46.3860 C   0  0  0  0  0  0  0  0  0  0  0  0
   60.0110   34.0750   46.3650 C   0  0  0  0  0  0  0  0  0  0  0  0
   59.2800   35.0070   45.6250 C   0  0  0  0  0  0  0  0  0  0  0  0
   58.1520   34.6000   44.9100 C   0  0  0  0  0  0  0  0  0  0  0  0
   57.7540   33.2600   44.9290 C   0  0  0  0  0  0  0  0  0  0  0  0
   56.9970   30.5080   44.8930 N   0  0  0  0  0  0  0  0  0  0  0  0
   56.5440   29.2280   44.8500 C   0  0  0  0  0  0  0  0  0  0  0  0
   53.7736   24.0561   46.7114 H   0  0  0  0  0  0  0  0  0  0  0  0
   53.1276   24.7445   45.1832 H   0  0  0  0  0  0  0  0  0  0  0  0
   53.8934   23.1197   45.1832 H   0  0  0  0  0  0  0  0  0  0  0  0
   56.5632   23.3164   44.5434 H   0  0  0  0  0  0  0  0  0  0  0  0
   55.0719   23.5974   43.5823 H   0  0  0  0  0  0  0  0  0  0  0  0
   56.3848   24.8234   43.5823 H   0  0  0  0  0  0  0  0  0  0  0  0
   55.4668   24.5873   47.4426 H   0  0  0  0  0  0  0  0  0  0  0  0
   56.7341   23.7620   46.4487 H   0  0  0  0  0  0  0  0  0  0  0  0
   56.8438   26.3592   47.6443 H   0  0  0  0  0  0  0  0  0  0  0  0
   58.0532   25.5586   46.5629 H   0  0  0  0  0  0  0  0  0  0  0  0
   56.1260   26.5380   44.8140 H   0  0  0  0  0  0  0  0  0  0  0  0
   58.7513   27.8378   47.0473 H   0  0  0  0  0  0  0  0  0  0  0  0
   59.5543   30.1991   47.0867 H   0  0  0  0  0  0  0  0  0  0  0  0
   60.1965   32.0033   46.9737 H   0  0  0  0  0  0  0  0  0  0  0  0
   60.8965   34.3974   46.9324 H   0  0  0  0  0  0  0  0  0  0  0  0
   59.5929   36.0614   45.6055 H   0  0  0  0  0  0  0  0  0  0  0  0
   57.5750   35.3355   44.3303 H   0  0  0  0  0  0  0  0  0  0  0  0
   56.8599   32.9481   44.3693 H   0  0  0  0  0  0  0  0  0  0  0  0
   55.6869   28.9715   44.2100 H   0  0  0  0  0  0  0  0  0  0  0  0
  1  2  1  0
  2  3  1  0
  2  4  1  0
  4  5  1  0
  5  6  1  0
  6  7  1  0
  7  8  2  0
  8  9  1  0
  9 10  2  0
 10 11  1  0
 11 12  2  0
 12 13  1  0
 13 14  2  0
 14 15  1  0
 15 16  2  0
 10 17  1  0
 17 18  2  0
 18  7  1  0
 16 11  1  0
  1 19  1  0
  1 20  1  0
  1 21  1  0
  3 22  1  0
  3 23  1  0
  3 24  1  0
  4 25  1  0
  4 26  1  0
  5 27  1  0
  5 28  1  0
  6 29  1  0
  8 30  1  0
  9 31  1  0
 12 32  1  0
 13 33  1  0
 14 34  1  0
 15 35  1  0
 16 36  1  0
 18 37  1  0
M  END
>  <UniqueID>  (48) 
44

>  <SMILES>  (48) 
CN(C)CCNc1ccc(-c2ccccc2)nc1

>  <Energy>  (48) 
40.18070297334545

>  <Genealogy>  (48) 
CN(C)CCNc1ccc(-c2ccccc2)nc1 (3D coordinates assigned)
CN(C)CCNc1ccc(-c2ccccc2)nc1 (optimized conformer: 40.18070297334545 kcal/mol)

>  <smiles>  (48) 
CN(C)CCNc1ccc(-c2ccccc2)nc1

>  <score_type>  (48) 
oracle

>  <origin>  (48) 
adg

>  <m_score__min__energy>  (48) 
-6.6299999999999999

>  <m_primary>  (48) 
energy

$$$$
48:0
     RDKit          3D

 50 52  0  0  0  0  0  0  0  0999 V2000
   60.3910   28.8680   50.5740 C   0  0  0  0  0  0  0  0  0  0  0  0
   59.9850   30.1250   50.0460 O   0  0  0  0  0  0  0  0  0  0  0  0
   59.4370   30.2720   48.7670 C   0  0  0  0  0  0  0  0  0  0  0  0
   59.2320   29.1790   47.9800 N   0  0  0  0  0  0  0  0  0  0  0  0
   58.6990   29.2730   46.7350 C   0  0  0  0  0  0  0  0  0  0  0  0
   58.3420   30.5230   46.2110 C   0  0  0  0  0  0  0  0  0  0  0  0
   57.7480   30.6330   44.8560 C   0  0  0  0  0  0  0  0  0  0  0  0
   58.1730   31.6490   43.9820 C   0  0  0  0  0  0  0  0  0  0  0  0
   57.6260   31.7560   42.7000 C   0  0  0  0  0  0  0  0  0  0  0  0
   56.6480   30.8540   42.2780 C   0  0  0  0  0  0  0  0  0  0  0  0
   56.2120   29.8440   43.1390 C   0  0  0  0  0  0  0  0  0  0  0  0
   56.7560   29.7290   44.4230 C   0  0  0  0  0  0  0  0  0  0  0  0
   56.2860   28.7620   45.2510 F   0  0  0  0  0  0  0  0  0  0  0  0
   58.5400   31.6620   47.0050 C   0  0  0  0  0  0  0  0  0  0  0  0
   59.0910   31.5490   48.2900 C   0  0  0  0  0  0  0  0  0  0  0  0
   59.2700   32.7900   49.1380 C   0  0  0  0  0  0  0  0  0  0  0  0
   59.6180   32.4640   50.5350 N   0  0  0  0  0  0  0  0  0  0  0  0
   59.3250   33.5480   51.4960 C   0  0  0  0  0  0  0  0  0  0  0  0
   58.2320   33.1840   52.5230 C   0  0  0  0  0  0  0  0  0  0  0  0
   57.6720   31.8360   52.2880 N   0  0  0  0  0  0  0  0  0  0  0  0
   56.2000   31.8700   52.3630 C   0  0  0  0  0  0  0  0  0  0  0  0
   55.6160   30.4690   52.0820 C   0  0  0  0  0  0  0  0  0  0  0  0
   56.6150   29.4660   52.0390 O   0  0  0  0  0  0  0  0  0  0  0  0
   57.4040   29.5330   53.2090 C   0  0  0  0  0  0  0  0  0  0  0  0
   58.2060   30.8480   53.2540 C   0  0  0  0  0  0  0  0  0  0  0  0
   60.3773   28.9103   51.6731 H   0  0  0  0  0  0  0  0  0  0  0  0
   59.7001   28.0848   50.2286 H   0  0  0  0  0  0  0  0  0  0  0  0
   61.4095   28.6369   50.2286 H   0  0  0  0  0  0  0  0  0  0  0  0
   58.5466   28.3640   46.1347 H   0  0  0  0  0  0  0  0  0  0  0  0
   58.9414   32.3648   44.3093 H   0  0  0  0  0  0  0  0  0  0  0  0
   57.9670   32.5526   42.0224 H   0  0  0  0  0  0  0  0  0  0  0  0
   56.2207   30.9384   41.2679 H   0  0  0  0  0  0  0  0  0  0  0  0
   55.4382   29.1365   42.8063 H   0  0  0  0  0  0  0  0  0  0  0  0
   58.2608   32.6526   46.6167 H   0  0  0  0  0  0  0  0  0  0  0  0
   60.0755   33.4017   48.7055 H   0  0  0  0  0  0  0  0  0  0  0  0
   58.3145   33.3349   49.1458 H   0  0  0  0  0  0  0  0  0  0  0  0
   60.6400   32.2430   50.5890 H   0  0  0  0  0  0  0  0  0  0  0  0
   59.1110   31.5930   50.8150 H   0  0  0  0  0  0  0  0  0  0  0  0
   60.2493   33.7880   52.0420 H   0  0  0  0  0  0  0  0  0  0  0  0
   58.9493   34.4025   50.9140 H   0  0  0  0  0  0  0  0  0  0  0  0
   58.6693   33.2151   53.5319 H   0  0  0  0  0  0  0  0  0  0  0  0
   57.4144   33.9124   52.4187 H   0  0  0  0  0  0  0  0  0  0  0  0
   55.8954   32.1949   53.3688 H   0  0  0  0  0  0  0  0  0  0  0  0
   55.8197   32.5738   51.6080 H   0  0  0  0  0  0  0  0  0  0  0  0
   54.8988   30.2192   52.8777 H   0  0  0  0  0  0  0  0  0  0  0  0
   55.1296   30.5002   51.0959 H   0  0  0  0  0  0  0  0  0  0  0  0
   56.7475   29.4807   54.0901 H   0  0  0  0  0  0  0  0  0  0  0  0
   58.1100   28.6895   53.2067 H   0  0  0  0  0  0  0  0  0  0  0  0
   58.1464   31.2698   54.2682 H   0  0  0  0  0  0  0  0  0  0  0  0
   59.2498   30.6281   52.9854 H   0  0  0  0  0  0  0  0  0  0  0  0
  1  2  1  0
  2  3  1  0
  3  4  2  0
  4  5  1  0
  5  6  2  0
  6  7  1  0
  7  8  2  0
  8  9  1  0
  9 10  2  0
 10 11  1  0
 11 12  2  0
 12 13  1  0
  6 14  1  0
 14 15  2  0
 15 16  1  0
 16 17  1  0
 17 18  1  0
 18 19  1  0
 19 20  1  0
 20 21  1  0
 21 22  1  0
 22 23  1  0
 23 24  1  0
 24 25  1  0
 15  3  1  0
 25 20  1  0
 12  7  1  0
  1 26  1  0
  1 27  1  0
  1 28  1  0
  5 29  1  0
  8 30  1  0
  9 31  1  0
 10 32  1  0
 11 33  1  0
 14 34  1  0
 16 35  1  0
 16 36  1  0
 17 37  1  0
 17 38  1  0
 18 39  1  0
 18 40  1  0
 19 41  1  0
 19 42  1  0
 21 43  1  0
 21 44  1  0
 22 45  1  0
 22 46  1  0
 24 47  1  0
 24 48  1  0
 25 49  1  0
 25 50  1  0
M  CHG  1  17   1
M  END
>  <UniqueID>  (49) 
45

>  <SMILES>  (49) 
COc1ncc(-c2ccccc2F)cc1C[NH2+]CCN1CCOCC1

>  <Energy>  (49) 
65.40615418289622

>  <Genealogy>  (49) 
COc1ncc(-c2ccccc2F)cc1C[NH2+]CCN1CCOCC1 (protonated)
COc1ncc(-c2ccccc2F)cc1C[NH2+]CCN1CCOCC1 (3D coordinates assigned)
COc1ncc(-c2ccccc2F)cc1C[NH2+]CCN1CCOCC1 (nonaromatic ring conformer: 65.40615418289622 kcal/mol)

>  <smiles>  (49) 
COc1ncc(-c2ccccc2F)cc1CNCCN1CCOCC1

>  <score_type>  (49) 
oracle

>  <origin>  (49) 
adg

>  <m_score__min__energy>  (49) 
-5.7300000000000004

>  <m_primary>  (49) 
energy

$$$$
49:0
     RDKit          3D

 47 49  0  0  0  0  0  0  0  0999 V2000
   57.1210   34.2400   44.8860 C   0  0  0  0  0  0  0  0  0  0  0  0
   58.2100   33.9480   45.8760 C   0  0  0  0  0  0  0  0  0  0  0  0
   57.8920   33.4710   47.1570 C   0  0  0  0  0  0  0  0  0  0  0  0
   58.9030   33.2350   48.0920 C   0  0  0  0  0  0  0  0  0  0  0  0
   60.2450   33.4740   47.7590 C   0  0  0  0  0  0  0  0  0  0  0  0
   61.3320   33.2570   48.7810 C   0  0  0  0  0  0  0  0  0  0  0  0
   61.9400   31.9300   48.6100 N   0  0  0  0  0  0  0  0  0  0  0  0
   60.9150   30.9110   48.6020 C   0  0  0  0  0  0  0  0  0  0  0  0
   60.1890   30.6410   49.7680 C   0  0  0  0  0  0  0  0  0  0  0  0
   59.1840   29.6830   49.7550 C   0  0  0  0  0  0  0  0  0  0  0  0
   58.8950   29.0040   48.5750 C   0  0  0  0  0  0  0  0  0  0  0  0
   59.5840   29.2680   47.4180 N   0  0  0  0  0  0  0  0  0  0  0  0
   59.2330   28.5270   46.1830 C   0  0  1  0  0  0  0  0  0  0  0  0
   58.6700   27.1360   46.5210 C   0  0  0  0  0  0  0  0  0  0  0  0
   58.3320   29.3690   45.2900 C   0  0  0  0  0  0  0  0  0  0  0  0
   58.8110   30.4670   44.5450 C   0  0  0  0  0  0  0  0  0  0  0  0
   57.9510   31.1830   43.7060 C   0  0  0  0  0  0  0  0  0  0  0  0
   56.6110   30.8080   43.5890 C   0  0  0  0  0  0  0  0  0  0  0  0
   56.1290   29.7130   44.3060 C   0  0  0  0  0  0  0  0  0  0  0  0
   56.9840   28.9940   45.1460 C   0  0  0  0  0  0  0  0  0  0  0  0
   60.5870   30.2130   47.4190 C   0  0  0  0  0  0  0  0  0  0  0  0
   61.2240   30.4710   46.3590 O   0  0  0  0  0  0  0  0  0  0  0  0
   60.5600   33.9820   46.4900 C   0  0  0  0  0  0  0  0  0  0  0  0
   59.5480   34.2190   45.5540 C   0  0  0  0  0  0  0  0  0  0  0  0
   56.1939   34.4886   45.4234 H   0  0  0  0  0  0  0  0  0  0  0  0
   57.4179   35.0903   44.2544 H   0  0  0  0  0  0  0  0  0  0  0  0
   56.9527   33.3552   44.2544 H   0  0  0  0  0  0  0  0  0  0  0  0
   56.8423   33.2821   47.4261 H   0  0  0  0  0  0  0  0  0  0  0  0
   58.6458   32.8602   49.0937 H   0  0  0  0  0  0  0  0  0  0  0  0
   62.1058   34.0288   48.6562 H   0  0  0  0  0  0  0  0  0  0  0  0
   60.8927   33.3206   49.7874 H   0  0  0  0  0  0  0  0  0  0  0  0
   62.6110   31.7490   49.3950 H   0  0  0  0  0  0  0  0  0  0  0  0
   62.4850   31.8990   47.7170 H   0  0  0  0  0  0  0  0  0  0  0  0
   60.4148   31.1881   50.6952 H   0  0  0  0  0  0  0  0  0  0  0  0
   58.6191   29.4619   50.6726 H   0  0  0  0  0  0  0  0  0  0  0  0
   58.1009   28.2429   48.5697 H   0  0  0  0  0  0  0  0  0  0  0  0
   60.1431   28.3394   45.5943 H   0  0  0  0  0  0  0  0  0  0  0  0
   58.6213   27.0157   47.6133 H   0  0  0  0  0  0  0  0  0  0  0  0
   57.6605   27.0358   46.0957 H   0  0  0  0  0  0  0  0  0  0  0  0
   59.3256   26.3618   46.0957 H   0  0  0  0  0  0  0  0  0  0  0  0
   59.8677   30.7620   44.6245 H   0  0  0  0  0  0  0  0  0  0  0  0
   58.3313   32.0440   43.1367 H   0  0  0  0  0  0  0  0  0  0  0  0
   55.9360   31.3758   42.9318 H   0  0  0  0  0  0  0  0  0  0  0  0
   55.0745   29.4149   44.2102 H   0  0  0  0  0  0  0  0  0  0  0  0
   56.5986   28.1256   45.7004 H   0  0  0  0  0  0  0  0  0  0  0  0
   61.6074   34.1949   46.2299 H   0  0  0  0  0  0  0  0  0  0  0  0
   59.8024   34.6195   44.5616 H   0  0  0  0  0  0  0  0  0  0  0  0
  1  2  1  0
  2  3  2  0
  3  4  1  0
  4  5  2  0
  5  6  1  0
  6  7  1  0
  7  8  1  0
  8  9  2  0
  9 10  1  0
 10 11  2  0
 11 12  1  0
 12 13  1  0
 13 14  1  0
 13 15  1  0
 15 16  2  0
 16 17  1  0
 17 18  2  0
 18 19  1  0
 19 20  2  0
 12 21  1  0
 21 22  2  0
  5 23  1  0
 23 24  2  0
 24  2  1  0
 21  8  1  0
 20 15  1  0
  1 25  1  0
  1 26  1  0
  1 27  1  0
  3 28  1  0
  4 29  1  0
  6 30  1  0
  6 31  1  0
  7 32  1  0
  7 33  1  0
  9 34  1  0
 10 35  1  0
 11 36  1  0
 13 37  1  6
 14 38  1  0
 14 39  1  0
 14 40  1  0
 16 41  1  0
 17 42  1  0
 18 43  1  0
 19 44  1  0
 20 45  1  0
 23 46  1  0
 24 47  1  0
M  CHG  1   7   1
M  END
>  <UniqueID>  (50) 
46

>  <SMILES>  (50) 
Cc1ccc(C[NH2+]c2cccn([C@@H](C)c3ccccc3)c2=O)cc1

>  <Energy>  (50) 
54.01853248867751

>  <Genealogy>  (50) 
Cc1ccc(C[NH2+]c2cccn(C(C)c3ccccc3)c2=O)cc1 (protonated)
Cc1ccc(C[NH2+]c2cccn([C@@H](C)c3ccccc3)c2=O)cc1 (chirality)
Cc1ccc(C[NH2+]c2cccn([C@@H](C)c3ccccc3)c2=O)cc1 (3D coordinates assigned)
Cc1ccc(C[NH2+]c2cccn([C@@H](C)c3ccccc3)c2=O)cc1 (optimized conformer: 54.01853248867751 kcal/mol)

>  <smiles>  (50) 
Cc1ccc(CNc2cccn(C(C)c3ccccc3)c2=O)cc1

>  <score_type>  (50) 
oracle

>  <origin>  (50) 
adg

>  <m_score__min__energy>  (50) 
-6.7000000000000002

>  <m_primary>  (50) 
energy

$$$$
