0:0
     RDKit          3D

 34 36  0  0  0  0  0  0  0  0999 V2000
   55.9080   29.8030   42.9290 C   0  0  0  0  0  0  0  0  0  0  0  0
   56.8290   29.5210   44.0720 C   0  0  0  0  0  0  0  0  0  0  0  0
   57.1560   28.2760   44.4880 N   0  0  0  0  0  0  0  0  0  0  0  0
   58.0980   28.4650   45.4340 C   0  0  0  0  0  0  0  0  0  0  0  0
   58.7570   27.4710   46.1560 C   0  0  0  0  0  0  0  0  0  0  0  0
   59.7230   27.8780   47.0920 C   0  0  0  0  0  0  0  0  0  0  0  0
   60.0030   29.2470   47.2790 C   0  0  0  0  0  0  0  0  0  0  0  0
   60.9330   29.6370   48.1830 F   0  0  0  0  0  0  0  0  0  0  0  0
   59.3100   30.2040   46.5200 C   0  0  0  0  0  0  0  0  0  0  0  0
   58.3860   29.7650   45.6280 N   0  0  0  0  0  0  0  0  0  0  0  0
   57.5950   30.4390   44.7770 C   0  0  0  0  0  0  0  0  0  0  0  0
   57.6280   31.8590   44.5800 N   0  0  0  0  0  0  0  0  0  0  0  0
   57.9520   32.3800   43.2540 C   0  0  0  0  0  0  0  0  0  0  0  0
   57.2680   32.7490   45.6870 C   0  0  0  0  0  0  0  0  0  0  0  0
   58.4910   33.4280   46.2180 C   0  0  0  0  0  0  0  0  0  0  0  0
   59.0000   33.2940   47.5040 C   0  0  0  0  0  0  0  0  0  0  0  0
   60.2150   33.9660   47.6780 C   0  0  0  0  0  0  0  0  0  0  0  0
   60.8930   33.9680   48.8500 F   0  0  0  0  0  0  0  0  0  0  0  0
   60.6750   34.6140   46.5390 C   0  0  0  0  0  0  0  0  0  0  0  0
   59.5640   34.3460   45.3040 S   0  0  0  0  0  0  0  0  0  0  0  0
   54.9238   30.1044   43.3169 H   0  0  0  0  0  0  0  0  0  0  0  0
   56.3242   30.6149   42.3145 H   0  0  0  0  0  0  0  0  0  0  0  0
   55.7983   28.8973   42.3145 H   0  0  0  0  0  0  0  0  0  0  0  0
   56.7830   27.3670   44.1320 H   0  0  0  0  0  0  0  0  0  0  0  0
   58.5290   26.4064   45.9987 H   0  0  0  0  0  0  0  0  0  0  0  0
   60.2640   27.1238   47.6824 H   0  0  0  0  0  0  0  0  0  0  0  0
   59.5103   31.2784   46.6448 H   0  0  0  0  0  0  0  0  0  0  0  0
   58.5304   33.3100   43.3567 H   0  0  0  0  0  0  0  0  0  0  0  0
   58.5475   31.6368   42.7035 H   0  0  0  0  0  0  0  0  0  0  0  0
   57.0221   32.5854   42.7035 H   0  0  0  0  0  0  0  0  0  0  0  0
   56.5574   33.5079   45.3276 H   0  0  0  0  0  0  0  0  0  0  0  0
   56.8071   32.1562   46.4908 H   0  0  0  0  0  0  0  0  0  0  0  0
   58.5014   32.7212   48.2998 H   0  0  0  0  0  0  0  0  0  0  0  0
   61.6027   35.1996   46.4584 H   0  0  0  0  0  0  0  0  0  0  0  0
  1  2  1  0
  2  3  1  0
  3  4  2  0
  4  5  1  0
  5  6  2  0
  6  7  1  0
  7  8  1  0
  7  9  2  0
  9 10  1  0
 10 11  1  0
 11 12  1  0
 12 13  1  0
 12 14  1  0
 14 15  1  0
 15 16  2  0
 16 17  1  0
 17 18  1  0
 17 19  2  0
 19 20  1  0
 11  2  2  0
 20 15  1  0
 10  4  1  0
  1 21  1  0
  1 22  1  0
  1 23  1  0
  3 24  1  0
  5 25  1  0
  6 26  1  0
  9 27  1  0
 13 28  1  0
 13 29  1  0
 13 30  1  0
 14 31  1  0
 14 32  1  0
 16 33  1  0
 19 34  1  0
M  CHG  1   3   1
M  END
>  <UniqueID>  (1) 
1

>  <SMILES>  (1) 
Cc1[nH+]c2ccc(F)cn2c1N(C)Cc1cc(F)cs1

>  <Energy>  (1) 
98.79529325177307

>  <Genealogy>  (1) 
Cc1[nH+]c2ccc(F)cn2c1N(C)Cc1cc(F)cs1 (protonated)
Cc1[nH+]c2ccc(F)cn2c1N(C)Cc1cc(F)cs1 (3D coordinates assigned)
Cc1[nH+]c2ccc(F)cn2c1N(C)Cc1cc(F)cs1 (optimized conformer: 98.79529325177307 kcal/mol)

>  <smiles>  (1) 
Cc1nc2ccc(F)cn2c1N(C)Cc1cc(F)cs1

>  <score_type>  (1) 
oracle

>  <origin>  (1) 
adg

>  <m_score__min__energy>  (1) 
-5.0099999999999998

>  <m_primary>  (1) 
energy

$$$$
1:0
     RDKit          3D

 43 45  0  0  0  0  0  0  0  0999 V2000
   65.2750   33.0580   49.7480 C   0  0  0  0  0  0  0  0  0  0  0  0
   64.0110   33.4140   49.1970 O   0  0  0  0  0  0  0  0  0  0  0  0
   63.0270   32.4920   48.8080 C   0  0  0  0  0  0  0  0  0  0  0  0
   62.5690   31.4770   49.6680 C   0  0  0  0  0  0  0  0  0  0  0  0
   61.5870   30.5780   49.2430 C   0  0  0  0  0  0  0  0  0  0  0  0
   61.0410   30.6740   47.9520 C   0  0  0  0  0  0  0  0  0  0  0  0
   60.0010   29.7260   47.4920 C   0  0  0  0  0  0  0  0  0  0  0  0
   59.4790   29.7550   46.2290 N   0  0  0  0  0  0  0  0  0  0  0  0
   58.5830   28.7890   46.1070 N   0  0  0  0  0  0  0  0  0  0  0  0
   57.7770   28.3310   45.1490 C   0  0  0  0  0  0  0  0  0  0  0  0
   57.6200   28.9170   43.7800 C   0  0  0  0  0  0  0  0  0  0  0  0
   58.1070   30.2940   43.7530 N   0  0  0  0  0  0  0  0  0  0  0  0
   57.3420   31.3890   44.2730 C   0  0  0  0  0  0  0  0  0  0  0  0
   56.2420   31.1790   44.8520 O   0  0  0  0  0  0  0  0  0  0  0  0
   57.8590   32.7940   44.1600 C   0  0  0  0  0  0  0  0  0  0  0  0
   58.6780   33.2060   45.4000 C   0  0  0  0  0  0  0  0  0  0  0  0
   57.8030   33.1400   46.6570 C   0  0  0  0  0  0  0  0  0  0  0  0
   59.2700   34.6150   45.2460 C   0  0  0  0  0  0  0  0  0  0  0  0
   57.0580   27.2860   45.6420 N   0  0  0  0  0  0  0  0  0  0  0  0
   57.4380   27.0860   46.9120 N   0  0  0  0  0  0  0  0  0  0  0  0
   58.3680   28.0280   47.1420 C   0  0  0  0  0  0  0  0  0  0  0  0
   59.3110   28.4590   48.4540 S   0  0  0  0  0  0  0  0  0  0  0  0
   61.4990   31.6890   47.0950 C   0  0  0  0  0  0  0  0  0  0  0  0
   62.4840   32.5890   47.5180 C   0  0  0  0  0  0  0  0  0  0  0  0
   63.0310   33.8420   46.4130 Cl  0  0  0  0  0  0  0  0  0  0  0  0
   65.2142   33.0751   50.8462 H   0  0  0  0  0  0  0  0  0  0  0  0
   65.5501   32.0474   49.4117 H   0  0  0  0  0  0  0  0  0  0  0  0
   66.0371   33.7765   49.4117 H   0  0  0  0  0  0  0  0  0  0  0  0
   62.9867   31.3905   50.6819 H   0  0  0  0  0  0  0  0  0  0  0  0
   61.2386   29.7885   49.9251 H   0  0  0  0  0  0  0  0  0  0  0  0
   58.1954   28.3156   43.0608 H   0  0  0  0  0  0  0  0  0  0  0  0
   56.5533   28.9120   43.5115 H   0  0  0  0  0  0  0  0  0  0  0  0
   59.0450   30.4810   43.3330 H   0  0  0  0  0  0  0  0  0  0  0  0
   58.5008   32.8664   43.2696 H   0  0  0  0  0  0  0  0  0  0  0  0
   56.9950   33.4703   44.0816 H   0  0  0  0  0  0  0  0  0  0  0  0
   59.5139   32.4978   45.4984 H   0  0  0  0  0  0  0  0  0  0  0  0
   58.4417   33.1882   47.5513 H   0  0  0  0  0  0  0  0  0  0  0  0
   57.1022   33.9878   46.6608 H   0  0  0  0  0  0  0  0  0  0  0  0
   57.2373   32.1966   46.6608 H   0  0  0  0  0  0  0  0  0  0  0  0
   59.4516   35.0472   46.2411 H   0  0  0  0  0  0  0  0  0  0  0  0
   60.2192   34.5555   44.6933 H   0  0  0  0  0  0  0  0  0  0  0  0
   58.5631   35.2513   44.6933 H   0  0  0  0  0  0  0  0  0  0  0  0
   61.0794   31.7771   46.0820 H   0  0  0  0  0  0  0  0  0  0  0  0
  1  2  1  0
  2  3  1  0
  3  4  2  0
  4  5  1  0
  5  6  2  0
  6  7  1  0
  7  8  2  0
  8  9  1  0
  9 10  1  0
 10 11  1  0
 11 12  1  0
 12 13  1  0
 13 14  2  0
 13 15  1  0
 15 16  1  0
 16 17  1  0
 16 18  1  0
 10 19  2  0
 19 20  1  0
 20 21  2  0
 21 22  1  0
  6 23  1  0
 23 24  2  0
 24 25  1  0
 24  3  1  0
 22  7  1  0
 21  9  1  0
  1 26  1  0
  1 27  1  0
  1 28  1  0
  4 29  1  0
  5 30  1  0
 11 31  1  0
 11 32  1  0
 12 33  1  0
 15 34  1  0
 15 35  1  0
 16 36  1  0
 17 37  1  0
 17 38  1  0
 17 39  1  0
 18 40  1  0
 18 41  1  0
 18 42  1  0
 23 43  1  0
M  END
>  <UniqueID>  (2) 
2

>  <SMILES>  (2) 
COc1ccc(-c2nn3c(CNC(=O)CC(C)C)nnc3s2)cc1Cl

>  <Energy>  (2) 
128.15509458721286

>  <Genealogy>  (2) 
COc1ccc(-c2nn3c(CNC(=O)CC(C)C)nnc3s2)cc1Cl (3D coordinates assigned)
COc1ccc(-c2nn3c(CNC(=O)CC(C)C)nnc3s2)cc1Cl (optimized conformer: 128.15509458721286 kcal/mol)

>  <smiles>  (2) 
COc1ccc(-c2nn3c(CNC(=O)CC(C)C)nnc3s2)cc1Cl

>  <score_type>  (2) 
oracle

>  <origin>  (2) 
adg

>  <m_score__min__energy>  (2) 
-7.8799999999999999

>  <m_primary>  (2) 
energy

$$$$
2:0
     RDKit          3D

 47 50  0  0  0  0  0  0  0  0999 V2000
   56.5772   29.1635   44.0363 H   0  0  0  0  0  0  0  0  0  0  0  0
   56.9500   30.1090   44.4570 C   0  0  0  0  0  0  0  0  0  0  0  0
   56.2500   31.2730   44.4980 N   0  0  0  0  0  0  0  0  0  0  0  0
   57.1030   32.1320   45.0900 C   0  0  0  0  0  0  0  0  0  0  0  0
   56.8730   33.4740   45.3650 C   0  0  0  0  0  0  0  0  0  0  0  0
   55.9167   33.9536   45.1092 H   0  0  0  0  0  0  0  0  0  0  0  0
   57.9080   34.1950   45.9820 C   0  0  0  0  0  0  0  0  0  0  0  0
   57.7720   35.2600   46.2213 H   0  0  0  0  0  0  0  0  0  0  0  0
   59.1230   33.5490   46.2940 C   0  0  0  0  0  0  0  0  0  0  0  0
   60.0820   34.2180   46.8640 N   0  0  0  0  0  0  0  0  0  0  0  0
   61.2440   33.6100   47.5180 C   0  0  0  0  0  0  0  0  0  0  0  0
   61.0687   32.5290   47.6219 H   0  0  0  0  0  0  0  0  0  0  0  0
   62.5160   33.8140   46.6670 C   0  0  0  0  0  0  0  0  0  0  0  0
   62.4622   34.7999   46.1820 H   0  0  0  0  0  0  0  0  0  0  0  0
   62.5576   33.0019   45.9262 H   0  0  0  0  0  0  0  0  0  0  0  0
   63.8040   33.7470   47.5100 C   0  0  0  0  0  0  0  0  0  0  0  0
   64.0946   34.7655   47.8072 H   0  0  0  0  0  0  0  0  0  0  0  0
   64.5986   33.2847   46.9060 H   0  0  0  0  0  0  0  0  0  0  0  0
   63.5920   32.9300   48.7220 N   0  0  0  0  0  0  0  0  0  0  0  0
   64.8820   32.6580   49.3900 C   0  0  0  0  0  0  0  0  0  0  0  0
   65.7023   32.9366   48.7121 H   0  0  0  0  0  0  0  0  0  0  0  0
   64.9268   31.5867   49.6354 H   0  0  0  0  0  0  0  0  0  0  0  0
   65.0150   33.4560   50.6870 C   0  0  0  0  0  0  0  0  0  0  0  0
   64.9022   32.7794   51.5470 H   0  0  0  0  0  0  0  0  0  0  0  0
   66.0052   33.9338   50.7237 H   0  0  0  0  0  0  0  0  0  0  0  0
   64.2333   34.2291   50.7237 H   0  0  0  0  0  0  0  0  0  0  0  0
   62.6350   33.5980   49.6420 C   0  0  0  0  0  0  0  0  0  0  0  0
   63.1680   34.3904   50.1878 H   0  0  0  0  0  0  0  0  0  0  0  0
   62.2383   32.8286   50.3207 H   0  0  0  0  0  0  0  0  0  0  0  0
   61.4330   34.2300   48.9050 C   0  0  0  0  0  0  0  0  0  0  0  0
   61.6081   35.3103   48.7940 H   0  0  0  0  0  0  0  0  0  0  0  0
   60.5247   34.0424   49.4965 H   0  0  0  0  0  0  0  0  0  0  0  0
   59.2740   32.2250   45.9930 N   0  0  0  0  0  0  0  0  0  0  0  0
   58.2740   31.5690   45.4120 N   0  0  0  0  0  0  0  0  0  0  0  0
   58.2050   30.2880   45.0240 C   0  0  0  0  0  0  0  0  0  0  0  0
   59.2660   29.2710   45.1660 C   0  0  0  0  0  0  0  0  0  0  0  0
   59.2650   28.1410   45.9700 C   0  0  0  0  0  0  0  0  0  0  0  0
   58.4521   27.8262   46.6409 H   0  0  0  0  0  0  0  0  0  0  0  0
   60.4320   27.4970   45.7860 N   0  0  0  0  0  0  0  0  0  0  0  0
   60.8060   26.2200   46.3810 C   0  0  0  0  0  0  0  0  0  0  0  0
   60.7811   26.3050   47.4774 H   0  0  0  0  0  0  0  0  0  0  0  0
   60.0976   25.4432   46.0573 H   0  0  0  0  0  0  0  0  0  0  0  0
   61.8215   25.9481   46.0573 H   0  0  0  0  0  0  0  0  0  0  0  0
   61.1580   28.1470   44.8910 N   0  0  0  0  0  0  0  0  0  0  0  0
   62.0970   27.8470   44.5470 H   0  0  0  0  0  0  0  0  0  0  0  0
   60.4790   29.2400   44.4960 C   0  0  0  0  0  0  0  0  0  0  0  0
   60.8281   29.9836   43.7644 H   0  0  0  0  0  0  0  0  0  0  0  0
  1  2  1  0
  2  3  1  0
  3  4  2  0
  4  5  1  0
  5  6  1  0
  5  7  2  0
  7  8  1  0
  7  9  1  0
  9 10  2  0
 10 11  1  0
 11 12  1  0
 11 13  1  0
 13 14  1  0
 13 15  1  0
 13 16  1  0
 16 17  1  0
 16 18  1  0
 16 19  1  0
 19 20  1  0
 20 21  1  0
 20 22  1  0
 20 23  1  0
 23 24  1  0
 23 25  1  0
 23 26  1  0
 19 27  1  0
 27 28  1  0
 27 29  1  0
 27 30  1  0
 30 31  1  0
 30 32  1  0
  9 33  1  0
 33 34  1  0
 34 35  1  0
 35 36  1  0
 36 37  2  0
 37 38  1  0
 37 39  1  0
 39 40  1  0
 40 41  1  0
 40 42  1  0
 40 43  1  0
 39 44  1  0
 44 45  1  0
 44 46  2  0
 46 47  1  0
 35  2  2  0
 46 36  1  0
 34  4  1  0
 30 11  1  0
M  CHG  2  33  -1  44   1
M  END
>  <UniqueID>  (3) 
3

>  <SMILES>  (3) 
CCN1CCC(/N=c2/ccc3ncc(-c4c[nH+]n(C)c4)n3[n-]2)CC1

>  <Energy>  (3) 
118.80369357769597

>  <Genealogy>  (3) 
CCN1CCC(N=c2ccc3ncc(-c4c[nH+]n(C)c4)n3[n-]2)CC1 (protonated)
CCN1CCC(/N=c2/ccc3ncc(-c4c[nH+]n(C)c4)n3[n-]2)CC1 (cis-trans isomerization)
CCN1CCC(/N=c2/ccc3ncc(-c4c[nH+]n(C)c4)n3[n-]2)CC1 (3D coordinates assigned)
CCN1CCC(/N=c2/ccc3ncc(-c4c[nH+]n(C)c4)n3[n-]2)CC1 (nonaromatic ring conformer: 118.80369357769597 kcal/mol)

>  <smiles>  (3) 
CCN1CCC(N=c2ccc3ncc(-c4cnn(C)c4)n3[nH]2)CC1

>  <score_type>  (3) 
oracle

>  <origin>  (3) 
adg

>  <m_score__min__energy>  (3) 
-7.7000000000000002

>  <m_primary>  (3) 
energy

$$$$
3:0
     RDKit          3D

 48 50  0  0  0  0  0  0  0  0999 V2000
   61.0450   34.3070   46.3400 C   0  0  0  0  0  0  0  0  0  0  0  0
   59.5610   34.6070   46.3210 C   0  0  0  0  0  0  0  0  0  0  0  0
   59.0980   34.8360   44.8960 C   0  0  0  0  0  0  0  0  0  0  0  0
   58.7800   33.6450   47.0040 N   0  0  0  0  0  0  0  0  0  0  0  0
   59.0520   33.4470   48.3650 C   0  0  0  0  0  0  0  0  0  0  0  0
   58.5360   32.1140   48.8420 C   0  0  0  0  0  0  0  0  0  0  0  0
   59.8710   30.9440   49.0550 S   0  0  0  0  0  0  0  0  0  0  0  0
   59.6740   29.7800   48.1360 O   0  0  0  0  0  0  0  0  0  0  0  0
   59.9170   30.4300   50.4570 O   0  0  0  0  0  0  0  0  0  0  0  0
   61.3470   31.8230   48.7280 C   0  0  0  0  0  0  0  0  0  0  0  0
   61.8310   32.8340   49.4930 C   0  0  0  0  0  0  0  0  0  0  0  0
   63.0090   33.4790   49.1530 C   0  0  0  0  0  0  0  0  0  0  0  0
   63.7000   33.0940   48.0230 C   0  0  0  0  0  0  0  0  0  0  0  0
   63.2300   32.0570   47.2120 C   0  0  0  0  0  0  0  0  0  0  0  0
   62.0510   31.4380   47.5870 C   0  0  0  0  0  0  0  0  0  0  0  0
   57.5740   33.2180   46.4320 C   0  0  0  0  0  0  0  0  0  0  0  0
   57.8000   31.8750   45.7720 C   0  0  0  0  0  0  0  0  0  0  0  0
   56.9740   31.2450   44.9060 N   0  0  0  0  0  0  0  0  0  0  0  0
   57.4900   30.0690   44.5190 C   0  0  0  0  0  0  0  0  0  0  0  0
   56.9900   29.1160   43.6580 C   0  0  0  0  0  0  0  0  0  0  0  0
   57.7770   27.9820   43.4610 C   0  0  0  0  0  0  0  0  0  0  0  0
   58.9920   27.8300   44.0990 C   0  0  0  0  0  0  0  0  0  0  0  0
   59.4590   28.8230   44.9620 C   0  0  0  0  0  0  0  0  0  0  0  0
   58.6930   29.9590   45.1740 C   0  0  0  0  0  0  0  0  0  0  0  0
   58.8850   31.0680   45.9450 N   0  0  0  0  0  0  0  0  0  0  0  0
   61.3916   34.2369   47.3816 H   0  0  0  0  0  0  0  0  0  0  0  0
   61.2328   33.3527   45.8261 H   0  0  0  0  0  0  0  0  0  0  0  0
   61.5887   35.1134   45.8261 H   0  0  0  0  0  0  0  0  0  0  0  0
   59.4043   35.5357   46.8893 H   0  0  0  0  0  0  0  0  0  0  0  0
   58.1120   35.3237   44.9047 H   0  0  0  0  0  0  0  0  0  0  0  0
   59.8212   35.4803   44.3746 H   0  0  0  0  0  0  0  0  0  0  0  0
   59.0248   33.8702   44.3746 H   0  0  0  0  0  0  0  0  0  0  0  0
   60.1401   33.4861   48.5216 H   0  0  0  0  0  0  0  0  0  0  0  0
   58.5458   34.2384   48.9373 H   0  0  0  0  0  0  0  0  0  0  0  0
   58.0222   32.2516   49.8048 H   0  0  0  0  0  0  0  0  0  0  0  0
   57.8422   31.7177   48.0859 H   0  0  0  0  0  0  0  0  0  0  0  0
   61.2815   33.1450   50.3937 H   0  0  0  0  0  0  0  0  0  0  0  0
   63.3922   34.2958   49.7823 H   0  0  0  0  0  0  0  0  0  0  0  0
   64.6340   33.6102   47.7563 H   0  0  0  0  0  0  0  0  0  0  0  0
   63.7768   31.7450   46.3100 H   0  0  0  0  0  0  0  0  0  0  0  0
   61.6574   30.6186   46.9676 H   0  0  0  0  0  0  0  0  0  0  0  0
   56.8067   33.1218   47.2143 H   0  0  0  0  0  0  0  0  0  0  0  0
   57.2327   33.9503   45.6855 H   0  0  0  0  0  0  0  0  0  0  0  0
   56.0212   29.2433   43.1529 H   0  0  0  0  0  0  0  0  0  0  0  0
   57.4224   27.1917   42.7829 H   0  0  0  0  0  0  0  0  0  0  0  0
   59.5930   26.9249   43.9270 H   0  0  0  0  0  0  0  0  0  0  0  0
   60.4275   28.7050   45.4700 H   0  0  0  0  0  0  0  0  0  0  0  0
   59.7070   31.2780   46.5610 H   0  0  0  0  0  0  0  0  0  0  0  0
  1  2  1  0
  2  3  1  0
  2  4  1  0
  4  5  1  0
  5  6  1  0
  6  7  1  0
  7  8  2  0
  7  9  2  0
  7 10  1  0
 10 11  2  0
 11 12  1  0
 12 13  2  0
 13 14  1  0
 14 15  2  0
  4 16  1  0
 16 17  1  0
 17 18  2  0
 18 19  1  0
 19 20  2  0
 20 21  1  0
 21 22  2  0
 22 23  1  0
 23 24  2  0
 24 25  1  0
 15 10  1  0
 25 17  1  0
 24 19  1  0
  1 26  1  0
  1 27  1  0
  1 28  1  0
  2 29  1  0
  3 30  1  0
  3 31  1  0
  3 32  1  0
  5 33  1  0
  5 34  1  0
  6 35  1  0
  6 36  1  0
 11 37  1  0
 12 38  1  0
 13 39  1  0
 14 40  1  0
 15 41  1  0
 16 42  1  0
 16 43  1  0
 20 44  1  0
 21 45  1  0
 22 46  1  0
 23 47  1  0
 25 48  1  0
M  END
>  <smiles>  (4) 
CC(C)N(CCS(=O)(=O)c1ccccc1)Cc1nc2ccccc2[nH]1

>  <score_type>  (4) 
oracle

>  <origin>  (4) 
adg

>  <m_score__min__energy>  (4) 
-8.4199999999999999

>  <m_primary>  (4) 
energy

$$$$
4:0
     RDKit          3D

 43 45  0  0  0  0  0  0  0  0999 V2000
   57.7480   23.8260   46.1180 C   0  0  0  0  0  0  0  0  0  0  0  0
   57.9140   24.9150   47.0210 O   0  0  0  0  0  0  0  0  0  0  0  0
   57.8090   26.2670   46.6600 C   0  0  0  0  0  0  0  0  0  0  0  0
   56.7010   26.7760   45.9590 C   0  0  0  0  0  0  0  0  0  0  0  0
   56.6350   28.1320   45.6190 C   0  0  0  0  0  0  0  0  0  0  0  0
   55.5190   28.5860   44.9230 O   0  0  0  0  0  0  0  0  0  0  0  0
   57.6870   29.0070   45.9780 C   0  0  0  0  0  0  0  0  0  0  0  0
   57.6910   30.3820   45.6590 C   0  0  0  0  0  0  0  0  0  0  0  0
   56.7270   30.8840   45.0230 O   0  0  0  0  0  0  0  0  0  0  0  0
   58.7850   31.1870   46.0540 C   0  0  0  0  0  0  0  0  0  0  0  0
   58.9010   32.5570   45.7450 O   0  0  0  0  0  0  0  0  0  0  0  0
   57.9080   33.5560   45.9440 C   0  0  0  0  0  0  0  0  0  0  0  0
   59.8290   30.5790   46.7770 C   0  0  0  0  0  0  0  0  0  0  0  0
   60.9990   31.3550   47.2410 C   0  0  0  0  0  0  0  0  0  0  0  0
   62.2750   30.9540   46.8240 C   0  0  0  0  0  0  0  0  0  0  0  0
   63.4030   31.6580   47.2320 C   0  0  0  0  0  0  0  0  0  0  0  0
   63.2740   32.7630   48.0690 C   0  0  0  0  0  0  0  0  0  0  0  0
   62.0070   33.1760   48.5280 C   0  0  0  0  0  0  0  0  0  0  0  0
   61.8800   34.2820   49.3820 O   0  0  0  0  0  0  0  0  0  0  0  0
   62.7000   34.5380   50.5180 C   0  0  0  0  0  0  0  0  0  0  0  0
   60.8530   32.4540   48.1200 C   0  0  0  0  0  0  0  0  0  0  0  0
   59.5510   32.7600   48.5630 O   0  0  0  0  0  0  0  0  0  0  0  0
   58.9170   32.2780   49.7420 C   0  0  0  0  0  0  0  0  0  0  0  0
   59.7960   29.2780   47.0450 O   0  0  0  0  0  0  0  0  0  0  0  0
   58.7940   28.4880   46.6850 C   0  0  0  0  0  0  0  0  0  0  0  0
   58.8470   27.1310   47.0170 C   0  0  0  0  0  0  0  0  0  0  0  0
   57.6062   22.8957   46.6876 H   0  0  0  0  0  0  0  0  0  0  0  0
   56.8669   24.0060   45.4845 H   0  0  0  0  0  0  0  0  0  0  0  0
   58.6427   23.7353   45.4845 H   0  0  0  0  0  0  0  0  0  0  0  0
   55.8790   26.1023   45.6754 H   0  0  0  0  0  0  0  0  0  0  0  0
   57.7543   33.7106   47.0222 H   0  0  0  0  0  0  0  0  0  0  0  0
   58.2379   34.4981   45.4818 H   0  0  0  0  0  0  0  0  0  0  0  0
   56.9639   33.2318   45.4818 H   0  0  0  0  0  0  0  0  0  0  0  0
   62.3854   30.0767   46.1697 H   0  0  0  0  0  0  0  0  0  0  0  0
   64.4000   31.3408   46.8923 H   0  0  0  0  0  0  0  0  0  0  0  0
   64.1714   33.3203   48.3757 H   0  0  0  0  0  0  0  0  0  0  0  0
   62.1215   34.3574   51.4360 H   0  0  0  0  0  0  0  0  0  0  0  0
   63.5736   33.8698   50.4977 H   0  0  0  0  0  0  0  0  0  0  0  0
   63.0383   35.5845   50.4977 H   0  0  0  0  0  0  0  0  0  0  0  0
   59.4377   32.6739   50.6264 H   0  0  0  0  0  0  0  0  0  0  0  0
   57.8680   32.6087   49.7556 H   0  0  0  0  0  0  0  0  0  0  0  0
   58.9551   31.1787   49.7556 H   0  0  0  0  0  0  0  0  0  0  0  0
   59.7161   26.7391   47.5657 H   0  0  0  0  0  0  0  0  0  0  0  0
  1  2  1  0
  2  3  1  0
  3  4  2  0
  4  5  1  0
  5  6  1  0
  5  7  2  0
  7  8  1  0
  8  9  2  0
  8 10  1  0
 10 11  1  0
 11 12  1  0
 10 13  2  0
 13 14  1  0
 14 15  2  0
 15 16  1  0
 16 17  2  0
 17 18  1  0
 18 19  1  0
 19 20  1  0
 18 21  2  0
 21 22  1  0
 22 23  1  0
 13 24  1  0
 24 25  1  0
 25 26  2  0
 26  3  1  0
 25  7  1  0
 21 14  1  0
  1 27  1  0
  1 28  1  0
  1 29  1  0
  4 30  1  0
 12 31  1  0
 12 32  1  0
 12 33  1  0
 15 34  1  0
 16 35  1  0
 17 36  1  0
 20 37  1  0
 20 38  1  0
 20 39  1  0
 23 40  1  0
 23 41  1  0
 23 42  1  0
 26 43  1  0
M  CHG  1   6  -1
M  END
>  <UniqueID>  (5) 
4

>  <SMILES>  (5) 
COc1cc([O-])c2c(=O)c(OC)c(-c3cccc(OC)c3OC)oc2c1

>  <Energy>  (5) 
62.401823272034555

>  <Genealogy>  (5) 
COc1cc([O-])c2c(=O)c(OC)c(-c3cccc(OC)c3OC)oc2c1 (protonated)
COc1cc([O-])c2c(=O)c(OC)c(-c3cccc(OC)c3OC)oc2c1 (3D coordinates assigned)
COc1cc([O-])c2c(=O)c(OC)c(-c3cccc(OC)c3OC)oc2c1 (optimized conformer: 62.401823272034555 kcal/mol)

>  <smiles>  (5) 
COc1cc(O)c2c(=O)c(OC)c(-c3cccc(OC)c3OC)oc2c1

>  <score_type>  (5) 
oracle

>  <origin>  (5) 
adg

>  <m_score__min__energy>  (5) 
-8.9600000000000009

>  <m_primary>  (5) 
energy

$$$$
5:0
     RDKit          3D

 34 36  0  0  0  0  0  0  0  0999 V2000
   54.9440   26.6760   45.9910 O   0  0  0  0  0  0  0  0  0  0  0  0
   56.1520   26.3520   46.1390 C   0  0  0  0  0  0  0  0  0  0  0  0
   56.4960   25.3800   47.0700 O   0  0  0  0  0  0  0  0  0  0  0  0
   57.2100   26.9930   45.2990 C   0  0  0  0  0  0  0  0  0  0  0  0
   57.2670   28.4280   45.5650 N   0  0  0  0  0  0  0  0  0  0  0  0
   56.4110   29.4070   44.9620 C   0  0  0  0  0  0  0  0  0  0  0  0
   55.1740   29.3560   45.1910 O   0  0  0  0  0  0  0  0  0  0  0  0
   56.9330   30.4470   44.0570 C   0  0  0  0  0  0  0  0  0  0  0  0
   56.4970   30.4590   42.7230 C   0  0  0  0  0  0  0  0  0  0  0  0
   57.0190   31.3850   41.8160 C   0  0  0  0  0  0  0  0  0  0  0  0
   57.9770   32.3090   42.2340 C   0  0  0  0  0  0  0  0  0  0  0  0
   58.4040   32.3220   43.5630 C   0  0  0  0  0  0  0  0  0  0  0  0
   57.8740   31.4110   44.4910 C   0  0  0  0  0  0  0  0  0  0  0  0
   58.2910   31.4910   45.8630 N   0  0  0  0  0  0  0  0  0  0  0  0
   58.5130   30.4480   46.7040 C   0  0  0  0  0  0  0  0  0  0  0  0
   58.9460   30.8510   47.9240 N   0  0  0  0  0  0  0  0  0  0  0  0
   59.0170   32.1900   47.8280 C   0  0  0  0  0  0  0  0  0  0  0  0
   59.4590   33.0990   48.7860 C   0  0  0  0  0  0  0  0  0  0  0  0
   59.5050   34.4580   48.4230 C   0  0  0  0  0  0  0  0  0  0  0  0
   59.1290   34.8650   47.1220 C   0  0  0  0  0  0  0  0  0  0  0  0
   58.6940   33.9190   46.1750 C   0  0  0  0  0  0  0  0  0  0  0  0
   58.6300   32.5820   46.5770 C   0  0  0  0  0  0  0  0  0  0  0  0
   58.1846   26.5410   45.5353 H   0  0  0  0  0  0  0  0  0  0  0  0
   56.9692   26.8348   44.2374 H   0  0  0  0  0  0  0  0  0  0  0  0
   55.7394   29.7347   42.3893 H   0  0  0  0  0  0  0  0  0  0  0  0
   56.6742   31.3854   40.7714 H   0  0  0  0  0  0  0  0  0  0  0  0
   58.3965   33.0284   41.5153 H   0  0  0  0  0  0  0  0  0  0  0  0
   59.1614   33.0514   43.8858 H   0  0  0  0  0  0  0  0  0  0  0  0
   58.3589   29.3948   46.4266 H   0  0  0  0  0  0  0  0  0  0  0  0
   59.1940   30.2520   48.7420 H   0  0  0  0  0  0  0  0  0  0  0  0
   59.7613   32.7668   49.7901 H   0  0  0  0  0  0  0  0  0  0  0  0
   59.8356   35.2085   49.1561 H   0  0  0  0  0  0  0  0  0  0  0  0
   59.1769   35.9292   46.8480 H   0  0  0  0  0  0  0  0  0  0  0  0
   58.4144   34.2212   45.1549 H   0  0  0  0  0  0  0  0  0  0  0  0
  1  2  2  0
  2  3  1  0
  2  4  1  0
  4  5  1  0
  5  6  1  0
  6  7  2  0
  6  8  1  0
  8  9  2  0
  9 10  1  0
 10 11  2  0
 11 12  1  0
 12 13  2  0
 13 14  1  0
 14 15  1  0
 15 16  2  0
 16 17  1  0
 17 18  2  0
 18 19  1  0
 19 20  2  0
 20 21  1  0
 21 22  2  0
 13  8  1  0
 22 14  1  0
 22 17  1  0
  4 23  1  0
  4 24  1  0
  9 25  1  0
 10 26  1  0
 11 27  1  0
 12 28  1  0
 15 29  1  0
 16 30  1  0
 18 31  1  0
 19 32  1  0
 20 33  1  0
 21 34  1  0
M  CHG  3   3  -1   5  -1  16   1
M  END
>  <UniqueID>  (6) 
5

>  <SMILES>  (6) 
O=C([O-])C[N-]C(=O)c1ccccc1-n1c[nH+]c2ccccc21

>  <Energy>  (6) 
85.21756276016984

>  <Genealogy>  (6) 
O=C([O-])C[N-]C(=O)c1ccccc1-n1c[nH+]c2ccccc21 (protonated)
O=C([O-])C[N-]C(=O)c1ccccc1-n1c[nH+]c2ccccc21 (3D coordinates assigned)
O=C([O-])C[N-]C(=O)c1ccccc1-n1c[nH+]c2ccccc21 (optimized conformer: 85.21756276016984 kcal/mol)

>  <smiles>  (6) 
O=C(O)CNC(=O)c1ccccc1-n1cnc2ccccc21

>  <score_type>  (6) 
oracle

>  <origin>  (6) 
adg

>  <m_score__min__energy>  (6) 
-10.92

>  <m_primary>  (6) 
energy

$$$$
6:0
     RDKit          3D

 49 52  0  0  0  0  0  0  0  0999 V2000
   58.1470   26.7300   42.3310 C   0  0  0  0  0  0  0  0  0  0  0  0
   57.8850   27.4510   43.5290 O   0  0  0  0  0  0  0  0  0  0  0  0
   58.2130   27.0020   44.8190 C   0  0  0  0  0  0  0  0  0  0  0  0
   58.5320   25.6560   45.0780 C   0  0  0  0  0  0  0  0  0  0  0  0
   58.8420   25.2400   46.3720 C   0  0  0  0  0  0  0  0  0  0  0  0
   58.8480   26.1570   47.4240 C   0  0  0  0  0  0  0  0  0  0  0  0
   58.5400   27.5100   47.1890 C   0  0  0  0  0  0  0  0  0  0  0  0
   58.5670   28.4650   48.2200 O   0  0  0  0  0  0  0  0  0  0  0  0
   59.6380   28.6250   49.1440 C   0  0  0  0  0  0  0  0  0  0  0  0
   58.2080   27.9260   45.8840 C   0  0  0  0  0  0  0  0  0  0  0  0
   57.8790   29.3400   45.6220 C   0  0  0  0  0  0  0  0  0  0  0  0
   56.6550   29.7520   45.2400 N   0  0  0  0  0  0  0  0  0  0  0  0
   56.6980   31.0740   45.1740 N   0  0  0  0  0  0  0  0  0  0  0  0
   57.9470   31.4530   45.5110 C   0  0  0  0  0  0  0  0  0  0  0  0
   58.3700   32.9060   45.6780 C   0  0  0  0  0  0  0  0  0  0  0  0
   59.4570   33.1250   46.7460 C   0  0  0  0  0  0  0  0  0  0  0  0
   60.7680   33.5060   46.3790 C   0  0  0  0  0  0  0  0  0  0  0  0
   61.7470   33.7360   47.3490 C   0  0  0  0  0  0  0  0  0  0  0  0
   61.4350   33.6150   48.7040 C   0  0  0  0  0  0  0  0  0  0  0  0
   62.6660   33.9060   49.9190 Cl  0  0  0  0  0  0  0  0  0  0  0  0
   60.1370   33.2790   49.0900 C   0  0  0  0  0  0  0  0  0  0  0  0
   59.1530   33.0490   48.1250 C   0  0  0  0  0  0  0  0  0  0  0  0
   57.1880   33.8780   45.8590 C   0  0  0  0  0  0  0  0  0  0  0  0
   57.5050   34.5280   44.5180 C   0  0  0  0  0  0  0  0  0  0  0  0
   58.6550   33.5530   44.3080 C   0  0  0  0  0  0  0  0  0  0  0  0
   58.7200   30.3800   45.8000 N   0  0  0  0  0  0  0  0  0  0  0  0
   60.0200   30.3590   46.4750 C   0  0  0  0  0  0  0  0  0  0  0  0
   58.5128   25.7233   42.5815 H   0  0  0  0  0  0  0  0  0  0  0  0
   57.2212   26.6478   41.7426 H   0  0  0  0  0  0  0  0  0  0  0  0
   58.9095   27.2613   41.7426 H   0  0  0  0  0  0  0  0  0  0  0  0
   58.5368   24.9273   44.2540 H   0  0  0  0  0  0  0  0  0  0  0  0
   59.0830   24.1842   46.5647 H   0  0  0  0  0  0  0  0  0  0  0  0
   59.0947   25.8206   48.4418 H   0  0  0  0  0  0  0  0  0  0  0  0
   59.2481   28.5667   50.1709 H   0  0  0  0  0  0  0  0  0  0  0  0
   60.3795   27.8277   48.9875 H   0  0  0  0  0  0  0  0  0  0  0  0
   60.1141   29.6042   48.9875 H   0  0  0  0  0  0  0  0  0  0  0  0
   61.0209   33.6230   45.3149 H   0  0  0  0  0  0  0  0  0  0  0  0
   62.7668   34.0133   47.0438 H   0  0  0  0  0  0  0  0  0  0  0  0
   59.8874   33.1948   50.1580 H   0  0  0  0  0  0  0  0  0  0  0  0
   58.1282   32.8056   48.4422 H   0  0  0  0  0  0  0  0  0  0  0  0
   56.2051   33.3855   45.8966 H   0  0  0  0  0  0  0  0  0  0  0  0
   57.1111   34.4929   46.7678 H   0  0  0  0  0  0  0  0  0  0  0  0
   56.6993   34.4371   43.7746 H   0  0  0  0  0  0  0  0  0  0  0  0
   57.6795   35.6123   44.4554 H   0  0  0  0  0  0  0  0  0  0  0  0
   58.5154   32.8734   43.4543 H   0  0  0  0  0  0  0  0  0  0  0  0
   59.6619   33.9275   44.0716 H   0  0  0  0  0  0  0  0  0  0  0  0
   59.8676   30.3615   47.5644 H   0  0  0  0  0  0  0  0  0  0  0  0
   60.5698   29.4519   46.1837 H   0  0  0  0  0  0  0  0  0  0  0  0
   60.5988   31.2479   46.1837 H   0  0  0  0  0  0  0  0  0  0  0  0
  1  2  1  0
  2  3  1  0
  3  4  2  0
  4  5  1  0
  5  6  2  0
  6  7  1  0
  7  8  1  0
  8  9  1  0
  7 10  2  0
 10 11  1  0
 11 12  2  0
 12 13  1  0
 13 14  2  0
 14 15  1  0
 15 16  1  0
 16 17  2  0
 17 18  1  0
 18 19  2  0
 19 20  1  0
 19 21  1  0
 21 22  2  0
 15 23  1  0
 23 24  1  0
 24 25  1  0
 14 26  1  0
 26 27  1  0
 10  3  1  0
 26 11  1  0
 25 15  1  0
 22 16  1  0
  1 28  1  0
  1 29  1  0
  1 30  1  0
  4 31  1  0
  5 32  1  0
  6 33  1  0
  9 34  1  0
  9 35  1  0
  9 36  1  0
 17 37  1  0
 18 38  1  0
 21 39  1  0
 22 40  1  0
 23 41  1  0
 23 42  1  0
 24 43  1  0
 24 44  1  0
 25 45  1  0
 25 46  1  0
 27 47  1  0
 27 48  1  0
 27 49  1  0
M  END
>  <UniqueID>  (7) 
6

>  <SMILES>  (7) 
COc1cccc(OC)c1-c1nnc(C2(c3ccc(Cl)cc3)CCC2)n1C

>  <Energy>  (7) 
158.46857260395166

>  <Genealogy>  (7) 
COc1cccc(OC)c1-c1nnc(C2(c3ccc(Cl)cc3)CCC2)n1C (3D coordinates assigned)
COc1cccc(OC)c1-c1nnc(C2(c3ccc(Cl)cc3)CCC2)n1C (nonaromatic ring conformer: 158.46857260395166 kcal/mol)

>  <smiles>  (7) 
COc1cccc(OC)c1-c1nnc(C2(c3ccc(Cl)cc3)CCC2)n1C

>  <score_type>  (7) 
oracle

>  <origin>  (7) 
adg

>  <m_score__min__energy>  (7) 
-8.1999999999999993

>  <m_primary>  (7) 
energy

$$$$
7:0
     RDKit          3D

 55 58  0  0  0  0  0  0  0  0999 V2000
   67.5060   28.8640   50.8380 C   0  0  0  0  0  0  0  0  0  0  0  0
   67.0620   30.1980   50.6140 O   0  0  0  0  0  0  0  0  0  0  0  0
   67.0400   31.2070   51.5910 C   0  0  0  0  0  0  0  0  0  0  0  0
   67.2470   30.9180   52.9560 C   0  0  0  0  0  0  0  0  0  0  0  0
   67.2180   31.9390   53.9080 C   0  0  0  0  0  0  0  0  0  0  0  0
   66.9820   33.2560   53.5170 C   0  0  0  0  0  0  0  0  0  0  0  0
   66.7750   33.5580   52.1700 C   0  0  0  0  0  0  0  0  0  0  0  0
   66.8050   32.5430   51.1980 C   0  0  0  0  0  0  0  0  0  0  0  0
   66.5570   32.9100   49.7550 C   0  0  0  0  0  0  0  0  0  0  0  0
   65.1880   32.5720   49.3720 N   0  0  0  0  0  0  0  0  0  0  0  0
   64.0450   33.2380   49.9340 C   0  0  0  0  0  0  0  0  0  0  0  0
   64.2130   34.2210   50.7080 O   0  0  0  0  0  0  0  0  0  0  0  0
   62.6660   32.8000   49.6110 C   0  0  0  0  0  0  0  0  0  0  0  0
   62.2700   31.4610   49.7720 C   0  0  0  0  0  0  0  0  0  0  0  0
   60.9630   31.0660   49.4730 C   0  0  0  0  0  0  0  0  0  0  0  0
   60.0250   32.0010   49.0110 C   0  0  0  0  0  0  0  0  0  0  0  0
   58.6060   31.5800   48.7320 C   0  0  0  0  0  0  0  0  0  0  0  0
   58.5730   30.5450   47.6780 N   0  0  0  0  0  0  0  0  0  0  0  0
   58.9130   29.2480   47.9740 C   0  0  0  0  0  0  0  0  0  0  0  0
   59.2990   28.9170   49.1280 O   0  0  0  0  0  0  0  0  0  0  0  0
   58.8210   28.2900   46.9810 C   0  0  0  0  0  0  0  0  0  0  0  0
   59.1410   26.6440   47.0700 S   0  0  0  0  0  0  0  0  0  0  0  0
   58.7360   26.3270   45.4620 C   0  0  0  0  0  0  0  0  0  0  0  0
   58.3450   27.5140   44.8480 C   0  0  0  0  0  0  0  0  0  0  0  0
   58.4010   28.6250   45.7140 C   0  0  0  0  0  0  0  0  0  0  0  0
   58.0770   29.9210   45.4070 N   0  0  0  0  0  0  0  0  0  0  0  0
   57.6040   30.2880   44.0580 C   0  0  0  0  0  0  0  0  0  0  0  0
   56.2290   29.7440   43.8230 C   0  0  0  0  0  0  0  0  0  0  0  0
   55.4470   29.2780   44.9200 N   0  0  0  0  0  0  0  0  0  0  0  0
   55.7550   29.7140   42.6570 O   0  0  0  0  0  0  0  0  0  0  0  0
   58.1500   30.8750   46.4030 C   0  0  0  0  0  0  0  0  0  0  0  0
   57.8210   32.0680   46.1470 O   0  0  0  0  0  0  0  0  0  0  0  0
   60.4130   33.3410   48.8610 C   0  0  0  0  0  0  0  0  0  0  0  0
   61.7190   33.7380   49.1600 C   0  0  0  0  0  0  0  0  0  0  0  0
   67.5688   28.6753   51.9199 H   0  0  0  0  0  0  0  0  0  0  0  0
   66.7939   28.1594   50.3836 H   0  0  0  0  0  0  0  0  0  0  0  0
   68.4983   28.7267   50.3836 H   0  0  0  0  0  0  0  0  0  0  0  0
   67.4326   29.8810   53.2727 H   0  0  0  0  0  0  0  0  0  0  0  0
   67.3819   31.7033   54.9699 H   0  0  0  0  0  0  0  0  0  0  0  0
   66.9589   34.0575   54.2701 H   0  0  0  0  0  0  0  0  0  0  0  0
   66.5869   34.5985   51.8667 H   0  0  0  0  0  0  0  0  0  0  0  0
   66.7138   33.9908   49.6237 H   0  0  0  0  0  0  0  0  0  0  0  0
   67.2552   32.3469   49.1183 H   0  0  0  0  0  0  0  0  0  0  0  0
   65.0580   31.8570   48.6240 H   0  0  0  0  0  0  0  0  0  0  0  0
   62.9946   30.7179   50.1363 H   0  0  0  0  0  0  0  0  0  0  0  0
   60.6678   30.0141   49.6009 H   0  0  0  0  0  0  0  0  0  0  0  0
   58.1608   31.1742   49.6524 H   0  0  0  0  0  0  0  0  0  0  0  0
   58.0350   32.4557   48.3898 H   0  0  0  0  0  0  0  0  0  0  0  0
   58.7748   25.3405   44.9769 H   0  0  0  0  0  0  0  0  0  0  0  0
   58.0258   27.5781   43.7973 H   0  0  0  0  0  0  0  0  0  0  0  0
   57.5809   31.3840   43.9674 H   0  0  0  0  0  0  0  0  0  0  0  0
   58.2896   29.8622   43.3106 H   0  0  0  0  0  0  0  0  0  0  0  0
   54.4090   29.3820   44.9190 H   0  0  0  0  0  0  0  0  0  0  0  0
   59.6841   34.0842   48.5056 H   0  0  0  0  0  0  0  0  0  0  0  0
   62.0092   34.7924   49.0418 H   0  0  0  0  0  0  0  0  0  0  0  0
  1  2  1  0
  2  3  1  0
  3  4  2  0
  4  5  1  0
  5  6  2  0
  6  7  1  0
  7  8  2  0
  8  9  1  0
  9 10  1  0
 10 11  1  0
 11 12  2  0
 11 13  1  0
 13 14  2  0
 14 15  1  0
 15 16  2  0
 16 17  1  0
 17 18  1  0
 18 19  1  0
 19 20  2  0
 19 21  1  0
 21 22  1  0
 22 23  1  0
 23 24  2  0
 24 25  1  0
 25 26  1  0
 26 27  1  0
 27 28  1  0
 28 29  1  0
 28 30  2  0
 26 31  1  0
 31 32  2  0
 16 33  1  0
 33 34  2  0
  8  3  1  0
 34 13  1  0
 31 18  1  0
 25 21  2  0
  1 35  1  0
  1 36  1  0
  1 37  1  0
  4 38  1  0
  5 39  1  0
  6 40  1  0
  7 41  1  0
  9 42  1  0
  9 43  1  0
 10 44  1  0
 14 45  1  0
 15 46  1  0
 17 47  1  0
 17 48  1  0
 23 49  1  0
 24 50  1  0
 27 51  1  0
 27 52  1  0
 29 53  1  0
 33 54  1  0
 34 55  1  0
M  CHG  1  29  -1
M  END
>  <UniqueID>  (8) 
7

>  <SMILES>  (8) 
COc1ccccc1CNC(=O)c1ccc(Cn2c(=O)c3sccc3n(CC([NH-])=O)c2=O)cc1

>  <Energy>  (8) 
97.32622803031705

>  <Genealogy>  (8) 
COc1ccccc1CNC(=O)c1ccc(Cn2c(=O)c3sccc3n(CC([NH-])=O)c2=O)cc1 (protonated)
COc1ccccc1CNC(=O)c1ccc(Cn2c(=O)c3sccc3n(CC([NH-])=O)c2=O)cc1 (3D coordinates assigned)
COc1ccccc1CNC(=O)c1ccc(Cn2c(=O)c3sccc3n(CC([NH-])=O)c2=O)cc1 (optimized conformer: 97.32622803031705 kcal/mol)

>  <smiles>  (8) 
COc1ccccc1CNC(=O)c1ccc(Cn2c(=O)c3sccc3n(CC(N)=O)c2=O)cc1

>  <score_type>  (8) 
oracle

>  <origin>  (8) 
adg

>  <m_score__min__energy>  (8) 
-11.050000000000001

>  <m_primary>  (8) 
energy

$$$$
8:0
     RDKit          3D

 47 48  0  0  0  0  0  0  0  0999 V2000
   59.0410   34.5830   44.8540 C   0  0  0  0  0  0  0  0  0  0  0  0
   59.2800   34.5840   46.3610 C   0  0  0  0  0  0  0  0  0  0  0  0
   58.1700   33.8280   47.0970 C   0  0  0  0  0  0  0  0  0  0  0  0
   58.4790   32.3640   47.1480 C   0  0  0  0  0  0  0  0  0  0  0  0
   59.1290   31.7410   48.1580 N   0  0  0  0  0  0  0  0  0  0  0  0
   59.1620   30.4320   47.9190 N   0  0  0  0  0  0  0  0  0  0  0  0
   59.7610   29.4650   48.8280 C   0  0  0  0  0  0  0  0  0  0  0  0
   58.5050   30.2000   46.7580 C   0  0  0  0  0  0  0  0  0  0  0  0
   58.2090   29.0200   46.0610 C   0  0  0  0  0  0  0  0  0  0  0  0
   58.5870   27.7110   46.5200 N   0  0  0  0  0  0  0  0  0  0  0  0
   59.8660   27.1830   46.0150 C   0  0  0  0  0  0  0  0  0  0  0  0
   60.6150   28.2490   45.2250 C   0  0  0  0  0  0  0  0  0  0  0  0
   57.4850   26.7970   46.8700 C   0  0  0  0  0  0  0  0  0  0  0  0
   56.6730   26.3120   45.6600 C   0  0  0  0  0  0  0  0  0  0  0  0
   55.3150   26.1600   46.0090 O   0  0  0  0  0  0  0  0  0  0  0  0
   54.8720   24.8780   45.6270 C   0  0  0  0  0  0  0  0  0  0  0  0
   57.4940   29.1440   44.9010 N   0  0  0  0  0  0  0  0  0  0  0  0
   57.0840   30.3610   44.4210 C   0  0  0  0  0  0  0  0  0  0  0  0
   56.2730   30.4310   43.1710 C   0  0  0  0  0  0  0  0  0  0  0  0
   57.3630   31.5040   45.1160 N   0  0  0  0  0  0  0  0  0  0  0  0
   58.0740   31.3940   46.2600 C   0  0  0  0  0  0  0  0  0  0  0  0
   57.9593   34.5785   44.6543 H   0  0  0  0  0  0  0  0  0  0  0  0
   59.4920   35.4830   44.4106 H   0  0  0  0  0  0  0  0  0  0  0  0
   59.4995   33.6868   44.4106 H   0  0  0  0  0  0  0  0  0  0  0  0
   60.2449   34.0998   46.5718 H   0  0  0  0  0  0  0  0  0  0  0  0
   59.2847   35.6262   46.7128 H   0  0  0  0  0  0  0  0  0  0  0  0
   58.0859   34.2164   48.1227 H   0  0  0  0  0  0  0  0  0  0  0  0
   57.2221   33.9735   46.5581 H   0  0  0  0  0  0  0  0  0  0  0  0
   59.5300   32.2040   49.0040 H   0  0  0  0  0  0  0  0  0  0  0  0
   59.5709   29.7719   49.8671 H   0  0  0  0  0  0  0  0  0  0  0  0
   59.3188   28.4733   48.6518 H   0  0  0  0  0  0  0  0  0  0  0  0
   60.8458   29.4193   48.6518 H   0  0  0  0  0  0  0  0  0  0  0  0
   60.4853   26.8624   46.8657 H   0  0  0  0  0  0  0  0  0  0  0  0
   59.6590   26.3310   45.3507 H   0  0  0  0  0  0  0  0  0  0  0  0
   61.1044   28.9455   45.9217 H   0  0  0  0  0  0  0  0  0  0  0  0
   61.3756   27.7692   44.5915 H   0  0  0  0  0  0  0  0  0  0  0  0
   59.9058   28.8019   44.5915 H   0  0  0  0  0  0  0  0  0  0  0  0
   57.9110   25.9183   47.3764 H   0  0  0  0  0  0  0  0  0  0  0  0
   56.7940   27.3607   47.5140 H   0  0  0  0  0  0  0  0  0  0  0  0
   56.7583   27.0485   44.8474 H   0  0  0  0  0  0  0  0  0  0  0  0
   57.0682   25.3395   45.3313 H   0  0  0  0  0  0  0  0  0  0  0  0
   54.6649   24.2787   46.5259 H   0  0  0  0  0  0  0  0  0  0  0  0
   53.9537   24.9706   45.0285 H   0  0  0  0  0  0  0  0  0  0  0  0
   55.6515   24.3839   45.0285 H   0  0  0  0  0  0  0  0  0  0  0  0
   55.2078   30.5229   43.4297 H   0  0  0  0  0  0  0  0  0  0  0  0
   56.5838   31.3057   42.5808 H   0  0  0  0  0  0  0  0  0  0  0  0
   56.4293   29.5160   42.5808 H   0  0  0  0  0  0  0  0  0  0  0  0
  1  2  1  0
  2  3  1  0
  3  4  1  0
  4  5  2  0
  5  6  1  0
  6  7  1  0
  6  8  1  0
  8  9  2  0
  9 10  1  0
 10 11  1  0
 11 12  1  0
 10 13  1  0
 13 14  1  0
 14 15  1  0
 15 16  1  0
  9 17  1  0
 17 18  2  0
 18 19  1  0
 18 20  1  0
 20 21  2  0
 21  4  1  0
 21  8  1  0
  1 22  1  0
  1 23  1  0
  1 24  1  0
  2 25  1  0
  2 26  1  0
  3 27  1  0
  3 28  1  0
  5 29  1  0
  7 30  1  0
  7 31  1  0
  7 32  1  0
 11 33  1  0
 11 34  1  0
 12 35  1  0
 12 36  1  0
 12 37  1  0
 13 38  1  0
 13 39  1  0
 14 40  1  0
 14 41  1  0
 16 42  1  0
 16 43  1  0
 16 44  1  0
 19 45  1  0
 19 46  1  0
 19 47  1  0
M  CHG  1   5   1
M  END
>  <UniqueID>  (9) 
8

>  <SMILES>  (9) 
CCCc1[nH+]n(C)c2c(N(CC)CCOC)nc(C)nc12

>  <Energy>  (9) 
84.56169696501922

>  <Genealogy>  (9) 
CCCc1[nH+]n(C)c2c(N(CC)CCOC)nc(C)nc12 (protonated)
CCCc1[nH+]n(C)c2c(N(CC)CCOC)nc(C)nc12 (3D coordinates assigned)
CCCc1[nH+]n(C)c2c(N(CC)CCOC)nc(C)nc12 (optimized conformer: 84.56169696501922 kcal/mol)

>  <smiles>  (9) 
CCCc1nn(C)c2c(N(CC)CCOC)nc(C)nc12

>  <score_type>  (9) 
oracle

>  <origin>  (9) 
adg

>  <m_score__min__energy>  (9) 
-5.1500000000000004

>  <m_primary>  (9) 
energy

$$$$
9:0
     RDKit          3D

 51 54  0  0  0  0  0  0  0  0999 V2000
   55.3780   29.6590   43.4790 O   0  0  0  0  0  0  0  0  0  0  0  0
   56.1840   29.6200   44.4460 C   0  0  0  0  0  0  0  0  0  0  0  0
   56.2710   28.4120   45.2140 N   0  0  0  0  0  0  0  0  0  0  0  0
   57.4620   27.5890   45.4180 C   0  0  0  0  0  0  0  0  0  0  0  0
   58.7270   28.3180   44.9400 C   0  0  0  0  0  0  0  0  0  0  0  0
   59.6560   28.5920   46.0610 N   0  0  0  0  0  0  0  0  0  0  0  0
   58.9840   28.4600   47.3830 C   0  0  0  0  0  0  0  0  0  0  0  0
   58.7160   29.8040   48.0710 C   0  0  0  0  0  0  0  0  0  0  0  0
   59.9680   30.5610   48.1980 N   0  0  0  0  0  0  0  0  0  0  0  0
   60.1700   31.4810   49.2960 C   0  0  0  0  0  0  0  0  0  0  0  0
   59.1640   31.6800   50.2590 C   0  0  0  0  0  0  0  0  0  0  0  0
   59.3660   32.5600   51.3250 C   0  0  0  0  0  0  0  0  0  0  0  0
   60.5660   33.2630   51.4380 C   0  0  0  0  0  0  0  0  0  0  0  0
   61.5760   33.1050   50.4730 C   0  0  0  0  0  0  0  0  0  0  0  0
   62.8910   33.8290   50.6150 C   0  0  0  0  0  0  0  0  0  0  0  0
   62.9020   34.9860   49.8550 F   0  0  0  0  0  0  0  0  0  0  0  0
   63.9360   33.0250   50.1910 F   0  0  0  0  0  0  0  0  0  0  0  0
   63.0870   34.1620   51.9440 F   0  0  0  0  0  0  0  0  0  0  0  0
   61.3790   32.1940   49.4210 C   0  0  0  0  0  0  0  0  0  0  0  0
   61.0010   30.3940   47.1680 C   0  0  0  0  0  0  0  0  0  0  0  0
   60.3790   29.8750   45.8680 C   0  0  0  0  0  0  0  0  0  0  0  0
   57.0000   30.8150   44.7420 C   0  0  0  0  0  0  0  0  0  0  0  0
   57.4650   31.7230   43.7900 C   0  0  0  0  0  0  0  0  0  0  0  0
   58.1580   32.6600   44.5210 C   0  0  0  0  0  0  0  0  0  0  0  0
   58.8310   33.8120   44.1230 C   0  0  0  0  0  0  0  0  0  0  0  0
   59.4470   34.5850   45.1240 C   0  0  0  0  0  0  0  0  0  0  0  0
   59.3770   34.1900   46.4800 C   0  0  0  0  0  0  0  0  0  0  0  0
   58.6880   33.0200   46.8460 C   0  0  0  0  0  0  0  0  0  0  0  0
   58.0860   32.2780   45.8340 C   0  0  0  0  0  0  0  0  0  0  0  0
   57.3930   31.1730   45.9520 O   0  0  0  0  0  0  0  0  0  0  0  0
   57.5620   27.3612   46.4895 H   0  0  0  0  0  0  0  0  0  0  0  0
   57.3509   26.6632   44.8344 H   0  0  0  0  0  0  0  0  0  0  0  0
   59.2405   27.6911   44.1961 H   0  0  0  0  0  0  0  0  0  0  0  0
   58.4242   29.2803   44.5016 H   0  0  0  0  0  0  0  0  0  0  0  0
   58.0223   27.9470   47.2348 H   0  0  0  0  0  0  0  0  0  0  0  0
   59.6638   27.8927   48.0358 H   0  0  0  0  0  0  0  0  0  0  0  0
   57.9989   30.3837   47.4713 H   0  0  0  0  0  0  0  0  0  0  0  0
   58.3014   29.6206   49.0732 H   0  0  0  0  0  0  0  0  0  0  0  0
   58.2106   31.1383   50.1719 H   0  0  0  0  0  0  0  0  0  0  0  0
   58.5763   32.6992   52.0780 H   0  0  0  0  0  0  0  0  0  0  0  0
   60.7226   33.9447   52.2870 H   0  0  0  0  0  0  0  0  0  0  0  0
   62.1804   32.0353   48.6844 H   0  0  0  0  0  0  0  0  0  0  0  0
   61.4830   31.3642   46.9772 H   0  0  0  0  0  0  0  0  0  0  0  0
   61.7451   29.6660   47.5233 H   0  0  0  0  0  0  0  0  0  0  0  0
   59.6704   30.6268   45.4903 H   0  0  0  0  0  0  0  0  0  0  0  0
   61.1953   29.6965   45.1526 H   0  0  0  0  0  0  0  0  0  0  0  0
   57.3120   31.6958   42.7010 H   0  0  0  0  0  0  0  0  0  0  0  0
   58.8793   34.1070   43.0644 H   0  0  0  0  0  0  0  0  0  0  0  0
   59.9870   35.5033   44.8499 H   0  0  0  0  0  0  0  0  0  0  0  0
   59.8645   34.8017   47.2533 H   0  0  0  0  0  0  0  0  0  0  0  0
   58.6269   32.7018   47.8972 H   0  0  0  0  0  0  0  0  0  0  0  0
  1  2  2  0
  2  3  1  0
  3  4  1  0
  4  5  1  0
  5  6  1  0
  6  7  1  0
  7  8  1  0
  8  9  1  0
  9 10  1  0
 10 11  2  0
 11 12  1  0
 12 13  2  0
 13 14  1  0
 14 15  1  0
 15 16  1  0
 15 17  1  0
 15 18  1  0
 14 19  2  0
  9 20  1  0
 20 21  1  0
  2 22  1  0
 22 23  2  0
 23 24  1  0
 24 25  2  0
 25 26  1  0
 26 27  2  0
 27 28  1  0
 28 29  2  0
 29 30  1  0
 21  6  1  0
 30 22  1  0
 19 10  1  0
 29 24  1  0
  4 31  1  0
  4 32  1  0
  5 33  1  0
  5 34  1  0
  7 35  1  0
  7 36  1  0
  8 37  1  0
  8 38  1  0
 11 39  1  0
 12 40  1  0
 13 41  1  0
 19 42  1  0
 20 43  1  0
 20 44  1  0
 21 45  1  0
 21 46  1  0
 23 47  1  0
 25 48  1  0
 26 49  1  0
 27 50  1  0
 28 51  1  0
M  CHG  1   3  -1
M  END
>  <UniqueID>  (10) 
9

>  <SMILES>  (10) 
O=C([N-]CCN1CCN(c2cccc(C(F)(F)F)c2)CC1)c1cc2ccccc2o1

>  <Energy>  (10) 
97.92495867069312

>  <Genealogy>  (10) 
O=C([N-]CCN1CCN(c2cccc(C(F)(F)F)c2)CC1)c1cc2ccccc2o1 (protonated)
O=C([N-]CCN1CCN(c2cccc(C(F)(F)F)c2)CC1)c1cc2ccccc2o1 (3D coordinates assigned)
O=C([N-]CCN1CCN(c2cccc(C(F)(F)F)c2)CC1)c1cc2ccccc2o1 (nonaromatic ring conformer: 97.92495867069312 kcal/mol)

>  <smiles>  (10) 
O=C(NCCN1CCN(c2cccc(C(F)(F)F)c2)CC1)c1cc2ccccc2o1

>  <score_type>  (10) 
oracle

>  <origin>  (10) 
adg

>  <m_score__min__energy>  (10) 
-10.24

>  <m_primary>  (10) 
energy

$$$$
10:0
     RDKit          3D

 49 51  0  0  0  0  0  0  0  0999 V2000
   62.4210   33.0910   47.0960 C   0  0  0  0  0  0  0  0  0  0  0  0
   61.3670   34.1670   47.3460 C   0  0  0  0  0  0  0  0  0  0  0  0
   60.0660   33.7670   46.7620 N   0  0  0  0  0  0  0  0  0  0  0  0
   59.4540   34.9120   46.0450 C   0  0  0  0  0  0  0  0  0  0  0  0
   58.4410   34.4500   44.9980 C   0  0  0  0  0  0  0  0  0  0  0  0
   59.1580   33.2200   47.8030 C   0  0  0  0  0  0  0  0  0  0  0  0
   58.9200   31.7590   47.5690 C   0  0  0  0  0  0  0  0  0  0  0  0
   58.5210   31.0370   48.5230 O   0  0  0  0  0  0  0  0  0  0  0  0
   59.2230   31.1740   46.2930 N   0  0  0  0  0  0  0  0  0  0  0  0
   58.9330   29.8060   45.9650 C   0  0  0  0  0  0  0  0  0  0  0  0
   59.8780   28.8210   46.2760 C   0  0  0  0  0  0  0  0  0  0  0  0
   59.6360   27.4820   45.9710 C   0  0  0  0  0  0  0  0  0  0  0  0
   58.4460   27.0990   45.3320 C   0  0  0  0  0  0  0  0  0  0  0  0
   58.1990   25.6720   45.0170 C   0  0  0  0  0  0  0  0  0  0  0  0
   57.3840   25.2650   44.0090 N   0  0  0  0  0  0  0  0  0  0  0  0
   57.3300   23.9110   43.9290 C   0  0  0  0  0  0  0  0  0  0  0  0
   56.5750   23.2050   42.9920 C   0  0  0  0  0  0  0  0  0  0  0  0
   56.6080   21.8000   43.0190 C   0  0  0  0  0  0  0  0  0  0  0  0
   57.3900   21.1210   43.9750 C   0  0  0  0  0  0  0  0  0  0  0  0
   58.1460   21.8420   44.9140 C   0  0  0  0  0  0  0  0  0  0  0  0
   58.0950   23.2340   44.8640 C   0  0  0  0  0  0  0  0  0  0  0  0
   58.8780   24.3490   45.8400 S   0  0  0  0  0  0  0  0  0  0  0  0
   57.5080   28.0900   44.9900 C   0  0  0  0  0  0  0  0  0  0  0  0
   57.7490   29.4470   45.2890 C   0  0  0  0  0  0  0  0  0  0  0  0
   56.8510   30.4570   44.9080 O   0  0  0  0  0  0  0  0  0  0  0  0
   57.0220   31.3160   43.7860 C   0  0  0  0  0  0  0  0  0  0  0  0
   62.7929   32.7113   48.0591 H   0  0  0  0  0  0  0  0  0  0  0  0
   61.9731   32.2648   46.5244 H   0  0  0  0  0  0  0  0  0  0  0  0
   63.2563   33.5217   46.5244 H   0  0  0  0  0  0  0  0  0  0  0  0
   61.2477   34.3115   48.4299 H   0  0  0  0  0  0  0  0  0  0  0  0
   61.6961   35.1033   46.8716 H   0  0  0  0  0  0  0  0  0  0  0  0
   58.9427   35.5570   46.7748 H   0  0  0  0  0  0  0  0  0  0  0  0
   60.2556   35.4591   45.5272 H   0  0  0  0  0  0  0  0  0  0  0  0
   57.5516   34.0444   45.5023 H   0  0  0  0  0  0  0  0  0  0  0  0
   58.1485   35.3037   44.3691 H   0  0  0  0  0  0  0  0  0  0  0  0
   58.8939   33.6694   44.3691 H   0  0  0  0  0  0  0  0  0  0  0  0
   59.6158   33.3591   48.7935 H   0  0  0  0  0  0  0  0  0  0  0  0
   58.1963   33.7518   47.7547 H   0  0  0  0  0  0  0  0  0  0  0  0
   59.8190   31.7200   45.6330 H   0  0  0  0  0  0  0  0  0  0  0  0
   60.8207   29.1061   46.7658 H   0  0  0  0  0  0  0  0  0  0  0  0
   60.3839   26.7192   46.2333 H   0  0  0  0  0  0  0  0  0  0  0  0
   55.9658   23.7374   42.2467 H   0  0  0  0  0  0  0  0  0  0  0  0
   56.0190   21.2261   42.2885 H   0  0  0  0  0  0  0  0  0  0  0  0
   57.4084   20.0212   43.9858 H   0  0  0  0  0  0  0  0  0  0  0  0
   58.7595   21.3239   45.6658 H   0  0  0  0  0  0  0  0  0  0  0  0
   56.5749   27.8029   44.4831 H   0  0  0  0  0  0  0  0  0  0  0  0
   57.2257   32.3391   44.1351 H   0  0  0  0  0  0  0  0  0  0  0  0
   57.8671   30.9610   43.1779 H   0  0  0  0  0  0  0  0  0  0  0  0
   56.1054   31.3117   43.1779 H   0  0  0  0  0  0  0  0  0  0  0  0
  1  2  1  0
  2  3  1  0
  3  4  1  0
  4  5  1  0
  3  6  1  0
  6  7  1  0
  7  8  2  0
  7  9  1  0
  9 10  1  0
 10 11  2  0
 11 12  1  0
 12 13  2  0
 13 14  1  0
 14 15  2  0
 15 16  1  0
 16 17  2  0
 17 18  1  0
 18 19  2  0
 19 20  1  0
 20 21  2  0
 21 22  1  0
 13 23  1  0
 23 24  2  0
 24 25  1  0
 25 26  1  0
 24 10  1  0
 22 14  1  0
 21 16  1  0
  1 27  1  0
  1 28  1  0
  1 29  1  0
  2 30  1  0
  2 31  1  0
  4 32  1  0
  4 33  1  0
  5 34  1  0
  5 35  1  0
  5 36  1  0
  6 37  1  0
  6 38  1  0
  9 39  1  0
 11 40  1  0
 12 41  1  0
 17 42  1  0
 18 43  1  0
 19 44  1  0
 20 45  1  0
 23 46  1  0
 26 47  1  0
 26 48  1  0
 26 49  1  0
M  END
>  <UniqueID>  (11) 
10

>  <SMILES>  (11) 
CCN(CC)CC(=O)Nc1ccc(-c2nc3ccccc3s2)cc1OC

>  <Energy>  (11) 
88.1054705364057

>  <Genealogy>  (11) 
CCN(CC)CC(=O)Nc1ccc(-c2nc3ccccc3s2)cc1OC (3D coordinates assigned)
CCN(CC)CC(=O)Nc1ccc(-c2nc3ccccc3s2)cc1OC (optimized conformer: 88.1054705364057 kcal/mol)

>  <smiles>  (11) 
CCN(CC)CC(=O)Nc1ccc(-c2nc3ccccc3s2)cc1OC

>  <score_type>  (11) 
oracle

>  <origin>  (11) 
adg

>  <m_score__min__energy>  (11) 
-7.96

>  <m_primary>  (11) 
energy

$$$$
11:0
     RDKit          3D

 56 58  0  0  0  0  0  0  0  0999 V2000
   58.6430   31.8400   50.3730 C   0  0  0  0  0  0  0  0  0  0  0  0
   59.8190   32.3830   49.6250 C   0  0  0  0  0  0  0  0  0  0  0  0
   60.5710   33.4160   50.0470 N   0  0  0  0  0  0  0  0  0  0  0  0
   61.5940   33.5640   49.2200 N   0  0  0  0  0  0  0  0  0  0  0  0
   62.6500   34.5560   49.3970 C   0  0  0  0  0  0  0  0  0  0  0  0
   61.5150   32.6300   48.2450 C   0  0  0  0  0  0  0  0  0  0  0  0
   62.5630   32.3850   47.1990 C   0  0  0  0  0  0  0  0  0  0  0  0
   60.3880   31.8500   48.4770 C   0  0  0  0  0  0  0  0  0  0  0  0
   59.9900   30.5860   47.7670 C   0  0  0  0  0  0  0  0  0  0  0  0
   58.5250   30.6510   47.3340 C   0  0  0  0  0  0  0  0  0  0  0  0
   58.4190   30.3170   45.8930 N   0  0  0  0  0  0  0  0  0  0  0  0
   58.7350   31.4560   45.0050 C   0  0  0  0  0  0  0  0  0  0  0  0
   57.4540   32.0830   44.4320 C   0  0  0  0  0  0  0  0  0  0  0  0
   56.9790   33.2800   45.2650 C   0  0  0  0  0  0  0  0  0  0  0  0
   58.1160   34.0290   45.7990 N   0  0  0  0  0  0  0  0  0  0  0  0
   59.0930   34.6260   45.0980 C   0  0  0  0  0  0  0  0  0  0  0  0
   59.9920   35.1550   45.9970 C   0  0  0  0  0  0  0  0  0  0  0  0
   59.5860   34.8860   47.2560 N   0  0  0  0  0  0  0  0  0  0  0  0
   58.4370   34.1950   47.0970 C   0  0  0  0  0  0  0  0  0  0  0  0
   59.1510   29.0810   45.5240 C   0  0  0  0  0  0  0  0  0  0  0  0
   58.3590   27.8060   45.7500 C   0  0  0  0  0  0  0  0  0  0  0  0
   59.0190   26.5840   45.9660 C   0  0  0  0  0  0  0  0  0  0  0  0
   58.2870   25.4100   46.1680 C   0  0  0  0  0  0  0  0  0  0  0  0
   56.8910   25.4460   46.1700 C   0  0  0  0  0  0  0  0  0  0  0  0
   56.2230   26.6590   45.9810 C   0  0  0  0  0  0  0  0  0  0  0  0
   54.8350   26.6960   45.9970 O   0  0  0  0  0  0  0  0  0  0  0  0
   56.9520   27.8360   45.7810 C   0  0  0  0  0  0  0  0  0  0  0  0
   58.8256   31.9243   51.4545 H   0  0  0  0  0  0  0  0  0  0  0  0
   57.7428   32.4136   50.1073 H   0  0  0  0  0  0  0  0  0  0  0  0
   58.4958   30.7828   50.1073 H   0  0  0  0  0  0  0  0  0  0  0  0
   60.4090   33.9880   50.9070 H   0  0  0  0  0  0  0  0  0  0  0  0
   62.8236   34.7191   50.4709 H   0  0  0  0  0  0  0  0  0  0  0  0
   63.5760   34.1936   48.9267 H   0  0  0  0  0  0  0  0  0  0  0  0
   62.3462   35.5029   48.9267 H   0  0  0  0  0  0  0  0  0  0  0  0
   63.5229   32.1606   47.6872 H   0  0  0  0  0  0  0  0  0  0  0  0
   62.2627   31.5328   46.5716 H   0  0  0  0  0  0  0  0  0  0  0  0
   62.6716   33.2820   46.5716 H   0  0  0  0  0  0  0  0  0  0  0  0
   60.6244   30.4556   46.8779 H   0  0  0  0  0  0  0  0  0  0  0  0
   60.1195   29.7371   48.4544 H   0  0  0  0  0  0  0  0  0  0  0  0
   57.9369   29.9305   47.9214 H   0  0  0  0  0  0  0  0  0  0  0  0
   58.1376   31.6664   47.5040 H   0  0  0  0  0  0  0  0  0  0  0  0
   59.2822   32.2181   45.5792 H   0  0  0  0  0  0  0  0  0  0  0  0
   59.3478   31.0877   44.1691 H   0  0  0  0  0  0  0  0  0  0  0  0
   57.6531   32.4217   43.4046 H   0  0  0  0  0  0  0  0  0  0  0  0
   56.6628   31.3190   44.4523 H   0  0  0  0  0  0  0  0  0  0  0  0
   56.3766   33.9451   44.6287 H   0  0  0  0  0  0  0  0  0  0  0  0
   56.3784   32.9056   46.1071 H   0  0  0  0  0  0  0  0  0  0  0  0
   59.1629   34.6825   44.0017 H   0  0  0  0  0  0  0  0  0  0  0  0
   60.9022   35.7119   45.7299 H   0  0  0  0  0  0  0  0  0  0  0  0
   57.8321   33.8114   47.9318 H   0  0  0  0  0  0  0  0  0  0  0  0
   59.4151   29.1402   44.4578 H   0  0  0  0  0  0  0  0  0  0  0  0
   60.0353   29.0272   46.1760 H   0  0  0  0  0  0  0  0  0  0  0  0
   60.1185   26.5511   45.9762 H   0  0  0  0  0  0  0  0  0  0  0  0
   58.8118   24.4562   46.3256 H   0  0  0  0  0  0  0  0  0  0  0  0
   56.3171   24.5197   46.3203 H   0  0  0  0  0  0  0  0  0  0  0  0
   56.4225   28.7908   45.6471 H   0  0  0  0  0  0  0  0  0  0  0  0
  1  2  1  0
  2  3  2  0
  3  4  1  0
  4  5  1  0
  4  6  1  0
  6  7  1  0
  6  8  2  0
  8  9  1  0
  9 10  1  0
 10 11  1  0
 11 12  1  0
 12 13  1  0
 13 14  1  0
 14 15  1  0
 15 16  1  0
 16 17  2  0
 17 18  1  0
 18 19  2  0
 11 20  1  0
 20 21  1  0
 21 22  2  0
 22 23  1  0
 23 24  2  0
 24 25  1  0
 25 26  1  0
 25 27  2  0
  8  2  1  0
 19 15  1  0
 27 21  1  0
  1 28  1  0
  1 29  1  0
  1 30  1  0
  3 31  1  0
  5 32  1  0
  5 33  1  0
  5 34  1  0
  7 35  1  0
  7 36  1  0
  7 37  1  0
  9 38  1  0
  9 39  1  0
 10 40  1  0
 10 41  1  0
 12 42  1  0
 12 43  1  0
 13 44  1  0
 13 45  1  0
 14 46  1  0
 14 47  1  0
 16 48  1  0
 17 49  1  0
 19 50  1  0
 20 51  1  0
 20 52  1  0
 22 53  1  0
 23 54  1  0
 24 55  1  0
 27 56  1  0
M  CHG  2   3   1  26  -1
M  END
>  <UniqueID>  (12) 
11

>  <SMILES>  (12) 
Cc1[nH+]n(C)c(C)c1CCN(CCCn1ccnc1)Cc1cccc([O-])c1

>  <Energy>  (12) 
111.31969029046525

>  <Genealogy>  (12) 
Cc1[nH+]n(C)c(C)c1CCN(CCCn1ccnc1)Cc1cccc([O-])c1 (protonated)
Cc1[nH+]n(C)c(C)c1CCN(CCCn1ccnc1)Cc1cccc([O-])c1 (3D coordinates assigned)
Cc1[nH+]n(C)c(C)c1CCN(CCCn1ccnc1)Cc1cccc([O-])c1 (optimized conformer: 111.31969029046525 kcal/mol)

>  <smiles>  (12) 
Cc1nn(C)c(C)c1CCN(CCCn1ccnc1)Cc1cccc(O)c1

>  <score_type>  (12) 
oracle

>  <origin>  (12) 
adg

>  <m_score__min__energy>  (12) 
-10.33

>  <m_primary>  (12) 
energy

$$$$
12:0
     RDKit          3D

 36 36  0  0  0  0  0  0  0  0999 V2000
   65.0435   32.7644   48.6722 H   0  0  0  0  0  0  0  0  0  0  0  0
   64.0410   33.1390   48.4180 C   0  0  0  0  0  0  0  0  0  0  0  0
   63.5830   33.0710   47.1000 C   0  0  0  0  0  0  0  0  0  0  0  0
   64.2266   32.6446   46.3165 H   0  0  0  0  0  0  0  0  0  0  0  0
   62.3080   33.5440   46.7750 C   0  0  0  0  0  0  0  0  0  0  0  0
   61.9542   33.4936   45.7347 H   0  0  0  0  0  0  0  0  0  0  0  0
   61.4740   34.0850   47.7740 C   0  0  0  0  0  0  0  0  0  0  0  0
   60.1620   34.5900   47.4680 N   0  0  0  0  0  0  0  0  0  0  0  0
   59.9310   35.5730   47.7350 H   0  0  0  0  0  0  0  0  0  0  0  0
   59.2140   33.8870   46.6530 C   0  0  0  0  0  0  0  0  0  0  0  0
   58.7810   34.5720   45.0530 S   0  0  0  0  0  0  0  0  0  0  0  0
   57.2670   33.5640   44.8910 C   0  0  0  0  0  0  0  0  0  0  0  0
   56.8820   33.3317   45.8949 H   0  0  0  0  0  0  0  0  0  0  0  0
   56.5273   34.1384   44.3140 H   0  0  0  0  0  0  0  0  0  0  0  0
   57.5490   32.2490   44.1460 C   0  0  0  0  0  0  0  0  0  0  0  0
   57.0716   32.2914   43.1559 H   0  0  0  0  0  0  0  0  0  0  0  0
   58.6393   32.1349   44.0549 H   0  0  0  0  0  0  0  0  0  0  0  0
   57.0240   31.0770   44.8810 N   0  0  0  0  0  0  0  0  0  0  0  0
   55.9590   30.3990   44.1220 C   0  0  0  0  0  0  0  0  0  0  0  0
   55.2432   29.9433   44.8219 H   0  0  0  0  0  0  0  0  0  0  0  0
   55.4370   31.1314   43.4887 H   0  0  0  0  0  0  0  0  0  0  0  0
   56.4016   29.6161   43.4887 H   0  0  0  0  0  0  0  0  0  0  0  0
   58.1160   30.1240   45.1460 C   0  0  0  0  0  0  0  0  0  0  0  0
   58.2472   30.0095   46.2321 H   0  0  0  0  0  0  0  0  0  0  0  0
   57.8675   29.1488   44.7019 H   0  0  0  0  0  0  0  0  0  0  0  0
   59.0486   30.5022   44.7019 H   0  0  0  0  0  0  0  0  0  0  0  0
   58.6300   32.7980   47.0690 N   0  0  0  0  0  0  0  0  0  0  0  0
   58.1570   32.1800   46.3710 H   0  0  0  0  0  0  0  0  0  0  0  0
   58.5290   32.4290   48.4790 C   0  0  0  0  0  0  0  0  0  0  0  0
   58.7679   33.3018   49.1044 H   0  0  0  0  0  0  0  0  0  0  0  0
   57.5052   32.0908   48.6971 H   0  0  0  0  0  0  0  0  0  0  0  0
   59.2378   31.6166   48.6971 H   0  0  0  0  0  0  0  0  0  0  0  0
   61.9490   34.1570   49.0930 C   0  0  0  0  0  0  0  0  0  0  0  0
   61.3133   34.5891   49.8799 H   0  0  0  0  0  0  0  0  0  0  0  0
   63.2250   33.6830   49.4130 C   0  0  0  0  0  0  0  0  0  0  0  0
   63.5870   33.7385   50.4502 H   0  0  0  0  0  0  0  0  0  0  0  0
  1  2  1  0
  2  3  2  0
  3  4  1  0
  3  5  1  0
  5  6  1  0
  5  7  2  0
  7  8  1  0
  8  9  1  0
  8 10  1  0
 10 11  1  0
 11 12  1  0
 12 13  1  0
 12 14  1  0
 12 15  1  0
 15 16  1  0
 15 17  1  0
 15 18  1  0
 18 19  1  0
 19 20  1  0
 19 21  1  0
 19 22  1  0
 18 23  1  0
 23 24  1  0
 23 25  1  0
 23 26  1  0
 10 27  2  0
 27 28  1  0
 27 29  1  0
 29 30  1  0
 29 31  1  0
 29 32  1  0
  7 33  1  0
 33 34  1  0
 33 35  2  0
 35 36  1  0
 35  2  1  0
M  CHG  1  27   1
M  END
>  <UniqueID>  (13) 
12

>  <SMILES>  (13) 
C/[NH+]=C(\Nc1ccccc1)SCCN(C)C

>  <Energy>  (13) 
35.43688012597981

>  <Genealogy>  (13) 
C[NH+]=C(Nc1ccccc1)SCCN(C)C (protonated)
C/[NH+]=C(\Nc1ccccc1)SCCN(C)C (cis-trans isomerization)
C/[NH+]=C(\Nc1ccccc1)SCCN(C)C (3D coordinates assigned)
C/[NH+]=C(\Nc1ccccc1)SCCN(C)C (optimized conformer: 35.43688012597981 kcal/mol)

>  <smiles>  (13) 
CN=C(Nc1ccccc1)SCCN(C)C

>  <score_type>  (13) 
oracle

>  <origin>  (13) 
adg

>  <m_score__min__energy>  (13) 
-4.4400000000000004

>  <m_primary>  (13) 
energy

$$$$
13:0
     RDKit          3D

 51 54  0  0  0  0  0  0  0  0999 V2000
   65.9920   32.9670   50.2870 C   0  0  0  0  0  0  0  0  0  0  0  0
   65.0100   33.4660   49.3830 O   0  0  0  0  0  0  0  0  0  0  0  0
   63.9430   32.7090   48.8770 C   0  0  0  0  0  0  0  0  0  0  0  0
   63.3790   31.7260   49.6960 C   0  0  0  0  0  0  0  0  0  0  0  0
   62.3140   30.9430   49.2410 C   0  0  0  0  0  0  0  0  0  0  0  0
   61.7870   31.1340   47.9490 C   0  0  0  0  0  0  0  0  0  0  0  0
   60.6800   30.3430   47.4610 N   0  0  0  0  0  0  0  0  0  0  0  0
   60.3450   30.1080   46.1660 C   0  0  0  0  0  0  0  0  0  0  0  0
   59.2520   29.2740   46.1750 C   0  0  0  0  0  0  0  0  0  0  0  0
   58.9980   29.0140   47.4620 C   0  0  0  0  0  0  0  0  0  0  0  0
   59.8870   29.6310   48.2580 N   0  0  0  0  0  0  0  0  0  0  0  0
   58.2840   27.7430   47.6700 C   0  0  0  0  0  0  0  0  0  0  0  0
   57.9580   27.3040   46.2200 C   0  0  0  0  0  0  0  0  0  0  0  0
   58.7720   28.2200   45.2520 C   0  0  1  0  0  0  0  0  0  0  0  0
   57.9400   28.8240   44.1030 C   0  0  0  0  0  0  0  0  0  0  0  0
   56.6500   29.3380   44.5890 N   0  0  0  0  0  0  0  0  0  0  0  0
   56.1820   30.4880   43.8020 C   0  0  0  0  0  0  0  0  0  0  0  0
   57.3660   31.3690   43.3960 C   0  0  0  0  0  0  0  0  0  0  0  0
   57.8120   32.2210   44.5540 C   0  0  0  0  0  0  0  0  0  0  0  0
   58.4810   33.4340   44.3250 C   0  0  0  0  0  0  0  0  0  0  0  0
   58.8580   34.2250   45.4110 C   0  0  0  0  0  0  0  0  0  0  0  0
   58.5630   33.8090   46.7090 C   0  0  0  0  0  0  0  0  0  0  0  0
   57.8860   32.6030   46.9020 C   0  0  0  0  0  0  0  0  0  0  0  0
   57.5230   31.8410   45.8340 N   0  0  0  0  0  0  0  0  0  0  0  0
   62.3570   32.1240   47.1290 C   0  0  0  0  0  0  0  0  0  0  0  0
   63.4250   32.9020   47.5850 C   0  0  0  0  0  0  0  0  0  0  0  0
   65.6581   33.1367   51.3213 H   0  0  0  0  0  0  0  0  0  0  0  0
   66.1311   31.8889   50.1188 H   0  0  0  0  0  0  0  0  0  0  0  0
   66.9448   33.4903   50.1188 H   0  0  0  0  0  0  0  0  0  0  0  0
   63.7775   31.5671   50.7089 H   0  0  0  0  0  0  0  0  0  0  0  0
   61.8843   30.1718   49.8972 H   0  0  0  0  0  0  0  0  0  0  0  0
   60.8529   30.5096   45.2767 H   0  0  0  0  0  0  0  0  0  0  0  0
   58.9243   27.0048   48.1750 H   0  0  0  0  0  0  0  0  0  0  0  0
   57.3952   27.8377   48.3111 H   0  0  0  0  0  0  0  0  0  0  0  0
   58.2471   26.2529   46.0729 H   0  0  0  0  0  0  0  0  0  0  0  0
   56.8798   27.3969   46.0226 H   0  0  0  0  0  0  0  0  0  0  0  0
   59.5600   27.6672   44.7195 H   0  0  0  0  0  0  0  0  0  0  0  0
   58.5057   29.6498   43.6468 H   0  0  0  0  0  0  0  0  0  0  0  0
   57.7422   28.0328   43.3648 H   0  0  0  0  0  0  0  0  0  0  0  0
   55.9480   28.5690   44.4690 H   0  0  0  0  0  0  0  0  0  0  0  0
   55.6720   30.1255   42.8973 H   0  0  0  0  0  0  0  0  0  0  0  0
   55.4865   31.0816   44.4134 H   0  0  0  0  0  0  0  0  0  0  0  0
   58.2007   30.7282   43.0757 H   0  0  0  0  0  0  0  0  0  0  0  0
   57.0535   32.0261   42.5710 H   0  0  0  0  0  0  0  0  0  0  0  0
   58.7060   33.7580   43.2982 H   0  0  0  0  0  0  0  0  0  0  0  0
   59.3869   35.1749   45.2436 H   0  0  0  0  0  0  0  0  0  0  0  0
   58.8603   34.4240   47.5712 H   0  0  0  0  0  0  0  0  0  0  0  0
   57.6450   32.2673   47.9214 H   0  0  0  0  0  0  0  0  0  0  0  0
   57.0130   30.9450   46.0080 H   0  0  0  0  0  0  0  0  0  0  0  0
   61.9579   32.2880   46.1172 H   0  0  0  0  0  0  0  0  0  0  0  0
   63.8622   33.6693   46.9292 H   0  0  0  0  0  0  0  0  0  0  0  0
  1  2  1  0
  2  3  1  0
  3  4  2  0
  4  5  1  0
  5  6  2  0
  6  7  1  0
  7  8  1  0
  8  9  2  0
  9 10  1  0
 10 11  2  0
 10 12  1  0
 12 13  1  0
 13 14  1  0
 14 15  1  0
 15 16  1  0
 16 17  1  0
 17 18  1  0
 18 19  1  0
 19 20  2  0
 20 21  1  0
 21 22  2  0
 22 23  1  0
 23 24  2  0
  6 25  1  0
 25 26  2  0
 26  3  1  0
 11  7  1  0
 24 19  1  0
 14  9  1  0
  1 27  1  0
  1 28  1  0
  1 29  1  0
  4 30  1  0
  5 31  1  0
  8 32  1  0
 12 33  1  0
 12 34  1  0
 13 35  1  0
 13 36  1  0
 14 37  1  6
 15 38  1  0
 15 39  1  0
 16 40  1  0
 17 41  1  0
 17 42  1  0
 18 43  1  0
 18 44  1  0
 20 45  1  0
 21 46  1  0
 22 47  1  0
 23 48  1  0
 24 49  1  0
 25 50  1  0
 26 51  1  0
M  CHG  1  24   1
M  END
>  <UniqueID>  (14) 
13

>  <SMILES>  (14) 
COc1ccc(-n2cc3c(n2)CC[C@H]3CNCCc2cccc[nH+]2)cc1

>  <Energy>  (14) 
106.53240055116316

>  <Genealogy>  (14) 
COc1ccc(-n2cc3c(n2)CCC3CNCCc2cccc[nH+]2)cc1 (protonated)
COc1ccc(-n2cc3c(n2)CC[C@H]3CNCCc2cccc[nH+]2)cc1 (chirality)
COc1ccc(-n2cc3c(n2)CC[C@H]3CNCCc2cccc[nH+]2)cc1 (3D coordinates assigned)
COc1ccc(-n2cc3c(n2)CC[C@H]3CNCCc2cccc[nH+]2)cc1 (nonaromatic ring conformer: 106.53240055116316 kcal/mol)

>  <smiles>  (14) 
COc1ccc(-n2cc3c(n2)CCC3CNCCc2ccccn2)cc1

>  <score_type>  (14) 
oracle

>  <origin>  (14) 
adg

>  <m_score__min__energy>  (14) 
-7.0899999999999999

>  <m_primary>  (14) 
energy

$$$$
14:0
     RDKit          3D

 63 66  0  0  0  0  0  0  0  0999 V2000
   52.4130   30.8160   54.7280 C   0  0  0  0  0  0  0  0  0  0  0  0
   51.3500   30.0590   53.9400 C   0  0  0  0  0  0  0  0  0  0  0  0
   50.8370   30.9210   52.8480 N   0  0  0  0  0  0  0  0  0  0  0  0
   49.9430   31.9970   53.3310 C   0  0  0  0  0  0  0  0  0  0  0  0
   50.5050   33.4100   53.1120 C   0  0  0  0  0  0  0  0  0  0  0  0
   51.8960   31.4210   51.9430 C   0  0  0  0  0  0  0  0  0  0  0  0
   52.4110   30.3120   51.0170 C   0  0  0  0  0  0  0  0  0  0  0  0
   53.3770   29.4480   51.7010 N   0  0  0  0  0  0  0  0  0  0  0  0
   54.6190   29.9290   52.2470 C   0  0  0  0  0  0  0  0  0  0  0  0
   55.1060   31.2190   51.9570 C   0  0  0  0  0  0  0  0  0  0  0  0
   56.3200   31.6540   52.4960 C   0  0  0  0  0  0  0  0  0  0  0  0
   57.0620   30.8160   53.3420 C   0  0  0  0  0  0  0  0  0  0  0  0
   58.3960   31.2680   53.8770 C   0  0  0  0  0  0  0  0  0  0  0  0
   59.4890   30.6520   53.1120 N   0  0  0  0  0  0  0  0  0  0  0  0
   59.3430   30.9500   51.7090 C   0  0  0  0  0  0  0  0  0  0  0  0
   59.3390   32.2960   51.2600 C   0  0  0  0  0  0  0  0  0  0  0  0
   59.1860   32.6010   49.8970 C   0  0  0  0  0  0  0  0  0  0  0  0
   59.0100   31.5360   49.0090 C   0  0  0  0  0  0  0  0  0  0  0  0
   59.0190   30.2390   49.4330 C   0  0  0  0  0  0  0  0  0  0  0  0
   59.1720   29.9020   50.7750 C   0  0  0  0  0  0  0  0  0  0  0  0
   58.8930   29.4000   48.3890 N   0  0  0  0  0  0  0  0  0  0  0  0
   58.8120   30.2390   47.3250 C   0  0  0  0  0  0  0  0  0  0  0  0
   58.8740   31.5500   47.6710 N   0  0  0  0  0  0  0  0  0  0  0  0
   58.8150   32.6750   46.7770 C   0  0  0  0  0  0  0  0  0  0  0  0
   59.7610   33.7110   46.8650 C   0  0  0  0  0  0  0  0  0  0  0  0
   59.6890   34.8070   45.9980 C   0  0  0  0  0  0  0  0  0  0  0  0
   58.6700   34.8820   45.0460 C   0  0  0  0  0  0  0  0  0  0  0  0
   57.7150   33.8650   44.9640 C   0  0  0  0  0  0  0  0  0  0  0  0
   57.7830   32.7680   45.8290 C   0  0  0  0  0  0  0  0  0  0  0  0
   56.5850   29.5290   53.6230 C   0  0  0  0  0  0  0  0  0  0  0  0
   55.3720   29.0920   53.0840 C   0  0  0  0  0  0  0  0  0  0  0  0
   52.2320   30.6871   55.8053 H   0  0  0  0  0  0  0  0  0  0  0  0
   53.4080   30.4220   54.4736 H   0  0  0  0  0  0  0  0  0  0  0  0
   52.3660   31.8852   54.4736 H   0  0  0  0  0  0  0  0  0  0  0  0
   51.7914   29.1474   53.5109 H   0  0  0  0  0  0  0  0  0  0  0  0
   50.5222   29.7849   54.6105 H   0  0  0  0  0  0  0  0  0  0  0  0
   48.9842   31.9178   52.7976 H   0  0  0  0  0  0  0  0  0  0  0  0
   49.8311   31.8596   54.4166 H   0  0  0  0  0  0  0  0  0  0  0  0
   50.6938   33.8846   54.0862 H   0  0  0  0  0  0  0  0  0  0  0  0
   51.4464   33.3466   52.5465 H   0  0  0  0  0  0  0  0  0  0  0  0
   49.7773   34.0105   52.5465 H   0  0  0  0  0  0  0  0  0  0  0  0
   51.4867   32.2376   51.3301 H   0  0  0  0  0  0  0  0  0  0  0  0
   52.7363   31.7770   52.5571 H   0  0  0  0  0  0  0  0  0  0  0  0
   51.5594   29.7014   50.6822 H   0  0  0  0  0  0  0  0  0  0  0  0
   52.9150   30.7834   50.1604 H   0  0  0  0  0  0  0  0  0  0  0  0
   53.1550   28.4310   51.8090 H   0  0  0  0  0  0  0  0  0  0  0  0
   54.5274   31.8876   51.3026 H   0  0  0  0  0  0  0  0  0  0  0  0
   56.6960   32.6594   52.2555 H   0  0  0  0  0  0  0  0  0  0  0  0
   58.4677   32.3626   53.7947 H   0  0  0  0  0  0  0  0  0  0  0  0
   58.4806   30.9623   54.9303 H   0  0  0  0  0  0  0  0  0  0  0  0
   60.4100   31.0150   53.4560 H   0  0  0  0  0  0  0  0  0  0  0  0
   59.4790   29.6140   53.2540 H   0  0  0  0  0  0  0  0  0  0  0  0
   59.4573   33.1115   51.9887 H   0  0  0  0  0  0  0  0  0  0  0  0
   59.2041   33.6417   49.5411 H   0  0  0  0  0  0  0  0  0  0  0  0
   59.1602   28.8510   51.0995 H   0  0  0  0  0  0  0  0  0  0  0  0
   58.7067   29.8914   46.2867 H   0  0  0  0  0  0  0  0  0  0  0  0
   60.5610   33.6599   47.6183 H   0  0  0  0  0  0  0  0  0  0  0  0
   60.4365   35.6111   46.0664 H   0  0  0  0  0  0  0  0  0  0  0  0
   58.6191   35.7412   44.3610 H   0  0  0  0  0  0  0  0  0  0  0  0
   56.9088   33.9273   44.2182 H   0  0  0  0  0  0  0  0  0  0  0  0
   57.0243   31.9740   45.7665 H   0  0  0  0  0  0  0  0  0  0  0  0
   57.1685   28.8589   54.2714 H   0  0  0  0  0  0  0  0  0  0  0  0
   55.0041   28.0821   53.3182 H   0  0  0  0  0  0  0  0  0  0  0  0
  1  2  1  0
  2  3  1  0
  3  4  1  0
  4  5  1  0
  3  6  1  0
  6  7  1  0
  7  8  1  0
  8  9  1  0
  9 10  2  0
 10 11  1  0
 11 12  2  0
 12 13  1  0
 13 14  1  0
 14 15  1  0
 15 16  2  0
 16 17  1  0
 17 18  2  0
 18 19  1  0
 19 20  2  0
 19 21  1  0
 21 22  2  0
 22 23  1  0
 23 24  1  0
 24 25  2  0
 25 26  1  0
 26 27  2  0
 27 28  1  0
 28 29  2  0
 12 30  1  0
 30 31  2  0
 31  9  1  0
 20 15  1  0
 29 24  1  0
 23 18  1  0
  1 32  1  0
  1 33  1  0
  1 34  1  0
  2 35  1  0
  2 36  1  0
  4 37  1  0
  4 38  1  0
  5 39  1  0
  5 40  1  0
  5 41  1  0
  6 42  1  0
  6 43  1  0
  7 44  1  0
  7 45  1  0
  8 46  1  0
 10 47  1  0
 11 48  1  0
 13 49  1  0
 13 50  1  0
 14 51  1  0
 14 52  1  0
 16 53  1  0
 17 54  1  0
 20 55  1  0
 22 56  1  0
 25 57  1  0
 26 58  1  0
 27 59  1  0
 28 60  1  0
 29 61  1  0
 30 62  1  0
 31 63  1  0
M  CHG  1  14   1
M  END
>  <UniqueID>  (15) 
14

>  <SMILES>  (15) 
CCN(CC)CCNc1ccc(C[NH2+]c2ccc3c(c2)ncn3-c2ccccc2)cc1

>  <Energy>  (15) 
108.29400633629085

>  <Genealogy>  (15) 
CCN(CC)CCNc1ccc(C[NH2+]c2ccc3c(c2)ncn3-c2ccccc2)cc1 (protonated)
CCN(CC)CCNc1ccc(C[NH2+]c2ccc3c(c2)ncn3-c2ccccc2)cc1 (3D coordinates assigned)
CCN(CC)CCNc1ccc(C[NH2+]c2ccc3c(c2)ncn3-c2ccccc2)cc1 (optimized conformer: 108.29400633629085 kcal/mol)

>  <smiles>  (15) 
CCN(CC)CCNc1ccc(CNc2ccc3c(c2)ncn3-c2ccccc2)cc1

>  <score_type>  (15) 
oracle

>  <origin>  (15) 
adg

>  <m_score__min__energy>  (15) 
-6.5800000000000001

>  <m_primary>  (15) 
energy

$$$$
15:0
     RDKit          3D

 43 45  0  0  0  0  0  0  0  0999 V2000
   55.9720   29.3570   44.5040 C   0  0  0  0  0  0  0  0  0  0  0  0
   56.7400   30.6080   44.2180 C   0  0  0  0  0  0  0  0  0  0  0  0
   57.1550   30.9040   42.9130 C   0  0  0  0  0  0  0  0  0  0  0  0
   57.8590   32.0840   42.6690 C   0  0  0  0  0  0  0  0  0  0  0  0
   58.1400   32.9580   43.7220 C   0  0  0  0  0  0  0  0  0  0  0  0
   57.7050   32.6360   45.0170 C   0  0  0  0  0  0  0  0  0  0  0  0
   57.9610   33.5610   46.1720 C   0  0  0  0  0  0  0  0  0  0  0  0
   59.3920   33.8810   46.2660 N   0  0  0  0  0  0  0  0  0  0  0  0
   59.7490   34.6160   47.4940 C   0  0  0  0  0  0  0  0  0  0  0  0
   60.4200   33.7400   48.5690 C   0  0  0  0  0  0  0  0  0  0  0  0
   61.6880   33.1710   48.1000 N   0  0  0  0  0  0  0  0  0  0  0  0
   62.8380   33.8530   47.9350 C   0  0  0  0  0  0  0  0  0  0  0  0
   63.7660   33.0130   47.3550 C   0  0  0  0  0  0  0  0  0  0  0  0
   63.1930   31.8120   47.1540 N   0  0  0  0  0  0  0  0  0  0  0  0
   61.9320   31.9290   47.6170 C   0  0  0  0  0  0  0  0  0  0  0  0
   60.9450   30.8330   47.5430 C   0  0  0  0  0  0  0  0  0  0  0  0
   60.3110   30.5290   46.3270 C   0  0  0  0  0  0  0  0  0  0  0  0
   59.3770   29.4900   46.2620 C   0  0  0  0  0  0  0  0  0  0  0  0
   59.0660   28.7530   47.4080 C   0  0  0  0  0  0  0  0  0  0  0  0
   59.6850   29.0580   48.6230 C   0  0  0  0  0  0  0  0  0  0  0  0
   60.6170   30.0980   48.6960 C   0  0  0  0  0  0  0  0  0  0  0  0
   61.2080   30.3770   49.8850 F   0  0  0  0  0  0  0  0  0  0  0  0
   57.0180   31.4790   45.2280 N   0  0  0  0  0  0  0  0  0  0  0  0
   55.8875   29.2193   45.5921 H   0  0  0  0  0  0  0  0  0  0  0  0
   54.9664   29.4357   44.0651 H   0  0  0  0  0  0  0  0  0  0  0  0
   56.4972   28.4959   44.0651 H   0  0  0  0  0  0  0  0  0  0  0  0
   56.9280   30.2125   42.0882 H   0  0  0  0  0  0  0  0  0  0  0  0
   58.1922   32.3256   41.6489 H   0  0  0  0  0  0  0  0  0  0  0  0
   58.6964   33.8889   43.5381 H   0  0  0  0  0  0  0  0  0  0  0  0
   57.3909   34.4902   46.0252 H   0  0  0  0  0  0  0  0  0  0  0  0
   57.6448   33.0658   47.1019 H   0  0  0  0  0  0  0  0  0  0  0  0
   59.6800   34.4280   45.4220 H   0  0  0  0  0  0  0  0  0  0  0  0
   60.4424   35.4262   47.2242 H   0  0  0  0  0  0  0  0  0  0  0  0
   58.8104   34.9924   47.9269 H   0  0  0  0  0  0  0  0  0  0  0  0
   60.6148   34.3565   49.4590 H   0  0  0  0  0  0  0  0  0  0  0  0
   59.7397   32.9079   48.8031 H   0  0  0  0  0  0  0  0  0  0  0  0
   63.0084   34.9029   48.2155 H   0  0  0  0  0  0  0  0  0  0  0  0
   64.8019   33.2804   47.0994 H   0  0  0  0  0  0  0  0  0  0  0  0
   63.6410   30.9670   46.7320 H   0  0  0  0  0  0  0  0  0  0  0  0
   60.5497   31.1095   45.4237 H   0  0  0  0  0  0  0  0  0  0  0  0
   58.8861   29.2524   45.3067 H   0  0  0  0  0  0  0  0  0  0  0  0
   58.3344   27.9334   47.3535 H   0  0  0  0  0  0  0  0  0  0  0  0
   59.4385   28.4783   49.5248 H   0  0  0  0  0  0  0  0  0  0  0  0
  1  2  1  0
  2  3  2  0
  3  4  1  0
  4  5  2  0
  5  6  1  0
  6  7  1  0
  7  8  1  0
  8  9  1  0
  9 10  1  0
 10 11  1  0
 11 12  1  0
 12 13  2  0
 13 14  1  0
 14 15  2  0
 15 16  1  0
 16 17  2  0
 17 18  1  0
 18 19  2  0
 19 20  1  0
 20 21  2  0
 21 22  1  0
  6 23  2  0
 23  2  1  0
 15 11  1  0
 21 16  1  0
  1 24  1  0
  1 25  1  0
  1 26  1  0
  3 27  1  0
  4 28  1  0
  5 29  1  0
  7 30  1  0
  7 31  1  0
  8 32  1  0
  9 33  1  0
  9 34  1  0
 10 35  1  0
 10 36  1  0
 12 37  1  0
 13 38  1  0
 14 39  1  0
 17 40  1  0
 18 41  1  0
 19 42  1  0
 20 43  1  0
M  CHG  1  14   1
M  END
>  <UniqueID>  (16) 
15

>  <SMILES>  (16) 
Cc1cccc(CNCCn2cc[nH+]c2-c2ccccc2F)n1

>  <Energy>  (16) 
79.01722362530397

>  <Genealogy>  (16) 
Cc1cccc(CNCCn2cc[nH+]c2-c2ccccc2F)n1 (protonated)
Cc1cccc(CNCCn2cc[nH+]c2-c2ccccc2F)n1 (3D coordinates assigned)
Cc1cccc(CNCCn2cc[nH+]c2-c2ccccc2F)n1 (optimized conformer: 79.01722362530397 kcal/mol)

>  <smiles>  (16) 
Cc1cccc(CNCCn2ccnc2-c2ccccc2F)n1

>  <score_type>  (16) 
oracle

>  <origin>  (16) 
adg

>  <m_score__min__energy>  (16) 
-5.9699999999999998

>  <m_primary>  (16) 
energy

$$$$
16:0
     RDKit          3D

 35 37  0  0  0  0  0  0  0  0999 V2000
   62.9270   33.9950   50.0880 C   0  0  0  0  0  0  0  0  0  0  0  0
   61.9110   34.6160   49.3070 O   0  0  0  0  0  0  0  0  0  0  0  0
   61.1060   33.9440   48.3760 C   0  0  0  0  0  0  0  0  0  0  0  0
   59.7880   34.3480   48.0870 C   0  0  0  0  0  0  0  0  0  0  0  0
   59.0260   33.6450   47.1490 C   0  0  0  0  0  0  0  0  0  0  0  0
   59.5700   32.5420   46.4750 C   0  0  0  0  0  0  0  0  0  0  0  0
   58.7700   31.8140   45.5320 N   0  0  0  0  0  0  0  0  0  0  0  0
   58.3970   32.3060   44.3550 N   0  0  0  0  0  0  0  0  0  0  0  0
   57.6470   31.3690   43.7310 C   0  0  0  0  0  0  0  0  0  0  0  0
   57.0600   31.5350   42.3690 C   0  0  0  0  0  0  0  0  0  0  0  0
   57.5750   30.2400   44.5240 C   0  0  0  0  0  0  0  0  0  0  0  0
   58.2750   30.5640   45.6480 C   0  0  0  0  0  0  0  0  0  0  0  0
   58.5240   29.6260   46.6950 N   0  0  0  0  0  0  0  0  0  0  0  0
   58.0350   28.2850   46.5290 C   0  0  0  0  0  0  0  0  0  0  0  0
   58.1050   27.4720   47.4880 O   0  0  0  0  0  0  0  0  0  0  0  0
   57.5270   27.8130   45.1780 C   0  0  0  0  0  0  0  0  0  0  0  0
   56.8500   28.9370   44.3450 C   0  0  1  0  0  0  0  0  0  0  0  0
   55.5000   29.0810   44.7070 O   0  0  0  0  0  0  0  0  0  0  0  0
   60.8760   32.1280   46.7790 C   0  0  0  0  0  0  0  0  0  0  0  0
   61.6380   32.8300   47.7180 C   0  0  0  0  0  0  0  0  0  0  0  0
   62.7033   34.1317   51.1563 H   0  0  0  0  0  0  0  0  0  0  0  0
   62.9629   32.9204   49.8555 H   0  0  0  0  0  0  0  0  0  0  0  0
   63.8997   34.4531   49.8555 H   0  0  0  0  0  0  0  0  0  0  0  0
   59.3567   35.2196   48.6011 H   0  0  0  0  0  0  0  0  0  0  0  0
   57.9931   33.9591   46.9383 H   0  0  0  0  0  0  0  0  0  0  0  0
   56.0050   31.8333   42.4583 H   0  0  0  0  0  0  0  0  0  0  0  0
   57.6156   32.3113   41.8224 H   0  0  0  0  0  0  0  0  0  0  0  0
   57.1268   30.5828   41.8224 H   0  0  0  0  0  0  0  0  0  0  0  0
   59.0660   29.8830   47.5470 H   0  0  0  0  0  0  0  0  0  0  0  0
   58.3784   27.4185   44.6040 H   0  0  0  0  0  0  0  0  0  0  0  0
   56.7624   27.0456   45.3691 H   0  0  0  0  0  0  0  0  0  0  0  0
   56.8993   28.6501   43.2842 H   0  0  0  0  0  0  0  0  0  0  0  0
   55.1420   28.1750   44.9030 H   0  0  0  0  0  0  0  0  0  0  0  0
   61.3022   31.2473   46.2763 H   0  0  0  0  0  0  0  0  0  0  0  0
   62.6645   32.5035   47.9412 H   0  0  0  0  0  0  0  0  0  0  0  0
  1  2  1  0
  2  3  1  0
  3  4  2  0
  4  5  1  0
  5  6  2  0
  6  7  1  0
  7  8  1  0
  8  9  2  0
  9 10  1  0
  9 11  1  0
 11 12  2  0
 12 13  1  0
 13 14  1  0
 14 15  2  0
 14 16  1  0
 16 17  1  0
 17 18  1  0
  6 19  1  0
 19 20  2  0
 20  3  1  0
 12  7  1  0
 17 11  1  0
  1 21  1  0
  1 22  1  0
  1 23  1  0
  4 24  1  0
  5 25  1  0
 10 26  1  0
 10 27  1  0
 10 28  1  0
 13 29  1  0
 16 30  1  0
 16 31  1  0
 17 32  1  6
 18 33  1  0
 19 34  1  0
 20 35  1  0
M  END
>  <UniqueID>  (17) 
16

>  <SMILES>  (17) 
COc1ccc(-n2nc(C)c3c2NC(=O)C[C@H]3O)cc1

>  <Energy>  (17) 
75.69164709969462

>  <Genealogy>  (17) 
COc1ccc(-n2nc(C)c3c2NC(=O)C[C@H]3O)cc1 (chirality)
COc1ccc(-n2nc(C)c3c2NC(=O)C[C@H]3O)cc1 (3D coordinates assigned)
COc1ccc(-n2nc(C)c3c2NC(=O)C[C@H]3O)cc1 (nonaromatic ring conformer: 75.69164709969462 kcal/mol)

>  <smiles>  (17) 
COc1ccc(-n2nc(C)c3c2NC(=O)CC3O)cc1

>  <score_type>  (17) 
oracle

>  <origin>  (17) 
adg

>  <m_score__min__energy>  (17) 
-7.0800000000000001

>  <m_primary>  (17) 
energy

$$$$
17:0
     RDKit          3D

 34 35  0  0  0  0  0  0  0  0999 V2000
   55.1640   25.0500   45.6350 C   0  0  0  0  0  0  0  0  0  0  0  0
   55.3640   26.4070   46.0140 O   0  0  0  0  0  0  0  0  0  0  0  0
   56.5840   27.0910   45.9000 C   0  0  0  0  0  0  0  0  0  0  0  0
   57.7330   26.4900   46.4250 C   0  0  0  0  0  0  0  0  0  0  0  0
   58.9730   27.1240   46.3230 C   0  0  0  0  0  0  0  0  0  0  0  0
   59.0770   28.3630   45.6880 C   0  0  0  0  0  0  0  0  0  0  0  0
   57.9380   28.9790   45.1490 C   0  0  0  0  0  0  0  0  0  0  0  0
   58.0680   30.2850   44.4090 C   0  0  0  0  0  0  0  0  0  0  0  0
   57.0110   31.2240   44.8210 N   0  0  0  0  0  0  0  0  0  0  0  0
   57.3590   32.6280   44.5430 C   0  0  0  0  0  0  0  0  0  0  0  0
   58.1670   33.2250   45.6660 C   0  0  0  0  0  0  0  0  0  0  0  0
   58.9210   34.3920   45.4520 C   0  0  0  0  0  0  0  0  0  0  0  0
   59.6340   34.9720   46.5050 C   0  0  0  0  0  0  0  0  0  0  0  0
   59.6150   34.3860   47.7730 C   0  0  0  0  0  0  0  0  0  0  0  0
   60.3020   34.9530   48.7940 F   0  0  0  0  0  0  0  0  0  0  0  0
   58.8850   33.2120   47.9880 C   0  0  0  0  0  0  0  0  0  0  0  0
   58.1680   32.6300   46.9390 C   0  0  0  0  0  0  0  0  0  0  0  0
   56.6890   28.3470   45.2710 C   0  0  0  0  0  0  0  0  0  0  0  0
   55.0722   24.4271   46.5370 H   0  0  0  0  0  0  0  0  0  0  0  0
   54.2441   24.9679   45.0375 H   0  0  0  0  0  0  0  0  0  0  0  0
   56.0212   24.7060   45.0375 H   0  0  0  0  0  0  0  0  0  0  0  0
   57.6592   25.5112   46.9216 H   0  0  0  0  0  0  0  0  0  0  0  0
   59.8699   26.6461   46.7439 H   0  0  0  0  0  0  0  0  0  0  0  0
   60.0562   28.8581   45.6101 H   0  0  0  0  0  0  0  0  0  0  0  0
   59.0505   30.7283   44.6286 H   0  0  0  0  0  0  0  0  0  0  0  0
   57.9690   30.0919   43.3306 H   0  0  0  0  0  0  0  0  0  0  0  0
   56.1590   31.0010   44.2550 H   0  0  0  0  0  0  0  0  0  0  0  0
   57.9472   32.6742   43.6146 H   0  0  0  0  0  0  0  0  0  0  0  0
   56.4268   33.2032   44.4424 H   0  0  0  0  0  0  0  0  0  0  0  0
   58.9500   34.8503   44.4524 H   0  0  0  0  0  0  0  0  0  0  0  0
   60.2117   35.8925   46.3348 H   0  0  0  0  0  0  0  0  0  0  0  0
   58.8754   32.7462   48.9845 H   0  0  0  0  0  0  0  0  0  0  0  0
   57.6022   31.7024   47.1106 H   0  0  0  0  0  0  0  0  0  0  0  0
   55.7877   28.8360   44.8729 H   0  0  0  0  0  0  0  0  0  0  0  0
  1  2  1  0
  2  3  1  0
  3  4  2  0
  4  5  1  0
  5  6  2  0
  6  7  1  0
  7  8  1  0
  8  9  1  0
  9 10  1  0
 10 11  1  0
 11 12  2  0
 12 13  1  0
 13 14  2  0
 14 15  1  0
 14 16  1  0
 16 17  2  0
  7 18  2  0
 18  3  1  0
 17 11  1  0
  1 19  1  0
  1 20  1  0
  1 21  1  0
  4 22  1  0
  5 23  1  0
  6 24  1  0
  8 25  1  0
  8 26  1  0
  9 27  1  0
 10 28  1  0
 10 29  1  0
 12 30  1  0
 13 31  1  0
 16 32  1  0
 17 33  1  0
 18 34  1  0
M  END
>  <UniqueID>  (18) 
17

>  <SMILES>  (18) 
COc1cccc(CNCc2ccc(F)cc2)c1

>  <Energy>  (18) 
29.961415318336567

>  <Genealogy>  (18) 
COc1cccc(CNCc2ccc(F)cc2)c1 (3D coordinates assigned)
COc1cccc(CNCc2ccc(F)cc2)c1 (optimized conformer: 29.961415318336567 kcal/mol)

>  <smiles>  (18) 
COc1cccc(CNCc2ccc(F)cc2)c1

>  <score_type>  (18) 
oracle

>  <origin>  (18) 
adg

>  <m_score__min__energy>  (18) 
-6.7300000000000004

>  <m_primary>  (18) 
energy

$$$$
18:0
     RDKit          3D

 46 48  0  0  0  0  0  0  0  0999 V2000
   60.0800   30.1940   46.2720 C   0  0  0  0  0  0  0  0  0  0  0  0
   58.7690   30.1880   45.5310 C   0  0  0  0  0  0  0  0  0  0  0  0
   58.1970   28.9570   45.1680 C   0  0  0  0  0  0  0  0  0  0  0  0
   56.9990   28.9140   44.4520 C   0  0  0  0  0  0  0  0  0  0  0  0
   56.3560   30.0980   44.0920 C   0  0  0  0  0  0  0  0  0  0  0  0
   56.9010   31.3290   44.4590 C   0  0  0  0  0  0  0  0  0  0  0  0
   58.0980   31.3920   45.1920 C   0  0  0  0  0  0  0  0  0  0  0  0
   58.6190   32.7190   45.5890 C   0  0  0  0  0  0  0  0  0  0  0  0
   58.9060   33.6850   44.6130 C   0  0  0  0  0  0  0  0  0  0  0  0
   59.3880   34.9420   44.9880 C   0  0  0  0  0  0  0  0  0  0  0  0
   59.5840   35.2460   46.3380 C   0  0  0  0  0  0  0  0  0  0  0  0
   59.2940   34.2920   47.3250 C   0  0  0  0  0  0  0  0  0  0  0  0
   59.5050   34.6040   48.7840 C   0  0  0  0  0  0  0  0  0  0  0  0
   60.2760   33.5230   49.4320 N   0  0  0  0  0  0  0  0  0  0  0  0
   59.6740   33.1760   50.7300 C   0  0  0  0  0  0  0  0  0  0  0  0
   61.7070   33.8760   49.5860 C   0  0  0  0  0  0  0  0  0  0  0  0
   62.4890   33.2700   48.4550 C   0  0  0  0  0  0  0  0  0  0  0  0
   63.2050   34.0150   47.5860 N   0  0  0  0  0  0  0  0  0  0  0  0
   63.7670   33.1120   46.7570 C   0  0  0  0  0  0  0  0  0  0  0  0
   63.3910   31.8430   47.1310 C   0  0  0  0  0  0  0  0  0  0  0  0
   62.5870   31.9460   48.2030 N   0  0  0  0  0  0  0  0  0  0  0  0
   61.9560   30.8390   48.9170 C   0  0  0  0  0  0  0  0  0  0  0  0
   58.8000   33.0340   46.9450 C   0  0  0  0  0  0  0  0  0  0  0  0
   59.8889   30.1931   47.3553 H   0  0  0  0  0  0  0  0  0  0  0  0
   60.6585   29.2985   46.0010 H   0  0  0  0  0  0  0  0  0  0  0  0
   60.6502   31.0948   46.0010 H   0  0  0  0  0  0  0  0  0  0  0  0
   58.6974   28.0190   45.4503 H   0  0  0  0  0  0  0  0  0  0  0  0
   56.5616   27.9445   44.1714 H   0  0  0  0  0  0  0  0  0  0  0  0
   55.4183   30.0614   43.5182 H   0  0  0  0  0  0  0  0  0  0  0  0
   56.3886   32.2590   44.1717 H   0  0  0  0  0  0  0  0  0  0  0  0
   58.7511   33.4523   43.5491 H   0  0  0  0  0  0  0  0  0  0  0  0
   59.6139   35.6946   44.2182 H   0  0  0  0  0  0  0  0  0  0  0  0
   59.9666   36.2358   46.6274 H   0  0  0  0  0  0  0  0  0  0  0  0
   60.0581   35.5503   48.8767 H   0  0  0  0  0  0  0  0  0  0  0  0
   58.5256   34.6908   49.2772 H   0  0  0  0  0  0  0  0  0  0  0  0
   60.3162   33.5462   51.5427 H   0  0  0  0  0  0  0  0  0  0  0  0
   58.6795   33.6394   50.8085 H   0  0  0  0  0  0  0  0  0  0  0  0
   59.5765   32.0831   50.8085 H   0  0  0  0  0  0  0  0  0  0  0  0
   61.8203   34.9700   49.5672 H   0  0  0  0  0  0  0  0  0  0  0  0
   62.0825   33.4886   50.5446 H   0  0  0  0  0  0  0  0  0  0  0  0
   64.4261   33.3537   45.9102 H   0  0  0  0  0  0  0  0  0  0  0  0
   63.6951   30.9074   46.6388 H   0  0  0  0  0  0  0  0  0  0  0  0
   62.0487   31.0015   50.0010 H   0  0  0  0  0  0  0  0  0  0  0  0
   60.8918   30.7857   48.6439 H   0  0  0  0  0  0  0  0  0  0  0  0
   62.4524   29.8961   48.6439 H   0  0  0  0  0  0  0  0  0  0  0  0
   58.5528   32.2893   47.7159 H   0  0  0  0  0  0  0  0  0  0  0  0
  1  2  1  0
  2  3  2  0
  3  4  1  0
  4  5  2  0
  5  6  1  0
  6  7  2  0
  7  8  1  0
  8  9  2  0
  9 10  1  0
 10 11  2  0
 11 12  1  0
 12 13  1  0
 13 14  1  0
 14 15  1  0
 14 16  1  0
 16 17  1  0
 17 18  2  0
 18 19  1  0
 19 20  2  0
 20 21  1  0
 21 22  1  0
 12 23  2  0
  7  2  1  0
 23  8  1  0
 21 17  1  0
  1 24  1  0
  1 25  1  0
  1 26  1  0
  3 27  1  0
  4 28  1  0
  5 29  1  0
  6 30  1  0
  9 31  1  0
 10 32  1  0
 11 33  1  0
 13 34  1  0
 13 35  1  0
 15 36  1  0
 15 37  1  0
 15 38  1  0
 16 39  1  0
 16 40  1  0
 19 41  1  0
 20 42  1  0
 22 43  1  0
 22 44  1  0
 22 45  1  0
 23 46  1  0
M  END
>  <UniqueID>  (19) 
18

>  <SMILES>  (19) 
Cc1ccccc1-c1cccc(CN(C)Cc2nccn2C)c1

>  <Energy>  (19) 
81.7968481758033

>  <Genealogy>  (19) 
Cc1ccccc1-c1cccc(CN(C)Cc2nccn2C)c1 (3D coordinates assigned)
Cc1ccccc1-c1cccc(CN(C)Cc2nccn2C)c1 (optimized conformer: 81.7968481758033 kcal/mol)

>  <smiles>  (19) 
Cc1ccccc1-c1cccc(CN(C)Cc2nccn2C)c1

>  <score_type>  (19) 
oracle

>  <origin>  (19) 
adg

>  <m_score__min__energy>  (19) 
-7.3200000000000003

>  <m_primary>  (19) 
energy

$$$$
19:0
     RDKit          3D

 31 33  0  0  0  0  0  0  0  0999 V2000
   58.0660   32.2650   41.6310 C   0  0  0  0  0  0  0  0  0  0  0  0
   58.1870   32.6120   43.0790 C   0  0  0  0  0  0  0  0  0  0  0  0
   58.9010   33.6880   43.5090 N   0  0  0  0  0  0  0  0  0  0  0  0
   58.7690   33.6120   44.8450 C   0  0  0  0  0  0  0  0  0  0  0  0
   59.3160   34.4520   45.7590 N   0  0  0  0  0  0  0  0  0  0  0  0
   59.1020   34.2120   47.0900 C   0  0  0  0  0  0  0  0  0  0  0  0
   58.3270   33.1030   47.5040 C   0  0  0  0  0  0  0  0  0  0  0  0
   57.7700   32.2430   46.5420 C   0  0  0  0  0  0  0  0  0  0  0  0
   58.0150   32.5400   45.2040 C   0  0  0  0  0  0  0  0  0  0  0  0
   57.6280   31.8940   44.0950 N   0  0  0  0  0  0  0  0  0  0  0  0
   56.6910   30.4300   44.0220 S   0  0  0  0  0  0  0  0  0  0  0  0
   55.4350   30.6230   44.8260 O   0  0  0  0  0  0  0  0  0  0  0  0
   56.3120   30.1030   42.6060 O   0  0  0  0  0  0  0  0  0  0  0  0
   57.6430   29.1060   44.6830 C   0  0  0  0  0  0  0  0  0  0  0  0
   57.8000   27.9250   43.9440 C   0  0  0  0  0  0  0  0  0  0  0  0
   58.5610   26.8710   44.4580 C   0  0  0  0  0  0  0  0  0  0  0  0
   59.1650   26.9910   45.7150 C   0  0  0  0  0  0  0  0  0  0  0  0
   60.1200   25.6680   46.3590 Cl  0  0  0  0  0  0  0  0  0  0  0  0
   59.0060   28.1660   46.4560 C   0  0  0  0  0  0  0  0  0  0  0  0
   58.2450   29.2210   45.9430 C   0  0  0  0  0  0  0  0  0  0  0  0
   57.7053   31.2307   41.5307 H   0  0  0  0  0  0  0  0  0  0  0  0
   57.3537   32.9501   41.1480 H   0  0  0  0  0  0  0  0  0  0  0  0
   59.0499   32.3587   41.1480 H   0  0  0  0  0  0  0  0  0  0  0  0
   59.8960   35.2670   45.4550 H   0  0  0  0  0  0  0  0  0  0  0  0
   59.5358   34.8864   47.8430 H   0  0  0  0  0  0  0  0  0  0  0  0
   58.1610   32.9146   48.5750 H   0  0  0  0  0  0  0  0  0  0  0  0
   57.1656   31.3715   46.8340 H   0  0  0  0  0  0  0  0  0  0  0  0
   57.3233   27.8275   42.9575 H   0  0  0  0  0  0  0  0  0  0  0  0
   58.6852   25.9469   43.8744 H   0  0  0  0  0  0  0  0  0  0  0  0
   59.4803   28.2606   47.4440 H   0  0  0  0  0  0  0  0  0  0  0  0
   58.1187   30.1429   46.5297 H   0  0  0  0  0  0  0  0  0  0  0  0
  1  2  1  0
  2  3  2  0
  3  4  1  0
  4  5  2  0
  5  6  1  0
  6  7  2  0
  7  8  1  0
  8  9  2  0
  9 10  1  0
 10 11  1  0
 11 12  2  0
 11 13  2  0
 11 14  1  0
 14 15  2  0
 15 16  1  0
 16 17  2  0
 17 18  1  0
 17 19  1  0
 19 20  2  0
 10  2  1  0
 20 14  1  0
  9  4  1  0
  1 21  1  0
  1 22  1  0
  1 23  1  0
  5 24  1  0
  6 25  1  0
  7 26  1  0
  8 27  1  0
 15 28  1  0
 16 29  1  0
 19 30  1  0
 20 31  1  0
M  CHG  1   5   1
M  END
>  <UniqueID>  (20) 
19

>  <SMILES>  (20) 
Cc1nc2[nH+]cccc2n1S(=O)(=O)c1ccc(Cl)cc1

>  <Energy>  (20) 
73.54655454735948

>  <Genealogy>  (20) 
Cc1nc2[nH+]cccc2n1S(=O)(=O)c1ccc(Cl)cc1 (protonated)
Cc1nc2[nH+]cccc2n1S(=O)(=O)c1ccc(Cl)cc1 (3D coordinates assigned)
Cc1nc2[nH+]cccc2n1S(=O)(=O)c1ccc(Cl)cc1 (optimized conformer: 73.54655454735948 kcal/mol)

>  <smiles>  (20) 
Cc1nc2ncccc2n1S(=O)(=O)c1ccc(Cl)cc1

>  <score_type>  (20) 
oracle

>  <origin>  (20) 
adg

>  <m_score__min__energy>  (20) 
-6.29

>  <m_primary>  (20) 
energy

$$$$
20:0
     RDKit          3D

 44 47  0  0  0  0  0  0  0  0999 V2000
   56.9670   30.1700   43.9550 C   0  0  0  0  0  0  0  0  0  0  0  0
   57.0320   30.9060   45.1740 O   0  0  0  0  0  0  0  0  0  0  0  0
   57.7480   32.1000   45.3390 C   0  0  0  0  0  0  0  0  0  0  0  0
   57.2710   33.3380   44.8700 C   0  0  0  0  0  0  0  0  0  0  0  0
   58.0210   34.5000   45.0630 C   0  0  0  0  0  0  0  0  0  0  0  0
   59.2500   34.4420   45.7230 C   0  0  0  0  0  0  0  0  0  0  0  0
   59.7450   33.2150   46.1990 C   0  0  0  0  0  0  0  0  0  0  0  0
   61.0520   33.1500   46.9010 C   0  0  0  0  0  0  0  0  0  0  0  0
   62.1670   33.8460   46.3970 C   0  0  0  0  0  0  0  0  0  0  0  0
   63.3990   33.7890   47.0550 C   0  0  0  0  0  0  0  0  0  0  0  0
   63.5360   33.0380   48.2250 C   0  0  0  0  0  0  0  0  0  0  0  0
   64.7090   32.9870   48.8440 O   0  0  0  0  0  0  0  0  0  0  0  0
   64.9000   32.2850   49.9570 C   0  0  0  0  0  0  0  0  0  0  0  0
   66.2060   32.2760   50.5690 N   0  0  0  0  0  0  0  0  0  0  0  0
   67.0840   33.4510   50.5000 C   0  0  0  0  0  0  0  0  0  0  0  0
   68.0720   33.4520   51.6700 C   0  0  0  0  0  0  0  0  0  0  0  0
   68.7320   32.2070   51.7750 O   0  0  0  0  0  0  0  0  0  0  0  0
   67.7960   31.2050   52.1170 C   0  0  0  0  0  0  0  0  0  0  0  0
   66.7890   30.9940   50.9830 C   0  0  0  0  0  0  0  0  0  0  0  0
   63.8570   31.5900   50.5060 N   0  0  0  0  0  0  0  0  0  0  0  0
   62.6300   31.6020   49.9200 C   0  0  0  0  0  0  0  0  0  0  0  0
   61.6820   30.9560   50.4430 O   0  0  0  0  0  0  0  0  0  0  0  0
   62.4320   32.3360   48.7420 C   0  0  0  0  0  0  0  0  0  0  0  0
   61.1940   32.3940   48.0800 C   0  0  0  0  0  0  0  0  0  0  0  0
   58.9820   32.0490   45.9990 C   0  0  0  0  0  0  0  0  0  0  0  0
   56.8723   29.0972   44.1790 H   0  0  0  0  0  0  0  0  0  0  0  0
   56.0946   30.5014   43.3727 H   0  0  0  0  0  0  0  0  0  0  0  0
   57.8840   30.3434   43.3727 H   0  0  0  0  0  0  0  0  0  0  0  0
   56.3035   33.3906   44.3493 H   0  0  0  0  0  0  0  0  0  0  0  0
   57.6422   35.4644   44.6937 H   0  0  0  0  0  0  0  0  0  0  0  0
   59.8346   35.3619   45.8715 H   0  0  0  0  0  0  0  0  0  0  0  0
   62.0679   34.4403   45.4767 H   0  0  0  0  0  0  0  0  0  0  0  0
   64.2628   34.3369   46.6505 H   0  0  0  0  0  0  0  0  0  0  0  0
   67.6440   33.4293   49.5534 H   0  0  0  0  0  0  0  0  0  0  0  0
   66.4668   34.3599   50.5549 H   0  0  0  0  0  0  0  0  0  0  0  0
   68.8192   34.2431   51.5094 H   0  0  0  0  0  0  0  0  0  0  0  0
   67.5139   33.6330   52.6005 H   0  0  0  0  0  0  0  0  0  0  0  0
   68.3297   30.2619   52.3059 H   0  0  0  0  0  0  0  0  0  0  0  0
   67.2515   31.5230   53.0183 H   0  0  0  0  0  0  0  0  0  0  0  0
   67.3013   30.5351   50.1245 H   0  0  0  0  0  0  0  0  0  0  0  0
   65.9836   30.3353   51.3400 H   0  0  0  0  0  0  0  0  0  0  0  0
   63.9770   31.0600   51.3970 H   0  0  0  0  0  0  0  0  0  0  0  0
   60.3309   31.8456   48.4853 H   0  0  0  0  0  0  0  0  0  0  0  0
   59.3606   31.0838   46.3665 H   0  0  0  0  0  0  0  0  0  0  0  0
  1  2  1  0
  2  3  1  0
  3  4  2  0
  4  5  1  0
  5  6  2  0
  6  7  1  0
  7  8  1  0
  8  9  2  0
  9 10  1  0
 10 11  2  0
 11 12  1  0
 12 13  1  0
 13 14  1  0
 14 15  1  0
 15 16  1  0
 16 17  1  0
 17 18  1  0
 18 19  1  0
 13 20  2  0
 20 21  1  0
 21 22  2  0
 21 23  1  0
 23 24  2  0
  7 25  2  0
 25  3  1  0
 24  8  1  0
 23 11  1  0
 19 14  1  0
  1 26  1  0
  1 27  1  0
  1 28  1  0
  4 29  1  0
  5 30  1  0
  6 31  1  0
  9 32  1  0
 10 33  1  0
 15 34  1  0
 15 35  1  0
 16 36  1  0
 16 37  1  0
 18 38  1  0
 18 39  1  0
 19 40  1  0
 19 41  1  0
 20 42  1  0
 24 43  1  0
 25 44  1  0
M  CHG  1  20   1
M  END
>  <UniqueID>  (21) 
20

>  <SMILES>  (21) 
COc1cccc(-c2ccc3oc(N4CCOCC4)[nH+]c(=O)c3c2)c1

>  <Energy>  (21) 
60.06123492144798

>  <Genealogy>  (21) 
COc1cccc(-c2ccc3oc(N4CCOCC4)[nH+]c(=O)c3c2)c1 (protonated)
COc1cccc(-c2ccc3oc(N4CCOCC4)[nH+]c(=O)c3c2)c1 (3D coordinates assigned)
COc1cccc(-c2ccc3oc(N4CCOCC4)[nH+]c(=O)c3c2)c1 (nonaromatic ring conformer: 60.06123492144798 kcal/mol)

>  <smiles>  (21) 
COc1cccc(-c2ccc3oc(N4CCOCC4)nc(=O)c3c2)c1

>  <score_type>  (21) 
oracle

>  <origin>  (21) 
adg

>  <m_score__min__energy>  (21) 
-6.5800000000000001

>  <m_primary>  (21) 
energy

$$$$
21:0
     RDKit          3D

 49 52  0  0  0  0  0  0  0  0999 V2000
   59.9260   30.0210   49.1210 C   0  0  0  0  0  0  0  0  0  0  0  0
   59.9340   30.1010   47.6610 N   0  0  0  0  0  0  0  0  0  0  0  0
   61.1670   30.5380   47.0110 C   0  0  0  0  0  0  0  0  0  0  0  0
   59.0590   29.2360   46.9270 C   0  0  0  0  0  0  0  0  0  0  0  0
   59.0370   27.8640   47.0430 C   0  0  0  0  0  0  0  0  0  0  0  0
   58.0510   27.4690   46.1500 C   0  0  0  0  0  0  0  0  0  0  0  0
   57.6020   26.0820   45.8700 C   0  0  0  0  0  0  0  0  0  0  0  0
   56.2300   25.7720   45.9060 C   0  0  0  0  0  0  0  0  0  0  0  0
   55.7840   24.4730   45.6460 C   0  0  0  0  0  0  0  0  0  0  0  0
   56.7020   23.4600   45.3450 C   0  0  0  0  0  0  0  0  0  0  0  0
   56.2700   22.1540   45.0820 C   0  0  0  0  0  0  0  0  0  0  0  0
   57.2140   21.1680   44.7840 C   0  0  0  0  0  0  0  0  0  0  0  0
   58.5390   21.4730   44.7490 N   0  0  0  0  0  0  0  0  0  0  0  0
   58.9890   22.7330   45.0010 C   0  0  0  0  0  0  0  0  0  0  0  0
   58.0810   23.7580   45.3050 C   0  0  0  0  0  0  0  0  0  0  0  0
   58.5240   25.0630   45.5670 C   0  0  0  0  0  0  0  0  0  0  0  0
   57.5260   28.5590   45.5480 N   0  0  0  0  0  0  0  0  0  0  0  0
   58.1440   29.6330   46.0140 N   0  0  0  0  0  0  0  0  0  0  0  0
   57.7680   30.9940   45.6010 C   0  0  0  0  0  0  0  0  0  0  0  0
   58.1330   32.0330   46.6870 C   0  0  0  0  0  0  0  0  0  0  0  0
   58.3360   33.4540   46.1220 C   0  0  0  0  0  0  0  0  0  0  0  0
   57.4640   33.7060   44.8850 C   0  0  0  0  0  0  0  0  0  0  0  0
   57.7830   32.7200   43.7400 C   0  0  0  0  0  0  0  0  0  0  0  0
   58.3560   31.3750   44.2320 C   0  0  0  0  0  0  0  0  0  0  0  0
   60.0270   31.0313   49.5441 H   0  0  0  0  0  0  0  0  0  0  0  0
   58.9788   29.5751   49.4586 H   0  0  0  0  0  0  0  0  0  0  0  0
   60.7662   29.3964   49.4586 H   0  0  0  0  0  0  0  0  0  0  0  0
   61.9115   30.8019   47.7766 H   0  0  0  0  0  0  0  0  0  0  0  0
   61.5591   29.7241   46.3835 H   0  0  0  0  0  0  0  0  0  0  0  0
   60.9590   31.4172   46.3835 H   0  0  0  0  0  0  0  0  0  0  0  0
   59.6570   27.2287   47.6926 H   0  0  0  0  0  0  0  0  0  0  0  0
   55.5002   26.5607   46.1414 H   0  0  0  0  0  0  0  0  0  0  0  0
   54.7081   24.2461   45.6780 H   0  0  0  0  0  0  0  0  0  0  0  0
   55.1984   21.9070   45.1098 H   0  0  0  0  0  0  0  0  0  0  0  0
   56.8838   20.1394   44.5766 H   0  0  0  0  0  0  0  0  0  0  0  0
   59.2290   20.7210   44.5250 H   0  0  0  0  0  0  0  0  0  0  0  0
   60.0673   22.9477   44.9661 H   0  0  0  0  0  0  0  0  0  0  0  0
   59.5996   25.2913   45.5354 H   0  0  0  0  0  0  0  0  0  0  0  0
   56.6742   31.0010   45.4850 H   0  0  0  0  0  0  0  0  0  0  0  0
   57.3212   32.0639   47.4286 H   0  0  0  0  0  0  0  0  0  0  0  0
   59.0877   31.7185   47.1338 H   0  0  0  0  0  0  0  0  0  0  0  0
   58.0722   34.1869   46.8987 H   0  0  0  0  0  0  0  0  0  0  0  0
   59.3898   33.5556   45.8236 H   0  0  0  0  0  0  0  0  0  0  0  0
   56.4068   33.5924   45.1669 H   0  0  0  0  0  0  0  0  0  0  0  0
   57.6732   34.7239   44.5242 H   0  0  0  0  0  0  0  0  0  0  0  0
   56.8558   32.5210   43.1826 H   0  0  0  0  0  0  0  0  0  0  0  0
   58.5531   33.1906   43.1111 H   0  0  0  0  0  0  0  0  0  0  0  0
   58.1079   30.5898   43.5027 H   0  0  0  0  0  0  0  0  0  0  0  0
   59.4467   31.4748   44.3342 H   0  0  0  0  0  0  0  0  0  0  0  0
  1  2  1  0
  2  3  1  0
  2  4  1  0
  4  5  2  0
  5  6  1  0
  6  7  1  0
  7  8  2  0
  8  9  1  0
  9 10  2  0
 10 11  1  0
 11 12  2  0
 12 13  1  0
 13 14  2  0
 14 15  1  0
 15 16  2  0
  6 17  2  0
 17 18  1  0
 18 19  1  0
 19 20  1  0
 20 21  1  0
 21 22  1  0
 22 23  1  0
 23 24  1  0
 18  4  1  0
 24 19  1  0
 16  7  1  0
 15 10  1  0
  1 25  1  0
  1 26  1  0
  1 27  1  0
  3 28  1  0
  3 29  1  0
  3 30  1  0
  5 31  1  0
  8 32  1  0
  9 33  1  0
 11 34  1  0
 12 35  1  0
 13 36  1  0
 14 37  1  0
 16 38  1  0
 19 39  1  0
 20 40  1  0
 20 41  1  0
 21 42  1  0
 21 43  1  0
 22 44  1  0
 22 45  1  0
 23 46  1  0
 23 47  1  0
 24 48  1  0
 24 49  1  0
M  CHG  1  13   1
M  END
>  <UniqueID>  (22) 
21

>  <SMILES>  (22) 
CN(C)c1cc(-c2ccc3cc[nH+]cc3c2)nn1C1CCCCC1

>  <Energy>  (22) 
93.79286795852015

>  <Genealogy>  (22) 
CN(C)c1cc(-c2ccc3cc[nH+]cc3c2)nn1C1CCCCC1 (protonated)
CN(C)c1cc(-c2ccc3cc[nH+]cc3c2)nn1C1CCCCC1 (3D coordinates assigned)
CN(C)c1cc(-c2ccc3cc[nH+]cc3c2)nn1C1CCCCC1 (nonaromatic ring conformer: 93.79286795852015 kcal/mol)

>  <smiles>  (22) 
CN(C)c1cc(-c2ccc3ccncc3c2)nn1C1CCCCC1

>  <score_type>  (22) 
oracle

>  <origin>  (22) 
adg

>  <m_score__min__energy>  (22) 
-6.54

>  <m_primary>  (22) 
energy

$$$$
22:0
     RDKit          3D

 44 47  0  0  0  0  0  0  0  0999 V2000
   57.3350   23.0280   44.0920 C   0  0  0  0  0  0  0  0  0  0  0  0
   57.1890   24.2900   43.3730 N   0  0  0  0  0  0  0  0  0  0  0  0
   57.4140   25.5780   43.9740 C   0  0  0  0  0  0  0  0  0  0  0  0
   58.0090   26.5970   43.2130 C   0  0  0  0  0  0  0  0  0  0  0  0
   58.2420   27.8580   43.7700 C   0  0  0  0  0  0  0  0  0  0  0  0
   57.8700   28.1310   45.0950 C   0  0  0  0  0  0  0  0  0  0  0  0
   58.1430   29.4680   45.6750 C   0  0  0  0  0  0  0  0  0  0  0  0
   57.6590   30.5600   45.0380 N   0  0  0  0  0  0  0  0  0  0  0  0
   57.8770   31.8120   45.5000 C   0  0  0  0  0  0  0  0  0  0  0  0
   57.3630   32.9040   44.7970 C   0  0  0  0  0  0  0  0  0  0  0  0
   57.5870   34.1660   45.2400 N   0  0  0  0  0  0  0  0  0  0  0  0
   58.3070   34.4050   46.3640 C   0  0  0  0  0  0  0  0  0  0  0  0
   58.8390   33.3460   47.1040 C   0  0  0  0  0  0  0  0  0  0  0  0
   58.6300   32.0100   46.6810 C   0  0  0  0  0  0  0  0  0  0  0  0
   59.1150   30.9050   47.3650 N   0  0  0  0  0  0  0  0  0  0  0  0
   59.9210   31.0180   48.6040 C   0  0  0  0  0  0  0  0  0  0  0  0
   61.2170   31.7460   48.3350 C   0  0  0  0  0  0  0  0  0  0  0  0
   62.1340   31.2370   47.3990 C   0  0  0  0  0  0  0  0  0  0  0  0
   63.3220   31.9220   47.1270 C   0  0  0  0  0  0  0  0  0  0  0  0
   63.6040   33.1210   47.7860 C   0  0  0  0  0  0  0  0  0  0  0  0
   62.6980   33.6370   48.7150 C   0  0  0  0  0  0  0  0  0  0  0  0
   62.9720   34.8030   49.3520 F   0  0  0  0  0  0  0  0  0  0  0  0
   61.5080   32.9550   48.9900 C   0  0  0  0  0  0  0  0  0  0  0  0
   58.8690   29.6410   46.8700 C   0  0  0  0  0  0  0  0  0  0  0  0
   59.2730   28.6220   47.4990 O   0  0  0  0  0  0  0  0  0  0  0  0
   57.2900   27.1080   45.8650 C   0  0  0  0  0  0  0  0  0  0  0  0
   57.0600   25.8460   45.3090 C   0  0  0  0  0  0  0  0  0  0  0  0
   57.3130   23.2184   45.1752 H   0  0  0  0  0  0  0  0  0  0  0  0
   56.5088   22.3541   43.8213 H   0  0  0  0  0  0  0  0  0  0  0  0
   58.2932   22.5605   43.8213 H   0  0  0  0  0  0  0  0  0  0  0  0
   56.9010   24.2440   42.3690 H   0  0  0  0  0  0  0  0  0  0  0  0
   58.2945   26.4013   42.1689 H   0  0  0  0  0  0  0  0  0  0  0  0
   58.7206   28.6420   43.1648 H   0  0  0  0  0  0  0  0  0  0  0  0
   56.7751   32.7400   43.8819 H   0  0  0  0  0  0  0  0  0  0  0  0
   58.4735   35.4405   46.6957 H   0  0  0  0  0  0  0  0  0  0  0  0
   59.4203   33.5496   48.0154 H   0  0  0  0  0  0  0  0  0  0  0  0
   59.3455   31.5730   49.3595 H   0  0  0  0  0  0  0  0  0  0  0  0
   60.1533   30.0062   48.9676 H   0  0  0  0  0  0  0  0  0  0  0  0
   61.9154   30.2936   46.8772 H   0  0  0  0  0  0  0  0  0  0  0  0
   64.0349   31.5167   46.3938 H   0  0  0  0  0  0  0  0  0  0  0  0
   64.5397   33.6587   47.5731 H   0  0  0  0  0  0  0  0  0  0  0  0
   60.7972   33.3665   49.7217 H   0  0  0  0  0  0  0  0  0  0  0  0
   57.0152   27.3017   46.9123 H   0  0  0  0  0  0  0  0  0  0  0  0
   56.5986   25.0563   45.9202 H   0  0  0  0  0  0  0  0  0  0  0  0
  1  2  1  0
  2  3  1  0
  3  4  2  0
  4  5  1  0
  5  6  2  0
  6  7  1  0
  7  8  2  0
  8  9  1  0
  9 10  2  0
 10 11  1  0
 11 12  2  0
 12 13  1  0
 13 14  2  0
 14 15  1  0
 15 16  1  0
 16 17  1  0
 17 18  2  0
 18 19  1  0
 19 20  2  0
 20 21  1  0
 21 22  1  0
 21 23  2  0
 15 24  1  0
 24 25  2  0
  6 26  1  0
 26 27  2  0
 27  3  1  0
 24  7  1  0
 14  9  1  0
 23 17  1  0
  1 28  1  0
  1 29  1  0
  1 30  1  0
  2 31  1  0
  4 32  1  0
  5 33  1  0
 10 34  1  0
 12 35  1  0
 13 36  1  0
 16 37  1  0
 16 38  1  0
 18 39  1  0
 19 40  1  0
 20 41  1  0
 23 42  1  0
 26 43  1  0
 27 44  1  0
M  END
>  <UniqueID>  (23) 
22

>  <SMILES>  (23) 
CNc1ccc(-c2nc3cnccc3n(Cc3cccc(F)c3)c2=O)cc1

>  <Energy>  (23) 
65.85575196261165

>  <Genealogy>  (23) 
CNc1ccc(-c2nc3cnccc3n(Cc3cccc(F)c3)c2=O)cc1 (3D coordinates assigned)
CNc1ccc(-c2nc3cnccc3n(Cc3cccc(F)c3)c2=O)cc1 (optimized conformer: 65.85575196261165 kcal/mol)

>  <smiles>  (23) 
CNc1ccc(-c2nc3cnccc3n(Cc3cccc(F)c3)c2=O)cc1

>  <score_type>  (23) 
oracle

>  <origin>  (23) 
adg

>  <m_score__min__energy>  (23) 
-7.5199999999999996

>  <m_primary>  (23) 
energy

$$$$
23:0
     RDKit          3D

 55 58  0  0  0  0  0  0  0  0999 V2000
   59.2720   34.5550   45.1790 C   0  0  0  0  0  0  0  0  0  0  0  0
   59.2540   34.9940   46.6380 C   0  0  0  0  0  0  0  0  0  0  0  0
   60.4990   34.5440   47.3040 N   0  0  0  0  0  0  0  0  0  0  0  0
   61.4170   33.8260   46.3900 C   0  0  0  0  0  0  0  0  0  0  0  0
   62.7770   33.4900   47.0200 C   0  0  0  0  0  0  0  0  0  0  0  0
   60.2620   33.8080   48.5640 C   0  0  0  0  0  0  0  0  0  0  0  0
   58.8870   33.1330   48.5540 C   0  0  0  0  0  0  0  0  0  0  0  0
   58.9440   31.8550   49.2690 N   0  0  0  0  0  0  0  0  0  0  0  0
   59.2770   30.6250   48.7810 C   0  0  0  0  0  0  0  0  0  0  0  0
   59.8030   30.3560   47.3920 C   0  0  0  0  0  0  0  0  0  0  0  0
   58.8850   29.4940   46.6210 N   0  0  0  0  0  0  0  0  0  0  0  0
   58.6840   28.1230   47.0190 C   0  0  0  0  0  0  0  0  0  0  0  0
   59.5420   27.5170   47.7170 O   0  0  0  0  0  0  0  0  0  0  0  0
   57.3930   27.4390   46.6830 C   0  0  0  0  0  0  0  0  0  0  0  0
   56.8930   27.8780   45.4220 O   0  0  0  0  0  0  0  0  0  0  0  0
   57.1550   29.1460   44.8950 C   0  0  0  0  0  0  0  0  0  0  0  0
   56.4430   29.5730   43.7690 C   0  0  0  0  0  0  0  0  0  0  0  0
   56.7130   30.8160   43.1960 C   0  0  0  0  0  0  0  0  0  0  0  0
   57.7090   31.6300   43.7350 C   0  0  0  0  0  0  0  0  0  0  0  0
   58.4310   31.2090   44.8560 C   0  0  0  0  0  0  0  0  0  0  0  0
   58.1470   29.9710   45.4680 C   0  0  0  0  0  0  0  0  0  0  0  0
   59.0310   29.6330   49.6750 N   0  0  0  0  0  0  0  0  0  0  0  0
   58.5370   30.2630   50.7510 C   0  0  0  0  0  0  0  0  0  0  0  0
   58.0850   29.7040   51.9440 C   0  0  0  0  0  0  0  0  0  0  0  0
   57.5590   30.5760   52.9150 C   0  0  0  0  0  0  0  0  0  0  0  0
   57.4880   31.9650   52.6670 C   0  0  0  0  0  0  0  0  0  0  0  0
   57.9450   32.4960   51.4470 C   0  0  0  0  0  0  0  0  0  0  0  0
   58.4750   31.6050   50.5090 C   0  0  0  0  0  0  0  0  0  0  0  0
   59.3170   33.4572   45.1270 H   0  0  0  0  0  0  0  0  0  0  0  0
   58.3586   34.9087   44.6784 H   0  0  0  0  0  0  0  0  0  0  0  0
   60.1534   34.9823   44.6784 H   0  0  0  0  0  0  0  0  0  0  0  0
   59.1859   36.0906   46.6902 H   0  0  0  0  0  0  0  0  0  0  0  0
   58.3852   34.5484   47.1446 H   0  0  0  0  0  0  0  0  0  0  0  0
   60.9354   32.8863   46.0816 H   0  0  0  0  0  0  0  0  0  0  0  0
   61.6131   34.4957   45.5397 H   0  0  0  0  0  0  0  0  0  0  0  0
   62.6887   33.5118   48.1162 H   0  0  0  0  0  0  0  0  0  0  0  0
   63.0927   32.4869   46.6975 H   0  0  0  0  0  0  0  0  0  0  0  0
   63.5235   34.2307   46.6975 H   0  0  0  0  0  0  0  0  0  0  0  0
   61.0395   33.0391   48.6834 H   0  0  0  0  0  0  0  0  0  0  0  0
   60.2960   34.5227   49.3995 H   0  0  0  0  0  0  0  0  0  0  0  0
   58.1556   33.7916   49.0452 H   0  0  0  0  0  0  0  0  0  0  0  0
   58.5863   32.9477   47.5123 H   0  0  0  0  0  0  0  0  0  0  0  0
   59.9220   31.3134   46.8636 H   0  0  0  0  0  0  0  0  0  0  0  0
   60.7678   29.8358   47.4841 H   0  0  0  0  0  0  0  0  0  0  0  0
   57.5614   26.3526   46.6443 H   0  0  0  0  0  0  0  0  0  0  0  0
   56.6534   27.6880   47.4582 H   0  0  0  0  0  0  0  0  0  0  0  0
   55.6671   28.9261   43.3337 H   0  0  0  0  0  0  0  0  0  0  0  0
   56.1406   31.1539   42.3195 H   0  0  0  0  0  0  0  0  0  0  0  0
   57.9272   32.6060   43.2769 H   0  0  0  0  0  0  0  0  0  0  0  0
   59.2272   31.8491   45.2638 H   0  0  0  0  0  0  0  0  0  0  0  0
   59.1530   28.6030   49.5450 H   0  0  0  0  0  0  0  0  0  0  0  0
   58.1374   28.6196   52.1208 H   0  0  0  0  0  0  0  0  0  0  0  0
   57.2006   30.1734   53.8739 H   0  0  0  0  0  0  0  0  0  0  0  0
   57.0725   32.6360   53.4332 H   0  0  0  0  0  0  0  0  0  0  0  0
   57.8873   33.5745   51.2384 H   0  0  0  0  0  0  0  0  0  0  0  0
  1  2  1  0
  2  3  1  0
  3  4  1  0
  4  5  1  0
  3  6  1  0
  6  7  1  0
  7  8  1  0
  8  9  1  0
  9 10  1  0
 10 11  1  0
 11 12  1  0
 12 13  2  0
 12 14  1  0
 14 15  1  0
 15 16  1  0
 16 17  2  0
 17 18  1  0
 18 19  2  0
 19 20  1  0
 20 21  2  0
  9 22  2  0
 22 23  1  0
 23 24  2  0
 24 25  1  0
 25 26  2  0
 26 27  1  0
 27 28  2  0
 28  8  1  0
 21 11  1  0
 28 23  1  0
 21 16  1  0
  1 29  1  0
  1 30  1  0
  1 31  1  0
  2 32  1  0
  2 33  1  0
  4 34  1  0
  4 35  1  0
  5 36  1  0
  5 37  1  0
  5 38  1  0
  6 39  1  0
  6 40  1  0
  7 41  1  0
  7 42  1  0
 10 43  1  0
 10 44  1  0
 14 45  1  0
 14 46  1  0
 17 47  1  0
 18 48  1  0
 19 49  1  0
 20 50  1  0
 22 51  1  0
 24 52  1  0
 25 53  1  0
 26 54  1  0
 27 55  1  0
M  CHG  1  22   1
M  END
>  <UniqueID>  (24) 
23

>  <SMILES>  (24) 
CCN(CC)CCn1c(CN2C(=O)COc3ccccc32)[nH+]c2ccccc21

>  <Energy>  (24) 
100.67224441107933

>  <Genealogy>  (24) 
CCN(CC)CCn1c(CN2C(=O)COc3ccccc32)[nH+]c2ccccc21 (protonated)
CCN(CC)CCn1c(CN2C(=O)COc3ccccc32)[nH+]c2ccccc21 (3D coordinates assigned)
CCN(CC)CCn1c(CN2C(=O)COc3ccccc32)[nH+]c2ccccc21 (nonaromatic ring conformer: 100.67224441107933 kcal/mol)

>  <smiles>  (24) 
CCN(CC)CCn1c(CN2C(=O)COc3ccccc32)nc2ccccc21

>  <score_type>  (24) 
oracle

>  <origin>  (24) 
adg

>  <m_score__min__energy>  (24) 
-5.6900000000000004

>  <m_primary>  (24) 
energy

$$$$
24:0
     RDKit          3D

 61 64  0  0  0  0  0  0  0  0999 V2000
   63.8800   33.7760   49.7340 C   0  0  0  0  0  0  0  0  0  0  0  0
   62.3870   33.7860   49.8120 C   0  0  0  0  0  0  0  0  0  0  0  0
   61.6170   33.8370   48.6440 C   0  0  0  0  0  0  0  0  0  0  0  0
   60.2190   33.8670   48.7340 C   0  0  0  0  0  0  0  0  0  0  0  0
   59.4100   33.9050   47.5430 N   0  0  0  0  0  0  0  0  0  0  0  0
   59.9560   34.4990   46.3120 C   0  0  0  0  0  0  0  0  0  0  0  0
   59.0020   34.3270   45.1220 C   0  0  0  0  0  0  0  0  0  0  0  0
   58.4500   32.9620   45.0800 N   0  0  0  0  0  0  0  0  0  0  0  0
   58.1480   32.3620   43.8000 C   0  0  0  0  0  0  0  0  0  0  0  0
   58.0590   33.0970   42.7770 O   0  0  0  0  0  0  0  0  0  0  0  0
   57.8920   30.8750   43.6510 C   0  0  2  0  0  0  0  0  0  0  0  0
   56.4540   30.5010   44.0830 C   0  0  0  0  0  0  0  0  0  0  0  0
   56.3470   29.0460   44.5730 C   0  0  0  0  0  0  0  0  0  0  0  0
   57.4100   28.1540   43.9170 C   0  0  0  0  0  0  0  0  0  0  0  0
   58.7980   28.6050   44.2080 N   0  0  0  0  0  0  0  0  0  0  0  0
   59.4050   27.8180   45.3030 C   0  0  0  0  0  0  0  0  0  0  0  0
   59.6410   28.6790   46.5180 C   0  0  0  0  0  0  0  0  0  0  0  0
   60.7940   29.4780   46.6000 C   0  0  0  0  0  0  0  0  0  0  0  0
   61.0020   30.3030   47.7090 C   0  0  0  0  0  0  0  0  0  0  0  0
   60.0590   30.3410   48.7400 C   0  0  0  0  0  0  0  0  0  0  0  0
   58.9060   29.5560   48.6620 C   0  0  0  0  0  0  0  0  0  0  0  0
   58.6930   28.7280   47.5540 C   0  0  0  0  0  0  0  0  0  0  0  0
   58.9210   30.0660   44.4580 C   0  0  0  0  0  0  0  0  0  0  0  0
   58.0060   32.3140   46.3290 C   0  0  0  0  0  0  0  0  0  0  0  0
   58.0860   33.2740   47.5160 C   0  0  0  0  0  0  0  0  0  0  0  0
   59.6170   33.8400   50.0000 C   0  0  0  0  0  0  0  0  0  0  0  0
   60.4170   33.7990   51.1480 C   0  0  0  0  0  0  0  0  0  0  0  0
   59.7910   33.7630   52.5050 C   0  0  0  0  0  0  0  0  0  0  0  0
   61.7720   33.7730   51.0260 N   0  0  0  0  0  0  0  0  0  0  0  0
   64.3003   33.7732   50.7506 H   0  0  0  0  0  0  0  0  0  0  0  0
   64.2131   32.8756   49.1970 H   0  0  0  0  0  0  0  0  0  0  0  0
   64.2251   34.6719   49.1970 H   0  0  0  0  0  0  0  0  0  0  0  0
   62.1075   33.8535   47.6595 H   0  0  0  0  0  0  0  0  0  0  0  0
   60.1252   35.5729   46.4799 H   0  0  0  0  0  0  0  0  0  0  0  0
   60.8970   33.9822   46.0722 H   0  0  0  0  0  0  0  0  0  0  0  0
   58.1753   35.0464   45.2170 H   0  0  0  0  0  0  0  0  0  0  0  0
   59.5644   34.5060   44.1937 H   0  0  0  0  0  0  0  0  0  0  0  0
   57.9998   30.6236   42.5856 H   0  0  0  0  0  0  0  0  0  0  0  0
   56.1446   31.1717   44.8981 H   0  0  0  0  0  0  0  0  0  0  0  0
   55.8019   30.6070   43.2035 H   0  0  0  0  0  0  0  0  0  0  0  0
   56.4858   29.0247   45.6640 H   0  0  0  0  0  0  0  0  0  0  0  0
   55.3542   28.6604   44.2980 H   0  0  0  0  0  0  0  0  0  0  0  0
   57.2878   27.1272   44.2921 H   0  0  0  0  0  0  0  0  0  0  0  0
   57.2642   28.2097   42.8281 H   0  0  0  0  0  0  0  0  0  0  0  0
   58.7283   26.9935   45.5719 H   0  0  0  0  0  0  0  0  0  0  0  0
   60.3725   27.4243   44.9581 H   0  0  0  0  0  0  0  0  0  0  0  0
   61.5359   29.4541   45.7882 H   0  0  0  0  0  0  0  0  0  0  0  0
   61.9086   30.9229   47.7704 H   0  0  0  0  0  0  0  0  0  0  0  0
   60.2248   30.9892   49.6131 H   0  0  0  0  0  0  0  0  0  0  0  0
   58.1639   29.5888   49.4733 H   0  0  0  0  0  0  0  0  0  0  0  0
   57.7819   28.1145   47.4940 H   0  0  0  0  0  0  0  0  0  0  0  0
   58.7628   30.2579   45.5295 H   0  0  0  0  0  0  0  0  0  0  0  0
   59.9262   30.3822   44.1424 H   0  0  0  0  0  0  0  0  0  0  0  0
   56.9648   31.9805   46.2083 H   0  0  0  0  0  0  0  0  0  0  0  0
   58.6694   31.4599   46.5300 H   0  0  0  0  0  0  0  0  0  0  0  0
   57.3120   34.0489   47.4142 H   0  0  0  0  0  0  0  0  0  0  0  0
   57.9249   32.7171   48.4508 H   0  0  0  0  0  0  0  0  0  0  0  0
   58.5208   33.8510   50.0907 H   0  0  0  0  0  0  0  0  0  0  0  0
   60.5773   33.8082   53.2729 H   0  0  0  0  0  0  0  0  0  0  0  0
   59.1159   34.6238   52.6203 H   0  0  0  0  0  0  0  0  0  0  0  0
   59.2191   32.8305   52.6203 H   0  0  0  0  0  0  0  0  0  0  0  0
  1  2  1  0
  2  3  2  0
  3  4  1  0
  4  5  1  0
  5  6  1  0
  6  7  1  0
  7  8  1  0
  8  9  1  0
  9 10  2  0
  9 11  1  0
 11 12  1  0
 12 13  1  0
 13 14  1  0
 14 15  1  0
 15 16  1  0
 16 17  1  0
 17 18  2  0
 18 19  1  0
 19 20  2  0
 20 21  1  0
 21 22  2  0
 15 23  1  0
  8 24  1  0
 24 25  1  0
  4 26  2  0
 26 27  1  0
 27 28  1  0
 27 29  2  0
 29  2  1  0
 25  5  1  0
 23 11  1  0
 22 17  1  0
  1 30  1  0
  1 31  1  0
  1 32  1  0
  3 33  1  0
  6 34  1  0
  6 35  1  0
  7 36  1  0
  7 37  1  0
 11 38  1  6
 12 39  1  0
 12 40  1  0
 13 41  1  0
 13 42  1  0
 14 43  1  0
 14 44  1  0
 16 45  1  0
 16 46  1  0
 18 47  1  0
 19 48  1  0
 20 49  1  0
 21 50  1  0
 22 51  1  0
 23 52  1  0
 23 53  1  0
 24 54  1  0
 24 55  1  0
 25 56  1  0
 25 57  1  0
 26 58  1  0
 28 59  1  0
 28 60  1  0
 28 61  1  0
M  END
>  <UniqueID>  (25) 
24

>  <SMILES>  (25) 
Cc1cc(N2CCN(C(=O)[C@@H]3CCCN(Cc4ccccc4)C3)CC2)cc(C)n1

>  <Energy>  (25) 
74.6343355171138

>  <Genealogy>  (25) 
Cc1cc(N2CCN(C(=O)[C@@H]3CCCN(Cc4ccccc4)C3)CC2)cc(C)n1 (chirality)
Cc1cc(N2CCN(C(=O)[C@@H]3CCCN(Cc4ccccc4)C3)CC2)cc(C)n1 (3D coordinates assigned)
Cc1cc(N2CCN(C(=O)[C@@H]3CCCN(Cc4ccccc4)C3)CC2)cc(C)n1 (nonaromatic ring conformer: 74.6343355171138 kcal/mol)

>  <smiles>  (25) 
Cc1cc(N2CCN(C(=O)C3CCCN(Cc4ccccc4)C3)CC2)cc(C)n1

>  <score_type>  (25) 
oracle

>  <origin>  (25) 
adg

>  <m_score__min__energy>  (25) 
-8.5700000000000003

>  <m_primary>  (25) 
energy

$$$$
25:0
     RDKit          3D

 50 53  0  0  0  0  0  0  0  0999 V2000
   60.2030   29.9120   48.2350 C   0  0  0  0  0  0  0  0  0  0  0  0
   60.2040   29.6280   46.8390 O   0  0  0  0  0  0  0  0  0  0  0  0
   59.5020   28.5700   46.2360 C   0  0  0  0  0  0  0  0  0  0  0  0
   59.9680   27.2410   46.3180 C   0  0  0  0  0  0  0  0  0  0  0  0
   59.2750   26.2060   45.6900 C   0  0  0  0  0  0  0  0  0  0  0  0
   58.1110   26.4770   44.9760 C   0  0  0  0  0  0  0  0  0  0  0  0
   57.6320   27.7850   44.8870 C   0  0  0  0  0  0  0  0  0  0  0  0
   58.3110   28.8430   45.5180 C   0  0  0  0  0  0  0  0  0  0  0  0
   57.7640   30.2170   45.4140 C   0  0  0  0  0  0  0  0  0  0  0  0
   56.6660   30.5330   44.6940 N   0  0  0  0  0  0  0  0  0  0  0  0
   56.5080   31.8090   44.8640 O   0  0  0  0  0  0  0  0  0  0  0  0
   57.4500   32.2720   45.6470 C   0  0  0  0  0  0  0  0  0  0  0  0
   57.5780   33.7160   46.0560 C   0  0  0  0  0  0  0  0  0  0  0  0
   58.1330   33.8420   47.5040 C   0  0  0  0  0  0  0  0  0  0  0  0
   59.4890   34.5560   47.5770 C   0  0  0  0  0  0  0  0  0  0  0  0
   60.3630   34.0950   46.4920 N   0  0  0  0  0  0  0  0  0  0  0  0
   61.6780   33.5830   46.7650 C   0  0  0  0  0  0  0  0  0  0  0  0
   62.6200   33.8230   45.9620 O   0  0  0  0  0  0  0  0  0  0  0  0
   61.9150   32.7660   47.9240 N   0  0  0  0  0  0  0  0  0  0  0  0
   63.2490   32.2920   48.2900 C   0  0  0  0  0  0  0  0  0  0  0  0
   64.1220   33.3870   48.9350 C   0  0  0  0  0  0  0  0  0  0  0  0
   65.2250   32.8200   49.8240 C   0  0  0  0  0  0  0  0  0  0  0  0
   64.0860   33.6070   50.4480 C   0  0  0  0  0  0  0  0  0  0  0  0
   59.9050   34.1900   45.0990 C   0  0  0  0  0  0  0  0  0  0  0  0
   58.4030   34.5110   45.0180 C   0  0  0  0  0  0  0  0  0  0  0  0
   58.2900   31.2940   46.0380 N   0  0  0  0  0  0  0  0  0  0  0  0
   60.2063   28.9688   48.8011 H   0  0  0  0  0  0  0  0  0  0  0  0
   61.0991   30.4964   48.4909 H   0  0  0  0  0  0  0  0  0  0  0  0
   59.3028   30.4901   48.4909 H   0  0  0  0  0  0  0  0  0  0  0  0
   60.8859   27.0189   46.8821 H   0  0  0  0  0  0  0  0  0  0  0  0
   59.6489   25.1738   45.7591 H   0  0  0  0  0  0  0  0  0  0  0  0
   57.5677   25.6586   44.4810 H   0  0  0  0  0  0  0  0  0  0  0  0
   56.7137   27.9906   44.3173 H   0  0  0  0  0  0  0  0  0  0  0  0
   56.5755   34.1684   46.0713 H   0  0  0  0  0  0  0  0  0  0  0  0
   57.4080   34.4081   48.1072 H   0  0  0  0  0  0  0  0  0  0  0  0
   58.2829   32.8208   47.8842 H   0  0  0  0  0  0  0  0  0  0  0  0
   59.3340   35.6409   47.4828 H   0  0  0  0  0  0  0  0  0  0  0  0
   59.9639   34.3272   48.5425 H   0  0  0  0  0  0  0  0  0  0  0  0
   61.0980   32.3940   48.4590 H   0  0  0  0  0  0  0  0  0  0  0  0
   63.1424   31.4626   49.0047 H   0  0  0  0  0  0  0  0  0  0  0  0
   63.7507   31.9745   47.3640 H   0  0  0  0  0  0  0  0  0  0  0  0
   64.0239   34.0782   48.0849 H   0  0  0  0  0  0  0  0  0  0  0  0
   65.2959   31.7343   49.9862 H   0  0  0  0  0  0  0  0  0  0  0  0
   66.3222   32.8957   49.8429 H   0  0  0  0  0  0  0  0  0  0  0  0
   63.3322   33.0910   51.0608 H   0  0  0  0  0  0  0  0  0  0  0  0
   64.0173   34.4872   51.1041 H   0  0  0  0  0  0  0  0  0  0  0  0
   60.4683   34.9869   44.5915 H   0  0  0  0  0  0  0  0  0  0  0  0
   60.0760   33.2179   44.6133 H   0  0  0  0  0  0  0  0  0  0  0  0
   58.2604   35.5863   45.2009 H   0  0  0  0  0  0  0  0  0  0  0  0
   58.0505   34.2245   44.0162 H   0  0  0  0  0  0  0  0  0  0  0  0
  1  2  1  0
  2  3  1  0
  3  4  2  0
  4  5  1  0
  5  6  2  0
  6  7  1  0
  7  8  2  0
  8  9  1  0
  9 10  2  0
 10 11  1  0
 11 12  1  0
 12 13  1  0
 13 14  1  0
 14 15  1  0
 15 16  1  0
 16 17  1  0
 17 18  2  0
 17 19  1  0
 19 20  1  0
 20 21  1  0
 21 22  1  0
 22 23  1  0
 16 24  1  0
 24 25  1  0
 12 26  2  0
  8  3  1  0
 26  9  1  0
 25 13  1  0
 23 21  1  0
  1 27  1  0
  1 28  1  0
  1 29  1  0
  4 30  1  0
  5 31  1  0
  6 32  1  0
  7 33  1  0
 13 34  1  0
 14 35  1  0
 14 36  1  0
 15 37  1  0
 15 38  1  0
 19 39  1  0
 20 40  1  0
 20 41  1  0
 21 42  1  0
 22 43  1  0
 22 44  1  0
 23 45  1  0
 23 46  1  0
 24 47  1  0
 24 48  1  0
 25 49  1  0
 25 50  1  0
M  END
>  <UniqueID>  (26) 
25

>  <SMILES>  (26) 
COc1ccccc1-c1noc(C2CCN(C(=O)NCC3CC3)CC2)n1

>  <Energy>  (26) 
352.2541064630299

>  <Genealogy>  (26) 
COc1ccccc1-c1noc(C2CCN(C(=O)NCC3CC3)CC2)n1 (3D coordinates assigned)
COc1ccccc1-c1noc(C2CCN(C(=O)NCC3CC3)CC2)n1 (nonaromatic ring conformer: 352.2541064630299 kcal/mol)

>  <smiles>  (26) 
COc1ccccc1-c1noc(C2CCN(C(=O)NCC3CC3)CC2)n1

>  <score_type>  (26) 
oracle

>  <origin>  (26) 
adg

>  <m_score__min__energy>  (26) 
-8.3100000000000005

>  <m_primary>  (26) 
energy

$$$$
26:0
     RDKit          3D

 38 38  0  0  0  0  0  0  0  0999 V2000
   58.0250   26.4540   46.7750 C   0  0  0  0  0  0  0  0  0  0  0  0
   57.0570   26.2990   45.6040 C   0  0  0  0  0  0  0  0  0  0  0  0
   57.7700   26.1870   44.2450 C   0  0  0  0  0  0  0  0  0  0  0  0
   58.5470   27.4610   43.8490 C   0  0  0  0  0  0  0  0  0  0  0  0
   57.6400   28.5330   43.4060 N   0  0  0  0  0  0  0  0  0  0  0  0
   57.8860   29.7420   44.1620 C   0  0  0  0  0  0  0  0  0  0  0  0
   58.4060   29.6370   45.4620 C   0  0  0  0  0  0  0  0  0  0  0  0
   58.6410   30.7720   46.2360 C   0  0  0  0  0  0  0  0  0  0  0  0
   58.3580   32.0560   45.7360 C   0  0  0  0  0  0  0  0  0  0  0  0
   58.6090   33.2380   46.5400 N   0  0  0  0  0  0  0  0  0  0  0  0
   58.6090   33.1560   48.0060 C   0  0  0  0  0  0  0  0  0  0  0  0
   58.8680   34.5350   45.9020 C   0  0  0  0  0  0  0  0  0  0  0  0
   57.8270   32.1660   44.4360 C   0  0  0  0  0  0  0  0  0  0  0  0
   57.5760   31.0270   43.6490 C   0  0  0  0  0  0  0  0  0  0  0  0
   57.0210   31.2120   42.2590 C   0  0  0  0  0  0  0  0  0  0  0  0
   57.4722   26.3655   47.7219 H   0  0  0  0  0  0  0  0  0  0  0  0
   58.7920   25.6672   46.7233 H   0  0  0  0  0  0  0  0  0  0  0  0
   58.5080   27.4409   46.7233 H   0  0  0  0  0  0  0  0  0  0  0  0
   56.4587   25.3896   45.7619 H   0  0  0  0  0  0  0  0  0  0  0  0
   56.4305   27.2026   45.5733 H   0  0  0  0  0  0  0  0  0  0  0  0
   58.4792   25.3475   44.2923 H   0  0  0  0  0  0  0  0  0  0  0  0
   56.9913   26.0337   43.4833 H   0  0  0  0  0  0  0  0  0  0  0  0
   59.1198   27.8147   44.7189 H   0  0  0  0  0  0  0  0  0  0  0  0
   59.2169   27.2098   43.0135 H   0  0  0  0  0  0  0  0  0  0  0  0
   57.7910   28.7300   42.3900 H   0  0  0  0  0  0  0  0  0  0  0  0
   56.6470   28.2250   43.5070 H   0  0  0  0  0  0  0  0  0  0  0  0
   58.6315   28.6432   45.8762 H   0  0  0  0  0  0  0  0  0  0  0  0
   59.0527   30.6624   47.2501 H   0  0  0  0  0  0  0  0  0  0  0  0
   59.6461   33.1355   48.3721 H   0  0  0  0  0  0  0  0  0  0  0  0
   58.0905   34.0323   48.4223 H   0  0  0  0  0  0  0  0  0  0  0  0
   58.0905   32.2388   48.3219 H   0  0  0  0  0  0  0  0  0  0  0  0
   59.0209   35.3007   46.6768 H   0  0  0  0  0  0  0  0  0  0  0  0
   59.7693   34.4620   45.2756 H   0  0  0  0  0  0  0  0  0  0  0  0
   58.0078   34.8138   45.2756 H   0  0  0  0  0  0  0  0  0  0  0  0
   57.6040   33.1628   44.0277 H   0  0  0  0  0  0  0  0  0  0  0  0
   55.9792   31.5593   42.3234 H   0  0  0  0  0  0  0  0  0  0  0  0
   57.6235   31.9579   41.7199 H   0  0  0  0  0  0  0  0  0  0  0  0
   57.0555   30.2538   41.7199 H   0  0  0  0  0  0  0  0  0  0  0  0
  1  2  1  0
  2  3  1  0
  3  4  1  0
  4  5  1  0
  5  6  1  0
  6  7  2  0
  7  8  1  0
  8  9  2  0
  9 10  1  0
 10 11  1  0
 10 12  1  0
  9 13  1  0
 13 14  2  0
 14 15  1  0
 14  6  1  0
  1 16  1  0
  1 17  1  0
  1 18  1  0
  2 19  1  0
  2 20  1  0
  3 21  1  0
  3 22  1  0
  4 23  1  0
  4 24  1  0
  5 25  1  0
  5 26  1  0
  7 27  1  0
  8 28  1  0
 11 29  1  0
 11 30  1  0
 11 31  1  0
 12 32  1  0
 12 33  1  0
 12 34  1  0
 13 35  1  0
 15 36  1  0
 15 37  1  0
 15 38  1  0
M  CHG  1   5   1
M  END
>  <UniqueID>  (27) 
26

>  <SMILES>  (27) 
CCCC[NH2+]c1ccc(N(C)C)cc1C

>  <Energy>  (27) 
35.14088725847009

>  <Genealogy>  (27) 
CCCC[NH2+]c1ccc(N(C)C)cc1C (protonated)
CCCC[NH2+]c1ccc(N(C)C)cc1C (3D coordinates assigned)
CCCC[NH2+]c1ccc(N(C)C)cc1C (optimized conformer: 35.14088725847009 kcal/mol)

>  <smiles>  (27) 
CCCCNc1ccc(N(C)C)cc1C

>  <score_type>  (27) 
oracle

>  <origin>  (27) 
adg

>  <m_score__min__energy>  (27) 
-3.9199999999999999

>  <m_primary>  (27) 
energy

$$$$
27:0
     RDKit          3D

 39 41  0  0  0  0  0  0  0  0999 V2000
   60.3330   26.7520   46.8530 C   0  0  0  0  0  0  0  0  0  0  0  0
   60.0620   27.3980   48.2080 C   0  0  0  0  0  0  0  0  0  0  0  0
   59.4270   28.7860   48.0420 C   0  0  0  0  0  0  0  0  0  0  0  0
   60.4160   29.8220   47.4630 C   0  0  0  0  0  0  0  0  0  0  0  0
   60.3740   29.9040   45.9920 N   0  0  0  0  0  0  0  0  0  0  0  0
   59.1660   30.5310   45.5130 C   0  0  0  0  0  0  0  0  0  0  0  0
   58.0150   29.8930   45.0490 C   0  0  0  0  0  0  0  0  0  0  0  0
   57.8130   28.4460   44.8440 C   0  0  0  0  0  0  0  0  0  0  0  0
   58.2580   27.8130   43.6730 C   0  0  0  0  0  0  0  0  0  0  0  0
   58.0560   26.4410   43.4950 C   0  0  0  0  0  0  0  0  0  0  0  0
   57.4000   25.6950   44.4790 C   0  0  0  0  0  0  0  0  0  0  0  0
   57.1270   23.8200   44.2340 Br  0  0  0  0  0  0  0  0  0  0  0  0
   56.9370   26.3240   45.6380 C   0  0  0  0  0  0  0  0  0  0  0  0
   57.1350   27.6960   45.8180 C   0  0  0  0  0  0  0  0  0  0  0  0
   57.0230   30.8010   44.8850 N   0  0  0  0  0  0  0  0  0  0  0  0
   57.6000   31.9690   45.2360 C   0  0  0  0  0  0  0  0  0  0  0  0
   56.9790   33.2130   45.2590 C   0  0  0  0  0  0  0  0  0  0  0  0
   57.7060   34.2860   45.6840 N   0  0  0  0  0  0  0  0  0  0  0  0
   59.0080   34.1590   46.0830 C   0  0  0  0  0  0  0  0  0  0  0  0
   59.6220   32.8980   46.0570 C   0  0  0  0  0  0  0  0  0  0  0  0
   58.8800   31.8430   45.6240 N   0  0  0  0  0  0  0  0  0  0  0  0
   60.7545   25.7472   47.0036 H   0  0  0  0  0  0  0  0  0  0  0  0
   59.3917   26.6740   46.2891 H   0  0  0  0  0  0  0  0  0  0  0  0
   61.0482   27.3689   46.2891 H   0  0  0  0  0  0  0  0  0  0  0  0
   59.3772   26.7560   48.7815 H   0  0  0  0  0  0  0  0  0  0  0  0
   61.0192   27.5130   48.7377 H   0  0  0  0  0  0  0  0  0  0  0  0
   58.5662   28.7014   47.3623 H   0  0  0  0  0  0  0  0  0  0  0  0
   59.1212   29.1358   49.0391 H   0  0  0  0  0  0  0  0  0  0  0  0
   60.1681   30.8110   47.8757 H   0  0  0  0  0  0  0  0  0  0  0  0
   61.4295   29.4999   47.7442 H   0  0  0  0  0  0  0  0  0  0  0  0
   61.2180   30.4070   45.6370 H   0  0  0  0  0  0  0  0  0  0  0  0
   60.4270   28.9370   45.6040 H   0  0  0  0  0  0  0  0  0  0  0  0
   58.7672   28.3981   42.8930 H   0  0  0  0  0  0  0  0  0  0  0  0
   58.4138   25.9476   42.5793 H   0  0  0  0  0  0  0  0  0  0  0  0
   56.4159   25.7385   46.4098 H   0  0  0  0  0  0  0  0  0  0  0  0
   56.7583   28.1897   46.7259 H   0  0  0  0  0  0  0  0  0  0  0  0
   55.9316   33.3284   44.9435 H   0  0  0  0  0  0  0  0  0  0  0  0
   59.5708   35.0411   46.4225 H   0  0  0  0  0  0  0  0  0  0  0  0
   60.6667   32.7668   46.3755 H   0  0  0  0  0  0  0  0  0  0  0  0
  1  2  1  0
  2  3  1  0
  3  4  1  0
  4  5  1  0
  5  6  1  0
  6  7  2  0
  7  8  1  0
  8  9  2  0
  9 10  1  0
 10 11  2  0
 11 12  1  0
 11 13  1  0
 13 14  2  0
  7 15  1  0
 15 16  2  0
 16 17  1  0
 17 18  2  0
 18 19  1  0
 19 20  2  0
 20 21  1  0
 21  6  1  0
 14  8  1  0
 21 16  1  0
  1 22  1  0
  1 23  1  0
  1 24  1  0
  2 25  1  0
  2 26  1  0
  3 27  1  0
  3 28  1  0
  4 29  1  0
  4 30  1  0
  5 31  1  0
  5 32  1  0
  9 33  1  0
 10 34  1  0
 13 35  1  0
 14 36  1  0
 17 37  1  0
 19 38  1  0
 20 39  1  0
M  CHG  1   5   1
M  END
>  <UniqueID>  (28) 
27

>  <SMILES>  (28) 
CCCC[NH2+]c1c(-c2ccc(Br)cc2)nc2cnccn12

>  <Energy>  (28) 
79.50209439142557

>  <Genealogy>  (28) 
CCCC[NH2+]c1c(-c2ccc(Br)cc2)nc2cnccn12 (protonated)
CCCC[NH2+]c1c(-c2ccc(Br)cc2)nc2cnccn12 (3D coordinates assigned)
CCCC[NH2+]c1c(-c2ccc(Br)cc2)nc2cnccn12 (optimized conformer: 79.50209439142557 kcal/mol)

>  <smiles>  (28) 
CCCCNc1c(-c2ccc(Br)cc2)nc2cnccn12

>  <score_type>  (28) 
oracle

>  <origin>  (28) 
adg

>  <m_score__min__energy>  (28) 
-5.3099999999999996

>  <m_primary>  (28) 
energy

$$$$
28:0
     RDKit          3D

 40 41  0  0  0  0  0  0  0  0999 V2000
   63.1780   33.4420   47.1230 C   0  0  0  0  0  0  0  0  0  0  0  0
   62.9550   31.9320   47.1530 C   0  0  0  0  0  0  0  0  0  0  0  0
   61.7970   31.5270   48.0780 C   0  0  0  0  0  0  0  0  0  0  0  0
   60.5080   31.5030   47.3550 N   0  0  0  0  0  0  0  0  0  0  0  0
   60.0950   30.3530   46.7180 C   0  0  0  0  0  0  0  0  0  0  0  0
   60.7890   29.3010   46.7480 O   0  0  0  0  0  0  0  0  0  0  0  0
   58.8910   30.3810   46.0260 C   0  0  0  0  0  0  0  0  0  0  0  0
   58.1490   31.5120   45.9860 C   0  0  0  0  0  0  0  0  0  0  0  0
   57.0380   31.3330   45.2430 N   0  0  0  0  0  0  0  0  0  0  0  0
   57.1550   30.0370   44.8450 C   0  0  0  0  0  0  0  0  0  0  0  0
   56.2170   29.3940   44.0350 O   0  0  0  0  0  0  0  0  0  0  0  0
   56.2740   29.4490   42.6150 C   0  0  0  0  0  0  0  0  0  0  0  0
   58.2740   29.4260   45.3080 N   0  0  0  0  0  0  0  0  0  0  0  0
   58.7120   28.0560   45.0530 C   0  0  0  0  0  0  0  0  0  0  0  0
   58.5310   32.6560   46.6160 N   0  0  0  0  0  0  0  0  0  0  0  0
   57.7100   33.8750   46.5120 C   0  0  0  0  0  0  0  0  0  0  0  0
   57.8470   34.4870   45.1150 C   0  0  0  0  0  0  0  0  0  0  0  0
   59.2670   34.9870   44.8660 C   0  0  0  0  0  0  0  0  0  0  0  0
   59.7310   32.6490   47.2950 C   0  0  0  0  0  0  0  0  0  0  0  0
   60.1270   33.7050   47.8680 O   0  0  0  0  0  0  0  0  0  0  0  0
   63.2345   33.8248   48.1527 H   0  0  0  0  0  0  0  0  0  0  0  0
   64.1186   33.6634   46.5974 H   0  0  0  0  0  0  0  0  0  0  0  0
   62.3416   33.9258   46.5974 H   0  0  0  0  0  0  0  0  0  0  0  0
   62.7285   31.5884   46.1329 H   0  0  0  0  0  0  0  0  0  0  0  0
   63.8724   31.4661   47.5420 H   0  0  0  0  0  0  0  0  0  0  0  0
   61.9977   30.5245   48.4838 H   0  0  0  0  0  0  0  0  0  0  0  0
   61.7253   32.2699   48.8861 H   0  0  0  0  0  0  0  0  0  0  0  0
   57.0338   30.1822   42.3067 H   0  0  0  0  0  0  0  0  0  0  0  0
   56.5398   28.4574   42.2200 H   0  0  0  0  0  0  0  0  0  0  0  0
   55.2925   29.7500   42.2200 H   0  0  0  0  0  0  0  0  0  0  0  0
   58.8771   27.5397   46.0102 H   0  0  0  0  0  0  0  0  0  0  0  0
   57.9389   27.5248   44.4784 H   0  0  0  0  0  0  0  0  0  0  0  0
   59.6499   28.0718   44.4784 H   0  0  0  0  0  0  0  0  0  0  0  0
   56.6558   33.6198   46.6952 H   0  0  0  0  0  0  0  0  0  0  0  0
   58.0549   34.6050   47.2591 H   0  0  0  0  0  0  0  0  0  0  0  0
   57.5990   33.7232   44.3632 H   0  0  0  0  0  0  0  0  0  0  0  0
   57.1596   35.3426   45.0417 H   0  0  0  0  0  0  0  0  0  0  0  0
   59.7678   35.1634   45.8294 H   0  0  0  0  0  0  0  0  0  0  0  0
   59.8267   34.2319   44.2946 H   0  0  0  0  0  0  0  0  0  0  0  0
   59.2301   35.9262   44.2946 H   0  0  0  0  0  0  0  0  0  0  0  0
  1  2  1  0
  2  3  1  0
  3  4  1  0
  4  5  1  0
  5  6  2  0
  5  7  1  0
  7  8  2  0
  8  9  1  0
  9 10  2  0
 10 11  1  0
 11 12  1  0
 10 13  1  0
 13 14  1  0
  8 15  1  0
 15 16  1  0
 16 17  1  0
 17 18  1  0
 15 19  1  0
 19 20  2  0
 19  4  1  0
 13  7  1  0
  1 21  1  0
  1 22  1  0
  1 23  1  0
  2 24  1  0
  2 25  1  0
  3 26  1  0
  3 27  1  0
 12 28  1  0
 12 29  1  0
 12 30  1  0
 14 31  1  0
 14 32  1  0
 14 33  1  0
 16 34  1  0
 16 35  1  0
 17 36  1  0
 17 37  1  0
 18 38  1  0
 18 39  1  0
 18 40  1  0
M  END
>  <UniqueID>  (29) 
28

>  <SMILES>  (29) 
CCCn1c(=O)c2c(nc(OC)n2C)n(CCC)c1=O

>  <Energy>  (29) 
72.72774835412766

>  <Genealogy>  (29) 
CCCn1c(=O)c2c(nc(OC)n2C)n(CCC)c1=O (3D coordinates assigned)
CCCn1c(=O)c2c(nc(OC)n2C)n(CCC)c1=O (optimized conformer: 72.72774835412766 kcal/mol)

>  <smiles>  (29) 
CCCn1c(=O)c2c(nc(OC)n2C)n(CCC)c1=O

>  <score_type>  (29) 
oracle

>  <origin>  (29) 
adg

>  <m_score__min__energy>  (29) 
-5.6600000000000001

>  <m_primary>  (29) 
energy

$$$$
29:0
     RDKit          3D

 54 56  0  0  0  0  0  0  0  0999 V2000
   58.1360   27.0340   42.6490 C   0  0  0  0  0  0  0  0  0  0  0  0
   57.7970   26.6320   44.0590 C   0  0  0  0  0  0  0  0  0  0  0  0
   57.5980   25.2750   44.3640 C   0  0  0  0  0  0  0  0  0  0  0  0
   57.2870   24.8820   45.6690 C   0  0  0  0  0  0  0  0  0  0  0  0
   57.1620   25.8390   46.6770 C   0  0  0  0  0  0  0  0  0  0  0  0
   57.3380   27.1930   46.3840 C   0  0  0  0  0  0  0  0  0  0  0  0
   57.6450   27.6000   45.0770 C   0  0  0  0  0  0  0  0  0  0  0  0
   57.8070   28.9970   44.7920 N   0  0  0  0  0  0  0  0  0  0  0  0
   59.0500   29.6800   45.1640 C   0  0  0  0  0  0  0  0  0  0  0  0
   58.7700   31.0990   45.7070 C   0  0  0  0  0  0  0  0  0  0  0  0
   57.3940   31.5670   45.4150 N   0  0  0  0  0  0  0  0  0  0  0  0
   57.2710   33.0220   45.6500 C   0  0  0  0  0  0  0  0  0  0  0  0
   57.8260   33.3850   47.0420 C   0  0  0  0  0  0  0  0  0  0  0  0
   58.8420   34.4700   46.9730 N   0  0  1  0  0  0  0  0  0  0  0  0
   59.5970   34.5810   48.2430 C   0  0  0  0  0  0  0  0  0  0  0  0
   60.4930   33.3550   48.5110 C   0  0  0  0  0  0  0  0  0  0  0  0
   61.1630   32.8100   47.2280 C   0  0  2  0  0  0  0  0  0  0  0  0
   62.5840   32.3110   47.5140 C   0  0  0  0  0  0  0  0  0  0  0  0
   61.1720   33.8670   46.1150 C   0  0  0  0  0  0  0  0  0  0  0  0
   59.7390   34.3350   45.7850 C   0  0  0  0  0  0  0  0  0  0  0  0
   57.0040   31.2010   44.0410 C   0  0  0  0  0  0  0  0  0  0  0  0
   56.8040   29.6850   43.9740 C   0  0  0  0  0  0  0  0  0  0  0  0
   58.8450   27.8748   42.6678 H   0  0  0  0  0  0  0  0  0  0  0  0
   58.5920   26.1815   42.1242 H   0  0  0  0  0  0  0  0  0  0  0  0
   57.2188   27.3395   42.1242 H   0  0  0  0  0  0  0  0  0  0  0  0
   57.6874   24.5175   43.5714 H   0  0  0  0  0  0  0  0  0  0  0  0
   57.1406   23.8169   45.9017 H   0  0  0  0  0  0  0  0  0  0  0  0
   56.9243   25.5261   47.7044 H   0  0  0  0  0  0  0  0  0  0  0  0
   57.2355   27.9437   47.1815 H   0  0  0  0  0  0  0  0  0  0  0  0
   59.5623   29.0937   45.9410 H   0  0  0  0  0  0  0  0  0  0  0  0
   59.6790   29.7697   44.2660 H   0  0  0  0  0  0  0  0  0  0  0  0
   58.9146   31.0924   46.7974 H   0  0  0  0  0  0  0  0  0  0  0  0
   59.4663   31.7876   45.2060 H   0  0  0  0  0  0  0  0  0  0  0  0
   57.8392   33.5639   44.8796 H   0  0  0  0  0  0  0  0  0  0  0  0
   56.2091   33.3050   45.6018 H   0  0  0  0  0  0  0  0  0  0  0  0
   56.9940   33.7179   47.6800 H   0  0  0  0  0  0  0  0  0  0  0  0
   58.3131   32.4902   47.4568 H   0  0  0  0  0  0  0  0  0  0  0  0
   58.3250   35.3780   46.8760 H   0  0  0  0  0  0  0  0  0  0  0  0
   58.8800   34.6808   49.0712 H   0  0  0  0  0  0  0  0  0  0  0  0
   60.2523   35.4610   48.1644 H   0  0  0  0  0  0  0  0  0  0  0  0
   59.8755   32.5579   48.9507 H   0  0  0  0  0  0  0  0  0  0  0  0
   61.2947   33.6737   49.1934 H   0  0  0  0  0  0  0  0  0  0  0  0
   60.5656   31.9544   46.8800 H   0  0  0  0  0  0  0  0  0  0  0  0
   62.7413   32.2558   48.6013 H   0  0  0  0  0  0  0  0  0  0  0  0
   62.7176   31.3122   47.0730 H   0  0  0  0  0  0  0  0  0  0  0  0
   63.3127   33.0070   47.0730 H   0  0  0  0  0  0  0  0  0  0  0  0
   61.6260   33.4341   45.2114 H   0  0  0  0  0  0  0  0  0  0  0  0
   61.7532   34.7347   46.4605 H   0  0  0  0  0  0  0  0  0  0  0  0
   59.2892   33.6049   45.0961 H   0  0  0  0  0  0  0  0  0  0  0  0
   59.8312   35.3397   45.3468 H   0  0  0  0  0  0  0  0  0  0  0  0
   56.0660   31.7101   43.7746 H   0  0  0  0  0  0  0  0  0  0  0  0
   57.7900   31.5065   43.3347 H   0  0  0  0  0  0  0  0  0  0  0  0
   55.7998   29.4357   44.3474 H   0  0  0  0  0  0  0  0  0  0  0  0
   56.9127   29.3582   42.9293 H   0  0  0  0  0  0  0  0  0  0  0  0
  1  2  1  0
  2  3  2  0
  3  4  1  0
  4  5  2  0
  5  6  1  0
  6  7  2  0
  7  8  1  0
  8  9  1  0
  9 10  1  0
 10 11  1  0
 11 12  1  0
 12 13  1  0
 13 14  1  0
 14 15  1  0
 15 16  1  0
 16 17  1  0
 17 18  1  0
 17 19  1  0
 19 20  1  0
 11 21  1  0
 21 22  1  0
  7  2  1  0
 22  8  1  0
 20 14  1  0
  1 23  1  0
  1 24  1  0
  1 25  1  0
  3 26  1  0
  4 27  1  0
  5 28  1  0
  6 29  1  0
  9 30  1  0
  9 31  1  0
 10 32  1  0
 10 33  1  0
 12 34  1  0
 12 35  1  0
 13 36  1  0
 13 37  1  0
 14 38  1  6
 15 39  1  0
 15 40  1  0
 16 41  1  0
 16 42  1  0
 17 43  1  6
 18 44  1  0
 18 45  1  0
 18 46  1  0
 19 47  1  0
 19 48  1  0
 20 49  1  0
 20 50  1  0
 21 51  1  0
 21 52  1  0
 22 53  1  0
 22 54  1  0
M  CHG  1  14   1
M  END
>  <UniqueID>  (30) 
29

>  <SMILES>  (30) 
Cc1ccccc1N1CCN(CC[NH+]2CCC(C)CC2)CC1

>  <Energy>  (30) 
71.65640783387137

>  <Genealogy>  (30) 
Cc1ccccc1N1CCN(CC[NH+]2CCC(C)CC2)CC1 (protonated)
Cc1ccccc1N1CCN(CC[NH+]2CCC(C)CC2)CC1 (3D coordinates assigned)
Cc1ccccc1N1CCN(CC[NH+]2CCC(C)CC2)CC1 (nonaromatic ring conformer: 71.65640783387137 kcal/mol)

>  <smiles>  (30) 
Cc1ccccc1N1CCN(CCN2CCC(C)CC2)CC1

>  <score_type>  (30) 
oracle

>  <origin>  (30) 
adg

>  <m_score__min__energy>  (30) 
-6.2699999999999996

>  <m_primary>  (30) 
energy

$$$$
30:0
     RDKit          3D

 32 33  0  0  0  0  0  0  0  0999 V2000
   54.7110   25.2300   45.6210 C   0  0  0  0  0  0  0  0  0  0  0  0
   55.8530   26.1180   45.7980 N   0  0  0  0  0  0  0  0  0  0  0  0
   56.8920   25.8290   46.7440 C   0  0  0  0  0  0  0  0  0  0  0  0
   56.7640   24.8600   47.5400 O   0  0  0  0  0  0  0  0  0  0  0  0
   58.0940   26.6870   46.8310 C   0  0  0  0  0  0  0  0  0  0  0  0
   59.0340   26.4210   47.8420 C   0  0  0  0  0  0  0  0  0  0  0  0
   60.1310   27.2620   48.0340 C   0  0  0  0  0  0  0  0  0  0  0  0
   60.3030   28.3830   47.2220 C   0  0  0  0  0  0  0  0  0  0  0  0
   59.3920   28.6490   46.1970 C   0  0  0  0  0  0  0  0  0  0  0  0
   58.3070   27.7940   45.9670 C   0  0  0  0  0  0  0  0  0  0  0  0
   57.4670   28.0670   44.8350 N   0  0  0  0  0  0  0  0  0  0  0  0
   56.6300   29.2200   44.6580 C   0  0  0  0  0  0  0  0  0  0  0  0
   55.3920   29.1010   44.8620 O   0  0  0  0  0  0  0  0  0  0  0  0
   57.1740   30.5410   44.2660 C   0  0  0  0  0  0  0  0  0  0  0  0
   57.6200   31.4370   45.2530 C   0  0  0  0  0  0  0  0  0  0  0  0
   58.1230   32.6920   44.8960 C   0  0  0  0  0  0  0  0  0  0  0  0
   58.1980   33.0590   43.5510 C   0  0  0  0  0  0  0  0  0  0  0  0
   57.7780   32.1680   42.5600 C   0  0  0  0  0  0  0  0  0  0  0  0
   57.8650   32.5200   41.2520 F   0  0  0  0  0  0  0  0  0  0  0  0
   57.2740   30.9130   42.9130 C   0  0  0  0  0  0  0  0  0  0  0  0
   54.3243   24.9293   46.6059 H   0  0  0  0  0  0  0  0  0  0  0  0
   53.9221   25.7543   45.0618 H   0  0  0  0  0  0  0  0  0  0  0  0
   55.0247   24.3362   45.0618 H   0  0  0  0  0  0  0  0  0  0  0  0
   55.8980   26.9940   45.2300 H   0  0  0  0  0  0  0  0  0  0  0  0
   58.9034   25.5407   48.4885 H   0  0  0  0  0  0  0  0  0  0  0  0
   60.8609   27.0406   48.8266 H   0  0  0  0  0  0  0  0  0  0  0  0
   61.1558   29.0574   47.3888 H   0  0  0  0  0  0  0  0  0  0  0  0
   59.5282   29.5386   45.5645 H   0  0  0  0  0  0  0  0  0  0  0  0
   57.5730   31.1489   46.3136 H   0  0  0  0  0  0  0  0  0  0  0  0
   58.4600   33.3909   45.6758 H   0  0  0  0  0  0  0  0  0  0  0  0
   58.5875   34.0491   43.2716 H   0  0  0  0  0  0  0  0  0  0  0  0
   56.9536   30.2120   42.1282 H   0  0  0  0  0  0  0  0  0  0  0  0
  1  2  1  0
  2  3  1  0
  3  4  2  0
  3  5  1  0
  5  6  2  0
  6  7  1  0
  7  8  2  0
  8  9  1  0
  9 10  2  0
 10 11  1  0
 11 12  1  0
 12 13  2  0
 12 14  1  0
 14 15  2  0
 15 16  1  0
 16 17  2  0
 17 18  1  0
 18 19  1  0
 18 20  2  0
 10  5  1  0
 20 14  1  0
  1 21  1  0
  1 22  1  0
  1 23  1  0
  2 24  1  0
  6 25  1  0
  7 26  1  0
  8 27  1  0
  9 28  1  0
 15 29  1  0
 16 30  1  0
 17 31  1  0
 20 32  1  0
M  CHG  1  11  -1
M  END
>  <UniqueID>  (31) 
30

>  <SMILES>  (31) 
CNC(=O)c1ccccc1[N-]C(=O)c1cccc(F)c1

>  <Energy>  (31) 
42.27886731813404

>  <Genealogy>  (31) 
CNC(=O)c1ccccc1[N-]C(=O)c1cccc(F)c1 (protonated)
CNC(=O)c1ccccc1[N-]C(=O)c1cccc(F)c1 (3D coordinates assigned)
CNC(=O)c1ccccc1[N-]C(=O)c1cccc(F)c1 (optimized conformer: 42.27886731813404 kcal/mol)

>  <smiles>  (31) 
CNC(=O)c1ccccc1NC(=O)c1cccc(F)c1

>  <score_type>  (31) 
oracle

>  <origin>  (31) 
adg

>  <m_score__min__energy>  (31) 
-9.3599999999999994

>  <m_primary>  (31) 
energy

$$$$
31:0
     RDKit          3D

 46 47  0  0  0  0  0  0  0  0999 V2000
   56.9990   25.2020   44.7230 C   0  0  0  0  0  0  0  0  0  0  0  0
   56.6610   26.3640   46.0270 S   0  0  0  0  0  0  0  0  0  0  0  0
   56.9770   25.7050   47.3410 O   0  0  0  0  0  0  0  0  0  0  0  0
   55.1920   26.6890   46.0110 O   0  0  0  0  0  0  0  0  0  0  0  0
   57.6560   27.8020   45.7640 N   0  0  0  0  0  0  0  0  0  0  0  0
   57.5090   28.2470   44.3570 C   0  0  0  0  0  0  0  0  0  0  0  0
   57.0460   29.6740   44.2930 C   0  0  0  0  0  0  0  0  0  0  0  0
   55.9710   30.0060   44.8610 O   0  0  0  0  0  0  0  0  0  0  0  0
   57.8110   30.6440   43.5630 N   0  0  0  0  0  0  0  0  0  0  0  0
   57.4030   32.0410   43.4500 C   0  0  0  0  0  0  0  0  0  0  0  0
   57.9070   32.8250   44.6300 C   0  0  0  0  0  0  0  0  0  0  0  0
   57.4270   32.5410   45.9190 C   0  0  0  0  0  0  0  0  0  0  0  0
   57.9070   33.2520   47.0230 C   0  0  0  0  0  0  0  0  0  0  0  0
   58.8720   34.2480   46.8490 C   0  0  0  0  0  0  0  0  0  0  0  0
   59.3580   34.5340   45.5700 C   0  0  0  0  0  0  0  0  0  0  0  0
   58.8810   33.8250   44.4630 C   0  0  0  0  0  0  0  0  0  0  0  0
   59.0660   27.5540   46.1940 C   0  0  0  0  0  0  0  0  0  0  0  0
   59.1770   27.6080   47.7540 C   0  0  0  0  0  0  0  0  0  0  0  0
   59.6010   28.9800   48.3220 C   0  0  0  0  0  0  0  0  0  0  0  0
   59.1820   30.1280   47.4020 C   0  0  0  0  0  0  0  0  0  0  0  0
   59.8460   30.0080   46.0200 C   0  0  0  0  0  0  0  0  0  0  0  0
   60.1080   28.5430   45.6040 C   0  0  0  0  0  0  0  0  0  0  0  0
   57.2810   24.2326   45.1597 H   0  0  0  0  0  0  0  0  0  0  0  0
   56.1001   25.0766   44.1015 H   0  0  0  0  0  0  0  0  0  0  0  0
   57.8249   25.5783   44.1015 H   0  0  0  0  0  0  0  0  0  0  0  0
   58.4804   28.1602   43.8483 H   0  0  0  0  0  0  0  0  0  0  0  0
   56.7592   27.6113   43.8634 H   0  0  0  0  0  0  0  0  0  0  0  0
   58.6970   30.3450   43.0990 H   0  0  0  0  0  0  0  0  0  0  0  0
   57.8192   32.4677   42.5255 H   0  0  0  0  0  0  0  0  0  0  0  0
   56.3045   32.0938   43.4260 H   0  0  0  0  0  0  0  0  0  0  0  0
   56.6700   31.7556   46.0606 H   0  0  0  0  0  0  0  0  0  0  0  0
   57.5248   33.0273   48.0297 H   0  0  0  0  0  0  0  0  0  0  0  0
   59.2489   34.8067   47.7184 H   0  0  0  0  0  0  0  0  0  0  0  0
   60.1172   35.3183   45.4340 H   0  0  0  0  0  0  0  0  0  0  0  0
   59.2690   34.0504   43.4587 H   0  0  0  0  0  0  0  0  0  0  0  0
   59.3063   26.5551   45.8011 H   0  0  0  0  0  0  0  0  0  0  0  0
   58.1947   27.3505   48.1768 H   0  0  0  0  0  0  0  0  0  0  0  0
   59.9679   26.8969   48.0347 H   0  0  0  0  0  0  0  0  0  0  0  0
   59.1279   29.1203   49.3051 H   0  0  0  0  0  0  0  0  0  0  0  0
   60.6977   28.9916   48.4067 H   0  0  0  0  0  0  0  0  0  0  0  0
   58.0893   30.1067   47.2775 H   0  0  0  0  0  0  0  0  0  0  0  0
   59.5033   31.0749   47.8603 H   0  0  0  0  0  0  0  0  0  0  0  0
   59.1865   30.4726   45.2722 H   0  0  0  0  0  0  0  0  0  0  0  0
   60.8209   30.5144   46.0770 H   0  0  0  0  0  0  0  0  0  0  0  0
   60.0724   28.4776   44.5065 H   0  0  0  0  0  0  0  0  0  0  0  0
   61.0947   28.2584   45.9981 H   0  0  0  0  0  0  0  0  0  0  0  0
  1  2  1  0
  2  3  2  0
  2  4  2  0
  2  5  1  0
  5  6  1  0
  6  7  1  0
  7  8  2  0
  7  9  1  0
  9 10  1  0
 10 11  1  0
 11 12  2  0
 12 13  1  0
 13 14  2  0
 14 15  1  0
 15 16  2  0
  5 17  1  0
 17 18  1  0
 18 19  1  0
 19 20  1  0
 20 21  1  0
 21 22  1  0
 16 11  1  0
 22 17  1  0
  1 23  1  0
  1 24  1  0
  1 25  1  0
  6 26  1  0
  6 27  1  0
  9 28  1  0
 10 29  1  0
 10 30  1  0
 12 31  1  0
 13 32  1  0
 14 33  1  0
 15 34  1  0
 16 35  1  0
 17 36  1  0
 18 37  1  0
 18 38  1  0
 19 39  1  0
 19 40  1  0
 20 41  1  0
 20 42  1  0
 21 43  1  0
 21 44  1  0
 22 45  1  0
 22 46  1  0
M  END
>  <UniqueID>  (32) 
31

>  <SMILES>  (32) 
CS(=O)(=O)N(CC(=O)NCc1ccccc1)C1CCCCC1

>  <Energy>  (32) 
48.62623424533032

>  <Genealogy>  (32) 
CS(=O)(=O)N(CC(=O)NCc1ccccc1)C1CCCCC1 (3D coordinates assigned)
CS(=O)(=O)N(CC(=O)NCc1ccccc1)C1CCCCC1 (nonaromatic ring conformer: 48.62623424533032 kcal/mol)

>  <smiles>  (32) 
CS(=O)(=O)N(CC(=O)NCc1ccccc1)C1CCCCC1

>  <score_type>  (32) 
oracle

>  <origin>  (32) 
adg

>  <m_score__min__energy>  (32) 
-9.0099999999999998

>  <m_primary>  (32) 
energy

$$$$
32:0
     RDKit          3D

 49 51  0  0  0  0  0  0  0  0999 V2000
   58.0920   27.0980   42.8940 C   0  0  0  0  0  0  0  0  0  0  0  0
   58.1320   28.2930   43.8000 C   0  0  0  0  0  0  0  0  0  0  0  0
   57.0150   29.1320   43.9100 C   0  0  0  0  0  0  0  0  0  0  0  0
   57.0670   30.2700   44.7170 C   0  0  0  0  0  0  0  0  0  0  0  0
   58.2380   30.5940   45.4150 C   0  0  0  0  0  0  0  0  0  0  0  0
   58.2590   31.7780   46.2220 N   0  0  0  0  0  0  0  0  0  0  0  0
   58.8630   31.7400   47.5540 C   0  0  0  0  0  0  0  0  0  0  0  0
   58.9530   33.1520   48.1520 C   0  0  0  0  0  0  0  0  0  0  0  0
   59.4190   34.1480   47.1590 N   0  0  0  0  0  0  0  0  0  0  0  0
   60.8180   33.9240   46.8300 C   0  0  0  0  0  0  0  0  0  0  0  0
   61.1670   33.8390   45.6180 O   0  0  0  0  0  0  0  0  0  0  0  0
   61.8610   33.7620   47.8820 C   0  0  0  0  0  0  0  0  0  0  0  0
   63.1010   33.1480   47.6110 C   0  0  0  0  0  0  0  0  0  0  0  0
   64.0640   33.0180   48.6170 C   0  0  0  0  0  0  0  0  0  0  0  0
   63.8080   33.5030   49.9040 C   0  0  0  0  0  0  0  0  0  0  0  0
   65.0440   33.3280   51.1930 S   0  0  0  0  0  0  0  0  0  0  0  0
   66.2640   32.5240   50.1060 C   0  0  0  0  0  0  0  0  0  0  0  0
   67.4640   33.2070   50.1600 F   0  0  0  0  0  0  0  0  0  0  0  0
   66.4640   31.2260   50.5340 F   0  0  0  0  0  0  0  0  0  0  0  0
   62.5830   34.1160   50.1830 C   0  0  0  0  0  0  0  0  0  0  0  0
   61.6190   34.2490   49.1810 C   0  0  0  0  0  0  0  0  0  0  0  0
   58.5630   34.2180   45.9350 C   0  0  0  0  0  0  0  0  0  0  0  0
   57.6310   33.0060   45.7370 C   0  0  0  0  0  0  0  0  0  0  0  0
   59.3660   29.7490   45.3190 C   0  0  0  0  0  0  0  0  0  0  0  0
   60.6470   30.0660   46.0420 C   0  0  0  0  0  0  0  0  0  0  0  0
   59.3100   28.6170   44.4900 C   0  0  0  0  0  0  0  0  0  0  0  0
   58.0613   26.1799   43.4992 H   0  0  0  0  0  0  0  0  0  0  0  0
   57.1951   27.1490   42.2593 H   0  0  0  0  0  0  0  0  0  0  0  0
   58.9903   27.0889   42.2593 H   0  0  0  0  0  0  0  0  0  0  0  0
   56.0938   28.8930   43.3584 H   0  0  0  0  0  0  0  0  0  0  0  0
   56.1820   30.9172   44.8056 H   0  0  0  0  0  0  0  0  0  0  0  0
   58.2474   31.1084   48.2114 H   0  0  0  0  0  0  0  0  0  0  0  0
   59.8791   31.3274   47.4690 H   0  0  0  0  0  0  0  0  0  0  0  0
   57.9570   33.4491   48.5121 H   0  0  0  0  0  0  0  0  0  0  0  0
   59.6828   33.1261   48.9746 H   0  0  0  0  0  0  0  0  0  0  0  0
   59.3420   35.0880   47.6110 H   0  0  0  0  0  0  0  0  0  0  0  0
   63.3127   32.7683   46.6006 H   0  0  0  0  0  0  0  0  0  0  0  0
   65.0260   32.5327   48.3955 H   0  0  0  0  0  0  0  0  0  0  0  0
   65.8887   32.5283   49.0720 H   0  0  0  0  0  0  0  0  0  0  0  0
   62.3776   34.4949   51.1950 H   0  0  0  0  0  0  0  0  0  0  0  0
   60.6610   34.7392   49.4089 H   0  0  0  0  0  0  0  0  0  0  0  0
   57.9408   35.1226   46.0021 H   0  0  0  0  0  0  0  0  0  0  0  0
   59.2479   34.2301   45.0743 H   0  0  0  0  0  0  0  0  0  0  0  0
   56.6968   33.1760   46.2923 H   0  0  0  0  0  0  0  0  0  0  0  0
   57.4252   32.8938   44.6623 H   0  0  0  0  0  0  0  0  0  0  0  0
   60.4754   30.0235   47.1277 H   0  0  0  0  0  0  0  0  0  0  0  0
   61.4168   29.3313   45.7634 H   0  0  0  0  0  0  0  0  0  0  0  0
   60.9853   31.0749   45.7634 H   0  0  0  0  0  0  0  0  0  0  0  0
   60.1985   27.9778   44.3804 H   0  0  0  0  0  0  0  0  0  0  0  0
  1  2  1  0
  2  3  2  0
  3  4  1  0
  4  5  2  0
  5  6  1  0
  6  7  1  0
  7  8  1  0
  8  9  1  0
  9 10  1  0
 10 11  2  0
 10 12  1  0
 12 13  2  0
 13 14  1  0
 14 15  2  0
 15 16  1  0
 16 17  1  0
 17 18  1  0
 17 19  1  0
 15 20  1  0
 20 21  2  0
  9 22  1  0
 22 23  1  0
  5 24  1  0
 24 25  1  0
 24 26  2  0
 26  2  1  0
 23  6  1  0
 21 12  1  0
  1 27  1  0
  1 28  1  0
  1 29  1  0
  3 30  1  0
  4 31  1  0
  7 32  1  0
  7 33  1  0
  8 34  1  0
  8 35  1  0
  9 36  1  0
 13 37  1  0
 14 38  1  0
 17 39  1  0
 20 40  1  0
 21 41  1  0
 22 42  1  0
 22 43  1  0
 23 44  1  0
 23 45  1  0
 25 46  1  0
 25 47  1  0
 25 48  1  0
 26 49  1  0
M  CHG  1   9   1
M  END
>  <UniqueID>  (33) 
32

>  <SMILES>  (33) 
Cc1ccc(N2CC[NH+](C(=O)c3ccc(SC(F)F)cc3)CC2)c(C)c1

>  <Energy>  (33) 
63.54835895416061

>  <Genealogy>  (33) 
Cc1ccc(N2CC[NH+](C(=O)c3ccc(SC(F)F)cc3)CC2)c(C)c1 (protonated)
Cc1ccc(N2CC[NH+](C(=O)c3ccc(SC(F)F)cc3)CC2)c(C)c1 (3D coordinates assigned)
Cc1ccc(N2CC[NH+](C(=O)c3ccc(SC(F)F)cc3)CC2)c(C)c1 (nonaromatic ring conformer: 63.54835895416061 kcal/mol)

>  <smiles>  (33) 
Cc1ccc(N2CCN(C(=O)c3ccc(SC(F)F)cc3)CC2)c(C)c1

>  <score_type>  (33) 
oracle

>  <origin>  (33) 
adg

>  <m_score__min__energy>  (33) 
-6.7000000000000002

>  <m_primary>  (33) 
energy

$$$$
33:0
     RDKit          3D

 35 37  0  0  0  0  0  0  0  0999 V2000
   60.3770   26.0250   46.4670 C   0  0  0  0  0  0  0  0  0  0  0  0
   59.8850   27.2520   47.1170 N   0  0  0  0  0  0  0  0  0  0  0  0
   60.7500   27.6700   48.2430 C   0  0  0  0  0  0  0  0  0  0  0  0
   60.4160   29.0390   48.7850 C   0  0  0  0  0  0  0  0  0  0  0  0
   59.3750   29.2760   49.6980 C   0  0  0  0  0  0  0  0  0  0  0  0
   59.2570   30.6060   50.0730 C   0  0  0  0  0  0  0  0  0  0  0  0
   60.4430   31.4830   49.2670 S   0  0  0  0  0  0  0  0  0  0  0  0
   61.1180   30.1890   48.4360 C   0  0  0  0  0  0  0  0  0  0  0  0
   58.4640   27.1380   47.5090 C   0  0  0  0  0  0  0  0  0  0  0  0
   57.5890   27.8570   46.5170 C   0  0  0  0  0  0  0  0  0  0  0  0
   56.3650   27.4640   45.9490 C   0  0  0  0  0  0  0  0  0  0  0  0
   55.6050   26.2270   46.2070 C   0  0  0  0  0  0  0  0  0  0  0  0
   54.3640   26.2080   45.9950 O   0  0  0  0  0  0  0  0  0  0  0  0
   56.2240   25.0740   46.6680 O   0  0  0  0  0  0  0  0  0  0  0  0
   55.9240   28.3910   45.0610 N   0  0  0  0  0  0  0  0  0  0  0  0
   56.8620   29.3530   45.0610 C   0  0  0  0  0  0  0  0  0  0  0  0
   56.8590   30.5170   44.2940 C   0  0  0  0  0  0  0  0  0  0  0  0
   57.9490   31.3980   44.4240 C   0  0  0  0  0  0  0  0  0  0  0  0
   57.9940   32.8760   43.4800 Cl  0  0  0  0  0  0  0  0  0  0  0  0
   59.0070   31.0960   45.3110 C   0  0  0  0  0  0  0  0  0  0  0  0
   58.9830   29.9140   46.0720 C   0  0  0  0  0  0  0  0  0  0  0  0
   57.8860   29.0640   45.9220 C   0  0  0  0  0  0  0  0  0  0  0  0
   60.6698   25.2949   47.2359 H   0  0  0  0  0  0  0  0  0  0  0  0
   59.5807   25.5977   45.8399 H   0  0  0  0  0  0  0  0  0  0  0  0
   61.2479   26.2662   45.8399 H   0  0  0  0  0  0  0  0  0  0  0  0
   60.6404   26.9376   49.0564 H   0  0  0  0  0  0  0  0  0  0  0  0
   61.7797   27.7172   47.8589 H   0  0  0  0  0  0  0  0  0  0  0  0
   58.7160   28.4821   50.0793 H   0  0  0  0  0  0  0  0  0  0  0  0
   58.5163   31.0156   50.7755 H   0  0  0  0  0  0  0  0  0  0  0  0
   61.9665   30.2412   47.7380 H   0  0  0  0  0  0  0  0  0  0  0  0
   58.1802   26.0757   47.5400 H   0  0  0  0  0  0  0  0  0  0  0  0
   58.3289   27.5933   48.5012 H   0  0  0  0  0  0  0  0  0  0  0  0
   56.0292   30.7404   43.6073 H   0  0  0  0  0  0  0  0  0  0  0  0
   59.8548   31.7903   45.4066 H   0  0  0  0  0  0  0  0  0  0  0  0
   59.8023   29.6671   46.7633 H   0  0  0  0  0  0  0  0  0  0  0  0
  1  2  1  0
  2  3  1  0
  3  4  1  0
  4  5  1  0
  5  6  2  0
  6  7  1  0
  7  8  1  0
  2  9  1  0
  9 10  1  0
 10 11  2  0
 11 12  1  0
 12 13  2  0
 12 14  1  0
 11 15  1  0
 15 16  1  0
 16 17  2  0
 17 18  1  0
 18 19  1  0
 18 20  2  0
 20 21  1  0
 21 22  2  0
  8  4  2  0
 22 10  1  0
 22 16  1  0
  1 23  1  0
  1 24  1  0
  1 25  1  0
  3 26  1  0
  3 27  1  0
  5 28  1  0
  6 29  1  0
  8 30  1  0
  9 31  1  0
  9 32  1  0
 17 33  1  0
 20 34  1  0
 21 35  1  0
M  CHG  2  14  -1  15  -1
M  END
>  <UniqueID>  (34) 
33

>  <SMILES>  (34) 
CN(Cc1ccsc1)Cc1c(C(=O)[O-])[n-]c2cc(Cl)ccc12

>  <Energy>  (34) 
97.13273182581776

>  <Genealogy>  (34) 
CN(Cc1ccsc1)Cc1c(C(=O)[O-])[n-]c2cc(Cl)ccc12 (protonated)
CN(Cc1ccsc1)Cc1c(C(=O)[O-])[n-]c2cc(Cl)ccc12 (3D coordinates assigned)
CN(Cc1ccsc1)Cc1c(C(=O)[O-])[n-]c2cc(Cl)ccc12 (optimized conformer: 97.13273182581776 kcal/mol)

>  <smiles>  (34) 
CN(Cc1ccsc1)Cc1c(C(=O)O)[nH]c2cc(Cl)ccc12

>  <score_type>  (34) 
oracle

>  <origin>  (34) 
adg

>  <m_score__min__energy>  (34) 
-11

>  <m_primary>  (34) 
energy

$$$$
34:0
     RDKit          3D

 30 32  0  0  0  0  0  0  0  0999 V2000
   57.2510   33.7050   46.5870 O   0  0  0  0  0  0  0  0  0  0  0  0
   58.3910   33.9510   46.1090 C   0  0  0  0  0  0  0  0  0  0  0  0
   59.2550   34.9760   46.7690 C   0  0  0  0  0  0  0  0  0  0  0  0
   60.1610   34.2240   48.1030 Cl  0  0  0  0  0  0  0  0  0  0  0  0
   58.8260   33.3230   44.8920 N   0  0  0  0  0  0  0  0  0  0  0  0
   58.1580   32.2080   44.2770 C   0  0  0  0  0  0  0  0  0  0  0  0
   57.6530   32.3450   42.9760 C   0  0  0  0  0  0  0  0  0  0  0  0
   57.0170   31.2720   42.3500 C   0  0  0  0  0  0  0  0  0  0  0  0
   56.8930   30.0470   43.0080 C   0  0  0  0  0  0  0  0  0  0  0  0
   57.4150   29.8800   44.3020 C   0  0  0  0  0  0  0  0  0  0  0  0
   57.2990   28.5750   44.9940 C   0  0  0  0  0  0  0  0  0  0  0  0
   56.1000   27.9920   45.2770 N   0  0  0  0  0  0  0  0  0  0  0  0
   56.4730   26.8610   45.8870 C   0  0  0  0  0  0  0  0  0  0  0  0
   55.6540   25.9000   46.3800 N   0  0  0  0  0  0  0  0  0  0  0  0
   56.2120   24.8020   46.9760 C   0  0  0  0  0  0  0  0  0  0  0  0
   57.6180   24.6750   47.0760 C   0  0  0  0  0  0  0  0  0  0  0  0
   58.4470   25.6860   46.5570 C   0  0  0  0  0  0  0  0  0  0  0  0
   57.8230   26.7770   45.9630 C   0  0  0  0  0  0  0  0  0  0  0  0
   58.3840   27.8560   45.4020 N   0  0  0  0  0  0  0  0  0  0  0  0
   58.0540   30.9660   44.9280 C   0  0  0  0  0  0  0  0  0  0  0  0
   59.9614   35.3879   46.0332 H   0  0  0  0  0  0  0  0  0  0  0  0
   58.6238   35.7845   47.1664 H   0  0  0  0  0  0  0  0  0  0  0  0
   59.6260   33.7610   44.3800 H   0  0  0  0  0  0  0  0  0  0  0  0
   57.7587   33.3032   42.4461 H   0  0  0  0  0  0  0  0  0  0  0  0
   56.6119   31.3919   41.3344 H   0  0  0  0  0  0  0  0  0  0  0  0
   56.3840   29.2081   42.5109 H   0  0  0  0  0  0  0  0  0  0  0  0
   55.5626   24.0117   47.3806 H   0  0  0  0  0  0  0  0  0  0  0  0
   58.0603   23.7902   47.5571 H   0  0  0  0  0  0  0  0  0  0  0  0
   59.5431   25.6162   46.6186 H   0  0  0  0  0  0  0  0  0  0  0  0
   58.4762   30.8423   45.9362 H   0  0  0  0  0  0  0  0  0  0  0  0
  1  2  2  0
  2  3  1  0
  3  4  1  0
  2  5  1  0
  5  6  1  0
  6  7  2  0
  7  8  1  0
  8  9  2  0
  9 10  1  0
 10 11  1  0
 11 12  2  0
 12 13  1  0
 13 14  2  0
 14 15  1  0
 15 16  2  0
 16 17  1  0
 17 18  2  0
 18 19  1  0
 10 20  2  0
 20  6  1  0
 19 11  1  0
 18 13  1  0
  3 21  1  0
  3 22  1  0
  5 23  1  0
  7 24  1  0
  8 25  1  0
  9 26  1  0
 15 27  1  0
 16 28  1  0
 17 29  1  0
 20 30  1  0
M  CHG  1  19  -1
M  END
>  <UniqueID>  (35) 
34

>  <SMILES>  (35) 
O=C(CCl)Nc1cccc(-c2nc3ncccc3[n-]2)c1

>  <Energy>  (35) 
71.67999830264971

>  <Genealogy>  (35) 
O=C(CCl)Nc1cccc(-c2nc3ncccc3[n-]2)c1 (protonated)
O=C(CCl)Nc1cccc(-c2nc3ncccc3[n-]2)c1 (3D coordinates assigned)
O=C(CCl)Nc1cccc(-c2nc3ncccc3[n-]2)c1 (optimized conformer: 71.67999830264971 kcal/mol)

>  <smiles>  (35) 
O=C(CCl)Nc1cccc(-c2nc3ncccc3[nH]2)c1

>  <score_type>  (35) 
oracle

>  <origin>  (35) 
adg

>  <m_score__min__energy>  (35) 
-8.7400000000000002

>  <m_primary>  (35) 
energy

$$$$
35:0
     RDKit          3D

 36 37  0  0  0  0  0  0  0  0999 V2000
   60.3950   27.9780   45.6010 C   0  0  0  0  0  0  0  0  0  0  0  0
   59.2160   28.2280   44.7210 C   0  0  0  0  0  0  0  0  0  0  0  0
   58.4480   27.2810   44.0690 C   0  0  0  0  0  0  0  0  0  0  0  0
   57.4140   27.9080   43.4790 N   0  0  0  0  0  0  0  0  0  0  0  0
   57.4960   29.2040   43.7410 N   0  0  0  0  0  0  0  0  0  0  0  0
   56.4950   30.1920   43.3460 C   0  0  0  0  0  0  0  0  0  0  0  0
   57.0990   31.2500   42.4200 C   0  0  0  0  0  0  0  0  0  0  0  0
   57.9360   32.1860   43.1890 N   0  0  0  0  0  0  0  0  0  0  0  0
   57.3830   32.4670   44.5250 C   0  0  0  0  0  0  0  0  0  0  0  0
   58.3320   33.3140   45.3550 C   0  0  0  0  0  0  0  0  0  0  0  0
   58.7620   34.5760   44.8990 C   0  0  0  0  0  0  0  0  0  0  0  0
   59.6440   35.3420   45.6600 C   0  0  0  0  0  0  0  0  0  0  0  0
   60.1160   34.8410   46.8690 C   0  0  0  0  0  0  0  0  0  0  0  0
   59.7280   33.6100   47.2910 N   0  0  0  0  0  0  0  0  0  0  0  0
   58.8730   32.8300   46.5750 C   0  0  0  0  0  0  0  0  0  0  0  0
   58.5220   31.4770   47.1230 C   0  0  0  0  0  0  0  0  0  0  0  0
   58.5770   29.4350   44.5110 C   0  0  0  0  0  0  0  0  0  0  0  0
   60.0864   28.0434   46.6548 H   0  0  0  0  0  0  0  0  0  0  0  0
   60.7975   26.9745   45.3984 H   0  0  0  0  0  0  0  0  0  0  0  0
   61.1701   28.7318   45.3984 H   0  0  0  0  0  0  0  0  0  0  0  0
   58.6481   26.1998   44.0379 H   0  0  0  0  0  0  0  0  0  0  0  0
   56.6460   27.4540   42.9350 H   0  0  0  0  0  0  0  0  0  0  0  0
   55.6744   29.6815   42.8207 H   0  0  0  0  0  0  0  0  0  0  0  0
   56.1227   30.6928   44.2519 H   0  0  0  0  0  0  0  0  0  0  0  0
   57.7168   30.7540   41.6569 H   0  0  0  0  0  0  0  0  0  0  0  0
   56.2842   31.8114   41.9394 H   0  0  0  0  0  0  0  0  0  0  0  0
   58.8780   31.7470   43.3200 H   0  0  0  0  0  0  0  0  0  0  0  0
   56.4304   33.0052   44.4113 H   0  0  0  0  0  0  0  0  0  0  0  0
   57.2327   31.5089   45.0441 H   0  0  0  0  0  0  0  0  0  0  0  0
   58.3987   34.9601   43.9344 H   0  0  0  0  0  0  0  0  0  0  0  0
   59.9639   36.3337   45.3076 H   0  0  0  0  0  0  0  0  0  0  0  0
   60.8032   35.4418   47.4828 H   0  0  0  0  0  0  0  0  0  0  0  0
   58.5313   31.5130   48.2224 H   0  0  0  0  0  0  0  0  0  0  0  0
   57.5194   31.1889   46.7741 H   0  0  0  0  0  0  0  0  0  0  0  0
   59.2581   30.7378   46.7741 H   0  0  0  0  0  0  0  0  0  0  0  0
   58.8949   30.4122   44.9034 H   0  0  0  0  0  0  0  0  0  0  0  0
  1  2  1  0
  2  3  1  0
  3  4  2  0
  4  5  1  0
  5  6  1  0
  6  7  1  0
  7  8  1  0
  8  9  1  0
  9 10  1  0
 10 11  2  0
 11 12  1  0
 12 13  2  0
 13 14  1  0
 14 15  2  0
 15 16  1  0
  5 17  1  0
 17  2  2  0
 15 10  1  0
  1 18  1  0
  1 19  1  0
  1 20  1  0
  3 21  1  0
  4 22  1  0
  6 23  1  0
  6 24  1  0
  7 25  1  0
  7 26  1  0
  8 27  1  0
  9 28  1  0
  9 29  1  0
 11 30  1  0
 12 31  1  0
 13 32  1  0
 16 33  1  0
 16 34  1  0
 16 35  1  0
 17 36  1  0
M  CHG  1   4   1
M  END
>  <UniqueID>  (36) 
35

>  <SMILES>  (36) 
Cc1c[nH+]n(CCNCc2cccnc2C)c1

>  <Energy>  (36) 
63.1002052127163

>  <Genealogy>  (36) 
Cc1c[nH+]n(CCNCc2cccnc2C)c1 (protonated)
Cc1c[nH+]n(CCNCc2cccnc2C)c1 (3D coordinates assigned)
Cc1c[nH+]n(CCNCc2cccnc2C)c1 (optimized conformer: 63.1002052127163 kcal/mol)

>  <smiles>  (36) 
Cc1cnn(CCNCc2cccnc2C)c1

>  <score_type>  (36) 
oracle

>  <origin>  (36) 
adg

>  <m_score__min__energy>  (36) 
-5.3499999999999996

>  <m_primary>  (36) 
energy

$$$$
36:0
     RDKit          3D

 43 45  0  0  0  0  0  0  0  0999 V2000
   57.1095   27.6230   44.5915 H   0  0  0  0  0  0  0  0  0  0  0  0
   57.2530   28.7090   44.4920 C   0  0  0  0  0  0  0  0  0  0  0  0
   56.6680   29.3910   43.4270 C   0  0  0  0  0  0  0  0  0  0  0  0
   56.0643   28.8421   42.6893 H   0  0  0  0  0  0  0  0  0  0  0  0
   56.8460   30.7680   43.2940 C   0  0  0  0  0  0  0  0  0  0  0  0
   56.3818   31.3008   42.4510 H   0  0  0  0  0  0  0  0  0  0  0  0
   57.6150   31.4780   44.2310 C   0  0  0  0  0  0  0  0  0  0  0  0
   58.2170   30.7920   45.3210 C   0  0  0  0  0  0  0  0  0  0  0  0
   58.0210   29.3980   45.4340 C   0  0  0  0  0  0  0  0  0  0  0  0
   58.4772   28.8497   46.2714 H   0  0  0  0  0  0  0  0  0  0  0  0
   58.9900   31.5170   46.2690 C   0  0  0  0  0  0  0  0  0  0  0  0
   59.5180   30.8530   47.2680 N   0  0  0  0  0  0  0  0  0  0  0  0
   60.8430   30.2730   47.4800 C   0  0  0  0  0  0  0  0  0  0  0  0
   61.3030   30.0528   46.5054 H   0  0  0  0  0  0  0  0  0  0  0  0
   60.7391   29.3474   48.0652 H   0  0  0  0  0  0  0  0  0  0  0  0
   61.7380   31.2560   48.2530 C   0  0  0  0  0  0  0  0  0  0  0  0
   62.0200   30.7917   49.2095 H   0  0  0  0  0  0  0  0  0  0  0  0
   61.1581   32.1802   48.3928 H   0  0  0  0  0  0  0  0  0  0  0  0
   63.0330   31.6410   47.4940 C   0  0  0  0  0  0  0  0  0  0  0  0
   62.8775   31.4204   46.4276 H   0  0  0  0  0  0  0  0  0  0  0  0
   63.8381   31.0535   47.9594 H   0  0  0  0  0  0  0  0  0  0  0  0
   63.4500   33.0570   47.6090 N   0  0  0  0  0  0  0  0  0  0  0  0
   62.8410   33.7640   48.7460 C   0  0  0  0  0  0  0  0  0  0  0  0
   63.2124   33.3328   49.6874 H   0  0  0  0  0  0  0  0  0  0  0  0
   63.1081   34.8301   48.7005 H   0  0  0  0  0  0  0  0  0  0  0  0
   61.7471   33.6578   48.7005 H   0  0  0  0  0  0  0  0  0  0  0  0
   63.3270   33.8210   46.3610 C   0  0  0  0  0  0  0  0  0  0  0  0
   63.1562   34.8820   46.5959 H   0  0  0  0  0  0  0  0  0  0  0  0
   64.2531   33.7194   45.7761 H   0  0  0  0  0  0  0  0  0  0  0  0
   62.4796   33.4339   45.7761 H   0  0  0  0  0  0  0  0  0  0  0  0
   59.1340   32.9160   46.0620 C   0  0  0  0  0  0  0  0  0  0  0  0
   58.5290   33.5200   44.9830 C   0  0  0  0  0  0  0  0  0  0  0  0
   57.7840   32.8230   44.0900 N   0  0  0  0  0  0  0  0  0  0  0  0
   57.3530   33.3300   43.2830 H   0  0  0  0  0  0  0  0  0  0  0  0
   58.8180   34.9660   44.8700 C   0  0  0  0  0  0  0  0  0  0  0  0
   59.3761   35.1833   43.9473 H   0  0  0  0  0  0  0  0  0  0  0  0
   57.9064   35.5799   44.8227 H   0  0  0  0  0  0  0  0  0  0  0  0
   59.6700   35.2650   46.1060 C   0  0  0  0  0  0  0  0  0  0  0  0
   60.6128   35.7460   45.8064 H   0  0  0  0  0  0  0  0  0  0  0  0
   59.1419   35.9474   46.7883 H   0  0  0  0  0  0  0  0  0  0  0  0
   59.9600   33.9210   46.7950 C   0  0  0  0  0  0  0  0  0  0  0  0
   61.0285   33.6713   46.7181 H   0  0  0  0  0  0  0  0  0  0  0  0
   59.7159   33.9488   47.8672 H   0  0  0  0  0  0  0  0  0  0  0  0
  1  2  1  0
  2  3  2  0
  3  4  1  0
  3  5  1  0
  5  6  1  0
  5  7  2  0
  7  8  1  0
  8  9  2  0
  9 10  1  0
  8 11  1  0
 11 12  2  0
 12 13  1  0
 13 14  1  0
 13 15  1  0
 13 16  1  0
 16 17  1  0
 16 18  1  0
 16 19  1  0
 19 20  1  0
 19 21  1  0
 19 22  1  0
 22 23  1  0
 23 24  1  0
 23 25  1  0
 23 26  1  0
 22 27  1  0
 27 28  1  0
 27 29  1  0
 27 30  1  0
 11 31  1  0
 31 32  2  0
 32 33  1  0
 33 34  1  0
 32 35  1  0
 35 36  1  0
 35 37  1  0
 35 38  1  0
 38 39  1  0
 38 40  1  0
 38 41  1  0
 41 42  1  0
 41 43  1  0
  9  2  1  0
 41 31  1  0
 33  7  1  0
M  END
>  <UniqueID>  (37) 
36

>  <SMILES>  (37) 
CN(C)CCC/N=c1\c2c([nH]c3ccccc13)CCC2

>  <Energy>  (37) 
67.94326896745325

>  <Genealogy>  (37) 
CN(C)CCC/N=c1\c2c([nH]c3ccccc13)CCC2 (cis-trans isomerization)
CN(C)CCC/N=c1\c2c([nH]c3ccccc13)CCC2 (3D coordinates assigned)
CN(C)CCC/N=c1\c2c([nH]c3ccccc13)CCC2 (nonaromatic ring conformer: 67.94326896745325 kcal/mol)

>  <smiles>  (37) 
CN(C)CCCN=c1c2c([nH]c3ccccc13)CCC2

>  <score_type>  (37) 
oracle

>  <origin>  (37) 
adg

>  <m_score__min__energy>  (37) 
-6.8099999999999996

>  <m_primary>  (37) 
energy

$$$$
37:0
     RDKit          3D

 31 32  0  0  0  0  0  0  0  0999 V2000
   58.6480   31.6970   46.4570 C   0  0  0  0  0  0  0  0  0  0  0  0
   57.9620   32.2190   45.4360 C   0  0  0  0  0  0  0  0  0  0  0  0
   57.7360   33.6860   45.4130 C   0  0  0  0  0  0  0  0  0  0  0  0
   58.6250   34.6060   45.0060 C   0  0  0  0  0  0  0  0  0  0  0  0
   59.6590   35.2270   45.8590 C   0  0  0  0  0  0  0  0  0  0  0  0
   59.9570   36.4330   45.6450 O   0  0  0  0  0  0  0  0  0  0  0  0
   60.3080   34.5070   46.9830 C   0  0  0  0  0  0  0  0  0  0  0  0
   59.7560   34.5300   48.2750 C   0  0  0  0  0  0  0  0  0  0  0  0
   60.3980   33.8500   49.3130 C   0  0  0  0  0  0  0  0  0  0  0  0
   61.5510   33.1720   49.0740 N   0  0  0  0  0  0  0  0  0  0  0  0
   62.1130   33.1370   47.8370 C   0  0  0  0  0  0  0  0  0  0  0  0
   61.5080   33.8080   46.7720 C   0  0  0  0  0  0  0  0  0  0  0  0
   57.2770   31.3310   44.4650 C   0  0  0  0  0  0  0  0  0  0  0  0
   56.4350   30.3510   44.8600 N   0  0  0  0  0  0  0  0  0  0  0  0
   56.0080   29.7900   43.7110 C   0  0  0  0  0  0  0  0  0  0  0  0
   56.5850   30.4350   42.6410 C   0  0  0  0  0  0  0  0  0  0  0  0
   57.3740   31.4120   43.1170 N   0  0  0  0  0  0  0  0  0  0  0  0
   58.1480   32.3450   42.3020 C   0  0  0  0  0  0  0  0  0  0  0  0
   58.8305   30.6131   46.5000 H   0  0  0  0  0  0  0  0  0  0  0  0
   59.0302   32.3512   47.2545 H   0  0  0  0  0  0  0  0  0  0  0  0
   56.7573   34.0501   45.7587 H   0  0  0  0  0  0  0  0  0  0  0  0
   58.5799   34.9226   43.9535 H   0  0  0  0  0  0  0  0  0  0  0  0
   58.8234   35.0804   48.4681 H   0  0  0  0  0  0  0  0  0  0  0  0
   59.9691   33.8635   50.3259 H   0  0  0  0  0  0  0  0  0  0  0  0
   63.0467   32.5788   47.6743 H   0  0  0  0  0  0  0  0  0  0  0  0
   61.9687   33.7892   45.7733 H   0  0  0  0  0  0  0  0  0  0  0  0
   55.3060   28.9461   43.6396 H   0  0  0  0  0  0  0  0  0  0  0  0
   56.4273   30.1924   41.5797 H   0  0  0  0  0  0  0  0  0  0  0  0
   58.7117   33.0245   42.9581 H   0  0  0  0  0  0  0  0  0  0  0  0
   58.8488   31.7831   41.6671 H   0  0  0  0  0  0  0  0  0  0  0  0
   57.4663   32.9300   41.6671 H   0  0  0  0  0  0  0  0  0  0  0  0
  1  2  2  0
  2  3  1  0
  3  4  2  3
  4  5  1  0
  5  6  2  0
  5  7  1  0
  7  8  2  0
  8  9  1  0
  9 10  2  0
 10 11  1  0
 11 12  2  0
  2 13  1  0
 13 14  2  0
 14 15  1  0
 15 16  2  0
 16 17  1  0
 17 18  1  0
 12  7  1  0
 17 13  1  0
  1 19  1  0
  1 20  1  0
  3 21  1  0
  4 22  1  0
  8 23  1  0
  9 24  1  0
 11 25  1  0
 12 26  1  0
 15 27  1  0
 16 28  1  0
 18 29  1  0
 18 30  1  0
 18 31  1  0
M  END
>  <UniqueID>  (38) 
37

>  <SMILES>  (38) 
C=C(C=CC(=O)c1ccncc1)c1nccn1C

>  <Energy>  (38) 
71.5697805433507

>  <Genealogy>  (38) 
C=C(C=CC(=O)c1ccncc1)c1nccn1C (3D coordinates assigned)
C=C(C=CC(=O)c1ccncc1)c1nccn1C (optimized conformer: 71.5697805433507 kcal/mol)

>  <smiles>  (38) 
C=C(C=CC(=O)c1ccncc1)c1nccn1C

>  <score_type>  (38) 
oracle

>  <origin>  (38) 
adg

>  <m_score__min__energy>  (38) 
-6.9699999999999998

>  <m_primary>  (38) 
energy

$$$$
38:0
     RDKit          3D

 44 46  0  0  0  0  0  0  0  0999 V2000
   57.3979   29.7207   44.1228 H   0  0  0  0  0  0  0  0  0  0  0  0
   57.6850   30.7360   44.4340 C   0  0  0  0  0  0  0  0  0  0  0  0
   57.5880   31.7990   43.5120 C   0  0  0  0  0  0  0  0  0  0  0  0
   57.1240   31.5160   42.2190 O   0  0  0  0  0  0  0  0  0  0  0  0
   57.4510   32.2810   41.0630 C   0  0  0  0  0  0  0  0  0  0  0  0
   57.8660   33.2520   41.3712 H   0  0  0  0  0  0  0  0  0  0  0  0
   58.1956   31.7379   40.4625 H   0  0  0  0  0  0  0  0  0  0  0  0
   56.5439   32.4440   40.4625 H   0  0  0  0  0  0  0  0  0  0  0  0
   57.9580   33.1050   43.9120 C   0  0  0  0  0  0  0  0  0  0  0  0
   57.8918   33.9499   43.2107 H   0  0  0  0  0  0  0  0  0  0  0  0
   58.4080   33.2930   45.2160 C   0  0  0  0  0  0  0  0  0  0  0  0
   58.9020   34.7170   45.9580 S   0  0  0  0  0  0  0  0  0  0  0  0
   59.2200   33.9180   47.4140 C   0  0  0  0  0  0  0  0  0  0  0  0
   59.6510   34.5280   48.4790 N   0  0  0  0  0  0  0  0  0  0  0  0
   59.9850   33.8950   49.7210 C   0  0  0  0  0  0  0  0  0  0  0  0
   59.3060   34.1680   50.7470 O   0  0  0  0  0  0  0  0  0  0  0  0
   61.0580   32.9990   49.8020 O   0  0  0  0  0  0  0  0  0  0  0  0
   62.2290   33.2350   50.5800 C   0  0  0  0  0  0  0  0  0  0  0  0
   61.9650   33.8582   51.4471 H   0  0  0  0  0  0  0  0  0  0  0  0
   62.6314   32.2658   50.9096 H   0  0  0  0  0  0  0  0  0  0  0  0
   63.3060   33.9560   49.7520 C   0  0  0  0  0  0  0  0  0  0  0  0
   62.8505   34.8362   49.2747 H   0  0  0  0  0  0  0  0  0  0  0  0
   64.1175   34.2360   50.4398 H   0  0  0  0  0  0  0  0  0  0  0  0
   63.9230   33.0580   48.6470 C   0  0  0  0  0  0  0  0  0  0  0  0
   64.9949   32.9637   48.8755 H   0  0  0  0  0  0  0  0  0  0  0  0
   63.7710   33.7120   47.2600 C   0  0  0  0  0  0  0  0  0  0  0  0
   64.1107   34.7564   47.3229 H   0  0  0  0  0  0  0  0  0  0  0  0
   64.3774   33.1327   46.5482 H   0  0  0  0  0  0  0  0  0  0  0  0
   62.3110   33.6950   46.7570 C   0  0  0  0  0  0  0  0  0  0  0  0
   61.8002   34.5887   47.1447 H   0  0  0  0  0  0  0  0  0  0  0  0
   62.3511   33.6764   45.6579 H   0  0  0  0  0  0  0  0  0  0  0  0
   61.5480   32.5020   47.1800 N   0  0  0  0  0  0  0  0  0  0  0  0
   60.9850   32.7240   48.0350 H   0  0  0  0  0  0  0  0  0  0  0  0
   60.8730   32.2440   46.4220 H   0  0  0  0  0  0  0  0  0  0  0  0
   62.4040   31.3410   47.4570 C   0  0  0  0  0  0  0  0  0  0  0  0
   61.7693   30.4732   47.6897 H   0  0  0  0  0  0  0  0  0  0  0  0
   63.0205   31.1396   46.5686 H   0  0  0  0  0  0  0  0  0  0  0  0
   63.3370   31.6170   48.6500 C   0  0  0  0  0  0  0  0  0  0  0  0
   62.7677   31.4727   49.5801 H   0  0  0  0  0  0  0  0  0  0  0  0
   64.1836   30.9189   48.5722 H   0  0  0  0  0  0  0  0  0  0  0  0
   58.9560   32.5890   47.3540 N   0  0  0  0  0  0  0  0  0  0  0  0
   58.5020   32.2470   46.1210 C   0  0  0  0  0  0  0  0  0  0  0  0
   58.1430   30.9550   45.7440 C   0  0  0  0  0  0  0  0  0  0  0  0
   58.2167   30.1219   46.4585 H   0  0  0  0  0  0  0  0  0  0  0  0
  1  2  1  0
  2  3  2  0
  3  4  1  0
  4  5  1  0
  5  6  1  0
  5  7  1  0
  5  8  1  0
  3  9  1  0
  9 10  1  0
  9 11  2  0
 11 12  1  0
 12 13  1  0
 13 14  2  0
 14 15  1  0
 15 16  2  0
 15 17  1  0
 17 18  1  0
 18 19  1  0
 18 20  1  0
 18 21  1  0
 21 22  1  0
 21 23  1  0
 21 24  1  0
 24 25  1  0
 24 26  1  0
 26 27  1  0
 26 28  1  0
 26 29  1  0
 29 30  1  0
 29 31  1  0
 29 32  1  0
 32 33  1  0
 32 34  1  0
 32 35  1  0
 35 36  1  0
 35 37  1  0
 35 38  1  0
 38 39  1  0
 38 40  1  0
 13 41  1  0
 41 42  1  0
 42 43  2  0
 43 44  1  0
 43  2  1  0
 42 11  1  0
 38 24  1  0
M  CHG  2  32   1  41  -1
M  END
>  <UniqueID>  (39) 
38

>  <SMILES>  (39) 
COc1ccc2[n-]/c(=N\C(=O)OCCC3CC[NH2+]CC3)sc2c1

>  <Energy>  (39) 
81.98354003221893

>  <Genealogy>  (39) 
COc1ccc2[n-]c(=NC(=O)OCCC3CC[NH2+]CC3)sc2c1 (protonated)
COc1ccc2[n-]/c(=N\C(=O)OCCC3CC[NH2+]CC3)sc2c1 (cis-trans isomerization)
COc1ccc2[n-]/c(=N\C(=O)OCCC3CC[NH2+]CC3)sc2c1 (3D coordinates assigned)
COc1ccc2[n-]/c(=N\C(=O)OCCC3CC[NH2+]CC3)sc2c1 (nonaromatic ring conformer: 81.98354003221893 kcal/mol)

>  <smiles>  (39) 
COc1ccc2[nH]c(=NC(=O)OCCC3CCNCC3)sc2c1

>  <score_type>  (39) 
oracle

>  <origin>  (39) 
adg

>  <m_score__min__energy>  (39) 
-5.7000000000000002

>  <m_primary>  (39) 
energy

$$$$
39:0
     RDKit          3D

 48 50  0  0  0  0  0  0  0  0999 V2000
   58.5200   31.3350   50.5060 C   0  0  0  0  0  0  0  0  0  0  0  0
   59.6970   31.1360   49.7300 O   0  0  0  0  0  0  0  0  0  0  0  0
   59.7210   30.5680   48.4460 C   0  0  0  0  0  0  0  0  0  0  0  0
   58.5630   30.0730   47.8250 C   0  0  0  0  0  0  0  0  0  0  0  0
   58.6020   29.5310   46.5280 C   0  0  0  0  0  0  0  0  0  0  0  0
   59.8560   29.4310   45.8610 C   0  0  0  0  0  0  0  0  0  0  0  0
   61.0040   29.9510   46.4880 C   0  0  0  0  0  0  0  0  0  0  0  0
   60.9430   30.5160   47.7710 C   0  0  0  0  0  0  0  0  0  0  0  0
   62.0760   31.0390   48.4150 O   0  0  0  0  0  0  0  0  0  0  0  0
   62.9540   32.0320   47.8810 C   0  0  0  0  0  0  0  0  0  0  0  0
   62.3470   33.4400   47.9920 C   0  0  0  0  0  0  0  0  0  0  0  0
   61.2040   33.4570   48.9170 N   0  0  0  0  0  0  0  0  0  0  0  0
   60.2300   34.4960   48.5670 C   0  0  0  0  0  0  0  0  0  0  0  0
   59.4430   34.0470   47.3800 C   0  0  0  0  0  0  0  0  0  0  0  0
   58.2220   33.3850   47.4240 C   0  0  0  0  0  0  0  0  0  0  0  0
   57.7680   32.9850   46.1620 C   0  0  0  0  0  0  0  0  0  0  0  0
   58.6330   33.3170   45.1270 C   0  0  0  0  0  0  0  0  0  0  0  0
   59.9680   34.1020   45.7850 S   0  0  0  0  0  0  0  0  0  0  0  0
   60.0280   28.8750   44.4570 C   0  0  0  0  0  0  0  0  0  0  0  0
   59.0770   27.7150   44.1310 C   0  0  0  0  0  0  0  0  0  0  0  0
   57.7650   28.1740   43.6420 N   0  0  0  0  0  0  0  0  0  0  0  0
   57.1380   29.2330   44.4520 C   0  0  0  0  0  0  0  0  0  0  0  0
   57.2970   28.9990   45.9610 C   0  0  0  0  0  0  0  0  0  0  0  0
   58.7742   31.2920   51.5754 H   0  0  0  0  0  0  0  0  0  0  0  0
   58.0879   32.3189   50.2711 H   0  0  0  0  0  0  0  0  0  0  0  0
   57.7885   30.5478   50.2711 H   0  0  0  0  0  0  0  0  0  0  0  0
   57.6051   30.1100   48.3645 H   0  0  0  0  0  0  0  0  0  0  0  0
   61.9690   29.9137   45.9613 H   0  0  0  0  0  0  0  0  0  0  0  0
   63.9025   32.0069   48.4376 H   0  0  0  0  0  0  0  0  0  0  0  0
   63.1184   31.8103   46.8162 H   0  0  0  0  0  0  0  0  0  0  0  0
   63.1167   34.1341   48.3605 H   0  0  0  0  0  0  0  0  0  0  0  0
   61.9928   33.7452   46.9963 H   0  0  0  0  0  0  0  0  0  0  0  0
   60.7210   32.5290   48.8480 H   0  0  0  0  0  0  0  0  0  0  0  0
   59.5516   34.6661   49.4160 H   0  0  0  0  0  0  0  0  0  0  0  0
   60.7558   35.4328   48.3306 H   0  0  0  0  0  0  0  0  0  0  0  0
   57.6688   33.1948   48.3556 H   0  0  0  0  0  0  0  0  0  0  0  0
   56.8158   32.4573   46.0045 H   0  0  0  0  0  0  0  0  0  0  0  0
   58.4727   33.1033   44.0599 H   0  0  0  0  0  0  0  0  0  0  0  0
   59.8450   29.6866   43.7374 H   0  0  0  0  0  0  0  0  0  0  0  0
   61.0521   28.4787   44.3918 H   0  0  0  0  0  0  0  0  0  0  0  0
   59.5410   27.0870   43.3562 H   0  0  0  0  0  0  0  0  0  0  0  0
   58.9064   27.1543   45.0619 H   0  0  0  0  0  0  0  0  0  0  0  0
   57.1210   27.3490   43.6050 H   0  0  0  0  0  0  0  0  0  0  0  0
   57.8740   28.5310   42.6630 H   0  0  0  0  0  0  0  0  0  0  0  0
   57.6042   30.1954   44.1943 H   0  0  0  0  0  0  0  0  0  0  0  0
   56.0612   29.2288   44.2273 H   0  0  0  0  0  0  0  0  0  0  0  0
   56.4646   29.4975   46.4792 H   0  0  0  0  0  0  0  0  0  0  0  0
   57.2984   27.9104   46.1188 H   0  0  0  0  0  0  0  0  0  0  0  0
  1  2  1  0
  2  3  1  0
  3  4  2  0
  4  5  1  0
  5  6  2  0
  6  7  1  0
  7  8  2  0
  8  9  1  0
  9 10  1  0
 10 11  1  0
 11 12  1  0
 12 13  1  0
 13 14  1  0
 14 15  2  0
 15 16  1  0
 16 17  2  0
 17 18  1  0
  6 19  1  0
 19 20  1  0
 20 21  1  0
 21 22  1  0
 22 23  1  0
  8  3  1  0
 18 14  1  0
 23  5  1  0
  1 24  1  0
  1 25  1  0
  1 26  1  0
  4 27  1  0
  7 28  1  0
 10 29  1  0
 10 30  1  0
 11 31  1  0
 11 32  1  0
 12 33  1  0
 13 34  1  0
 13 35  1  0
 15 36  1  0
 16 37  1  0
 17 38  1  0
 19 39  1  0
 19 40  1  0
 20 41  1  0
 20 42  1  0
 21 43  1  0
 21 44  1  0
 22 45  1  0
 22 46  1  0
 23 47  1  0
 23 48  1  0
M  CHG  1  21   1
M  END
>  <UniqueID>  (40) 
39

>  <SMILES>  (40) 
COc1cc2c(cc1OCCNCc1cccs1)CC[NH2+]CC2

>  <Energy>  (40) 
81.14512685701398

>  <Genealogy>  (40) 
COc1cc2c(cc1OCCNCc1cccs1)CC[NH2+]CC2 (protonated)
COc1cc2c(cc1OCCNCc1cccs1)CC[NH2+]CC2 (3D coordinates assigned)
COc1cc2c(cc1OCCNCc1cccs1)CC[NH2+]CC2 (nonaromatic ring conformer: 81.14512685701398 kcal/mol)

>  <smiles>  (40) 
COc1cc2c(cc1OCCNCc1cccs1)CCNCC2

>  <score_type>  (40) 
oracle

>  <origin>  (40) 
adg

>  <m_score__min__energy>  (40) 
-4.2699999999999996

>  <m_primary>  (40) 
energy

$$$$
40:0
     RDKit          3D

 27 29  0  0  0  0  0  0  0  0999 V2000
   57.7680   32.2080   42.8020 C   0  0  0  0  0  0  0  0  0  0  0  0
   58.1900   31.8820   44.1810 N   0  0  0  0  0  0  0  0  0  0  0  0
   58.6000   32.8870   45.0410 C   0  0  0  0  0  0  0  0  0  0  0  0
   58.9050   34.1920   44.5790 C   0  0  0  0  0  0  0  0  0  0  0  0
   59.2670   35.2040   45.4680 C   0  0  0  0  0  0  0  0  0  0  0  0
   59.3510   34.9440   46.8320 C   0  0  0  0  0  0  0  0  0  0  0  0
   59.0970   33.6610   47.3120 C   0  0  0  0  0  0  0  0  0  0  0  0
   58.7410   32.6210   46.4300 C   0  0  0  0  0  0  0  0  0  0  0  0
   58.5390   31.3190   46.9070 C   0  0  0  0  0  0  0  0  0  0  0  0
   58.6280   31.0740   48.1430 O   0  0  0  0  0  0  0  0  0  0  0  0
   58.2710   30.2830   46.0030 C   0  0  0  0  0  0  0  0  0  0  0  0
   58.1460   28.9530   46.4400 C   0  0  0  0  0  0  0  0  0  0  0  0
   57.9330   27.9320   45.5210 C   0  0  0  0  0  0  0  0  0  0  0  0
   57.8640   28.2380   44.1660 C   0  0  0  0  0  0  0  0  0  0  0  0
   57.9750   29.5260   43.7440 N   0  0  0  0  0  0  0  0  0  0  0  0
   58.1390   30.5720   44.6210 C   0  0  0  0  0  0  0  0  0  0  0  0
   56.8979   32.8802   42.8341 H   0  0  0  0  0  0  0  0  0  0  0  0
   58.5952   32.7039   42.2730 H   0  0  0  0  0  0  0  0  0  0  0  0
   57.4970   31.2824   42.2730 H   0  0  0  0  0  0  0  0  0  0  0  0
   58.8554   34.4101   43.5020 H   0  0  0  0  0  0  0  0  0  0  0  0
   59.4872   36.2128   45.0886 H   0  0  0  0  0  0  0  0  0  0  0  0
   59.6177   35.7505   47.5308 H   0  0  0  0  0  0  0  0  0  0  0  0
   59.1751   33.4577   48.3902 H   0  0  0  0  0  0  0  0  0  0  0  0
   58.2169   28.7193   47.5125 H   0  0  0  0  0  0  0  0  0  0  0  0
   57.8201   26.8923   45.8621 H   0  0  0  0  0  0  0  0  0  0  0  0
   57.7187   27.4328   43.4308 H   0  0  0  0  0  0  0  0  0  0  0  0
   57.9740   29.6700   42.7110 H   0  0  0  0  0  0  0  0  0  0  0  0
  1  2  1  0
  2  3  1  0
  3  4  2  0
  4  5  1  0
  5  6  2  0
  6  7  1  0
  7  8  2  0
  8  9  1  0
  9 10  2  0
  9 11  1  0
 11 12  2  0
 12 13  1  0
 13 14  2  0
 14 15  1  0
 15 16  2  0
 16  2  1  0
  8  3  1  0
 16 11  1  0
  1 17  1  0
  1 18  1  0
  1 19  1  0
  4 20  1  0
  5 21  1  0
  6 22  1  0
  7 23  1  0
 12 24  1  0
 13 25  1  0
 14 26  1  0
 15 27  1  0
M  CHG  1  15   1
M  END
>  <UniqueID>  (41) 
40

>  <SMILES>  (41) 
Cn1c2ccccc2c(=O)c2ccc[nH+]c21

>  <Energy>  (41) 
50.59269201795348

>  <Genealogy>  (41) 
Cn1c2ccccc2c(=O)c2ccc[nH+]c21 (protonated)
Cn1c2ccccc2c(=O)c2ccc[nH+]c21 (3D coordinates assigned)
Cn1c2ccccc2c(=O)c2ccc[nH+]c21 (optimized conformer: 50.59269201795348 kcal/mol)

>  <smiles>  (41) 
Cn1c2ccccc2c(=O)c2cccnc21

>  <score_type>  (41) 
oracle

>  <origin>  (41) 
adg

>  <m_score__min__energy>  (41) 
-4.8600000000000003

>  <m_primary>  (41) 
energy

$$$$
41:0
     RDKit          3D

 40 42  0  0  0  0  0  0  0  0999 V2000
   63.3140   33.5050   46.7710 C   0  0  0  0  0  0  0  0  0  0  0  0
   62.0150   33.1730   47.3800 N   0  0  0  0  0  0  0  0  0  0  0  0
   61.6540   34.1630   48.4270 C   0  0  0  0  0  0  0  0  0  0  0  0
   60.1540   34.0900   48.7350 C   0  0  0  0  0  0  0  0  0  0  0  0
   59.3380   34.1150   47.4730 C   0  0  0  0  0  0  0  0  0  0  0  0
   59.7630   34.8530   46.3580 C   0  0  0  0  0  0  0  0  0  0  0  0
   58.9620   34.8890   45.2160 C   0  0  0  0  0  0  0  0  0  0  0  0
   57.7490   34.1980   45.1970 C   0  0  0  0  0  0  0  0  0  0  0  0
   57.3520   33.4820   46.3270 C   0  0  0  0  0  0  0  0  0  0  0  0
   58.1450   33.4590   47.4320 N   0  0  0  0  0  0  0  0  0  0  0  0
   62.0410   31.7900   47.9000 C   0  0  0  0  0  0  0  0  0  0  0  0
   60.8520   31.0240   47.4160 C   0  0  0  0  0  0  0  0  0  0  0  0
   60.3950   29.8960   47.9900 N   0  0  0  0  0  0  0  0  0  0  0  0
   59.3660   29.5000   47.2590 N   0  0  0  0  0  0  0  0  0  0  0  0
   59.2380   30.4000   46.2630 C   0  0  0  0  0  0  0  0  0  0  0  0
   58.2120   30.3360   45.2040 C   0  0  0  0  0  0  0  0  0  0  0  0
   57.1320   29.4400   45.3050 C   0  0  0  0  0  0  0  0  0  0  0  0
   56.1650   29.3850   44.2970 C   0  0  0  0  0  0  0  0  0  0  0  0
   56.2680   30.2200   43.1810 C   0  0  0  0  0  0  0  0  0  0  0  0
   57.3380   31.1120   43.0720 C   0  0  0  0  0  0  0  0  0  0  0  0
   58.3070   31.1710   44.0790 C   0  0  0  0  0  0  0  0  0  0  0  0
   60.1500   31.3380   46.3550 O   0  0  0  0  0  0  0  0  0  0  0  0
   64.0530   33.6939   47.5636 H   0  0  0  0  0  0  0  0  0  0  0  0
   63.6521   32.6644   46.1472 H   0  0  0  0  0  0  0  0  0  0  0  0
   63.2073   34.4047   46.1472 H   0  0  0  0  0  0  0  0  0  0  0  0
   62.2233   33.9462   49.3429 H   0  0  0  0  0  0  0  0  0  0  0  0
   61.8954   35.1725   48.0628 H   0  0  0  0  0  0  0  0  0  0  0  0
   59.9445   33.1574   49.2793 H   0  0  0  0  0  0  0  0  0  0  0  0
   59.8806   34.9643   49.3439 H   0  0  0  0  0  0  0  0  0  0  0  0
   60.7182   35.3979   46.3838 H   0  0  0  0  0  0  0  0  0  0  0  0
   59.2853   35.4602   44.3333 H   0  0  0  0  0  0  0  0  0  0  0  0
   57.1125   34.2178   44.3001 H   0  0  0  0  0  0  0  0  0  0  0  0
   56.3972   32.9358   46.3242 H   0  0  0  0  0  0  0  0  0  0  0  0
   62.9581   31.2908   47.5540 H   0  0  0  0  0  0  0  0  0  0  0  0
   62.0180   31.8237   48.9992 H   0  0  0  0  0  0  0  0  0  0  0  0
   57.0482   28.7799   46.1809 H   0  0  0  0  0  0  0  0  0  0  0  0
   55.3219   28.6836   44.3823 H   0  0  0  0  0  0  0  0  0  0  0  0
   55.5066   30.1750   42.3883 H   0  0  0  0  0  0  0  0  0  0  0  0
   57.4184   31.7686   42.1932 H   0  0  0  0  0  0  0  0  0  0  0  0
   59.1475   31.8749   43.9892 H   0  0  0  0  0  0  0  0  0  0  0  0
  1  2  1  0
  2  3  1  0
  3  4  1  0
  4  5  1  0
  5  6  2  0
  6  7  1  0
  7  8  2  0
  8  9  1  0
  9 10  2  0
  2 11  1  0
 11 12  1  0
 12 13  2  0
 13 14  1  0
 14 15  2  0
 15 16  1  0
 16 17  2  0
 17 18  1  0
 18 19  2  0
 19 20  1  0
 20 21  2  0
 15 22  1  0
 10  5  1  0
 22 12  1  0
 21 16  1  0
  1 23  1  0
  1 24  1  0
  1 25  1  0
  3 26  1  0
  3 27  1  0
  4 28  1  0
  4 29  1  0
  6 30  1  0
  7 31  1  0
  8 32  1  0
  9 33  1  0
 11 34  1  0
 11 35  1  0
 17 36  1  0
 18 37  1  0
 19 38  1  0
 20 39  1  0
 21 40  1  0
M  END
>  <UniqueID>  (42) 
41

>  <SMILES>  (42) 
CN(CCc1ccccn1)Cc1nnc(-c2ccccc2)o1

>  <Energy>  (42) 
75.52852834108648

>  <Genealogy>  (42) 
CN(CCc1ccccn1)Cc1nnc(-c2ccccc2)o1 (3D coordinates assigned)
CN(CCc1ccccn1)Cc1nnc(-c2ccccc2)o1 (optimized conformer: 75.52852834108648 kcal/mol)

>  <smiles>  (42) 
CN(CCc1ccccn1)Cc1nnc(-c2ccccc2)o1

>  <score_type>  (42) 
oracle

>  <origin>  (42) 
adg

>  <m_score__min__energy>  (42) 
-7.9199999999999999

>  <m_primary>  (42) 
energy

$$$$
42:0
     RDKit          3D

 50 52  0  0  0  0  0  0  0  0999 V2000
   63.2600   32.3400   47.3490 C   0  0  0  0  0  0  0  0  0  0  0  0
   63.2520   33.4830   48.3680 C   0  0  0  0  0  0  0  0  0  0  0  0
   63.6450   33.0350   49.7290 N   0  0  0  0  0  0  0  0  0  0  0  0
   64.9300   32.2840   49.7260 C   0  0  0  0  0  0  0  0  0  0  0  0
   64.9550   31.2490   50.8530 C   0  0  0  0  0  0  0  0  0  0  0  0
   63.6880   34.2010   50.6560 C   0  0  0  0  0  0  0  0  0  0  0  0
   62.9880   33.8740   51.9900 C   0  0  0  0  0  0  0  0  0  0  0  0
   62.1200   32.6840   51.9320 N   0  0  0  0  0  0  0  0  0  0  0  0
   60.7750   32.9880   51.4100 C   0  0  0  0  0  0  0  0  0  0  0  0
   60.4410   32.0820   50.2370 C   0  0  0  0  0  0  0  0  0  0  0  0
   60.6750   30.7130   50.3960 C   0  0  0  0  0  0  0  0  0  0  0  0
   60.3880   29.8020   49.3790 C   0  0  0  0  0  0  0  0  0  0  0  0
   60.6190   28.4340   49.6010 C   0  0  0  0  0  0  0  0  0  0  0  0
   60.3300   27.4980   48.6120 C   0  0  0  0  0  0  0  0  0  0  0  0
   59.8080   27.9150   47.3910 C   0  0  0  0  0  0  0  0  0  0  0  0
   59.4050   26.6220   46.0420 Br  0  0  0  0  0  0  0  0  0  0  0  0
   59.5770   29.2730   47.1500 C   0  0  0  0  0  0  0  0  0  0  0  0
   59.8640   30.2510   48.1370 C   0  0  0  0  0  0  0  0  0  0  0  0
   59.6560   31.6520   47.9360 C   0  0  0  0  0  0  0  0  0  0  0  0
   59.1680   32.1760   46.7110 C   0  0  0  0  0  0  0  0  0  0  0  0
   58.9850   33.5480   46.5330 C   0  0  0  0  0  0  0  0  0  0  0  0
   58.3280   34.2180   44.8670 Br  0  0  0  0  0  0  0  0  0  0  0  0
   59.2830   34.4320   47.5620 C   0  0  0  0  0  0  0  0  0  0  0  0
   59.7640   33.9540   48.7770 C   0  0  0  0  0  0  0  0  0  0  0  0
   59.9540   32.5690   48.9940 C   0  0  0  0  0  0  0  0  0  0  0  0
   63.2667   31.3762   47.8791 H   0  0  0  0  0  0  0  0  0  0  0  0
   62.3614   32.4051   46.7179 H   0  0  0  0  0  0  0  0  0  0  0  0
   64.1576   32.4177   46.7179 H   0  0  0  0  0  0  0  0  0  0  0  0
   63.9577   34.2580   48.0343 H   0  0  0  0  0  0  0  0  0  0  0  0
   62.2242   33.8703   48.4276 H   0  0  0  0  0  0  0  0  0  0  0  0
   65.0451   31.7694   48.7607 H   0  0  0  0  0  0  0  0  0  0  0  0
   65.7551   32.9948   49.8806 H   0  0  0  0  0  0  0  0  0  0  0  0
   64.9425   31.7645   51.8246 H   0  0  0  0  0  0  0  0  0  0  0  0
   64.0723   30.5976   50.7722 H   0  0  0  0  0  0  0  0  0  0  0  0
   65.8681   30.6409   50.7722 H   0  0  0  0  0  0  0  0  0  0  0  0
   64.7375   34.4631   50.8555 H   0  0  0  0  0  0  0  0  0  0  0  0
   63.1629   35.0438   50.1827 H   0  0  0  0  0  0  0  0  0  0  0  0
   63.7607   33.7024   52.7539 H   0  0  0  0  0  0  0  0  0  0  0  0
   62.3407   34.7305   52.2298 H   0  0  0  0  0  0  0  0  0  0  0  0
   62.5780   31.9870   51.3010 H   0  0  0  0  0  0  0  0  0  0  0  0
   62.0430   32.2440   52.8750 H   0  0  0  0  0  0  0  0  0  0  0  0
   60.0339   32.8345   52.2082 H   0  0  0  0  0  0  0  0  0  0  0  0
   60.7543   34.0335   51.0686 H   0  0  0  0  0  0  0  0  0  0  0  0
   61.0948   30.3458   51.3441 H   0  0  0  0  0  0  0  0  0  0  0  0
   61.0317   28.0998   50.5644 H   0  0  0  0  0  0  0  0  0  0  0  0
   60.5141   26.4291   48.7954 H   0  0  0  0  0  0  0  0  0  0  0  0
   59.1661   29.5881   46.1795 H   0  0  0  0  0  0  0  0  0  0  0  0
   58.9295   31.4881   45.8864 H   0  0  0  0  0  0  0  0  0  0  0  0
   59.1384   35.5126   47.4161 H   0  0  0  0  0  0  0  0  0  0  0  0
   60.0005   34.6650   49.5823 H   0  0  0  0  0  0  0  0  0  0  0  0
  1  2  1  0
  2  3  1  0
  3  4  1  0
  4  5  1  0
  3  6  1  0
  6  7  1  0
  7  8  1  0
  8  9  1  0
  9 10  1  0
 10 11  2  0
 11 12  1  0
 12 13  2  0
 13 14  1  0
 14 15  2  0
 15 16  1  0
 15 17  1  0
 17 18  2  0
 18 19  1  0
 19 20  2  0
 20 21  1  0
 21 22  1  0
 21 23  2  0
 23 24  1  0
 24 25  2  0
 25 10  1  0
 18 12  1  0
 25 19  1  0
  1 26  1  0
  1 27  1  0
  1 28  1  0
  2 29  1  0
  2 30  1  0
  4 31  1  0
  4 32  1  0
  5 33  1  0
  5 34  1  0
  5 35  1  0
  6 36  1  0
  6 37  1  0
  7 38  1  0
  7 39  1  0
  8 40  1  0
  8 41  1  0
  9 42  1  0
  9 43  1  0
 11 44  1  0
 13 45  1  0
 14 46  1  0
 17 47  1  0
 20 48  1  0
 23 49  1  0
 24 50  1  0
M  CHG  1   8   1
M  END
>  <UniqueID>  (43) 
42

>  <SMILES>  (43) 
CCN(CC)CC[NH2+]Cc1cc2ccc(Br)cc2c2cc(Br)ccc12

>  <Energy>  (43) 
68.1873670495909

>  <Genealogy>  (43) 
CCN(CC)CC[NH2+]Cc1cc2ccc(Br)cc2c2cc(Br)ccc12 (protonated)
CCN(CC)CC[NH2+]Cc1cc2ccc(Br)cc2c2cc(Br)ccc12 (3D coordinates assigned)
CCN(CC)CC[NH2+]Cc1cc2ccc(Br)cc2c2cc(Br)ccc12 (optimized conformer: 68.1873670495909 kcal/mol)

>  <smiles>  (43) 
CCN(CC)CCNCc1cc2ccc(Br)cc2c2cc(Br)ccc12

>  <score_type>  (43) 
oracle

>  <origin>  (43) 
adg

>  <m_score__min__energy>  (43) 
-6.4699999999999998

>  <m_primary>  (43) 
energy

$$$$
43:0
     RDKit          3D

 73 77  0  0  0  0  0  0  0  0999 V2000
   63.7850   32.9180   47.6660 C   0  0  0  0  0  0  0  0  0  0  0  0
   64.5160   33.4770   48.7500 O   0  0  0  0  0  0  0  0  0  0  0  0
   64.9870   32.7530   49.8560 C   0  0  0  0  0  0  0  0  0  0  0  0
   66.3570   32.4860   50.0390 C   0  0  0  0  0  0  0  0  0  0  0  0
   66.7870   31.7150   51.1230 C   0  0  0  0  0  0  0  0  0  0  0  0
   65.8600   31.2080   52.0360 C   0  0  0  0  0  0  0  0  0  0  0  0
   64.5000   31.4800   51.8730 C   0  0  0  0  0  0  0  0  0  0  0  0
   64.0570   32.2580   50.7930 C   0  0  0  0  0  0  0  0  0  0  0  0
   62.6560   32.5480   50.6480 N   0  0  0  0  0  0  0  0  0  0  0  0
   61.7040   31.4410   50.4710 C   0  0  0  0  0  0  0  0  0  0  0  0
   60.3070   31.9710   50.1300 C   0  0  0  0  0  0  0  0  0  0  0  0
   60.4270   33.0540   49.1450 N   0  0  0  0  0  0  0  0  0  0  0  0
   59.8480   32.9380   47.8270 C   0  0  0  0  0  0  0  0  0  0  0  0
   60.0430   33.9530   46.8770 C   0  0  0  0  0  0  0  0  0  0  0  0
   59.5230   33.8290   45.5900 C   0  0  0  0  0  0  0  0  0  0  0  0
   58.7970   32.6840   45.2200 C   0  0  0  0  0  0  0  0  0  0  0  0
   58.5880   31.6590   46.1640 C   0  0  0  0  0  0  0  0  0  0  0  0
   59.1240   31.7900   47.4580 C   0  0  0  0  0  0  0  0  0  0  0  0
   57.8210   30.4460   45.7870 C   0  0  0  0  0  0  0  0  0  0  0  0
   57.6370   29.5360   46.6390 O   0  0  0  0  0  0  0  0  0  0  0  0
   57.2930   30.2970   44.4510 N   0  0  0  0  0  0  0  0  0  0  0  0
   56.5800   29.0700   44.0600 C   0  0  0  0  0  0  0  0  0  0  0  0
   57.4050   28.2300   43.0740 C   0  0  0  0  0  0  0  0  0  0  0  0
   58.1500   27.0770   43.7790 C   0  0  0  0  0  0  0  0  0  0  0  0
   58.8420   27.5170   45.0180 N   0  0  0  0  0  0  0  0  0  0  0  0
   59.2050   26.3340   45.8490 C   0  0  0  0  0  0  0  0  0  0  0  0
   60.4600   26.5490   46.7270 C   0  0  0  0  0  0  0  0  0  0  0  0
   60.6320   27.9540   47.1450 N   0  0  0  0  0  0  0  0  0  0  0  0
   59.6710   28.3370   48.1940 C   0  0  0  0  0  0  0  0  0  0  0  0
   60.6480   28.9040   46.0060 C   0  0  0  0  0  0  0  0  0  0  0  0
   60.0410   28.3270   44.7110 C   0  0  0  0  0  0  0  0  0  0  0  0
   57.5020   31.3440   43.4830 C   0  0  0  0  0  0  0  0  0  0  0  0
   57.0420   31.2370   42.3140 O   0  0  0  0  0  0  0  0  0  0  0  0
   58.2590   32.5480   43.8500 C   0  0  0  0  0  0  0  0  0  0  0  0
   58.4500   33.4500   42.9900 O   0  0  0  0  0  0  0  0  0  0  0  0
   61.2800   34.2130   49.4620 C   0  0  0  0  0  0  0  0  0  0  0  0
   62.1780   33.9370   50.6780 C   0  0  0  0  0  0  0  0  0  0  0  0
   62.9685   32.2936   48.0577 H   0  0  0  0  0  0  0  0  0  0  0  0
   63.3649   33.7274   47.0509 H   0  0  0  0  0  0  0  0  0  0  0  0
   64.4561   32.3005   47.0509 H   0  0  0  0  0  0  0  0  0  0  0  0
   67.0927   32.8859   49.3257 H   0  0  0  0  0  0  0  0  0  0  0  0
   67.8588   31.5071   51.2571 H   0  0  0  0  0  0  0  0  0  0  0  0
   66.2009   30.5947   52.8832 H   0  0  0  0  0  0  0  0  0  0  0  0
   63.7721   31.0820   52.5954 H   0  0  0  0  0  0  0  0  0  0  0  0
   62.0529   30.7930   49.6534 H   0  0  0  0  0  0  0  0  0  0  0  0
   61.6451   30.8741   51.4118 H   0  0  0  0  0  0  0  0  0  0  0  0
   59.6976   31.1574   49.7095 H   0  0  0  0  0  0  0  0  0  0  0  0
   59.8247   32.3532   51.0417 H   0  0  0  0  0  0  0  0  0  0  0  0
   60.6113   34.8542   47.1509 H   0  0  0  0  0  0  0  0  0  0  0  0
   59.6822   34.6341   44.8576 H   0  0  0  0  0  0  0  0  0  0  0  0
   58.9749   30.9837   48.1912 H   0  0  0  0  0  0  0  0  0  0  0  0
   56.3800   28.4704   44.9603 H   0  0  0  0  0  0  0  0  0  0  0  0
   55.6408   29.3591   43.5657 H   0  0  0  0  0  0  0  0  0  0  0  0
   56.7291   27.8057   42.3169 H   0  0  0  0  0  0  0  0  0  0  0  0
   58.1562   28.8881   42.6128 H   0  0  0  0  0  0  0  0  0  0  0  0
   57.4219   26.2951   44.0408 H   0  0  0  0  0  0  0  0  0  0  0  0
   58.9163   26.7017   43.0848 H   0  0  0  0  0  0  0  0  0  0  0  0
   58.1750   28.1090   45.5690 H   0  0  0  0  0  0  0  0  0  0  0  0
   58.3563   26.1000   46.5085 H   0  0  0  0  0  0  0  0  0  0  0  0
   59.4371   25.5135   45.1540 H   0  0  0  0  0  0  0  0  0  0  0  0
   60.3706   25.9230   47.6271 H   0  0  0  0  0  0  0  0  0  0  0  0
   61.3374   26.2733   46.1236 H   0  0  0  0  0  0  0  0  0  0  0  0
   60.1178   28.1589   49.1833 H   0  0  0  0  0  0  0  0  0  0  0  0
   59.4214   29.4033   48.0910 H   0  0  0  0  0  0  0  0  0  0  0  0
   58.7563   27.7347   48.0910 H   0  0  0  0  0  0  0  0  0  0  0  0
   60.0737   29.7979   46.2909 H   0  0  0  0  0  0  0  0  0  0  0  0
   61.7024   29.1339   45.7930 H   0  0  0  0  0  0  0  0  0  0  0  0
   59.7580   29.1544   44.0437 H   0  0  0  0  0  0  0  0  0  0  0  0
   60.7888   27.6852   44.2223 H   0  0  0  0  0  0  0  0  0  0  0  0
   61.9152   34.4375   48.5925 H   0  0  0  0  0  0  0  0  0  0  0  0
   60.6277   35.0657   49.7018 H   0  0  0  0  0  0  0  0  0  0  0  0
   63.0406   34.6192   50.6555 H   0  0  0  0  0  0  0  0  0  0  0  0
   61.5973   34.0980   51.5982 H   0  0  0  0  0  0  0  0  0  0  0  0
  1  2  1  0
  2  3  1  0
  3  4  2  0
  4  5  1  0
  5  6  2  0
  6  7  1  0
  7  8  2  0
  8  9  1  0
  9 10  1  0
 10 11  1  0
 11 12  1  0
 12 13  1  0
 13 14  2  0
 14 15  1  0
 15 16  2  0
 16 17  1  0
 17 18  2  0
 17 19  1  0
 19 20  2  0
 19 21  1  0
 21 22  1  0
 22 23  1  0
 23 24  1  0
 24 25  1  0
 25 26  1  0
 26 27  1  0
 27 28  1  0
 28 29  1  0
 28 30  1  0
 30 31  1  0
 21 32  1  0
 32 33  2  0
 32 34  1  0
 34 35  2  0
 12 36  1  0
 36 37  1  0
  8  3  1  0
 37  9  1  0
 18 13  1  0
 31 25  1  0
 34 16  1  0
  1 38  1  0
  1 39  1  0
  1 40  1  0
  4 41  1  0
  5 42  1  0
  6 43  1  0
  7 44  1  0
 10 45  1  0
 10 46  1  0
 11 47  1  0
 11 48  1  0
 14 49  1  0
 15 50  1  0
 18 51  1  0
 22 52  1  0
 22 53  1  0
 23 54  1  0
 23 55  1  0
 24 56  1  0
 24 57  1  0
 25 58  1  0
 26 59  1  0
 26 60  1  0
 27 61  1  0
 27 62  1  0
 29 63  1  0
 29 64  1  0
 29 65  1  0
 30 66  1  0
 30 67  1  0
 31 68  1  0
 31 69  1  0
 36 70  1  0
 36 71  1  0
 37 72  1  0
 37 73  1  0
M  CHG  1  25   1
M  END
>  <UniqueID>  (44) 
43

>  <SMILES>  (44) 
COc1ccccc1N1CCN(c2ccc3c(c2)C(=O)N(CCC[NH+]2CCN(C)CC2)C(=O)C3=O)CC1

>  <Energy>  (44) 
98.32817941124922

>  <Genealogy>  (44) 
COc1ccccc1N1CCN(c2ccc3c(c2)C(=O)N(CCC[NH+]2CCN(C)CC2)C(=O)C3=O)CC1 (protonated)
COc1ccccc1N1CCN(c2ccc3c(c2)C(=O)N(CCC[NH+]2CCN(C)CC2)C(=O)C3=O)CC1 (3D coordinates assigned)
COc1ccccc1N1CCN(c2ccc3c(c2)C(=O)N(CCC[NH+]2CCN(C)CC2)C(=O)C3=O)CC1 (nonaromatic ring conformer: 98.32817941124922 kcal/mol)

>  <smiles>  (44) 
COc1ccccc1N1CCN(c2ccc3c(c2)C(=O)N(CCCN2CCN(C)CC2)C(=O)C3=O)CC1

>  <score_type>  (44) 
oracle

>  <origin>  (44) 
adg

>  <m_score__min__energy>  (44) 
-7.7800000000000002

>  <m_primary>  (44) 
energy

$$$$
44:0
     RDKit          3D

 35 37  0  0  0  0  0  0  0  0999 V2000
   56.1000   29.8870   43.2730 C   0  0  0  0  0  0  0  0  0  0  0  0
   56.1800   30.6220   44.4890 O   0  0  0  0  0  0  0  0  0  0  0  0
   57.3790   30.9600   45.1390 C   0  0  0  0  0  0  0  0  0  0  0  0
   57.8440   32.2830   45.2060 C   0  0  0  0  0  0  0  0  0  0  0  0
   59.0370   32.5880   45.8770 C   0  0  0  0  0  0  0  0  0  0  0  0
   59.5430   33.8900   45.8160 C   0  0  0  0  0  0  0  0  0  0  0  0
   60.7680   34.1950   46.3930 C   0  0  0  0  0  0  0  0  0  0  0  0
   61.4670   33.2370   47.1360 C   0  0  0  0  0  0  0  0  0  0  0  0
   62.6570   33.5790   47.7100 N   0  0  0  0  0  0  0  0  0  0  0  0
   63.3450   32.7160   48.5050 C   0  0  0  0  0  0  0  0  0  0  0  0
   64.6350   33.1440   49.1400 C   0  0  0  0  0  0  0  0  0  0  0  0
   62.7810   31.4830   48.8330 C   0  0  0  0  0  0  0  0  0  0  0  0
   61.5600   31.0960   48.2770 C   0  0  0  0  0  0  0  0  0  0  0  0
   60.7950   29.7080   49.0550 Cl  0  0  0  0  0  0  0  0  0  0  0  0
   60.9210   31.9340   47.3180 C   0  0  0  0  0  0  0  0  0  0  0  0
   59.7540   31.5750   46.5680 C   0  0  0  0  0  0  0  0  0  0  0  0
   59.3280   30.2400   46.3920 C   0  0  0  0  0  0  0  0  0  0  0  0
   58.1360   29.9340   45.7110 C   0  0  0  0  0  0  0  0  0  0  0  0
   57.6760   28.6140   45.5700 O   0  0  0  0  0  0  0  0  0  0  0  0
   58.3020   27.6170   44.7690 C   0  0  0  0  0  0  0  0  0  0  0  0
   55.9835   28.8167   43.4985 H   0  0  0  0  0  0  0  0  0  0  0  0
   55.2345   30.2353   42.6903 H   0  0  0  0  0  0  0  0  0  0  0  0
   57.0202   30.0409   42.6903 H   0  0  0  0  0  0  0  0  0  0  0  0
   57.2670   33.0881   44.7276 H   0  0  0  0  0  0  0  0  0  0  0  0
   58.9669   34.6772   45.3077 H   0  0  0  0  0  0  0  0  0  0  0  0
   61.1941   35.2010   46.2648 H   0  0  0  0  0  0  0  0  0  0  0  0
   63.0530   34.5320   47.5440 H   0  0  0  0  0  0  0  0  0  0  0  0
   64.5336   33.1104   50.2348 H   0  0  0  0  0  0  0  0  0  0  0  0
   65.4415   32.4653   48.8254 H   0  0  0  0  0  0  0  0  0  0  0  0
   64.8758   34.1702   48.8254 H   0  0  0  0  0  0  0  0  0  0  0  0
   63.3007   30.8123   49.5331 H   0  0  0  0  0  0  0  0  0  0  0  0
   59.9419   29.4217   46.7964 H   0  0  0  0  0  0  0  0  0  0  0  0
   58.7734   26.8662   45.4202 H   0  0  0  0  0  0  0  0  0  0  0  0
   57.5474   27.1297   44.1340 H   0  0  0  0  0  0  0  0  0  0  0  0
   59.0687   28.0849   44.1340 H   0  0  0  0  0  0  0  0  0  0  0  0
  1  2  1  0
  2  3  1  0
  3  4  2  0
  4  5  1  0
  5  6  2  0
  6  7  1  0
  7  8  2  0
  8  9  1  0
  9 10  2  0
 10 11  1  0
 10 12  1  0
 12 13  2  0
 13 14  1  0
 13 15  1  0
 15 16  2  0
 16 17  1  0
 17 18  2  0
 18 19  1  0
 19 20  1  0
 18  3  1  0
 16  5  1  0
 15  8  1  0
  1 21  1  0
  1 22  1  0
  1 23  1  0
  4 24  1  0
  6 25  1  0
  7 26  1  0
  9 27  1  0
 11 28  1  0
 11 29  1  0
 11 30  1  0
 12 31  1  0
 17 32  1  0
 20 33  1  0
 20 34  1  0
 20 35  1  0
M  CHG  1   9   1
M  END
>  <UniqueID>  (45) 
44

>  <SMILES>  (45) 
COc1cc2ccc3[nH+]c(C)cc(Cl)c3c2cc1OC

>  <Energy>  (45) 
57.282162949686196

>  <Genealogy>  (45) 
COc1cc2ccc3[nH+]c(C)cc(Cl)c3c2cc1OC (protonated)
COc1cc2ccc3[nH+]c(C)cc(Cl)c3c2cc1OC (3D coordinates assigned)
COc1cc2ccc3[nH+]c(C)cc(Cl)c3c2cc1OC (optimized conformer: 57.282162949686196 kcal/mol)

>  <smiles>  (45) 
COc1cc2ccc3nc(C)cc(Cl)c3c2cc1OC

>  <score_type>  (45) 
oracle

>  <origin>  (45) 
adg

>  <m_score__min__energy>  (45) 
-5.3600000000000003

>  <m_primary>  (45) 
energy

$$$$
45:0
     RDKit          3D

 57 61  0  0  0  0  0  0  0  0999 V2000
   55.9700   29.7340   43.0240 C   0  0  0  0  0  0  0  0  0  0  0  0
   57.1240   29.5880   43.9710 C   0  0  0  0  0  0  0  0  0  0  0  0
   57.7820   28.3560   44.1000 C   0  0  0  0  0  0  0  0  0  0  0  0
   58.8320   28.2110   45.0110 C   0  0  0  0  0  0  0  0  0  0  0  0
   59.2240   29.2900   45.8060 C   0  0  0  0  0  0  0  0  0  0  0  0
   58.5640   30.5230   45.6990 C   0  0  0  0  0  0  0  0  0  0  0  0
   58.9610   31.6300   46.5230 N   0  0  0  0  0  0  0  0  0  0  0  0
   59.1340   32.9220   46.1490 C   0  0  0  0  0  0  0  0  0  0  0  0
   58.9900   33.4750   44.8720 C   0  0  0  0  0  0  0  0  0  0  0  0
   59.2420   34.8490   44.7140 C   0  0  0  0  0  0  0  0  0  0  0  0
   59.6400   35.6390   45.8140 C   0  0  0  0  0  0  0  0  0  0  0  0
   59.7940   35.0640   47.0880 C   0  0  0  0  0  0  0  0  0  0  0  0
   59.5380   33.6990   47.2200 C   0  0  0  0  0  0  0  0  0  0  0  0
   59.6150   32.8480   48.3050 C   0  0  0  0  0  0  0  0  0  0  0  0
   59.9480   33.0300   49.6400 C   0  0  0  0  0  0  0  0  0  0  0  0
   60.2880   34.1730   50.0550 O   0  0  0  0  0  0  0  0  0  0  0  0
   59.8990   31.9440   50.4890 N   0  0  0  0  0  0  0  0  0  0  0  0
   60.2800   32.1310   51.9050 C   0  0  0  0  0  0  0  0  0  0  0  0
   61.7330   32.6100   52.0100 C   0  0  0  0  0  0  0  0  0  0  0  0
   62.6860   31.6510   51.2920 C   0  0  0  0  0  0  0  0  0  0  0  0
   62.9180   32.1020   49.8750 C   0  0  0  0  0  0  0  0  0  0  0  0
   63.3500   33.4120   49.6090 C   0  0  0  0  0  0  0  0  0  0  0  0
   63.5330   33.8390   48.2890 C   0  0  0  0  0  0  0  0  0  0  0  0
   63.2770   32.9650   47.2290 C   0  0  0  0  0  0  0  0  0  0  0  0
   62.8350   31.6640   47.4850 C   0  0  0  0  0  0  0  0  0  0  0  0
   62.6510   31.2330   48.8030 C   0  0  0  0  0  0  0  0  0  0  0  0
   59.5430   30.6930   49.9950 C   0  0  0  0  0  0  0  0  0  0  0  0
   59.4730   29.4780   50.8890 C   0  0  0  0  0  0  0  0  0  0  0  0
   59.2070   30.5400   48.6740 N   0  0  0  0  0  0  0  0  0  0  0  0
   59.2620   31.6110   47.8460 C   0  0  0  0  0  0  0  0  0  0  0  0
   57.5090   30.6650   44.7850 C   0  0  0  0  0  0  0  0  0  0  0  0
   55.0383   29.8519   43.5968 H   0  0  0  0  0  0  0  0  0  0  0  0
   56.1254   30.6196   42.3904 H   0  0  0  0  0  0  0  0  0  0  0  0
   55.9000   28.8376   42.3904 H   0  0  0  0  0  0  0  0  0  0  0  0
   57.4706   27.5010   43.4820 H   0  0  0  0  0  0  0  0  0  0  0  0
   59.3505   27.2452   45.1019 H   0  0  0  0  0  0  0  0  0  0  0  0
   60.0535   29.1726   46.5188 H   0  0  0  0  0  0  0  0  0  0  0  0
   58.6884   32.8528   44.0165 H   0  0  0  0  0  0  0  0  0  0  0  0
   59.1279   35.3131   43.7233 H   0  0  0  0  0  0  0  0  0  0  0  0
   59.8312   36.7131   45.6735 H   0  0  0  0  0  0  0  0  0  0  0  0
   60.1058   35.6701   47.9514 H   0  0  0  0  0  0  0  0  0  0  0  0
   59.6175   32.8806   52.3624 H   0  0  0  0  0  0  0  0  0  0  0  0
   60.1830   31.1693   52.4301 H   0  0  0  0  0  0  0  0  0  0  0  0
   61.8159   33.6071   51.5529 H   0  0  0  0  0  0  0  0  0  0  0  0
   62.0116   32.6461   53.0735 H   0  0  0  0  0  0  0  0  0  0  0  0
   63.6471   31.6278   51.8266 H   0  0  0  0  0  0  0  0  0  0  0  0
   62.2364   30.6472   51.2770 H   0  0  0  0  0  0  0  0  0  0  0  0
   63.5451   34.1044   50.4411 H   0  0  0  0  0  0  0  0  0  0  0  0
   63.8786   34.8633   48.0856 H   0  0  0  0  0  0  0  0  0  0  0  0
   63.4235   33.3014   46.1920 H   0  0  0  0  0  0  0  0  0  0  0  0
   62.6316   30.9783   46.6492 H   0  0  0  0  0  0  0  0  0  0  0  0
   62.2962   30.2108   49.0011 H   0  0  0  0  0  0  0  0  0  0  0  0
   59.4913   29.7959   51.9419 H   0  0  0  0  0  0  0  0  0  0  0  0
   58.5417   28.9282   50.6882 H   0  0  0  0  0  0  0  0  0  0  0  0
   60.3350   28.8248   50.6882 H   0  0  0  0  0  0  0  0  0  0  0  0
   58.9040   29.6100   48.3060 H   0  0  0  0  0  0  0  0  0  0  0  0
   56.9802   31.6263   44.7057 H   0  0  0  0  0  0  0  0  0  0  0  0
  1  2  1  0
  2  3  2  0
  3  4  1  0
  4  5  2  0
  5  6  1  0
  6  7  1  0
  7  8  1  0
  8  9  2  0
  9 10  1  0
 10 11  2  0
 11 12  1  0
 12 13  2  0
 13 14  1  0
 14 15  1  0
 15 16  2  0
 15 17  1  0
 17 18  1  0
 18 19  1  0
 19 20  1  0
 20 21  1  0
 21 22  2  0
 22 23  1  0
 23 24  2  0
 24 25  1  0
 25 26  2  0
 17 27  1  0
 27 28  1  0
 27 29  2  0
 29 30  1  0
  6 31  2  0
 31  2  1  0
 30  7  1  0
 13  8  1  0
 30 14  2  0
 26 21  1  0
  1 32  1  0
  1 33  1  0
  1 34  1  0
  3 35  1  0
  4 36  1  0
  5 37  1  0
  9 38  1  0
 10 39  1  0
 11 40  1  0
 12 41  1  0
 18 42  1  0
 18 43  1  0
 19 44  1  0
 19 45  1  0
 20 46  1  0
 20 47  1  0
 22 48  1  0
 23 49  1  0
 24 50  1  0
 25 51  1  0
 26 52  1  0
 28 53  1  0
 28 54  1  0
 28 55  1  0
 29 56  1  0
 31 57  1  0
M  CHG  1  29   1
M  END
>  <UniqueID>  (46) 
45

>  <SMILES>  (46) 
Cc1cccc(-n2c3ccccc3c3c(=O)n(CCCc4ccccc4)c(C)[nH+]c32)c1

>  <Energy>  (46) 
111.59025140220442

>  <Genealogy>  (46) 
Cc1cccc(-n2c3ccccc3c3c(=O)n(CCCc4ccccc4)c(C)[nH+]c32)c1 (protonated)
Cc1cccc(-n2c3ccccc3c3c(=O)n(CCCc4ccccc4)c(C)[nH+]c32)c1 (3D coordinates assigned)
Cc1cccc(-n2c3ccccc3c3c(=O)n(CCCc4ccccc4)c(C)[nH+]c32)c1 (optimized conformer: 111.59025140220442 kcal/mol)

>  <smiles>  (46) 
Cc1cccc(-n2c3ccccc3c3c(=O)n(CCCc4ccccc4)c(C)nc32)c1

>  <score_type>  (46) 
oracle

>  <origin>  (46) 
adg

>  <m_score__min__energy>  (46) 
-8.6300000000000008

>  <m_primary>  (46) 
energy

$$$$
46:0
     RDKit          3D

 64 69  0  0  0  0  0  0  0  0999 V2000
   56.4820   30.0800   43.3700 C   0  0  0  0  0  0  0  0  0  0  0  0
   56.3350   30.8930   44.5310 O   0  0  0  0  0  0  0  0  0  0  0  0
   57.3930   31.5560   45.1730 C   0  0  0  0  0  0  0  0  0  0  0  0
   57.4650   32.9580   45.2610 C   0  0  0  0  0  0  0  0  0  0  0  0
   58.5410   33.5710   45.9120 C   0  0  0  0  0  0  0  0  0  0  0  0
   59.5590   32.7950   46.4950 C   0  0  0  0  0  0  0  0  0  0  0  0
   60.6750   33.4250   47.1570 N   0  0  0  0  0  0  0  0  0  0  0  0
   60.4340   34.3040   48.3150 C   0  0  0  0  0  0  0  0  0  0  0  0
   61.7330   34.5870   49.0810 C   0  0  0  0  0  0  0  0  0  0  0  0
   62.5200   33.3490   49.1950 N   0  0  0  0  0  0  0  0  0  0  0  0
   62.7620   32.7610   50.4910 C   0  0  0  0  0  0  0  0  0  0  0  0
   61.9500   32.9730   51.4320 O   0  0  0  0  0  0  0  0  0  0  0  0
   63.9230   31.8790   50.7360 C   0  0  0  0  0  0  0  0  0  0  0  0
   65.2260   32.3700   50.5520 C   0  0  0  0  0  0  0  0  0  0  0  0
   66.3360   31.5600   50.8030 C   0  0  0  0  0  0  0  0  0  0  0  0
   66.1600   30.2390   51.2340 C   0  0  0  0  0  0  0  0  0  0  0  0
   67.2720   29.4250   51.5340 C   0  0  0  0  0  0  0  0  0  0  0  0
   67.0120   28.1270   51.9590 C   0  0  0  0  0  0  0  0  0  0  0  0
   67.8200   27.1070   52.4180 C   0  0  0  0  0  0  0  0  0  0  0  0
   69.3010   27.1550   52.6090 C   0  0  0  0  0  0  0  0  0  0  0  0
   67.0360   26.0730   52.8080 N   0  0  0  0  0  0  0  0  0  0  0  0
   65.7670   26.4010   52.5780 N   0  0  0  0  0  0  0  0  0  0  0  0
   64.6600   25.5320   52.8620 C   0  0  0  0  0  0  0  0  0  0  0  0
   64.5590   24.9170   54.1200 C   0  0  0  0  0  0  0  0  0  0  0  0
   63.4970   24.0500   54.3980 C   0  0  0  0  0  0  0  0  0  0  0  0
   62.5370   23.7810   53.4180 C   0  0  0  0  0  0  0  0  0  0  0  0
   62.6410   24.3730   52.1560 C   0  0  0  0  0  0  0  0  0  0  0  0
   63.7040   25.2400   51.8750 C   0  0  0  0  0  0  0  0  0  0  0  0
   65.7390   27.6510   52.0700 C   0  0  0  0  0  0  0  0  0  0  0  0
   64.6500   28.4270   51.8200 N   0  0  0  0  0  0  0  0  0  0  0  0
   64.8390   29.7180   51.3940 C   0  0  0  0  0  0  0  0  0  0  0  0
   63.7360   30.5440   51.1320 C   0  0  0  0  0  0  0  0  0  0  0  0
   62.8300   32.5830   47.9720 C   0  0  0  0  0  0  0  0  0  0  0  0
   62.0580   33.1250   46.7630 C   0  0  0  0  0  0  0  0  0  0  0  0
   59.4860   31.3940   46.3950 C   0  0  0  0  0  0  0  0  0  0  0  0
   58.4130   30.7840   45.7410 C   0  0  0  0  0  0  0  0  0  0  0  0
   56.6702   29.0393   43.6726 H   0  0  0  0  0  0  0  0  0  0  0  0
   55.5608   30.1267   42.7706 H   0  0  0  0  0  0  0  0  0  0  0  0
   57.3285   30.4464   42.7706 H   0  0  0  0  0  0  0  0  0  0  0  0
   56.6712   33.5757   44.8157 H   0  0  0  0  0  0  0  0  0  0  0  0
   58.5913   34.6684   45.9683 H   0  0  0  0  0  0  0  0  0  0  0  0
   60.0126   35.2562   47.9603 H   0  0  0  0  0  0  0  0  0  0  0  0
   59.7336   33.7973   48.9952 H   0  0  0  0  0  0  0  0  0  0  0  0
   62.3191   35.3446   48.5401 H   0  0  0  0  0  0  0  0  0  0  0  0
   61.4895   34.9584   50.0874 H   0  0  0  0  0  0  0  0  0  0  0  0
   65.3740   33.4038   50.2064 H   0  0  0  0  0  0  0  0  0  0  0  0
   67.3507   31.9605   50.6618 H   0  0  0  0  0  0  0  0  0  0  0  0
   68.3011   29.8010   51.4359 H   0  0  0  0  0  0  0  0  0  0  0  0
   69.5320   27.1625   53.6845 H   0  0  0  0  0  0  0  0  0  0  0  0
   69.7598   26.2713   52.1416 H   0  0  0  0  0  0  0  0  0  0  0  0
   69.7016   28.0666   52.1416 H   0  0  0  0  0  0  0  0  0  0  0  0
   65.3182   25.1177   54.8903 H   0  0  0  0  0  0  0  0  0  0  0  0
   63.4172   23.5793   55.3890 H   0  0  0  0  0  0  0  0  0  0  0  0
   61.6995   23.1033   53.6401 H   0  0  0  0  0  0  0  0  0  0  0  0
   61.8878   24.1578   51.3837 H   0  0  0  0  0  0  0  0  0  0  0  0
   63.7909   25.6944   50.8770 H   0  0  0  0  0  0  0  0  0  0  0  0
   63.6860   28.0620   51.9840 H   0  0  0  0  0  0  0  0  0  0  0  0
   62.7169   30.1435   51.2374 H   0  0  0  0  0  0  0  0  0  0  0  0
   63.9088   32.6537   47.7690 H   0  0  0  0  0  0  0  0  0  0  0  0
   62.5314   31.5366   48.1333 H   0  0  0  0  0  0  0  0  0  0  0  0
   62.5430   34.0433   46.4004 H   0  0  0  0  0  0  0  0  0  0  0  0
   62.0548   32.3703   45.9627 H   0  0  0  0  0  0  0  0  0  0  0  0
   60.2804   30.7736   46.8354 H   0  0  0  0  0  0  0  0  0  0  0  0
   58.3693   29.6871   45.6718 H   0  0  0  0  0  0  0  0  0  0  0  0
  1  2  1  0
  2  3  1  0
  3  4  2  0
  4  5  1  0
  5  6  2  0
  6  7  1  0
  7  8  1  0
  8  9  1  0
  9 10  1  0
 10 11  1  0
 11 12  2  0
 11 13  1  0
 13 14  2  0
 14 15  1  0
 15 16  2  0
 16 17  1  0
 17 18  2  0
 18 19  1  0
 19 20  1  0
 19 21  2  0
 21 22  1  0
 22 23  1  0
 23 24  2  0
 24 25  1  0
 25 26  2  0
 26 27  1  0
 27 28  2  0
 22 29  1  0
 29 30  2  0
 30 31  1  0
 31 32  2  0
 10 33  1  0
 33 34  1  0
  6 35  1  0
 35 36  2  0
 36  3  1  0
 34  7  1  0
 32 13  1  0
 31 16  1  0
 29 18  1  0
 28 23  1  0
  1 37  1  0
  1 38  1  0
  1 39  1  0
  4 40  1  0
  5 41  1  0
  8 42  1  0
  8 43  1  0
  9 44  1  0
  9 45  1  0
 14 46  1  0
 15 47  1  0
 17 48  1  0
 20 49  1  0
 20 50  1  0
 20 51  1  0
 24 52  1  0
 25 53  1  0
 26 54  1  0
 27 55  1  0
 28 56  1  0
 30 57  1  0
 32 58  1  0
 33 59  1  0
 33 60  1  0
 34 61  1  0
 34 62  1  0
 35 63  1  0
 36 64  1  0
M  CHG  1  30   1
M  END
>  <UniqueID>  (47) 
46

>  <SMILES>  (47) 
COc1ccc(N2CCN(C(=O)c3ccc4cc5c(C)nn(-c6ccccc6)c5[nH+]c4c3)CC2)cc1

>  <Energy>  (47) 
128.58851596517854

>  <Genealogy>  (47) 
COc1ccc(N2CCN(C(=O)c3ccc4cc5c(C)nn(-c6ccccc6)c5[nH+]c4c3)CC2)cc1 (protonated)
COc1ccc(N2CCN(C(=O)c3ccc4cc5c(C)nn(-c6ccccc6)c5[nH+]c4c3)CC2)cc1 (3D coordinates assigned)
COc1ccc(N2CCN(C(=O)c3ccc4cc5c(C)nn(-c6ccccc6)c5[nH+]c4c3)CC2)cc1 (nonaromatic ring conformer: 128.58851596517854 kcal/mol)

>  <smiles>  (47) 
COc1ccc(N2CCN(C(=O)c3ccc4cc5c(C)nn(-c6ccccc6)c5nc4c3)CC2)cc1

>  <score_type>  (47) 
oracle

>  <origin>  (47) 
adg

>  <m_score__min__energy>  (47) 
-8.0999999999999996

>  <m_primary>  (47) 
energy

$$$$
