0:0
     RDKit          3D

 42 44  0  0  0  0  0  0  0  0999 V2000
   60.4312   35.5274   46.3759 H   0  0  0  0  0  0  0  0  0  0  0  0
   59.6730   34.7320   46.3250 C   0  0  0  0  0  0  0  0  0  0  0  0
   59.2180   34.2870   45.0810 C   0  0  0  0  0  0  0  0  0  0  0  0
   59.6241   34.7293   44.1593 H   0  0  0  0  0  0  0  0  0  0  0  0
   58.2450   33.2780   45.0020 C   0  0  0  0  0  0  0  0  0  0  0  0
   57.7580   32.7870   43.6630 C   0  0  0  0  0  0  0  0  0  0  0  0
   58.2338   33.3791   42.8674 H   0  0  0  0  0  0  0  0  0  0  0  0
   56.6645   32.8995   43.6237 H   0  0  0  0  0  0  0  0  0  0  0  0
   58.0900   31.3750   43.4730 N   0  0  0  0  0  0  0  0  0  0  0  0
   57.5200   30.3430   44.0410 C   0  0  0  0  0  0  0  0  0  0  0  0
   58.3150   29.3880   44.7100 C   0  0  0  0  0  0  0  0  0  0  0  0
   59.7190   29.5070   44.7860 C   0  0  0  0  0  0  0  0  0  0  0  0
   60.2218   30.3623   44.3109 H   0  0  0  0  0  0  0  0  0  0  0  0
   60.4740   28.5450   45.4610 C   0  0  0  0  0  0  0  0  0  0  0  0
   61.5680   28.6461   45.5155 H   0  0  0  0  0  0  0  0  0  0  0  0
   59.8460   27.4570   46.0660 C   0  0  0  0  0  0  0  0  0  0  0  0
   60.4460   26.7021   46.5952 H   0  0  0  0  0  0  0  0  0  0  0  0
   58.4570   27.3230   46.0020 C   0  0  0  0  0  0  0  0  0  0  0  0
   57.9671   26.4626   46.4813 H   0  0  0  0  0  0  0  0  0  0  0  0
   57.6820   28.2840   45.3270 C   0  0  0  0  0  0  0  0  0  0  0  0
   56.2880   28.1710   45.2520 C   0  0  0  0  0  0  0  0  0  0  0  0
   55.6320   27.0870   45.8530 O   0  0  0  0  0  0  0  0  0  0  0  0
   55.9870   25.7240   45.6290 C   0  0  0  0  0  0  0  0  0  0  0  0
   56.6393   25.3819   46.4459 H   0  0  0  0  0  0  0  0  0  0  0  0
   56.5113   25.6490   44.6649 H   0  0  0  0  0  0  0  0  0  0  0  0
   54.7430   24.8440   45.5800 C   0  0  0  0  0  0  0  0  0  0  0  0
   54.4166   24.6131   46.6048 H   0  0  0  0  0  0  0  0  0  0  0  0
   53.9387   25.3752   45.0499 H   0  0  0  0  0  0  0  0  0  0  0  0
   54.9761   23.9087   45.0499 H   0  0  0  0  0  0  0  0  0  0  0  0
   55.5810   29.1210   44.5860 N   0  0  0  0  0  0  0  0  0  0  0  0
   56.1650   30.1660   44.0020 N   0  0  0  0  0  0  0  0  0  0  0  0
   55.5440   30.8420   43.5090 H   0  0  0  0  0  0  0  0  0  0  0  0
   57.7500   32.7070   46.1850 C   0  0  0  0  0  0  0  0  0  0  0  0
   56.9995   31.9045   46.1327 H   0  0  0  0  0  0  0  0  0  0  0  0
   58.2060   33.1530   47.4300 C   0  0  0  0  0  0  0  0  0  0  0  0
   57.8083   32.7042   48.3522 H   0  0  0  0  0  0  0  0  0  0  0  0
   59.1720   34.1740   47.5070 C   0  0  0  0  0  0  0  0  0  0  0  0
   59.6590   34.6570   48.7310 O   0  0  0  0  0  0  0  0  0  0  0  0
   60.8190   34.1590   49.3890 C   0  0  0  0  0  0  0  0  0  0  0  0
   60.6773   34.2198   50.4781 H   0  0  0  0  0  0  0  0  0  0  0  0
   60.9837   33.1109   49.0987 H   0  0  0  0  0  0  0  0  0  0  0  0
   61.6923   34.7615   49.0987 H   0  0  0  0  0  0  0  0  0  0  0  0
  1  2  1  0
  2  3  2  0
  3  4  1  0
  3  5  1  0
  5  6  1  0
  6  7  1  0
  6  8  1  0
  6  9  1  0
  9 10  2  0
 10 11  1  0
 11 12  2  0
 12 13  1  0
 12 14  1  0
 14 15  1  0
 14 16  2  0
 16 17  1  0
 16 18  1  0
 18 19  1  0
 18 20  2  0
 20 21  1  0
 21 22  1  0
 22 23  1  0
 23 24  1  0
 23 25  1  0
 23 26  1  0
 26 27  1  0
 26 28  1  0
 26 29  1  0
 21 30  2  0
 30 31  1  0
 31 32  1  0
  5 33  2  0
 33 34  1  0
 33 35  1  0
 35 36  1  0
 35 37  2  0
 37 38  1  0
 38 39  1  0
 39 40  1  0
 39 41  1  0
 39 42  1  0
 37  2  1  0
 31 10  1  0
 20 11  1  0
M  END
>  <UniqueID>  (1) 
1

>  <SMILES>  (1) 
CCOc1n[nH]/c(=N\Cc2ccc(OC)cc2)c2ccccc12

>  <Energy>  (1) 
46.70515649711704

>  <Genealogy>  (1) 
CCOc1n[nH]/c(=N\Cc2ccc(OC)cc2)c2ccccc12 (cis-trans isomerization)
CCOc1n[nH]/c(=N\Cc2ccc(OC)cc2)c2ccccc12 (3D coordinates assigned)
CCOc1n[nH]/c(=N\Cc2ccc(OC)cc2)c2ccccc12 (optimized conformer: 46.70515649711704 kcal/mol)

>  <smiles>  (1) 
CCOc1n[nH]c(=NCc2ccc(OC)cc2)c2ccccc12

>  <score_type>  (1) 
oracle

>  <origin>  (1) 
adg

>  <m_score__min__energy>  (1) 
-7.1500000000000004

>  <m_primary>  (1) 
energy

$$$$
1:0
     RDKit          3D

 60 63  0  0  0  0  0  0  0  0999 V2000
   64.9440   32.6020   49.7200 C   0  0  0  0  0  0  0  0  0  0  0  0
   63.9030   32.0010   48.7600 C   0  0  0  0  0  0  0  0  0  0  0  0
   62.9450   32.9900   48.2080 N   0  0  0  0  0  0  0  0  0  0  0  0
   63.1880   33.2670   46.7780 C   0  0  0  0  0  0  0  0  0  0  0  0
   62.8860   34.2260   49.0170 C   0  0  0  0  0  0  0  0  0  0  0  0
   61.6800   34.2010   49.9610 C   0  0  0  0  0  0  0  0  0  0  0  0
   61.5350   32.8840   50.6010 N   0  0  0  0  0  0  0  0  0  0  0  0
   60.1220   32.5530   50.8540 C   0  0  0  0  0  0  0  0  0  0  0  0
   59.5570   31.7120   49.6980 C   0  0  0  0  0  0  0  0  0  0  0  0
   60.4870   31.5970   48.5490 N   0  0  0  0  0  0  0  0  0  0  0  0
   59.7660   31.5450   47.2890 C   0  0  0  0  0  0  0  0  0  0  0  0
   59.3560   30.3030   46.7800 C   0  0  0  0  0  0  0  0  0  0  0  0
   58.6700   30.2160   45.5800 C   0  0  0  0  0  0  0  0  0  0  0  0
   58.2420   31.3300   44.9030 N   0  0  0  0  0  0  0  0  0  0  0  0
   57.2240   31.2040   43.8450 C   0  0  0  0  0  0  0  0  0  0  0  0
   58.7280   32.5660   45.2910 C   0  0  0  0  0  0  0  0  0  0  0  0
   58.5070   33.7190   44.4940 C   0  0  0  0  0  0  0  0  0  0  0  0
   58.9550   34.9730   44.9010 C   0  0  0  0  0  0  0  0  0  0  0  0
   59.6630   35.1090   46.0850 C   0  0  0  0  0  0  0  0  0  0  0  0
   59.9460   33.9900   46.8710 C   0  0  0  0  0  0  0  0  0  0  0  0
   59.4910   32.7010   46.5020 C   0  0  0  0  0  0  0  0  0  0  0  0
   58.4750   28.7960   45.2680 C   0  0  0  0  0  0  0  0  0  0  0  0
   58.0620   28.1500   44.0910 C   0  0  0  0  0  0  0  0  0  0  0  0
   58.0650   26.7450   44.0590 C   0  0  0  0  0  0  0  0  0  0  0  0
   58.5200   26.0060   45.1650 C   0  0  0  0  0  0  0  0  0  0  0  0
   59.0010   26.6640   46.3070 C   0  0  0  0  0  0  0  0  0  0  0  0
   58.9780   28.0620   46.3320 C   0  0  0  0  0  0  0  0  0  0  0  0
   59.5750   28.9400   47.3850 C   0  0  0  0  0  0  0  0  0  0  0  0
   64.6316   32.4217   50.7592 H   0  0  0  0  0  0  0  0  0  0  0  0
   65.9214   32.1292   49.5436 H   0  0  0  0  0  0  0  0  0  0  0  0
   65.0233   33.6849   49.5436 H   0  0  0  0  0  0  0  0  0  0  0  0
   64.4375   31.5323   47.9206 H   0  0  0  0  0  0  0  0  0  0  0  0
   63.3125   31.2797   49.3441 H   0  0  0  0  0  0  0  0  0  0  0  0
   63.9106   34.0907   46.6817 H   0  0  0  0  0  0  0  0  0  0  0  0
   63.5924   32.3660   46.2935 H   0  0  0  0  0  0  0  0  0  0  0  0
   62.2420   33.5506   46.2935 H   0  0  0  0  0  0  0  0  0  0  0  0
   63.8075   34.3123   49.6114 H   0  0  0  0  0  0  0  0  0  0  0  0
   62.7856   35.0866   48.3393 H   0  0  0  0  0  0  0  0  0  0  0  0
   61.8175   34.9656   50.7398 H   0  0  0  0  0  0  0  0  0  0  0  0
   60.7726   34.4057   49.3738 H   0  0  0  0  0  0  0  0  0  0  0  0
   61.9100   32.1720   49.9280 H   0  0  0  0  0  0  0  0  0  0  0  0
   60.0451   31.9810   51.7905 H   0  0  0  0  0  0  0  0  0  0  0  0
   59.5444   33.4857   50.9342 H   0  0  0  0  0  0  0  0  0  0  0  0
   59.3402   30.7014   50.0745 H   0  0  0  0  0  0  0  0  0  0  0  0
   58.6520   32.2215   49.3356 H   0  0  0  0  0  0  0  0  0  0  0  0
   61.1100   32.4380   48.5380 H   0  0  0  0  0  0  0  0  0  0  0  0
   61.1520   30.8020   48.6490 H   0  0  0  0  0  0  0  0  0  0  0  0
   56.2318   31.0812   44.3037 H   0  0  0  0  0  0  0  0  0  0  0  0
   57.2299   32.1097   43.2208 H   0  0  0  0  0  0  0  0  0  0  0  0
   57.4505   30.3270   43.2208 H   0  0  0  0  0  0  0  0  0  0  0  0
   57.9723   33.6204   43.5378 H   0  0  0  0  0  0  0  0  0  0  0  0
   58.7466   35.8578   44.2815 H   0  0  0  0  0  0  0  0  0  0  0  0
   60.0038   36.1040   46.4072 H   0  0  0  0  0  0  0  0  0  0  0  0
   60.5329   34.1122   47.7933 H   0  0  0  0  0  0  0  0  0  0  0  0
   57.7431   28.7313   43.2133 H   0  0  0  0  0  0  0  0  0  0  0  0
   57.7084   26.2191   43.1611 H   0  0  0  0  0  0  0  0  0  0  0  0
   58.4988   24.9066   45.1349 H   0  0  0  0  0  0  0  0  0  0  0  0
   59.3877   26.0928   47.1638 H   0  0  0  0  0  0  0  0  0  0  0  0
   59.0486   28.8347   48.3451 H   0  0  0  0  0  0  0  0  0  0  0  0
   60.6245   28.7128   47.6238 H   0  0  0  0  0  0  0  0  0  0  0  0
  1  2  1  0
  2  3  1  0
  3  4  1  0
  3  5  1  0
  5  6  1  0
  6  7  1  0
  7  8  1  0
  8  9  1  0
  9 10  1  0
 10 11  1  0
 11 12  2  0
 12 13  1  0
 13 14  2  0
 14 15  1  0
 14 16  1  0
 16 17  2  0
 17 18  1  0
 18 19  2  0
 19 20  1  0
 20 21  2  0
 13 22  1  0
 22 23  2  0
 23 24  1  0
 24 25  2  0
 25 26  1  0
 26 27  2  0
 27 28  1  0
 21 11  1  0
 27 22  1  0
 28 12  1  0
 21 16  1  0
  1 29  1  0
  1 30  1  0
  1 31  1  0
  2 32  1  0
  2 33  1  0
  4 34  1  0
  4 35  1  0
  4 36  1  0
  5 37  1  0
  5 38  1  0
  6 39  1  0
  6 40  1  0
  7 41  1  0
  8 42  1  0
  8 43  1  0
  9 44  1  0
  9 45  1  0
 10 46  1  0
 10 47  1  0
 15 48  1  0
 15 49  1  0
 15 50  1  0
 17 51  1  0
 18 52  1  0
 19 53  1  0
 20 54  1  0
 23 55  1  0
 24 56  1  0
 25 57  1  0
 26 58  1  0
 28 59  1  0
 28 60  1  0
M  CHG  2  10   1  14   1
M  END
>  <UniqueID>  (2) 
2

>  <SMILES>  (2) 
CCN(C)CCNCC[NH2+]c1c2c([n+](C)c3ccccc13)-c1ccccc1C2

>  <Energy>  (2) 
109.15557946274727

>  <Genealogy>  (2) 
CCN(C)CCNCC[NH2+]c1c2c([n+](C)c3ccccc13)-c1ccccc1C2 (protonated)
CCN(C)CCNCC[NH2+]c1c2c([n+](C)c3ccccc13)-c1ccccc1C2 (3D coordinates assigned)
CCN(C)CCNCC[NH2+]c1c2c([n+](C)c3ccccc13)-c1ccccc1C2 (nonaromatic ring conformer: 109.15557946274727 kcal/mol)

>  <smiles>  (2) 
CCN(C)CCNCCNc1c2c([n+](C)c3ccccc13)-c1ccccc1C2

>  <score_type>  (2) 
oracle

>  <origin>  (2) 
adg

>  <m_score__min__energy>  (2) 
-4.3799999999999999

>  <m_primary>  (2) 
energy

$$$$
2:0
     RDKit          3D

 78 81  0  0  0  0  0  0  0  0999 V2000
   58.9480   30.7310   45.0940 C   0  0  0  0  0  0  0  0  0  0  0  0
   57.7980   30.3630   46.0300 C   0  0  0  0  0  0  0  0  0  0  0  0
   56.6540   29.7990   45.2850 N   0  0  0  0  0  0  0  0  0  0  0  0
   56.2560   30.5200   44.0510 C   0  0  0  0  0  0  0  0  0  0  0  0
   56.2750   29.6630   42.7820 C   0  0  0  0  0  0  0  0  0  0  0  0
   56.6200   28.3200   45.1930 C   0  0  0  0  0  0  0  0  0  0  0  0
   58.0030   27.6500   45.0160 C   0  0  0  0  0  0  0  0  0  0  0  0
   58.2130   26.6910   46.0330 O   0  0  0  0  0  0  0  0  0  0  0  0
   59.5940   26.5100   46.2790 C   0  0  0  0  0  0  0  0  0  0  0  0
   60.2700   27.8780   46.3770 C   0  0  0  0  0  0  0  0  0  0  0  0
   59.8290   28.6390   47.6370 C   0  0  0  0  0  0  0  0  0  0  0  0
   60.7370   28.3610   48.8400 C   0  0  0  0  0  0  0  0  0  0  0  0
   60.4530   29.3120   49.9400 N   0  0  0  0  0  0  0  0  0  0  0  0
   60.6640   28.7180   51.2720 C   0  0  0  0  0  0  0  0  0  0  0  0
   59.1410   29.9860   49.8160 C   0  0  0  0  0  0  0  0  0  0  0  0
   58.8080   30.9290   50.9910 C   0  0  0  0  0  0  0  0  0  0  0  0
   59.8270   31.9710   51.1060 N   0  0  0  0  0  0  0  0  0  0  0  0
   60.5810   32.4100   49.9670 C   0  0  0  0  0  0  0  0  0  0  0  0
   59.9280   32.9160   48.8450 C   0  0  0  0  0  0  0  0  0  0  0  0
   60.6440   33.3160   47.7320 C   0  0  0  0  0  0  0  0  0  0  0  0
   62.0160   33.3570   47.7270 N   0  0  0  0  0  0  0  0  0  0  0  0
   62.7260   34.0940   46.6680 C   0  0  0  0  0  0  0  0  0  0  0  0
   62.6980   32.7510   48.7690 C   0  0  0  0  0  0  0  0  0  0  0  0
   64.1010   32.5630   48.7310 C   0  0  0  0  0  0  0  0  0  0  0  0
   64.7760   31.9760   49.8010 C   0  0  0  0  0  0  0  0  0  0  0  0
   64.0770   31.5500   50.9260 C   0  0  0  0  0  0  0  0  0  0  0  0
   62.6930   31.6910   50.9850 C   0  0  0  0  0  0  0  0  0  0  0  0
   61.9850   32.2760   49.9170 C   0  0  0  0  0  0  0  0  0  0  0  0
   59.6790   33.6460   46.6760 C   0  0  0  0  0  0  0  0  0  0  0  0
   59.8500   33.9090   45.3070 C   0  0  0  0  0  0  0  0  0  0  0  0
   58.7100   34.1110   44.5130 C   0  0  0  0  0  0  0  0  0  0  0  0
   57.4240   34.0070   45.0710 C   0  0  0  0  0  0  0  0  0  0  0  0
   57.2680   33.6790   46.4250 C   0  0  0  0  0  0  0  0  0  0  0  0
   58.4090   33.4900   47.2060 C   0  0  0  0  0  0  0  0  0  0  0  0
   58.4480   33.0320   48.6270 C   0  0  0  0  0  0  0  0  0  0  0  0
   59.8292   31.0130   45.6890 H   0  0  0  0  0  0  0  0  0  0  0  0
   59.1952   29.8671   44.4595 H   0  0  0  0  0  0  0  0  0  0  0  0
   58.6477   31.5779   44.4595 H   0  0  0  0  0  0  0  0  0  0  0  0
   58.1533   29.6182   46.7573 H   0  0  0  0  0  0  0  0  0  0  0  0
   57.4612   31.2777   46.5397 H   0  0  0  0  0  0  0  0  0  0  0  0
   55.2347   30.9039   44.1913 H   0  0  0  0  0  0  0  0  0  0  0  0
   56.9980   31.3181   43.9013 H   0  0  0  0  0  0  0  0  0  0  0  0
   56.2986   28.5986   43.0587 H   0  0  0  0  0  0  0  0  0  0  0  0
   55.3721   29.8675   42.1879 H   0  0  0  0  0  0  0  0  0  0  0  0
   57.1680   29.9073   42.1879 H   0  0  0  0  0  0  0  0  0  0  0  0
   56.1662   27.9299   46.1160 H   0  0  0  0  0  0  0  0  0  0  0  0
   56.0407   28.0788   44.2895 H   0  0  0  0  0  0  0  0  0  0  0  0
   58.0441   27.1544   44.0348 H   0  0  0  0  0  0  0  0  0  0  0  0
   58.7863   28.4197   45.0803 H   0  0  0  0  0  0  0  0  0  0  0  0
   59.7310   25.9633   47.2236 H   0  0  0  0  0  0  0  0  0  0  0  0
   60.0436   25.9333   45.4573 H   0  0  0  0  0  0  0  0  0  0  0  0
   61.3603   27.7357   46.4094 H   0  0  0  0  0  0  0  0  0  0  0  0
   59.9766   28.4701   45.4976 H   0  0  0  0  0  0  0  0  0  0  0  0
   59.8486   29.7177   47.4223 H   0  0  0  0  0  0  0  0  0  0  0  0
   58.8166   28.2960   47.8967 H   0  0  0  0  0  0  0  0  0  0  0  0
   60.5618   27.3348   49.1953 H   0  0  0  0  0  0  0  0  0  0  0  0
   61.7849   28.4828   48.5283 H   0  0  0  0  0  0  0  0  0  0  0  0
   60.4027   29.4535   52.0471 H   0  0  0  0  0  0  0  0  0  0  0  0
   60.0271   27.8279   51.3816 H   0  0  0  0  0  0  0  0  0  0  0  0
   61.7197   28.4292   51.3816 H   0  0  0  0  0  0  0  0  0  0  0  0
   59.1414   30.5763   48.8878 H   0  0  0  0  0  0  0  0  0  0  0  0
   58.3756   29.1960   49.8143 H   0  0  0  0  0  0  0  0  0  0  0  0
   57.8281   31.3968   50.8151 H   0  0  0  0  0  0  0  0  0  0  0  0
   58.7837   30.3461   51.9235 H   0  0  0  0  0  0  0  0  0  0  0  0
   59.8960   32.5100   51.9970 H   0  0  0  0  0  0  0  0  0  0  0  0
   63.4202   34.8146   47.1250 H   0  0  0  0  0  0  0  0  0  0  0  0
   63.2909   33.3858   46.0440 H   0  0  0  0  0  0  0  0  0  0  0  0
   61.9973   34.6321   46.0440 H   0  0  0  0  0  0  0  0  0  0  0  0
   64.6669   32.8847   47.8443 H   0  0  0  0  0  0  0  0  0  0  0  0
   65.8677   31.8491   49.7552 H   0  0  0  0  0  0  0  0  0  0  0  0
   64.6191   31.1006   51.7711 H   0  0  0  0  0  0  0  0  0  0  0  0
   62.1473   31.3422   51.8741 H   0  0  0  0  0  0  0  0  0  0  0  0
   60.8566   33.9558   44.8659 H   0  0  0  0  0  0  0  0  0  0  0  0
   58.8240   34.3525   43.4459 H   0  0  0  0  0  0  0  0  0  0  0  0
   56.5378   34.1834   44.4436 H   0  0  0  0  0  0  0  0  0  0  0  0
   56.2649   33.5726   46.8637 H   0  0  0  0  0  0  0  0  0  0  0  0
   57.9961   33.7724   49.3034 H   0  0  0  0  0  0  0  0  0  0  0  0
   57.8851   32.1074   48.8229 H   0  0  0  0  0  0  0  0  0  0  0  0
  1  2  1  0
  2  3  1  0
  3  4  1  0
  4  5  1  0
  3  6  1  0
  6  7  1  0
  7  8  1  0
  8  9  1  0
  9 10  1  0
 10 11  1  0
 11 12  1  0
 12 13  1  0
 13 14  1  0
 13 15  1  0
 15 16  1  0
 16 17  1  0
 17 18  1  0
 18 19  2  0
 19 20  1  0
 20 21  2  0
 21 22  1  0
 21 23  1  0
 23 24  2  0
 24 25  1  0
 25 26  2  0
 26 27  1  0
 27 28  2  0
 20 29  1  0
 29 30  2  0
 30 31  1  0
 31 32  2  0
 32 33  1  0
 33 34  2  0
 34 35  1  0
 28 18  1  0
 34 29  1  0
 35 19  1  0
 28 23  1  0
  1 36  1  0
  1 37  1  0
  1 38  1  0
  2 39  1  0
  2 40  1  0
  4 41  1  0
  4 42  1  0
  5 43  1  0
  5 44  1  0
  5 45  1  0
  6 46  1  0
  6 47  1  0
  7 48  1  0
  7 49  1  0
  9 50  1  0
  9 51  1  0
 10 52  1  0
 10 53  1  0
 11 54  1  0
 11 55  1  0
 12 56  1  0
 12 57  1  0
 14 58  1  0
 14 59  1  0
 14 60  1  0
 15 61  1  0
 15 62  1  0
 16 63  1  0
 16 64  1  0
 17 65  1  0
 22 66  1  0
 22 67  1  0
 22 68  1  0
 24 69  1  0
 25 70  1  0
 26 71  1  0
 27 72  1  0
 30 73  1  0
 31 74  1  0
 32 75  1  0
 33 76  1  0
 35 77  1  0
 35 78  1  0
M  CHG  1  21   1
M  END
>  <UniqueID>  (3) 
3

>  <SMILES>  (3) 
CCN(CC)CCOCCCCN(C)CCNc1c2c([n+](C)c3ccccc13)-c1ccccc1C2

>  <Energy>  (3) 
129.276100962086

>  <Genealogy>  (3) 
CCN(CC)CCOCCCCN(C)CCNc1c2c([n+](C)c3ccccc13)-c1ccccc1C2 (3D coordinates assigned)
CCN(CC)CCOCCCCN(C)CCNc1c2c([n+](C)c3ccccc13)-c1ccccc1C2 (nonaromatic ring conformer: 129.276100962086 kcal/mol)

>  <smiles>  (3) 
CCN(CC)CCOCCCCN(C)CCNc1c2c([n+](C)c3ccccc13)-c1ccccc1C2

>  <score_type>  (3) 
oracle

>  <origin>  (3) 
adg

>  <m_score__min__energy>  (3) 
-6.4400000000000004

>  <m_primary>  (3) 
energy

$$$$
3:0
     RDKit          3D

 45 47  0  0  0  0  0  0  0  0999 V2000
   56.3070   30.0970   43.2940 C   0  0  0  0  0  0  0  0  0  0  0  0
   57.2980   31.1840   43.6950 C   0  0  0  0  0  0  0  0  0  0  0  0
   57.0330   31.6200   45.0730 N   0  0  0  0  0  0  0  0  0  0  0  0
   57.3580   33.0420   45.2530 C   0  0  0  0  0  0  0  0  0  0  0  0
   58.6510   33.1960   46.0640 C   0  0  0  0  0  0  0  0  0  0  0  0
   59.4900   31.9980   45.9740 N   0  0  0  0  0  0  0  0  0  0  0  0
   60.5380   31.6800   46.9070 C   0  0  0  0  0  0  0  0  0  0  0  0
   60.5050   30.6350   47.8190 C   0  0  0  0  0  0  0  0  0  0  0  0
   59.4030   29.6360   48.0030 C   0  0  0  0  0  0  0  0  0  0  0  0
   59.0990   28.9530   46.7070 C   0  0  0  0  0  0  0  0  0  0  0  0
   57.8940   28.3510   46.3650 C   0  0  0  0  0  0  0  0  0  0  0  0
   57.9170   27.7580   45.0970 C   0  0  0  0  0  0  0  0  0  0  0  0
   59.1360   27.8850   44.4430 C   0  0  0  0  0  0  0  0  0  0  0  0
   60.1860   28.7380   45.4420 S   0  0  0  0  0  0  0  0  0  0  0  0
   61.5870   30.7230   48.6230 N   0  0  0  0  0  0  0  0  0  0  0  0
   62.2660   31.8010   48.1760 C   0  0  0  0  0  0  0  0  0  0  0  0
   63.4720   32.2940   48.6930 C   0  0  0  0  0  0  0  0  0  0  0  0
   64.1500   31.6420   49.8630 C   0  0  0  0  0  0  0  0  0  0  0  0
   64.0300   33.4240   48.0630 C   0  0  0  0  0  0  0  0  0  0  0  0
   63.3910   34.0100   46.9560 C   0  0  0  0  0  0  0  0  0  0  0  0
   62.1860   33.4740   46.4850 C   0  0  0  0  0  0  0  0  0  0  0  0
   61.6580   32.4010   47.1320 N   0  0  0  0  0  0  0  0  0  0  0  0
   55.8849   29.6340   44.1981 H   0  0  0  0  0  0  0  0  0  0  0  0
   55.4968   30.5415   42.6973 H   0  0  0  0  0  0  0  0  0  0  0  0
   56.8243   29.3313   42.6973 H   0  0  0  0  0  0  0  0  0  0  0  0
   58.3216   30.7866   43.6288 H   0  0  0  0  0  0  0  0  0  0  0  0
   57.1874   32.0426   43.0163 H   0  0  0  0  0  0  0  0  0  0  0  0
   56.0060   31.5050   45.2470 H   0  0  0  0  0  0  0  0  0  0  0  0
   57.4905   33.5112   44.2670 H   0  0  0  0  0  0  0  0  0  0  0  0
   56.5355   33.5302   45.7963 H   0  0  0  0  0  0  0  0  0  0  0  0
   59.2152   34.0569   45.6762 H   0  0  0  0  0  0  0  0  0  0  0  0
   58.3794   33.3474   47.1191 H   0  0  0  0  0  0  0  0  0  0  0  0
   59.1460   31.2290   45.3580 H   0  0  0  0  0  0  0  0  0  0  0  0
   59.7139   28.8853   48.7445 H   0  0  0  0  0  0  0  0  0  0  0  0
   58.5005   30.1593   48.3518 H   0  0  0  0  0  0  0  0  0  0  0  0
   57.0126   28.3414   47.0231 H   0  0  0  0  0  0  0  0  0  0  0  0
   57.0508   27.2400   44.6595 H   0  0  0  0  0  0  0  0  0  0  0  0
   59.3738   27.4943   43.4426 H   0  0  0  0  0  0  0  0  0  0  0  0
   61.8290   30.0980   49.4240 H   0  0  0  0  0  0  0  0  0  0  0  0
   63.7330   32.0430   50.7986 H   0  0  0  0  0  0  0  0  0  0  0  0
   63.9843   30.5552   49.8239 H   0  0  0  0  0  0  0  0  0  0  0  0
   65.2294   31.8500   49.8239 H   0  0  0  0  0  0  0  0  0  0  0  0
   64.9715   33.8505   48.4395 H   0  0  0  0  0  0  0  0  0  0  0  0
   63.8360   34.8862   46.4618 H   0  0  0  0  0  0  0  0  0  0  0  0
   61.6786   33.9108   45.6122 H   0  0  0  0  0  0  0  0  0  0  0  0
  1  2  1  0
  2  3  1  0
  3  4  1  0
  4  5  1  0
  5  6  1  0
  6  7  1  0
  7  8  2  0
  8  9  1  0
  9 10  1  0
 10 11  2  0
 11 12  1  0
 12 13  2  0
 13 14  1  0
  8 15  1  0
 15 16  2  0
 16 17  1  0
 17 18  1  0
 17 19  2  0
 19 20  1  0
 20 21  2  0
 21 22  1  0
 22  7  1  0
 14 10  1  0
 22 16  1  0
  1 23  1  0
  1 24  1  0
  1 25  1  0
  2 26  1  0
  2 27  1  0
  3 28  1  0
  4 29  1  0
  4 30  1  0
  5 31  1  0
  5 32  1  0
  6 33  1  0
  9 34  1  0
  9 35  1  0
 11 36  1  0
 12 37  1  0
 13 38  1  0
 15 39  1  0
 18 40  1  0
 18 41  1  0
 18 42  1  0
 19 43  1  0
 20 44  1  0
 21 45  1  0
M  CHG  1  15   1
M  END
>  <UniqueID>  (4) 
4

>  <SMILES>  (4) 
CCNCCNc1c(Cc2cccs2)[nH+]c2c(C)cccn12

>  <Energy>  (4) 
102.39542203976973

>  <Genealogy>  (4) 
CCNCCNc1c(Cc2cccs2)[nH+]c2c(C)cccn12 (protonated)
CCNCCNc1c(Cc2cccs2)[nH+]c2c(C)cccn12 (3D coordinates assigned)
CCNCCNc1c(Cc2cccs2)[nH+]c2c(C)cccn12 (optimized conformer: 102.39542203976973 kcal/mol)

>  <smiles>  (4) 
CCNCCNc1c(Cc2cccs2)nc2c(C)cccn12

>  <score_type>  (4) 
oracle

>  <origin>  (4) 
adg

>  <m_score__min__energy>  (4) 
-4.9500000000000002

>  <m_primary>  (4) 
energy

$$$$
4:0
     RDKit          3D

 28 28  0  0  0  0  0  0  0  0999 V2000
   56.2435   34.2525   44.9477 H   0  0  0  0  0  0  0  0  0  0  0  0
   57.0170   33.5860   45.3570 C   0  0  0  0  0  0  0  0  0  0  0  0
   57.5430   33.8550   46.6660 N   0  0  0  0  0  0  0  0  0  0  0  0
   56.8740   34.2160   47.3820 H   0  0  0  0  0  0  0  0  0  0  0  0
   58.9330   33.7570   47.0230 C   0  0  0  0  0  0  0  0  0  0  0  0
   59.9090   33.8630   46.0240 C   0  0  0  0  0  0  0  0  0  0  0  0
   59.6052   34.0160   44.9779 H   0  0  0  0  0  0  0  0  0  0  0  0
   61.2630   33.7760   46.3460 C   0  0  0  0  0  0  0  0  0  0  0  0
   62.0201   33.8708   45.5537 H   0  0  0  0  0  0  0  0  0  0  0  0
   61.6650   33.5690   47.6700 C   0  0  0  0  0  0  0  0  0  0  0  0
   63.5430   33.4700   48.0480 Br  0  0  0  0  0  0  0  0  0  0  0  0
   60.6950   33.4350   48.6850 C   0  0  0  0  0  0  0  0  0  0  0  0
   61.1010   33.2090   50.1150 C   0  0  0  0  0  0  0  0  0  0  0  0
   60.3382   33.6336   50.7842 H   0  0  0  0  0  0  0  0  0  0  0  0
   61.1941   32.1293   50.3035 H   0  0  0  0  0  0  0  0  0  0  0  0
   62.0677   33.6988   50.3035 H   0  0  0  0  0  0  0  0  0  0  0  0
   59.3330   33.5170   48.3500 C   0  0  0  0  0  0  0  0  0  0  0  0
   58.5714   33.3922   49.1338 H   0  0  0  0  0  0  0  0  0  0  0  0
   57.4240   32.5820   44.6400 N   0  0  0  0  0  0  0  0  0  0  0  0
   58.0680   32.7620   43.8360 H   0  0  0  0  0  0  0  0  0  0  0  0
   56.9860   31.2970   44.8870 O   0  0  0  0  0  0  0  0  0  0  0  0
   57.4080   30.2040   44.0850 C   0  0  0  0  0  0  0  0  0  0  0  0
   57.6661   29.3526   44.7319 H   0  0  0  0  0  0  0  0  0  0  0  0
   58.2903   30.4989   43.4980 H   0  0  0  0  0  0  0  0  0  0  0  0
   56.2840   29.8030   43.1440 C   0  0  0  0  0  0  0  0  0  0  0  0
   55.4080   29.4905   43.7313 H   0  0  0  0  0  0  0  0  0  0  0  0
   56.0134   30.6601   42.5098 H   0  0  0  0  0  0  0  0  0  0  0  0
   56.6170   28.9682   42.5098 H   0  0  0  0  0  0  0  0  0  0  0  0
  1  2  1  0
  2  3  1  0
  3  4  1  0
  3  5  1  0
  5  6  2  0
  6  7  1  0
  6  8  1  0
  8  9  1  0
  8 10  2  0
 10 11  1  0
 10 12  1  0
 12 13  1  0
 13 14  1  0
 13 15  1  0
 13 16  1  0
 12 17  2  0
 17 18  1  0
  2 19  2  0
 19 20  1  0
 19 21  1  0
 21 22  1  0
 22 23  1  0
 22 24  1  0
 22 25  1  0
 25 26  1  0
 25 27  1  0
 25 28  1  0
 17  5  1  0
M  CHG  1  19   1
M  END
>  <UniqueID>  (5) 
5

>  <SMILES>  (5) 
CCO/[NH+]=C\Nc1ccc(Br)c(C)c1

>  <Energy>  (5) 
24.116878761531495

>  <Genealogy>  (5) 
CCO[NH+]=CNc1ccc(Br)c(C)c1 (protonated)
CCO/[NH+]=C\Nc1ccc(Br)c(C)c1 (cis-trans isomerization)
CCO/[NH+]=C\Nc1ccc(Br)c(C)c1 (3D coordinates assigned)
CCO/[NH+]=C\Nc1ccc(Br)c(C)c1 (optimized conformer: 24.116878761531495 kcal/mol)

>  <smiles>  (5) 
CCON=CNc1ccc(Br)c(C)c1

>  <score_type>  (5) 
oracle

>  <origin>  (5) 
adg

>  <m_score__min__energy>  (5) 
-4.29

>  <m_primary>  (5) 
energy

$$$$
5:0
     RDKit          3D

 51 53  0  0  0  0  0  0  0  0999 V2000
   59.7890   30.0680   45.9530 C   0  0  0  0  0  0  0  0  0  0  0  0
   58.7510   29.3920   45.0550 C   0  0  0  0  0  0  0  0  0  0  0  0
   58.4230   30.2330   43.8850 N   0  0  0  0  0  0  0  0  0  0  0  0
   57.0680   30.8220   43.9610 C   0  0  0  0  0  0  0  0  0  0  0  0
   57.0090   32.1000   44.8090 C   0  0  0  0  0  0  0  0  0  0  0  0
   58.2710   32.7360   44.8170 O   0  0  0  0  0  0  0  0  0  0  0  0
   58.1390   34.0940   45.1840 C   0  0  0  0  0  0  0  0  0  0  0  0
   58.2310   34.2170   46.7070 C   0  0  0  0  0  0  0  0  0  0  0  0
   58.7550   32.9940   47.3250 N   0  0  0  0  0  0  0  0  0  0  0  0
   59.7460   33.0200   48.3660 C   0  0  0  0  0  0  0  0  0  0  0  0
   61.0860   33.3090   48.0530 C   0  0  0  0  0  0  0  0  0  0  0  0
   61.4950   33.4850   46.7140 C   0  0  0  0  0  0  0  0  0  0  0  0
   62.8230   33.7630   46.4050 C   0  0  0  0  0  0  0  0  0  0  0  0
   63.7710   33.8410   47.4170 C   0  0  0  0  0  0  0  0  0  0  0  0
   63.3920   33.6730   48.7480 C   0  0  0  0  0  0  0  0  0  0  0  0
   62.0360   33.4380   49.1000 C   0  0  0  0  0  0  0  0  0  0  0  0
   61.6340   33.3290   50.4190 N   0  0  0  0  0  0  0  0  0  0  0  0
   62.5490   33.7460   51.5050 C   0  0  0  0  0  0  0  0  0  0  0  0
   60.3710   32.8540   50.7190 C   0  0  0  0  0  0  0  0  0  0  0  0
   60.0100   32.4670   52.0360 C   0  0  0  0  0  0  0  0  0  0  0  0
   58.7150   32.0480   52.3330 C   0  0  0  0  0  0  0  0  0  0  0  0
   57.7560   31.9690   51.3290 C   0  0  0  0  0  0  0  0  0  0  0  0
   56.4990   31.5550   51.6230 F   0  0  0  0  0  0  0  0  0  0  0  0
   58.0930   32.2890   50.0170 C   0  0  0  0  0  0  0  0  0  0  0  0
   59.3950   32.7270   49.6940 C   0  0  0  0  0  0  0  0  0  0  0  0
   59.5277   29.8978   47.0079 H   0  0  0  0  0  0  0  0  0  0  0  0
   60.7829   29.6435   45.7484 H   0  0  0  0  0  0  0  0  0  0  0  0
   59.8027   31.1487   45.7484 H   0  0  0  0  0  0  0  0  0  0  0  0
   59.1534   28.4305   44.7035 H   0  0  0  0  0  0  0  0  0  0  0  0
   57.8325   29.2392   45.6407 H   0  0  0  0  0  0  0  0  0  0  0  0
   59.1050   31.0270   43.8390 H   0  0  0  0  0  0  0  0  0  0  0  0
   58.5240   29.6760   43.0080 H   0  0  0  0  0  0  0  0  0  0  0  0
   56.7346   31.0639   42.9410 H   0  0  0  0  0  0  0  0  0  0  0  0
   56.4163   30.0794   44.4445 H   0  0  0  0  0  0  0  0  0  0  0  0
   56.2595   32.7841   44.3845 H   0  0  0  0  0  0  0  0  0  0  0  0
   56.7325   31.8354   45.8403 H   0  0  0  0  0  0  0  0  0  0  0  0
   58.9448   34.6805   44.7185 H   0  0  0  0  0  0  0  0  0  0  0  0
   57.1659   34.4757   44.8413 H   0  0  0  0  0  0  0  0  0  0  0  0
   58.8983   35.0552   46.9562 H   0  0  0  0  0  0  0  0  0  0  0  0
   57.2166   34.3876   47.0967 H   0  0  0  0  0  0  0  0  0  0  0  0
   58.5240   32.0760   46.8840 H   0  0  0  0  0  0  0  0  0  0  0  0
   60.7549   33.4014   45.9045 H   0  0  0  0  0  0  0  0  0  0  0  0
   63.1222   33.9211   45.3583 H   0  0  0  0  0  0  0  0  0  0  0  0
   64.8244   34.0360   47.1674 H   0  0  0  0  0  0  0  0  0  0  0  0
   64.1553   33.7232   49.5384 H   0  0  0  0  0  0  0  0  0  0  0  0
   62.0832   33.5337   52.4786 H   0  0  0  0  0  0  0  0  0  0  0  0
   63.4944   33.1898   51.4217 H   0  0  0  0  0  0  0  0  0  0  0  0
   62.7495   34.8244   51.4217 H   0  0  0  0  0  0  0  0  0  0  0  0
   60.7651   32.4984   52.8353 H   0  0  0  0  0  0  0  0  0  0  0  0
   58.4499   31.7785   53.3660 H   0  0  0  0  0  0  0  0  0  0  0  0
   57.3364   32.1995   49.2235 H   0  0  0  0  0  0  0  0  0  0  0  0
  1  2  1  0
  2  3  1  0
  3  4  1  0
  4  5  1  0
  5  6  1  0
  6  7  1  0
  7  8  1  0
  8  9  1  0
  9 10  1  0
 10 11  2  0
 11 12  1  0
 12 13  2  0
 13 14  1  0
 14 15  2  0
 15 16  1  0
 16 17  2  0
 17 18  1  0
 17 19  1  0
 19 20  2  0
 20 21  1  0
 21 22  2  0
 22 23  1  0
 22 24  1  0
 24 25  2  0
 25 10  1  0
 16 11  1  0
 25 19  1  0
  1 26  1  0
  1 27  1  0
  1 28  1  0
  2 29  1  0
  2 30  1  0
  3 31  1  0
  3 32  1  0
  4 33  1  0
  4 34  1  0
  5 35  1  0
  5 36  1  0
  7 37  1  0
  7 38  1  0
  8 39  1  0
  8 40  1  0
  9 41  1  0
 12 42  1  0
 13 43  1  0
 14 44  1  0
 15 45  1  0
 18 46  1  0
 18 47  1  0
 18 48  1  0
 20 49  1  0
 21 50  1  0
 24 51  1  0
M  CHG  2   3   1  17   1
M  END
>  <UniqueID>  (6) 
6

>  <SMILES>  (6) 
CC[NH2+]CCOCCNc1c2ccccc2[n+](C)c2ccc(F)cc12

>  <Energy>  (6) 
70.53591442787055

>  <Genealogy>  (6) 
CC[NH2+]CCOCCNc1c2ccccc2[n+](C)c2ccc(F)cc12 (protonated)
CC[NH2+]CCOCCNc1c2ccccc2[n+](C)c2ccc(F)cc12 (3D coordinates assigned)
CC[NH2+]CCOCCNc1c2ccccc2[n+](C)c2ccc(F)cc12 (optimized conformer: 70.53591442787055 kcal/mol)

>  <smiles>  (6) 
CCNCCOCCNc1c2ccccc2[n+](C)c2ccc(F)cc12

>  <score_type>  (6) 
oracle

>  <origin>  (6) 
adg

>  <m_score__min__energy>  (6) 
-4.1799999999999997

>  <m_primary>  (6) 
energy

$$$$
6:0
     RDKit          3D

 58 61  0  0  0  0  0  0  0  0999 V2000
   58.5380   31.6580   49.7390 C   0  0  0  0  0  0  0  0  0  0  0  0
   59.6390   30.7630   50.3360 C   0  0  0  0  0  0  0  0  0  0  0  0
   60.0810   29.6630   49.4480 N   0  0  0  0  0  0  0  0  0  0  0  0
   61.1340   28.8110   50.0700 C   0  0  0  0  0  0  0  0  0  0  0  0
   61.9690   29.6260   51.0570 C   0  0  0  0  0  0  0  0  0  0  0  0
   58.9610   28.8880   48.8440 C   0  0  0  0  0  0  0  0  0  0  0  0
   59.3710   28.3520   47.4520 C   0  0  0  0  0  0  0  0  0  0  0  0
   60.3880   29.2240   46.8330 N   0  0  0  0  0  0  0  0  0  0  0  0
   59.7920   30.4400   46.3110 C   0  0  0  0  0  0  0  0  0  0  0  0
   58.7280   30.4120   45.3610 C   0  0  0  0  0  0  0  0  0  0  0  0
   58.3290   29.2060   44.7360 C   0  0  0  0  0  0  0  0  0  0  0  0
   57.3070   29.1900   43.7880 C   0  0  0  0  0  0  0  0  0  0  0  0
   56.6680   30.3710   43.4270 C   0  0  0  0  0  0  0  0  0  0  0  0
   57.0310   31.5750   44.0240 C   0  0  0  0  0  0  0  0  0  0  0  0
   58.0420   31.6300   45.0180 C   0  0  0  0  0  0  0  0  0  0  0  0
   58.3720   32.8210   45.6440 N   0  0  0  0  0  0  0  0  0  0  0  0
   57.5900   34.0540   45.4240 C   0  0  0  0  0  0  0  0  0  0  0  0
   59.4720   32.8460   46.4620 C   0  0  0  0  0  0  0  0  0  0  0  0
   59.9930   33.9450   47.0620 N   0  0  0  0  0  0  0  0  0  0  0  0
   61.0550   33.5000   47.7570 C   0  0  0  0  0  0  0  0  0  0  0  0
   61.9140   34.2750   48.5310 C   0  0  0  0  0  0  0  0  0  0  0  0
   63.0010   33.6430   49.1520 C   0  0  0  0  0  0  0  0  0  0  0  0
   63.2280   32.2520   48.9720 C   0  0  0  0  0  0  0  0  0  0  0  0
   64.3220   31.5920   49.5490 O   0  0  0  0  0  0  0  0  0  0  0  0
   65.4560   32.2490   50.1080 C   0  0  0  0  0  0  0  0  0  0  0  0
   62.3380   31.4980   48.1820 C   0  0  0  0  0  0  0  0  0  0  0  0
   61.2330   32.1400   47.6040 C   0  0  0  0  0  0  0  0  0  0  0  0
   60.1920   31.7060   46.7780 C   0  0  0  0  0  0  0  0  0  0  0  0
   57.9637   32.1249   50.5527 H   0  0  0  0  0  0  0  0  0  0  0  0
   58.9983   32.4413   49.1188 H   0  0  0  0  0  0  0  0  0  0  0  0
   57.8653   31.0474   49.1188 H   0  0  0  0  0  0  0  0  0  0  0  0
   60.5109   31.3944   50.5619 H   0  0  0  0  0  0  0  0  0  0  0  0
   59.2087   30.2904   51.2313 H   0  0  0  0  0  0  0  0  0  0  0  0
   60.6557   27.9763   50.6035 H   0  0  0  0  0  0  0  0  0  0  0  0
   61.7941   28.4270   49.2783 H   0  0  0  0  0  0  0  0  0  0  0  0
   61.6900   29.3537   52.0856 H   0  0  0  0  0  0  0  0  0  0  0  0
   63.0363   29.4127   50.8979 H   0  0  0  0  0  0  0  0  0  0  0  0
   61.7817   30.6982   50.8979 H   0  0  0  0  0  0  0  0  0  0  0  0
   58.7101   28.0413   49.4998 H   0  0  0  0  0  0  0  0  0  0  0  0
   58.0881   29.5478   48.7314 H   0  0  0  0  0  0  0  0  0  0  0  0
   59.7843   27.3387   47.5632 H   0  0  0  0  0  0  0  0  0  0  0  0
   58.4814   28.3340   46.8053 H   0  0  0  0  0  0  0  0  0  0  0  0
   60.8950   28.7280   46.0720 H   0  0  0  0  0  0  0  0  0  0  0  0
   61.1340   29.4570   47.5280 H   0  0  0  0  0  0  0  0  0  0  0  0
   58.8338   28.2658   45.0029 H   0  0  0  0  0  0  0  0  0  0  0  0
   57.0050   28.2396   43.3238 H   0  0  0  0  0  0  0  0  0  0  0  0
   55.8729   30.3538   42.6670 H   0  0  0  0  0  0  0  0  0  0  0  0
   56.5239   32.5023   43.7190 H   0  0  0  0  0  0  0  0  0  0  0  0
   57.3131   34.4907   46.3949 H   0  0  0  0  0  0  0  0  0  0  0  0
   58.1957   34.7760   44.8566 H   0  0  0  0  0  0  0  0  0  0  0  0
   56.6787   33.8139   44.8566 H   0  0  0  0  0  0  0  0  0  0  0  0
   59.6870   34.9390   46.9950 H   0  0  0  0  0  0  0  0  0  0  0  0
   61.7446   35.3551   48.6524 H   0  0  0  0  0  0  0  0  0  0  0  0
   63.6840   34.2294   49.7841 H   0  0  0  0  0  0  0  0  0  0  0  0
   65.3958   32.2141   51.2058 H   0  0  0  0  0  0  0  0  0  0  0  0
   66.3741   31.7429   49.7749 H   0  0  0  0  0  0  0  0  0  0  0  0
   65.4736   33.2972   49.7749 H   0  0  0  0  0  0  0  0  0  0  0  0
   62.5070   30.4230   48.0210 H   0  0  0  0  0  0  0  0  0  0  0  0
  1  2  1  0
  2  3  1  0
  3  4  1  0
  4  5  1  0
  3  6  1  0
  6  7  1  0
  7  8  1  0
  8  9  1  0
  9 10  2  0
 10 11  1  0
 11 12  2  0
 12 13  1  0
 13 14  2  0
 14 15  1  0
 15 16  2  0
 16 17  1  0
 16 18  1  0
 18 19  1  0
 19 20  1  0
 20 21  2  0
 21 22  1  0
 22 23  2  0
 23 24  1  0
 24 25  1  0
 23 26  1  0
 26 27  2  0
 27 28  1  0
 28  9  1  0
 15 10  1  0
 28 18  2  0
 27 20  1  0
  1 29  1  0
  1 30  1  0
  1 31  1  0
  2 32  1  0
  2 33  1  0
  4 34  1  0
  4 35  1  0
  5 36  1  0
  5 37  1  0
  5 38  1  0
  6 39  1  0
  6 40  1  0
  7 41  1  0
  7 42  1  0
  8 43  1  0
  8 44  1  0
 11 45  1  0
 12 46  1  0
 13 47  1  0
 14 48  1  0
 17 49  1  0
 17 50  1  0
 17 51  1  0
 19 52  1  0
 21 53  1  0
 22 54  1  0
 25 55  1  0
 25 56  1  0
 25 57  1  0
 26 58  1  0
M  CHG  2   8   1  16   1
M  END
>  <UniqueID>  (7) 
7

>  <SMILES>  (7) 
CCN(CC)CC[NH2+]c1c2ccccc2[n+](C)c2[nH]c3ccc(OC)cc3c12

>  <Energy>  (7) 
120.88526797036823

>  <Genealogy>  (7) 
CCN(CC)CC[NH2+]c1c2ccccc2[n+](C)c2[nH]c3ccc(OC)cc3c12 (protonated)
CCN(CC)CC[NH2+]c1c2ccccc2[n+](C)c2[nH]c3ccc(OC)cc3c12 (3D coordinates assigned)
CCN(CC)CC[NH2+]c1c2ccccc2[n+](C)c2[nH]c3ccc(OC)cc3c12 (optimized conformer: 120.88526797036823 kcal/mol)

>  <smiles>  (7) 
CCN(CC)CCNc1c2ccccc2[n+](C)c2[nH]c3ccc(OC)cc3c12

>  <score_type>  (7) 
oracle

>  <origin>  (7) 
adg

>  <m_score__min__energy>  (7) 
-4.7400000000000002

>  <m_primary>  (7) 
energy

$$$$
7:0
     RDKit          3D

 47 49  0  0  0  0  0  0  0  0999 V2000
   63.0460   33.1280   47.1640 C   0  0  0  0  0  0  0  0  0  0  0  0
   62.8320   31.8360   47.9430 C   0  0  0  0  0  0  0  0  0  0  0  0
   61.4370   31.4030   47.8230 N   0  0  0  0  0  0  0  0  0  0  0  0
   61.2210   30.1510   48.5570 C   0  0  0  0  0  0  0  0  0  0  0  0
   59.7380   29.9890   48.9250 C   0  0  0  0  0  0  0  0  0  0  0  0
   58.8780   31.0590   48.4000 N   0  0  0  0  0  0  0  0  0  0  0  0
   58.6230   31.2920   47.0020 C   0  0  0  0  0  0  0  0  0  0  0  0
   58.2800   30.2100   46.1710 C   0  0  0  0  0  0  0  0  0  0  0  0
   58.1230   28.9100   46.7020 C   0  0  0  0  0  0  0  0  0  0  0  0
   57.8640   27.8240   45.8690 C   0  0  0  0  0  0  0  0  0  0  0  0
   57.6960   26.2150   46.5490 Cl  0  0  0  0  0  0  0  0  0  0  0  0
   57.7630   28.0120   44.4950 C   0  0  0  0  0  0  0  0  0  0  0  0
   57.8770   29.2910   43.9540 C   0  0  0  0  0  0  0  0  0  0  0  0
   58.0930   30.4230   44.7810 C   0  0  0  0  0  0  0  0  0  0  0  0
   58.1350   31.7020   44.2660 N   0  0  0  0  0  0  0  0  0  0  0  0
   57.6490   31.9580   42.8910 C   0  0  0  0  0  0  0  0  0  0  0  0
   58.5910   32.7520   45.0430 C   0  0  0  0  0  0  0  0  0  0  0  0
   58.8980   34.0090   44.4670 C   0  0  0  0  0  0  0  0  0  0  0  0
   59.2870   35.0860   45.2510 C   0  0  0  0  0  0  0  0  0  0  0  0
   59.3950   34.9480   46.6250 C   0  0  0  0  0  0  0  0  0  0  0  0
   59.1530   33.7090   47.2430 C   0  0  0  0  0  0  0  0  0  0  0  0
   59.2810   33.5790   48.6370 O   0  0  0  0  0  0  0  0  0  0  0  0
   60.2760   34.2150   49.4340 C   0  0  0  0  0  0  0  0  0  0  0  0
   58.7830   32.5850   46.4460 C   0  0  0  0  0  0  0  0  0  0  0  0
   63.1841   33.9620   47.8679 H   0  0  0  0  0  0  0  0  0  0  0  0
   63.9403   33.0306   46.5309 H   0  0  0  0  0  0  0  0  0  0  0  0
   62.1681   33.3241   46.5309 H   0  0  0  0  0  0  0  0  0  0  0  0
   63.4921   31.0539   47.5396 H   0  0  0  0  0  0  0  0  0  0  0  0
   63.0655   32.0112   49.0036 H   0  0  0  0  0  0  0  0  0  0  0  0
   60.8290   32.1380   48.2560 H   0  0  0  0  0  0  0  0  0  0  0  0
   61.5318   29.3044   47.9271 H   0  0  0  0  0  0  0  0  0  0  0  0
   61.8155   30.1752   49.4822 H   0  0  0  0  0  0  0  0  0  0  0  0
   59.3831   29.0291   48.5217 H   0  0  0  0  0  0  0  0  0  0  0  0
   59.6726   30.0336   50.0221 H   0  0  0  0  0  0  0  0  0  0  0  0
   58.3080   31.6020   49.0870 H   0  0  0  0  0  0  0  0  0  0  0  0
   58.2064   28.7535   47.7876 H   0  0  0  0  0  0  0  0  0  0  0  0
   57.5928   27.1494   43.8339 H   0  0  0  0  0  0  0  0  0  0  0  0
   57.7980   29.4254   42.8651 H   0  0  0  0  0  0  0  0  0  0  0  0
   56.6766   32.4702   42.9352 H   0  0  0  0  0  0  0  0  0  0  0  0
   58.3733   32.5916   42.3581 H   0  0  0  0  0  0  0  0  0  0  0  0
   57.5361   31.0023   42.3581 H   0  0  0  0  0  0  0  0  0  0  0  0
   58.8267   34.1341   43.3765 H   0  0  0  0  0  0  0  0  0  0  0  0
   59.5107   36.0540   44.7789 H   0  0  0  0  0  0  0  0  0  0  0  0
   59.6731   35.8173   47.2390 H   0  0  0  0  0  0  0  0  0  0  0  0
   60.0432   34.0662   50.4987 H   0  0  0  0  0  0  0  0  0  0  0  0
   61.2602   33.7782   49.2093 H   0  0  0  0  0  0  0  0  0  0  0  0
   60.2928   35.2917   49.2093 H   0  0  0  0  0  0  0  0  0  0  0  0
  1  2  1  0
  2  3  1  0
  3  4  1  0
  4  5  1  0
  5  6  1  0
  6  7  1  0
  7  8  2  0
  8  9  1  0
  9 10  2  0
 10 11  1  0
 10 12  1  0
 12 13  2  0
 13 14  1  0
 14 15  2  0
 15 16  1  0
 15 17  1  0
 17 18  2  0
 18 19  1  0
 19 20  2  0
 20 21  1  0
 21 22  1  0
 22 23  1  0
 21 24  2  0
 24  7  1  0
 14  8  1  0
 24 17  1  0
  1 25  1  0
  1 26  1  0
  1 27  1  0
  2 28  1  0
  2 29  1  0
  3 30  1  0
  4 31  1  0
  4 32  1  0
  5 33  1  0
  5 34  1  0
  6 35  1  0
  9 36  1  0
 12 37  1  0
 13 38  1  0
 16 39  1  0
 16 40  1  0
 16 41  1  0
 18 42  1  0
 19 43  1  0
 20 44  1  0
 23 45  1  0
 23 46  1  0
 23 47  1  0
M  CHG  1  15   1
M  END
>  <UniqueID>  (8) 
8

>  <SMILES>  (8) 
CCNCCNc1c2cc(Cl)ccc2[n+](C)c2cccc(OC)c12

>  <Energy>  (8) 
71.52490918076053

>  <Genealogy>  (8) 
CCNCCNc1c2cc(Cl)ccc2[n+](C)c2cccc(OC)c12 (3D coordinates assigned)
CCNCCNc1c2cc(Cl)ccc2[n+](C)c2cccc(OC)c12 (optimized conformer: 71.52490918076053 kcal/mol)

>  <smiles>  (8) 
CCNCCNc1c2cc(Cl)ccc2[n+](C)c2cccc(OC)c12

>  <score_type>  (8) 
oracle

>  <origin>  (8) 
adg

>  <m_score__min__energy>  (8) 
-5.4199999999999999

>  <m_primary>  (8) 
energy

$$$$
8:0
     RDKit          3D

 56 59  0  0  0  0  0  0  0  0999 V2000
   63.3100   33.6010   46.4220 C   0  0  0  0  0  0  0  0  0  0  0  0
   62.5440   33.8430   47.7210 C   0  0  0  0  0  0  0  0  0  0  0  0
   62.3330   32.5850   48.4750 N   0  0  0  0  0  0  0  0  0  0  0  0
   63.5760   32.0060   49.0460 C   0  0  0  0  0  0  0  0  0  0  0  0
   64.6320   33.0480   49.4400 C   0  0  0  0  0  0  0  0  0  0  0  0
   61.2600   32.7220   49.4860 C   0  0  0  0  0  0  0  0  0  0  0  0
   60.1500   31.6800   49.2600 C   0  0  0  0  0  0  0  0  0  0  0  0
   60.6050   30.4430   48.4520 C   0  0  0  0  0  0  0  0  0  0  0  0
   60.8450   30.7150   47.0190 N   0  0  0  0  0  0  0  0  0  0  0  0
   59.6350   30.6770   46.2240 C   0  0  0  0  0  0  0  0  0  0  0  0
   59.0000   31.8860   45.7990 C   0  0  0  0  0  0  0  0  0  0  0  0
   59.4690   33.1630   46.1820 C   0  0  0  0  0  0  0  0  0  0  0  0
   58.8360   34.3200   45.7320 C   0  0  0  0  0  0  0  0  0  0  0  0
   57.7260   34.2150   44.9050 C   0  0  0  0  0  0  0  0  0  0  0  0
   57.2650   32.9930   44.5440 N   0  0  0  0  0  0  0  0  0  0  0  0
   57.8480   31.8300   44.9550 C   0  0  0  0  0  0  0  0  0  0  0  0
   57.3280   30.6240   44.5500 N   0  0  0  0  0  0  0  0  0  0  0  0
   56.1520   30.5430   43.6680 C   0  0  0  0  0  0  0  0  0  0  0  0
   57.9090   29.4720   44.9960 C   0  0  0  0  0  0  0  0  0  0  0  0
   57.4840   28.2270   44.6930 N   0  0  0  0  0  0  0  0  0  0  0  0
   58.3360   27.3990   45.3140 C   0  0  0  0  0  0  0  0  0  0  0  0
   58.2830   26.0060   45.2790 C   0  0  0  0  0  0  0  0  0  0  0  0
   59.2540   25.2880   45.9860 C   0  0  0  0  0  0  0  0  0  0  0  0
   60.2490   25.9680   46.7100 C   0  0  0  0  0  0  0  0  0  0  0  0
   60.2870   27.3730   46.7370 C   0  0  0  0  0  0  0  0  0  0  0  0
   59.3080   28.0910   46.0190 C   0  0  0  0  0  0  0  0  0  0  0  0
   59.0320   29.4570   45.8170 C   0  0  0  0  0  0  0  0  0  0  0  0
   64.3350   33.2772   46.6556 H   0  0  0  0  0  0  0  0  0  0  0  0
   62.8028   32.8193   45.8374 H   0  0  0  0  0  0  0  0  0  0  0  0
   63.3439   34.5322   45.8374 H   0  0  0  0  0  0  0  0  0  0  0  0
   63.1168   34.5425   48.3476 H   0  0  0  0  0  0  0  0  0  0  0  0
   61.5584   34.2592   47.4656 H   0  0  0  0  0  0  0  0  0  0  0  0
   63.3076   31.4303   49.9440 H   0  0  0  0  0  0  0  0  0  0  0  0
   64.0252   31.3827   48.2588 H   0  0  0  0  0  0  0  0  0  0  0  0
   64.6948   33.1099   50.5365 H   0  0  0  0  0  0  0  0  0  0  0  0
   65.6098   32.7511   49.0329 H   0  0  0  0  0  0  0  0  0  0  0  0
   64.3482   34.0297   49.0329 H   0  0  0  0  0  0  0  0  0  0  0  0
   61.6899   32.5774   50.4881 H   0  0  0  0  0  0  0  0  0  0  0  0
   60.8204   33.7263   49.3953 H   0  0  0  0  0  0  0  0  0  0  0  0
   59.7905   31.3388   50.2420 H   0  0  0  0  0  0  0  0  0  0  0  0
   59.3641   32.1744   48.6701 H   0  0  0  0  0  0  0  0  0  0  0  0
   61.5393   30.0661   48.8936 H   0  0  0  0  0  0  0  0  0  0  0  0
   59.7859   29.7106   48.5037 H   0  0  0  0  0  0  0  0  0  0  0  0
   61.3640   31.6000   46.9020 H   0  0  0  0  0  0  0  0  0  0  0  0
   61.5180   30.0050   46.6490 H   0  0  0  0  0  0  0  0  0  0  0  0
   60.3442   33.2446   46.8433 H   0  0  0  0  0  0  0  0  0  0  0  0
   59.2132   35.3094   46.0300 H   0  0  0  0  0  0  0  0  0  0  0  0
   57.2212   35.1229   44.5431 H   0  0  0  0  0  0  0  0  0  0  0  0
   55.2393   30.4801   44.2787 H   0  0  0  0  0  0  0  0  0  0  0  0
   56.1073   31.4402   43.0331 H   0  0  0  0  0  0  0  0  0  0  0  0
   56.2307   29.6482   43.0331 H   0  0  0  0  0  0  0  0  0  0  0  0
   56.6700   27.9490   44.1010 H   0  0  0  0  0  0  0  0  0  0  0  0
   57.4984   25.4852   44.7105 H   0  0  0  0  0  0  0  0  0  0  0  0
   59.2387   24.1882   45.9753 H   0  0  0  0  0  0  0  0  0  0  0  0
   61.0072   25.3935   47.2622 H   0  0  0  0  0  0  0  0  0  0  0  0
   61.0650   27.9021   47.3069 H   0  0  0  0  0  0  0  0  0  0  0  0
  1  2  1  0
  2  3  1  0
  3  4  1  0
  4  5  1  0
  3  6  1  0
  6  7  1  0
  7  8  1  0
  8  9  1  0
  9 10  1  0
 10 11  2  0
 11 12  1  0
 12 13  2  0
 13 14  1  0
 14 15  2  0
 15 16  1  0
 16 17  2  0
 17 18  1  0
 17 19  1  0
 19 20  1  0
 20 21  1  0
 21 22  2  0
 22 23  1  0
 23 24  2  0
 24 25  1  0
 25 26  2  0
 26 27  1  0
 27 10  1  0
 16 11  1  0
 27 19  2  0
 26 21  1  0
  1 28  1  0
  1 29  1  0
  1 30  1  0
  2 31  1  0
  2 32  1  0
  4 33  1  0
  4 34  1  0
  5 35  1  0
  5 36  1  0
  5 37  1  0
  6 38  1  0
  6 39  1  0
  7 40  1  0
  7 41  1  0
  8 42  1  0
  8 43  1  0
  9 44  1  0
  9 45  1  0
 12 46  1  0
 13 47  1  0
 14 48  1  0
 18 49  1  0
 18 50  1  0
 18 51  1  0
 20 52  1  0
 22 53  1  0
 23 54  1  0
 24 55  1  0
 25 56  1  0
M  CHG  2   9   1  17   1
M  END
>  <UniqueID>  (9) 
9

>  <SMILES>  (9) 
CCN(CC)CCC[NH2+]c1c2cccnc2[n+](C)c2[nH]c3ccccc3c12

>  <Energy>  (9) 
115.91796538033638

>  <Genealogy>  (9) 
CCN(CC)CCC[NH2+]c1c2cccnc2[n+](C)c2[nH]c3ccccc3c12 (protonated)
CCN(CC)CCC[NH2+]c1c2cccnc2[n+](C)c2[nH]c3ccccc3c12 (3D coordinates assigned)
CCN(CC)CCC[NH2+]c1c2cccnc2[n+](C)c2[nH]c3ccccc3c12 (optimized conformer: 115.91796538033638 kcal/mol)

>  <smiles>  (9) 
CCN(CC)CCCNc1c2cccnc2[n+](C)c2[nH]c3ccccc3c12

>  <score_type>  (9) 
oracle

>  <origin>  (9) 
adg

>  <m_score__min__energy>  (9) 
-4.8600000000000003

>  <m_primary>  (9) 
energy

$$$$
9:0
     RDKit          3D

 51 54  0  0  0  0  0  0  0  0999 V2000
   64.7800   32.3230   49.7120 C   0  0  0  0  0  0  0  0  0  0  0  0
   63.7520   31.7310   48.9260 O   0  0  0  0  0  0  0  0  0  0  0  0
   62.6280   32.4200   48.4400 C   0  0  0  0  0  0  0  0  0  0  0  0
   62.3230   33.6660   48.9980 C   0  0  0  0  0  0  0  0  0  0  0  0
   61.2190   34.3980   48.5500 C   0  0  0  0  0  0  0  0  0  0  0  0
   60.4010   33.8840   47.5290 C   0  0  0  0  0  0  0  0  0  0  0  0
   59.2870   34.5820   47.0380 C   0  0  0  0  0  0  0  0  0  0  0  0
   58.9750   35.7160   47.4940 O   0  0  0  0  0  0  0  0  0  0  0  0
   58.5150   34.0130   46.0240 C   0  0  0  0  0  0  0  0  0  0  0  0
   58.8660   32.7500   45.5220 C   0  0  0  0  0  0  0  0  0  0  0  0
   58.0720   32.0970   44.4580 C   0  0  0  0  0  0  0  0  0  0  0  0
   58.1410   32.6030   43.1490 C   0  0  0  0  0  0  0  0  0  0  0  0
   57.4330   31.9890   42.1130 C   0  0  0  0  0  0  0  0  0  0  0  0
   57.4970   32.4950   40.8560 F   0  0  0  0  0  0  0  0  0  0  0  0
   56.6590   30.8570   42.3690 C   0  0  0  0  0  0  0  0  0  0  0  0
   56.6000   30.3260   43.6600 C   0  0  0  0  0  0  0  0  0  0  0  0
   55.8350   29.2320   43.8950 F   0  0  0  0  0  0  0  0  0  0  0  0
   57.3160   30.9310   44.7070 C   0  0  0  0  0  0  0  0  0  0  0  0
   57.2930   30.3690   45.9880 O   0  0  0  0  0  0  0  0  0  0  0  0
   58.2830   29.4480   46.4400 C   0  0  0  0  0  0  0  0  0  0  0  0
   59.3240   29.2130   45.3380 C   0  0  0  0  0  0  0  0  0  0  0  0
   59.5800   27.7710   45.1250 N   0  0  0  0  0  0  0  0  0  0  0  0
   58.4800   27.1410   44.3490 C   0  0  0  0  0  0  0  0  0  0  0  0
   57.3690   26.5740   45.2400 C   0  0  0  0  0  0  0  0  0  0  0  0
   57.9360   25.1070   46.1760 S   0  0  0  0  0  0  0  0  0  0  0  0
   59.7040   25.5640   46.3150 C   0  0  0  0  0  0  0  0  0  0  0  0
   59.8860   27.0810   46.4040 C   0  0  0  0  0  0  0  0  0  0  0  0
   59.9390   32.1220   45.9990 O   0  0  0  0  0  0  0  0  0  0  0  0
   60.7030   32.6250   46.9650 C   0  0  0  0  0  0  0  0  0  0  0  0
   61.8100   31.9010   47.4190 C   0  0  0  0  0  0  0  0  0  0  0  0
   64.5485   32.1897   50.7791 H   0  0  0  0  0  0  0  0  0  0  0  0
   65.7413   31.8402   49.4823 H   0  0  0  0  0  0  0  0  0  0  0  0
   64.8449   33.3968   49.4823 H   0  0  0  0  0  0  0  0  0  0  0  0
   62.9584   34.0743   49.7977 H   0  0  0  0  0  0  0  0  0  0  0  0
   60.9905   35.3768   48.9969 H   0  0  0  0  0  0  0  0  0  0  0  0
   57.6416   34.5481   45.6229 H   0  0  0  0  0  0  0  0  0  0  0  0
   58.7573   33.4895   42.9384 H   0  0  0  0  0  0  0  0  0  0  0  0
   56.0943   30.3818   41.5533 H   0  0  0  0  0  0  0  0  0  0  0  0
   58.7818   29.8576   47.3308 H   0  0  0  0  0  0  0  0  0  0  0  0
   57.7994   28.4920   46.6893 H   0  0  0  0  0  0  0  0  0  0  0  0
   58.9547   29.6519   44.3994 H   0  0  0  0  0  0  0  0  0  0  0  0
   60.2667   29.6860   45.6504 H   0  0  0  0  0  0  0  0  0  0  0  0
   58.0426   27.8986   43.6821 H   0  0  0  0  0  0  0  0  0  0  0  0
   58.9127   26.3006   43.7865 H   0  0  0  0  0  0  0  0  0  0  0  0
   57.0515   27.3503   45.9517 H   0  0  0  0  0  0  0  0  0  0  0  0
   56.5336   26.2670   44.5936 H   0  0  0  0  0  0  0  0  0  0  0  0
   60.1230   25.1000   47.2201 H   0  0  0  0  0  0  0  0  0  0  0  0
   60.2247   25.2062   45.4145 H   0  0  0  0  0  0  0  0  0  0  0  0
   59.2149   27.4708   47.1835 H   0  0  0  0  0  0  0  0  0  0  0  0
   60.9422   27.2755   46.6420 H   0  0  0  0  0  0  0  0  0  0  0  0
   62.0425   30.9213   46.9761 H   0  0  0  0  0  0  0  0  0  0  0  0
  1  2  1  0
  2  3  1  0
  3  4  2  0
  4  5  1  0
  5  6  2  0
  6  7  1  0
  7  8  2  0
  7  9  1  0
  9 10  2  0
 10 11  1  0
 11 12  2  0
 12 13  1  0
 13 14  1  0
 13 15  2  0
 15 16  1  0
 16 17  1  0
 16 18  2  0
 18 19  1  0
 19 20  1  0
 20 21  1  0
 21 22  1  0
 22 23  1  0
 23 24  1  0
 24 25  1  0
 25 26  1  0
 26 27  1  0
 10 28  1  0
 28 29  1  0
 29 30  2  0
 30  3  1  0
 29  6  1  0
 18 11  1  0
 27 22  1  0
  1 31  1  0
  1 32  1  0
  1 33  1  0
  4 34  1  0
  5 35  1  0
  9 36  1  0
 12 37  1  0
 15 38  1  0
 20 39  1  0
 20 40  1  0
 21 41  1  0
 21 42  1  0
 23 43  1  0
 23 44  1  0
 24 45  1  0
 24 46  1  0
 26 47  1  0
 26 48  1  0
 27 49  1  0
 27 50  1  0
 30 51  1  0
M  END
>  <UniqueID>  (10) 
10

>  <SMILES>  (10) 
COc1ccc2c(=O)cc(-c3cc(F)cc(F)c3OCCN3CCSCC3)oc2c1

>  <Energy>  (10) 
73.78473537567206

>  <Genealogy>  (10) 
COc1ccc2c(=O)cc(-c3cc(F)cc(F)c3OCCN3CCSCC3)oc2c1 (3D coordinates assigned)
COc1ccc2c(=O)cc(-c3cc(F)cc(F)c3OCCN3CCSCC3)oc2c1 (nonaromatic ring conformer: 73.78473537567206 kcal/mol)

>  <smiles>  (10) 
COc1ccc2c(=O)cc(-c3cc(F)cc(F)c3OCCN3CCSCC3)oc2c1

>  <score_type>  (10) 
oracle

>  <origin>  (10) 
adg

>  <m_score__min__energy>  (10) 
-7.7800000000000002

>  <m_primary>  (10) 
energy

$$$$
10:0
     RDKit          3D

 38 40  0  0  0  0  0  0  0  0999 V2000
   63.2857   34.3053   52.2236 H   0  0  0  0  0  0  0  0  0  0  0  0
   63.4150   33.8930   51.2120 C   0  0  0  0  0  0  0  0  0  0  0  0
   64.7130   33.6190   50.7280 C   0  0  0  0  0  0  0  0  0  0  0  0
   65.5877   33.8226   51.3632 H   0  0  0  0  0  0  0  0  0  0  0  0
   64.8940   33.0870   49.4380 C   0  0  0  0  0  0  0  0  0  0  0  0
   65.8996   32.8644   49.0518 H   0  0  0  0  0  0  0  0  0  0  0  0
   63.7580   32.8510   48.6650 C   0  0  0  0  0  0  0  0  0  0  0  0
   62.4980   33.1230   49.1330 C   0  0  0  0  0  0  0  0  0  0  0  0
   62.2860   33.6430   50.4110 C   0  0  0  0  0  0  0  0  0  0  0  0
   61.2704   33.8503   50.7793 H   0  0  0  0  0  0  0  0  0  0  0  0
   61.6120   32.7630   48.1340 C   0  0  0  0  0  0  0  0  0  0  0  0
   60.1080   32.7770   48.2130 C   0  0  1  0  0  0  0  0  0  0  0  0
   59.8902   32.1616   49.0983 H   0  0  0  0  0  0  0  0  0  0  0  0
   59.5530   34.1590   48.2600 C   0  0  0  0  0  0  0  0  0  0  0  0
   59.7510   34.9700   49.2020 O   0  0  0  0  0  0  0  0  0  0  0  0
   58.7580   34.4790   47.1270 N   0  0  0  0  0  0  0  0  0  0  0  0
   58.7180   33.4400   46.3610 C   0  0  0  0  0  0  0  0  0  0  0  0
   57.8790   33.5100   44.8200 Cl  0  0  0  0  0  0  0  0  0  0  0  0
   59.4970   32.3200   46.9310 C   0  0  0  0  0  0  0  0  0  0  0  0
   59.6410   31.1030   46.4860 N   0  0  0  0  0  0  0  0  0  0  0  0
   59.0600   30.4950   45.2910 C   0  0  0  0  0  0  0  0  0  0  0  0
   59.7669   29.7593   44.8799 H   0  0  0  0  0  0  0  0  0  0  0  0
   58.8605   31.2858   44.5529 H   0  0  0  0  0  0  0  0  0  0  0  0
   57.7440   29.7930   45.6280 C   0  0  0  0  0  0  0  0  0  0  0  0
   57.6065   29.7823   46.7193 H   0  0  0  0  0  0  0  0  0  0  0  0
   57.7774   28.7625   45.2447 H   0  0  0  0  0  0  0  0  0  0  0  0
   56.6630   30.4740   45.0280 O   0  0  0  0  0  0  0  0  0  0  0  0
   56.3950   29.9530   43.7410 C   0  0  0  0  0  0  0  0  0  0  0  0
   55.3072   29.8659   43.6030 H   0  0  0  0  0  0  0  0  0  0  0  0
   56.8644   28.9625   43.6486 H   0  0  0  0  0  0  0  0  0  0  0  0
   56.9660   30.8770   42.6730 C   0  0  0  0  0  0  0  0  0  0  0  0
   57.4857   31.7180   43.1554 H   0  0  0  0  0  0  0  0  0  0  0  0
   57.6764   30.3180   42.0462 H   0  0  0  0  0  0  0  0  0  0  0  0
   56.1483   31.2623   42.0462 H   0  0  0  0  0  0  0  0  0  0  0  0
   62.4010   32.2560   47.1030 C   0  0  0  0  0  0  0  0  0  0  0  0
   62.0119   31.8561   46.1550 H   0  0  0  0  0  0  0  0  0  0  0  0
   63.7110   32.3240   47.4300 N   0  0  0  0  0  0  0  0  0  0  0  0
   64.5190   32.0080   46.8470 H   0  0  0  0  0  0  0  0  0  0  0  0
  1  2  1  0
  2  3  2  0
  3  4  1  0
  3  5  1  0
  5  6  1  0
  5  7  2  0
  7  8  1  0
  8  9  2  0
  9 10  1  0
  8 11  1  0
 11 12  1  0
 12 13  1  1
 12 14  1  0
 14 15  2  0
 14 16  1  0
 16 17  2  0
 17 18  1  0
 17 19  1  0
 19 20  2  0
 20 21  1  0
 21 22  1  0
 21 23  1  0
 21 24  1  0
 24 25  1  0
 24 26  1  0
 24 27  1  0
 27 28  1  0
 28 29  1  0
 28 30  1  0
 28 31  1  0
 31 32  1  0
 31 33  1  0
 31 34  1  0
 11 35  2  0
 35 36  1  0
 35 37  1  0
 37 38  1  0
  9  2  1  0
 19 12  1  0
 37  7  1  0
M  END
>  <UniqueID>  (11) 
11

>  <SMILES>  (11) 
CCOCC/N=C1\C(Cl)=NC(=O)[C@@H]1c1c[nH]c2ccccc12

>  <Energy>  (11) 
89.90056941996147

>  <Genealogy>  (11) 
CCOCCN=C1C(Cl)=NC(=O)[C@@H]1c1c[nH]c2ccccc12 (chirality)
CCOCC/N=C1\C(Cl)=NC(=O)[C@@H]1c1c[nH]c2ccccc12 (cis-trans isomerization)
CCOCC/N=C1\C(Cl)=NC(=O)[C@@H]1c1c[nH]c2ccccc12 (3D coordinates assigned)
CCOCC/N=C1\C(Cl)=NC(=O)[C@@H]1c1c[nH]c2ccccc12 (nonaromatic ring conformer: 89.90056941996147 kcal/mol)

>  <smiles>  (11) 
CCOCCN=C1C(Cl)=NC(=O)C1c1c[nH]c2ccccc12

>  <score_type>  (11) 
oracle

>  <origin>  (11) 
adg

>  <m_score__min__energy>  (11) 
-7.8700000000000001

>  <m_primary>  (11) 
energy

$$$$
11:0
     RDKit          3D

 47 49  0  0  0  0  0  0  0  0999 V2000
   55.9500   29.8450   44.1430 C   0  0  0  0  0  0  0  0  0  0  0  0
   57.2530   29.5710   44.8550 C   0  0  0  0  0  0  0  0  0  0  0  0
   57.4550   28.2670   45.3190 C   0  0  0  0  0  0  0  0  0  0  0  0
   58.5000   27.9790   46.1830 C   0  0  0  0  0  0  0  0  0  0  0  0
   59.3230   28.9980   46.6470 C   0  0  0  0  0  0  0  0  0  0  0  0
   59.1660   30.3300   46.1930 C   0  0  0  0  0  0  0  0  0  0  0  0
   59.9430   31.4020   46.7250 C   0  0  0  0  0  0  0  0  0  0  0  0
   60.9740   31.1330   47.7210 N   0  0  0  0  0  0  0  0  0  0  0  0
   62.3370   31.2160   47.1560 C   0  0  0  0  0  0  0  0  0  0  0  0
   63.1980   32.3260   47.7930 C   0  0  0  0  0  0  0  0  0  0  0  0
   62.7520   32.6790   49.1600 N   0  0  0  0  0  0  0  0  0  0  0  0
   62.5800   34.1340   49.3200 C   0  0  0  0  0  0  0  0  0  0  0  0
   63.7300   32.1930   50.1480 C   0  0  0  0  0  0  0  0  0  0  0  0
   59.6730   32.7260   46.2660 C   0  0  0  0  0  0  0  0  0  0  0  0
   60.2900   33.8770   46.8260 C   0  0  0  0  0  0  0  0  0  0  0  0
   60.0200   35.1530   46.3360 C   0  0  0  0  0  0  0  0  0  0  0  0
   59.1360   35.3240   45.2830 C   0  0  0  0  0  0  0  0  0  0  0  0
   58.5240   34.2190   44.7020 C   0  0  0  0  0  0  0  0  0  0  0  0
   58.7880   32.9070   45.1650 C   0  0  0  0  0  0  0  0  0  0  0  0
   58.2110   31.8200   44.5520 N   0  0  0  0  0  0  0  0  0  0  0  0
   57.8030   31.9350   43.1350 C   0  0  0  0  0  0  0  0  0  0  0  0
   58.2000   30.5960   45.1830 C   0  0  0  0  0  0  0  0  0  0  0  0
   55.1550   30.0122   44.8846 H   0  0  0  0  0  0  0  0  0  0  0  0
   56.0577   30.7401   43.5128 H   0  0  0  0  0  0  0  0  0  0  0  0
   55.6880   28.9823   43.5128 H   0  0  0  0  0  0  0  0  0  0  0  0
   56.7783   27.4625   44.9952 H   0  0  0  0  0  0  0  0  0  0  0  0
   58.6782   26.9415   46.5021 H   0  0  0  0  0  0  0  0  0  0  0  0
   60.1100   28.7659   47.3796 H   0  0  0  0  0  0  0  0  0  0  0  0
   60.9150   31.7310   48.5670 H   0  0  0  0  0  0  0  0  0  0  0  0
   60.8280   30.1810   48.1250 H   0  0  0  0  0  0  0  0  0  0  0  0
   62.8396   30.2505   47.3149 H   0  0  0  0  0  0  0  0  0  0  0  0
   62.2316   31.4594   46.0885 H   0  0  0  0  0  0  0  0  0  0  0  0
   64.2407   31.9790   47.8413 H   0  0  0  0  0  0  0  0  0  0  0  0
   63.0981   33.2253   47.1675 H   0  0  0  0  0  0  0  0  0  0  0  0
   62.5504   34.3842   50.3908 H   0  0  0  0  0  0  0  0  0  0  0  0
   63.4225   34.6573   48.8443 H   0  0  0  0  0  0  0  0  0  0  0  0
   61.6387   34.4464   48.8443 H   0  0  0  0  0  0  0  0  0  0  0  0
   63.3504   32.3816   51.1631 H   0  0  0  0  0  0  0  0  0  0  0  0
   63.8853   31.1129   50.0095 H   0  0  0  0  0  0  0  0  0  0  0  0
   64.6847   32.7215   50.0095 H   0  0  0  0  0  0  0  0  0  0  0  0
   60.9944   33.7583   47.6625 H   0  0  0  0  0  0  0  0  0  0  0  0
   60.5107   36.0281   46.7870 H   0  0  0  0  0  0  0  0  0  0  0  0
   58.9183   36.3344   44.9065 H   0  0  0  0  0  0  0  0  0  0  0  0
   57.8223   34.3665   43.8679 H   0  0  0  0  0  0  0  0  0  0  0  0
   56.7455   32.2331   43.0809 H   0  0  0  0  0  0  0  0  0  0  0  0
   58.4237   32.6932   42.6351 H   0  0  0  0  0  0  0  0  0  0  0  0
   57.9364   30.9643   42.6351 H   0  0  0  0  0  0  0  0  0  0  0  0
  1  2  1  0
  2  3  2  0
  3  4  1  0
  4  5  2  0
  5  6  1  0
  6  7  2  0
  7  8  1  0
  8  9  1  0
  9 10  1  0
 10 11  1  0
 11 12  1  0
 11 13  1  0
  7 14  1  0
 14 15  2  0
 15 16  1  0
 16 17  2  0
 17 18  1  0
 18 19  2  0
 19 20  1  0
 20 21  1  0
 20 22  2  0
 22  2  1  0
 22  6  1  0
 19 14  1  0
  1 23  1  0
  1 24  1  0
  1 25  1  0
  3 26  1  0
  4 27  1  0
  5 28  1  0
  8 29  1  0
  8 30  1  0
  9 31  1  0
  9 32  1  0
 10 33  1  0
 10 34  1  0
 12 35  1  0
 12 36  1  0
 12 37  1  0
 13 38  1  0
 13 39  1  0
 13 40  1  0
 15 41  1  0
 16 42  1  0
 17 43  1  0
 18 44  1  0
 21 45  1  0
 21 46  1  0
 21 47  1  0
M  CHG  2   8   1  20   1
M  END
>  <UniqueID>  (12) 
12

>  <SMILES>  (12) 
Cc1cccc2c([NH2+]CCN(C)C)c3ccccc3[n+](C)c12

>  <Energy>  (12) 
86.51261890576714

>  <Genealogy>  (12) 
Cc1cccc2c([NH2+]CCN(C)C)c3ccccc3[n+](C)c12 (protonated)
Cc1cccc2c([NH2+]CCN(C)C)c3ccccc3[n+](C)c12 (3D coordinates assigned)
Cc1cccc2c([NH2+]CCN(C)C)c3ccccc3[n+](C)c12 (optimized conformer: 86.51261890576714 kcal/mol)

>  <smiles>  (12) 
Cc1cccc2c(NCCN(C)C)c3ccccc3[n+](C)c12

>  <score_type>  (12) 
oracle

>  <origin>  (12) 
adg

>  <m_score__min__energy>  (12) 
-4.1600000000000001

>  <m_primary>  (12) 
energy

$$$$
12:0
     RDKit          3D

 40 42  0  0  0  0  0  0  0  0999 V2000
   59.2590   34.9790   44.9060 C   0  0  0  0  0  0  0  0  0  0  0  0
   58.0170   34.1650   45.0780 C   0  0  0  0  0  0  0  0  0  0  0  0
   56.8990   34.7080   44.8700 O   0  0  0  0  0  0  0  0  0  0  0  0
   58.0580   32.7670   45.5490 C   0  0  0  0  0  0  0  0  0  0  0  0
   57.5780   31.7020   44.7940 C   0  0  0  0  0  0  0  0  0  0  0  0
   57.7870   30.5850   45.5670 C   0  0  0  0  0  0  0  0  0  0  0  0
   57.5040   29.2480   45.3010 C   0  0  0  0  0  0  0  0  0  0  0  0
   57.8510   28.2910   46.2750 C   0  0  0  0  0  0  0  0  0  0  0  0
   57.4990   26.5890   46.0010 S   0  0  0  0  0  0  0  0  0  0  0  0
   57.7640   26.2000   44.2870 C   0  0  0  0  0  0  0  0  0  0  0  0
   56.0720   26.2980   46.3680 O   0  0  0  0  0  0  0  0  0  0  0  0
   58.3990   25.7390   46.8540 O   0  0  0  0  0  0  0  0  0  0  0  0
   58.4570   28.7030   47.4840 C   0  0  0  0  0  0  0  0  0  0  0  0
   58.7330   30.0610   47.7210 C   0  0  0  0  0  0  0  0  0  0  0  0
   58.3830   30.9890   46.7330 C   0  0  0  0  0  0  0  0  0  0  0  0
   58.5590   32.3310   46.7410 N   0  0  0  0  0  0  0  0  0  0  0  0
   59.3560   33.0930   47.7140 C   0  0  0  0  0  0  0  0  0  0  0  0
   60.8260   32.9090   47.4440 C   0  0  0  0  0  0  0  0  0  0  0  0
   61.5630   33.9100   46.7870 C   0  0  0  0  0  0  0  0  0  0  0  0
   62.9350   33.7520   46.5730 C   0  0  0  0  0  0  0  0  0  0  0  0
   63.5850   32.5960   47.0140 C   0  0  0  0  0  0  0  0  0  0  0  0
   62.8620   31.5970   47.6710 C   0  0  0  0  0  0  0  0  0  0  0  0
   61.4890   31.7510   47.8870 C   0  0  0  0  0  0  0  0  0  0  0  0
   59.6634   35.2441   45.8940 H   0  0  0  0  0  0  0  0  0  0  0  0
   60.0061   34.3948   44.3487 H   0  0  0  0  0  0  0  0  0  0  0  0
   59.0214   35.8971   44.3487 H   0  0  0  0  0  0  0  0  0  0  0  0
   57.1271   31.7447   43.7916 H   0  0  0  0  0  0  0  0  0  0  0  0
   57.0236   28.9477   44.3581 H   0  0  0  0  0  0  0  0  0  0  0  0
   58.3817   25.2932   44.2081 H   0  0  0  0  0  0  0  0  0  0  0  0
   56.7949   26.0273   43.7961 H   0  0  0  0  0  0  0  0  0  0  0  0
   58.2794   27.0387   43.7961 H   0  0  0  0  0  0  0  0  0  0  0  0
   58.7151   27.9536   48.2468 H   0  0  0  0  0  0  0  0  0  0  0  0
   59.2109   30.3855   48.6571 H   0  0  0  0  0  0  0  0  0  0  0  0
   59.1031   34.1605   47.6335 H   0  0  0  0  0  0  0  0  0  0  0  0
   59.1297   32.7274   48.7265 H   0  0  0  0  0  0  0  0  0  0  0  0
   61.0568   34.8227   46.4394 H   0  0  0  0  0  0  0  0  0  0  0  0
   63.5043   34.5389   46.0566 H   0  0  0  0  0  0  0  0  0  0  0  0
   64.6648   32.4727   46.8440 H   0  0  0  0  0  0  0  0  0  0  0  0
   63.3738   30.6876   48.0190 H   0  0  0  0  0  0  0  0  0  0  0  0
   60.9248   30.9622   48.4061 H   0  0  0  0  0  0  0  0  0  0  0  0
  1  2  1  0
  2  3  2  0
  2  4  1  0
  4  5  2  0
  5  6  1  0
  6  7  2  0
  7  8  1  0
  8  9  1  0
  9 10  1  0
  9 11  2  0
  9 12  2  0
  8 13  2  0
 13 14  1  0
 14 15  2  0
 15 16  1  0
 16 17  1  0
 17 18  1  0
 18 19  2  0
 19 20  1  0
 20 21  2  0
 21 22  1  0
 22 23  2  0
 16  4  1  0
 23 18  1  0
 15  6  1  0
  1 24  1  0
  1 25  1  0
  1 26  1  0
  5 27  1  0
  7 28  1  0
 10 29  1  0
 10 30  1  0
 10 31  1  0
 13 32  1  0
 14 33  1  0
 17 34  1  0
 17 35  1  0
 19 36  1  0
 20 37  1  0
 21 38  1  0
 22 39  1  0
 23 40  1  0
M  END
>  <UniqueID>  (13) 
13

>  <SMILES>  (13) 
CC(=O)c1cc2cc(S(C)(=O)=O)ccc2n1Cc1ccccc1

>  <Energy>  (13) 
75.6753872295643

>  <Genealogy>  (13) 
CC(=O)c1cc2cc(S(C)(=O)=O)ccc2n1Cc1ccccc1 (3D coordinates assigned)
CC(=O)c1cc2cc(S(C)(=O)=O)ccc2n1Cc1ccccc1 (optimized conformer: 75.6753872295643 kcal/mol)

>  <smiles>  (13) 
CC(=O)c1cc2cc(S(C)(=O)=O)ccc2n1Cc1ccccc1

>  <score_type>  (13) 
oracle

>  <origin>  (13) 
adg

>  <m_score__min__energy>  (13) 
-7.9900000000000002

>  <m_primary>  (13) 
energy

$$$$
13:0
     RDKit          3D

 46 48  0  0  0  0  0  0  0  0999 V2000
   59.2690   35.2360   45.0240 C   0  0  0  0  0  0  0  0  0  0  0  0
   59.3440   34.6470   46.3950 C   0  0  0  0  0  0  0  0  0  0  0  0
   60.3450   34.8950   47.2610 N   0  0  0  0  0  0  0  0  0  0  0  0
   60.1240   34.1740   48.3500 N   0  0  0  0  0  0  0  0  0  0  0  0
   61.0190   34.1640   49.5010 C   0  0  0  0  0  0  0  0  0  0  0  0
   58.9850   33.4600   48.2030 C   0  0  0  0  0  0  0  0  0  0  0  0
   58.4580   32.4560   49.1850 C   0  0  0  0  0  0  0  0  0  0  0  0
   58.4580   33.7360   46.9520 C   0  0  0  0  0  0  0  0  0  0  0  0
   57.2780   33.0850   46.2840 C   0  0  0  0  0  0  0  0  0  0  0  0
   57.7250   32.2590   45.0760 C   0  0  0  0  0  0  0  0  0  0  0  0
   57.3020   30.8570   45.2470 N   0  0  0  0  0  0  0  0  0  0  0  0
   58.4220   29.9100   45.1420 C   0  0  0  0  0  0  0  0  0  0  0  0
   59.2810   29.9540   46.3780 C   0  0  0  0  0  0  0  0  0  0  0  0
   58.9380   29.1800   47.4960 C   0  0  0  0  0  0  0  0  0  0  0  0
   59.6960   29.2600   48.6640 C   0  0  0  0  0  0  0  0  0  0  0  0
   60.7970   30.1170   48.7290 C   0  0  0  0  0  0  0  0  0  0  0  0
   61.1600   30.9020   47.6210 C   0  0  0  0  0  0  0  0  0  0  0  0
   62.2780   31.8100   47.7170 N   0  0  0  0  0  0  0  0  0  0  0  0
   62.5810   32.8260   46.8800 C   0  0  0  0  0  0  0  0  0  0  0  0
   63.7210   33.4480   47.3410 C   0  0  0  0  0  0  0  0  0  0  0  0
   64.0680   32.7490   48.4790 C   0  0  0  0  0  0  0  0  0  0  0  0
   63.1790   31.7590   48.6860 N   0  0  0  0  0  0  0  0  0  0  0  0
   60.3900   30.8120   46.4450 C   0  0  0  0  0  0  0  0  0  0  0  0
   59.1304   36.3246   45.0997 H   0  0  0  0  0  0  0  0  0  0  0  0
   60.2017   35.0220   44.4815 H   0  0  0  0  0  0  0  0  0  0  0  0
   58.4197   34.7951   44.4815 H   0  0  0  0  0  0  0  0  0  0  0  0
   60.4254   34.1706   50.4271 H   0  0  0  0  0  0  0  0  0  0  0  0
   61.6434   33.2588   49.4721 H   0  0  0  0  0  0  0  0  0  0  0  0
   61.6634   35.0550   49.4721 H   0  0  0  0  0  0  0  0  0  0  0  0
   58.6447   32.8117   50.2090 H   0  0  0  0  0  0  0  0  0  0  0  0
   57.3762   32.3274   49.0331 H   0  0  0  0  0  0  0  0  0  0  0  0
   58.9667   31.4926   49.0331 H   0  0  0  0  0  0  0  0  0  0  0  0
   56.7739   32.4252   47.0055 H   0  0  0  0  0  0  0  0  0  0  0  0
   56.5903   33.8711   45.9387 H   0  0  0  0  0  0  0  0  0  0  0  0
   57.2684   32.6697   44.1634 H   0  0  0  0  0  0  0  0  0  0  0  0
   58.8210   32.3006   44.9924 H   0  0  0  0  0  0  0  0  0  0  0  0
   56.6270   30.6230   44.4820 H   0  0  0  0  0  0  0  0  0  0  0  0
   58.0228   28.8926   45.0169 H   0  0  0  0  0  0  0  0  0  0  0  0
   59.0388   30.1901   44.2754 H   0  0  0  0  0  0  0  0  0  0  0  0
   58.0685   28.5077   47.4516 H   0  0  0  0  0  0  0  0  0  0  0  0
   59.4260   28.6466   49.5363 H   0  0  0  0  0  0  0  0  0  0  0  0
   61.3857   30.1782   49.6562 H   0  0  0  0  0  0  0  0  0  0  0  0
   62.0132   33.1093   45.9815 H   0  0  0  0  0  0  0  0  0  0  0  0
   64.2400   34.3114   46.8992 H   0  0  0  0  0  0  0  0  0  0  0  0
   64.9364   32.9668   49.1181 H   0  0  0  0  0  0  0  0  0  0  0  0
   60.6606   31.4207   45.5696 H   0  0  0  0  0  0  0  0  0  0  0  0
  1  2  1  0
  2  3  2  0
  3  4  1  0
  4  5  1  0
  4  6  1  0
  6  7  1  0
  6  8  2  0
  8  9  1  0
  9 10  1  0
 10 11  1  0
 11 12  1  0
 12 13  1  0
 13 14  2  0
 14 15  1  0
 15 16  2  0
 16 17  1  0
 17 18  1  0
 18 19  1  0
 19 20  2  0
 20 21  1  0
 21 22  2  0
 17 23  2  0
  8  2  1  0
 23 13  1  0
 22 18  1  0
  1 24  1  0
  1 25  1  0
  1 26  1  0
  5 27  1  0
  5 28  1  0
  5 29  1  0
  7 30  1  0
  7 31  1  0
  7 32  1  0
  9 33  1  0
  9 34  1  0
 10 35  1  0
 10 36  1  0
 11 37  1  0
 12 38  1  0
 12 39  1  0
 14 40  1  0
 15 41  1  0
 16 42  1  0
 19 43  1  0
 20 44  1  0
 21 45  1  0
 23 46  1  0
M  END
>  <UniqueID>  (14) 
14

>  <SMILES>  (14) 
Cc1nn(C)c(C)c1CCNCc1cccc(-n2cccn2)c1

>  <Energy>  (14) 
101.19090665127719

>  <Genealogy>  (14) 
Cc1nn(C)c(C)c1CCNCc1cccc(-n2cccn2)c1 (3D coordinates assigned)
Cc1nn(C)c(C)c1CCNCc1cccc(-n2cccn2)c1 (optimized conformer: 101.19090665127719 kcal/mol)

>  <smiles>  (14) 
Cc1nn(C)c(C)c1CCNCc1cccc(-n2cccn2)c1

>  <score_type>  (14) 
oracle

>  <origin>  (14) 
adg

>  <m_score__min__energy>  (14) 
-7.5899999999999999

>  <m_primary>  (14) 
energy

$$$$
14:0
     RDKit          3D

 43 44  0  0  0  0  0  0  0  0999 V2000
   60.5880   26.7480   46.3110 C   0  0  0  0  0  0  0  0  0  0  0  0
   60.6140   27.8780   45.2800 C   0  0  0  0  0  0  0  0  0  0  0  0
   59.2870   28.5240   45.1350 N   0  0  0  0  0  0  0  0  0  0  0  0
   58.8910   29.4850   46.0540 C   0  0  0  0  0  0  0  0  0  0  0  0
   59.7180   29.8400   47.2700 C   0  0  0  0  0  0  0  0  0  0  0  0
   57.7200   30.2250   45.8410 C   0  0  0  0  0  0  0  0  0  0  0  0
   56.9590   30.0080   44.7050 C   0  0  0  0  0  0  0  0  0  0  0  0
   55.9270   30.6990   44.4910 O   0  0  0  0  0  0  0  0  0  0  0  0
   57.3360   29.0250   43.8040 C   0  0  0  0  0  0  0  0  0  0  0  0
   58.4610   28.2180   44.0610 C   0  0  0  0  0  0  0  0  0  0  0  0
   58.7760   27.1040   43.0590 C   0  0  0  0  0  0  0  0  0  0  0  0
   57.6700   26.1420   42.8550 N   0  0  0  0  0  0  0  0  0  0  0  0
   57.7420   24.9540   43.7310 C   0  0  0  0  0  0  0  0  0  0  0  0
   56.5490   24.8410   44.6440 C   0  0  0  0  0  0  0  0  0  0  0  0
   55.4290   24.0570   44.4450 C   0  0  0  0  0  0  0  0  0  0  0  0
   54.6030   24.2330   45.4920 N   0  0  0  0  0  0  0  0  0  0  0  0
   53.3270   23.5610   45.6900 C   0  0  0  0  0  0  0  0  0  0  0  0
   55.1480   25.0580   46.3720 N   0  0  0  0  0  0  0  0  0  0  0  0
   56.3430   25.4380   45.8810 C   0  0  0  0  0  0  0  0  0  0  0  0
   57.2500   26.3960   46.5810 C   0  0  0  0  0  0  0  0  0  0  0  0
   60.5978   27.1759   47.3243 H   0  0  0  0  0  0  0  0  0  0  0  0
   59.6758   26.1485   46.1750 H   0  0  0  0  0  0  0  0  0  0  0  0
   61.4716   26.1072   46.1750 H   0  0  0  0  0  0  0  0  0  0  0  0
   61.3451   28.6350   45.6002 H   0  0  0  0  0  0  0  0  0  0  0  0
   60.8913   27.4460   44.3071 H   0  0  0  0  0  0  0  0  0  0  0  0
   59.1524   29.5972   48.1817 H   0  0  0  0  0  0  0  0  0  0  0  0
   60.6557   29.2651   47.2562 H   0  0  0  0  0  0  0  0  0  0  0  0
   59.9472   30.9158   47.2562 H   0  0  0  0  0  0  0  0  0  0  0  0
   57.4052   30.9791   46.5773 H   0  0  0  0  0  0  0  0  0  0  0  0
   56.7534   28.8743   42.8832 H   0  0  0  0  0  0  0  0  0  0  0  0
   59.0129   27.5680   42.0902 H   0  0  0  0  0  0  0  0  0  0  0  0
   59.6192   26.5332   43.4752 H   0  0  0  0  0  0  0  0  0  0  0  0
   57.7490   25.8020   41.8670 H   0  0  0  0  0  0  0  0  0  0  0  0
   56.7390   26.6110   42.9140 H   0  0  0  0  0  0  0  0  0  0  0  0
   57.7917   24.0533   43.1015 H   0  0  0  0  0  0  0  0  0  0  0  0
   58.6381   25.0553   44.3608 H   0  0  0  0  0  0  0  0  0  0  0  0
   55.2447   23.4024   43.5804 H   0  0  0  0  0  0  0  0  0  0  0  0
   53.1304   23.4575   46.7673 H   0  0  0  0  0  0  0  0  0  0  0  0
   52.5247   24.1535   45.2261 H   0  0  0  0  0  0  0  0  0  0  0  0
   53.3617   22.5642   45.2261 H   0  0  0  0  0  0  0  0  0  0  0  0
   57.1385   26.2782   47.6690 H   0  0  0  0  0  0  0  0  0  0  0  0
   58.2920   26.1902   46.2948 H   0  0  0  0  0  0  0  0  0  0  0  0
   56.9876   27.4252   46.2948 H   0  0  0  0  0  0  0  0  0  0  0  0
  1  2  1  0
  2  3  1  0
  3  4  1  0
  4  5  1  0
  4  6  2  0
  6  7  1  0
  7  8  2  0
  7  9  1  0
  9 10  2  0
 10 11  1  0
 11 12  1  0
 12 13  1  0
 13 14  1  0
 14 15  2  0
 15 16  1  0
 16 17  1  0
 16 18  1  0
 18 19  2  0
 19 20  1  0
 10  3  1  0
 19 14  1  0
  1 21  1  0
  1 22  1  0
  1 23  1  0
  2 24  1  0
  2 25  1  0
  5 26  1  0
  5 27  1  0
  5 28  1  0
  6 29  1  0
  9 30  1  0
 11 31  1  0
 11 32  1  0
 12 33  1  0
 12 34  1  0
 13 35  1  0
 13 36  1  0
 15 37  1  0
 17 38  1  0
 17 39  1  0
 17 40  1  0
 20 41  1  0
 20 42  1  0
 20 43  1  0
M  CHG  1  12   1
M  END
>  <UniqueID>  (15) 
15

>  <SMILES>  (15) 
CCn1c(C)cc(=O)cc1C[NH2+]Cc1cn(C)nc1C

>  <Energy>  (15) 
77.16831188643383

>  <Genealogy>  (15) 
CCn1c(C)cc(=O)cc1C[NH2+]Cc1cn(C)nc1C (protonated)
CCn1c(C)cc(=O)cc1C[NH2+]Cc1cn(C)nc1C (3D coordinates assigned)
CCn1c(C)cc(=O)cc1C[NH2+]Cc1cn(C)nc1C (optimized conformer: 77.16831188643383 kcal/mol)

>  <smiles>  (15) 
CCn1c(C)cc(=O)cc1CNCc1cn(C)nc1C

>  <score_type>  (15) 
oracle

>  <origin>  (15) 
adg

>  <m_score__min__energy>  (15) 
-5.29

>  <m_primary>  (15) 
energy

$$$$
15:0
     RDKit          3D

 50 52  0  0  0  0  0  0  0  0999 V2000
   58.1490   26.7650   42.5690 C   0  0  0  0  0  0  0  0  0  0  0  0
   58.3210   27.0040   44.0660 C   0  0  0  0  0  0  0  0  0  0  0  0
   58.8730   28.3430   44.3020 N   0  0  0  0  0  0  0  0  0  0  0  0
   60.1190   28.2550   45.0780 C   0  0  0  0  0  0  0  0  0  0  0  0
   60.0350   29.1200   46.3450 C   0  0  0  0  0  0  0  0  0  0  0  0
   58.6450   29.5000   46.6700 N   0  0  0  0  0  0  0  0  0  0  0  0
   58.4120   30.9150   46.3920 C   0  0  0  0  0  0  0  0  0  0  0  0
   58.9160   31.9000   47.2790 C   0  0  0  0  0  0  0  0  0  0  0  0
   59.2020   31.5900   48.6290 C   0  0  0  0  0  0  0  0  0  0  0  0
   59.7770   32.5340   49.4750 C   0  0  0  0  0  0  0  0  0  0  0  0
   60.0890   33.7980   48.9960 C   0  0  0  0  0  0  0  0  0  0  0  0
   59.7930   34.1390   47.6780 C   0  0  0  0  0  0  0  0  0  0  0  0
   59.1550   33.2190   46.8040 C   0  0  0  0  0  0  0  0  0  0  0  0
   58.8160   33.5650   45.5100 N   0  0  0  0  0  0  0  0  0  0  0  0
   58.8950   34.9810   45.0790 C   0  0  0  0  0  0  0  0  0  0  0  0
   58.3270   32.6100   44.6400 C   0  0  0  0  0  0  0  0  0  0  0  0
   58.2110   32.8650   43.2510 C   0  0  0  0  0  0  0  0  0  0  0  0
   57.5690   31.9610   42.4000 C   0  0  0  0  0  0  0  0  0  0  0  0
   57.4190   32.2740   40.9410 C   0  0  0  0  0  0  0  0  0  0  0  0
   56.9410   30.8420   42.9440 C   0  0  0  0  0  0  0  0  0  0  0  0
   57.0720   30.5410   44.3050 C   0  0  0  0  0  0  0  0  0  0  0  0
   56.1170   29.5110   44.8630 C   0  0  0  0  0  0  0  0  0  0  0  0
   57.9330   31.3330   45.1220 C   0  0  0  0  0  0  0  0  0  0  0  0
   57.5133   25.8816   42.4094 H   0  0  0  0  0  0  0  0  0  0  0  0
   57.6759   27.6452   42.1091 H   0  0  0  0  0  0  0  0  0  0  0  0
   59.1339   26.5959   42.1091 H   0  0  0  0  0  0  0  0  0  0  0  0
   57.3430   26.9208   44.5626 H   0  0  0  0  0  0  0  0  0  0  0  0
   59.0126   26.2521   44.4738 H   0  0  0  0  0  0  0  0  0  0  0  0
   59.1080   28.7520   43.3670 H   0  0  0  0  0  0  0  0  0  0  0  0
   60.2906   27.2076   45.3671 H   0  0  0  0  0  0  0  0  0  0  0  0
   60.9487   28.6212   44.4555 H   0  0  0  0  0  0  0  0  0  0  0  0
   60.4539   28.5530   47.1894 H   0  0  0  0  0  0  0  0  0  0  0  0
   60.6035   30.0437   46.1616 H   0  0  0  0  0  0  0  0  0  0  0  0
   58.4150   29.2900   47.6660 H   0  0  0  0  0  0  0  0  0  0  0  0
   58.0460   28.8880   46.0830 H   0  0  0  0  0  0  0  0  0  0  0  0
   58.9665   30.5877   49.0162 H   0  0  0  0  0  0  0  0  0  0  0  0
   59.9842   32.2775   50.5244 H   0  0  0  0  0  0  0  0  0  0  0  0
   60.5710   34.5324   49.6580 H   0  0  0  0  0  0  0  0  0  0  0  0
   60.0585   35.1400   47.3071 H   0  0  0  0  0  0  0  0  0  0  0  0
   58.9313   35.6324   45.9647 H   0  0  0  0  0  0  0  0  0  0  0  0
   59.8029   35.1307   44.4762 H   0  0  0  0  0  0  0  0  0  0  0  0
   58.0094   35.2308   44.4762 H   0  0  0  0  0  0  0  0  0  0  0  0
   58.6339   33.7913   42.8349 H   0  0  0  0  0  0  0  0  0  0  0  0
   56.9463   33.2604   40.8243 H   0  0  0  0  0  0  0  0  0  0  0  0
   58.4103   32.2838   40.4643 H   0  0  0  0  0  0  0  0  0  0  0  0
   56.7904   31.5074   40.4643 H   0  0  0  0  0  0  0  0  0  0  0  0
   56.3364   30.1888   42.2976 H   0  0  0  0  0  0  0  0  0  0  0  0
   56.1456   29.5419   45.9622 H   0  0  0  0  0  0  0  0  0  0  0  0
   55.0965   29.7314   44.5165 H   0  0  0  0  0  0  0  0  0  0  0  0
   56.4138   28.5101   44.5165 H   0  0  0  0  0  0  0  0  0  0  0  0
  1  2  1  0
  2  3  1  0
  3  4  1  0
  4  5  1  0
  5  6  1  0
  6  7  1  0
  7  8  2  0
  8  9  1  0
  9 10  2  0
 10 11  1  0
 11 12  2  0
 12 13  1  0
 13 14  2  0
 14 15  1  0
 14 16  1  0
 16 17  2  0
 17 18  1  0
 18 19  1  0
 18 20  2  0
 20 21  1  0
 21 22  1  0
 21 23  2  0
 23  7  1  0
 13  8  1  0
 23 16  1  0
  1 24  1  0
  1 25  1  0
  1 26  1  0
  2 27  1  0
  2 28  1  0
  3 29  1  0
  4 30  1  0
  4 31  1  0
  5 32  1  0
  5 33  1  0
  6 34  1  0
  6 35  1  0
  9 36  1  0
 10 37  1  0
 11 38  1  0
 12 39  1  0
 15 40  1  0
 15 41  1  0
 15 42  1  0
 17 43  1  0
 19 44  1  0
 19 45  1  0
 19 46  1  0
 20 47  1  0
 22 48  1  0
 22 49  1  0
 22 50  1  0
M  CHG  2   6   1  14   1
M  END
>  <UniqueID>  (16) 
16

>  <SMILES>  (16) 
CCNCC[NH2+]c1c2ccccc2[n+](C)c2cc(C)cc(C)c12

>  <Energy>  (16) 
88.99291120520402

>  <Genealogy>  (16) 
CCNCC[NH2+]c1c2ccccc2[n+](C)c2cc(C)cc(C)c12 (protonated)
CCNCC[NH2+]c1c2ccccc2[n+](C)c2cc(C)cc(C)c12 (3D coordinates assigned)
CCNCC[NH2+]c1c2ccccc2[n+](C)c2cc(C)cc(C)c12 (optimized conformer: 88.99291120520402 kcal/mol)

>  <smiles>  (16) 
CCNCCNc1c2ccccc2[n+](C)c2cc(C)cc(C)c12

>  <score_type>  (16) 
oracle

>  <origin>  (16) 
adg

>  <m_score__min__energy>  (16) 
-4.46

>  <m_primary>  (16) 
energy

$$$$
16:0
     RDKit          3D

 38 40  0  0  0  0  0  0  0  0999 V2000
   55.4550   30.4540   44.6190 O   0  0  0  0  0  0  0  0  0  0  0  0
   56.6310   30.0020   44.6150 C   0  0  0  0  0  0  0  0  0  0  0  0
   57.7910   30.9640   44.6680 C   0  0  0  0  0  0  0  0  0  0  0  0
   57.6580   32.0080   45.7200 N   0  0  2  0  0  0  0  0  0  0  0  0
   57.8780   33.3880   45.1780 C   0  0  0  0  0  0  0  0  0  0  0  0
   58.7660   34.2850   46.0560 C   0  0  0  0  0  0  0  0  0  0  0  0
   59.9870   33.5300   46.4810 C   0  0  0  0  0  0  0  0  0  0  0  0
   61.2590   34.1190   46.4600 C   0  0  0  0  0  0  0  0  0  0  0  0
   62.3680   33.3980   46.9050 C   0  0  0  0  0  0  0  0  0  0  0  0
   62.2100   32.0980   47.3890 C   0  0  0  0  0  0  0  0  0  0  0  0
   60.9420   31.5010   47.4190 C   0  0  0  0  0  0  0  0  0  0  0  0
   60.8080   29.8640   48.0510 Cl  0  0  0  0  0  0  0  0  0  0  0  0
   59.8230   32.2170   46.9430 C   0  0  0  0  0  0  0  0  0  0  0  0
   58.4170   31.6640   46.9590 C   0  0  0  0  0  0  0  0  0  0  0  0
   56.8750   28.5950   44.4940 N   0  0  0  0  0  0  0  0  0  0  0  0
   57.5990   27.7360   45.3890 C   0  0  0  0  0  0  0  0  0  0  0  0
   59.0030   27.7690   45.5030 C   0  0  0  0  0  0  0  0  0  0  0  0
   59.6620   26.8740   46.3520 C   0  0  0  0  0  0  0  0  0  0  0  0
   58.9330   25.9380   47.0880 C   0  0  0  0  0  0  0  0  0  0  0  0
   57.5430   25.8900   46.9720 C   0  0  0  0  0  0  0  0  0  0  0  0
   56.8780   26.7800   46.1220 C   0  0  0  0  0  0  0  0  0  0  0  0
   55.5280   26.7110   46.0070 F   0  0  0  0  0  0  0  0  0  0  0  0
   58.7089   30.3900   44.8631 H   0  0  0  0  0  0  0  0  0  0  0  0
   57.8186   31.4861   43.7002 H   0  0  0  0  0  0  0  0  0  0  0  0
   56.6490   31.9720   46.0040 H   0  0  0  0  0  0  0  0  0  0  0  0
   58.3524   33.2971   44.1897 H   0  0  0  0  0  0  0  0  0  0  0  0
   56.8897   33.8694   45.1388 H   0  0  0  0  0  0  0  0  0  0  0  0
   59.0676   35.1738   45.4824 H   0  0  0  0  0  0  0  0  0  0  0  0
   58.2011   34.5935   46.9480 H   0  0  0  0  0  0  0  0  0  0  0  0
   61.3829   35.1486   46.0931 H   0  0  0  0  0  0  0  0  0  0  0  0
   63.3682   33.8547   46.8744 H   0  0  0  0  0  0  0  0  0  0  0  0
   63.0861   31.5387   47.7491 H   0  0  0  0  0  0  0  0  0  0  0  0
   58.4687   30.5689   47.0495 H   0  0  0  0  0  0  0  0  0  0  0  0
   57.8886   32.1134   47.8127 H   0  0  0  0  0  0  0  0  0  0  0  0
   59.5829   28.5013   44.9221 H   0  0  0  0  0  0  0  0  0  0  0  0
   60.7579   26.9076   46.4401 H   0  0  0  0  0  0  0  0  0  0  0  0
   59.4538   25.2389   47.7588 H   0  0  0  0  0  0  0  0  0  0  0  0
   56.9692   25.1508   47.5502 H   0  0  0  0  0  0  0  0  0  0  0  0
  1  2  2  0
  2  3  1  0
  3  4  1  0
  4  5  1  0
  5  6  1  0
  6  7  1  0
  7  8  2  0
  8  9  1  0
  9 10  2  0
 10 11  1  0
 11 12  1  0
 11 13  2  0
 13 14  1  0
  2 15  1  0
 15 16  1  0
 16 17  2  0
 17 18  1  0
 18 19  2  0
 19 20  1  0
 20 21  2  0
 21 22  1  0
 14  4  1  0
 21 16  1  0
 13  7  1  0
  3 23  1  0
  3 24  1  0
  4 25  1  1
  5 26  1  0
  5 27  1  0
  6 28  1  0
  6 29  1  0
  8 30  1  0
  9 31  1  0
 10 32  1  0
 14 33  1  0
 14 34  1  0
 17 35  1  0
 18 36  1  0
 19 37  1  0
 20 38  1  0
M  CHG  2   4   1  15  -1
M  END
>  <UniqueID>  (17) 
17

>  <SMILES>  (17) 
O=C(C[N@@H+]1CCc2cccc(Cl)c2C1)[N-]c1ccccc1F

>  <Energy>  (17) 
55.20097497330395

>  <Genealogy>  (17) 
O=C(C[NH+]1CCc2cccc(Cl)c2C1)[N-]c1ccccc1F (protonated)
O=C(C[N@@H+]1CCc2cccc(Cl)c2C1)[N-]c1ccccc1F (chirality)
O=C(C[N@@H+]1CCc2cccc(Cl)c2C1)[N-]c1ccccc1F (3D coordinates assigned)
O=C(C[N@@H+]1CCc2cccc(Cl)c2C1)[N-]c1ccccc1F (nonaromatic ring conformer: 55.20097497330395 kcal/mol)

>  <smiles>  (17) 
O=C(CN1CCc2cccc(Cl)c2C1)Nc1ccccc1F

>  <score_type>  (17) 
oracle

>  <origin>  (17) 
adg

>  <m_score__min__energy>  (17) 
-8.1099999999999994

>  <m_primary>  (17) 
energy

$$$$
17:0
     RDKit          3D

 41 43  0  0  0  0  0  0  0  0999 V2000
   55.7140   30.9270   51.9950 C   0  0  0  0  0  0  0  0  0  0  0  0
   57.0890   31.3900   52.4630 C   0  0  0  0  0  0  0  0  0  0  0  0
   57.6550   32.3440   51.4990 N   0  0  0  0  0  0  0  0  0  0  0  0
   58.2060   33.5260   52.1780 C   0  0  0  0  0  0  0  0  0  0  0  0
   59.6440   33.8250   51.7030 C   0  0  0  0  0  0  0  0  0  0  0  0
   60.3110   32.6080   51.2110 N   0  0  0  0  0  0  0  0  0  0  0  0
   60.9930   32.8740   49.9590 C   0  0  0  0  0  0  0  0  0  0  0  0
   60.3020   33.0670   48.7310 C   0  0  0  0  0  0  0  0  0  0  0  0
   58.8940   32.9750   48.6550 C   0  0  0  0  0  0  0  0  0  0  0  0
   58.2300   33.1310   47.4400 C   0  0  0  0  0  0  0  0  0  0  0  0
   58.9480   33.3650   46.2750 C   0  0  0  0  0  0  0  0  0  0  0  0
   58.0260   33.5380   44.6100 Br  0  0  0  0  0  0  0  0  0  0  0  0
   60.3390   33.4590   46.3140 C   0  0  0  0  0  0  0  0  0  0  0  0
   61.0490   33.3380   47.5350 C   0  0  0  0  0  0  0  0  0  0  0  0
   62.4320   33.4510   47.5790 N   0  0  0  0  0  0  0  0  0  0  0  0
   63.1970   33.8860   46.3920 C   0  0  0  0  0  0  0  0  0  0  0  0
   63.0870   33.1400   48.7440 C   0  0  0  0  0  0  0  0  0  0  0  0
   64.4870   33.0360   48.9160 C   0  0  0  0  0  0  0  0  0  0  0  0
   64.8610   32.7120   50.2150 C   0  0  0  0  0  0  0  0  0  0  0  0
   63.4740   32.5360   51.1500 S   0  0  0  0  0  0  0  0  0  0  0  0
   62.3870   32.8720   49.9080 C   0  0  0  0  0  0  0  0  0  0  0  0
   55.0816   30.7140   52.8694 H   0  0  0  0  0  0  0  0  0  0  0  0
   55.2475   31.7176   51.3889 H   0  0  0  0  0  0  0  0  0  0  0  0
   55.8208   30.0153   51.3889 H   0  0  0  0  0  0  0  0  0  0  0  0
   56.9943   31.8774   53.4446 H   0  0  0  0  0  0  0  0  0  0  0  0
   57.7555   30.5184   52.5410 H   0  0  0  0  0  0  0  0  0  0  0  0
   56.8730   32.6720   50.8830 H   0  0  0  0  0  0  0  0  0  0  0  0
   57.5682   34.3950   51.9591 H   0  0  0  0  0  0  0  0  0  0  0  0
   58.2317   33.3253   53.2592 H   0  0  0  0  0  0  0  0  0  0  0  0
   59.6059   34.5656   50.8906 H   0  0  0  0  0  0  0  0  0  0  0  0
   60.2175   34.2127   52.5579 H   0  0  0  0  0  0  0  0  0  0  0  0
   60.9760   32.2340   51.9220 H   0  0  0  0  0  0  0  0  0  0  0  0
   59.5980   31.8540   51.0730 H   0  0  0  0  0  0  0  0  0  0  0  0
   58.3137   32.7773   49.5683 H   0  0  0  0  0  0  0  0  0  0  0  0
   57.1324   33.0685   47.4037 H   0  0  0  0  0  0  0  0  0  0  0  0
   60.8952   33.6301   45.3805 H   0  0  0  0  0  0  0  0  0  0  0  0
   64.1110   34.4057   46.7151 H   0  0  0  0  0  0  0  0  0  0  0  0
   63.4687   33.0073   45.7886 H   0  0  0  0  0  0  0  0  0  0  0  0
   62.5808   34.5688   45.7886 H   0  0  0  0  0  0  0  0  0  0  0  0
   65.2091   33.1958   48.1017 H   0  0  0  0  0  0  0  0  0  0  0  0
   65.8941   32.5907   50.5726 H   0  0  0  0  0  0  0  0  0  0  0  0
  1  2  1  0
  2  3  1  0
  3  4  1  0
  4  5  1  0
  5  6  1  0
  6  7  1  0
  7  8  2  0
  8  9  1  0
  9 10  2  0
 10 11  1  0
 11 12  1  0
 11 13  2  0
 13 14  1  0
 14 15  2  0
 15 16  1  0
 15 17  1  0
 17 18  1  0
 18 19  2  0
 19 20  1  0
 20 21  1  0
 21  7  1  0
 14  8  1  0
 21 17  2  0
  1 22  1  0
  1 23  1  0
  1 24  1  0
  2 25  1  0
  2 26  1  0
  3 27  1  0
  4 28  1  0
  4 29  1  0
  5 30  1  0
  5 31  1  0
  6 32  1  0
  6 33  1  0
  9 34  1  0
 10 35  1  0
 13 36  1  0
 16 37  1  0
 16 38  1  0
 16 39  1  0
 18 40  1  0
 19 41  1  0
M  CHG  2   6   1  15   1
M  END
>  <UniqueID>  (18) 
18

>  <SMILES>  (18) 
CCNCC[NH2+]c1c2ccc(Br)cc2[n+](C)c2ccsc12

>  <Energy>  (18) 
86.25038846622488

>  <Genealogy>  (18) 
CCNCC[NH2+]c1c2ccc(Br)cc2[n+](C)c2ccsc12 (protonated)
CCNCC[NH2+]c1c2ccc(Br)cc2[n+](C)c2ccsc12 (3D coordinates assigned)
CCNCC[NH2+]c1c2ccc(Br)cc2[n+](C)c2ccsc12 (optimized conformer: 86.25038846622488 kcal/mol)

>  <smiles>  (18) 
CCNCCNc1c2ccc(Br)cc2[n+](C)c2ccsc12

>  <score_type>  (18) 
oracle

>  <origin>  (18) 
adg

>  <m_score__min__energy>  (18) 
-3.8399999999999999

>  <m_primary>  (18) 
energy

$$$$
18:0
     RDKit          3D

 46 48  0  0  0  0  0  0  0  0999 V2000
   56.4480   29.7200   42.8500 C   0  0  0  0  0  0  0  0  0  0  0  0
   55.9460   30.4780   44.0770 C   0  0  0  0  0  0  0  0  0  0  0  0
   57.0100   30.6260   45.0990 N   0  0  0  0  0  0  0  0  0  0  0  0
   57.4350   29.3080   45.6070 C   0  0  0  0  0  0  0  0  0  0  0  0
   58.1740   31.3520   44.5400 C   0  0  0  0  0  0  0  0  0  0  0  0
   57.7470   32.7020   43.9480 C   0  0  0  0  0  0  0  0  0  0  0  0
   58.5450   33.7930   44.5130 N   0  0  0  0  0  0  0  0  0  0  0  0
   59.1210   33.7810   45.8310 C   0  0  0  0  0  0  0  0  0  0  0  0
   58.3350   33.9740   46.9820 C   0  0  0  0  0  0  0  0  0  0  0  0
   58.9170   33.9510   48.2520 C   0  0  0  0  0  0  0  0  0  0  0  0
   60.2990   33.7440   48.3930 C   0  0  0  0  0  0  0  0  0  0  0  0
   60.9260   33.7090   49.6510 C   0  0  0  0  0  0  0  0  0  0  0  0
   60.2480   33.8620   50.7070 O   0  0  0  0  0  0  0  0  0  0  0  0
   62.3150   33.5030   49.7220 C   0  0  0  0  0  0  0  0  0  0  0  0
   63.0030   33.4560   50.9460 C   0  0  0  0  0  0  0  0  0  0  0  0
   64.3850   33.2480   50.9690 C   0  0  0  0  0  0  0  0  0  0  0  0
   65.1020   33.0830   49.7790 C   0  0  0  0  0  0  0  0  0  0  0  0
   66.4870   32.8780   49.8600 O   0  0  0  0  0  0  0  0  0  0  0  0
   67.3270   33.4460   50.8600 C   0  0  0  0  0  0  0  0  0  0  0  0
   64.4170   33.1280   48.5490 C   0  0  0  0  0  0  0  0  0  0  0  0
   63.0340   33.3360   48.5170 C   0  0  0  0  0  0  0  0  0  0  0  0
   62.4050   33.3760   47.3460 O   0  0  0  0  0  0  0  0  0  0  0  0
   61.0950   33.5680   47.2390 C   0  0  0  0  0  0  0  0  0  0  0  0
   60.5040   33.5940   45.9720 C   0  0  0  0  0  0  0  0  0  0  0  0
   57.0286   28.8433   43.1728 H   0  0  0  0  0  0  0  0  0  0  0  0
   55.5897   29.3894   42.2467 H   0  0  0  0  0  0  0  0  0  0  0  0
   57.0873   30.3813   42.2467 H   0  0  0  0  0  0  0  0  0  0  0  0
   55.6081   31.4775   43.7658 H   0  0  0  0  0  0  0  0  0  0  0  0
   55.1189   29.9050   44.5213 H   0  0  0  0  0  0  0  0  0  0  0  0
   57.4310   29.3203   46.7069 H   0  0  0  0  0  0  0  0  0  0  0  0
   56.7407   28.5348   45.2465 H   0  0  0  0  0  0  0  0  0  0  0  0
   58.4503   29.0861   45.2465 H   0  0  0  0  0  0  0  0  0  0  0  0
   58.9078   31.5262   45.3407 H   0  0  0  0  0  0  0  0  0  0  0  0
   58.6160   30.7418   43.7386 H   0  0  0  0  0  0  0  0  0  0  0  0
   57.8888   32.6787   42.8574 H   0  0  0  0  0  0  0  0  0  0  0  0
   56.6887   32.8756   44.1927 H   0  0  0  0  0  0  0  0  0  0  0  0
   58.8130   34.5690   43.8650 H   0  0  0  0  0  0  0  0  0  0  0  0
   57.2530   34.1445   46.8811 H   0  0  0  0  0  0  0  0  0  0  0  0
   58.2906   34.0955   49.1446 H   0  0  0  0  0  0  0  0  0  0  0  0
   62.4521   33.5833   51.8896 H   0  0  0  0  0  0  0  0  0  0  0  0
   64.9143   33.2137   51.9327 H   0  0  0  0  0  0  0  0  0  0  0  0
   66.9400   33.1843   51.8559 H   0  0  0  0  0  0  0  0  0  0  0  0
   68.3480   33.0522   50.7483 H   0  0  0  0  0  0  0  0  0  0  0  0
   67.3418   34.5402   50.7483 H   0  0  0  0  0  0  0  0  0  0  0  0
   64.9726   32.9989   47.6085 H   0  0  0  0  0  0  0  0  0  0  0  0
   61.1301   33.4665   45.0766 H   0  0  0  0  0  0  0  0  0  0  0  0
  1  2  1  0
  2  3  1  0
  3  4  1  0
  3  5  1  0
  5  6  1  0
  6  7  1  0
  7  8  1  0
  8  9  2  0
  9 10  1  0
 10 11  2  0
 11 12  1  0
 12 13  2  0
 12 14  1  0
 14 15  2  0
 15 16  1  0
 16 17  2  0
 17 18  1  0
 18 19  1  0
 17 20  1  0
 20 21  2  0
 21 22  1  0
 22 23  1  0
 23 24  2  0
 24  8  1  0
 23 11  1  0
 21 14  1  0
  1 25  1  0
  1 26  1  0
  1 27  1  0
  2 28  1  0
  2 29  1  0
  4 30  1  0
  4 31  1  0
  4 32  1  0
  5 33  1  0
  5 34  1  0
  6 35  1  0
  6 36  1  0
  7 37  1  0
  9 38  1  0
 10 39  1  0
 15 40  1  0
 16 41  1  0
 19 42  1  0
 19 43  1  0
 19 44  1  0
 20 45  1  0
 24 46  1  0
M  END
>  <UniqueID>  (19) 
19

>  <SMILES>  (19) 
CCN(C)CCNc1ccc2c(=O)c3ccc(OC)cc3oc2c1

>  <Energy>  (19) 
54.048928343159226

>  <Genealogy>  (19) 
CCN(C)CCNc1ccc2c(=O)c3ccc(OC)cc3oc2c1 (3D coordinates assigned)
CCN(C)CCNc1ccc2c(=O)c3ccc(OC)cc3oc2c1 (optimized conformer: 54.048928343159226 kcal/mol)

>  <smiles>  (19) 
CCN(C)CCNc1ccc2c(=O)c3ccc(OC)cc3oc2c1

>  <score_type>  (19) 
oracle

>  <origin>  (19) 
adg

>  <m_score__min__energy>  (19) 
-6.9100000000000001

>  <m_primary>  (19) 
energy

$$$$
19:0
     RDKit          3D

 65 68  0  0  0  0  0  0  0  0999 V2000
   63.3690   33.5110   46.4290 C   0  0  0  0  0  0  0  0  0  0  0  0
   63.3790   34.1640   47.8080 C   0  0  0  0  0  0  0  0  0  0  0  0
   62.7640   33.2620   48.7920 N   0  0  0  0  0  0  0  0  0  0  0  0
   63.5750   32.0470   48.9940 C   0  0  0  0  0  0  0  0  0  0  0  0
   62.9940   31.1540   50.1090 C   0  0  0  0  0  0  0  0  0  0  0  0
   61.5300   31.2830   50.2880 N   0  0  0  0  0  0  0  0  0  0  0  0
   60.7600   30.2970   49.5440 C   0  0  0  0  0  0  0  0  0  0  0  0
   60.9260   28.9510   49.9230 C   0  0  0  0  0  0  0  0  0  0  0  0
   60.3590   27.9130   49.2000 C   0  0  0  0  0  0  0  0  0  0  0  0
   59.6550   28.1790   48.0320 C   0  0  0  0  0  0  0  0  0  0  0  0
   59.0710   27.0480   47.2850 C   0  0  0  0  0  0  0  0  0  0  0  0
   59.8990   26.0690   46.7200 C   0  0  0  0  0  0  0  0  0  0  0  0
   59.3450   25.0380   45.9560 C   0  0  0  0  0  0  0  0  0  0  0  0
   57.9630   24.9780   45.7330 C   0  0  0  0  0  0  0  0  0  0  0  0
   57.4620   23.9660   44.8960 O   0  0  0  0  0  0  0  0  0  0  0  0
   57.0460   24.1560   43.5420 C   0  0  0  0  0  0  0  0  0  0  0  0
   55.7800   23.3340   43.2270 C   0  0  0  0  0  0  0  0  0  0  0  0
   56.0260   21.8990   43.4870 N   0  0  0  0  0  0  0  0  0  0  0  0
   55.9030   21.5870   44.9200 C   0  0  0  0  0  0  0  0  0  0  0  0
   57.3600   21.5020   43.0040 C   0  0  0  0  0  0  0  0  0  0  0  0
   57.1320   25.9450   46.3310 C   0  0  0  0  0  0  0  0  0  0  0  0
   57.6840   26.9760   47.0970 C   0  0  0  0  0  0  0  0  0  0  0  0
   59.4820   29.5100   47.6110 C   0  0  0  0  0  0  0  0  0  0  0  0
   58.7160   29.8250   46.1370 S   0  0  0  0  0  0  0  0  0  0  0  0
   58.5860   31.4560   45.8010 C   0  0  0  0  0  0  0  0  0  0  0  0
   58.0280   31.8830   44.5900 C   0  0  0  0  0  0  0  0  0  0  0  0
   57.8870   33.2450   44.3280 C   0  0  0  0  0  0  0  0  0  0  0  0
   58.3010   34.1780   45.2770 C   0  0  0  0  0  0  0  0  0  0  0  0
   58.8570   33.7550   46.4890 C   0  0  0  0  0  0  0  0  0  0  0  0
   59.0210   32.3740   46.7770 C   0  0  0  0  0  0  0  0  0  0  0  0
   59.5930   31.9660   48.0260 C   0  0  0  0  0  0  0  0  0  0  0  0
   59.7310   32.8710   48.8850 O   0  0  0  0  0  0  0  0  0  0  0  0
   59.9530   30.6110   48.3850 C   0  0  0  0  0  0  0  0  0  0  0  0
   63.3522   32.4169   46.5415 H   0  0  0  0  0  0  0  0  0  0  0  0
   62.4757   33.8364   45.8757 H   0  0  0  0  0  0  0  0  0  0  0  0
   64.2718   33.8089   45.8757 H   0  0  0  0  0  0  0  0  0  0  0  0
   64.4172   34.3744   48.1046 H   0  0  0  0  0  0  0  0  0  0  0  0
   62.8065   35.1025   47.7689 H   0  0  0  0  0  0  0  0  0  0  0  0
   61.8300   32.9640   48.4180 H   0  0  0  0  0  0  0  0  0  0  0  0
   63.5999   31.4745   48.0550 H   0  0  0  0  0  0  0  0  0  0  0  0
   64.5874   32.3556   49.2936 H   0  0  0  0  0  0  0  0  0  0  0  0
   63.2208   30.1057   49.8649 H   0  0  0  0  0  0  0  0  0  0  0  0
   63.4580   31.4818   51.0509 H   0  0  0  0  0  0  0  0  0  0  0  0
   61.2850   31.3590   51.2940 H   0  0  0  0  0  0  0  0  0  0  0  0
   61.2610   32.2210   49.9110 H   0  0  0  0  0  0  0  0  0  0  0  0
   61.5220   28.7168   50.8174 H   0  0  0  0  0  0  0  0  0  0  0  0
   60.4667   26.8763   49.5518 H   0  0  0  0  0  0  0  0  0  0  0  0
   60.9868   26.1119   46.8780 H   0  0  0  0  0  0  0  0  0  0  0  0
   60.0002   24.2663   45.5257 H   0  0  0  0  0  0  0  0  0  0  0  0
   56.8312   25.2224   43.3789 H   0  0  0  0  0  0  0  0  0  0  0  0
   57.8552   23.8174   42.8782 H   0  0  0  0  0  0  0  0  0  0  0  0
   54.9529   23.6821   43.8632 H   0  0  0  0  0  0  0  0  0  0  0  0
   55.5195   23.4675   42.1667 H   0  0  0  0  0  0  0  0  0  0  0  0
   56.2427   22.4487   45.5133 H   0  0  0  0  0  0  0  0  0  0  0  0
   54.8516   21.3690   45.1589 H   0  0  0  0  0  0  0  0  0  0  0  0
   56.5227   20.7101   45.1589 H   0  0  0  0  0  0  0  0  0  0  0  0
   58.0179   21.3062   43.8636 H   0  0  0  0  0  0  0  0  0  0  0  0
   57.2729   20.5909   42.3939 H   0  0  0  0  0  0  0  0  0  0  0  0
   57.7853   22.3125   42.3939 H   0  0  0  0  0  0  0  0  0  0  0  0
   56.0419   25.8887   46.1946 H   0  0  0  0  0  0  0  0  0  0  0  0
   57.0283   27.7323   47.5531 H   0  0  0  0  0  0  0  0  0  0  0  0
   57.7006   31.1432   43.8447 H   0  0  0  0  0  0  0  0  0  0  0  0
   57.4507   33.5819   43.3761 H   0  0  0  0  0  0  0  0  0  0  0  0
   58.1899   35.2530   45.0718 H   0  0  0  0  0  0  0  0  0  0  0  0
   59.1721   34.5038   47.2306 H   0  0  0  0  0  0  0  0  0  0  0  0
  1  2  1  0
  2  3  1  0
  3  4  1  0
  4  5  1  0
  5  6  1  0
  6  7  1  0
  7  8  2  0
  8  9  1  0
  9 10  2  0
 10 11  1  0
 11 12  2  0
 12 13  1  0
 13 14  2  0
 14 15  1  0
 15 16  1  0
 16 17  1  0
 17 18  1  0
 18 19  1  0
 18 20  1  0
 14 21  1  0
 21 22  2  0
 10 23  1  0
 23 24  1  0
 24 25  1  0
 25 26  2  0
 26 27  1  0
 27 28  2  0
 28 29  1  0
 29 30  2  0
 30 31  1  0
 31 32  2  0
 31 33  1  0
 33  7  1  0
 22 11  1  0
 33 23  2  0
 30 25  1  0
  1 34  1  0
  1 35  1  0
  1 36  1  0
  2 37  1  0
  2 38  1  0
  3 39  1  0
  4 40  1  0
  4 41  1  0
  5 42  1  0
  5 43  1  0
  6 44  1  0
  6 45  1  0
  8 46  1  0
  9 47  1  0
 12 48  1  0
 13 49  1  0
 16 50  1  0
 16 51  1  0
 17 52  1  0
 17 53  1  0
 19 54  1  0
 19 55  1  0
 19 56  1  0
 20 57  1  0
 20 58  1  0
 20 59  1  0
 21 60  1  0
 22 61  1  0
 26 62  1  0
 27 63  1  0
 28 64  1  0
 29 65  1  0
M  CHG  1   6   1
M  END
>  <UniqueID>  (20) 
20

>  <SMILES>  (20) 
CCNCC[NH2+]c1ccc(-c2ccc(OCCN(C)C)cc2)c2sc3ccccc3c(=O)c12

>  <Energy>  (20) 
101.16527524118419

>  <Genealogy>  (20) 
CCNCC[NH2+]c1ccc(-c2ccc(OCCN(C)C)cc2)c2sc3ccccc3c(=O)c12 (protonated)
CCNCC[NH2+]c1ccc(-c2ccc(OCCN(C)C)cc2)c2sc3ccccc3c(=O)c12 (3D coordinates assigned)
CCNCC[NH2+]c1ccc(-c2ccc(OCCN(C)C)cc2)c2sc3ccccc3c(=O)c12 (optimized conformer: 101.16527524118419 kcal/mol)

>  <smiles>  (20) 
CCNCCNc1ccc(-c2ccc(OCCN(C)C)cc2)c2sc3ccccc3c(=O)c12

>  <score_type>  (20) 
oracle

>  <origin>  (20) 
adg

>  <m_score__min__energy>  (20) 
-7.1900000000000004

>  <m_primary>  (20) 
energy

$$$$
20:0
     RDKit          3D

 66 68  0  0  0  0  0  0  0  0999 V2000
   58.1250   32.9870   47.6760 C   0  0  0  0  0  0  0  0  0  0  0  0
   58.6850   33.2100   46.2650 C   0  0  1  0  0  0  0  0  0  0  0  0
   59.9420   34.1270   46.3240 C   0  0  0  0  0  0  0  0  0  0  0  0
   61.1910   33.6490   47.1300 C   0  0  0  0  0  0  0  0  0  0  0  0
   61.3000   34.1810   48.5850 C   0  0  0  0  0  0  0  0  0  0  0  0
   62.6950   33.9530   49.2100 C   0  0  0  0  0  0  0  0  0  0  0  0
   63.4460   32.7840   48.5600 C   0  0  0  0  0  0  0  0  0  0  0  0
   63.6540   33.0050   47.0480 C   0  0  0  0  0  0  0  0  0  0  0  0
   62.5290   33.8300   46.3840 C   0  0  0  0  0  0  0  0  0  0  0  0
   58.8940   31.8760   45.4900 C   0  0  0  0  0  0  0  0  0  0  0  0
   57.6820   31.0050   45.3730 N   0  0  1  0  0  0  0  0  0  0  0  0
   56.9140   31.2830   44.1220 C   0  0  0  0  0  0  0  0  0  0  0  0
   56.0080   30.1110   43.6940 C   0  0  0  0  0  0  0  0  0  0  0  0
   55.5350   29.3580   44.8540 N   0  0  0  0  0  0  0  0  0  0  0  0
   56.6440   28.7520   45.6130 C   0  0  0  0  0  0  0  0  0  0  0  0
   57.9900   29.5470   45.5120 C   0  0  1  0  0  0  0  0  0  0  0  0
   59.0330   29.0350   44.4350 C   0  0  2  0  0  0  0  0  0  0  0  0
   58.7040   27.6660   43.8070 C   0  0  0  0  0  0  0  0  0  0  0  0
   60.3660   28.9760   45.0710 N   0  0  0  0  0  0  0  0  0  0  0  0
   60.4300   28.0880   46.2380 C   0  0  0  0  0  0  0  0  0  0  0  0
   60.2270   28.9100   47.4800 C   0  0  0  0  0  0  0  0  0  0  0  0
   59.1720   28.6160   48.3580 C   0  0  0  0  0  0  0  0  0  0  0  0
   58.9370   29.4270   49.4730 C   0  0  0  0  0  0  0  0  0  0  0  0
   59.7460   30.5420   49.7110 C   0  0  0  0  0  0  0  0  0  0  0  0
   60.7900   30.8480   48.8350 C   0  0  0  0  0  0  0  0  0  0  0  0
   61.0280   30.0400   47.7190 C   0  0  0  0  0  0  0  0  0  0  0  0
   58.8772   33.2865   48.4206 H   0  0  0  0  0  0  0  0  0  0  0  0
   57.2159   33.5917   47.8095 H   0  0  0  0  0  0  0  0  0  0  0  0
   57.8804   31.9229   47.8095 H   0  0  0  0  0  0  0  0  0  0  0  0
   57.9347   33.7478   45.6668 H   0  0  0  0  0  0  0  0  0  0  0  0
   60.2708   34.2903   45.2871 H   0  0  0  0  0  0  0  0  0  0  0  0
   59.5959   35.0136   46.8755 H   0  0  0  0  0  0  0  0  0  0  0  0
   60.9971   32.5699   47.2186 H   0  0  0  0  0  0  0  0  0  0  0  0
   61.0908   35.2609   48.5797 H   0  0  0  0  0  0  0  0  0  0  0  0
   60.5724   33.6241   49.1937 H   0  0  0  0  0  0  0  0  0  0  0  0
   63.2915   34.8687   49.0849 H   0  0  0  0  0  0  0  0  0  0  0  0
   62.5492   33.7073   50.2722 H   0  0  0  0  0  0  0  0  0  0  0  0
   64.4288   32.6800   49.0429 H   0  0  0  0  0  0  0  0  0  0  0  0
   62.8416   31.8744   48.6920 H   0  0  0  0  0  0  0  0  0  0  0  0
   64.6068   33.5348   46.9016 H   0  0  0  0  0  0  0  0  0  0  0  0
   63.6504   32.0128   46.5730 H   0  0  0  0  0  0  0  0  0  0  0  0
   62.8074   34.8941   46.3992 H   0  0  0  0  0  0  0  0  0  0  0  0
   62.4020   33.4775   45.3498 H   0  0  0  0  0  0  0  0  0  0  0  0
   59.2334   32.1236   44.4734 H   0  0  0  0  0  0  0  0  0  0  0  0
   59.6272   31.2987   46.0723 H   0  0  0  0  0  0  0  0  0  0  0  0
   57.0490   31.2380   46.1720 H   0  0  0  0  0  0  0  0  0  0  0  0
   56.2843   32.1696   44.2878 H   0  0  0  0  0  0  0  0  0  0  0  0
   57.6462   31.4419   43.3167 H   0  0  0  0  0  0  0  0  0  0  0  0
   55.1409   30.5091   43.1467 H   0  0  0  0  0  0  0  0  0  0  0  0
   56.5930   29.4341   43.0541 H   0  0  0  0  0  0  0  0  0  0  0  0
   55.0050   30.0120   45.4790 H   0  0  0  0  0  0  0  0  0  0  0  0
   56.3512   28.6995   46.6720 H   0  0  0  0  0  0  0  0  0  0  0  0
   56.8256   27.7591   45.1759 H   0  0  0  0  0  0  0  0  0  0  0  0
   58.5295   29.3566   46.4515 H   0  0  0  0  0  0  0  0  0  0  0  0
   58.9973   29.7521   43.6017 H   0  0  0  0  0  0  0  0  0  0  0  0
   58.5270   26.9296   44.6048 H   0  0  0  0  0  0  0  0  0  0  0  0
   57.8018   27.7557   43.1841 H   0  0  0  0  0  0  0  0  0  0  0  0
   59.5484   27.3359   43.1841 H   0  0  0  0  0  0  0  0  0  0  0  0
   60.6950   29.9340   45.3380 H   0  0  0  0  0  0  0  0  0  0  0  0
   59.6412   27.3247   46.1661 H   0  0  0  0  0  0  0  0  0  0  0  0
   61.4089   27.5876   46.2753 H   0  0  0  0  0  0  0  0  0  0  0  0
   58.5278   27.7447   48.1685 H   0  0  0  0  0  0  0  0  0  0  0  0
   58.1148   29.1873   50.1633 H   0  0  0  0  0  0  0  0  0  0  0  0
   59.5603   31.1787   50.5886 H   0  0  0  0  0  0  0  0  0  0  0  0
   61.4257   31.7257   49.0233 H   0  0  0  0  0  0  0  0  0  0  0  0
   61.8448   30.2895   47.0258 H   0  0  0  0  0  0  0  0  0  0  0  0
  1  2  1  0
  2  3  1  0
  3  4  1  0
  4  5  1  0
  5  6  1  0
  6  7  1  0
  7  8  1  0
  8  9  1  0
  2 10  1  0
 10 11  1  0
 11 12  1  0
 12 13  1  0
 13 14  1  0
 14 15  1  0
 15 16  1  0
 16 17  1  0
 17 18  1  0
 17 19  1  0
 19 20  1  0
 20 21  1  0
 21 22  2  0
 22 23  1  0
 23 24  2  0
 24 25  1  0
 25 26  2  0
  9  4  1  0
 16 11  1  0
 26 21  1  0
  1 27  1  0
  1 28  1  0
  1 29  1  0
  2 30  1  6
  3 31  1  0
  3 32  1  0
  4 33  1  0
  5 34  1  0
  5 35  1  0
  6 36  1  0
  6 37  1  0
  7 38  1  0
  7 39  1  0
  8 40  1  0
  8 41  1  0
  9 42  1  0
  9 43  1  0
 10 44  1  0
 10 45  1  0
 11 46  1  1
 12 47  1  0
 12 48  1  0
 13 49  1  0
 13 50  1  0
 14 51  1  0
 15 52  1  0
 15 53  1  0
 16 54  1  1
 17 55  1  6
 18 56  1  0
 18 57  1  0
 18 58  1  0
 19 59  1  0
 20 60  1  0
 20 61  1  0
 22 62  1  0
 23 63  1  0
 24 64  1  0
 25 65  1  0
 26 66  1  0
M  CHG  1  11   1
M  END
>  <UniqueID>  (21) 
21

>  <SMILES>  (21) 
CC(NCc1ccccc1)C1CNCC[N@@H+]1C[C@@H](C)CC1CCCCC1

>  <Energy>  (21) 
90.73814664990051

>  <Genealogy>  (21) 
CC(CC1CCCCC1)C[NH+]1CCNCC1C(C)NCc1ccccc1 (protonated)
CC(NCc1ccccc1)C1CNCC[N@@H+]1C[C@@H](C)CC1CCCCC1 (chirality)
CC(NCc1ccccc1)C1CNCC[N@@H+]1C[C@@H](C)CC1CCCCC1 (3D coordinates assigned)
CC(NCc1ccccc1)C1CNCC[N@@H+]1C[C@@H](C)CC1CCCCC1 (nonaromatic ring conformer: 90.73814664990051 kcal/mol)

>  <smiles>  (21) 
CC(CC1CCCCC1)CN1CCNCC1C(C)NCc1ccccc1

>  <score_type>  (21) 
oracle

>  <origin>  (21) 
adg

>  <m_score__min__energy>  (21) 
-7.4000000000000004

>  <m_primary>  (21) 
energy

$$$$
21:0
     RDKit          3D

 58 61  0  0  0  0  0  0  0  0999 V2000
   57.9260   32.3280   42.6820 C   0  0  0  0  0  0  0  0  0  0  0  0
   57.4920   32.0720   44.0610 N   0  0  0  0  0  0  0  0  0  0  0  0
   56.9910   33.1830   44.8830 C   0  0  0  0  0  0  0  0  0  0  0  0
   58.0630   33.6580   45.8260 C   0  0  0  0  0  0  0  0  0  0  0  0
   59.0630   34.5320   45.3700 C   0  0  0  0  0  0  0  0  0  0  0  0
   60.0470   34.9970   46.2490 C   0  0  0  0  0  0  0  0  0  0  0  0
   60.0370   34.5950   47.5870 C   0  0  0  0  0  0  0  0  0  0  0  0
   59.0410   33.7300   48.0500 C   0  0  0  0  0  0  0  0  0  0  0  0
   58.0560   33.2630   47.1750 C   0  0  0  0  0  0  0  0  0  0  0  0
   57.5320   30.7340   44.6060 C   0  0  0  0  0  0  0  0  0  0  0  0
   56.4530   30.1450   44.8930 O   0  0  0  0  0  0  0  0  0  0  0  0
   58.8510   30.0320   44.8450 C   0  0  0  0  0  0  0  0  0  0  0  0
   58.7440   28.5060   44.7390 C   0  0  0  0  0  0  0  0  0  0  0  0
   59.1080   27.7330   46.3060 S   0  0  0  0  0  0  0  0  0  0  0  0
   57.8930   27.0120   46.8180 O   0  0  0  0  0  0  0  0  0  0  0  0
   60.2250   26.7400   46.1390 O   0  0  0  0  0  0  0  0  0  0  0  0
   59.5870   28.9740   47.4580 C   0  0  0  0  0  0  0  0  0  0  0  0
   58.8610   29.1400   48.6610 C   0  0  0  0  0  0  0  0  0  0  0  0
   59.2220   30.1360   49.5860 C   0  0  0  0  0  0  0  0  0  0  0  0
   60.3070   30.9590   49.2760 C   0  0  0  0  0  0  0  0  0  0  0  0
   61.0080   30.7980   48.1030 C   0  0  0  0  0  0  0  0  0  0  0  0
   60.6790   29.8180   47.1700 C   0  0  0  0  0  0  0  0  0  0  0  0
   62.0180   31.7360   48.1090 C   0  0  0  0  0  0  0  0  0  0  0  0
   61.9080   32.4060   49.3170 C   0  0  0  0  0  0  0  0  0  0  0  0
   60.8350   31.9590   50.0180 N   0  0  0  0  0  0  0  0  0  0  0  0
   60.4060   32.3910   51.3470 C   0  0  0  0  0  0  0  0  0  0  0  0
   62.8300   33.5250   49.7180 C   0  0  0  0  0  0  0  0  0  0  0  0
   64.1250   33.4950   48.8820 C   0  0  0  0  0  0  0  0  0  0  0  0
   63.8340   33.2820   47.3830 C   0  0  0  0  0  0  0  0  0  0  0  0
   63.1330   31.9360   47.1280 C   0  0  0  0  0  0  0  0  0  0  0  0
   58.8734   32.8868   42.6935 H   0  0  0  0  0  0  0  0  0  0  0  0
   58.0712   31.3709   42.1596 H   0  0  0  0  0  0  0  0  0  0  0  0
   57.1586   32.9181   42.1596 H   0  0  0  0  0  0  0  0  0  0  0  0
   56.6905   34.0133   44.2270 H   0  0  0  0  0  0  0  0  0  0  0  0
   56.1274   32.8346   45.4685 H   0  0  0  0  0  0  0  0  0  0  0  0
   59.0727   34.8522   44.3177 H   0  0  0  0  0  0  0  0  0  0  0  0
   60.8294   35.6799   45.8863 H   0  0  0  0  0  0  0  0  0  0  0  0
   60.8130   34.9592   48.2764 H   0  0  0  0  0  0  0  0  0  0  0  0
   59.0325   33.4165   49.1043 H   0  0  0  0  0  0  0  0  0  0  0  0
   57.2728   32.5841   47.5433 H   0  0  0  0  0  0  0  0  0  0  0  0
   59.5769   30.3855   44.0979 H   0  0  0  0  0  0  0  0  0  0  0  0
   59.1697   30.2696   45.8707 H   0  0  0  0  0  0  0  0  0  0  0  0
   57.7223   28.2368   44.4331 H   0  0  0  0  0  0  0  0  0  0  0  0
   59.4729   28.1529   43.9947 H   0  0  0  0  0  0  0  0  0  0  0  0
   58.0051   28.4830   48.8751 H   0  0  0  0  0  0  0  0  0  0  0  0
   58.6659   30.2632   50.5265 H   0  0  0  0  0  0  0  0  0  0  0  0
   61.2527   29.7060   46.2382 H   0  0  0  0  0  0  0  0  0  0  0  0
   60.9628   31.8303   52.1123 H   0  0  0  0  0  0  0  0  0  0  0  0
   60.6035   33.4667   51.4644 H   0  0  0  0  0  0  0  0  0  0  0  0
   59.3289   32.2010   51.4644 H   0  0  0  0  0  0  0  0  0  0  0  0
   62.3203   34.4867   49.5586 H   0  0  0  0  0  0  0  0  0  0  0  0
   63.0929   33.4016   50.7790 H   0  0  0  0  0  0  0  0  0  0  0  0
   64.6535   34.4512   49.0097 H   0  0  0  0  0  0  0  0  0  0  0  0
   64.7397   32.6534   49.2339 H   0  0  0  0  0  0  0  0  0  0  0  0
   63.1854   34.0956   47.0261 H   0  0  0  0  0  0  0  0  0  0  0  0
   64.7926   33.2785   46.8434 H   0  0  0  0  0  0  0  0  0  0  0  0
   62.7238   31.9277   46.1070 H   0  0  0  0  0  0  0  0  0  0  0  0
   63.8646   31.1233   47.2475 H   0  0  0  0  0  0  0  0  0  0  0  0
  1  2  1  0
  2  3  1  0
  3  4  1  0
  4  5  2  0
  5  6  1  0
  6  7  2  0
  7  8  1  0
  8  9  2  0
  2 10  1  0
 10 11  2  0
 10 12  1  0
 12 13  1  0
 13 14  1  0
 14 15  2  0
 14 16  2  0
 14 17  1  0
 17 18  2  0
 18 19  1  0
 19 20  2  0
 20 21  1  0
 21 22  2  0
 21 23  1  0
 23 24  2  0
 24 25  1  0
 25 26  1  0
 24 27  1  0
 27 28  1  0
 28 29  1  0
 29 30  1  0
  9  4  1  0
 22 17  1  0
 30 23  1  0
 25 20  1  0
  1 31  1  0
  1 32  1  0
  1 33  1  0
  3 34  1  0
  3 35  1  0
  5 36  1  0
  6 37  1  0
  7 38  1  0
  8 39  1  0
  9 40  1  0
 12 41  1  0
 12 42  1  0
 13 43  1  0
 13 44  1  0
 18 45  1  0
 19 46  1  0
 22 47  1  0
 26 48  1  0
 26 49  1  0
 26 50  1  0
 27 51  1  0
 27 52  1  0
 28 53  1  0
 28 54  1  0
 29 55  1  0
 29 56  1  0
 30 57  1  0
 30 58  1  0
M  END
>  <UniqueID>  (22) 
22

>  <SMILES>  (22) 
CN(Cc1ccccc1)C(=O)CCS(=O)(=O)c1ccc2c(c1)c1c(n2C)CCCC1

>  <Energy>  (22) 
87.36598043776728

>  <Genealogy>  (22) 
CN(Cc1ccccc1)C(=O)CCS(=O)(=O)c1ccc2c(c1)c1c(n2C)CCCC1 (3D coordinates assigned)
CN(Cc1ccccc1)C(=O)CCS(=O)(=O)c1ccc2c(c1)c1c(n2C)CCCC1 (nonaromatic ring conformer: 87.36598043776728 kcal/mol)

>  <smiles>  (22) 
CN(Cc1ccccc1)C(=O)CCS(=O)(=O)c1ccc2c(c1)c1c(n2C)CCCC1

>  <score_type>  (22) 
oracle

>  <origin>  (22) 
adg

>  <m_score__min__energy>  (22) 
-9.8499999999999996

>  <m_primary>  (22) 
energy

$$$$
22:0
     RDKit          3D

 43 46  0  0  0  0  0  0  0  0999 V2000
   57.5628   34.7972   46.5075 H   0  0  0  0  0  0  0  0  0  0  0  0
   57.9710   33.8030   46.2730 C   0  0  0  0  0  0  0  0  0  0  0  0
   57.1950   32.8880   45.5570 C   0  0  0  0  0  0  0  0  0  0  0  0
   56.1824   33.1690   45.2318 H   0  0  0  0  0  0  0  0  0  0  0  0
   57.6970   31.6100   45.2480 C   0  0  0  0  0  0  0  0  0  0  0  0
   56.8580   30.6440   44.4890 C   0  0  0  0  0  0  0  0  0  0  0  0
   56.0460   29.9010   45.1070 O   0  0  0  0  0  0  0  0  0  0  0  0
   56.9420   30.5230   42.9960 C   0  0  0  0  0  0  0  0  0  0  0  0
   57.5511   29.6456   42.7329 H   0  0  0  0  0  0  0  0  0  0  0  0
   55.9305   30.4051   42.5802 H   0  0  0  0  0  0  0  0  0  0  0  0
   57.4060   31.4295   42.5802 H   0  0  0  0  0  0  0  0  0  0  0  0
   58.9980   31.2770   45.6740 C   0  0  0  0  0  0  0  0  0  0  0  0
   59.4089   30.2830   45.4435 H   0  0  0  0  0  0  0  0  0  0  0  0
   59.7720   32.1980   46.3870 C   0  0  0  0  0  0  0  0  0  0  0  0
   60.7878   31.9244   46.7085 H   0  0  0  0  0  0  0  0  0  0  0  0
   59.2630   33.4670   46.6950 C   0  0  0  0  0  0  0  0  0  0  0  0
   60.2180   34.6980   47.6160 S   0  0  0  0  0  0  0  0  0  0  0  0
   60.8810   33.5830   48.8800 C   0  0  0  0  0  0  0  0  0  0  0  0
   62.1570   33.1360   48.8360 C   0  0  0  0  0  0  0  0  0  0  0  0
   62.9720   32.3850   50.2650 S   0  0  0  0  0  0  0  0  0  0  0  0
   64.5450   32.6770   49.4540 C   0  0  0  0  0  0  0  0  0  0  0  0
   65.9660   32.2520   50.1400 S   0  0  0  0  0  0  0  0  0  0  0  0
   64.4650   33.1290   48.1120 N   0  0  0  0  0  0  0  0  0  0  0  0
   65.2810   33.2370   47.4700 H   0  0  0  0  0  0  0  0  0  0  0  0
   63.1170   33.3520   47.7430 C   0  0  0  0  0  0  0  0  0  0  0  0
   62.7930   33.6080   46.5540 O   0  0  0  0  0  0  0  0  0  0  0  0
   59.9160   32.9520   49.8280 C   0  0  0  0  0  0  0  0  0  0  0  0
   59.1920   33.8480   51.0750 S   0  0  0  0  0  0  0  0  0  0  0  0
   58.3620   32.5370   51.6860 C   0  0  0  0  0  0  0  0  0  0  0  0
   57.4740   32.5100   52.7570 C   0  0  0  0  0  0  0  0  0  0  0  0
   57.2624   33.4196   53.3382 H   0  0  0  0  0  0  0  0  0  0  0  0
   56.8570   31.2940   53.0750 C   0  0  0  0  0  0  0  0  0  0  0  0
   56.1564   31.2396   53.9213 H   0  0  0  0  0  0  0  0  0  0  0  0
   57.1300   30.1420   52.3160 C   0  0  0  0  0  0  0  0  0  0  0  0
   56.6362   29.1924   52.5699 H   0  0  0  0  0  0  0  0  0  0  0  0
   58.0280   30.1930   51.2360 C   0  0  0  0  0  0  0  0  0  0  0  0
   58.2333   29.2919   50.6394 H   0  0  0  0  0  0  0  0  0  0  0  0
   58.6620   31.4130   50.9270 C   0  0  0  0  0  0  0  0  0  0  0  0
   59.5610   31.6270   49.9100 N   0  0  0  0  0  0  0  0  0  0  0  0
   59.9750   30.5760   48.9740 C   0  0  0  0  0  0  0  0  0  0  0  0
   60.3210   29.6977   49.5386 H   0  0  0  0  0  0  0  0  0  0  0  0
   59.1216   30.2920   48.3408 H   0  0  0  0  0  0  0  0  0  0  0  0
   60.7929   30.9503   48.3408 H   0  0  0  0  0  0  0  0  0  0  0  0
  1  2  1  0
  2  3  2  0
  3  4  1  0
  3  5  1  0
  5  6  1  0
  6  7  2  0
  6  8  1  0
  8  9  1  0
  8 10  1  0
  8 11  1  0
  5 12  2  0
 12 13  1  0
 12 14  1  0
 14 15  1  0
 14 16  2  0
 16 17  1  0
 17 18  1  0
 18 19  2  0
 19 20  1  0
 20 21  1  0
 21 22  2  0
 21 23  1  0
 23 24  1  0
 23 25  1  0
 25 26  2  0
 18 27  1  0
 27 28  1  0
 28 29  1  0
 29 30  2  0
 30 31  1  0
 30 32  1  0
 32 33  1  0
 32 34  2  0
 34 35  1  0
 34 36  1  0
 36 37  1  0
 36 38  2  0
 38 39  1  0
 39 40  1  0
 40 41  1  0
 40 42  1  0
 40 43  1  0
 16  2  1  0
 25 19  1  0
 39 27  2  0
 38 29  1  0
M  CHG  1  39   1
M  END
>  <UniqueID>  (23) 
23

>  <SMILES>  (23) 
CC(=O)c1ccc(S/C(=C2/SC(=S)NC2=O)c2sc3ccccc3[n+]2C)cc1

>  <Energy>  (23) 
121.14438813401405

>  <Genealogy>  (23) 
CC(=O)c1ccc(S/C(=C2/SC(=S)NC2=O)c2sc3ccccc3[n+]2C)cc1 (cis-trans isomerization)
CC(=O)c1ccc(S/C(=C2/SC(=S)NC2=O)c2sc3ccccc3[n+]2C)cc1 (3D coordinates assigned)
CC(=O)c1ccc(S/C(=C2/SC(=S)NC2=O)c2sc3ccccc3[n+]2C)cc1 (nonaromatic ring conformer: 121.14438813401405 kcal/mol)

>  <smiles>  (23) 
CC(=O)c1ccc(SC(=C2SC(=S)NC2=O)c2sc3ccccc3[n+]2C)cc1

>  <score_type>  (23) 
oracle

>  <origin>  (23) 
adg

>  <m_score__min__energy>  (23) 
-8.5299999999999994

>  <m_primary>  (23) 
energy

$$$$
23:0
     RDKit          3D

 45 47  0  0  0  0  0  0  0  0999 V2000
   63.3860   33.5310   46.7290 C   0  0  0  0  0  0  0  0  0  0  0  0
   63.6160   32.3660   47.6900 C   0  0  0  0  0  0  0  0  0  0  0  0
   62.4020   32.0820   48.4680 N   0  0  0  0  0  0  0  0  0  0  0  0
   61.9340   33.2960   49.1590 C   0  0  0  0  0  0  0  0  0  0  0  0
   60.5050   33.6700   48.7370 C   0  0  0  0  0  0  0  0  0  0  0  0
   59.6580   32.4810   48.6240 N   0  0  0  0  0  0  0  0  0  0  0  0
   59.2990   31.9320   47.3470 C   0  0  0  0  0  0  0  0  0  0  0  0
   58.7740   32.7720   46.3760 C   0  0  0  0  0  0  0  0  0  0  0  0
   58.6070   34.4450   46.4360 S   0  0  0  0  0  0  0  0  0  0  0  0
   57.8980   34.5910   44.9170 C   0  0  0  0  0  0  0  0  0  0  0  0
   57.7760   33.3240   44.3530 C   0  0  0  0  0  0  0  0  0  0  0  0
   58.2560   32.2920   45.1890 C   0  0  0  0  0  0  0  0  0  0  0  0
   58.2230   30.9440   44.9280 N   0  0  0  0  0  0  0  0  0  0  0  0
   57.5130   30.4370   43.7360 C   0  0  0  0  0  0  0  0  0  0  0  0
   58.8770   30.0750   45.7930 C   0  0  0  0  0  0  0  0  0  0  0  0
   59.0330   28.7060   45.4750 C   0  0  0  0  0  0  0  0  0  0  0  0
   59.6880   27.8350   46.3380 C   0  0  0  0  0  0  0  0  0  0  0  0
   60.2440   28.3020   47.5190 C   0  0  0  0  0  0  0  0  0  0  0  0
   60.1610   29.6610   47.8660 C   0  0  0  0  0  0  0  0  0  0  0  0
   60.8200   30.1440   49.0100 O   0  0  0  0  0  0  0  0  0  0  0  0
   60.9660   29.4330   50.2340 C   0  0  0  0  0  0  0  0  0  0  0  0
   59.4380   30.5550   47.0280 C   0  0  0  0  0  0  0  0  0  0  0  0
   63.2044   34.4507   47.3045 H   0  0  0  0  0  0  0  0  0  0  0  0
   64.2751   33.6646   46.0952 H   0  0  0  0  0  0  0  0  0  0  0  0
   62.5128   33.3166   46.0952 H   0  0  0  0  0  0  0  0  0  0  0  0
   63.8913   31.4713   47.1123 H   0  0  0  0  0  0  0  0  0  0  0  0
   64.4241   32.6375   48.3852 H   0  0  0  0  0  0  0  0  0  0  0  0
   61.6500   31.7450   47.8210 H   0  0  0  0  0  0  0  0  0  0  0  0
   62.6150   31.3360   49.1670 H   0  0  0  0  0  0  0  0  0  0  0  0
   61.9509   33.1182   50.2444 H   0  0  0  0  0  0  0  0  0  0  0  0
   62.6021   34.1265   48.8871 H   0  0  0  0  0  0  0  0  0  0  0  0
   60.0743   34.3472   49.4893 H   0  0  0  0  0  0  0  0  0  0  0  0
   60.5494   34.1608   47.7536 H   0  0  0  0  0  0  0  0  0  0  0  0
   59.6070   31.8530   49.4590 H   0  0  0  0  0  0  0  0  0  0  0  0
   57.5824   35.5338   44.4463 H   0  0  0  0  0  0  0  0  0  0  0  0
   57.3483   33.1446   43.3555 H   0  0  0  0  0  0  0  0  0  0  0  0
   56.6557   29.8248   44.0526 H   0  0  0  0  0  0  0  0  0  0  0  0
   57.1554   31.2852   43.1339 H   0  0  0  0  0  0  0  0  0  0  0  0
   58.1992   29.8234   43.1339 H   0  0  0  0  0  0  0  0  0  0  0  0
   58.6283   28.3230   44.5266 H   0  0  0  0  0  0  0  0  0  0  0  0
   59.7657   26.7680   46.0821 H   0  0  0  0  0  0  0  0  0  0  0  0
   60.7566   27.5998   48.1929 H   0  0  0  0  0  0  0  0  0  0  0  0
   60.8242   30.1236   51.0784 H   0  0  0  0  0  0  0  0  0  0  0  0
   60.2135   28.6322   50.2849 H   0  0  0  0  0  0  0  0  0  0  0  0
   61.9731   28.9936   50.2849 H   0  0  0  0  0  0  0  0  0  0  0  0
  1  2  1  0
  2  3  1  0
  3  4  1  0
  4  5  1  0
  5  6  1  0
  6  7  1  0
  7  8  2  0
  8  9  1  0
  9 10  1  0
 10 11  2  0
 11 12  1  0
 12 13  2  0
 13 14  1  0
 13 15  1  0
 15 16  2  0
 16 17  1  0
 17 18  2  0
 18 19  1  0
 19 20  1  0
 20 21  1  0
 19 22  2  0
 22  7  1  0
 12  8  1  0
 22 15  1  0
  1 23  1  0
  1 24  1  0
  1 25  1  0
  2 26  1  0
  2 27  1  0
  3 28  1  0
  3 29  1  0
  4 30  1  0
  4 31  1  0
  5 32  1  0
  5 33  1  0
  6 34  1  0
 10 35  1  0
 11 36  1  0
 14 37  1  0
 14 38  1  0
 14 39  1  0
 16 40  1  0
 17 41  1  0
 18 42  1  0
 21 43  1  0
 21 44  1  0
 21 45  1  0
M  CHG  2   3   1  13   1
M  END
>  <UniqueID>  (24) 
24

>  <SMILES>  (24) 
CC[NH2+]CCNc1c2sccc2[n+](C)c2cccc(OC)c12

>  <Energy>  (24) 
91.3465149334545

>  <Genealogy>  (24) 
CC[NH2+]CCNc1c2sccc2[n+](C)c2cccc(OC)c12 (protonated)
CC[NH2+]CCNc1c2sccc2[n+](C)c2cccc(OC)c12 (3D coordinates assigned)
CC[NH2+]CCNc1c2sccc2[n+](C)c2cccc(OC)c12 (optimized conformer: 91.3465149334545 kcal/mol)

>  <smiles>  (24) 
CCNCCNc1c2sccc2[n+](C)c2cccc(OC)c12

>  <score_type>  (24) 
oracle

>  <origin>  (24) 
adg

>  <m_score__min__energy>  (24) 
-2.7599999999999998

>  <m_primary>  (24) 
energy

$$$$
