0:0
     RDKit          3D

 39 41  0  0  0  0  0  0  0  0999 V2000
   57.8770   34.5680   44.9290 C   0  0  0  0  0  0  0  0  0  0  0  0
   59.2860   33.9860   45.0010 C   0  0  0  0  0  0  0  0  0  0  0  0
   59.2620   32.6620   45.6270 N   0  0  0  0  0  0  0  0  0  0  0  0
   59.9590   32.1860   46.6930 C   0  0  0  0  0  0  0  0  0  0  0  0
   60.9660   32.9140   47.4940 C   0  0  0  0  0  0  0  0  0  0  0  0
   60.7650   33.6940   48.6310 C   0  0  0  0  0  0  0  0  0  0  0  0
   61.9530   34.1930   49.1800 C   0  0  0  0  0  0  0  0  0  0  0  0
   63.0950   33.8000   48.4960 C   0  0  0  0  0  0  0  0  0  0  0  0
   62.6230   32.8280   47.2130 S   0  0  0  0  0  0  0  0  0  0  0  0
   59.6590   30.8920   46.9350 N   0  0  0  0  0  0  0  0  0  0  0  0
   58.7510   30.5430   46.0400 N   0  0  0  0  0  0  0  0  0  0  0  0
   58.5130   31.6030   45.2540 C   0  0  0  0  0  0  0  0  0  0  0  0
   57.3330   31.5900   43.8990 S   0  0  0  0  0  0  0  0  0  0  0  0
   57.2550   29.7700   43.7760 C   0  0  0  0  0  0  0  0  0  0  0  0
   56.4160   29.2040   44.8860 C   0  0  0  0  0  0  0  0  0  0  0  0
   55.1670   29.3590   44.8440 O   0  0  0  0  0  0  0  0  0  0  0  0
   56.9770   28.4290   45.9550 N   0  0  0  0  0  0  0  0  0  0  0  0
   57.1470   27.0070   45.9590 C   0  0  0  0  0  0  0  0  0  0  0  0
   56.0080   26.1950   46.0220 C   0  0  0  0  0  0  0  0  0  0  0  0
   56.1320   24.8020   46.0330 C   0  0  0  0  0  0  0  0  0  0  0  0
   57.3970   24.2140   46.0020 C   0  0  0  0  0  0  0  0  0  0  0  0
   58.5410   25.0150   45.9850 C   0  0  0  0  0  0  0  0  0  0  0  0
   58.4270   26.4110   45.9780 C   0  0  0  0  0  0  0  0  0  0  0  0
   60.0330   27.4530   46.0900 Br  0  0  0  0  0  0  0  0  0  0  0  0
   57.4933   34.7265   45.9476 H   0  0  0  0  0  0  0  0  0  0  0  0
   57.9040   35.5286   44.3937 H   0  0  0  0  0  0  0  0  0  0  0  0
   57.2182   33.8684   44.3937 H   0  0  0  0  0  0  0  0  0  0  0  0
   59.6939   33.8980   43.9832 H   0  0  0  0  0  0  0  0  0  0  0  0
   59.9168   34.6543   45.6055 H   0  0  0  0  0  0  0  0  0  0  0  0
   59.7710   33.8978   49.0557 H   0  0  0  0  0  0  0  0  0  0  0  0
   61.9786   34.8371   50.0713 H   0  0  0  0  0  0  0  0  0  0  0  0
   64.1285   34.0774   48.7507 H   0  0  0  0  0  0  0  0  0  0  0  0
   58.3130   29.5980   45.9710 H   0  0  0  0  0  0  0  0  0  0  0  0
   56.8118   29.4911   42.8087 H   0  0  0  0  0  0  0  0  0  0  0  0
   58.2740   29.3636   43.8570 H   0  0  0  0  0  0  0  0  0  0  0  0
   55.0098   26.6554   46.0631 H   0  0  0  0  0  0  0  0  0  0  0  0
   55.2323   24.1700   46.0661 H   0  0  0  0  0  0  0  0  0  0  0  0
   57.4934   23.1183   45.9909 H   0  0  0  0  0  0  0  0  0  0  0  0
   59.5365   24.5472   45.9771 H   0  0  0  0  0  0  0  0  0  0  0  0
  1  2  1  0
  2  3  1  0
  3  4  1  0
  4  5  1  0
  5  6  2  0
  6  7  1  0
  7  8  2  0
  8  9  1  0
  4 10  2  0
 10 11  1  0
 11 12  2  0
 12 13  1  0
 13 14  1  0
 14 15  1  0
 15 16  2  0
 15 17  1  0
 17 18  1  0
 18 19  2  0
 19 20  1  0
 20 21  2  0
 21 22  1  0
 22 23  2  0
 23 24  1  0
 12  3  1  0
 23 18  1  0
  9  5  1  0
  1 25  1  0
  1 26  1  0
  1 27  1  0
  2 28  1  0
  2 29  1  0
  6 30  1  0
  7 31  1  0
  8 32  1  0
 11 33  1  0
 14 34  1  0
 14 35  1  0
 19 36  1  0
 20 37  1  0
 21 38  1  0
 22 39  1  0
M  CHG  2  11   1  17  -1
M  END
>  <UniqueID>  (1) 
1

>  <SMILES>  (1) 
CCn1c(-c2cccs2)n[nH+]c1SCC(=O)[N-]c1ccccc1Br

>  <Energy>  (1) 
102.30494711477293

>  <Genealogy>  (1) 
CCn1c(-c2cccs2)n[nH+]c1SCC(=O)[N-]c1ccccc1Br (protonated)
CCn1c(-c2cccs2)n[nH+]c1SCC(=O)[N-]c1ccccc1Br (3D coordinates assigned)
CCn1c(-c2cccs2)n[nH+]c1SCC(=O)[N-]c1ccccc1Br (optimized conformer: 102.30494711477293 kcal/mol)

>  <smiles>  (1) 
CCn1c(SCC(=O)Nc2ccccc2Br)nnc1-c1cccs1

>  <score_type>  (1) 
oracle

>  <origin>  (1) 
adg

>  <m_score__min__energy>  (1) 
-8.6899999999999995

>  <m_primary>  (1) 
energy

$$$$
1:0
     RDKit          3D

 50 51  0  0  0  0  0  0  0  0999 V2000
   57.3860   25.1430   44.3540 C   0  0  0  0  0  0  0  0  0  0  0  0
   56.5850   25.3060   45.6410 C   0  0  0  0  0  0  0  0  0  0  0  0
   56.1990   26.6670   45.8300 O   0  0  0  0  0  0  0  0  0  0  0  0
   57.0750   27.7550   45.9860 C   0  0  0  0  0  0  0  0  0  0  0  0
   58.3130   27.6420   46.6450 C   0  0  0  0  0  0  0  0  0  0  0  0
   59.1480   28.7580   46.7860 C   0  0  0  0  0  0  0  0  0  0  0  0
   60.4340   28.6390   47.5620 C   0  0  0  0  0  0  0  0  0  0  0  0
   60.6100   29.7970   48.4550 N   0  0  0  0  0  0  0  0  0  0  0  0
   61.5070   30.8200   47.8880 C   0  0  0  0  0  0  0  0  0  0  0  0
   60.7940   32.1350   47.7080 C   0  0  0  0  0  0  0  0  0  0  0  0
   61.2350   33.0660   46.7570 C   0  0  0  0  0  0  0  0  0  0  0  0
   60.5390   34.2640   46.5760 C   0  0  0  0  0  0  0  0  0  0  0  0
   59.4160   34.5270   47.3640 C   0  0  0  0  0  0  0  0  0  0  0  0
   59.0130   33.6240   48.2970 N   0  0  0  0  0  0  0  0  0  0  0  0
   59.6700   32.4500   48.4880 C   0  0  0  0  0  0  0  0  0  0  0  0
   58.7550   29.9900   46.2450 C   0  0  0  0  0  0  0  0  0  0  0  0
   57.5140   30.1230   45.5970 C   0  0  0  0  0  0  0  0  0  0  0  0
   57.0770   31.3450   45.0550 O   0  0  0  0  0  0  0  0  0  0  0  0
   57.9110   32.3510   44.4810 C   0  0  0  0  0  0  0  0  0  0  0  0
   57.4300   33.7420   44.8750 C   0  0  0  0  0  0  0  0  0  0  0  0
   56.6740   29.0020   45.4850 C   0  0  0  0  0  0  0  0  0  0  0  0
   55.4290   29.1100   44.8550 O   0  0  0  0  0  0  0  0  0  0  0  0
   55.2700   29.7150   43.5740 C   0  0  0  0  0  0  0  0  0  0  0  0
   56.4680   29.3950   42.6870 C   0  0  0  0  0  0  0  0  0  0  0  0
   58.4365   24.9292   44.6005 H   0  0  0  0  0  0  0  0  0  0  0  0
   56.9706   24.3110   43.7665 H   0  0  0  0  0  0  0  0  0  0  0  0
   57.3288   26.0712   43.7665 H   0  0  0  0  0  0  0  0  0  0  0  0
   55.6824   24.6797   45.5855 H   0  0  0  0  0  0  0  0  0  0  0  0
   57.2143   24.9975   46.4888 H   0  0  0  0  0  0  0  0  0  0  0  0
   58.6276   26.6700   47.0526 H   0  0  0  0  0  0  0  0  0  0  0  0
   60.4090   27.7187   48.1641 H   0  0  0  0  0  0  0  0  0  0  0  0
   61.2743   28.6072   46.8529 H   0  0  0  0  0  0  0  0  0  0  0  0
   61.0620   29.4470   49.3330 H   0  0  0  0  0  0  0  0  0  0  0  0
   62.3598   30.9650   48.5675 H   0  0  0  0  0  0  0  0  0  0  0  0
   61.8494   30.4731   46.9019 H   0  0  0  0  0  0  0  0  0  0  0  0
   62.1294   32.8532   46.1530 H   0  0  0  0  0  0  0  0  0  0  0  0
   60.8717   34.9919   45.8214 H   0  0  0  0  0  0  0  0  0  0  0  0
   58.8575   35.4651   47.2296 H   0  0  0  0  0  0  0  0  0  0  0  0
   59.3202   31.7444   49.2560 H   0  0  0  0  0  0  0  0  0  0  0  0
   59.4229   30.8601   46.3280 H   0  0  0  0  0  0  0  0  0  0  0  0
   58.9421   32.2114   44.8378 H   0  0  0  0  0  0  0  0  0  0  0  0
   57.8695   32.2607   43.3855 H   0  0  0  0  0  0  0  0  0  0  0  0
   57.4019   33.8233   45.9716 H   0  0  0  0  0  0  0  0  0  0  0  0
   58.1193   34.4970   44.4689 H   0  0  0  0  0  0  0  0  0  0  0  0
   56.4216   33.9100   44.4689 H   0  0  0  0  0  0  0  0  0  0  0  0
   54.3548   29.3292   43.1012 H   0  0  0  0  0  0  0  0  0  0  0  0
   55.1977   30.8055   43.6991 H   0  0  0  0  0  0  0  0  0  0  0  0
   57.3391   29.1623   43.3172 H   0  0  0  0  0  0  0  0  0  0  0  0
   56.2329   28.5282   42.0519 H   0  0  0  0  0  0  0  0  0  0  0  0
   56.6964   30.2636   42.0519 H   0  0  0  0  0  0  0  0  0  0  0  0
  1  2  1  0
  2  3  1  0
  3  4  1  0
  4  5  2  0
  5  6  1  0
  6  7  1  0
  7  8  1  0
  8  9  1  0
  9 10  1  0
 10 11  2  0
 11 12  1  0
 12 13  2  0
 13 14  1  0
 14 15  2  0
  6 16  2  0
 16 17  1  0
 17 18  1  0
 18 19  1  0
 19 20  1  0
 17 21  2  0
 21 22  1  0
 22 23  1  0
 23 24  1  0
 21  4  1  0
 15 10  1  0
  1 25  1  0
  1 26  1  0
  1 27  1  0
  2 28  1  0
  2 29  1  0
  5 30  1  0
  7 31  1  0
  7 32  1  0
  8 33  1  0
  9 34  1  0
  9 35  1  0
 11 36  1  0
 12 37  1  0
 13 38  1  0
 15 39  1  0
 16 40  1  0
 19 41  1  0
 19 42  1  0
 20 43  1  0
 20 44  1  0
 20 45  1  0
 23 46  1  0
 23 47  1  0
 24 48  1  0
 24 49  1  0
 24 50  1  0
M  END
>  <UniqueID>  (2) 
2

>  <SMILES>  (2) 
CCOc1cc(CNCc2cccnc2)cc(OCC)c1OCC

>  <Energy>  (2) 
44.1877797941201

>  <Genealogy>  (2) 
CCOc1cc(CNCc2cccnc2)cc(OCC)c1OCC (3D coordinates assigned)
CCOc1cc(CNCc2cccnc2)cc(OCC)c1OCC (optimized conformer: 44.1877797941201 kcal/mol)

>  <smiles>  (2) 
CCOc1cc(CNCc2cccnc2)cc(OCC)c1OCC

>  <score_type>  (2) 
oracle

>  <origin>  (2) 
adg

>  <m_score__min__energy>  (2) 
-6.6900000000000004

>  <m_primary>  (2) 
energy

$$$$
2:0
     RDKit          3D

 44 46  0  0  0  0  0  0  0  0999 V2000
   60.3780   29.7850   47.2370 C   0  0  0  0  0  0  0  0  0  0  0  0
   61.2910   30.9290   46.7980 C   0  0  0  0  0  0  0  0  0  0  0  0
   61.4580   31.9320   47.8730 N   0  0  0  0  0  0  0  0  0  0  0  0
   62.7840   32.5910   47.9390 C   0  0  0  0  0  0  0  0  0  0  0  0
   63.0960   33.5080   46.7530 C   0  0  0  0  0  0  0  0  0  0  0  0
   60.8880   31.5510   49.1880 C   0  0  0  0  0  0  0  0  0  0  0  0
   60.7760   32.7180   50.1990 C   0  0  0  0  0  0  0  0  0  0  0  0
   59.7610   33.7770   49.7440 C   0  0  0  0  0  0  0  0  0  0  0  0
   58.9030   33.2770   48.6670 N   0  0  0  0  0  0  0  0  0  0  0  0
   59.0090   33.8040   47.3300 C   0  0  0  0  0  0  0  0  0  0  0  0
   59.6150   35.0090   47.1460 N   0  0  0  0  0  0  0  0  0  0  0  0
   59.7240   35.5820   45.9220 C   0  0  0  0  0  0  0  0  0  0  0  0
   59.2190   34.9600   44.8300 N   0  0  0  0  0  0  0  0  0  0  0  0
   58.6090   33.7530   44.9310 C   0  0  0  0  0  0  0  0  0  0  0  0
   58.1080   33.1310   43.7720 C   0  0  0  0  0  0  0  0  0  0  0  0
   57.5110   31.8850   43.9080 C   0  0  0  0  0  0  0  0  0  0  0  0
   57.4060   31.2650   45.1090 C   0  0  0  0  0  0  0  0  0  0  0  0
   57.8820   31.8370   46.2840 C   0  0  0  0  0  0  0  0  0  0  0  0
   58.4890   33.1180   46.2060 C   0  0  0  0  0  0  0  0  0  0  0  0
   56.7830   30.0420   44.9420 O   0  0  0  0  0  0  0  0  0  0  0  0
   56.4770   29.8860   43.5500 C   0  0  0  0  0  0  0  0  0  0  0  0
   56.9600   31.0850   42.9260 O   0  0  0  0  0  0  0  0  0  0  0  0
   60.3448   29.7434   48.3357 H   0  0  0  0  0  0  0  0  0  0  0  0
   59.3640   29.9543   46.8457 H   0  0  0  0  0  0  0  0  0  0  0  0
   60.7680   28.8338   46.8457 H   0  0  0  0  0  0  0  0  0  0  0  0
   62.2773   30.5187   46.5355 H   0  0  0  0  0  0  0  0  0  0  0  0
   60.8303   31.4253   45.9312 H   0  0  0  0  0  0  0  0  0  0  0  0
   62.8232   33.1931   48.8587 H   0  0  0  0  0  0  0  0  0  0  0  0
   63.5346   31.7872   47.9194 H   0  0  0  0  0  0  0  0  0  0  0  0
   63.4294   34.4880   47.1250 H   0  0  0  0  0  0  0  0  0  0  0  0
   63.8916   33.0581   46.1410 H   0  0  0  0  0  0  0  0  0  0  0  0
   62.1911   33.6367   46.1410 H   0  0  0  0  0  0  0  0  0  0  0  0
   59.8803   31.1427   49.0209 H   0  0  0  0  0  0  0  0  0  0  0  0
   61.5798   30.8185   49.6296 H   0  0  0  0  0  0  0  0  0  0  0  0
   60.4577   32.3157   51.1721 H   0  0  0  0  0  0  0  0  0  0  0  0
   61.7617   33.2008   50.2717 H   0  0  0  0  0  0  0  0  0  0  0  0
   59.1308   34.0581   50.6006 H   0  0  0  0  0  0  0  0  0  0  0  0
   60.3186   34.6455   49.3633 H   0  0  0  0  0  0  0  0  0  0  0  0
   58.1630   32.5830   48.9020 H   0  0  0  0  0  0  0  0  0  0  0  0
   60.2245   36.5557   45.8155 H   0  0  0  0  0  0  0  0  0  0  0  0
   58.1871   33.6173   42.7885 H   0  0  0  0  0  0  0  0  0  0  0  0
   57.7908   31.3119   47.2462 H   0  0  0  0  0  0  0  0  0  0  0  0
   56.9882   29.0032   43.1385 H   0  0  0  0  0  0  0  0  0  0  0  0
   55.4009   29.7358   43.3782 H   0  0  0  0  0  0  0  0  0  0  0  0
  1  2  1  0
  2  3  1  0
  3  4  1  0
  4  5  1  0
  3  6  1  0
  6  7  1  0
  7  8  1  0
  8  9  1  0
  9 10  1  0
 10 11  2  0
 11 12  1  0
 12 13  2  0
 13 14  1  0
 14 15  2  0
 15 16  1  0
 16 17  2  0
 17 18  1  0
 18 19  2  0
 17 20  1  0
 20 21  1  0
 21 22  1  0
 19 10  1  0
 19 14  1  0
 22 16  1  0
  1 23  1  0
  1 24  1  0
  1 25  1  0
  2 26  1  0
  2 27  1  0
  4 28  1  0
  4 29  1  0
  5 30  1  0
  5 31  1  0
  5 32  1  0
  6 33  1  0
  6 34  1  0
  7 35  1  0
  7 36  1  0
  8 37  1  0
  8 38  1  0
  9 39  1  0
 12 40  1  0
 15 41  1  0
 18 42  1  0
 21 43  1  0
 21 44  1  0
M  END
>  <UniqueID>  (3) 
3

>  <SMILES>  (3) 
CCN(CC)CCCNc1ncnc2cc3c(cc12)OCO3

>  <Energy>  (3) 
81.41754574614376

>  <Genealogy>  (3) 
CCN(CC)CCCNc1ncnc2cc3c(cc12)OCO3 (3D coordinates assigned)
CCN(CC)CCCNc1ncnc2cc3c(cc12)OCO3 (nonaromatic ring conformer: 81.41754574614376 kcal/mol)

>  <smiles>  (3) 
CCN(CC)CCCNc1ncnc2cc3c(cc12)OCO3

>  <score_type>  (3) 
oracle

>  <origin>  (3) 
adg

>  <m_score__min__energy>  (3) 
-6.1500000000000004

>  <m_primary>  (3) 
energy

$$$$
3:0
     RDKit          3D

 43 45  0  0  0  0  0  0  0  0999 V2000
   57.0680   31.3390   42.1940 C   0  0  0  0  0  0  0  0  0  0  0  0
   56.2950   30.0910   42.6180 C   0  0  0  0  0  0  0  0  0  0  0  0
   55.8680   30.1370   44.0980 C   0  0  0  0  0  0  0  0  0  0  0  0
   56.5030   29.0840   44.9150 N   0  0  0  0  0  0  0  0  0  0  0  0
   57.9630   29.2340   45.0360 C   0  0  0  0  0  0  0  0  0  0  0  0
   58.3460   30.1460   46.1760 C   0  0  0  0  0  0  0  0  0  0  0  0
   58.7160   29.6390   47.4210 C   0  0  0  0  0  0  0  0  0  0  0  0
   59.1420   30.9190   48.4220 S   0  0  0  0  0  0  0  0  0  0  0  0
   58.8680   32.1450   47.3030 C   0  0  0  0  0  0  0  0  0  0  0  0
   59.0250   33.5450   47.4280 C   0  0  0  0  0  0  0  0  0  0  0  0
   59.4600   34.2120   48.5870 O   0  0  0  0  0  0  0  0  0  0  0  0
   60.2830   33.6740   49.6160 C   0  0  0  0  0  0  0  0  0  0  0  0
   61.7030   34.2040   49.4530 C   0  0  0  0  0  0  0  0  0  0  0  0
   62.4390   33.3880   48.4920 N   0  0  0  0  0  0  0  0  0  0  0  0
   63.2940   33.8220   47.5520 C   0  0  0  0  0  0  0  0  0  0  0  0
   63.6980   32.7320   46.8150 C   0  0  0  0  0  0  0  0  0  0  0  0
   63.0900   31.6200   47.2790 N   0  0  0  0  0  0  0  0  0  0  0  0
   62.3260   32.0600   48.3000 C   0  0  0  0  0  0  0  0  0  0  0  0
   58.7250   34.3320   46.3060 C   0  0  0  0  0  0  0  0  0  0  0  0
   58.2850   33.7500   45.1080 C   0  0  0  0  0  0  0  0  0  0  0  0
   58.1370   32.3620   45.0040 C   0  0  0  0  0  0  0  0  0  0  0  0
   58.4330   31.5560   46.1120 C   0  0  0  0  0  0  0  0  0  0  0  0
   57.4050   31.8831   43.0886 H   0  0  0  0  0  0  0  0  0  0  0  0
   57.9413   31.0432   41.5941 H   0  0  0  0  0  0  0  0  0  0  0  0
   56.4142   31.9891   41.5941 H   0  0  0  0  0  0  0  0  0  0  0  0
   55.3938   30.0048   41.9932 H   0  0  0  0  0  0  0  0  0  0  0  0
   56.9607   29.2249   42.4885 H   0  0  0  0  0  0  0  0  0  0  0  0
   56.1456   31.1174   44.5125 H   0  0  0  0  0  0  0  0  0  0  0  0
   54.7814   29.9693   44.1321 H   0  0  0  0  0  0  0  0  0  0  0  0
   56.2690   28.1260   44.5700 H   0  0  0  0  0  0  0  0  0  0  0  0
   58.4085   28.2432   45.2090 H   0  0  0  0  0  0  0  0  0  0  0  0
   58.3367   29.6814   44.1032 H   0  0  0  0  0  0  0  0  0  0  0  0
   58.7271   28.5755   47.7017 H   0  0  0  0  0  0  0  0  0  0  0  0
   59.8885   33.9755   50.5976 H   0  0  0  0  0  0  0  0  0  0  0  0
   60.2889   32.5762   49.5475 H   0  0  0  0  0  0  0  0  0  0  0  0
   61.6640   35.2427   49.0930 H   0  0  0  0  0  0  0  0  0  0  0  0
   62.2153   34.1624   50.4256 H   0  0  0  0  0  0  0  0  0  0  0  0
   63.6144   34.8630   47.3983 H   0  0  0  0  0  0  0  0  0  0  0  0
   64.4083   32.7626   45.9756 H   0  0  0  0  0  0  0  0  0  0  0  0
   61.6826   31.4069   48.9078 H   0  0  0  0  0  0  0  0  0  0  0  0
   58.8368   35.4246   46.3668 H   0  0  0  0  0  0  0  0  0  0  0  0
   58.0544   34.3895   44.2432 H   0  0  0  0  0  0  0  0  0  0  0  0
   57.7921   31.9086   44.0630 H   0  0  0  0  0  0  0  0  0  0  0  0
  1  2  1  0
  2  3  1  0
  3  4  1  0
  4  5  1  0
  5  6  1  0
  6  7  2  0
  7  8  1  0
  8  9  1  0
  9 10  2  0
 10 11  1  0
 11 12  1  0
 12 13  1  0
 13 14  1  0
 14 15  1  0
 15 16  2  0
 16 17  1  0
 17 18  2  0
 10 19  1  0
 19 20  2  0
 20 21  1  0
 21 22  2  0
 22  6  1  0
 22  9  1  0
 18 14  1  0
  1 23  1  0
  1 24  1  0
  1 25  1  0
  2 26  1  0
  2 27  1  0
  3 28  1  0
  3 29  1  0
  4 30  1  0
  5 31  1  0
  5 32  1  0
  7 33  1  0
 12 34  1  0
 12 35  1  0
 13 36  1  0
 13 37  1  0
 15 38  1  0
 16 39  1  0
 18 40  1  0
 19 41  1  0
 20 42  1  0
 21 43  1  0
M  END
>  <UniqueID>  (4) 
4

>  <SMILES>  (4) 
CCCNCc1csc2c(OCCn3ccnc3)cccc12

>  <Energy>  (4) 
102.3310450396375

>  <Genealogy>  (4) 
CCCNCc1csc2c(OCCn3ccnc3)cccc12 (3D coordinates assigned)
CCCNCc1csc2c(OCCn3ccnc3)cccc12 (optimized conformer: 102.3310450396375 kcal/mol)

>  <smiles>  (4) 
CCCNCc1csc2c(OCCn3ccnc3)cccc12

>  <score_type>  (4) 
oracle

>  <origin>  (4) 
adg

>  <m_score__min__energy>  (4) 
-7.1299999999999999

>  <m_primary>  (4) 
energy

$$$$
4:0
     RDKit          3D

 57 61  0  0  0  0  0  0  0  0999 V2000
   58.2390   25.3460   45.7980 C   0  0  0  0  0  0  0  0  0  0  0  0
   58.4160   26.8050   46.1000 C   0  0  0  0  0  0  0  0  0  0  0  0
   58.3950   27.2560   47.4200 C   0  0  0  0  0  0  0  0  0  0  0  0
   58.5330   28.6130   47.7000 C   0  0  0  0  0  0  0  0  0  0  0  0
   58.7310   29.5710   46.6740 C   0  0  0  0  0  0  0  0  0  0  0  0
   58.5890   29.1180   45.3340 C   0  0  0  0  0  0  0  0  0  0  0  0
   58.4730   27.7390   45.0640 C   0  0  0  0  0  0  0  0  0  0  0  0
   58.3510   30.0690   44.2020 C   0  0  0  0  0  0  0  0  0  0  0  0
   57.1850   30.9920   44.5710 C   0  0  0  0  0  0  0  0  0  0  0  0
   57.7310   32.2490   45.1730 C   0  0  0  0  0  0  0  0  0  0  0  0
   57.4130   33.4690   44.5520 C   0  0  0  0  0  0  0  0  0  0  0  0
   58.0940   34.6310   44.8880 C   0  0  0  0  0  0  0  0  0  0  0  0
   59.1260   34.5630   45.8130 C   0  0  0  0  0  0  0  0  0  0  0  0
   59.4180   33.3860   46.4270 N   0  0  0  0  0  0  0  0  0  0  0  0
   58.6980   32.2340   46.2150 C   0  0  0  0  0  0  0  0  0  0  0  0
   59.0110   31.0150   47.0700 C   0  0  0  0  0  0  0  0  0  0  0  0
   59.5850   31.2380   48.2840 C   0  0  0  0  0  0  0  0  0  0  0  0
   60.9410   30.6640   48.6420 C   0  0  0  0  0  0  0  0  0  0  0  0
   61.0270   30.4430   50.1550 C   0  0  0  0  0  0  0  0  0  0  0  0
   60.8270   31.6970   50.9340 N   0  0  0  0  0  0  0  0  0  0  0  0
   60.3790   31.4060   52.3140 C   0  0  0  0  0  0  0  0  0  0  0  0
   58.8980   31.1260   52.3550 C   0  0  0  0  0  0  0  0  0  0  0  0
   57.9900   32.1140   52.7610 C   0  0  0  0  0  0  0  0  0  0  0  0
   56.6210   31.8420   52.7660 C   0  0  0  0  0  0  0  0  0  0  0  0
   56.1710   30.5840   52.3590 C   0  0  0  0  0  0  0  0  0  0  0  0
   54.3060   30.1830   52.3540 Br  0  0  0  0  0  0  0  0  0  0  0  0
   57.0630   29.6390   51.9610 N   0  0  0  0  0  0  0  0  0  0  0  0
   58.4020   29.8790   51.9480 C   0  0  0  0  0  0  0  0  0  0  0  0
   59.9490   32.7010   50.2780 C   0  0  0  0  0  0  0  0  0  0  0  0
   58.9020   32.0750   49.3460 C   0  0  0  0  0  0  0  0  0  0  0  0
   58.1706   24.7822   46.7401 H   0  0  0  0  0  0  0  0  0  0  0  0
   57.3167   25.2012   45.2163 H   0  0  0  0  0  0  0  0  0  0  0  0
   59.0999   24.9849   45.2163 H   0  0  0  0  0  0  0  0  0  0  0  0
   58.2689   26.5369   48.2428 H   0  0  0  0  0  0  0  0  0  0  0  0
   58.4871   28.9509   48.7458 H   0  0  0  0  0  0  0  0  0  0  0  0
   58.4267   27.3937   44.0206 H   0  0  0  0  0  0  0  0  0  0  0  0
   59.2562   30.6687   44.0262 H   0  0  0  0  0  0  0  0  0  0  0  0
   58.1095   29.5085   43.2868 H   0  0  0  0  0  0  0  0  0  0  0  0
   56.6076   31.2364   43.6672 H   0  0  0  0  0  0  0  0  0  0  0  0
   56.5267   30.4886   45.2944 H   0  0  0  0  0  0  0  0  0  0  0  0
   56.6175   33.5034   43.7931 H   0  0  0  0  0  0  0  0  0  0  0  0
   57.8195   35.5916   44.4277 H   0  0  0  0  0  0  0  0  0  0  0  0
   59.7098   35.4646   46.0502 H   0  0  0  0  0  0  0  0  0  0  0  0
   60.2340   33.3940   47.0800 H   0  0  0  0  0  0  0  0  0  0  0  0
   61.0794   29.7035   48.1241 H   0  0  0  0  0  0  0  0  0  0  0  0
   61.7271   31.3683   48.3323 H   0  0  0  0  0  0  0  0  0  0  0  0
   60.2525   29.7193   50.4490 H   0  0  0  0  0  0  0  0  0  0  0  0
   62.0382   30.0720   50.3785 H   0  0  0  0  0  0  0  0  0  0  0  0
   60.9217   30.5262   52.6901 H   0  0  0  0  0  0  0  0  0  0  0  0
   60.5864   32.2851   52.9419 H   0  0  0  0  0  0  0  0  0  0  0  0
   58.3561   33.1025   53.0753 H   0  0  0  0  0  0  0  0  0  0  0  0
   55.9033   32.6111   53.0874 H   0  0  0  0  0  0  0  0  0  0  0  0
   59.0972   29.0932   51.6175 H   0  0  0  0  0  0  0  0  0  0  0  0
   59.4248   33.2703   51.0597 H   0  0  0  0  0  0  0  0  0  0  0  0
   60.5935   33.3430   49.6596 H   0  0  0  0  0  0  0  0  0  0  0  0
   58.2268   31.4362   49.9342 H   0  0  0  0  0  0  0  0  0  0  0  0
   58.3282   32.8770   48.8586 H   0  0  0  0  0  0  0  0  0  0  0  0
  1  2  1  0
  2  3  2  0
  3  4  1  0
  4  5  2  0
  5  6  1  0
  6  7  2  0
  6  8  1  0
  8  9  1  0
  9 10  1  0
 10 11  2  0
 11 12  1  0
 12 13  2  0
 13 14  1  0
 14 15  2  0
 15 16  1  0
 16 17  2  3
 17 18  1  0
 18 19  1  0
 19 20  1  0
 20 21  1  0
 21 22  1  0
 22 23  2  0
 23 24  1  0
 24 25  2  0
 25 26  1  0
 25 27  1  0
 27 28  2  0
 20 29  1  0
 29 30  1  0
  7  2  1  0
 15 10  1  0
 30 17  1  0
 16  5  1  0
 28 22  1  0
  1 31  1  0
  1 32  1  0
  1 33  1  0
  3 34  1  0
  4 35  1  0
  7 36  1  0
  8 37  1  0
  8 38  1  0
  9 39  1  0
  9 40  1  0
 11 41  1  0
 12 42  1  0
 13 43  1  0
 14 44  1  0
 18 45  1  0
 18 46  1  0
 19 47  1  0
 19 48  1  0
 21 49  1  0
 21 50  1  0
 23 51  1  0
 24 52  1  0
 28 53  1  0
 29 54  1  0
 29 55  1  0
 30 56  1  0
 30 57  1  0
M  CHG  1  14   1
M  END
>  <UniqueID>  (5) 
5

>  <SMILES>  (5) 
Cc1ccc2c(c1)CCc1ccc[nH+]c1C2=C1CCN(Cc2ccc(Br)nc2)CC1

>  <Energy>  (5) 
117.83743959111816

>  <Genealogy>  (5) 
Cc1ccc2c(c1)CCc1ccc[nH+]c1C2=C1CCN(Cc2ccc(Br)nc2)CC1 (protonated)
Cc1ccc2c(c1)CCc1ccc[nH+]c1C2=C1CCN(Cc2ccc(Br)nc2)CC1 (3D coordinates assigned)
Cc1ccc2c(c1)CCc1ccc[nH+]c1C2=C1CCN(Cc2ccc(Br)nc2)CC1 (nonaromatic ring conformer: 117.83743959111816 kcal/mol)

>  <smiles>  (5) 
Cc1ccc2c(c1)CCc1cccnc1C2=C1CCN(Cc2ccc(Br)nc2)CC1

>  <score_type>  (5) 
oracle

>  <origin>  (5) 
adg

>  <m_score__min__energy>  (5) 
-6.6200000000000001

>  <m_primary>  (5) 
energy

$$$$
5:0
     RDKit          3D

 56 60  0  0  0  0  0  0  0  0999 V2000
   63.7180   33.8410   47.7550 C   0  0  0  0  0  0  0  0  0  0  0  0
   63.8850   33.0470   49.0450 C   0  0  0  0  0  0  0  0  0  0  0  0
   62.6320   32.5220   49.4840 O   0  0  0  0  0  0  0  0  0  0  0  0
   61.8810   31.5380   48.8210 C   0  0  0  0  0  0  0  0  0  0  0  0
   62.0000   31.2880   47.4390 C   0  0  0  0  0  0  0  0  0  0  0  0
   61.2210   30.2970   46.8340 C   0  0  0  0  0  0  0  0  0  0  0  0
   60.3040   29.5560   47.5930 C   0  0  0  0  0  0  0  0  0  0  0  0
   59.5180   28.5280   46.9750 N   0  0  0  0  0  0  0  0  0  0  0  0
   59.5940   27.2080   47.2790 C   0  0  0  0  0  0  0  0  0  0  0  0
   60.2580   26.7560   48.2530 O   0  0  0  0  0  0  0  0  0  0  0  0
   58.9310   26.4190   46.4020 N   0  0  0  0  0  0  0  0  0  0  0  0
   58.9010   24.9570   46.3680 C   0  0  0  0  0  0  0  0  0  0  0  0
   57.4550   24.4610   46.3030 C   0  0  0  0  0  0  0  0  0  0  0  0
   57.2560   23.5650   45.1110 C   0  0  0  0  0  0  0  0  0  0  0  0
   58.0220   22.3950   44.9660 C   0  0  0  0  0  0  0  0  0  0  0  0
   57.8140   21.5480   43.8730 C   0  0  0  0  0  0  0  0  0  0  0  0
   56.8340   21.8560   42.9250 C   0  0  0  0  0  0  0  0  0  0  0  0
   56.0590   23.0100   43.0690 C   0  0  0  0  0  0  0  0  0  0  0  0
   56.2650   23.8600   44.1610 C   0  0  0  0  0  0  0  0  0  0  0  0
   58.4480   27.2840   45.4870 C   0  0  0  0  0  0  0  0  0  0  0  0
   57.7650   27.0040   44.3090 C   0  0  0  0  0  0  0  0  0  0  0  0
   57.4050   28.0420   43.5020 N   0  0  0  0  0  0  0  0  0  0  0  0
   57.6720   29.3490   43.8340 C   0  0  0  0  0  0  0  0  0  0  0  0
   57.2510   30.3850   42.9890 C   0  0  0  0  0  0  0  0  0  0  0  0
   57.4730   31.7180   43.3380 C   0  0  0  0  0  0  0  0  0  0  0  0
   57.0530   32.7040   42.5050 F   0  0  0  0  0  0  0  0  0  0  0  0
   58.1010   32.0330   44.5490 C   0  0  0  0  0  0  0  0  0  0  0  0
   58.2970   33.4090   44.9280 C   0  0  0  0  0  0  0  0  0  0  0  0
   58.4530   34.5150   45.2330 N   0  0  0  0  0  0  0  0  0  0  0  0
   58.5320   31.0100   45.4050 C   0  0  0  0  0  0  0  0  0  0  0  0
   58.3600   29.6620   45.0440 C   0  0  0  0  0  0  0  0  0  0  0  0
   58.7790   28.5700   45.8360 C   0  0  0  0  0  0  0  0  0  0  0  0
   60.1940   29.7940   48.9680 C   0  0  0  0  0  0  0  0  0  0  0  0
   60.9720   30.7830   49.5740 C   0  0  0  0  0  0  0  0  0  0  0  0
   63.4971   34.8911   47.9968 H   0  0  0  0  0  0  0  0  0  0  0  0
   64.6471   33.7874   47.1685 H   0  0  0  0  0  0  0  0  0  0  0  0
   62.8892   33.4176   47.1685 H   0  0  0  0  0  0  0  0  0  0  0  0
   64.5825   32.2149   48.8684 H   0  0  0  0  0  0  0  0  0  0  0  0
   64.2778   33.7179   49.8232 H   0  0  0  0  0  0  0  0  0  0  0  0
   62.7078   31.8743   46.8346 H   0  0  0  0  0  0  0  0  0  0  0  0
   61.3280   30.0977   45.7575 H   0  0  0  0  0  0  0  0  0  0  0  0
   59.4472   24.6026   45.4814 H   0  0  0  0  0  0  0  0  0  0  0  0
   59.3744   24.5663   47.2808 H   0  0  0  0  0  0  0  0  0  0  0  0
   57.2238   23.8993   47.2201 H   0  0  0  0  0  0  0  0  0  0  0  0
   56.7860   25.3292   46.2099 H   0  0  0  0  0  0  0  0  0  0  0  0
   58.7877   22.1450   45.7151 H   0  0  0  0  0  0  0  0  0  0  0  0
   58.4221   20.6385   43.7591 H   0  0  0  0  0  0  0  0  0  0  0  0
   56.6727   21.1895   42.0649 H   0  0  0  0  0  0  0  0  0  0  0  0
   55.2867   23.2501   42.3234 H   0  0  0  0  0  0  0  0  0  0  0  0
   55.6479   24.7633   44.2758 H   0  0  0  0  0  0  0  0  0  0  0  0
   57.5204   25.9674   44.0341 H   0  0  0  0  0  0  0  0  0  0  0  0
   56.8980   27.8220   42.6140 H   0  0  0  0  0  0  0  0  0  0  0  0
   56.7418   30.1457   42.0438 H   0  0  0  0  0  0  0  0  0  0  0  0
   59.0073   31.2632   46.3642 H   0  0  0  0  0  0  0  0  0  0  0  0
   59.4928   29.2004   49.5730 H   0  0  0  0  0  0  0  0  0  0  0  0
   60.8701   30.9711   50.6530 H   0  0  0  0  0  0  0  0  0  0  0  0
  1  2  1  0
  2  3  1  0
  3  4  1  0
  4  5  2  0
  5  6  1  0
  6  7  2  0
  7  8  1  0
  8  9  1  0
  9 10  2  0
  9 11  1  0
 11 12  1  0
 12 13  1  0
 13 14  1  0
 14 15  2  0
 15 16  1  0
 16 17  2  0
 17 18  1  0
 18 19  2  0
 11 20  1  0
 20 21  2  0
 21 22  1  0
 22 23  2  0
 23 24  1  0
 24 25  2  0
 25 26  1  0
 25 27  1  0
 27 28  1  0
 28 29  3  0
 27 30  2  0
 30 31  1  0
 31 32  2  0
  7 33  1  0
 33 34  2  0
 34  4  1  0
 32  8  1  0
 19 14  1  0
 32 20  1  0
 31 23  1  0
  1 35  1  0
  1 36  1  0
  1 37  1  0
  2 38  1  0
  2 39  1  0
  5 40  1  0
  6 41  1  0
 12 42  1  0
 12 43  1  0
 13 44  1  0
 13 45  1  0
 15 46  1  0
 16 47  1  0
 17 48  1  0
 18 49  1  0
 19 50  1  0
 21 51  1  0
 22 52  1  0
 24 53  1  0
 30 54  1  0
 33 55  1  0
 34 56  1  0
M  CHG  1  22   1
M  END
>  <UniqueID>  (6) 
6

>  <SMILES>  (6) 
CCOc1ccc(-n2c(=O)n(CCc3ccccc3)c3c[nH+]c4cc(F)c(C#N)cc4c32)cc1

>  <Energy>  (6) 
111.79890359040306

>  <Genealogy>  (6) 
CCOc1ccc(-n2c(=O)n(CCc3ccccc3)c3c[nH+]c4cc(F)c(C#N)cc4c32)cc1 (protonated)
CCOc1ccc(-n2c(=O)n(CCc3ccccc3)c3c[nH+]c4cc(F)c(C#N)cc4c32)cc1 (3D coordinates assigned)
CCOc1ccc(-n2c(=O)n(CCc3ccccc3)c3c[nH+]c4cc(F)c(C#N)cc4c32)cc1 (optimized conformer: 111.79890359040306 kcal/mol)

>  <smiles>  (6) 
CCOc1ccc(-n2c(=O)n(CCc3ccccc3)c3cnc4cc(F)c(C#N)cc4c32)cc1

>  <score_type>  (6) 
oracle

>  <origin>  (6) 
adg

>  <m_score__min__energy>  (6) 
-7.4900000000000002

>  <m_primary>  (6) 
energy

$$$$
6:0
     RDKit          3D

 45 46  0  0  0  0  0  0  0  0999 V2000
   60.1870   27.0350   48.0830 C   0  0  0  0  0  0  0  0  0  0  0  0
   58.9910   26.3700   47.4210 C   0  0  0  0  0  0  0  0  0  0  0  0
   57.9920   27.3410   47.1900 O   0  0  0  0  0  0  0  0  0  0  0  0
   57.3050   27.0690   45.9820 C   0  0  0  0  0  0  0  0  0  0  0  0
   57.6310   28.1280   44.9230 C   0  0  0  0  0  0  0  0  0  0  0  0
   59.0430   28.5030   44.9860 N   0  0  0  0  0  0  0  0  0  0  0  0
   59.9820   27.9950   44.2080 N   0  0  0  0  0  0  0  0  0  0  0  0
   61.1250   28.5940   44.4940 N   0  0  0  0  0  0  0  0  0  0  0  0
   60.9610   29.5000   45.4470 N   0  0  0  0  0  0  0  0  0  0  0  0
   59.6490   29.4370   45.7520 C   0  0  0  0  0  0  0  0  0  0  0  0
   58.9790   30.3070   46.7920 C   0  0  1  0  0  0  0  0  0  0  0  0
   59.7610   30.3550   47.9740 O   0  0  0  0  0  0  0  0  0  0  0  0
   58.9590   30.1280   49.1160 C   0  0  0  0  0  0  0  0  0  0  0  0
   58.7020   31.4530   49.8170 C   0  0  0  0  0  0  0  0  0  0  0  0
   58.8180   31.7190   46.2680 C   0  0  0  0  0  0  0  0  0  0  0  0
   59.6950   32.7280   46.7130 C   0  0  0  0  0  0  0  0  0  0  0  0
   59.5600   34.0400   46.2560 C   0  0  0  0  0  0  0  0  0  0  0  0
   58.5570   34.3620   45.3430 C   0  0  0  0  0  0  0  0  0  0  0  0
   57.6890   33.3730   44.8780 C   0  0  0  0  0  0  0  0  0  0  0  0
   57.8120   32.0430   45.3290 C   0  0  0  0  0  0  0  0  0  0  0  0
   56.9570   31.0290   44.8670 O   0  0  0  0  0  0  0  0  0  0  0  0
   56.6760   30.7650   43.4970 C   0  0  0  0  0  0  0  0  0  0  0  0
   60.0808   26.9759   49.1763 H   0  0  0  0  0  0  0  0  0  0  0  0
   61.1093   26.5202   47.7759 H   0  0  0  0  0  0  0  0  0  0  0  0
   60.2364   28.0901   47.7759 H   0  0  0  0  0  0  0  0  0  0  0  0
   59.3002   25.9246   46.4639 H   0  0  0  0  0  0  0  0  0  0  0  0
   58.5958   25.5803   48.0769 H   0  0  0  0  0  0  0  0  0  0  0  0
   57.6086   26.0798   45.6088 H   0  0  0  0  0  0  0  0  0  0  0  0
   56.2229   27.0871   46.1788 H   0  0  0  0  0  0  0  0  0  0  0  0
   57.4094   27.7214   43.9252 H   0  0  0  0  0  0  0  0  0  0  0  0
   57.0185   29.0212   45.1152 H   0  0  0  0  0  0  0  0  0  0  0  0
   62.0340   28.3860   44.0280 H   0  0  0  0  0  0  0  0  0  0  0  0
   57.9929   29.8731   47.0141 H   0  0  0  0  0  0  0  0  0  0  0  0
   58.0013   29.6815   48.8103 H   0  0  0  0  0  0  0  0  0  0  0  0
   59.4773   29.4413   49.8014 H   0  0  0  0  0  0  0  0  0  0  0  0
   58.7311   31.3032   50.9064 H   0  0  0  0  0  0  0  0  0  0  0  0
   59.4762   32.1781   49.5258 H   0  0  0  0  0  0  0  0  0  0  0  0
   57.7128   31.8361   49.5258 H   0  0  0  0  0  0  0  0  0  0  0  0
   60.4937   32.4794   47.4274 H   0  0  0  0  0  0  0  0  0  0  0  0
   60.2458   34.8207   46.6167 H   0  0  0  0  0  0  0  0  0  0  0  0
   58.4495   35.3977   44.9883 H   0  0  0  0  0  0  0  0  0  0  0  0
   56.9028   33.6333   44.1540 H   0  0  0  0  0  0  0  0  0  0  0  0
   55.8760   30.0134   43.4250 H   0  0  0  0  0  0  0  0  0  0  0  0
   56.3524   31.6933   43.0036 H   0  0  0  0  0  0  0  0  0  0  0  0
   57.5824   30.3842   43.0036 H   0  0  0  0  0  0  0  0  0  0  0  0
  1  2  1  0
  2  3  1  0
  3  4  1  0
  4  5  1  0
  5  6  1  0
  6  7  1  0
  7  8  2  0
  8  9  1  0
  9 10  2  0
 10 11  1  0
 11 12  1  0
 12 13  1  0
 13 14  1  0
 11 15  1  0
 15 16  2  0
 16 17  1  0
 17 18  2  0
 18 19  1  0
 19 20  2  0
 20 21  1  0
 21 22  1  0
 10  6  1  0
 20 15  1  0
  1 23  1  0
  1 24  1  0
  1 25  1  0
  2 26  1  0
  2 27  1  0
  4 28  1  0
  4 29  1  0
  5 30  1  0
  5 31  1  0
  8 32  1  0
 11 33  1  1
 13 34  1  0
 13 35  1  0
 14 36  1  0
 14 37  1  0
 14 38  1  0
 16 39  1  0
 17 40  1  0
 18 41  1  0
 19 42  1  0
 22 43  1  0
 22 44  1  0
 22 45  1  0
M  CHG  1   8   1
M  END
>  <UniqueID>  (7) 
7

>  <SMILES>  (7) 
CCOCCn1n[nH+]nc1[C@@H](OCC)c1ccccc1OC

>  <Energy>  (7) 
78.93329760439094

>  <Genealogy>  (7) 
CCOCCn1n[nH+]nc1C(OCC)c1ccccc1OC (protonated)
CCOCCn1n[nH+]nc1[C@@H](OCC)c1ccccc1OC (chirality)
CCOCCn1n[nH+]nc1[C@@H](OCC)c1ccccc1OC (3D coordinates assigned)
CCOCCn1n[nH+]nc1[C@@H](OCC)c1ccccc1OC (optimized conformer: 78.93329760439094 kcal/mol)

>  <smiles>  (7) 
CCOCCn1nnnc1C(OCC)c1ccccc1OC

>  <score_type>  (7) 
oracle

>  <origin>  (7) 
adg

>  <m_score__min__energy>  (7) 
-5.5099999999999998

>  <m_primary>  (7) 
energy

$$$$
7:0
     RDKit          3D

 46 48  0  0  0  0  0  0  0  0999 V2000
   62.5890   32.1650   47.4950 C   0  0  0  0  0  0  0  0  0  0  0  0
   62.1660   30.9130   46.9660 O   0  0  0  0  0  0  0  0  0  0  0  0
   60.9510   30.2890   47.2850 C   0  0  0  0  0  0  0  0  0  0  0  0
   60.5610   30.0330   48.6140 C   0  0  0  0  0  0  0  0  0  0  0  0
   59.3420   29.4040   48.8790 C   0  0  0  0  0  0  0  0  0  0  0  0
   58.5030   29.0250   47.8280 C   0  0  0  0  0  0  0  0  0  0  0  0
   58.8750   29.2780   46.4990 C   0  0  0  0  0  0  0  0  0  0  0  0
   58.0070   28.8930   45.4140 N   0  0  0  0  0  0  0  0  0  0  0  0
   58.2780   27.6580   44.6620 C   0  0  0  0  0  0  0  0  0  0  0  0
   57.5330   26.4560   45.2660 C   0  0  0  0  0  0  0  0  0  0  0  0
   56.1870   26.8080   45.7130 N   0  0  0  0  0  0  0  0  0  0  0  0
   56.8840   29.7190   45.0520 C   0  0  0  0  0  0  0  0  0  0  0  0
   55.7060   29.3050   45.2370 O   0  0  0  0  0  0  0  0  0  0  0  0
   57.1020   30.9750   44.4750 O   0  0  0  0  0  0  0  0  0  0  0  0
   58.1510   31.8540   44.8810 C   0  0  1  0  0  0  0  0  0  0  0  0
   58.2400   33.0520   43.9170 C   0  0  0  0  0  0  0  0  0  0  0  0
   57.9550   34.2540   44.8360 C   0  0  2  0  0  0  0  0  0  0  0  0
   59.1660   34.4630   45.7630 C   0  0  0  0  0  0  0  0  0  0  0  0
   59.0630   33.2730   46.7300 C   0  0  0  0  0  0  0  0  0  0  0  0
   57.8110   32.5330   46.2270 C   0  0  1  0  0  0  0  0  0  0  0  0
   56.9320   33.6810   45.7880 C   0  0  0  0  0  0  0  0  0  0  0  0
   60.1030   29.9080   46.2380 C   0  0  0  0  0  0  0  0  0  0  0  0
   62.5746   32.1224   48.5941 H   0  0  0  0  0  0  0  0  0  0  0  0
   63.6105   32.3826   47.1499 H   0  0  0  0  0  0  0  0  0  0  0  0
   61.9087   32.9575   47.1499 H   0  0  0  0  0  0  0  0  0  0  0  0
   61.2178   30.3290   49.4453 H   0  0  0  0  0  0  0  0  0  0  0  0
   59.0417   29.2065   49.9186 H   0  0  0  0  0  0  0  0  0  0  0  0
   57.5466   28.5261   48.0434 H   0  0  0  0  0  0  0  0  0  0  0  0
   57.9513   27.7946   43.6206 H   0  0  0  0  0  0  0  0  0  0  0  0
   59.3579   27.4545   44.7099 H   0  0  0  0  0  0  0  0  0  0  0  0
   57.4579   25.6665   44.5038 H   0  0  0  0  0  0  0  0  0  0  0  0
   58.1010   26.1131   46.1433 H   0  0  0  0  0  0  0  0  0  0  0  0
   56.2530   27.5740   46.4190 H   0  0  0  0  0  0  0  0  0  0  0  0
   55.6340   27.1620   44.9000 H   0  0  0  0  0  0  0  0  0  0  0  0
   59.0641   31.2419   44.9210 H   0  0  0  0  0  0  0  0  0  0  0  0
   59.2416   33.1255   43.4683 H   0  0  0  0  0  0  0  0  0  0  0  0
   57.5443   32.9794   43.0680 H   0  0  0  0  0  0  0  0  0  0  0  0
   57.6940   35.1620   44.2725 H   0  0  0  0  0  0  0  0  0  0  0  0
   60.1085   34.4330   45.1966 H   0  0  0  0  0  0  0  0  0  0  0  0
   59.1628   35.4387   46.2709 H   0  0  0  0  0  0  0  0  0  0  0  0
   59.9547   32.6320   46.6660 H   0  0  0  0  0  0  0  0  0  0  0  0
   58.9963   33.5741   47.7859 H   0  0  0  0  0  0  0  0  0  0  0  0
   57.4108   31.8234   46.9661 H   0  0  0  0  0  0  0  0  0  0  0  0
   56.0113   33.3512   45.2845 H   0  0  0  0  0  0  0  0  0  0  0  0
   56.5212   34.3431   46.5644 H   0  0  0  0  0  0  0  0  0  0  0  0
   60.4023   30.1045   45.1979 H   0  0  0  0  0  0  0  0  0  0  0  0
  1  2  1  0
  2  3  1  0
  3  4  2  0
  4  5  1  0
  5  6  2  0
  6  7  1  0
  7  8  1  0
  8  9  1  0
  9 10  1  0
 10 11  1  0
  8 12  1  0
 12 13  2  0
 12 14  1  0
 14 15  1  0
 15 16  1  0
 16 17  1  0
 17 18  1  0
 18 19  1  0
 19 20  1  0
 20 21  1  0
  7 22  2  0
 22  3  1  0
 20 15  1  0
 21 17  1  0
  1 23  1  0
  1 24  1  0
  1 25  1  0
  4 26  1  0
  5 27  1  0
  6 28  1  0
  9 29  1  0
  9 30  1  0
 10 31  1  0
 10 32  1  0
 11 33  1  0
 11 34  1  0
 15 35  1  1
 16 36  1  0
 16 37  1  0
 17 38  1  6
 18 39  1  0
 18 40  1  0
 19 41  1  0
 19 42  1  0
 20 43  1  1
 21 44  1  0
 21 45  1  0
 22 46  1  0
M  END
>  <UniqueID>  (8) 
8

>  <SMILES>  (8) 
COc1cccc(N(CCN)C(=O)O[C@H]2C[C@@H]3CCC2C3)c1

>  <Energy>  (8) 
69.54510259307803

>  <Genealogy>  (8) 
COc1cccc(N(CCN)C(=O)O[C@H]2C[C@@H]3CCC2C3)c1 (chirality)
COc1cccc(N(CCN)C(=O)O[C@H]2C[C@@H]3CCC2C3)c1 (3D coordinates assigned)
COc1cccc(N(CCN)C(=O)O[C@H]2C[C@@H]3CCC2C3)c1 (nonaromatic ring conformer: 69.54510259307803 kcal/mol)

>  <smiles>  (8) 
COc1cccc(N(CCN)C(=O)OC2CC3CCC2C3)c1

>  <score_type>  (8) 
oracle

>  <origin>  (8) 
adg

>  <m_score__min__energy>  (8) 
-8.0299999999999994

>  <m_primary>  (8) 
energy

$$$$
8:0
     RDKit          3D

 53 56  0  0  0  0  0  0  0  0999 V2000
   64.9100   32.6870   49.4900 C   0  0  0  0  0  0  0  0  0  0  0  0
   63.7300   33.2910   48.7240 C   0  0  0  0  0  0  0  0  0  0  0  0
   63.5170   32.6580   47.3960 N   0  0  2  0  0  0  0  0  0  0  0  0
   63.3280   33.7220   46.3930 C   0  0  0  0  0  0  0  0  0  0  0  0
   62.3480   31.7300   47.3890 C   0  0  0  0  0  0  0  0  0  0  0  0
   61.5970   31.6930   48.7380 C   0  0  0  0  0  0  0  0  0  0  0  0
   60.1460   31.5610   48.5650 N   0  0  0  0  0  0  0  0  0  0  0  0
   59.4980   31.6260   47.2800 C   0  0  0  0  0  0  0  0  0  0  0  0
   59.3660   32.8660   46.6300 C   0  0  0  0  0  0  0  0  0  0  0  0
   59.7790   34.0590   47.2610 C   0  0  0  0  0  0  0  0  0  0  0  0
   59.7310   35.2760   46.5860 C   0  0  0  0  0  0  0  0  0  0  0  0
   59.2860   35.3240   45.2710 C   0  0  0  0  0  0  0  0  0  0  0  0
   58.8540   34.1610   44.6330 C   0  0  0  0  0  0  0  0  0  0  0  0
   58.8450   32.9130   45.3090 C   0  0  0  0  0  0  0  0  0  0  0  0
   58.3740   31.7610   44.7050 N   0  0  0  0  0  0  0  0  0  0  0  0
   57.5920   31.8540   43.4520 C   0  0  0  0  0  0  0  0  0  0  0  0
   58.5900   30.5300   45.2950 C   0  0  0  0  0  0  0  0  0  0  0  0
   58.3430   29.3180   44.6000 C   0  0  0  0  0  0  0  0  0  0  0  0
   58.4630   28.0770   45.2380 C   0  0  0  0  0  0  0  0  0  0  0  0
   58.1980   26.8860   44.5400 C   0  0  0  0  0  0  0  0  0  0  0  0
   58.2990   25.6540   45.1920 C   0  0  0  0  0  0  0  0  0  0  0  0
   58.6620   25.6000   46.5400 C   0  0  0  0  0  0  0  0  0  0  0  0
   58.9330   26.7780   47.2410 C   0  0  0  0  0  0  0  0  0  0  0  0
   58.8390   28.0220   46.5940 C   0  0  0  0  0  0  0  0  0  0  0  0
   59.1350   29.2030   47.2780 C   0  0  0  0  0  0  0  0  0  0  0  0
   59.0810   30.4520   46.6250 C   0  0  0  0  0  0  0  0  0  0  0  0
   64.7307   32.7788   50.5714 H   0  0  0  0  0  0  0  0  0  0  0  0
   65.0143   31.6246   49.2245 H   0  0  0  0  0  0  0  0  0  0  0  0
   65.8328   33.2236   49.2245 H   0  0  0  0  0  0  0  0  0  0  0  0
   62.8180   33.1609   49.3251 H   0  0  0  0  0  0  0  0  0  0  0  0
   63.9582   34.3530   48.5505 H   0  0  0  0  0  0  0  0  0  0  0  0
   64.3940   32.1520   47.1330 H   0  0  0  0  0  0  0  0  0  0  0  0
   63.1576   34.6812   46.9037 H   0  0  0  0  0  0  0  0  0  0  0  0
   64.2270   33.7964   45.7635 H   0  0  0  0  0  0  0  0  0  0  0  0
   62.4584   33.4822   45.7635 H   0  0  0  0  0  0  0  0  0  0  0  0
   61.6468   32.0558   46.6066 H   0  0  0  0  0  0  0  0  0  0  0  0
   62.7337   30.7173   47.2000 H   0  0  0  0  0  0  0  0  0  0  0  0
   61.9627   30.8362   49.3229 H   0  0  0  0  0  0  0  0  0  0  0  0
   61.7886   32.6445   49.2556 H   0  0  0  0  0  0  0  0  0  0  0  0
   59.5460   31.5140   49.4200 H   0  0  0  0  0  0  0  0  0  0  0  0
   60.1432   34.0270   48.2985 H   0  0  0  0  0  0  0  0  0  0  0  0
   60.0455   36.1995   47.0942 H   0  0  0  0  0  0  0  0  0  0  0  0
   59.2742   36.2822   44.7309 H   0  0  0  0  0  0  0  0  0  0  0  0
   58.5145   34.2121   43.5880 H   0  0  0  0  0  0  0  0  0  0  0  0
   56.5263   31.9807   43.6934 H   0  0  0  0  0  0  0  0  0  0  0  0
   57.9403   32.7171   42.8656 H   0  0  0  0  0  0  0  0  0  0  0  0
   57.7281   30.9333   42.8656 H   0  0  0  0  0  0  0  0  0  0  0  0
   58.0517   29.3537   43.5399 H   0  0  0  0  0  0  0  0  0  0  0  0
   57.9107   26.9238   43.4789 H   0  0  0  0  0  0  0  0  0  0  0  0
   58.0921   24.7240   44.6422 H   0  0  0  0  0  0  0  0  0  0  0  0
   58.7346   24.6283   47.0505 H   0  0  0  0  0  0  0  0  0  0  0  0
   59.2206   26.7315   48.3017 H   0  0  0  0  0  0  0  0  0  0  0  0
   59.4142   29.1585   48.3410 H   0  0  0  0  0  0  0  0  0  0  0  0
  1  2  1  0
  2  3  1  0
  3  4  1  0
  3  5  1  0
  5  6  1  0
  6  7  1  0
  7  8  1  0
  8  9  2  0
  9 10  1  0
 10 11  2  0
 11 12  1  0
 12 13  2  0
 13 14  1  0
 14 15  2  0
 15 16  1  0
 15 17  1  0
 17 18  2  0
 18 19  1  0
 19 20  2  0
 20 21  1  0
 21 22  2  0
 22 23  1  0
 23 24  2  0
 24 25  1  0
 25 26  2  0
 26  8  1  0
 14  9  1  0
 26 17  1  0
 24 19  1  0
  1 27  1  0
  1 28  1  0
  1 29  1  0
  2 30  1  0
  2 31  1  0
  3 32  1  6
  4 33  1  0
  4 34  1  0
  4 35  1  0
  5 36  1  0
  5 37  1  0
  6 38  1  0
  6 39  1  0
  7 40  1  0
 10 41  1  0
 11 42  1  0
 12 43  1  0
 13 44  1  0
 16 45  1  0
 16 46  1  0
 16 47  1  0
 18 48  1  0
 20 49  1  0
 21 50  1  0
 22 51  1  0
 23 52  1  0
 25 53  1  0
M  CHG  2   3   1  15   1
M  END
>  <UniqueID>  (9) 
9

>  <SMILES>  (9) 
CC[N@H+](C)CCNc1c2ccccc2[n+](C)c2cc3ccccc3cc12

>  <Energy>  (9) 
86.96627237693104

>  <Genealogy>  (9) 
CC[NH+](C)CCNc1c2ccccc2[n+](C)c2cc3ccccc3cc12 (protonated)
CC[N@H+](C)CCNc1c2ccccc2[n+](C)c2cc3ccccc3cc12 (chirality)
CC[N@H+](C)CCNc1c2ccccc2[n+](C)c2cc3ccccc3cc12 (3D coordinates assigned)
CC[N@H+](C)CCNc1c2ccccc2[n+](C)c2cc3ccccc3cc12 (optimized conformer: 86.96627237693104 kcal/mol)

>  <smiles>  (9) 
CCN(C)CCNc1c2ccccc2[n+](C)c2cc3ccccc3cc12

>  <score_type>  (9) 
oracle

>  <origin>  (9) 
adg

>  <m_score__min__energy>  (9) 
-5.5700000000000003

>  <m_primary>  (9) 
energy

$$$$
9:0
     RDKit          3D

 40 41  0  0  0  0  0  0  0  0999 V2000
   57.7700   28.2130   43.5020 C   0  0  0  0  0  0  0  0  0  0  0  0
   56.8330   29.4100   43.3820 C   0  0  0  0  0  0  0  0  0  0  0  0
   56.6210   30.0170   44.6560 O   0  0  0  0  0  0  0  0  0  0  0  0
   57.3980   31.0480   45.2140 C   0  0  0  0  0  0  0  0  0  0  0  0
   57.2710   32.3930   44.8130 C   0  0  0  0  0  0  0  0  0  0  0  0
   58.0690   33.3810   45.3950 C   0  0  0  0  0  0  0  0  0  0  0  0
   59.0050   33.0460   46.3790 C   0  0  0  0  0  0  0  0  0  0  0  0
   60.0170   34.2990   47.1040 S   0  0  0  0  0  0  0  0  0  0  0  0
   59.2300   35.0190   48.1640 O   0  0  0  0  0  0  0  0  0  0  0  0
   60.3940   35.2980   46.0460 O   0  0  0  0  0  0  0  0  0  0  0  0
   61.4680   33.6290   47.8110 N   0  0  0  0  0  0  0  0  0  0  0  0
   61.7630   34.2820   49.0980 C   0  0  0  0  0  0  0  0  0  0  0  0
   62.9880   33.6340   49.7810 C   0  0  0  0  0  0  0  0  0  0  0  0
   63.7440   32.7710   48.8480 N   0  0  0  0  0  0  0  0  0  0  0  0
   65.0320   32.3830   49.4420 C   0  0  0  0  0  0  0  0  0  0  0  0
   63.9570   33.4610   47.5640 C   0  0  0  0  0  0  0  0  0  0  0  0
   62.6060   33.7600   46.8770 C   0  0  0  0  0  0  0  0  0  0  0  0
   59.1360   31.7120   46.7810 C   0  0  0  0  0  0  0  0  0  0  0  0
   58.3390   30.7180   46.2010 C   0  0  0  0  0  0  0  0  0  0  0  0
   58.5330   29.0520   46.7260 Cl  0  0  0  0  0  0  0  0  0  0  0  0
   57.9450   27.9894   44.5647 H   0  0  0  0  0  0  0  0  0  0  0  0
   57.3132   27.3394   43.0139 H   0  0  0  0  0  0  0  0  0  0  0  0
   58.7277   28.4466   43.0139 H   0  0  0  0  0  0  0  0  0  0  0  0
   57.2779   30.1493   42.6998 H   0  0  0  0  0  0  0  0  0  0  0  0
   55.8652   29.0625   42.9914 H   0  0  0  0  0  0  0  0  0  0  0  0
   56.5399   32.6663   44.0379 H   0  0  0  0  0  0  0  0  0  0  0  0
   57.9606   34.4286   45.0776 H   0  0  0  0  0  0  0  0  0  0  0  0
   61.2810   32.6120   47.9800 H   0  0  0  0  0  0  0  0  0  0  0  0
   61.9718   35.3474   48.9210 H   0  0  0  0  0  0  0  0  0  0  0  0
   60.8911   34.1641   49.7582 H   0  0  0  0  0  0  0  0  0  0  0  0
   63.6530   34.4294   50.1485 H   0  0  0  0  0  0  0  0  0  0  0  0
   62.6260   33.0073   50.6094 H   0  0  0  0  0  0  0  0  0  0  0  0
   64.9520   32.4071   50.5388 H   0  0  0  0  0  0  0  0  0  0  0  0
   65.2947   31.3659   49.1158 H   0  0  0  0  0  0  0  0  0  0  0  0
   65.8128   33.0858   49.1158 H   0  0  0  0  0  0  0  0  0  0  0  0
   64.4875   34.4074   47.7457 H   0  0  0  0  0  0  0  0  0  0  0  0
   64.5531   32.8110   46.9066 H   0  0  0  0  0  0  0  0  0  0  0  0
   62.6269   34.7875   46.4848 H   0  0  0  0  0  0  0  0  0  0  0  0
   62.4672   33.0277   46.0680 H   0  0  0  0  0  0  0  0  0  0  0  0
   59.8686   31.4432   47.5563 H   0  0  0  0  0  0  0  0  0  0  0  0
  1  2  1  0
  2  3  1  0
  3  4  1  0
  4  5  2  0
  5  6  1  0
  6  7  2  0
  7  8  1  0
  8  9  2  0
  8 10  2  0
  8 11  1  0
 11 12  1  0
 12 13  1  0
 13 14  1  0
 14 15  1  0
 14 16  1  0
 16 17  1  0
  7 18  1  0
 18 19  2  0
 19 20  1  0
 19  4  1  0
 17 11  1  0
  1 21  1  0
  1 22  1  0
  1 23  1  0
  2 24  1  0
  2 25  1  0
  5 26  1  0
  6 27  1  0
 11 28  1  0
 12 29  1  0
 12 30  1  0
 13 31  1  0
 13 32  1  0
 15 33  1  0
 15 34  1  0
 15 35  1  0
 16 36  1  0
 16 37  1  0
 17 38  1  0
 17 39  1  0
 18 40  1  0
M  CHG  1  11   1
M  END
>  <UniqueID>  (10) 
10

>  <SMILES>  (10) 
CCOc1ccc(S(=O)(=O)[NH+]2CCN(C)CC2)cc1Cl

>  <Energy>  (10) 
42.61108654949628

>  <Genealogy>  (10) 
CCOc1ccc(S(=O)(=O)[NH+]2CCN(C)CC2)cc1Cl (protonated)
CCOc1ccc(S(=O)(=O)[NH+]2CCN(C)CC2)cc1Cl (3D coordinates assigned)
CCOc1ccc(S(=O)(=O)[NH+]2CCN(C)CC2)cc1Cl (nonaromatic ring conformer: 42.61108654949628 kcal/mol)

>  <smiles>  (10) 
CCOc1ccc(S(=O)(=O)N2CCN(C)CC2)cc1Cl

>  <score_type>  (10) 
oracle

>  <origin>  (10) 
adg

>  <m_score__min__energy>  (10) 
-5.7199999999999998

>  <m_primary>  (10) 
energy

$$$$
10:0
     RDKit          3D

 49 52  0  0  0  0  0  0  0  0999 V2000
   57.4130   27.1880   46.3660 C   0  0  0  0  0  0  0  0  0  0  0  0
   58.5850   27.8740   45.7260 C   0  0  0  0  0  0  0  0  0  0  0  0
   58.5660   29.0460   44.9850 C   0  0  0  0  0  0  0  0  0  0  0  0
   57.3760   29.8790   44.5720 C   0  0  0  0  0  0  0  0  0  0  0  0
   57.3710   31.2350   45.1620 N   0  0  0  0  0  0  0  0  0  0  0  0
   57.5690   32.3310   44.1770 C   0  0  0  0  0  0  0  0  0  0  0  0
   57.6960   33.7260   44.8600 C   0  0  1  0  0  0  0  0  0  0  0  0
   57.1650   33.6500   46.2740 C   0  0  0  0  0  0  0  0  0  0  0  0
   58.2760   32.8180   46.8990 C   0  0  1  0  0  0  0  0  0  0  0  0
   58.1460   31.3480   46.4220 C   0  0  0  0  0  0  0  0  0  0  0  0
   59.5410   33.3600   46.3570 N   0  0  0  0  0  0  0  0  0  0  0  0
   60.2310   34.2480   47.3110 C   0  0  0  0  0  0  0  0  0  0  0  0
   61.5290   33.6260   47.7530 C   0  0  0  0  0  0  0  0  0  0  0  0
   62.2670   34.2140   48.7920 C   0  0  0  0  0  0  0  0  0  0  0  0
   63.4810   33.6450   49.1800 C   0  0  0  0  0  0  0  0  0  0  0  0
   63.9490   32.5010   48.5320 C   0  0  0  0  0  0  0  0  0  0  0  0
   63.1910   31.9420   47.5000 C   0  0  0  0  0  0  0  0  0  0  0  0
   62.0100   32.5080   47.1320 N   0  0  0  0  0  0  0  0  0  0  0  0
   59.1630   34.0690   45.1190 C   0  0  0  0  0  0  0  0  0  0  0  0
   59.8980   29.3330   44.7440 C   0  0  0  0  0  0  0  0  0  0  0  0
   60.6710   28.3860   45.3090 N   0  0  0  0  0  0  0  0  0  0  0  0
   59.8740   27.5130   45.9030 N   0  0  0  0  0  0  0  0  0  0  0  0
   60.3590   26.3570   46.6490 C   0  0  0  0  0  0  0  0  0  0  0  0
   57.5083   27.2438   47.4604 H   0  0  0  0  0  0  0  0  0  0  0  0
   56.4823   27.6839   46.0532 H   0  0  0  0  0  0  0  0  0  0  0  0
   57.3897   26.1337   46.0532 H   0  0  0  0  0  0  0  0  0  0  0  0
   57.3826   29.9762   43.4763 H   0  0  0  0  0  0  0  0  0  0  0  0
   56.4769   29.3630   44.9400 H   0  0  0  0  0  0  0  0  0  0  0  0
   58.4881   32.1318   43.6065 H   0  0  0  0  0  0  0  0  0  0  0  0
   56.6861   32.3571   43.5214 H   0  0  0  0  0  0  0  0  0  0  0  0
   57.1757   34.4378   44.2023 H   0  0  0  0  0  0  0  0  0  0  0  0
   57.0827   34.6439   46.7380 H   0  0  0  0  0  0  0  0  0  0  0  0
   56.1499   33.2391   46.3775 H   0  0  0  0  0  0  0  0  0  0  0  0
   58.2339   32.8533   47.9976 H   0  0  0  0  0  0  0  0  0  0  0  0
   59.1535   30.9388   46.2563 H   0  0  0  0  0  0  0  0  0  0  0  0
   57.6092   30.7862   47.2006 H   0  0  0  0  0  0  0  0  0  0  0  0
   60.4371   35.2133   46.8254 H   0  0  0  0  0  0  0  0  0  0  0  0
   59.5877   34.4004   48.1901 H   0  0  0  0  0  0  0  0  0  0  0  0
   61.8915   35.1164   49.2967 H   0  0  0  0  0  0  0  0  0  0  0  0
   64.0670   34.0968   49.9939 H   0  0  0  0  0  0  0  0  0  0  0  0
   64.9042   32.0444   48.8305 H   0  0  0  0  0  0  0  0  0  0  0  0
   63.5508   31.0403   46.9828 H   0  0  0  0  0  0  0  0  0  0  0  0
   61.4690   32.0700   46.3520 H   0  0  0  0  0  0  0  0  0  0  0  0
   59.2831   35.1546   45.2498 H   0  0  0  0  0  0  0  0  0  0  0  0
   59.7997   33.7668   44.2745 H   0  0  0  0  0  0  0  0  0  0  0  0
   60.2683   30.2007   44.1783 H   0  0  0  0  0  0  0  0  0  0  0  0
   60.2757   26.5555   47.7277 H   0  0  0  0  0  0  0  0  0  0  0  0
   59.7553   25.4744   46.3909 H   0  0  0  0  0  0  0  0  0  0  0  0
   61.4117   26.1694   46.3909 H   0  0  0  0  0  0  0  0  0  0  0  0
  1  2  1  0
  2  3  2  0
  3  4  1  0
  4  5  1  0
  5  6  1  0
  6  7  1  0
  7  8  1  0
  8  9  1  0
  9 10  1  0
  9 11  1  0
 11 12  1  0
 12 13  1  0
 13 14  2  0
 14 15  1  0
 15 16  2  0
 16 17  1  0
 17 18  2  0
 11 19  1  0
  3 20  1  0
 20 21  2  0
 21 22  1  0
 22 23  1  0
 22  2  1  0
 10  5  1  0
 18 13  1  0
 19  7  1  0
  1 24  1  0
  1 25  1  0
  1 26  1  0
  4 27  1  0
  4 28  1  0
  6 29  1  0
  6 30  1  0
  7 31  1  6
  8 32  1  0
  8 33  1  0
  9 34  1  1
 10 35  1  0
 10 36  1  0
 12 37  1  0
 12 38  1  0
 14 39  1  0
 15 40  1  0
 16 41  1  0
 17 42  1  0
 18 43  1  0
 19 44  1  0
 19 45  1  0
 20 46  1  0
 23 47  1  0
 23 48  1  0
 23 49  1  0
M  CHG  1  18   1
M  END
>  <UniqueID>  (11) 
11

>  <SMILES>  (11) 
Cc1c(CN2C[C@H]3C[C@@H](C2)N(Cc2cccc[nH+]2)C3)cnn1C

>  <Energy>  (11) 
102.49747501564873

>  <Genealogy>  (11) 
Cc1c(CN2CC3CC(C2)N(Cc2cccc[nH+]2)C3)cnn1C (protonated)
Cc1c(CN2C[C@H]3C[C@@H](C2)N(Cc2cccc[nH+]2)C3)cnn1C (chirality)
Cc1c(CN2C[C@H]3C[C@@H](C2)N(Cc2cccc[nH+]2)C3)cnn1C (3D coordinates assigned)
Cc1c(CN2C[C@H]3C[C@@H](C2)N(Cc2cccc[nH+]2)C3)cnn1C (nonaromatic ring conformer: 102.49747501564873 kcal/mol)

>  <smiles>  (11) 
Cc1c(CN2CC3CC(C2)N(Cc2ccccn2)C3)cnn1C

>  <score_type>  (11) 
oracle

>  <origin>  (11) 
adg

>  <m_score__min__energy>  (11) 
-6.6600000000000001

>  <m_primary>  (11) 
energy

$$$$
11:0
     RDKit          3D

 42 45  0  0  0  0  0  0  0  0999 V2000
   59.2490   33.1460   45.9990 C   0  0  0  0  0  0  0  0  0  0  0  0
   60.2620   32.5950   46.8930 N   0  0  0  0  0  0  0  0  0  0  0  0
   61.1540   33.3370   47.5220 N   0  0  0  0  0  0  0  0  0  0  0  0
   61.8730   32.4860   48.2820 C   0  0  0  0  0  0  0  0  0  0  0  0
   62.9840   32.9080   49.1620 C   0  0  0  0  0  0  0  0  0  0  0  0
   62.7690   33.8560   50.1780 C   0  0  0  0  0  0  0  0  0  0  0  0
   63.8210   34.2530   51.0100 C   0  0  0  0  0  0  0  0  0  0  0  0
   65.0950   33.7080   50.8360 C   0  0  0  0  0  0  0  0  0  0  0  0
   66.1150   34.0940   51.6420 F   0  0  0  0  0  0  0  0  0  0  0  0
   65.3200   32.7650   49.8290 C   0  0  0  0  0  0  0  0  0  0  0  0
   64.2710   32.3650   48.9950 C   0  0  0  0  0  0  0  0  0  0  0  0
   61.4600   31.2050   48.1540 N   0  0  0  0  0  0  0  0  0  0  0  0
   60.4540   31.3100   47.2620 C   0  0  0  0  0  0  0  0  0  0  0  0
   59.6670   30.1440   46.8040 C   0  0  0  0  0  0  0  0  0  0  0  0
   59.6120   29.7770   45.4530 C   0  0  0  0  0  0  0  0  0  0  0  0
   58.8760   28.6590   45.0560 C   0  0  0  0  0  0  0  0  0  0  0  0
   58.2050   27.8910   46.0240 C   0  0  0  0  0  0  0  0  0  0  0  0
   57.4040   26.6950   45.6560 C   0  0  0  0  0  0  0  0  0  0  0  0
   57.7840   25.9020   44.5610 C   0  0  0  0  0  0  0  0  0  0  0  0
   57.0320   24.7810   44.2060 C   0  0  0  0  0  0  0  0  0  0  0  0
   55.8890   24.4550   44.9450 C   0  0  0  0  0  0  0  0  0  0  0  0
   55.0640   23.2570   44.5780 C   0  0  0  0  0  0  0  0  0  0  0  0
   53.7300   23.5130   44.8350 F   0  0  0  0  0  0  0  0  0  0  0  0
   55.4710   22.1660   45.3260 F   0  0  0  0  0  0  0  0  0  0  0  0
   55.2120   22.9580   43.2340 F   0  0  0  0  0  0  0  0  0  0  0  0
   55.5240   25.2410   45.9930 N   0  0  0  0  0  0  0  0  0  0  0  0
   56.2400   26.3360   46.3620 C   0  0  0  0  0  0  0  0  0  0  0  0
   58.2840   28.2620   47.3320 N   0  0  0  0  0  0  0  0  0  0  0  0
   58.9950   29.3460   47.7400 C   0  0  0  0  0  0  0  0  0  0  0  0
   58.4362   33.5881   46.5940 H   0  0  0  0  0  0  0  0  0  0  0  0
   59.7027   33.9216   45.3645 H   0  0  0  0  0  0  0  0  0  0  0  0
   58.8444   32.3437   45.3645 H   0  0  0  0  0  0  0  0  0  0  0  0
   61.7673   34.2881   50.3194 H   0  0  0  0  0  0  0  0  0  0  0  0
   63.6446   34.9954   51.8023 H   0  0  0  0  0  0  0  0  0  0  0  0
   66.3239   32.3368   49.6923 H   0  0  0  0  0  0  0  0  0  0  0  0
   64.4532   31.6221   48.2045 H   0  0  0  0  0  0  0  0  0  0  0  0
   60.1512   30.3725   44.7016 H   0  0  0  0  0  0  0  0  0  0  0  0
   58.8214   28.3809   43.9931 H   0  0  0  0  0  0  0  0  0  0  0  0
   58.6797   26.1659   43.9796 H   0  0  0  0  0  0  0  0  0  0  0  0
   57.3355   24.1582   43.3516 H   0  0  0  0  0  0  0  0  0  0  0  0
   55.9084   26.9445   47.2163 H   0  0  0  0  0  0  0  0  0  0  0  0
   59.0433   29.5982   48.8096 H   0  0  0  0  0  0  0  0  0  0  0  0
  1  2  1  0
  2  3  1  0
  3  4  2  0
  4  5  1  0
  5  6  2  0
  6  7  1  0
  7  8  2  0
  8  9  1  0
  8 10  1  0
 10 11  2  0
  4 12  1  0
 12 13  2  0
 13 14  1  0
 14 15  2  0
 15 16  1  0
 16 17  2  0
 17 18  1  0
 18 19  2  0
 19 20  1  0
 20 21  2  0
 21 22  1  0
 22 23  1  0
 22 24  1  0
 22 25  1  0
 21 26  1  0
 26 27  2  0
 17 28  1  0
 28 29  2  0
 13  2  1  0
 29 14  1  0
 11  5  1  0
 27 18  1  0
  1 30  1  0
  1 31  1  0
  1 32  1  0
  6 33  1  0
  7 34  1  0
 10 35  1  0
 11 36  1  0
 15 37  1  0
 16 38  1  0
 19 39  1  0
 20 40  1  0
 27 41  1  0
 29 42  1  0
M  END
>  <UniqueID>  (12) 
12

>  <SMILES>  (12) 
Cn1nc(-c2ccc(F)cc2)nc1-c1ccc(-c2ccc(C(F)(F)F)nc2)nc1

>  <Energy>  (12) 
89.20213244819158

>  <Genealogy>  (12) 
Cn1nc(-c2ccc(F)cc2)nc1-c1ccc(-c2ccc(C(F)(F)F)nc2)nc1 (3D coordinates assigned)
Cn1nc(-c2ccc(F)cc2)nc1-c1ccc(-c2ccc(C(F)(F)F)nc2)nc1 (optimized conformer: 89.20213244819158 kcal/mol)

>  <smiles>  (12) 
Cn1nc(-c2ccc(F)cc2)nc1-c1ccc(-c2ccc(C(F)(F)F)nc2)nc1

>  <score_type>  (12) 
oracle

>  <origin>  (12) 
adg

>  <m_score__min__energy>  (12) 
-6.8099999999999996

>  <m_primary>  (12) 
energy

$$$$
12:0
     RDKit          3D

 53 56  0  0  0  0  0  0  0  0999 V2000
   59.7370   33.4810   50.7970 C   0  0  0  0  0  0  0  0  0  0  0  0
   60.2750   34.2970   49.7590 O   0  0  0  0  0  0  0  0  0  0  0  0
   61.3950   33.9580   48.9850 C   0  0  0  0  0  0  0  0  0  0  0  0
   62.6720   33.7800   49.5550 C   0  0  0  0  0  0  0  0  0  0  0  0
   63.7680   33.4640   48.7460 C   0  0  0  0  0  0  0  0  0  0  0  0
   63.6050   33.3220   47.3650 C   0  0  0  0  0  0  0  0  0  0  0  0
   62.3450   33.4910   46.7910 C   0  0  0  0  0  0  0  0  0  0  0  0
   61.2370   33.8000   47.5940 C   0  0  0  0  0  0  0  0  0  0  0  0
   59.9510   33.9780   46.9900 N   0  0  0  0  0  0  0  0  0  0  0  0
   58.8920   33.0140   47.2800 C   0  0  0  0  0  0  0  0  0  0  0  0
   57.6070   33.3380   46.5060 C   0  0  0  0  0  0  0  0  0  0  0  0
   57.8630   33.7460   45.1050 N   0  0  0  0  0  0  0  0  0  0  0  0
   57.7630   32.6620   44.1030 C   0  0  0  0  0  0  0  0  0  0  0  0
   57.4980   31.3090   44.7130 C   0  0  0  0  0  0  0  0  0  0  0  0
   56.3090   30.9060   44.8090 O   0  0  0  0  0  0  0  0  0  0  0  0
   58.5880   30.4770   45.1430 N   0  0  0  0  0  0  0  0  0  0  0  0
   58.4470   29.0720   45.4130 C   0  0  0  0  0  0  0  0  0  0  0  0
   58.5190   28.5660   46.7230 C   0  0  0  0  0  0  0  0  0  0  0  0
   58.3240   27.2060   46.9690 C   0  0  0  0  0  0  0  0  0  0  0  0
   58.0620   26.3280   45.9090 C   0  0  0  0  0  0  0  0  0  0  0  0
   57.8410   24.9650   46.1490 C   0  0  0  0  0  0  0  0  0  0  0  0
   57.5810   24.1000   45.0810 C   0  0  0  0  0  0  0  0  0  0  0  0
   57.5430   24.5890   43.7720 C   0  0  0  0  0  0  0  0  0  0  0  0
   57.7650   25.9450   43.5210 C   0  0  0  0  0  0  0  0  0  0  0  0
   58.0250   26.8220   44.5830 C   0  0  0  0  0  0  0  0  0  0  0  0
   58.2370   28.1870   44.3440 C   0  0  0  0  0  0  0  0  0  0  0  0
   58.9660   34.7130   44.8740 C   0  0  0  0  0  0  0  0  0  0  0  0
   59.6750   35.1480   46.1610 C   0  0  0  0  0  0  0  0  0  0  0  0
   60.0142   33.9015   51.7749 H   0  0  0  0  0  0  0  0  0  0  0  0
   58.6410   33.4503   50.7085 H   0  0  0  0  0  0  0  0  0  0  0  0
   60.1407   32.4616   50.7085 H   0  0  0  0  0  0  0  0  0  0  0  0
   62.8069   33.8902   50.6411 H   0  0  0  0  0  0  0  0  0  0  0  0
   64.7615   33.3268   49.1978 H   0  0  0  0  0  0  0  0  0  0  0  0
   64.4700   33.0771   46.7312 H   0  0  0  0  0  0  0  0  0  0  0  0
   62.2196   33.3815   45.7037 H   0  0  0  0  0  0  0  0  0  0  0  0
   59.2364   32.0088   46.9956 H   0  0  0  0  0  0  0  0  0  0  0  0
   58.6675   33.0621   48.3558 H   0  0  0  0  0  0  0  0  0  0  0  0
   56.9668   32.4436   46.4993 H   0  0  0  0  0  0  0  0  0  0  0  0
   57.1224   34.1857   47.0125 H   0  0  0  0  0  0  0  0  0  0  0  0
   56.9413   32.9003   43.4116 H   0  0  0  0  0  0  0  0  0  0  0  0
   58.7335   32.6031   43.5886 H   0  0  0  0  0  0  0  0  0  0  0  0
   59.5570   30.8570   45.0370 H   0  0  0  0  0  0  0  0  0  0  0  0
   58.7306   29.2472   47.5603 H   0  0  0  0  0  0  0  0  0  0  0  0
   58.3762   26.8222   47.9985 H   0  0  0  0  0  0  0  0  0  0  0  0
   57.8720   24.5755   47.1773 H   0  0  0  0  0  0  0  0  0  0  0  0
   57.4058   23.0310   45.2719 H   0  0  0  0  0  0  0  0  0  0  0  0
   57.3375   23.9035   42.9366 H   0  0  0  0  0  0  0  0  0  0  0  0
   57.7358   26.3249   42.4891 H   0  0  0  0  0  0  0  0  0  0  0  0
   58.2388   28.5670   43.3117 H   0  0  0  0  0  0  0  0  0  0  0  0
   59.7068   34.2444   44.2094 H   0  0  0  0  0  0  0  0  0  0  0  0
   58.5191   35.6145   44.4294 H   0  0  0  0  0  0  0  0  0  0  0  0
   60.6215   35.6472   45.9063 H   0  0  0  0  0  0  0  0  0  0  0  0
   59.0284   35.8436   46.7160 H   0  0  0  0  0  0  0  0  0  0  0  0
  1  2  1  0
  2  3  1  0
  3  4  2  0
  4  5  1  0
  5  6  2  0
  6  7  1  0
  7  8  2  0
  8  9  1  0
  9 10  1  0
 10 11  1  0
 11 12  1  0
 12 13  1  0
 13 14  1  0
 14 15  2  0
 14 16  1  0
 16 17  1  0
 17 18  2  0
 18 19  1  0
 19 20  2  0
 20 21  1  0
 21 22  2  0
 22 23  1  0
 23 24  2  0
 24 25  1  0
 25 26  2  0
 12 27  1  0
 27 28  1  0
  8  3  1  0
 28  9  1  0
 26 17  1  0
 25 20  1  0
  1 29  1  0
  1 30  1  0
  1 31  1  0
  4 32  1  0
  5 33  1  0
  6 34  1  0
  7 35  1  0
 10 36  1  0
 10 37  1  0
 11 38  1  0
 11 39  1  0
 13 40  1  0
 13 41  1  0
 16 42  1  0
 18 43  1  0
 19 44  1  0
 21 45  1  0
 22 46  1  0
 23 47  1  0
 24 48  1  0
 26 49  1  0
 27 50  1  0
 27 51  1  0
 28 52  1  0
 28 53  1  0
M  END
>  <UniqueID>  (13) 
13

>  <SMILES>  (13) 
COc1ccccc1N1CCN(CC(=O)Nc2ccc3ccccc3c2)CC1

>  <Energy>  (13) 
74.70445233215793

>  <Genealogy>  (13) 
COc1ccccc1N1CCN(CC(=O)Nc2ccc3ccccc3c2)CC1 (3D coordinates assigned)
COc1ccccc1N1CCN(CC(=O)Nc2ccc3ccccc3c2)CC1 (nonaromatic ring conformer: 74.70445233215793 kcal/mol)

>  <smiles>  (13) 
COc1ccccc1N1CCN(CC(=O)Nc2ccc3ccccc3c2)CC1

>  <score_type>  (13) 
oracle

>  <origin>  (13) 
adg

>  <m_score__min__energy>  (13) 
-9.1099999999999994

>  <m_primary>  (13) 
energy

$$$$
13:0
     RDKit          3D

 57 60  0  0  0  0  0  0  0  0999 V2000
   58.0320   27.4260   46.6590 C   0  0  0  0  0  0  0  0  0  0  0  0
   57.7760   28.7090   46.0120 N   0  0  0  0  0  0  0  0  0  0  0  0
   56.7280   29.0080   45.2200 C   0  0  0  0  0  0  0  0  0  0  0  0
   56.6990   30.3090   44.8620 N   0  0  0  0  0  0  0  0  0  0  0  0
   57.7750   30.8490   45.4700 C   0  0  0  0  0  0  0  0  0  0  0  0
   58.4330   29.8710   46.1860 C   0  0  0  0  0  0  0  0  0  0  0  0
   59.6760   30.0610   47.0190 C   0  0  0  0  0  0  0  0  0  0  0  0
   59.3940   29.9520   48.4720 N   0  0  0  0  0  0  0  0  0  0  0  0
   59.4950   31.2910   49.1070 C   0  0  0  0  0  0  0  0  0  0  0  0
   59.7580   31.1810   50.6160 C   0  0  0  0  0  0  0  0  0  0  0  0
   61.0520   30.5130   50.9080 N   0  0  0  0  0  0  0  0  0  0  0  0
   62.1120   31.5000   51.2090 C   0  0  0  0  0  0  0  0  0  0  0  0
   63.3870   31.2240   50.3950 C   0  0  0  0  0  0  0  0  0  0  0  0
   64.4050   32.3640   50.5280 C   0  0  0  0  0  0  0  0  0  0  0  0
   64.0910   33.4500   49.6530 O   0  0  0  0  0  0  0  0  0  0  0  0
   62.9540   33.5360   48.8320 C   0  0  0  0  0  0  0  0  0  0  0  0
   61.8200   34.1750   49.3410 C   0  0  0  0  0  0  0  0  0  0  0  0
   60.6600   34.2940   48.5720 C   0  0  0  0  0  0  0  0  0  0  0  0
   60.6110   33.7690   47.2670 C   0  0  0  0  0  0  0  0  0  0  0  0
   59.3840   33.8870   46.4380 C   0  0  0  0  0  0  0  0  0  0  0  0
   59.3170   34.1680   45.0720 C   0  0  0  0  0  0  0  0  0  0  0  0
   58.0100   34.2130   44.5700 C   0  0  0  0  0  0  0  0  0  0  0  0
   57.0340   33.9690   45.5250 C   0  0  0  0  0  0  0  0  0  0  0  0
   57.8020   33.6960   46.9930 S   0  0  0  0  0  0  0  0  0  0  0  0
   61.7500   33.1170   46.7600 C   0  0  0  0  0  0  0  0  0  0  0  0
   62.9090   33.0000   47.5320 C   0  0  0  0  0  0  0  0  0  0  0  0
   61.4710   29.5690   49.8400 C   0  0  0  0  0  0  0  0  0  0  0  0
   60.2620   28.9350   49.1330 C   0  0  0  0  0  0  0  0  0  0  0  0
   58.0064   27.5545   47.7512 H   0  0  0  0  0  0  0  0  0  0  0  0
   57.2605   26.7025   46.3567 H   0  0  0  0  0  0  0  0  0  0  0  0
   59.0221   27.0540   46.3567 H   0  0  0  0  0  0  0  0  0  0  0  0
   55.9768   28.2711   44.8996 H   0  0  0  0  0  0  0  0  0  0  0  0
   58.0799   31.9039   45.4050 H   0  0  0  0  0  0  0  0  0  0  0  0
   60.4108   29.2910   46.7412 H   0  0  0  0  0  0  0  0  0  0  0  0
   60.0648   31.0712   46.8234 H   0  0  0  0  0  0  0  0  0  0  0  0
   58.4020   29.6350   48.5910 H   0  0  0  0  0  0  0  0  0  0  0  0
   60.3216   31.8465   48.6399 H   0  0  0  0  0  0  0  0  0  0  0  0
   58.5387   31.8147   48.9610 H   0  0  0  0  0  0  0  0  0  0  0  0
   59.7750   32.1924   51.0482 H   0  0  0  0  0  0  0  0  0  0  0  0
   58.9546   30.5731   51.0575 H   0  0  0  0  0  0  0  0  0  0  0  0
   61.7427   32.5069   50.9643 H   0  0  0  0  0  0  0  0  0  0  0  0
   62.3615   31.4232   52.2776 H   0  0  0  0  0  0  0  0  0  0  0  0
   63.8462   30.2924   50.7573 H   0  0  0  0  0  0  0  0  0  0  0  0
   63.1047   31.1392   49.3352 H   0  0  0  0  0  0  0  0  0  0  0  0
   64.4005   32.7282   51.5660 H   0  0  0  0  0  0  0  0  0  0  0  0
   65.3970   31.9753   50.2543 H   0  0  0  0  0  0  0  0  0  0  0  0
   61.8412   34.5893   50.3598 H   0  0  0  0  0  0  0  0  0  0  0  0
   59.7781   34.8019   48.9895 H   0  0  0  0  0  0  0  0  0  0  0  0
   60.2071   34.3381   44.4485 H   0  0  0  0  0  0  0  0  0  0  0  0
   57.7788   34.4226   43.5152 H   0  0  0  0  0  0  0  0  0  0  0  0
   55.9479   33.9565   45.3512 H   0  0  0  0  0  0  0  0  0  0  0  0
   61.7280   32.6946   45.7446 H   0  0  0  0  0  0  0  0  0  0  0  0
   63.7906   32.4862   47.1211 H   0  0  0  0  0  0  0  0  0  0  0  0
   62.0718   30.1149   49.0977 H   0  0  0  0  0  0  0  0  0  0  0  0
   62.0564   28.7628   50.3062 H   0  0  0  0  0  0  0  0  0  0  0  0
   60.6274   28.2322   48.3697 H   0  0  0  0  0  0  0  0  0  0  0  0
   59.6577   28.4221   49.8957 H   0  0  0  0  0  0  0  0  0  0  0  0
  1  2  1  0
  2  3  1  0
  3  4  2  0
  4  5  1  0
  5  6  2  0
  6  7  1  0
  7  8  1  0
  8  9  1  0
  9 10  1  0
 10 11  1  0
 11 12  1  0
 12 13  1  0
 13 14  1  0
 14 15  1  0
 15 16  1  0
 16 17  2  0
 17 18  1  0
 18 19  2  0
 19 20  1  0
 20 21  2  0
 21 22  1  0
 22 23  2  0
 23 24  1  0
 19 25  1  0
 25 26  2  0
 11 27  1  0
 27 28  1  0
  6  2  1  0
 28  8  1  0
 26 16  1  0
 24 20  1  0
  1 29  1  0
  1 30  1  0
  1 31  1  0
  3 32  1  0
  5 33  1  0
  7 34  1  0
  7 35  1  0
  8 36  1  0
  9 37  1  0
  9 38  1  0
 10 39  1  0
 10 40  1  0
 12 41  1  0
 12 42  1  0
 13 43  1  0
 13 44  1  0
 14 45  1  0
 14 46  1  0
 17 47  1  0
 18 48  1  0
 21 49  1  0
 22 50  1  0
 23 51  1  0
 25 52  1  0
 26 53  1  0
 27 54  1  0
 27 55  1  0
 28 56  1  0
 28 57  1  0
M  CHG  1   8   1
M  END
>  <UniqueID>  (14) 
14

>  <SMILES>  (14) 
Cn1cncc1C[NH+]1CCN(CCCOc2ccc(-c3cccs3)cc2)CC1

>  <Energy>  (14) 
128.37928947549892

>  <Genealogy>  (14) 
Cn1cncc1C[NH+]1CCN(CCCOc2ccc(-c3cccs3)cc2)CC1 (protonated)
Cn1cncc1C[NH+]1CCN(CCCOc2ccc(-c3cccs3)cc2)CC1 (3D coordinates assigned)
Cn1cncc1C[NH+]1CCN(CCCOc2ccc(-c3cccs3)cc2)CC1 (nonaromatic ring conformer: 128.37928947549892 kcal/mol)

>  <smiles>  (14) 
Cn1cncc1CN1CCN(CCCOc2ccc(-c3cccs3)cc2)CC1

>  <score_type>  (14) 
oracle

>  <origin>  (14) 
adg

>  <m_score__min__energy>  (14) 
-6.4299999999999997

>  <m_primary>  (14) 
energy

$$$$
14:0
     RDKit          3D

 42 43  0  0  0  0  0  0  0  0999 V2000
   56.3500   20.2010   45.5950 C   0  0  0  0  0  0  0  0  0  0  0  0
   56.6070   20.3620   44.0990 C   0  0  0  0  0  0  0  0  0  0  0  0
   55.9250   21.5080   43.5890 O   0  0  0  0  0  0  0  0  0  0  0  0
   55.9040   22.7800   44.1840 C   0  0  0  0  0  0  0  0  0  0  0  0
   57.0160   23.6450   44.1810 C   0  0  0  0  0  0  0  0  0  0  0  0
   56.9320   24.9060   44.7830 C   0  0  0  0  0  0  0  0  0  0  0  0
   55.7280   25.3290   45.3750 C   0  0  0  0  0  0  0  0  0  0  0  0
   55.5850   26.6220   45.9820 N   0  0  0  0  0  0  0  0  0  0  0  0
   56.2750   27.8270   45.6210 C   0  0  0  0  0  0  0  0  0  0  0  0
   57.5310   27.8810   45.6380 O   0  0  0  0  0  0  0  0  0  0  0  0
   55.5400   28.9660   45.1700 N   0  0  0  0  0  0  0  0  0  0  0  0
   55.9120   29.7690   44.0090 C   0  0  0  0  0  0  0  0  0  0  0  0
   57.3020   30.4200   44.1920 C   0  0  0  0  0  0  0  0  0  0  0  0
   57.3550   31.5170   45.1860 N   0  0  0  0  0  0  0  0  0  0  0  0
   58.3800   31.3460   46.2270 C   0  0  0  0  0  0  0  0  0  0  0  0
   58.1820   32.4080   47.3310 C   0  0  0  0  0  0  0  0  0  0  0  0
   57.3530   33.4870   46.9240 O   0  0  0  0  0  0  0  0  0  0  0  0
   57.7300   33.9340   45.6370 C   0  0  0  0  0  0  0  0  0  0  0  0
   57.3970   32.8640   44.5800 C   0  0  0  0  0  0  0  0  0  0  0  0
   54.6340   24.4570   45.3970 C   0  0  0  0  0  0  0  0  0  0  0  0
   54.7190   23.1980   44.7990 C   0  0  0  0  0  0  0  0  0  0  0  0
   57.1496   20.7019   46.1604 H   0  0  0  0  0  0  0  0  0  0  0  0
   55.3808   20.6537   45.8513 H   0  0  0  0  0  0  0  0  0  0  0  0
   56.3344   19.1314   45.8513 H   0  0  0  0  0  0  0  0  0  0  0  0
   57.6874   20.4798   43.9291 H   0  0  0  0  0  0  0  0  0  0  0  0
   56.2333   19.4680   43.5783 H   0  0  0  0  0  0  0  0  0  0  0  0
   57.9548   23.3280   43.7033 H   0  0  0  0  0  0  0  0  0  0  0  0
   57.8102   25.5683   44.7932 H   0  0  0  0  0  0  0  0  0  0  0  0
   55.9346   29.1222   43.1195 H   0  0  0  0  0  0  0  0  0  0  0  0
   55.1682   30.5709   43.8915 H   0  0  0  0  0  0  0  0  0  0  0  0
   58.0060   29.6370   44.5104 H   0  0  0  0  0  0  0  0  0  0  0  0
   57.5593   30.8717   43.2226 H   0  0  0  0  0  0  0  0  0  0  0  0
   58.2915   30.3412   46.6659 H   0  0  0  0  0  0  0  0  0  0  0  0
   59.3776   31.4668   45.7797 H   0  0  0  0  0  0  0  0  0  0  0  0
   57.7218   31.9232   48.2046 H   0  0  0  0  0  0  0  0  0  0  0  0
   59.1722   32.8256   47.5657 H   0  0  0  0  0  0  0  0  0  0  0  0
   57.1849   34.8597   45.4004 H   0  0  0  0  0  0  0  0  0  0  0  0
   58.8139   34.1215   45.6269 H   0  0  0  0  0  0  0  0  0  0  0  0
   56.4161   33.0896   44.1362 H   0  0  0  0  0  0  0  0  0  0  0  0
   58.1810   32.8772   43.8085 H   0  0  0  0  0  0  0  0  0  0  0  0
   53.6999   24.7656   45.8891 H   0  0  0  0  0  0  0  0  0  0  0  0
   53.8461   22.5287   44.8116 H   0  0  0  0  0  0  0  0  0  0  0  0
  1  2  1  0
  2  3  1  0
  3  4  1  0
  4  5  2  0
  5  6  1  0
  6  7  2  0
  7  8  1  0
  8  9  1  0
  9 10  2  0
  9 11  1  0
 11 12  1  0
 12 13  1  0
 13 14  1  0
 14 15  1  0
 15 16  1  0
 16 17  1  0
 17 18  1  0
 18 19  1  0
  7 20  1  0
 20 21  2  0
 21  4  1  0
 19 14  1  0
  1 22  1  0
  1 23  1  0
  1 24  1  0
  2 25  1  0
  2 26  1  0
  5 27  1  0
  6 28  1  0
 12 29  1  0
 12 30  1  0
 13 31  1  0
 13 32  1  0
 15 33  1  0
 15 34  1  0
 16 35  1  0
 16 36  1  0
 18 37  1  0
 18 38  1  0
 19 39  1  0
 19 40  1  0
 20 41  1  0
 21 42  1  0
M  CHG  2   8  -1  11  -1
M  END
>  <UniqueID>  (15) 
15

>  <SMILES>  (15) 
CCOc1ccc([N-]C(=O)[N-]CCN2CCOCC2)cc1

>  <Energy>  (15) 
52.866367413247445

>  <Genealogy>  (15) 
CCOc1ccc([N-]C(=O)[N-]CCN2CCOCC2)cc1 (protonated)
CCOc1ccc([N-]C(=O)[N-]CCN2CCOCC2)cc1 (3D coordinates assigned)
CCOc1ccc([N-]C(=O)[N-]CCN2CCOCC2)cc1 (nonaromatic ring conformer: 52.866367413247445 kcal/mol)

>  <smiles>  (15) 
CCOc1ccc(NC(=O)NCCN2CCOCC2)cc1

>  <score_type>  (15) 
oracle

>  <origin>  (15) 
adg

>  <m_score__min__energy>  (15) 
-10.59

>  <m_primary>  (15) 
energy

$$$$
15:0
     RDKit          3D

 27 28  0  0  0  0  0  0  0  0999 V2000
   58.1370   27.7650   45.4090 C   0  0  0  0  0  0  0  0  0  0  0  0
   56.6580   27.4730   45.6330 C   0  0  0  0  0  0  0  0  0  0  0  0
   55.8570   28.5780   45.2130 O   0  0  0  0  0  0  0  0  0  0  0  0
   56.3670   29.7120   44.5710 C   0  0  0  0  0  0  0  0  0  0  0  0
   56.4920   29.9080   43.2050 C   0  0  0  0  0  0  0  0  0  0  0  0
   57.0310   31.1690   43.0610 C   0  0  0  0  0  0  0  0  0  0  0  0
   57.1990   31.6540   44.3440 C   0  0  0  0  0  0  0  0  0  0  0  0
   57.7230   33.0080   44.7020 C   0  0  0  0  0  0  0  0  0  0  0  0
   58.7780   32.8800   45.7020 N   0  0  0  0  0  0  0  0  0  0  0  0
   59.9590   33.5290   45.6990 C   0  0  0  0  0  0  0  0  0  0  0  0
   60.7010   33.0680   46.7670 C   0  0  0  0  0  0  0  0  0  0  0  0
   62.4610   33.6070   47.2630 Br  0  0  0  0  0  0  0  0  0  0  0  0
   59.9120   32.1170   47.3860 C   0  0  0  0  0  0  0  0  0  0  0  0
   58.7530   32.0230   46.7120 N   0  0  0  0  0  0  0  0  0  0  0  0
   56.7900   30.7700   45.2230 O   0  0  0  0  0  0  0  0  0  0  0  0
   58.6423   27.8648   46.3809 H   0  0  0  0  0  0  0  0  0  0  0  0
   58.5920   26.9394   44.8422 H   0  0  0  0  0  0  0  0  0  0  0  0
   58.2441   28.7016   44.8422 H   0  0  0  0  0  0  0  0  0  0  0  0
   56.3743   26.5809   45.0553 H   0  0  0  0  0  0  0  0  0  0  0  0
   56.4896   27.3014   46.7064 H   0  0  0  0  0  0  0  0  0  0  0  0
   56.2187   29.2054   42.4039 H   0  0  0  0  0  0  0  0  0  0  0  0
   57.2764   31.6825   42.1197 H   0  0  0  0  0  0  0  0  0  0  0  0
   58.1296   33.4922   43.8019 H   0  0  0  0  0  0  0  0  0  0  0  0
   56.9047   33.6177   45.1126 H   0  0  0  0  0  0  0  0  0  0  0  0
   60.2758   34.2921   44.9728 H   0  0  0  0  0  0  0  0  0  0  0  0
   60.1861   31.5357   48.2787 H   0  0  0  0  0  0  0  0  0  0  0  0
   57.9630   31.3750   46.9290 H   0  0  0  0  0  0  0  0  0  0  0  0
  1  2  1  0
  2  3  1  0
  3  4  1  0
  4  5  2  0
  5  6  1  0
  6  7  2  0
  7  8  1  0
  8  9  1  0
  9 10  1  0
 10 11  2  0
 11 12  1  0
 11 13  1  0
 13 14  2  0
  7 15  1  0
 15  4  1  0
 14  9  1  0
  1 16  1  0
  1 17  1  0
  1 18  1  0
  2 19  1  0
  2 20  1  0
  5 21  1  0
  6 22  1  0
  8 23  1  0
  8 24  1  0
 10 25  1  0
 13 26  1  0
 14 27  1  0
M  CHG  1  14   1
M  END
>  <UniqueID>  (16) 
16

>  <SMILES>  (16) 
CCOc1ccc(Cn2cc(Br)c[nH+]2)o1

>  <Energy>  (16) 
77.91671244291572

>  <Genealogy>  (16) 
CCOc1ccc(Cn2cc(Br)c[nH+]2)o1 (protonated)
CCOc1ccc(Cn2cc(Br)c[nH+]2)o1 (3D coordinates assigned)
CCOc1ccc(Cn2cc(Br)c[nH+]2)o1 (optimized conformer: 77.91671244291572 kcal/mol)

>  <smiles>  (16) 
CCOc1ccc(Cn2cc(Br)cn2)o1

>  <score_type>  (16) 
oracle

>  <origin>  (16) 
adg

>  <m_score__min__energy>  (16) 
-4.8899999999999997

>  <m_primary>  (16) 
energy

$$$$
16:0
     RDKit          3D

 62 65  0  0  0  0  0  0  0  0999 V2000
   58.2870   33.6020   52.3820 C   0  0  0  0  0  0  0  0  0  0  0  0
   59.7160   33.5930   51.8550 C   0  0  0  0  0  0  0  0  0  0  0  0
   60.2330   32.2600   51.8190 O   0  0  0  0  0  0  0  0  0  0  0  0
   60.1700   31.3920   50.7170 C   0  0  0  0  0  0  0  0  0  0  0  0
   58.9200   30.8910   50.3420 C   0  0  0  0  0  0  0  0  0  0  0  0
   58.7900   30.0690   49.2210 C   0  0  0  0  0  0  0  0  0  0  0  0
   59.9190   29.7180   48.4540 C   0  0  0  0  0  0  0  0  0  0  0  0
   59.7850   28.9810   47.2160 N   0  0  0  0  0  0  0  0  0  0  0  0
   60.5930   29.3710   46.0430 C   0  0  0  0  0  0  0  0  0  0  0  0
   59.7280   29.4020   44.7700 C   0  0  0  0  0  0  0  0  0  0  0  0
   58.3320   29.6990   45.1280 N   0  0  0  0  0  0  0  0  0  0  0  0
   57.6750   30.9270   44.7410 C   0  0  0  0  0  0  0  0  0  0  0  0
   56.4140   30.9730   44.7040 O   0  0  0  0  0  0  0  0  0  0  0  0
   58.4470   32.1790   44.4140 C   0  0  0  0  0  0  0  0  0  0  0  0
   57.8180   33.3640   45.0360 N   0  0  0  0  0  0  0  0  0  0  0  0
   57.3940   33.0940   46.4270 C   0  0  0  0  0  0  0  0  0  0  0  0
   58.6020   32.9300   47.3660 C   0  0  0  0  0  0  0  0  0  0  0  0
   59.6510   33.9040   47.0400 N   0  0  0  0  0  0  0  0  0  0  0  0
   61.0000   33.7030   47.5110 C   0  0  0  0  0  0  0  0  0  0  0  0
   61.4020   34.2190   48.7580 C   0  0  0  0  0  0  0  0  0  0  0  0
   62.7020   34.0070   49.2240 C   0  0  0  0  0  0  0  0  0  0  0  0
   63.6150   33.2820   48.4510 C   0  0  0  0  0  0  0  0  0  0  0  0
   64.8780   33.0820   48.9020 F   0  0  0  0  0  0  0  0  0  0  0  0
   63.2250   32.7590   47.2150 C   0  0  0  0  0  0  0  0  0  0  0  0
   61.9200   32.9570   46.7520 C   0  0  0  0  0  0  0  0  0  0  0  0
   59.2970   35.0610   46.2130 C   0  0  0  0  0  0  0  0  0  0  0  0
   58.6440   34.5940   44.9010 C   0  0  0  0  0  0  0  0  0  0  0  0
   57.6420   28.7670   46.0400 C   0  0  0  0  0  0  0  0  0  0  0  0
   58.6510   28.0770   46.9740 C   0  0  0  0  0  0  0  0  0  0  0  0
   61.1800   30.1820   48.8640 C   0  0  0  0  0  0  0  0  0  0  0  0
   61.3060   31.0170   49.9790 C   0  0  0  0  0  0  0  0  0  0  0  0
   58.3018   33.6019   53.4819 H   0  0  0  0  0  0  0  0  0  0  0  0
   57.7692   34.5034   52.0224 H   0  0  0  0  0  0  0  0  0  0  0  0
   57.7579   32.7072   52.0224 H   0  0  0  0  0  0  0  0  0  0  0  0
   59.7286   34.0128   50.8383 H   0  0  0  0  0  0  0  0  0  0  0  0
   60.3441   34.1980   52.5255 H   0  0  0  0  0  0  0  0  0  0  0  0
   58.0302   31.1469   50.9359 H   0  0  0  0  0  0  0  0  0  0  0  0
   57.7974   29.6919   48.9338 H   0  0  0  0  0  0  0  0  0  0  0  0
   61.0186   30.3708   46.2144 H   0  0  0  0  0  0  0  0  0  0  0  0
   61.3959   28.6317   45.9061 H   0  0  0  0  0  0  0  0  0  0  0  0
   60.1050   30.1804   44.0903 H   0  0  0  0  0  0  0  0  0  0  0  0
   59.7766   28.4225   44.2718 H   0  0  0  0  0  0  0  0  0  0  0  0
   59.4752   32.0771   44.7915 H   0  0  0  0  0  0  0  0  0  0  0  0
   58.4503   32.3150   43.3224 H   0  0  0  0  0  0  0  0  0  0  0  0
   56.7777   33.9333   46.7816 H   0  0  0  0  0  0  0  0  0  0  0  0
   56.8215   32.1548   46.4359 H   0  0  0  0  0  0  0  0  0  0  0  0
   58.2753   33.0858   48.4047 H   0  0  0  0  0  0  0  0  0  0  0  0
   59.0107   31.9164   47.2414 H   0  0  0  0  0  0  0  0  0  0  0  0
   60.6887   34.7921   49.3685 H   0  0  0  0  0  0  0  0  0  0  0  0
   63.0080   34.4109   50.2003 H   0  0  0  0  0  0  0  0  0  0  0  0
   63.9444   32.1916   46.6062 H   0  0  0  0  0  0  0  0  0  0  0  0
   61.6111   32.5265   45.7880 H   0  0  0  0  0  0  0  0  0  0  0  0
   58.5904   35.6992   46.7639 H   0  0  0  0  0  0  0  0  0  0  0  0
   60.2098   35.6282   45.9784 H   0  0  0  0  0  0  0  0  0  0  0  0
   57.9990   35.4038   44.5292 H   0  0  0  0  0  0  0  0  0  0  0  0
   59.4635   34.3505   44.2088 H   0  0  0  0  0  0  0  0  0  0  0  0
   56.9132   29.3263   46.6450 H   0  0  0  0  0  0  0  0  0  0  0  0
   57.1300   27.9990   45.4416 H   0  0  0  0  0  0  0  0  0  0  0  0
   58.1623   27.8364   47.9296 H   0  0  0  0  0  0  0  0  0  0  0  0
   59.0122   27.1494   46.5059 H   0  0  0  0  0  0  0  0  0  0  0  0
   62.0780   29.8854   48.3021 H   0  0  0  0  0  0  0  0  0  0  0  0
   62.2991   31.3821   50.2799 H   0  0  0  0  0  0  0  0  0  0  0  0
  1  2  1  0
  2  3  1  0
  3  4  1  0
  4  5  2  0
  5  6  1  0
  6  7  2  0
  7  8  1  0
  8  9  1  0
  9 10  1  0
 10 11  1  0
 11 12  1  0
 12 13  2  0
 12 14  1  0
 14 15  1  0
 15 16  1  0
 16 17  1  0
 17 18  1  0
 18 19  1  0
 19 20  2  0
 20 21  1  0
 21 22  2  0
 22 23  1  0
 22 24  1  0
 24 25  2  0
 18 26  1  0
 26 27  1  0
 11 28  1  0
 28 29  1  0
  7 30  1  0
 30 31  2  0
 31  4  1  0
 29  8  1  0
 27 15  1  0
 25 19  1  0
  1 32  1  0
  1 33  1  0
  1 34  1  0
  2 35  1  0
  2 36  1  0
  5 37  1  0
  6 38  1  0
  9 39  1  0
  9 40  1  0
 10 41  1  0
 10 42  1  0
 14 43  1  0
 14 44  1  0
 16 45  1  0
 16 46  1  0
 17 47  1  0
 17 48  1  0
 20 49  1  0
 21 50  1  0
 24 51  1  0
 25 52  1  0
 26 53  1  0
 26 54  1  0
 27 55  1  0
 27 56  1  0
 28 57  1  0
 28 58  1  0
 29 59  1  0
 29 60  1  0
 30 61  1  0
 31 62  1  0
M  END
>  <UniqueID>  (17) 
17

>  <SMILES>  (17) 
CCOc1ccc(N2CCN(C(=O)CN3CCN(c4ccc(F)cc4)CC3)CC2)cc1

>  <Energy>  (17) 
80.66957839252107

>  <Genealogy>  (17) 
CCOc1ccc(N2CCN(C(=O)CN3CCN(c4ccc(F)cc4)CC3)CC2)cc1 (3D coordinates assigned)
CCOc1ccc(N2CCN(C(=O)CN3CCN(c4ccc(F)cc4)CC3)CC2)cc1 (nonaromatic ring conformer: 80.66957839252107 kcal/mol)

>  <smiles>  (17) 
CCOc1ccc(N2CCN(C(=O)CN3CCN(c4ccc(F)cc4)CC3)CC2)cc1

>  <score_type>  (17) 
oracle

>  <origin>  (17) 
adg

>  <m_score__min__energy>  (17) 
-8.1099999999999994

>  <m_primary>  (17) 
energy

$$$$
17:0
     RDKit          3D

 52 54  0  0  0  0  0  0  0  0999 V2000
   61.5580   33.8760   46.3040 C   0  0  0  0  0  0  0  0  0  0  0  0
   63.0720   33.8180   46.5090 C   0  0  0  0  0  0  0  0  0  0  0  0
   63.4980   32.6560   47.4320 C   0  0  0  0  0  0  0  0  0  0  0  0
   63.4850   33.0300   48.8680 N   0  0  0  0  0  0  0  0  0  0  0  0
   63.9740   31.9970   49.8130 C   0  0  0  0  0  0  0  0  0  0  0  0
   65.4140   32.2160   50.2850 C   0  0  0  0  0  0  0  0  0  0  0  0
   62.2920   33.7780   49.3570 C   0  0  0  0  0  0  0  0  0  0  0  0
   61.0530   32.9350   49.5880 C   0  0  0  0  0  0  0  0  0  0  0  0
   60.0780   33.3520   50.5090 C   0  0  0  0  0  0  0  0  0  0  0  0
   58.9240   32.5920   50.7080 C   0  0  0  0  0  0  0  0  0  0  0  0
   58.7290   31.4110   49.9910 C   0  0  0  0  0  0  0  0  0  0  0  0
   59.6900   30.9730   49.0640 C   0  0  0  0  0  0  0  0  0  0  0  0
   59.4770   29.7230   48.2880 C   0  0  0  0  0  0  0  0  0  0  0  0
   60.1540   28.5410   48.6370 C   0  0  0  0  0  0  0  0  0  0  0  0
   59.9540   27.3680   47.9040 C   0  0  0  0  0  0  0  0  0  0  0  0
   59.0840   27.3620   46.8110 C   0  0  0  0  0  0  0  0  0  0  0  0
   58.4150   28.5380   46.4360 C   0  0  0  0  0  0  0  0  0  0  0  0
   57.5010   28.5600   45.3310 N   0  0  0  0  0  0  0  0  0  0  0  0
   56.7160   29.6850   44.9140 C   0  0  0  0  0  0  0  0  0  0  0  0
   55.4620   29.5730   44.8930 O   0  0  0  0  0  0  0  0  0  0  0  0
   57.3300   30.9840   44.5810 C   0  0  0  0  0  0  0  0  0  0  0  0
   57.6100   31.4390   43.2950 C   0  0  0  0  0  0  0  0  0  0  0  0
   58.1390   32.7340   43.2670 C   0  0  0  0  0  0  0  0  0  0  0  0
   58.2640   33.3010   44.5260 C   0  0  0  0  0  0  0  0  0  0  0  0
   58.8720   34.9060   44.8710 Cl  0  0  0  0  0  0  0  0  0  0  0  0
   57.7170   32.2080   45.6770 S   0  0  0  0  0  0  0  0  0  0  0  0
   58.6000   29.7060   47.1870 C   0  0  0  0  0  0  0  0  0  0  0  0
   60.8530   31.7410   48.8730 C   0  0  0  0  0  0  0  0  0  0  0  0
   61.0560   33.8952   47.2826 H   0  0  0  0  0  0  0  0  0  0  0  0
   61.2988   34.7847   45.7410 H   0  0  0  0  0  0  0  0  0  0  0  0
   61.2300   32.9898   45.7410 H   0  0  0  0  0  0  0  0  0  0  0  0
   63.5561   33.6869   45.5300 H   0  0  0  0  0  0  0  0  0  0  0  0
   63.3811   34.7580   46.9895 H   0  0  0  0  0  0  0  0  0  0  0  0
   62.8053   31.8149   47.2813 H   0  0  0  0  0  0  0  0  0  0  0  0
   64.5311   32.3848   47.1690 H   0  0  0  0  0  0  0  0  0  0  0  0
   63.3171   31.9967   50.6953 H   0  0  0  0  0  0  0  0  0  0  0  0
   63.9585   31.0389   49.2729 H   0  0  0  0  0  0  0  0  0  0  0  0
   65.4428   32.2204   51.3846 H   0  0  0  0  0  0  0  0  0  0  0  0
   66.0519   31.4045   49.9047 H   0  0  0  0  0  0  0  0  0  0  0  0
   65.7818   33.1804   49.9047 H   0  0  0  0  0  0  0  0  0  0  0  0
   62.5588   34.2594   50.3094 H   0  0  0  0  0  0  0  0  0  0  0  0
   62.0320   34.4924   48.5620 H   0  0  0  0  0  0  0  0  0  0  0  0
   60.2245   34.2827   51.0767 H   0  0  0  0  0  0  0  0  0  0  0  0
   58.1661   32.9252   51.4323 H   0  0  0  0  0  0  0  0  0  0  0  0
   57.8164   30.8185   50.1526 H   0  0  0  0  0  0  0  0  0  0  0  0
   60.8455   28.5396   49.4925 H   0  0  0  0  0  0  0  0  0  0  0  0
   60.4833   26.4466   48.1886 H   0  0  0  0  0  0  0  0  0  0  0  0
   58.9228   26.4339   46.2430 H   0  0  0  0  0  0  0  0  0  0  0  0
   57.4327   30.8392   42.3901 H   0  0  0  0  0  0  0  0  0  0  0  0
   58.4268   33.2504   42.3393 H   0  0  0  0  0  0  0  0  0  0  0  0
   58.0536   30.6206   46.9132 H   0  0  0  0  0  0  0  0  0  0  0  0
   61.6153   31.4033   48.1555 H   0  0  0  0  0  0  0  0  0  0  0  0
  1  2  1  0
  2  3  1  0
  3  4  1  0
  4  5  1  0
  5  6  1  0
  4  7  1  0
  7  8  1  0
  8  9  2  0
  9 10  1  0
 10 11  2  0
 11 12  1  0
 12 13  1  0
 13 14  2  0
 14 15  1  0
 15 16  2  0
 16 17  1  0
 17 18  1  0
 18 19  1  0
 19 20  2  0
 19 21  1  0
 21 22  2  0
 22 23  1  0
 23 24  2  0
 24 25  1  0
 24 26  1  0
 17 27  2  0
 12 28  2  0
 28  8  1  0
 27 13  1  0
 26 21  1  0
  1 29  1  0
  1 30  1  0
  1 31  1  0
  2 32  1  0
  2 33  1  0
  3 34  1  0
  3 35  1  0
  5 36  1  0
  5 37  1  0
  6 38  1  0
  6 39  1  0
  6 40  1  0
  7 41  1  0
  7 42  1  0
  9 43  1  0
 10 44  1  0
 11 45  1  0
 14 46  1  0
 15 47  1  0
 16 48  1  0
 22 49  1  0
 23 50  1  0
 27 51  1  0
 28 52  1  0
M  CHG  1  18  -1
M  END
>  <UniqueID>  (18) 
18

>  <SMILES>  (18) 
CCCN(CC)Cc1cccc(-c2cccc([N-]C(=O)c3ccc(Cl)s3)c2)c1

>  <Energy>  (18) 
100.11636278413222

>  <Genealogy>  (18) 
CCCN(CC)Cc1cccc(-c2cccc([N-]C(=O)c3ccc(Cl)s3)c2)c1 (protonated)
CCCN(CC)Cc1cccc(-c2cccc([N-]C(=O)c3ccc(Cl)s3)c2)c1 (3D coordinates assigned)
CCCN(CC)Cc1cccc(-c2cccc([N-]C(=O)c3ccc(Cl)s3)c2)c1 (optimized conformer: 100.11636278413222 kcal/mol)

>  <smiles>  (18) 
CCCN(CC)Cc1cccc(-c2cccc(NC(=O)c3ccc(Cl)s3)c2)c1

>  <score_type>  (18) 
oracle

>  <origin>  (18) 
adg

>  <m_score__min__energy>  (18) 
-11.130000000000001

>  <m_primary>  (18) 
energy

$$$$
18:0
     RDKit          3D

 41 42  0  0  0  0  0  0  0  0999 V2000
   57.5660   32.1870   41.9190 C   0  0  0  0  0  0  0  0  0  0  0  0
   57.6240   31.6780   43.3460 C   0  0  0  0  0  0  0  0  0  0  0  0
   57.1800   30.3700   43.6810 C   0  0  0  0  0  0  0  0  0  0  0  0
   56.6450   29.3970   42.6550 C   0  0  0  0  0  0  0  0  0  0  0  0
   57.3810   28.2040   42.6830 O   0  0  0  0  0  0  0  0  0  0  0  0
   57.2080   29.9630   45.0230 C   0  0  0  0  0  0  0  0  0  0  0  0
   57.6830   30.7870   45.9870 N   0  0  0  0  0  0  0  0  0  0  0  0
   58.1500   32.0280   45.7070 C   0  0  0  0  0  0  0  0  0  0  0  0
   58.6360   32.8270   46.7490 C   0  0  0  0  0  0  0  0  0  0  0  0
   59.1250   34.1170   46.4920 C   0  0  0  0  0  0  0  0  0  0  0  0
   59.5870   34.9530   47.5750 N   0  0  0  0  0  0  0  0  0  0  0  0
   59.6600   34.2190   48.8520 C   0  0  0  0  0  0  0  0  0  0  0  0
   61.0420   33.5800   49.1040 C   0  0  0  0  0  0  0  0  0  0  0  0
   61.9510   33.7710   47.9520 N   0  0  0  0  0  0  0  0  0  0  0  0
   63.3160   34.1090   48.3940 C   0  0  0  0  0  0  0  0  0  0  0  0
   61.9920   32.5540   47.1250 C   0  0  0  0  0  0  0  0  0  0  0  0
   59.1430   34.5900   45.1700 C   0  0  0  0  0  0  0  0  0  0  0  0
   58.6570   33.8000   44.1250 C   0  0  0  0  0  0  0  0  0  0  0  0
   58.1440   32.5100   44.3760 C   0  0  0  0  0  0  0  0  0  0  0  0
   57.4415   33.2799   41.9243 H   0  0  0  0  0  0  0  0  0  0  0  0
   58.4996   31.9269   41.3987 H   0  0  0  0  0  0  0  0  0  0  0  0
   56.7149   31.7235   41.3987 H   0  0  0  0  0  0  0  0  0  0  0  0
   55.5905   29.1777   42.8786 H   0  0  0  0  0  0  0  0  0  0  0  0
   56.7334   29.8477   41.6555 H   0  0  0  0  0  0  0  0  0  0  0  0
   56.7210   27.4640   42.6380 H   0  0  0  0  0  0  0  0  0  0  0  0
   56.8399   28.9629   45.2956 H   0  0  0  0  0  0  0  0  0  0  0  0
   58.6345   32.4399   47.7787 H   0  0  0  0  0  0  0  0  0  0  0  0
   60.5460   35.3000   47.3370 H   0  0  0  0  0  0  0  0  0  0  0  0
   58.9760   35.7970   47.6850 H   0  0  0  0  0  0  0  0  0  0  0  0
   59.4435   34.9199   49.6717 H   0  0  0  0  0  0  0  0  0  0  0  0
   58.9246   33.4024   48.8038 H   0  0  0  0  0  0  0  0  0  0  0  0
   61.4922   34.0436   49.9942 H   0  0  0  0  0  0  0  0  0  0  0  0
   60.8985   32.4995   49.2524 H   0  0  0  0  0  0  0  0  0  0  0  0
   63.3537   34.1183   49.4933 H   0  0  0  0  0  0  0  0  0  0  0  0
   64.0224   33.3586   48.0093 H   0  0  0  0  0  0  0  0  0  0  0  0
   63.5906   35.1023   48.0093 H   0  0  0  0  0  0  0  0  0  0  0  0
   62.0218   31.6685   47.7769 H   0  0  0  0  0  0  0  0  0  0  0  0
   61.0948   32.5118   46.4900 H   0  0  0  0  0  0  0  0  0  0  0  0
   62.8900   32.5723   46.4900 H   0  0  0  0  0  0  0  0  0  0  0  0
   59.5434   35.5917   44.9551 H   0  0  0  0  0  0  0  0  0  0  0  0
   58.6746   34.1880   43.0958 H   0  0  0  0  0  0  0  0  0  0  0  0
  1  2  1  0
  2  3  2  0
  3  4  1  0
  4  5  1  0
  3  6  1  0
  6  7  2  0
  7  8  1  0
  8  9  2  0
  9 10  1  0
 10 11  1  0
 11 12  1  0
 12 13  1  0
 13 14  1  0
 14 15  1  0
 14 16  1  0
 10 17  2  0
 17 18  1  0
 18 19  2  0
 19  2  1  0
 19  8  1  0
  1 20  1  0
  1 21  1  0
  1 22  1  0
  4 23  1  0
  4 24  1  0
  5 25  1  0
  6 26  1  0
  9 27  1  0
 11 28  1  0
 11 29  1  0
 12 30  1  0
 12 31  1  0
 13 32  1  0
 13 33  1  0
 15 34  1  0
 15 35  1  0
 15 36  1  0
 16 37  1  0
 16 38  1  0
 16 39  1  0
 17 40  1  0
 18 41  1  0
M  CHG  1  11   1
M  END
>  <UniqueID>  (19) 
19

>  <SMILES>  (19) 
Cc1c(CO)cnc2cc([NH2+]CCN(C)C)ccc12

>  <Energy>  (19) 
48.531823451000484

>  <Genealogy>  (19) 
Cc1c(CO)cnc2cc([NH2+]CCN(C)C)ccc12 (protonated)
Cc1c(CO)cnc2cc([NH2+]CCN(C)C)ccc12 (3D coordinates assigned)
Cc1c(CO)cnc2cc([NH2+]CCN(C)C)ccc12 (optimized conformer: 48.531823451000484 kcal/mol)

>  <smiles>  (19) 
Cc1c(CO)cnc2cc(NCCN(C)C)ccc12

>  <score_type>  (19) 
oracle

>  <origin>  (19) 
adg

>  <m_score__min__energy>  (19) 
-5.1600000000000001

>  <m_primary>  (19) 
energy

$$$$
19:0
     RDKit          3D

 55 58  0  0  0  0  0  0  0  0999 V2000
   61.6300   33.4610   52.8630 C   0  0  0  0  0  0  0  0  0  0  0  0
   62.4670   32.7290   51.8950 N   0  0  0  0  0  0  0  0  0  0  0  0
   63.3640   31.7810   52.5950 C   0  0  0  0  0  0  0  0  0  0  0  0
   63.1080   30.3490   52.1130 C   0  0  0  0  0  0  0  0  0  0  0  0
   62.2810   30.3580   50.9090 N   0  0  0  0  0  0  0  0  0  0  0  0
   61.5600   29.1940   50.4630 C   0  0  0  0  0  0  0  0  0  0  0  0
   61.6400   28.1220   51.1230 O   0  0  0  0  0  0  0  0  0  0  0  0
   60.7300   29.2250   49.2340 C   0  0  0  0  0  0  0  0  0  0  0  0
   60.3040   28.0190   48.6450 C   0  0  0  0  0  0  0  0  0  0  0  0
   59.5330   28.0270   47.4790 C   0  0  0  0  0  0  0  0  0  0  0  0
   59.1710   29.2410   46.8850 C   0  0  0  0  0  0  0  0  0  0  0  0
   58.4100   29.2780   45.7100 C   0  0  0  0  0  0  0  0  0  0  0  0
   58.0770   30.5110   45.1320 C   0  0  0  0  0  0  0  0  0  0  0  0
   58.4970   31.6980   45.7550 C   0  0  0  0  0  0  0  0  0  0  0  0
   59.2210   31.6390   46.9060 N   0  0  0  0  0  0  0  0  0  0  0  0
   59.5770   30.4560   47.4740 C   0  0  0  0  0  0  0  0  0  0  0  0
   60.3440   30.4450   48.6440 C   0  0  0  0  0  0  0  0  0  0  0  0
   58.0750   33.0420   45.2160 C   0  0  0  0  0  0  0  0  0  0  0  0
   57.7870   33.0730   43.6890 C   0  0  0  0  0  0  0  0  0  0  0  0
   57.8630   31.7030   42.9840 C   0  0  0  0  0  0  0  0  0  0  0  0
   57.2910   30.5850   43.8550 C   0  0  0  0  0  0  0  0  0  0  0  0
   63.2350   33.6860   51.0700 C   0  0  0  0  0  0  0  0  0  0  0  0
   62.8920   33.5140   49.6130 C   0  0  0  0  0  0  0  0  0  0  0  0
   63.7590   32.8200   48.7490 C   0  0  0  0  0  0  0  0  0  0  0  0
   63.4220   32.6460   47.4020 C   0  0  0  0  0  0  0  0  0  0  0  0
   62.2200   33.1660   46.9090 C   0  0  0  0  0  0  0  0  0  0  0  0
   61.3570   33.8620   47.7610 C   0  0  0  0  0  0  0  0  0  0  0  0
   61.6900   34.0370   49.1080 C   0  0  0  0  0  0  0  0  0  0  0  0
   61.9344   33.1948   53.8860 H   0  0  0  0  0  0  0  0  0  0  0  0
   61.7568   34.5433   52.7127 H   0  0  0  0  0  0  0  0  0  0  0  0
   60.5743   33.1911   52.7127 H   0  0  0  0  0  0  0  0  0  0  0  0
   64.4099   32.0516   52.3882 H   0  0  0  0  0  0  0  0  0  0  0  0
   63.1666   31.8346   53.6758 H   0  0  0  0  0  0  0  0  0  0  0  0
   64.0698   29.8645   51.8887 H   0  0  0  0  0  0  0  0  0  0  0  0
   62.5814   29.7947   52.9039 H   0  0  0  0  0  0  0  0  0  0  0  0
   62.2900   31.2250   50.3270 H   0  0  0  0  0  0  0  0  0  0  0  0
   60.5809   27.0601   49.1075 H   0  0  0  0  0  0  0  0  0  0  0  0
   59.2103   27.0772   47.0277 H   0  0  0  0  0  0  0  0  0  0  0  0
   58.0741   28.3412   45.2414 H   0  0  0  0  0  0  0  0  0  0  0  0
   60.6479   31.3956   49.1067 H   0  0  0  0  0  0  0  0  0  0  0  0
   57.1596   33.3494   45.7428 H   0  0  0  0  0  0  0  0  0  0  0  0
   58.9230   33.7221   45.3841 H   0  0  0  0  0  0  0  0  0  0  0  0
   56.7749   33.4776   43.5406 H   0  0  0  0  0  0  0  0  0  0  0  0
   58.5756   33.6945   43.2397 H   0  0  0  0  0  0  0  0  0  0  0  0
   57.2900   31.7526   42.0463 H   0  0  0  0  0  0  0  0  0  0  0  0
   58.9216   31.4769   42.7884 H   0  0  0  0  0  0  0  0  0  0  0  0
   56.2361   30.7978   44.0828 H   0  0  0  0  0  0  0  0  0  0  0  0
   57.3580   29.6258   43.3207 H   0  0  0  0  0  0  0  0  0  0  0  0
   62.9898   34.7120   51.3817 H   0  0  0  0  0  0  0  0  0  0  0  0
   64.3095   33.4962   51.2092 H   0  0  0  0  0  0  0  0  0  0  0  0
   64.7055   32.4126   49.1339 H   0  0  0  0  0  0  0  0  0  0  0  0
   64.1018   32.1006   46.7309 H   0  0  0  0  0  0  0  0  0  0  0  0
   61.9540   33.0272   45.8507 H   0  0  0  0  0  0  0  0  0  0  0  0
   60.4141   34.2728   47.3709 H   0  0  0  0  0  0  0  0  0  0  0  0
   61.0084   34.5860   49.7743 H   0  0  0  0  0  0  0  0  0  0  0  0
  1  2  1  0
  2  3  1  0
  3  4  1  0
  4  5  1  0
  5  6  1  0
  6  7  2  0
  6  8  1  0
  8  9  2  0
  9 10  1  0
 10 11  2  0
 11 12  1  0
 12 13  2  0
 13 14  1  0
 14 15  2  0
 15 16  1  0
 16 17  2  0
 14 18  1  0
 18 19  1  0
 19 20  1  0
 20 21  1  0
  2 22  1  0
 22 23  1  0
 23 24  2  0
 24 25  1  0
 25 26  2  0
 26 27  1  0
 27 28  2  0
 17  8  1  0
 28 23  1  0
 16 11  1  0
 21 13  1  0
  1 29  1  0
  1 30  1  0
  1 31  1  0
  3 32  1  0
  3 33  1  0
  4 34  1  0
  4 35  1  0
  5 36  1  0
  9 37  1  0
 10 38  1  0
 12 39  1  0
 17 40  1  0
 18 41  1  0
 18 42  1  0
 19 43  1  0
 19 44  1  0
 20 45  1  0
 20 46  1  0
 21 47  1  0
 21 48  1  0
 22 49  1  0
 22 50  1  0
 24 51  1  0
 25 52  1  0
 26 53  1  0
 27 54  1  0
 28 55  1  0
M  END
>  <UniqueID>  (20) 
20

>  <SMILES>  (20) 
CN(CCNC(=O)c1ccc2cc3c(nc2c1)CCCC3)Cc1ccccc1

>  <Energy>  (20) 
65.26070507058904

>  <Genealogy>  (20) 
CN(CCNC(=O)c1ccc2cc3c(nc2c1)CCCC3)Cc1ccccc1 (3D coordinates assigned)
CN(CCNC(=O)c1ccc2cc3c(nc2c1)CCCC3)Cc1ccccc1 (nonaromatic ring conformer: 65.26070507058904 kcal/mol)

>  <smiles>  (20) 
CN(CCNC(=O)c1ccc2cc3c(nc2c1)CCCC3)Cc1ccccc1

>  <score_type>  (20) 
oracle

>  <origin>  (20) 
adg

>  <m_score__min__energy>  (20) 
-9.0199999999999996

>  <m_primary>  (20) 
energy

$$$$
20:0
     RDKit          3D

 35 37  0  0  0  0  0  0  0  0999 V2000
   57.2830   22.0130   43.7550 C   0  0  0  0  0  0  0  0  0  0  0  0
   56.4150   22.9980   44.3030 O   0  0  0  0  0  0  0  0  0  0  0  0
   56.7750   24.3350   44.5270 C   0  0  0  0  0  0  0  0  0  0  0  0
   57.3940   25.0400   43.4860 C   0  0  0  0  0  0  0  0  0  0  0  0
   57.7720   26.3740   43.6600 C   0  0  0  0  0  0  0  0  0  0  0  0
   57.5400   27.0190   44.8810 C   0  0  0  0  0  0  0  0  0  0  0  0
   57.9280   28.3940   45.0610 N   0  0  0  0  0  0  0  0  0  0  0  0
   59.2250   28.7290   45.4120 C   0  0  0  0  0  0  0  0  0  0  0  0
   60.2720   27.6680   45.6310 C   0  0  0  0  0  0  0  0  0  0  0  0
   59.5780   30.0450   45.5550 N   0  0  0  0  0  0  0  0  0  0  0  0
   58.6330   30.9930   45.3650 C   0  0  0  0  0  0  0  0  0  0  0  0
   58.7570   32.3590   45.4680 C   0  0  0  0  0  0  0  0  0  0  0  0
   57.4720   32.8050   45.1680 C   0  0  0  0  0  0  0  0  0  0  0  0
   57.0240   34.2290   45.1950 C   0  0  0  0  0  0  0  0  0  0  0  0
   56.6440   31.7620   44.9210 N   0  0  0  0  0  0  0  0  0  0  0  0
   57.3830   30.6730   45.0430 N   0  0  0  0  0  0  0  0  0  0  0  0
   56.9960   29.3870   44.8820 C   0  0  0  0  0  0  0  0  0  0  0  0
   55.8040   29.1170   44.5680 O   0  0  0  0  0  0  0  0  0  0  0  0
   56.9170   26.3210   45.9250 C   0  0  0  0  0  0  0  0  0  0  0  0
   56.5380   24.9870   45.7520 C   0  0  0  0  0  0  0  0  0  0  0  0
   57.7708   21.4594   44.5708 H   0  0  0  0  0  0  0  0  0  0  0  0
   56.7008   21.3152   43.1352 H   0  0  0  0  0  0  0  0  0  0  0  0
   58.0485   22.5028   43.1352 H   0  0  0  0  0  0  0  0  0  0  0  0
   57.5837   24.5397   42.5249 H   0  0  0  0  0  0  0  0  0  0  0  0
   58.2535   26.9193   42.8349 H   0  0  0  0  0  0  0  0  0  0  0  0
   60.4209   27.5171   46.7104 H   0  0  0  0  0  0  0  0  0  0  0  0
   59.9405   26.7253   45.1713 H   0  0  0  0  0  0  0  0  0  0  0  0
   61.2190   27.9870   45.1713 H   0  0  0  0  0  0  0  0  0  0  0  0
   60.5540   30.3220   45.8100 H   0  0  0  0  0  0  0  0  0  0  0  0
   59.6481   32.9511   45.7234 H   0  0  0  0  0  0  0  0  0  0  0  0
   56.9196   34.5608   46.2386 H   0  0  0  0  0  0  0  0  0  0  0  0
   57.7679   34.8572   44.6832 H   0  0  0  0  0  0  0  0  0  0  0  0
   56.0544   34.3181   44.6832 H   0  0  0  0  0  0  0  0  0  0  0  0
   56.7258   26.8251   46.8838 H   0  0  0  0  0  0  0  0  0  0  0  0
   56.0525   24.4442   46.5764 H   0  0  0  0  0  0  0  0  0  0  0  0
  1  2  1  0
  2  3  1  0
  3  4  2  0
  4  5  1  0
  5  6  2  0
  6  7  1  0
  7  8  1  0
  8  9  1  0
  8 10  2  0
 10 11  1  0
 11 12  2  0
 12 13  1  0
 13 14  1  0
 13 15  2  0
 15 16  1  0
 16 17  1  0
 17 18  2  0
  6 19  1  0
 19 20  2  0
 20  3  1  0
 17  7  1  0
 16 11  1  0
  1 21  1  0
  1 22  1  0
  1 23  1  0
  4 24  1  0
  5 25  1  0
  9 26  1  0
  9 27  1  0
  9 28  1  0
 10 29  1  0
 12 30  1  0
 14 31  1  0
 14 32  1  0
 14 33  1  0
 19 34  1  0
 20 35  1  0
M  CHG  1  10   1
M  END
>  <UniqueID>  (21) 
21

>  <SMILES>  (21) 
COc1ccc(-n2c(C)[nH+]c3cc(C)nn3c2=O)cc1

>  <Energy>  (21) 
81.22725037593057

>  <Genealogy>  (21) 
COc1ccc(-n2c(C)[nH+]c3cc(C)nn3c2=O)cc1 (protonated)
COc1ccc(-n2c(C)[nH+]c3cc(C)nn3c2=O)cc1 (3D coordinates assigned)
COc1ccc(-n2c(C)[nH+]c3cc(C)nn3c2=O)cc1 (optimized conformer: 81.22725037593057 kcal/mol)

>  <smiles>  (21) 
COc1ccc(-n2c(C)nc3cc(C)nn3c2=O)cc1

>  <score_type>  (21) 
oracle

>  <origin>  (21) 
adg

>  <m_score__min__energy>  (21) 
-5.2000000000000002

>  <m_primary>  (21) 
energy

$$$$
21:0
     RDKit          3D

 55 59  0  0  0  0  0  0  0  0999 V2000
   63.0270   33.8710   47.2020 C   0  0  0  0  0  0  0  0  0  0  0  0
   63.8860   32.6630   47.5660 C   0  0  0  0  0  0  0  0  0  0  0  0
   63.4560   32.0800   48.8460 N   0  0  0  0  0  0  0  0  0  0  0  0
   64.4270   32.0200   49.9440 C   0  0  0  0  0  0  0  0  0  0  0  0
   62.1210   31.5380   49.0230 C   0  0  0  0  0  0  0  0  0  0  0  0
   61.6790   31.0880   50.2850 C   0  0  0  0  0  0  0  0  0  0  0  0
   60.3890   30.5750   50.4490 C   0  0  0  0  0  0  0  0  0  0  0  0
   59.5180   30.5020   49.3620 C   0  0  0  0  0  0  0  0  0  0  0  0
   59.9360   30.9420   48.1020 C   0  0  0  0  0  0  0  0  0  0  0  0
   59.0400   30.8680   46.9810 N   0  0  0  0  0  0  0  0  0  0  0  0
   58.6550   32.0780   46.2790 C   0  0  0  0  0  0  0  0  0  0  0  0
   59.1310   33.3480   46.6750 C   0  0  0  0  0  0  0  0  0  0  0  0
   58.7440   34.4980   45.9830 C   0  0  0  0  0  0  0  0  0  0  0  0
   57.8790   34.4030   44.8920 C   0  0  0  0  0  0  0  0  0  0  0  0
   57.3950   33.1560   44.4920 C   0  0  0  0  0  0  0  0  0  0  0  0
   57.7770   31.9950   45.1790 C   0  0  0  0  0  0  0  0  0  0  0  0
   57.2710   30.7210   44.7650 N   0  0  0  0  0  0  0  0  0  0  0  0
   57.6410   29.5210   45.4540 C   0  0  0  0  0  0  0  0  0  0  0  0
   57.1260   28.2880   45.0290 C   0  0  0  0  0  0  0  0  0  0  0  0
   57.4760   27.0990   45.6890 C   0  0  0  0  0  0  0  0  0  0  0  0
   56.9280   25.7940   45.2370 C   0  0  0  0  0  0  0  0  0  0  0  0
   55.8970   25.1610   45.9570 C   0  0  0  0  0  0  0  0  0  0  0  0
   55.3830   23.9330   45.5280 C   0  0  0  0  0  0  0  0  0  0  0  0
   55.8910   23.3250   44.3790 C   0  0  0  0  0  0  0  0  0  0  0  0
   56.9140   23.9420   43.6560 C   0  0  0  0  0  0  0  0  0  0  0  0
   57.4310   25.1690   44.0790 C   0  0  0  0  0  0  0  0  0  0  0  0
   58.3510   27.1630   46.7850 C   0  0  0  0  0  0  0  0  0  0  0  0
   58.8670   28.3880   47.2120 C   0  0  0  0  0  0  0  0  0  0  0  0
   58.5170   29.5850   46.5540 C   0  0  0  0  0  0  0  0  0  0  0  0
   61.2290   31.4560   47.9330 C   0  0  0  0  0  0  0  0  0  0  0  0
   62.6773   34.3628   48.1217 H   0  0  0  0  0  0  0  0  0  0  0  0
   63.6243   34.5809   46.6110 H   0  0  0  0  0  0  0  0  0  0  0  0
   62.1604   33.5399   46.6110 H   0  0  0  0  0  0  0  0  0  0  0  0
   63.7935   31.9039   46.7753 H   0  0  0  0  0  0  0  0  0  0  0  0
   64.9314   32.9914   47.6628 H   0  0  0  0  0  0  0  0  0  0  0  0
   63.8949   32.0529   50.9062 H   0  0  0  0  0  0  0  0  0  0  0  0
   65.0017   31.0846   49.8746 H   0  0  0  0  0  0  0  0  0  0  0  0
   65.1125   32.8775   49.8746 H   0  0  0  0  0  0  0  0  0  0  0  0
   62.3570   31.1414   51.1495 H   0  0  0  0  0  0  0  0  0  0  0  0
   60.0595   30.2275   51.4393 H   0  0  0  0  0  0  0  0  0  0  0  0
   58.5033   30.0988   49.4957 H   0  0  0  0  0  0  0  0  0  0  0  0
   59.8117   33.4318   47.5350 H   0  0  0  0  0  0  0  0  0  0  0  0
   59.1222   35.4814   46.2990 H   0  0  0  0  0  0  0  0  0  0  0  0
   57.5786   35.3103   44.3474 H   0  0  0  0  0  0  0  0  0  0  0  0
   56.7107   33.0840   43.6338 H   0  0  0  0  0  0  0  0  0  0  0  0
   56.6220   30.6670   43.9470 H   0  0  0  0  0  0  0  0  0  0  0  0
   56.4405   28.2518   44.1695 H   0  0  0  0  0  0  0  0  0  0  0  0
   55.4928   25.6355   46.8633 H   0  0  0  0  0  0  0  0  0  0  0  0
   54.5774   23.4458   46.0969 H   0  0  0  0  0  0  0  0  0  0  0  0
   55.4854   22.3594   44.0428 H   0  0  0  0  0  0  0  0  0  0  0  0
   57.3137   23.4608   42.7512 H   0  0  0  0  0  0  0  0  0  0  0  0
   58.2360   25.6502   43.5042 H   0  0  0  0  0  0  0  0  0  0  0  0
   58.6326   26.2395   47.3121 H   0  0  0  0  0  0  0  0  0  0  0  0
   59.5538   28.4197   48.0707 H   0  0  0  0  0  0  0  0  0  0  0  0
   61.5520   31.7994   46.9391 H   0  0  0  0  0  0  0  0  0  0  0  0
  1  2  1  0
  2  3  1  0
  3  4  1  0
  3  5  1  0
  5  6  2  0
  6  7  1  0
  7  8  2  0
  8  9  1  0
  9 10  1  0
 10 11  1  0
 11 12  2  0
 12 13  1  0
 13 14  2  0
 14 15  1  0
 15 16  2  0
 16 17  1  0
 17 18  1  0
 18 19  2  0
 19 20  1  0
 20 21  1  0
 21 22  2  0
 22 23  1  0
 23 24  2  0
 24 25  1  0
 25 26  2  0
 20 27  2  0
 27 28  1  0
 28 29  2  0
  9 30  2  0
 30  5  1  0
 29 10  1  0
 16 11  1  0
 29 18  1  0
 26 21  1  0
  1 31  1  0
  1 32  1  0
  1 33  1  0
  2 34  1  0
  2 35  1  0
  4 36  1  0
  4 37  1  0
  4 38  1  0
  6 39  1  0
  7 40  1  0
  8 41  1  0
 12 42  1  0
 13 43  1  0
 14 44  1  0
 15 45  1  0
 17 46  1  0
 19 47  1  0
 22 48  1  0
 23 49  1  0
 24 50  1  0
 25 51  1  0
 26 52  1  0
 27 53  1  0
 28 54  1  0
 30 55  1  0
M  END
>  <UniqueID>  (22) 
22

>  <SMILES>  (22) 
CCN(C)c1cccc(N2c3ccccc3Nc3cc(-c4ccccc4)ccc32)c1

>  <Energy>  (22) 
78.0079536059512

>  <Genealogy>  (22) 
CCN(C)c1cccc(N2c3ccccc3Nc3cc(-c4ccccc4)ccc32)c1 (3D coordinates assigned)
CCN(C)c1cccc(N2c3ccccc3Nc3cc(-c4ccccc4)ccc32)c1 (nonaromatic ring conformer: 78.0079536059512 kcal/mol)

>  <smiles>  (22) 
CCN(C)c1cccc(N2c3ccccc3Nc3cc(-c4ccccc4)ccc32)c1

>  <score_type>  (22) 
oracle

>  <origin>  (22) 
adg

>  <m_score__min__energy>  (22) 
-8.8000000000000007

>  <m_primary>  (22) 
energy

$$$$
22:0
     RDKit          3D

 53 56  0  0  0  0  0  0  0  0999 V2000
   56.5450   30.4300   52.0760 C   0  0  0  0  0  0  0  0  0  0  0  0
   57.3640   30.6300   50.9280 O   0  0  0  0  0  0  0  0  0  0  0  0
   58.1910   31.7450   50.7300 C   0  0  0  0  0  0  0  0  0  0  0  0
   58.3370   32.6590   51.7800 C   0  0  0  0  0  0  0  0  0  0  0  0
   59.1490   33.7860   51.6300 C   0  0  0  0  0  0  0  0  0  0  0  0
   59.8210   34.0100   50.4280 C   0  0  0  0  0  0  0  0  0  0  0  0
   59.6870   33.1060   49.3620 C   0  0  0  0  0  0  0  0  0  0  0  0
   60.3660   33.3460   48.1170 N   0  0  0  0  0  0  0  0  0  0  0  0
   59.8460   33.8530   46.9760 C   0  0  0  0  0  0  0  0  0  0  0  0
   58.1200   34.2890   46.7290 S   0  0  0  0  0  0  0  0  0  0  0  0
   57.8940   33.2630   45.2340 C   0  0  0  0  0  0  0  0  0  0  0  0
   58.3810   31.8190   45.4660 C   0  0  0  0  0  0  0  0  0  0  0  0
   57.3550   30.7810   45.2280 N   0  0  0  0  0  0  0  0  0  0  0  0
   57.7830   29.4290   45.6440 C   0  0  0  0  0  0  0  0  0  0  0  0
   56.7690   28.3680   45.1740 C   0  0  0  0  0  0  0  0  0  0  0  0
   55.5120   28.9620   44.9180 O   0  0  0  0  0  0  0  0  0  0  0  0
   55.5980   29.8190   43.7900 C   0  0  0  0  0  0  0  0  0  0  0  0
   56.8040   30.7820   43.8630 C   0  0  0  0  0  0  0  0  0  0  0  0
   60.7910   34.0420   46.0360 N   0  0  0  0  0  0  0  0  0  0  0  0
   61.9360   33.6630   46.5830 N   0  0  0  0  0  0  0  0  0  0  0  0
   61.6860   33.2410   47.8370 C   0  0  0  0  0  0  0  0  0  0  0  0
   62.7260   32.6970   48.7380 C   0  0  0  0  0  0  0  0  0  0  0  0
   63.9960   33.2940   48.8180 C   0  0  0  0  0  0  0  0  0  0  0  0
   64.9680   32.7730   49.6770 C   0  0  0  0  0  0  0  0  0  0  0  0
   64.6770   31.6610   50.4710 C   0  0  0  0  0  0  0  0  0  0  0  0
   63.4120   31.0710   50.4100 C   0  0  0  0  0  0  0  0  0  0  0  0
   62.4380   31.5880   49.5510 C   0  0  0  0  0  0  0  0  0  0  0  0
   58.8730   31.9730   49.5190 C   0  0  0  0  0  0  0  0  0  0  0  0
   57.1462   30.5768   52.9854 H   0  0  0  0  0  0  0  0  0  0  0  0
   55.7151   31.1519   52.0646 H   0  0  0  0  0  0  0  0  0  0  0  0
   56.1412   29.4069   52.0646 H   0  0  0  0  0  0  0  0  0  0  0  0
   57.8088   32.4888   52.7298 H   0  0  0  0  0  0  0  0  0  0  0  0
   59.2587   34.4981   52.4612 H   0  0  0  0  0  0  0  0  0  0  0  0
   60.4588   34.8990   50.3149 H   0  0  0  0  0  0  0  0  0  0  0  0
   56.8260   33.2430   44.9714 H   0  0  0  0  0  0  0  0  0  0  0  0
   58.4874   33.7025   44.4187 H   0  0  0  0  0  0  0  0  0  0  0  0
   59.2264   31.6284   44.7886 H   0  0  0  0  0  0  0  0  0  0  0  0
   58.6573   31.7485   46.5284 H   0  0  0  0  0  0  0  0  0  0  0  0
   58.7662   29.2096   45.2022 H   0  0  0  0  0  0  0  0  0  0  0  0
   57.8428   29.3992   46.7420 H   0  0  0  0  0  0  0  0  0  0  0  0
   57.1404   27.8958   44.2525 H   0  0  0  0  0  0  0  0  0  0  0  0
   56.6509   27.6140   45.9662 H   0  0  0  0  0  0  0  0  0  0  0  0
   55.6955   29.2010   42.8852 H   0  0  0  0  0  0  0  0  0  0  0  0
   54.6847   30.4316   43.7680 H   0  0  0  0  0  0  0  0  0  0  0  0
   57.5789   30.4525   43.1552 H   0  0  0  0  0  0  0  0  0  0  0  0
   56.4756   31.7990   43.6024 H   0  0  0  0  0  0  0  0  0  0  0  0
   62.8580   33.6780   46.0930 H   0  0  0  0  0  0  0  0  0  0  0  0
   64.2261   34.1755   48.2016 H   0  0  0  0  0  0  0  0  0  0  0  0
   65.9631   33.2391   49.7278 H   0  0  0  0  0  0  0  0  0  0  0  0
   65.4438   31.2500   51.1442 H   0  0  0  0  0  0  0  0  0  0  0  0
   63.1822   30.1983   51.0389 H   0  0  0  0  0  0  0  0  0  0  0  0
   61.4413   31.1243   49.5114 H   0  0  0  0  0  0  0  0  0  0  0  0
   58.7671   31.2579   48.6899 H   0  0  0  0  0  0  0  0  0  0  0  0
  1  2  1  0
  2  3  1  0
  3  4  2  0
  4  5  1  0
  5  6  2  0
  6  7  1  0
  7  8  1  0
  8  9  1  0
  9 10  1  0
 10 11  1  0
 11 12  1  0
 12 13  1  0
 13 14  1  0
 14 15  1  0
 15 16  1  0
 16 17  1  0
 17 18  1  0
  9 19  2  0
 19 20  1  0
 20 21  2  0
 21 22  1  0
 22 23  2  0
 23 24  1  0
 24 25  2  0
 25 26  1  0
 26 27  2  0
  7 28  2  0
 28  3  1  0
 21  8  1  0
 27 22  1  0
 18 13  1  0
  1 29  1  0
  1 30  1  0
  1 31  1  0
  4 32  1  0
  5 33  1  0
  6 34  1  0
 11 35  1  0
 11 36  1  0
 12 37  1  0
 12 38  1  0
 14 39  1  0
 14 40  1  0
 15 41  1  0
 15 42  1  0
 17 43  1  0
 17 44  1  0
 18 45  1  0
 18 46  1  0
 20 47  1  0
 23 48  1  0
 24 49  1  0
 25 50  1  0
 26 51  1  0
 27 52  1  0
 28 53  1  0
M  CHG  1  20   1
M  END
>  <UniqueID>  (23) 
23

>  <SMILES>  (23) 
COc1cccc(-n2c(SCCN3CCOCC3)n[nH+]c2-c2ccccc2)c1

>  <Energy>  (23) 
106.54724079411754

>  <Genealogy>  (23) 
COc1cccc(-n2c(SCCN3CCOCC3)n[nH+]c2-c2ccccc2)c1 (protonated)
COc1cccc(-n2c(SCCN3CCOCC3)n[nH+]c2-c2ccccc2)c1 (3D coordinates assigned)
COc1cccc(-n2c(SCCN3CCOCC3)n[nH+]c2-c2ccccc2)c1 (nonaromatic ring conformer: 106.54724079411754 kcal/mol)

>  <smiles>  (23) 
COc1cccc(-n2c(SCCN3CCOCC3)nnc2-c2ccccc2)c1

>  <score_type>  (23) 
oracle

>  <origin>  (23) 
adg

>  <m_score__min__energy>  (23) 
-8.1899999999999995

>  <m_primary>  (23) 
energy

$$$$
23:0
     RDKit          3D

 43 46  0  0  0  0  0  0  0  0999 V2000
   67.1440   32.6790   50.9370 C   0  0  0  0  0  0  0  0  0  0  0  0
   65.8390   32.9820   51.4200 O   0  0  0  0  0  0  0  0  0  0  0  0
   64.7150   33.1600   50.6010 C   0  0  0  0  0  0  0  0  0  0  0  0
   63.7290   34.1280   50.8710 C   0  0  0  0  0  0  0  0  0  0  0  0
   62.6250   34.2650   50.0250 C   0  0  0  0  0  0  0  0  0  0  0  0
   62.4790   33.4310   48.9030 C   0  0  0  0  0  0  0  0  0  0  0  0
   61.3140   33.5670   48.0010 C   0  0  0  0  0  0  0  0  0  0  0  0
   61.4310   34.0050   46.3690 S   0  0  0  0  0  0  0  0  0  0  0  0
   59.7830   33.9680   46.0730 C   0  0  0  0  0  0  0  0  0  0  0  0
   59.1250   34.2220   44.8720 C   0  0  0  0  0  0  0  0  0  0  0  0
   57.7290   34.1000   44.8420 C   0  0  0  0  0  0  0  0  0  0  0  0
   57.0240   33.7190   46.0000 C   0  0  0  0  0  0  0  0  0  0  0  0
   57.7100   33.4650   47.1980 C   0  0  0  0  0  0  0  0  0  0  0  0
   59.1050   33.6070   47.2290 C   0  0  0  0  0  0  0  0  0  0  0  0
   59.9580   33.3810   48.3280 C   0  0  0  0  0  0  0  0  0  0  0  0
   59.4840   32.9150   49.6500 C   0  0  0  0  0  0  0  0  0  0  0  0
   59.5210   33.7930   50.7450 C   0  0  0  0  0  0  0  0  0  0  0  0
   59.0690   33.3780   51.9980 C   0  0  0  0  0  0  0  0  0  0  0  0
   58.5750   32.0830   52.1700 C   0  0  0  0  0  0  0  0  0  0  0  0
   58.5260   31.2020   51.0870 C   0  0  0  0  0  0  0  0  0  0  0  0
   58.9730   31.6100   49.8140 C   0  0  0  0  0  0  0  0  0  0  0  0
   58.9130   30.7600   48.6980 O   0  0  0  0  0  0  0  0  0  0  0  0
   59.9940   29.9590   48.2320 C   0  0  0  0  0  0  0  0  0  0  0  0
   63.4710   32.4790   48.6280 C   0  0  0  0  0  0  0  0  0  0  0  0
   64.5760   32.3430   49.4730 C   0  0  0  0  0  0  0  0  0  0  0  0
   67.8226   32.5214   51.7883 H   0  0  0  0  0  0  0  0  0  0  0  0
   67.1056   31.7659   50.3248 H   0  0  0  0  0  0  0  0  0  0  0  0
   67.5118   33.5156   50.3248 H   0  0  0  0  0  0  0  0  0  0  0  0
   63.8280   34.7794   51.7518 H   0  0  0  0  0  0  0  0  0  0  0  0
   61.8649   35.0309   50.2387 H   0  0  0  0  0  0  0  0  0  0  0  0
   59.6860   34.5107   43.9709 H   0  0  0  0  0  0  0  0  0  0  0  0
   57.1816   34.3028   43.9097 H   0  0  0  0  0  0  0  0  0  0  0  0
   55.9290   33.6198   45.9655 H   0  0  0  0  0  0  0  0  0  0  0  0
   57.1608   33.1587   48.1005 H   0  0  0  0  0  0  0  0  0  0  0  0
   59.9086   34.8141   50.6142 H   0  0  0  0  0  0  0  0  0  0  0  0
   59.1017   34.0714   52.8513 H   0  0  0  0  0  0  0  0  0  0  0  0
   58.2239   31.7562   53.1599 H   0  0  0  0  0  0  0  0  0  0  0  0
   58.1360   30.1832   51.2286 H   0  0  0  0  0  0  0  0  0  0  0  0
   60.5451   29.5507   49.0920 H   0  0  0  0  0  0  0  0  0  0  0  0
   59.6013   29.1321   47.6220 H   0  0  0  0  0  0  0  0  0  0  0  0
   60.6707   30.5754   47.6220 H   0  0  0  0  0  0  0  0  0  0  0  0
   63.3790   31.8348   47.7412 H   0  0  0  0  0  0  0  0  0  0  0  0
   65.3433   31.5871   49.2496 H   0  0  0  0  0  0  0  0  0  0  0  0
  1  2  1  0
  2  3  1  0
  3  4  2  0
  4  5  1  0
  5  6  2  0
  6  7  1  0
  7  8  1  0
  8  9  1  0
  9 10  2  0
 10 11  1  0
 11 12  2  0
 12 13  1  0
 13 14  2  0
 14 15  1  0
 15 16  1  0
 16 17  2  0
 17 18  1  0
 18 19  2  0
 19 20  1  0
 20 21  2  0
 21 22  1  0
 22 23  1  0
  6 24  1  0
 24 25  2  0
 25  3  1  0
 15  7  2  0
 21 16  1  0
 14  9  1  0
  1 26  1  0
  1 27  1  0
  1 28  1  0
  4 29  1  0
  5 30  1  0
 10 31  1  0
 11 32  1  0
 12 33  1  0
 13 34  1  0
 17 35  1  0
 18 36  1  0
 19 37  1  0
 20 38  1  0
 23 39  1  0
 23 40  1  0
 23 41  1  0
 24 42  1  0
 25 43  1  0
M  END
>  <UniqueID>  (24) 
24

>  <SMILES>  (24) 
COc1ccc(-c2sc3ccccc3c2-c2ccccc2OC)cc1

>  <Energy>  (24) 
87.44561082346515

>  <Genealogy>  (24) 
COc1ccc(-c2sc3ccccc3c2-c2ccccc2OC)cc1 (3D coordinates assigned)
COc1ccc(-c2sc3ccccc3c2-c2ccccc2OC)cc1 (optimized conformer: 87.44561082346515 kcal/mol)

>  <smiles>  (24) 
COc1ccc(-c2sc3ccccc3c2-c2ccccc2OC)cc1

>  <score_type>  (24) 
oracle

>  <origin>  (24) 
adg

>  <m_score__min__energy>  (24) 
-7.5300000000000002

>  <m_primary>  (24) 
energy

$$$$
24:0
     RDKit          3D

 48 51  0  0  0  0  0  0  0  0999 V2000
   60.0360   28.7420   48.0060 C   0  0  0  0  0  0  0  0  0  0  0  0
   59.2090   28.7530   46.7540 C   0  0  0  0  0  0  0  0  0  0  0  0
   58.8930   27.5500   46.1070 C   0  0  0  0  0  0  0  0  0  0  0  0
   58.1570   27.5580   44.9200 C   0  0  0  0  0  0  0  0  0  0  0  0
   57.7360   28.7710   44.3550 C   0  0  0  0  0  0  0  0  0  0  0  0
   57.0200   28.7760   43.1940 N   0  0  0  0  0  0  0  0  0  0  0  0
   56.6040   29.9350   42.6190 C   0  0  0  0  0  0  0  0  0  0  0  0
   56.9020   31.1630   43.2110 C   0  0  0  0  0  0  0  0  0  0  0  0
   57.6330   31.2000   44.4020 C   0  0  0  0  0  0  0  0  0  0  0  0
   57.9210   32.4720   44.9980 N   0  0  0  0  0  0  0  0  0  0  0  0
   58.9520   33.3360   44.4210 C   0  0  0  0  0  0  0  0  0  0  0  0
   59.8380   33.9580   45.5220 C   0  0  0  0  0  0  0  0  0  0  0  0
   59.1700   34.1040   46.8420 N   0  0  0  0  0  0  0  0  0  0  0  0
   59.6080   33.0620   47.8000 C   0  0  0  0  0  0  0  0  0  0  0  0
   61.0820   33.1700   48.0980 C   0  0  0  0  0  0  0  0  0  0  0  0
   61.5410   34.0900   49.0540 C   0  0  0  0  0  0  0  0  0  0  0  0
   62.9050   34.1810   49.3470 C   0  0  0  0  0  0  0  0  0  0  0  0
   63.8190   33.3530   48.6890 C   0  0  0  0  0  0  0  0  0  0  0  0
   65.1420   33.4420   48.9750 F   0  0  0  0  0  0  0  0  0  0  0  0
   63.3690   32.4330   47.7380 C   0  0  0  0  0  0  0  0  0  0  0  0
   62.0060   32.3390   47.4430 C   0  0  0  0  0  0  0  0  0  0  0  0
   57.6980   34.2140   46.7240 C   0  0  0  0  0  0  0  0  0  0  0  0
   57.0830   32.9570   46.0940 C   0  0  0  0  0  0  0  0  0  0  0  0
   58.0620   29.9930   44.9920 C   0  0  0  0  0  0  0  0  0  0  0  0
   58.8080   29.9720   46.1870 C   0  0  0  0  0  0  0  0  0  0  0  0
   59.3728   28.7508   48.8836 H   0  0  0  0  0  0  0  0  0  0  0  0
   60.6588   27.8355   48.0261 H   0  0  0  0  0  0  0  0  0  0  0  0
   60.6827   29.6316   48.0261 H   0  0  0  0  0  0  0  0  0  0  0  0
   59.2268   26.5940   46.5368 H   0  0  0  0  0  0  0  0  0  0  0  0
   57.9061   26.6080   44.4255 H   0  0  0  0  0  0  0  0  0  0  0  0
   56.7780   27.8740   42.7210 H   0  0  0  0  0  0  0  0  0  0  0  0
   56.0291   29.9049   41.6816 H   0  0  0  0  0  0  0  0  0  0  0  0
   56.5629   32.0985   42.7422 H   0  0  0  0  0  0  0  0  0  0  0  0
   59.5836   32.7397   43.7461 H   0  0  0  0  0  0  0  0  0  0  0  0
   58.4572   34.1496   43.8704 H   0  0  0  0  0  0  0  0  0  0  0  0
   60.7226   33.3176   45.6536 H   0  0  0  0  0  0  0  0  0  0  0  0
   60.0890   34.9744   45.1844 H   0  0  0  0  0  0  0  0  0  0  0  0
   59.0443   33.1786   48.7374 H   0  0  0  0  0  0  0  0  0  0  0  0
   59.4183   32.0768   47.3490 H   0  0  0  0  0  0  0  0  0  0  0  0
   60.8243   34.7421   49.5748 H   0  0  0  0  0  0  0  0  0  0  0  0
   63.2592   34.9047   50.0959 H   0  0  0  0  0  0  0  0  0  0  0  0
   64.0888   31.7817   47.2207 H   0  0  0  0  0  0  0  0  0  0  0  0
   61.6557   31.6120   46.6955 H   0  0  0  0  0  0  0  0  0  0  0  0
   57.2697   34.3559   47.7272 H   0  0  0  0  0  0  0  0  0  0  0  0
   57.4695   35.0705   46.0728 H   0  0  0  0  0  0  0  0  0  0  0  0
   56.9987   32.1721   46.8601 H   0  0  0  0  0  0  0  0  0  0  0  0
   56.0881   33.2077   45.6975 H   0  0  0  0  0  0  0  0  0  0  0  0
   59.0780   30.9181   46.6789 H   0  0  0  0  0  0  0  0  0  0  0  0
  1  2  1  0
  2  3  2  0
  3  4  1  0
  4  5  2  0
  5  6  1  0
  6  7  2  0
  7  8  1  0
  8  9  2  0
  9 10  1  0
 10 11  1  0
 11 12  1  0
 12 13  1  0
 13 14  1  0
 14 15  1  0
 15 16  2  0
 16 17  1  0
 17 18  2  0
 18 19  1  0
 18 20  1  0
 20 21  2  0
 13 22  1  0
 22 23  1  0
  9 24  1  0
 24 25  2  0
 25  2  1  0
 24  5  1  0
 23 10  1  0
 21 15  1  0
  1 26  1  0
  1 27  1  0
  1 28  1  0
  3 29  1  0
  4 30  1  0
  6 31  1  0
  7 32  1  0
  8 33  1  0
 11 34  1  0
 11 35  1  0
 12 36  1  0
 12 37  1  0
 14 38  1  0
 14 39  1  0
 16 40  1  0
 17 41  1  0
 20 42  1  0
 21 43  1  0
 22 44  1  0
 22 45  1  0
 23 46  1  0
 23 47  1  0
 25 48  1  0
M  CHG  1   6   1
M  END
>  <UniqueID>  (25) 
25

>  <SMILES>  (25) 
Cc1ccc2[nH+]ccc(N3CCN(Cc4ccc(F)cc4)CC3)c2c1

>  <Energy>  (25) 
68.27776651196456

>  <Genealogy>  (25) 
Cc1ccc2[nH+]ccc(N3CCN(Cc4ccc(F)cc4)CC3)c2c1 (protonated)
Cc1ccc2[nH+]ccc(N3CCN(Cc4ccc(F)cc4)CC3)c2c1 (3D coordinates assigned)
Cc1ccc2[nH+]ccc(N3CCN(Cc4ccc(F)cc4)CC3)c2c1 (nonaromatic ring conformer: 68.27776651196456 kcal/mol)

>  <smiles>  (25) 
Cc1ccc2nccc(N3CCN(Cc4ccc(F)cc4)CC3)c2c1

>  <score_type>  (25) 
oracle

>  <origin>  (25) 
adg

>  <m_score__min__energy>  (25) 
-6.79

>  <m_primary>  (25) 
energy

$$$$
25:0
     RDKit          3D

 41 43  0  0  1  0  0  0  0  0999 V2000
   56.2700   29.9680   42.6150 C   0  0  0  0  0  0  0  0  0  0  0  0
   56.9950   30.3530   43.8500 C   0  0  0  0  0  0  0  0  0  0  0  0
   57.5940   29.4690   44.6670 N   0  0  0  0  0  0  0  0  0  0  0  0
   58.2400   29.8540   45.7720 C   0  0  0  0  0  0  0  0  0  0  0  0
   58.2810   31.1940   46.0620 C   0  0  0  0  0  0  0  0  0  0  0  0
   58.9610   31.3280   47.1810 N   0  0  0  0  0  0  0  0  0  0  0  0
   59.3760   30.1510   47.6540 C   0  0  0  0  0  0  0  0  0  0  0  0
   58.9230   29.2200   46.7680 N   0  0  0  0  0  0  0  0  0  0  0  0
   59.1240   27.7680   46.8510 C   0  0  0  0  0  0  0  0  0  0  0  0
   57.7700   27.1870   47.2220 C   0  0  0  0  0  0  0  0  0  0  0  0
   57.0510   26.6300   46.0120 C   0  0  0  0  0  0  0  0  0  0  0  0
   55.9890   27.4390   45.6300 O   0  0  0  0  0  0  0  0  0  0  0  0
   57.6820   32.1200   45.2500 C   0  0  0  0  0  0  0  0  0  0  0  0
   57.7110   33.3550   45.5020 N   0  0  0  0  0  0  0  0  0  0  0  0
   58.7580   34.2830   45.2380 C   0  0  0  0  0  0  0  0  0  0  0  0
   59.6540   34.2310   46.4620 C   0  0  0  0  0  0  0  0  0  0  0  0
   59.1960   34.6010   47.7050 C   0  0  0  0  0  0  0  0  0  0  0  0
   60.0060   34.5570   48.8280 C   0  0  0  0  0  0  0  0  0  0  0  0
   61.2970   34.1380   48.7080 C   0  0  0  0  0  0  0  0  0  0  0  0
   61.7780   33.7630   47.4770 C   0  0  0  0  0  0  0  0  0  0  0  0
   63.5800   33.1770   47.3110 Br  0  0  0  0  0  0  0  0  0  0  0  0
   60.9620   33.8120   46.3720 C   0  0  0  0  0  0  0  0  0  0  0  0
   57.0470   31.6600   44.1490 N   0  0  0  0  0  0  0  0  0  0  0  0
   55.3279   29.4677   42.8837 H   0  0  0  0  0  0  0  0  0  0  0  0
   56.0509   30.8686   42.0226 H   0  0  0  0  0  0  0  0  0  0  0  0
   56.8934   29.2821   42.0226 H   0  0  0  0  0  0  0  0  0  0  0  0
   59.9612   29.9703   48.5677 H   0  0  0  0  0  0  0  0  0  0  0  0
   59.4593   27.3710   45.8815 H   0  0  0  0  0  0  0  0  0  0  0  0
   59.8950   27.5061   47.5905 H   0  0  0  0  0  0  0  0  0  0  0  0
   57.9169   26.3785   47.9532 H   0  0  0  0  0  0  0  0  0  0  0  0
   57.1544   27.9939   47.6462 H   0  0  0  0  0  0  0  0  0  0  0  0
   57.7626   26.5572   45.1763 H   0  0  0  0  0  0  0  0  0  0  0  0
   56.6511   25.6397   46.2756 H   0  0  0  0  0  0  0  0  0  0  0  0
   56.1960   27.8230   44.7580 H   0  0  0  0  0  0  0  0  0  0  0  0
   59.3171   33.9879   44.3379 H   0  0  0  0  0  0  0  0  0  0  0  0
   58.3722   35.2965   45.0537 H   0  0  0  0  0  0  0  0  0  0  0  0
   58.1555   34.9420   47.8106 H   0  0  0  0  0  0  0  0  0  0  0  0
   59.6100   34.8580   49.8091 H   0  0  0  0  0  0  0  0  0  0  0  0
   61.9505   34.1002   49.5920 H   0  0  0  0  0  0  0  0  0  0  0  0
   61.3634   33.5095   45.3936 H   0  0  0  0  0  0  0  0  0  0  0  0
   56.5950   32.3560   43.5370 H   0  0  0  0  0  0  0  0  0  0  0  0
  1  2  1  0
  2  3  2  0
  3  4  1  0
  4  5  2  0
  5  6  1  0
  6  7  2  0
  7  8  1  0
  8  9  1  0
  9 10  1  0
 10 11  1  0
 11 12  1  0
  5 13  1  0
 13 14  2  0
 14 15  1  0
 15 16  1  0
 16 17  2  0
 17 18  1  0
 18 19  2  0
 19 20  1  0
 20 21  1  0
 20 22  2  0
 13 23  1  0
 23  2  1  0
  8  4  1  0
 22 16  1  0
  1 24  1  0
  1 25  1  0
  1 26  1  0
  7 27  1  0
  9 28  1  0
  9 29  1  0
 10 30  1  0
 10 31  1  0
 11 32  1  0
 11 33  1  0
 12 34  1  0
 15 35  1  0
 15 36  1  0
 17 37  1  0
 18 38  1  0
 19 39  1  0
 22 40  1  0
 23 41  1  0
M  END
>  <smiles>  (26) 
Cc1nc2c(ncn2CCCO)c(=NCc2cccc(Br)c2)[nH]1

>  <score_type>  (26) 
oracle

>  <origin>  (26) 
adg

>  <m_score__min__energy>  (26) 
-8.1899999999999995

>  <m_primary>  (26) 
energy

$$$$
26:0
     RDKit          3D

 55 58  0  0  0  0  0  0  0  0999 V2000
   59.9960   35.3400   46.3050 C   0  0  0  0  0  0  0  0  0  0  0  0
   59.0180   34.2950   45.8600 C   0  0  0  0  0  0  0  0  0  0  0  0
   58.8850   33.9830   44.4990 C   0  0  0  0  0  0  0  0  0  0  0  0
   58.0010   32.9820   44.0890 C   0  0  0  0  0  0  0  0  0  0  0  0
   57.2340   32.2810   45.0280 C   0  0  0  0  0  0  0  0  0  0  0  0
   56.3600   31.2420   44.5660 N   0  0  0  0  0  0  0  0  0  0  0  0
   56.6000   29.8310   44.6470 C   0  0  0  0  0  0  0  0  0  0  0  0
   55.7400   29.0710   45.1680 O   0  0  0  0  0  0  0  0  0  0  0  0
   57.8810   29.2760   44.0660 C   0  0  2  0  0  0  0  0  0  0  0  0
   57.7700   27.8060   43.5830 C   0  0  0  0  0  0  0  0  0  0  0  0
   58.2860   26.7870   44.6130 C   0  0  0  0  0  0  0  0  0  0  0  0
   58.1530   27.3160   46.0440 C   0  0  0  0  0  0  0  0  0  0  0  0
   58.9500   28.5460   46.2520 N   0  0  0  0  0  0  0  0  0  0  0  0
   58.5300   29.2630   47.4750 C   0  0  0  0  0  0  0  0  0  0  0  0
   59.6990   29.3830   48.4600 C   0  0  0  0  0  0  0  0  0  0  0  0
   59.7980   30.7560   48.9900 N   0  0  0  0  0  0  0  0  0  0  0  0
   58.8290   31.2110   49.9610 C   0  0  0  0  0  0  0  0  0  0  0  0
   58.0320   30.4010   50.5070 O   0  0  0  0  0  0  0  0  0  0  0  0
   58.7090   32.6710   50.2720 C   0  0  0  0  0  0  0  0  0  0  0  0
   59.9640   33.3290   50.1240 O   0  0  0  0  0  0  0  0  0  0  0  0
   60.8860   32.9640   49.1400 C   0  0  0  0  0  0  0  0  0  0  0  0
   61.8930   33.8640   48.7790 C   0  0  0  0  0  0  0  0  0  0  0  0
   62.8130   33.5260   47.7860 C   0  0  0  0  0  0  0  0  0  0  0  0
   62.7330   32.2850   47.1550 C   0  0  0  0  0  0  0  0  0  0  0  0
   61.7420   31.3700   47.5230 C   0  0  0  0  0  0  0  0  0  0  0  0
   60.8060   31.6940   48.5310 C   0  0  0  0  0  0  0  0  0  0  0  0
   59.0480   29.4370   45.0640 C   0  0  0  0  0  0  0  0  0  0  0  0
   57.3970   32.5660   46.3960 C   0  0  0  0  0  0  0  0  0  0  0  0
   58.2830   33.5660   46.8070 C   0  0  0  0  0  0  0  0  0  0  0  0
   60.0248   35.3708   47.4042 H   0  0  0  0  0  0  0  0  0  0  0  0
   60.9962   35.0943   45.9187 H   0  0  0  0  0  0  0  0  0  0  0  0
   59.6847   36.3218   45.9187 H   0  0  0  0  0  0  0  0  0  0  0  0
   59.4792   34.5288   43.7514 H   0  0  0  0  0  0  0  0  0  0  0  0
   57.9066   32.7424   43.0196 H   0  0  0  0  0  0  0  0  0  0  0  0
   58.0851   29.8728   43.1648 H   0  0  0  0  0  0  0  0  0  0  0  0
   56.7127   27.5861   43.3737 H   0  0  0  0  0  0  0  0  0  0  0  0
   58.3988   27.7094   42.6856 H   0  0  0  0  0  0  0  0  0  0  0  0
   57.7032   25.8588   44.5198 H   0  0  0  0  0  0  0  0  0  0  0  0
   59.3517   26.6033   44.4115 H   0  0  0  0  0  0  0  0  0  0  0  0
   57.0947   27.5395   46.2440 H   0  0  0  0  0  0  0  0  0  0  0  0
   58.5307   26.5438   46.7303 H   0  0  0  0  0  0  0  0  0  0  0  0
   58.1828   30.2704   47.2019 H   0  0  0  0  0  0  0  0  0  0  0  0
   57.7183   28.6975   47.9559 H   0  0  0  0  0  0  0  0  0  0  0  0
   59.5403   28.6846   49.2949 H   0  0  0  0  0  0  0  0  0  0  0  0
   60.6325   29.1410   47.9308 H   0  0  0  0  0  0  0  0  0  0  0  0
   57.9807   33.1265   49.5850 H   0  0  0  0  0  0  0  0  0  0  0  0
   58.3761   32.7812   51.3146 H   0  0  0  0  0  0  0  0  0  0  0  0
   61.9602   34.8414   49.2792 H   0  0  0  0  0  0  0  0  0  0  0  0
   63.6013   34.2383   47.5009 H   0  0  0  0  0  0  0  0  0  0  0  0
   63.4525   32.0249   46.3646 H   0  0  0  0  0  0  0  0  0  0  0  0
   61.6905   30.3909   47.0243 H   0  0  0  0  0  0  0  0  0  0  0  0
   59.0642   30.4800   45.4132 H   0  0  0  0  0  0  0  0  0  0  0  0
   59.9677   29.1576   44.5291 H   0  0  0  0  0  0  0  0  0  0  0  0
   56.8248   31.9995   47.1454 H   0  0  0  0  0  0  0  0  0  0  0  0
   58.4046   33.7825   47.8786 H   0  0  0  0  0  0  0  0  0  0  0  0
  1  2  1  0
  2  3  2  0
  3  4  1  0
  4  5  2  0
  5  6  1  0
  6  7  1  0
  7  8  2  0
  7  9  1  0
  9 10  1  0
 10 11  1  0
 11 12  1  0
 12 13  1  0
 13 14  1  0
 14 15  1  0
 15 16  1  0
 16 17  1  0
 17 18  2  0
 17 19  1  0
 19 20  1  0
 20 21  1  0
 21 22  2  0
 22 23  1  0
 23 24  2  0
 24 25  1  0
 25 26  2  0
 13 27  1  0
  5 28  1  0
 28 29  2  0
 29  2  1  0
 27  9  1  0
 26 16  1  0
 26 21  1  0
  1 30  1  0
  1 31  1  0
  1 32  1  0
  3 33  1  0
  4 34  1  0
  9 35  1  6
 10 36  1  0
 10 37  1  0
 11 38  1  0
 11 39  1  0
 12 40  1  0
 12 41  1  0
 14 42  1  0
 14 43  1  0
 15 44  1  0
 15 45  1  0
 19 46  1  0
 19 47  1  0
 22 48  1  0
 23 49  1  0
 24 50  1  0
 25 51  1  0
 27 52  1  0
 27 53  1  0
 28 54  1  0
 29 55  1  0
M  CHG  1   6  -1
M  END
>  <UniqueID>  (27) 
26

>  <SMILES>  (27) 
Cc1ccc([N-]C(=O)[C@@H]2CCCN(CCN3C(=O)COc4ccccc43)C2)cc1

>  <Energy>  (27) 
72.8211577003639

>  <Genealogy>  (27) 
Cc1ccc([N-]C(=O)C2CCCN(CCN3C(=O)COc4ccccc43)C2)cc1 (protonated)
Cc1ccc([N-]C(=O)[C@@H]2CCCN(CCN3C(=O)COc4ccccc43)C2)cc1 (chirality)
Cc1ccc([N-]C(=O)[C@@H]2CCCN(CCN3C(=O)COc4ccccc43)C2)cc1 (3D coordinates assigned)
Cc1ccc([N-]C(=O)[C@@H]2CCCN(CCN3C(=O)COc4ccccc43)C2)cc1 (nonaromatic ring conformer: 72.8211577003639 kcal/mol)

>  <smiles>  (27) 
Cc1ccc(NC(=O)C2CCCN(CCN3C(=O)COc4ccccc43)C2)cc1

>  <score_type>  (27) 
oracle

>  <origin>  (27) 
adg

>  <m_score__min__energy>  (27) 
-10.710000000000001

>  <m_primary>  (27) 
energy

$$$$
27:0
     RDKit          3D

 44 46  0  0  0  0  0  0  0  0999 V2000
   56.5880   27.0170   45.6310 C   0  0  0  0  0  0  0  0  0  0  0  0
   55.9130   28.2140   45.2570 O   0  0  0  0  0  0  0  0  0  0  0  0
   56.5110   29.2890   44.5780 C   0  0  0  0  0  0  0  0  0  0  0  0
   56.0380   29.7250   43.3230 C   0  0  0  0  0  0  0  0  0  0  0  0
   56.6500   30.7950   42.6690 C   0  0  0  0  0  0  0  0  0  0  0  0
   57.7390   31.4410   43.2510 C   0  0  0  0  0  0  0  0  0  0  0  0
   58.2180   31.0230   44.4940 C   0  0  0  0  0  0  0  0  0  0  0  0
   57.6120   29.9500   45.1680 C   0  0  0  0  0  0  0  0  0  0  0  0
   58.1420   29.5270   46.5170 C   0  0  0  0  0  0  0  0  0  0  0  0
   59.2990   30.3350   46.8930 N   0  0  0  0  0  0  0  0  0  0  0  0
   60.6300   30.0720   46.4330 C   0  0  0  0  0  0  0  0  0  0  0  0
   60.8390   29.1850   45.5600 O   0  0  0  0  0  0  0  0  0  0  0  0
   61.7730   30.9110   46.9200 C   0  0  0  0  0  0  0  0  0  0  0  0
   61.5950   31.3460   48.3860 C   0  0  0  0  0  0  0  0  0  0  0  0
   61.0570   32.7740   48.5360 C   0  0  0  0  0  0  0  0  0  0  0  0
   59.6660   32.8870   48.0910 N   0  0  0  0  0  0  0  0  0  0  0  0
   58.5410   32.5900   48.7990 C   0  0  0  0  0  0  0  0  0  0  0  0
   58.5310   31.8480   50.5620 Br  0  0  0  0  0  0  0  0  0  0  0  0
   57.4040   32.9180   48.1380 N   0  0  0  0  0  0  0  0  0  0  0  0
   57.8430   33.4280   46.9790 C   0  0  0  0  0  0  0  0  0  0  0  0
   57.0870   33.9450   45.9800 N   0  0  0  0  0  0  0  0  0  0  0  0
   57.7150   34.4530   44.8770 C   0  0  0  0  0  0  0  0  0  0  0  0
   59.1250   34.4460   44.7850 C   0  0  0  0  0  0  0  0  0  0  0  0
   59.8940   33.9200   45.8400 C   0  0  0  0  0  0  0  0  0  0  0  0
   59.2020   33.4120   46.9390 C   0  0  0  0  0  0  0  0  0  0  0  0
   56.6280   26.9461   46.7280 H   0  0  0  0  0  0  0  0  0  0  0  0
   56.0463   26.1490   45.2269 H   0  0  0  0  0  0  0  0  0  0  0  0
   57.6110   27.0314   45.2269 H   0  0  0  0  0  0  0  0  0  0  0  0
   55.1806   29.2180   42.8564 H   0  0  0  0  0  0  0  0  0  0  0  0
   56.2719   31.1294   41.6916 H   0  0  0  0  0  0  0  0  0  0  0  0
   58.2218   32.2812   42.7305 H   0  0  0  0  0  0  0  0  0  0  0  0
   59.0768   31.5381   44.9491 H   0  0  0  0  0  0  0  0  0  0  0  0
   57.3519   29.6544   47.2716 H   0  0  0  0  0  0  0  0  0  0  0  0
   58.4498   28.4724   46.4614 H   0  0  0  0  0  0  0  0  0  0  0  0
   62.7017   30.3277   46.8343 H   0  0  0  0  0  0  0  0  0  0  0  0
   61.8110   31.8198   46.3014 H   0  0  0  0  0  0  0  0  0  0  0  0
   60.8903   30.6550   48.8717 H   0  0  0  0  0  0  0  0  0  0  0  0
   62.5898   31.3227   48.8549 H   0  0  0  0  0  0  0  0  0  0  0  0
   61.1157   33.0660   49.5949 H   0  0  0  0  0  0  0  0  0  0  0  0
   61.6697   33.4354   47.9057 H   0  0  0  0  0  0  0  0  0  0  0  0
   56.4180   32.8230   48.4680 H   0  0  0  0  0  0  0  0  0  0  0  0
   57.1172   34.8710   44.0536 H   0  0  0  0  0  0  0  0  0  0  0  0
   59.6208   34.8509   43.8904 H   0  0  0  0  0  0  0  0  0  0  0  0
   60.9932   33.9101   45.7994 H   0  0  0  0  0  0  0  0  0  0  0  0
  1  2  1  0
  2  3  1  0
  3  4  2  0
  4  5  1  0
  5  6  2  0
  6  7  1  0
  7  8  2  0
  8  9  1  0
  9 10  1  0
 10 11  1  0
 11 12  2  0
 11 13  1  0
 13 14  1  0
 14 15  1  0
 15 16  1  0
 16 17  1  0
 17 18  1  0
 17 19  2  0
 19 20  1  0
 20 21  2  0
 21 22  1  0
 22 23  2  0
 23 24  1  0
 24 25  2  0
  8  3  1  0
 25 16  1  0
 25 20  1  0
  1 26  1  0
  1 27  1  0
  1 28  1  0
  4 29  1  0
  5 30  1  0
  6 31  1  0
  7 32  1  0
  9 33  1  0
  9 34  1  0
 13 35  1  0
 13 36  1  0
 14 37  1  0
 14 38  1  0
 15 39  1  0
 15 40  1  0
 19 41  1  0
 22 42  1  0
 23 43  1  0
 24 44  1  0
M  CHG  2  10  -1  19   1
M  END
>  <UniqueID>  (28) 
27

>  <SMILES>  (28) 
COc1ccccc1C[N-]C(=O)CCCn1c(Br)[nH+]c2ncccc21

>  <Energy>  (28) 
76.9825018423941

>  <Genealogy>  (28) 
COc1ccccc1C[N-]C(=O)CCCn1c(Br)[nH+]c2ncccc21 (protonated)
COc1ccccc1C[N-]C(=O)CCCn1c(Br)[nH+]c2ncccc21 (3D coordinates assigned)
COc1ccccc1C[N-]C(=O)CCCn1c(Br)[nH+]c2ncccc21 (optimized conformer: 76.9825018423941 kcal/mol)

>  <smiles>  (28) 
COc1ccccc1CNC(=O)CCCn1c(Br)nc2ncccc21

>  <score_type>  (28) 
oracle

>  <origin>  (28) 
adg

>  <m_score__min__energy>  (28) 
-8.4299999999999997

>  <m_primary>  (28) 
energy

$$$$
28:0
     RDKit          3D

 38 38  0  0  0  0  0  0  0  0999 V2000
   58.2950   29.0590   45.5210 C   0  0  0  0  0  0  0  0  0  0  0  0
   56.9770   29.5920   45.5730 O   0  0  0  0  0  0  0  0  0  0  0  0
   56.4020   30.2820   44.5020 C   0  0  0  0  0  0  0  0  0  0  0  0
   55.1880   30.1100   44.2030 O   0  0  0  0  0  0  0  0  0  0  0  0
   57.2450   31.2060   43.6800 C   0  0  0  0  0  0  0  0  0  0  0  0
   57.5840   32.4870   44.4520 C   0  0  0  0  0  0  0  0  0  0  0  0
   57.7250   32.2300   45.8890 N   0  0  0  0  0  0  0  0  0  0  0  0
   58.7640   32.8150   46.7000 C   0  0  0  0  0  0  0  0  0  0  0  0
   58.5190   33.0460   48.0570 C   0  0  0  0  0  0  0  0  0  0  0  0
   59.5050   33.6140   48.8820 C   0  0  0  0  0  0  0  0  0  0  0  0
   59.2800   33.8530   50.2480 O   0  0  0  0  0  0  0  0  0  0  0  0
   58.9240   32.8520   51.1980 C   0  0  0  0  0  0  0  0  0  0  0  0
   60.7560   33.9580   48.3480 C   0  0  0  0  0  0  0  0  0  0  0  0
   61.6900   34.5220   49.2390 O   0  0  0  0  0  0  0  0  0  0  0  0
   62.5370   33.8170   50.1400 C   0  0  0  0  0  0  0  0  0  0  0  0
   61.0190   33.7310   46.9720 C   0  0  0  0  0  0  0  0  0  0  0  0
   62.2680   34.0760   46.4310 O   0  0  0  0  0  0  0  0  0  0  0  0
   63.5100   33.4760   46.7880 C   0  0  0  0  0  0  0  0  0  0  0  0
   60.0150   33.1620   46.1640 C   0  0  0  0  0  0  0  0  0  0  0  0
   58.6698   28.9074   46.5440 H   0  0  0  0  0  0  0  0  0  0  0  0
   58.2804   28.0961   44.9894 H   0  0  0  0  0  0  0  0  0  0  0  0
   58.9538   29.7614   44.9894 H   0  0  0  0  0  0  0  0  0  0  0  0
   58.1796   30.6929   43.4094 H   0  0  0  0  0  0  0  0  0  0  0  0
   56.6782   31.4836   42.7791 H   0  0  0  0  0  0  0  0  0  0  0  0
   58.5304   32.8954   44.0679 H   0  0  0  0  0  0  0  0  0  0  0  0
   56.7608   33.2026   44.3096 H   0  0  0  0  0  0  0  0  0  0  0  0
   57.0410   31.5920   46.3550 H   0  0  0  0  0  0  0  0  0  0  0  0
   57.5412   32.7796   48.4848 H   0  0  0  0  0  0  0  0  0  0  0  0
   59.0641   33.2458   52.2155 H   0  0  0  0  0  0  0  0  0  0  0  0
   57.8704   32.5698   51.0559 H   0  0  0  0  0  0  0  0  0  0  0  0
   59.5628   31.9679   51.0559 H   0  0  0  0  0  0  0  0  0  0  0  0
   62.2506   34.0554   51.1750 H   0  0  0  0  0  0  0  0  0  0  0  0
   62.4329   32.7351   49.9706 H   0  0  0  0  0  0  0  0  0  0  0  0
   63.5820   34.1157   49.9706 H   0  0  0  0  0  0  0  0  0  0  0  0
   63.5956   33.4346   47.8839 H   0  0  0  0  0  0  0  0  0  0  0  0
   63.5559   32.4564   46.3779 H   0  0  0  0  0  0  0  0  0  0  0  0
   64.3373   34.0738   46.3779 H   0  0  0  0  0  0  0  0  0  0  0  0
   60.2140   32.9867   45.0964 H   0  0  0  0  0  0  0  0  0  0  0  0
  1  2  1  0
  2  3  1  0
  3  4  2  0
  3  5  1  0
  5  6  1  0
  6  7  1  0
  7  8  1  0
  8  9  2  0
  9 10  1  0
 10 11  1  0
 11 12  1  0
 10 13  2  0
 13 14  1  0
 14 15  1  0
 13 16  1  0
 16 17  1  0
 17 18  1  0
 16 19  2  0
 19  8  1  0
  1 20  1  0
  1 21  1  0
  1 22  1  0
  5 23  1  0
  5 24  1  0
  6 25  1  0
  6 26  1  0
  7 27  1  0
  9 28  1  0
 12 29  1  0
 12 30  1  0
 12 31  1  0
 15 32  1  0
 15 33  1  0
 15 34  1  0
 18 35  1  0
 18 36  1  0
 18 37  1  0
 19 38  1  0
M  END
>  <UniqueID>  (29) 
28

>  <SMILES>  (29) 
COC(=O)CCNc1cc(OC)c(OC)c(OC)c1

>  <Energy>  (29) 
31.37393967666655

>  <Genealogy>  (29) 
COC(=O)CCNc1cc(OC)c(OC)c(OC)c1 (3D coordinates assigned)
COC(=O)CCNc1cc(OC)c(OC)c(OC)c1 (optimized conformer: 31.37393967666655 kcal/mol)

>  <smiles>  (29) 
COC(=O)CCNc1cc(OC)c(OC)c(OC)c1

>  <score_type>  (29) 
oracle

>  <origin>  (29) 
adg

>  <m_score__min__energy>  (29) 
-5.2699999999999996

>  <m_primary>  (29) 
energy

$$$$
29:0
     RDKit          3D

 62 66  0  0  0  0  0  0  0  0999 V2000
   60.2631   25.8608   46.6402 H   0  0  0  0  0  0  0  0  0  0  0  0
   59.4930   25.3530   46.0410 C   0  0  0  0  0  0  0  0  0  0  0  0
   59.4020   24.0210   45.8590 N   0  0  0  0  0  0  0  0  0  0  0  0
   58.3550   23.7910   45.0870 N   0  0  0  0  0  0  0  0  0  0  0  0
   57.9450   22.4600   44.6510 C   0  0  0  0  0  0  0  0  0  0  0  0
   57.4858   21.9269   45.4965 H   0  0  0  0  0  0  0  0  0  0  0  0
   58.8301   21.9122   44.2952 H   0  0  0  0  0  0  0  0  0  0  0  0
   56.9370   22.5620   43.5150 C   0  0  0  0  0  0  0  0  0  0  0  0
   55.9241   22.6645   43.9316 H   0  0  0  0  0  0  0  0  0  0  0  0
   57.1696   23.4412   42.8962 H   0  0  0  0  0  0  0  0  0  0  0  0
   56.9888   21.6540   42.8962 H   0  0  0  0  0  0  0  0  0  0  0  0
   57.7640   24.9530   44.7550 C   0  0  0  0  0  0  0  0  0  0  0  0
   56.8758   25.0636   44.1156 H   0  0  0  0  0  0  0  0  0  0  0  0
   58.4640   25.9860   45.3550 C   0  0  0  0  0  0  0  0  0  0  0  0
   58.1710   27.4440   45.2950 C   0  0  0  0  0  0  0  0  0  0  0  0
   57.4100   27.9820   44.2400 C   0  0  0  0  0  0  0  0  0  0  0  0
   57.0322   27.3178   43.4487 H   0  0  0  0  0  0  0  0  0  0  0  0
   57.1290   29.3490   44.1860 C   0  0  0  0  0  0  0  0  0  0  0  0
   56.5308   29.7528   43.3559 H   0  0  0  0  0  0  0  0  0  0  0  0
   57.6040   30.2050   45.1810 C   0  0  0  0  0  0  0  0  0  0  0  0
   57.3410   31.5360   45.1160 N   0  0  0  0  0  0  0  0  0  0  0  0
   57.8030   32.3940   46.0660 C   0  0  0  0  0  0  0  0  0  0  0  0
   57.5610   33.6680   45.9920 N   0  0  0  0  0  0  0  0  0  0  0  0
   58.5100   34.7210   46.3510 C   0  0  0  0  0  0  0  0  0  0  0  0
   58.1898   35.6697   45.8956 H   0  0  0  0  0  0  0  0  0  0  0  0
   58.5382   34.8214   47.4461 H   0  0  0  0  0  0  0  0  0  0  0  0
   59.9110   34.3640   45.8450 C   0  0  0  0  0  0  0  0  0  0  0  0
   59.8901   33.3559   45.4054 H   0  0  0  0  0  0  0  0  0  0  0  0
   60.2131   35.1039   45.0892 H   0  0  0  0  0  0  0  0  0  0  0  0
   60.8910   34.3900   46.9550 N   0  0  0  0  0  0  0  0  0  0  0  0
   61.9400   33.3750   46.7430 C   0  0  0  0  0  0  0  0  0  0  0  0
   61.4794   32.3763   46.7224 H   0  0  0  0  0  0  0  0  0  0  0  0
   62.4451   33.5776   45.7870 H   0  0  0  0  0  0  0  0  0  0  0  0
   62.9810   33.4320   47.8820 C   0  0  0  0  0  0  0  0  0  0  0  0
   63.1529   32.4113   48.2543 H   0  0  0  0  0  0  0  0  0  0  0  0
   63.9015   33.8731   47.4720 H   0  0  0  0  0  0  0  0  0  0  0  0
   62.5580   34.2450   48.9630 O   0  0  0  0  0  0  0  0  0  0  0  0
   61.2620   33.8560   49.3650 C   0  0  0  0  0  0  0  0  0  0  0  0
   61.2555   32.7744   49.5654 H   0  0  0  0  0  0  0  0  0  0  0  0
   60.9910   34.4140   50.2734 H   0  0  0  0  0  0  0  0  0  0  0  0
   60.2310   34.1730   48.2620 C   0  0  0  0  0  0  0  0  0  0  0  0
   59.5300   33.3299   48.1738 H   0  0  0  0  0  0  0  0  0  0  0  0
   59.6984   35.0947   48.5392 H   0  0  0  0  0  0  0  0  0  0  0  0
   58.5340   31.9150   47.1050 N   0  0  0  0  0  0  0  0  0  0  0  0
   58.8210   30.5930   47.2280 C   0  0  0  0  0  0  0  0  0  0  0  0
   59.5830   30.1510   48.3570 N   0  0  0  0  0  0  0  0  0  0  0  0
   58.9110   29.3420   49.3840 C   0  0  0  0  0  0  0  0  0  0  0  0
   57.9660   29.8320   49.6614 H   0  0  0  0  0  0  0  0  0  0  0  0
   58.7292   28.3409   48.9661 H   0  0  0  0  0  0  0  0  0  0  0  0
   59.7730   29.1850   50.6360 C   0  0  0  0  0  0  0  0  0  0  0  0
   59.7120   30.1071   51.2326 H   0  0  0  0  0  0  0  0  0  0  0  0
   59.3989   28.3268   51.2135 H   0  0  0  0  0  0  0  0  0  0  0  0
   61.1220   28.9440   50.2950 O   0  0  0  0  0  0  0  0  0  0  0  0
   61.6660   30.1110   49.7190 C   0  0  0  0  0  0  0  0  0  0  0  0
   61.4777   30.9638   50.3877 H   0  0  0  0  0  0  0  0  0  0  0  0
   62.7470   29.9625   49.5797 H   0  0  0  0  0  0  0  0  0  0  0  0
   61.0320   30.3950   48.3540 C   0  0  0  0  0  0  0  0  0  0  0  0
   61.2141   31.4472   48.0902 H   0  0  0  0  0  0  0  0  0  0  0  0
   61.4889   29.7151   47.6198 H   0  0  0  0  0  0  0  0  0  0  0  0
   58.3650   29.6900   46.2480 C   0  0  0  0  0  0  0  0  0  0  0  0
   58.6460   28.3120   46.2960 C   0  0  0  0  0  0  0  0  0  0  0  0
   59.2443   27.9082   47.1261 H   0  0  0  0  0  0  0  0  0  0  0  0
  1  2  1  0
  2  3  2  0
  3  4  1  0
  4  5  1  0
  5  6  1  0
  5  7  1  0
  5  8  1  0
  8  9  1  0
  8 10  1  0
  8 11  1  0
  4 12  1  0
 12 13  1  0
 12 14  2  0
 14 15  1  0
 15 16  2  0
 16 17  1  0
 16 18  1  0
 18 19  1  0
 18 20  2  0
 20 21  1  0
 21 22  1  0
 22 23  2  0
 23 24  1  0
 24 25  1  0
 24 26  1  0
 24 27  1  0
 27 28  1  0
 27 29  1  0
 27 30  1  0
 30 31  1  0
 31 32  1  0
 31 33  1  0
 31 34  1  0
 34 35  1  0
 34 36  1  0
 34 37  1  0
 37 38  1  0
 38 39  1  0
 38 40  1  0
 38 41  1  0
 41 42  1  0
 41 43  1  0
 22 44  1  0
 44 45  2  0
 45 46  1  0
 46 47  1  0
 47 48  1  0
 47 49  1  0
 47 50  1  0
 50 51  1  0
 50 52  1  0
 50 53  1  0
 53 54  1  0
 54 55  1  0
 54 56  1  0
 54 57  1  0
 57 58  1  0
 57 59  1  0
 45 60  1  0
 60 61  2  0
 61 62  1  0
 14  2  1  0
 61 15  1  0
 60 20  1  0
 41 30  1  0
 57 46  1  0
M  CHG  1  21  -1
M  END
>  <UniqueID>  (30) 
29

>  <SMILES>  (30) 
CCn1cc(-c2ccc3[n-]/c(=N\CCN4CCOCC4)nc(N4CCOCC4)c3c2)cn1

>  <Energy>  (30) 
114.06821498791945

>  <Genealogy>  (30) 
CCn1cc(-c2ccc3[n-]c(=NCCN4CCOCC4)nc(N4CCOCC4)c3c2)cn1 (protonated)
CCn1cc(-c2ccc3[n-]/c(=N\CCN4CCOCC4)nc(N4CCOCC4)c3c2)cn1 (cis-trans isomerization)
CCn1cc(-c2ccc3[n-]/c(=N\CCN4CCOCC4)nc(N4CCOCC4)c3c2)cn1 (3D coordinates assigned)
CCn1cc(-c2ccc3[n-]/c(=N\CCN4CCOCC4)nc(N4CCOCC4)c3c2)cn1 (nonaromatic ring conformer: 114.06821498791945 kcal/mol)

>  <smiles>  (30) 
CCn1cc(-c2ccc3[nH]c(=NCCN4CCOCC4)nc(N4CCOCC4)c3c2)cn1

>  <score_type>  (30) 
oracle

>  <origin>  (30) 
adg

>  <m_score__min__energy>  (30) 
-10.460000000000001

>  <m_primary>  (30) 
energy

$$$$
30:0
     RDKit          3D

 45 46  0  0  0  0  0  0  0  0999 V2000
   63.3510   31.9370   47.5230 C   0  0  0  0  0  0  0  0  0  0  0  0
   63.7380   33.2030   46.7650 C   0  0  0  0  0  0  0  0  0  0  0  0
   62.6550   34.1090   46.7090 O   0  0  0  0  0  0  0  0  0  0  0  0
   61.4470   33.4750   47.0840 C   0  0  0  0  0  0  0  0  0  0  0  0
   60.3600   34.5350   47.2690 C   0  0  0  0  0  0  0  0  0  0  0  0
   59.0580   34.0130   46.8370 N   0  0  0  0  0  0  0  0  0  0  0  0
   58.3580   32.9980   47.6210 C   0  0  0  0  0  0  0  0  0  0  0  0
   58.1470   31.7520   46.7460 C   0  0  0  0  0  0  0  0  0  0  0  0
   57.4680   32.0330   45.4440 N   0  0  0  0  0  0  0  0  0  0  0  0
   58.0500   31.2350   44.3420 C   0  0  0  0  0  0  0  0  0  0  0  0
   58.2740   29.8030   44.7720 C   0  0  0  0  0  0  0  0  0  0  0  0
   59.5940   29.3280   44.8900 C   0  0  0  0  0  0  0  0  0  0  0  0
   59.8410   28.0010   45.2450 C   0  0  0  0  0  0  0  0  0  0  0  0
   58.7780   27.1340   45.4920 C   0  0  0  0  0  0  0  0  0  0  0  0
   57.4620   27.5890   45.3820 C   0  0  0  0  0  0  0  0  0  0  0  0
   57.1940   28.9270   45.0240 C   0  0  0  0  0  0  0  0  0  0  0  0
   55.8790   29.4080   44.9110 O   0  0  0  0  0  0  0  0  0  0  0  0
   55.2390   29.7230   43.6790 C   0  0  0  0  0  0  0  0  0  0  0  0
   57.3550   33.4670   45.0720 C   0  0  0  0  0  0  0  0  0  0  0  0
   58.5480   34.2560   45.5210 C   0  0  0  0  0  0  0  0  0  0  0  0
   59.0680   35.1200   44.7680 O   0  0  0  0  0  0  0  0  0  0  0  0
   63.4086   32.1255   48.6052 H   0  0  0  0  0  0  0  0  0  0  0  0
   62.3237   31.6489   47.2552 H   0  0  0  0  0  0  0  0  0  0  0  0
   64.0416   31.1237   47.2552 H   0  0  0  0  0  0  0  0  0  0  0  0
   64.5842   33.6846   47.2769 H   0  0  0  0  0  0  0  0  0  0  0  0
   64.0173   32.9257   45.7378 H   0  0  0  0  0  0  0  0  0  0  0  0
   61.1424   32.7688   46.2975 H   0  0  0  0  0  0  0  0  0  0  0  0
   61.5938   32.9273   48.0266 H   0  0  0  0  0  0  0  0  0  0  0  0
   60.3039   34.8152   48.3312 H   0  0  0  0  0  0  0  0  0  0  0  0
   60.6120   35.4150   46.6590 H   0  0  0  0  0  0  0  0  0  0  0  0
   58.9596   32.7325   48.5028 H   0  0  0  0  0  0  0  0  0  0  0  0
   57.3853   33.3891   47.9539 H   0  0  0  0  0  0  0  0  0  0  0  0
   59.1304   31.3069   46.5346 H   0  0  0  0  0  0  0  0  0  0  0  0
   57.4886   31.0744   47.3094 H   0  0  0  0  0  0  0  0  0  0  0  0
   57.3616   31.2498   43.4842 H   0  0  0  0  0  0  0  0  0  0  0  0
   59.0196   31.6741   44.0645 H   0  0  0  0  0  0  0  0  0  0  0  0
   60.4375   30.0082   44.7009 H   0  0  0  0  0  0  0  0  0  0  0  0
   60.8762   27.6388   45.3300 H   0  0  0  0  0  0  0  0  0  0  0  0
   58.9758   26.0894   45.7741 H   0  0  0  0  0  0  0  0  0  0  0  0
   56.6279   26.8986   45.5761 H   0  0  0  0  0  0  0  0  0  0  0  0
   54.2689   30.2005   43.8813 H   0  0  0  0  0  0  0  0  0  0  0  0
   55.8734   30.4118   43.1019 H   0  0  0  0  0  0  0  0  0  0  0  0
   55.0802   28.8001   43.1019 H   0  0  0  0  0  0  0  0  0  0  0  0
   57.2680   33.5450   43.9782 H   0  0  0  0  0  0  0  0  0  0  0  0
   56.4656   33.8798   45.5706 H   0  0  0  0  0  0  0  0  0  0  0  0
  1  2  1  0
  2  3  1  0
  3  4  1  0
  4  5  1  0
  5  6  1  0
  6  7  1  0
  7  8  1  0
  8  9  1  0
  9 10  1  0
 10 11  1  0
 11 12  2  0
 12 13  1  0
 13 14  2  0
 14 15  1  0
 15 16  2  0
 16 17  1  0
 17 18  1  0
  9 19  1  0
 19 20  1  0
 20 21  2  0
 20  6  1  0
 16 11  1  0
  1 22  1  0
  1 23  1  0
  1 24  1  0
  2 25  1  0
  2 26  1  0
  4 27  1  0
  4 28  1  0
  5 29  1  0
  5 30  1  0
  7 31  1  0
  7 32  1  0
  8 33  1  0
  8 34  1  0
 10 35  1  0
 10 36  1  0
 12 37  1  0
 13 38  1  0
 14 39  1  0
 15 40  1  0
 18 41  1  0
 18 42  1  0
 18 43  1  0
 19 44  1  0
 19 45  1  0
M  END
>  <UniqueID>  (31) 
30

>  <SMILES>  (31) 
CCOCCN1CCN(Cc2ccccc2OC)CC1=O

>  <Energy>  (31) 
48.129950710945586

>  <Genealogy>  (31) 
CCOCCN1CCN(Cc2ccccc2OC)CC1=O (3D coordinates assigned)
CCOCCN1CCN(Cc2ccccc2OC)CC1=O (nonaromatic ring conformer: 48.129950710945586 kcal/mol)

>  <smiles>  (31) 
CCOCCN1CCN(Cc2ccccc2OC)CC1=O

>  <score_type>  (31) 
oracle

>  <origin>  (31) 
adg

>  <m_score__min__energy>  (31) 
-7.0800000000000001

>  <m_primary>  (31) 
energy

$$$$
31:0
     RDKit          3D

 41 43  0  0  0  0  0  0  0  0999 V2000
   62.5780   33.8480   45.2190 H   0  0  0  0  0  0  0  0  0  0  0  0
   63.2610   33.8390   45.9370 O   0  0  0  0  0  0  0  0  0  0  0  0
   62.4710   33.6890   47.2150 S   0  0  0  0  0  4  0  0  0  0  0  0
   61.0620   33.8490   47.2150 N   0  0  0  0  0  0  0  0  0  0  0  0
   60.1210   32.8600   46.7650 C   0  0  0  0  0  0  0  0  0  0  0  0
   58.8550   33.2010   46.2540 C   0  0  0  0  0  0  0  0  0  0  0  0
   58.5441   34.2557   46.2222 H   0  0  0  0  0  0  0  0  0  0  0  0
   57.9910   32.2080   45.7870 C   0  0  0  0  0  0  0  0  0  0  0  0
   56.9998   32.4860   45.3993 H   0  0  0  0  0  0  0  0  0  0  0  0
   58.3770   30.8560   45.8080 C   0  0  0  0  0  0  0  0  0  0  0  0
   59.6500   30.5110   46.3090 C   0  0  0  0  0  0  0  0  0  0  0  0
   60.5190   31.5190   46.7580 C   0  0  0  0  0  0  0  0  0  0  0  0
   61.5263   31.2502   47.1089 H   0  0  0  0  0  0  0  0  0  0  0  0
   60.1270   29.0810   46.2940 C   0  0  0  0  0  0  0  0  0  0  0  0
   60.8021   28.9208   47.1476 H   0  0  0  0  0  0  0  0  0  0  0  0
   60.6483   28.9020   45.3421 H   0  0  0  0  0  0  0  0  0  0  0  0
   58.9570   28.0950   46.3930 C   0  0  0  0  0  0  0  0  0  0  0  0
   58.4965   28.1956   47.3869 H   0  0  0  0  0  0  0  0  0  0  0  0
   59.3617   27.0853   46.2294 H   0  0  0  0  0  0  0  0  0  0  0  0
   57.8670   28.3400   45.3150 C   0  0  0  0  0  0  0  0  0  0  0  0
   58.3900   27.9620   43.9140 C   0  0  0  0  0  0  0  0  0  0  0  0
   59.2778   27.3204   44.0148 H   0  0  0  0  0  0  0  0  0  0  0  0
   57.6065   27.4201   43.3640 H   0  0  0  0  0  0  0  0  0  0  0  0
   58.6587   28.8760   43.3640 H   0  0  0  0  0  0  0  0  0  0  0  0
   56.6490   27.4530   45.6490 C   0  0  0  0  0  0  0  0  0  0  0  0
   56.5411   27.3744   46.7409 H   0  0  0  0  0  0  0  0  0  0  0  0
   55.7402   27.9022   45.2221 H   0  0  0  0  0  0  0  0  0  0  0  0
   56.7976   26.4502   45.2221 H   0  0  0  0  0  0  0  0  0  0  0  0
   57.4570   29.8030   45.3080 C   0  0  0  0  0  0  0  0  0  0  0  0
   56.3460   30.1330   44.8100 O   0  0  0  0  0  0  0  0  0  0  0  0
   63.2490   33.5280   48.5930 C   0  0  0  0  0  0  0  0  0  0  0  0
   62.6380   33.9010   49.8010 C   0  0  0  0  0  0  0  0  0  0  0  0
   61.6161   34.3081   49.8030 H   0  0  0  0  0  0  0  0  0  0  0  0
   63.3380   33.7510   50.9990 C   0  0  0  0  0  0  0  0  0  0  0  0
   62.8685   34.0399   51.9509 H   0  0  0  0  0  0  0  0  0  0  0  0
   64.6320   33.2350   50.9880 C   0  0  0  0  0  0  0  0  0  0  0  0
   65.1902   33.1149   51.9282 H   0  0  0  0  0  0  0  0  0  0  0  0
   65.2130   32.8720   49.7720 C   0  0  0  0  0  0  0  0  0  0  0  0
   66.2338   32.4627   49.7527 H   0  0  0  0  0  0  0  0  0  0  0  0
   64.5200   33.0230   48.6090 N   0  0  0  0  0  0  0  0  0  0  0  0
   64.9880   32.7390   47.7180 H   0  0  0  0  0  0  0  0  0  0  0  0
  1  2  1  0
  2  3  1  0
  3  4  2  0
  4  5  1  0
  5  6  2  0
  6  7  1  0
  6  8  1  0
  8  9  1  0
  8 10  2  0
 10 11  1  0
 11 12  2  0
 12 13  1  0
 11 14  1  0
 14 15  1  0
 14 16  1  0
 14 17  1  0
 17 18  1  0
 17 19  1  0
 17 20  1  0
 20 21  1  0
 21 22  1  0
 21 23  1  0
 21 24  1  0
 20 25  1  0
 25 26  1  0
 25 27  1  0
 25 28  1  0
 20 29  1  0
 29 30  2  0
  3 31  1  0
 31 32  2  0
 32 33  1  0
 32 34  1  0
 34 35  1  0
 34 36  2  0
 36 37  1  0
 36 38  1  0
 38 39  1  0
 38 40  2  0
 40 41  1  0
 12  5  1  0
 40 31  1  0
 29 10  1  0
M  CHG  2   3   1  40   1
M  RAD  1   3   2
M  END
>  <UniqueID>  (32) 
31

>  <SMILES>  (32) 
CC1(C)CCc2cc(/N=[S+](\O)c3cccc[nH+]3)ccc2C1=O

>  <Energy>  (32) 
45.80888136662268

>  <Genealogy>  (32) 
CC1(C)CCc2cc(N=[S+](O)c3cccc[nH+]3)ccc2C1=O (protonated)
CC1(C)CCc2cc(N=[S+](O)c3cccc[nH+]3)ccc2C1=O (chirality)
CC1(C)CCc2cc(/N=[S+](\O)c3cccc[nH+]3)ccc2C1=O (cis-trans isomerization)
CC1(C)CCc2cc(/N=[S+](\O)c3cccc[nH+]3)ccc2C1=O (3D coordinates assigned)
CC1(C)CCc2cc(/N=[S+](\O)c3cccc[nH+]3)ccc2C1=O (nonaromatic ring conformer: 45.80888136662268 kcal/mol)

>  <smiles>  (32) 
CC1(C)CCc2cc(N=[S+]([O-])c3ccccn3)ccc2C1=O

>  <score_type>  (32) 
oracle

>  <origin>  (32) 
adg

>  <m_score__min__energy>  (32) 
-6.3499999999999996

>  <m_primary>  (32) 
energy

$$$$
32:0
     RDKit          3D

 55 57  0  0  0  0  0  0  0  0999 V2000
   56.5390   29.6020   42.8080 C   0  0  0  0  0  0  0  0  0  0  0  0
   55.7180   30.1350   43.9750 C   0  0  0  0  0  0  0  0  0  0  0  0
   56.4670   29.9670   45.2280 N   0  0  0  0  0  0  0  0  0  0  0  0
   57.4860   28.9090   45.1330 C   0  0  0  0  0  0  0  0  0  0  0  0
   58.6320   29.1000   46.1420 C   0  0  0  0  0  0  0  0  0  0  0  0
   58.6170   30.4550   46.6990 N   0  0  0  0  0  0  0  0  0  0  0  0
   59.7810   31.1450   47.2020 C   0  0  0  0  0  0  0  0  0  0  0  0
   60.4980   30.5640   48.2610 C   0  0  0  0  0  0  0  0  0  0  0  0
   61.6350   31.1890   48.7950 C   0  0  0  0  0  0  0  0  0  0  0  0
   62.3190   30.6140   49.8200 N   0  0  0  0  0  0  0  0  0  0  0  0
   63.4270   31.1990   50.3570 C   0  0  0  0  0  0  0  0  0  0  0  0
   64.1490   30.4590   51.4680 C   0  0  0  0  0  0  0  0  0  0  0  0
   63.5230   29.1420   51.7040 N   0  0  0  0  0  0  0  0  0  0  0  0
   62.5050   29.2510   52.7610 C   0  0  0  0  0  0  0  0  0  0  0  0
   64.5330   28.1440   52.0950 C   0  0  0  0  0  0  0  0  0  0  0  0
   63.8750   32.4030   49.8600 N   0  0  0  0  0  0  0  0  0  0  0  0
   65.0330   33.0540   50.4150 C   0  0  0  0  0  0  0  0  0  0  0  0
   64.8870   34.0280   51.4140 C   0  0  0  0  0  0  0  0  0  0  0  0
   66.0130   34.6560   51.9520 C   0  0  0  0  0  0  0  0  0  0  0  0
   67.2910   34.3100   51.5030 C   0  0  0  0  0  0  0  0  0  0  0  0
   68.3820   34.9210   52.0260 F   0  0  0  0  0  0  0  0  0  0  0  0
   67.4440   33.3310   50.5160 C   0  0  0  0  0  0  0  0  0  0  0  0
   66.3180   32.7010   49.9740 C   0  0  0  0  0  0  0  0  0  0  0  0
   63.2130   33.0110   48.8240 C   0  0  0  0  0  0  0  0  0  0  0  0
   63.6260   34.1170   48.3720 O   0  0  0  0  0  0  0  0  0  0  0  0
   62.0720   32.4130   48.2660 C   0  0  0  0  0  0  0  0  0  0  0  0
   61.3630   33.0020   47.2050 C   0  0  0  0  0  0  0  0  0  0  0  0
   60.2290   32.3790   46.6750 C   0  0  0  0  0  0  0  0  0  0  0  0
   59.5920   32.9930   45.6480 F   0  0  0  0  0  0  0  0  0  0  0  0
   57.4031   29.0410   43.1935 H   0  0  0  0  0  0  0  0  0  0  0  0
   55.9144   28.9367   42.1938 H   0  0  0  0  0  0  0  0  0  0  0  0
   56.8925   30.4433   42.1938 H   0  0  0  0  0  0  0  0  0  0  0  0
   55.5073   31.2028   43.8158 H   0  0  0  0  0  0  0  0  0  0  0  0
   54.7726   29.5764   44.0392 H   0  0  0  0  0  0  0  0  0  0  0  0
   55.7970   29.7360   45.9990 H   0  0  0  0  0  0  0  0  0  0  0  0
   57.0053   27.9384   45.3252 H   0  0  0  0  0  0  0  0  0  0  0  0
   57.9199   28.9535   44.1232 H   0  0  0  0  0  0  0  0  0  0  0  0
   58.5170   28.3731   46.9596 H   0  0  0  0  0  0  0  0  0  0  0  0
   59.5885   28.9443   45.6215 H   0  0  0  0  0  0  0  0  0  0  0  0
   57.7080   30.9730   46.7070 H   0  0  0  0  0  0  0  0  0  0  0  0
   60.1625   29.6032   48.6785 H   0  0  0  0  0  0  0  0  0  0  0  0
   61.9920   29.6970   50.2050 H   0  0  0  0  0  0  0  0  0  0  0  0
   65.2012   30.3137   51.1820 H   0  0  0  0  0  0  0  0  0  0  0  0
   64.0858   31.0536   52.3913 H   0  0  0  0  0  0  0  0  0  0  0  0
   62.9921   29.1989   53.7459 H   0  0  0  0  0  0  0  0  0  0  0  0
   61.9766   30.2109   52.6636 H   0  0  0  0  0  0  0  0  0  0  0  0
   61.7854   28.4248   52.6636 H   0  0  0  0  0  0  0  0  0  0  0  0
   64.5886   28.0891   53.1922 H   0  0  0  0  0  0  0  0  0  0  0  0
   64.2511   27.1599   51.6924 H   0  0  0  0  0  0  0  0  0  0  0  0
   65.5137   28.4376   51.6924 H   0  0  0  0  0  0  0  0  0  0  0  0
   63.8835   34.2979   51.7746 H   0  0  0  0  0  0  0  0  0  0  0  0
   65.8938   35.4241   52.7303 H   0  0  0  0  0  0  0  0  0  0  0  0
   68.4498   33.0561   50.1656 H   0  0  0  0  0  0  0  0  0  0  0  0
   66.4402   31.9279   49.2011 H   0  0  0  0  0  0  0  0  0  0  0  0
   61.7032   33.9614   46.7880 H   0  0  0  0  0  0  0  0  0  0  0  0
  1  2  1  0
  2  3  1  0
  3  4  1  0
  4  5  1  0
  5  6  1  0
  6  7  1  0
  7  8  2  0
  8  9  1  0
  9 10  1  0
 10 11  2  0
 11 12  1  0
 12 13  1  0
 13 14  1  0
 13 15  1  0
 11 16  1  0
 16 17  1  0
 17 18  2  0
 18 19  1  0
 19 20  2  0
 20 21  1  0
 20 22  1  0
 22 23  2  0
 16 24  1  0
 24 25  2  0
 24 26  1  0
 26 27  1  0
 27 28  2  0
 28 29  1  0
 28  7  1  0
 26  9  2  0
 23 17  1  0
  1 30  1  0
  1 31  1  0
  1 32  1  0
  2 33  1  0
  2 34  1  0
  3 35  1  0
  4 36  1  0
  4 37  1  0
  5 38  1  0
  5 39  1  0
  6 40  1  0
  8 41  1  0
 10 42  1  0
 12 43  1  0
 12 44  1  0
 14 45  1  0
 14 46  1  0
 14 47  1  0
 15 48  1  0
 15 49  1  0
 15 50  1  0
 18 51  1  0
 19 52  1  0
 22 53  1  0
 23 54  1  0
 27 55  1  0
M  CHG  1  10   1
M  END
>  <UniqueID>  (33) 
32

>  <SMILES>  (33) 
CCNCCNc1cc2[nH+]c(CN(C)C)n(-c3ccc(F)cc3)c(=O)c2cc1F

>  <Energy>  (33) 
68.77883911639395

>  <Genealogy>  (33) 
CCNCCNc1cc2[nH+]c(CN(C)C)n(-c3ccc(F)cc3)c(=O)c2cc1F (protonated)
CCNCCNc1cc2[nH+]c(CN(C)C)n(-c3ccc(F)cc3)c(=O)c2cc1F (3D coordinates assigned)
CCNCCNc1cc2[nH+]c(CN(C)C)n(-c3ccc(F)cc3)c(=O)c2cc1F (optimized conformer: 68.77883911639395 kcal/mol)

>  <smiles>  (33) 
CCNCCNc1cc2nc(CN(C)C)n(-c3ccc(F)cc3)c(=O)c2cc1F

>  <score_type>  (33) 
oracle

>  <origin>  (33) 
adg

>  <m_score__min__energy>  (33) 
-5.6399999999999997

>  <m_primary>  (33) 
energy

$$$$
33:0
     RDKit          3D

 67 71  0  0  0  0  0  0  0  0999 V2000
   57.2690   18.9290   46.3290 C   0  0  0  0  0  0  0  0  0  0  0  0
   56.1920   19.7900   45.7960 N   0  0  0  0  0  0  0  0  0  0  0  0
   55.7880   19.2650   44.4780 C   0  0  0  0  0  0  0  0  0  0  0  0
   56.6350   21.2170   45.7630 C   0  0  0  0  0  0  0  0  0  0  0  0
   56.6390   21.8270   44.3370 C   0  0  0  0  0  0  0  0  0  0  0  0
   57.0570   23.3030   44.3810 C   0  0  0  0  0  0  0  0  0  0  0  0
   56.2840   24.0640   45.3710 N   0  0  0  0  0  0  0  0  0  0  0  0
   56.4420   25.4980   45.4660 C   0  0  0  0  0  0  0  0  0  0  0  0
   55.5330   26.1960   45.9960 O   0  0  0  0  0  0  0  0  0  0  0  0
   57.6610   26.1840   44.9040 C   0  0  0  0  0  0  0  0  0  0  0  0
   57.9780   27.3950   45.6570 N   0  0  0  0  0  0  0  0  0  0  0  0
   58.1500   27.4710   46.9910 C   0  0  0  0  0  0  0  0  0  0  0  0
   58.3550   28.7990   47.3100 C   0  0  0  0  0  0  0  0  0  0  0  0
   58.5150   29.3670   48.6210 N   0  0  0  0  0  0  0  0  0  0  0  0
   59.7010   30.0580   49.0450 C   0  0  0  0  0  0  0  0  0  0  0  0
   60.7860   29.9030   48.4210 O   0  0  0  0  0  0  0  0  0  0  0  0
   59.6690   30.9280   50.2360 C   0  0  0  0  0  0  0  0  0  0  0  0
   60.6620   31.7930   50.7000 C   0  0  0  0  0  0  0  0  0  0  0  0
   60.2610   32.3840   51.8530 N   0  0  0  0  0  0  0  0  0  0  0  0
   59.0530   31.9160   52.1210 N   0  0  0  0  0  0  0  0  0  0  0  0
   58.2740   32.2220   53.1860 C   0  0  0  0  0  0  0  0  0  0  0  0
   57.0240   31.5960   53.2850 C   0  0  0  0  0  0  0  0  0  0  0  0
   56.6390   30.6840   52.2800 C   0  0  0  0  0  0  0  0  0  0  0  0
   57.4740   30.4160   51.2330 N   0  0  0  0  0  0  0  0  0  0  0  0
   58.6740   31.0460   51.1790 C   0  0  0  0  0  0  0  0  0  0  0  0
   58.2980   29.4810   46.1030 C   0  0  0  0  0  0  0  0  0  0  0  0
   58.4170   30.9360   45.8870 C   0  0  0  0  0  0  0  0  0  0  0  0
   59.5520   31.6200   46.3520 C   0  0  0  0  0  0  0  0  0  0  0  0
   59.6790   32.9970   46.1500 C   0  0  0  0  0  0  0  0  0  0  0  0
   61.1020   33.8410   46.7340 Cl  0  0  0  0  0  0  0  0  0  0  0  0
   58.6790   33.6970   45.4740 C   0  0  0  0  0  0  0  0  0  0  0  0
   57.5510   33.0260   44.9950 C   0  0  0  0  0  0  0  0  0  0  0  0
   57.4100   31.6370   45.1910 C   0  0  0  0  0  0  0  0  0  0  0  0
   56.2910   30.9300   44.7190 O   0  0  0  0  0  0  0  0  0  0  0  0
   56.2560   30.1630   43.5190 C   0  0  0  0  0  0  0  0  0  0  0  0
   54.9800   29.6690   43.3390 F   0  0  0  0  0  0  0  0  0  0  0  0
   56.5880   30.9630   42.4390 F   0  0  0  0  0  0  0  0  0  0  0  0
   58.0490   28.6010   45.1130 N   0  0  0  0  0  0  0  0  0  0  0  0
   55.2260   23.3870   46.1320 C   0  0  0  0  0  0  0  0  0  0  0  0
   55.7360   22.0630   46.7190 C   0  0  0  0  0  0  0  0  0  0  0  0
   57.2441   18.9489   47.4285 H   0  0  0  0  0  0  0  0  0  0  0  0
   57.1213   17.8972   45.9775 H   0  0  0  0  0  0  0  0  0  0  0  0
   58.2430   19.3002   45.9775 H   0  0  0  0  0  0  0  0  0  0  0  0
   55.1225   18.4001   44.6161 H   0  0  0  0  0  0  0  0  0  0  0  0
   55.2583   20.0494   43.9175 H   0  0  0  0  0  0  0  0  0  0  0  0
   56.6819   18.9539   43.9175 H   0  0  0  0  0  0  0  0  0  0  0  0
   57.6800   21.2406   46.1055 H   0  0  0  0  0  0  0  0  0  0  0  0
   57.3479   21.2693   43.7074 H   0  0  0  0  0  0  0  0  0  0  0  0
   55.6235   21.7587   43.9197 H   0  0  0  0  0  0  0  0  0  0  0  0
   58.1240   23.3624   44.6416 H   0  0  0  0  0  0  0  0  0  0  0  0
   56.8646   23.7405   43.3902 H   0  0  0  0  0  0  0  0  0  0  0  0
   58.5167   25.4947   44.9556 H   0  0  0  0  0  0  0  0  0  0  0  0
   57.4533   26.4658   43.8612 H   0  0  0  0  0  0  0  0  0  0  0  0
   58.1307   26.6284   47.6978 H   0  0  0  0  0  0  0  0  0  0  0  0
   57.7850   29.1720   49.3400 H   0  0  0  0  0  0  0  0  0  0  0  0
   61.6276   31.9692   50.2034 H   0  0  0  0  0  0  0  0  0  0  0  0
   58.6117   32.9390   53.9488 H   0  0  0  0  0  0  0  0  0  0  0  0
   56.3551   31.8119   54.1312 H   0  0  0  0  0  0  0  0  0  0  0  0
   55.6602   30.1856   52.3400 H   0  0  0  0  0  0  0  0  0  0  0  0
   60.3454   31.0689   46.8781 H   0  0  0  0  0  0  0  0  0  0  0  0
   58.7791   34.7812   45.3176 H   0  0  0  0  0  0  0  0  0  0  0  0
   56.7680   33.5850   44.4616 H   0  0  0  0  0  0  0  0  0  0  0  0
   56.9766   29.3353   43.5934 H   0  0  0  0  0  0  0  0  0  0  0  0
   54.8969   24.0418   46.9523 H   0  0  0  0  0  0  0  0  0  0  0  0
   54.3876   23.1712   45.4533 H   0  0  0  0  0  0  0  0  0  0  0  0
   56.3209   22.2934   47.6216 H   0  0  0  0  0  0  0  0  0  0  0  0
   54.8430   21.4528   46.9194 H   0  0  0  0  0  0  0  0  0  0  0  0
  1  2  1  0
  2  3  1  0
  2  4  1  0
  4  5  1  0
  5  6  1  0
  6  7  1  0
  7  8  1  0
  8  9  2  0
  8 10  1  0
 10 11  1  0
 11 12  1  0
 12 13  2  0
 13 14  1  0
 14 15  1  0
 15 16  2  0
 15 17  1  0
 17 18  1  0
 18 19  2  0
 19 20  1  0
 20 21  1  0
 21 22  2  0
 22 23  1  0
 23 24  2  0
 24 25  1  0
 13 26  1  0
 26 27  1  0
 27 28  2  0
 28 29  1  0
 29 30  1  0
 29 31  2  0
 31 32  1  0
 32 33  2  0
 33 34  1  0
 34 35  1  0
 35 36  1  0
 35 37  1  0
 26 38  2  0
  7 39  1  0
 39 40  1  0
 40  4  1  0
 38 11  1  0
 25 17  2  0
 33 27  1  0
 25 20  1  0
  1 41  1  0
  1 42  1  0
  1 43  1  0
  3 44  1  0
  3 45  1  0
  3 46  1  0
  4 47  1  0
  5 48  1  0
  5 49  1  0
  6 50  1  0
  6 51  1  0
 10 52  1  0
 10 53  1  0
 12 54  1  0
 14 55  1  0
 18 56  1  0
 21 57  1  0
 22 58  1  0
 23 59  1  0
 28 60  1  0
 31 61  1  0
 32 62  1  0
 35 63  1  0
 39 64  1  0
 39 65  1  0
 40 66  1  0
 40 67  1  0
M  END
>  <UniqueID>  (34) 
33

>  <SMILES>  (34) 
CN(C)C1CCN(C(=O)Cn2cc(NC(=O)c3cnn4cccnc34)c(-c3cc(Cl)ccc3OC(F)F)n2)CC1

>  <Energy>  (34) 
155.81865115462023

>  <Genealogy>  (34) 
CN(C)C1CCN(C(=O)Cn2cc(NC(=O)c3cnn4cccnc34)c(-c3cc(Cl)ccc3OC(F)F)n2)CC1 (3D coordinates assigned)
CN(C)C1CCN(C(=O)Cn2cc(NC(=O)c3cnn4cccnc34)c(-c3cc(Cl)ccc3OC(F)F)n2)CC1 (nonaromatic ring conformer: 155.81865115462023 kcal/mol)

>  <smiles>  (34) 
CN(C)C1CCN(C(=O)Cn2cc(NC(=O)c3cnn4cccnc34)c(-c3cc(Cl)ccc3OC(F)F)n2)CC1

>  <score_type>  (34) 
oracle

>  <origin>  (34) 
adg

>  <m_score__min__energy>  (34) 
-9.3599999999999994

>  <m_primary>  (34) 
energy

$$$$
34:0
     RDKit          3D

 46 47  0  0  0  0  0  0  0  0999 V2000
   61.2580   34.1870   46.6800 C   0  0  0  0  0  0  0  0  0  0  0  0
   59.8390   34.4330   47.1890 C   0  0  0  0  0  0  0  0  0  0  0  0
   59.0980   33.1520   47.2710 N   0  0  0  0  0  0  0  0  0  0  0  0
   57.6860   33.2860   46.8280 C   0  0  0  0  0  0  0  0  0  0  0  0
   57.4950   34.1900   45.6000 C   0  0  0  0  0  0  0  0  0  0  0  0
   59.8370   32.0480   46.6140 C   0  0  0  0  0  0  0  0  0  0  0  0
   60.1720   30.9210   47.5950 C   0  0  0  0  0  0  0  0  0  0  0  0
   59.4400   29.7500   47.2520 O   0  0  0  0  0  0  0  0  0  0  0  0
   59.5640   29.1140   46.0150 C   0  0  0  0  0  0  0  0  0  0  0  0
   60.5820   29.3070   45.2930 O   0  0  0  0  0  0  0  0  0  0  0  0
   58.4970   28.1430   45.5810 C   0  0  1  0  0  0  0  0  0  0  0  0
   58.4410   26.9090   46.4760 C   0  0  0  0  0  0  0  0  0  0  0  0
   59.6960   26.3440   47.0800 C   0  0  0  0  0  0  0  0  0  0  0  0
   57.3400   26.2200   46.5820 N   0  0  0  0  0  0  0  0  0  0  0  0
   56.1170   26.6300   45.9660 C   0  0  0  0  0  0  0  0  0  0  0  0
   55.1080   25.8790   46.0090 O   0  0  0  0  0  0  0  0  0  0  0  0
   56.0480   27.8940   45.3040 N   0  0  0  0  0  0  0  0  0  0  0  0
   57.1240   28.8630   45.5120 C   0  0  2  0  0  0  0  0  0  0  0  0
   57.1180   29.8900   44.4080 C   0  0  0  0  0  0  0  0  0  0  0  0
   57.8570   31.0670   44.3940 C   0  0  0  0  0  0  0  0  0  0  0  0
   57.7390   31.7820   43.1920 C   0  0  0  0  0  0  0  0  0  0  0  0
   56.9220   31.1660   42.2540 C   0  0  0  0  0  0  0  0  0  0  0  0
   56.3470   29.7290   42.9180 S   0  0  0  0  0  0  0  0  0  0  0  0
   61.9391   34.0689   47.5356 H   0  0  0  0  0  0  0  0  0  0  0  0
   61.2750   33.2725   46.0689 H   0  0  0  0  0  0  0  0  0  0  0  0
   61.5818   35.0424   46.0689 H   0  0  0  0  0  0  0  0  0  0  0  0
   59.8851   34.8912   48.1880 H   0  0  0  0  0  0  0  0  0  0  0  0
   59.3182   35.1062   46.4921 H   0  0  0  0  0  0  0  0  0  0  0  0
   57.3051   32.2839   46.5815 H   0  0  0  0  0  0  0  0  0  0  0  0
   57.1378   33.7579   47.6567 H   0  0  0  0  0  0  0  0  0  0  0  0
   57.2781   35.2165   45.9305 H   0  0  0  0  0  0  0  0  0  0  0  0
   58.4138   34.1859   44.9952 H   0  0  0  0  0  0  0  0  0  0  0  0
   56.6563   33.8146   44.9952 H   0  0  0  0  0  0  0  0  0  0  0  0
   59.2179   31.6398   45.8016 H   0  0  0  0  0  0  0  0  0  0  0  0
   60.7828   32.4545   46.2264 H   0  0  0  0  0  0  0  0  0  0  0  0
   61.2495   30.7048   47.5486 H   0  0  0  0  0  0  0  0  0  0  0  0
   59.9003   31.2337   48.6140 H   0  0  0  0  0  0  0  0  0  0  0  0
   58.7553   27.7802   44.5752 H   0  0  0  0  0  0  0  0  0  0  0  0
   59.6221   26.3773   48.1770 H   0  0  0  0  0  0  0  0  0  0  0  0
   59.8235   25.3016   46.7525 H   0  0  0  0  0  0  0  0  0  0  0  0
   60.5609   26.9396   46.7525 H   0  0  0  0  0  0  0  0  0  0  0  0
   55.1440   28.1960   44.8740 H   0  0  0  0  0  0  0  0  0  0  0  0
   56.9564   29.3770   46.4700 H   0  0  0  0  0  0  0  0  0  0  0  0
   58.4730   31.4045   45.2406 H   0  0  0  0  0  0  0  0  0  0  0  0
   58.2465   32.7409   43.0103 H   0  0  0  0  0  0  0  0  0  0  0  0
   56.6900   31.5503   41.2498 H   0  0  0  0  0  0  0  0  0  0  0  0
  1  2  1  0
  2  3  1  0
  3  4  1  0
  4  5  1  0
  3  6  1  0
  6  7  1  0
  7  8  1  0
  8  9  1  0
  9 10  2  0
  9 11  1  0
 11 12  1  0
 12 13  1  0
 12 14  2  0
 14 15  1  0
 15 16  2  0
 15 17  1  0
 17 18  1  0
 18 19  1  0
 19 20  2  0
 20 21  1  0
 21 22  2  0
 22 23  1  0
 18 11  1  0
 23 19  1  0
  1 24  1  0
  1 25  1  0
  1 26  1  0
  2 27  1  0
  2 28  1  0
  4 29  1  0
  4 30  1  0
  5 31  1  0
  5 32  1  0
  5 33  1  0
  6 34  1  0
  6 35  1  0
  7 36  1  0
  7 37  1  0
 11 38  1  6
 13 39  1  0
 13 40  1  0
 13 41  1  0
 17 42  1  0
 18 43  1  1
 20 44  1  0
 21 45  1  0
 22 46  1  0
M  END
>  <UniqueID>  (35) 
34

>  <SMILES>  (35) 
CCN(CC)CCOC(=O)[C@H]1C(C)=NC(=O)N[C@@H]1c1cccs1

>  <Energy>  (35) 
66.03497478398185

>  <Genealogy>  (35) 
CCN(CC)CCOC(=O)[C@H]1C(C)=NC(=O)N[C@@H]1c1cccs1 (chirality)
CCN(CC)CCOC(=O)[C@H]1C(C)=NC(=O)N[C@@H]1c1cccs1 (3D coordinates assigned)
CCN(CC)CCOC(=O)[C@H]1C(C)=NC(=O)N[C@@H]1c1cccs1 (nonaromatic ring conformer: 66.03497478398185 kcal/mol)

>  <smiles>  (35) 
CCN(CC)CCOC(=O)C1C(C)=NC(=O)NC1c1cccs1

>  <score_type>  (35) 
oracle

>  <origin>  (35) 
adg

>  <m_score__min__energy>  (35) 
-7.46

>  <m_primary>  (35) 
energy

$$$$
35:0
     RDKit          3D

 52 55  0  0  0  0  0  0  0  0999 V2000
   56.3210   29.9810   42.6410 C   0  0  0  0  0  0  0  0  0  0  0  0
   57.1460   31.2140   42.8300 C   0  0  0  0  0  0  0  0  0  0  0  0
   57.3850   31.9350   41.8230 O   0  0  0  0  0  0  0  0  0  0  0  0
   57.6900   31.6230   44.1460 C   0  0  0  0  0  0  0  0  0  0  0  0
   57.5590   32.9030   44.6840 C   0  0  0  0  0  0  0  0  0  0  0  0
   58.1510   32.9740   45.8970 N   0  0  0  0  0  0  0  0  0  0  0  0
   58.2560   34.1700   46.7320 C   0  0  0  0  0  0  0  0  0  0  0  0
   59.6300   34.7690   46.5980 C   0  0  0  0  0  0  0  0  0  0  0  0
   59.7830   35.7480   45.8190 O   0  0  0  0  0  0  0  0  0  0  0  0
   60.7650   34.2370   47.3100 N   0  0  0  0  0  0  0  0  0  0  0  0
   61.8680   33.6020   46.5760 C   0  0  0  0  0  0  0  0  0  0  0  0
   62.7290   32.7470   47.5140 C   0  0  0  0  0  0  0  0  0  0  0  0
   63.1910   33.5400   48.6770 N   0  0  2  0  0  0  0  0  0  0  0  0
   64.0250   32.7340   49.5690 C   0  0  0  0  0  0  0  0  0  0  0  0
   65.3800   33.0950   49.7460 C   0  0  0  0  0  0  0  0  0  0  0  0
   66.2260   32.3470   50.5660 C   0  0  0  0  0  0  0  0  0  0  0  0
   65.7430   31.2230   51.2290 C   0  0  0  0  0  0  0  0  0  0  0  0
   64.4120   30.8410   51.0780 C   0  0  0  0  0  0  0  0  0  0  0  0
   63.5460   31.5780   50.2570 C   0  0  0  0  0  0  0  0  0  0  0  0
   62.1810   31.1190   50.1680 C   0  0  0  0  0  0  0  0  0  0  0  0
   61.0870   30.7470   50.1090 N   0  0  0  0  0  0  0  0  0  0  0  0
   62.1180   34.3180   49.3790 C   0  0  2  0  0  0  0  0  0  0  0  0
   62.0670   34.0480   50.7400 F   0  0  0  0  0  0  0  0  0  0  0  0
   60.7150   34.1260   48.7730 C   0  0  0  0  0  0  0  0  0  0  0  0
   58.6740   31.7540   46.1370 C   0  0  0  0  0  0  0  0  0  0  0  0
   59.4130   31.3510   47.2540 C   0  0  0  0  0  0  0  0  0  0  0  0
   59.8920   30.0320   47.2890 C   0  0  0  0  0  0  0  0  0  0  0  0
   59.6340   29.1520   46.2200 C   0  0  0  0  0  0  0  0  0  0  0  0
   58.8930   29.5800   45.1050 C   0  0  0  0  0  0  0  0  0  0  0  0
   58.4150   30.8960   45.0900 C   0  0  0  0  0  0  0  0  0  0  0  0
   56.0458   29.5698   43.6234 H   0  0  0  0  0  0  0  0  0  0  0  0
   55.4087   30.2326   42.0803 H   0  0  0  0  0  0  0  0  0  0  0  0
   56.9016   29.2337   42.0803 H   0  0  0  0  0  0  0  0  0  0  0  0
   57.0445   33.7399   44.1891 H   0  0  0  0  0  0  0  0  0  0  0  0
   57.5043   34.9061   46.4110 H   0  0  0  0  0  0  0  0  0  0  0  0
   58.0818   33.8947   47.7826 H   0  0  0  0  0  0  0  0  0  0  0  0
   61.4521   32.9610   45.7847 H   0  0  0  0  0  0  0  0  0  0  0  0
   62.4996   34.3900   46.1399 H   0  0  0  0  0  0  0  0  0  0  0  0
   62.1332   31.8948   47.8729 H   0  0  0  0  0  0  0  0  0  0  0  0
   63.6095   32.3930   46.9578 H   0  0  0  0  0  0  0  0  0  0  0  0
   63.8130   34.2710   48.2490 H   0  0  0  0  0  0  0  0  0  0  0  0
   65.7748   33.9815   49.2281 H   0  0  0  0  0  0  0  0  0  0  0  0
   67.2773   32.6467   50.6885 H   0  0  0  0  0  0  0  0  0  0  0  0
   66.4133   30.6352   51.8734 H   0  0  0  0  0  0  0  0  0  0  0  0
   64.0366   29.9530   51.6076 H   0  0  0  0  0  0  0  0  0  0  0  0
   62.4090   35.3683   49.2302 H   0  0  0  0  0  0  0  0  0  0  0  0
   60.3357   33.1306   49.0474 H   0  0  0  0  0  0  0  0  0  0  0  0
   60.0488   34.9083   49.1657 H   0  0  0  0  0  0  0  0  0  0  0  0
   59.6131   32.0477   48.0814 H   0  0  0  0  0  0  0  0  0  0  0  0
   60.4721   29.6837   48.1562 H   0  0  0  0  0  0  0  0  0  0  0  0
   60.0157   28.1210   46.2581 H   0  0  0  0  0  0  0  0  0  0  0  0
   58.6936   28.8982   44.2652 H   0  0  0  0  0  0  0  0  0  0  0  0
  1  2  1  0
  2  3  2  0
  2  4  1  0
  4  5  2  0
  5  6  1  0
  6  7  1  0
  7  8  1  0
  8  9  2  0
  8 10  1  0
 10 11  1  0
 11 12  1  0
 12 13  1  0
 13 14  1  0
 14 15  2  0
 15 16  1  0
 16 17  2  0
 17 18  1  0
 18 19  2  0
 19 20  1  0
 20 21  3  0
 13 22  1  0
 22 23  1  0
 22 24  1  0
  6 25  1  0
 25 26  2  0
 26 27  1  0
 27 28  2  0
 28 29  1  0
 29 30  2  0
 30  4  1  0
 24 10  1  0
 30 25  1  0
 19 14  1  0
  1 31  1  0
  1 32  1  0
  1 33  1  0
  5 34  1  0
  7 35  1  0
  7 36  1  0
 11 37  1  0
 11 38  1  0
 12 39  1  0
 12 40  1  0
 13 41  1  6
 15 42  1  0
 16 43  1  0
 17 44  1  0
 18 45  1  0
 22 46  1  1
 24 47  1  0
 24 48  1  0
 26 49  1  0
 27 50  1  0
 28 51  1  0
 29 52  1  0
M  CHG  1  13   1
M  END
>  <UniqueID>  (36) 
35

>  <SMILES>  (36) 
CC(=O)c1cn(CC(=O)N2CC[N@H+](c3ccccc3C#N)[C@H](F)C2)c2ccccc12

>  <Energy>  (36) 
105.7032879112655

>  <Genealogy>  (36) 
CC(=O)c1cn(CC(=O)N2CC[NH+](c3ccccc3C#N)C(F)C2)c2ccccc12 (protonated)
CC(=O)c1cn(CC(=O)N2CC[N@H+](c3ccccc3C#N)[C@H](F)C2)c2ccccc12 (chirality)
CC(=O)c1cn(CC(=O)N2CC[N@H+](c3ccccc3C#N)[C@H](F)C2)c2ccccc12 (3D coordinates assigned)
CC(=O)c1cn(CC(=O)N2CC[N@H+](c3ccccc3C#N)[C@H](F)C2)c2ccccc12 (nonaromatic ring conformer: 105.7032879112655 kcal/mol)

>  <smiles>  (36) 
CC(=O)c1cn(CC(=O)N2CCN(c3ccccc3C#N)C(F)C2)c2ccccc12

>  <score_type>  (36) 
oracle

>  <origin>  (36) 
adg

>  <m_score__min__energy>  (36) 
-7.0999999999999996

>  <m_primary>  (36) 
energy

$$$$
36:0
     RDKit          3D

 63 64  0  0  0  0  0  0  0  0999 V2000
   63.1760   33.2350   47.1330 C   0  0  0  0  0  0  0  0  0  0  0  0
   61.9510   33.8320   46.4230 C   0  0  0  0  0  0  0  0  0  0  0  0
   60.7020   33.8180   47.2280 N   0  0  0  0  0  0  0  0  0  0  0  0
   60.9480   33.6430   48.6780 C   0  0  0  0  0  0  0  0  0  0  0  0
   59.6550   33.8470   49.4610 C   0  0  0  0  0  0  0  0  0  0  0  0
   59.8160   34.9630   46.9280 C   0  0  0  0  0  0  0  0  0  0  0  0
   59.5280   35.0790   45.4140 C   0  0  0  0  0  0  0  0  0  0  0  0
   59.0760   33.8840   44.7860 O   0  0  0  0  0  0  0  0  0  0  0  0
   57.7800   33.4770   45.1950 C   0  0  0  0  0  0  0  0  0  0  0  0
   57.7740   32.5000   46.3930 C   0  0  0  0  0  0  0  0  0  0  0  0
   59.0910   31.8720   46.6030 N   0  0  0  0  0  0  0  0  0  0  0  0
   59.0280   30.4360   46.4310 C   0  0  0  0  0  0  0  0  0  0  0  0
   58.4540   29.8960   45.2670 C   0  0  0  0  0  0  0  0  0  0  0  0
   58.3070   28.5170   45.1210 C   0  0  0  0  0  0  0  0  0  0  0  0
   58.7320   27.6480   46.1320 C   0  0  0  0  0  0  0  0  0  0  0  0
   58.6140   26.1600   45.9390 C   0  0  0  0  0  0  0  0  0  0  0  0
   57.3030   25.8170   45.3640 N   0  0  0  0  0  0  0  0  0  0  0  0
   57.3950   25.3860   43.9590 C   0  0  0  0  0  0  0  0  0  0  0  0
   57.2490   23.8910   43.8290 C   0  0  0  0  0  0  0  0  0  0  0  0
   58.1350   23.0270   44.4870 C   0  0  0  0  0  0  0  0  0  0  0  0
   57.9580   21.6450   44.4000 C   0  0  0  0  0  0  0  0  0  0  0  0
   56.9050   21.1380   43.6390 C   0  0  0  0  0  0  0  0  0  0  0  0
   56.0660   21.9850   42.9870 N   0  0  0  0  0  0  0  0  0  0  0  0
   56.2150   23.3350   43.0600 C   0  0  0  0  0  0  0  0  0  0  0  0
   59.3050   28.1760   47.2980 C   0  0  0  0  0  0  0  0  0  0  0  0
   59.4740   29.5660   47.4510 C   0  0  0  0  0  0  0  0  0  0  0  0
   60.0780   30.1150   48.5930 O   0  0  0  0  0  0  0  0  0  0  0  0
   60.4150   29.3780   49.7630 C   0  0  0  0  0  0  0  0  0  0  0  0
   63.0375   33.3025   48.2222 H   0  0  0  0  0  0  0  0  0  0  0  0
   63.2902   32.1802   46.8426 H   0  0  0  0  0  0  0  0  0  0  0  0
   64.0772   33.7949   46.8426 H   0  0  0  0  0  0  0  0  0  0  0  0
   62.1800   34.8760   46.1630 H   0  0  0  0  0  0  0  0  0  0  0  0
   61.7619   33.1999   45.5428 H   0  0  0  0  0  0  0  0  0  0  0  0
   61.3275   32.6271   48.8620 H   0  0  0  0  0  0  0  0  0  0  0  0
   61.6883   34.3865   49.0084 H   0  0  0  0  0  0  0  0  0  0  0  0
   59.8701   33.8131   50.5392 H   0  0  0  0  0  0  0  0  0  0  0  0
   59.2212   34.8247   49.2042 H   0  0  0  0  0  0  0  0  0  0  0  0
   58.9413   33.0504   49.2042 H   0  0  0  0  0  0  0  0  0  0  0  0
   58.8644   34.8276   47.4629 H   0  0  0  0  0  0  0  0  0  0  0  0
   60.3223   35.8838   47.2532 H   0  0  0  0  0  0  0  0  0  0  0  0
   58.7557   35.8496   45.2733 H   0  0  0  0  0  0  0  0  0  0  0  0
   60.4895   35.3259   44.9402 H   0  0  0  0  0  0  0  0  0  0  0  0
   57.2095   34.3739   45.4779 H   0  0  0  0  0  0  0  0  0  0  0  0
   57.3334   32.9398   44.3453 H   0  0  0  0  0  0  0  0  0  0  0  0
   57.4966   33.0546   47.3016 H   0  0  0  0  0  0  0  0  0  0  0  0
   57.0490   31.7019   46.1756 H   0  0  0  0  0  0  0  0  0  0  0  0
   59.4180   32.0880   47.5730 H   0  0  0  0  0  0  0  0  0  0  0  0
   59.7880   32.2960   45.9460 H   0  0  0  0  0  0  0  0  0  0  0  0
   58.1175   30.5677   44.4635 H   0  0  0  0  0  0  0  0  0  0  0  0
   57.8540   28.1097   44.2051 H   0  0  0  0  0  0  0  0  0  0  0  0
   59.4081   25.8192   45.2584 H   0  0  0  0  0  0  0  0  0  0  0  0
   58.7141   25.6655   46.9165 H   0  0  0  0  0  0  0  0  0  0  0  0
   56.9250   25.0070   45.9070 H   0  0  0  0  0  0  0  0  0  0  0  0
   56.5960   25.8747   43.3822 H   0  0  0  0  0  0  0  0  0  0  0  0
   58.3856   25.6708   43.5748 H   0  0  0  0  0  0  0  0  0  0  0  0
   58.9705   23.4382   45.0725 H   0  0  0  0  0  0  0  0  0  0  0  0
   58.6420   20.9630   44.9263 H   0  0  0  0  0  0  0  0  0  0  0  0
   56.7534   20.0509   43.5665 H   0  0  0  0  0  0  0  0  0  0  0  0
   55.5228   23.9932   42.5145 H   0  0  0  0  0  0  0  0  0  0  0  0
   59.6260   27.4972   48.1019 H   0  0  0  0  0  0  0  0  0  0  0  0
   60.1473   29.9635   50.6549 H   0  0  0  0  0  0  0  0  0  0  0  0
   59.8623   28.4270   49.7692 H   0  0  0  0  0  0  0  0  0  0  0  0
   61.4959   29.1740   49.7692 H   0  0  0  0  0  0  0  0  0  0  0  0
  1  2  1  0
  2  3  1  0
  3  4  1  0
  4  5  1  0
  3  6  1  0
  6  7  1  0
  7  8  1  0
  8  9  1  0
  9 10  1  0
 10 11  1  0
 11 12  1  0
 12 13  2  0
 13 14  1  0
 14 15  2  0
 15 16  1  0
 16 17  1  0
 17 18  1  0
 18 19  1  0
 19 20  2  0
 20 21  1  0
 21 22  2  0
 22 23  1  0
 23 24  2  0
 15 25  1  0
 25 26  2  0
 26 27  1  0
 27 28  1  0
 26 12  1  0
 24 19  1  0
  1 29  1  0
  1 30  1  0
  1 31  1  0
  2 32  1  0
  2 33  1  0
  4 34  1  0
  4 35  1  0
  5 36  1  0
  5 37  1  0
  5 38  1  0
  6 39  1  0
  6 40  1  0
  7 41  1  0
  7 42  1  0
  9 43  1  0
  9 44  1  0
 10 45  1  0
 10 46  1  0
 11 47  1  0
 11 48  1  0
 13 49  1  0
 14 50  1  0
 16 51  1  0
 16 52  1  0
 17 53  1  0
 18 54  1  0
 18 55  1  0
 20 56  1  0
 21 57  1  0
 22 58  1  0
 24 59  1  0
 25 60  1  0
 28 61  1  0
 28 62  1  0
 28 63  1  0
M  CHG  1  11   1
M  END
>  <UniqueID>  (37) 
36

>  <SMILES>  (37) 
CCN(CC)CCOCC[NH2+]c1ccc(CNCc2cccnc2)cc1OC

>  <Energy>  (37) 
64.79252669256124

>  <Genealogy>  (37) 
CCN(CC)CCOCC[NH2+]c1ccc(CNCc2cccnc2)cc1OC (protonated)
CCN(CC)CCOCC[NH2+]c1ccc(CNCc2cccnc2)cc1OC (3D coordinates assigned)
CCN(CC)CCOCC[NH2+]c1ccc(CNCc2cccnc2)cc1OC (optimized conformer: 64.79252669256124 kcal/mol)

>  <smiles>  (37) 
CCN(CC)CCOCCNc1ccc(CNCc2cccnc2)cc1OC

>  <score_type>  (37) 
oracle

>  <origin>  (37) 
adg

>  <m_score__min__energy>  (37) 
-6.0499999999999998

>  <m_primary>  (37) 
energy

$$$$
37:0
     RDKit          3D

 44 45  0  0  0  0  0  0  0  0999 V2000
   63.7300   33.4860   47.1110 C   0  0  0  0  0  0  0  0  0  0  0  0
   63.3940   32.0080   47.2690 C   0  0  0  0  0  0  0  0  0  0  0  0
   62.1740   31.8430   48.0740 N   0  0  0  0  0  0  0  0  0  0  0  0
   62.2920   31.4030   49.4690 C   0  0  0  0  0  0  0  0  0  0  0  0
   60.8750   32.0590   47.4700 C   0  0  0  0  0  0  0  0  0  0  0  0
   60.6750   33.1490   46.6780 N   0  0  0  0  0  0  0  0  0  0  0  0
   59.4950   33.3740   46.0420 C   0  0  0  0  0  0  0  0  0  0  0  0
   59.3680   34.5920   45.1750 C   0  0  0  0  0  0  0  0  0  0  0  0
   58.4610   32.4320   46.1700 C   0  0  0  0  0  0  0  0  0  0  0  0
   57.2120   32.5110   45.3930 C   0  0  0  0  0  0  0  0  0  0  0  0
   56.6560   33.6300   45.2430 O   0  0  0  0  0  0  0  0  0  0  0  0
   56.5750   31.3380   44.8660 N   0  0  0  0  0  0  0  0  0  0  0  0
   57.1580   30.3880   43.9180 C   0  0  0  0  0  0  0  0  0  0  0  0
   57.9850   29.3380   44.6150 C   0  0  0  0  0  0  0  0  0  0  0  0
   57.3650   28.3370   45.3780 C   0  0  0  0  0  0  0  0  0  0  0  0
   58.1350   27.4070   46.0810 C   0  0  0  0  0  0  0  0  0  0  0  0
   59.5360   27.4510   46.0130 C   0  0  0  0  0  0  0  0  0  0  0  0
   60.3630   26.4990   46.8250 C   0  0  0  0  0  0  0  0  0  0  0  0
   60.1580   28.4440   45.2400 C   0  0  0  0  0  0  0  0  0  0  0  0
   59.3870   29.3720   44.5360 C   0  0  0  0  0  0  0  0  0  0  0  0
   58.6590   31.3460   47.0260 C   0  0  0  0  0  0  0  0  0  0  0  0
   59.8500   31.1750   47.6560 N   0  0  0  0  0  0  0  0  0  0  0  0
   63.8347   33.9465   48.1045 H   0  0  0  0  0  0  0  0  0  0  0  0
   64.6747   33.5901   46.5572 H   0  0  0  0  0  0  0  0  0  0  0  0
   62.9231   33.9883   46.5572 H   0  0  0  0  0  0  0  0  0  0  0  0
   63.2353   31.5641   46.2751 H   0  0  0  0  0  0  0  0  0  0  0  0
   64.2288   31.5047   47.7787 H   0  0  0  0  0  0  0  0  0  0  0  0
   62.0661   32.2453   50.1395 H   0  0  0  0  0  0  0  0  0  0  0  0
   61.5817   30.5843   49.6566 H   0  0  0  0  0  0  0  0  0  0  0  0
   63.3167   31.0496   49.6566 H   0  0  0  0  0  0  0  0  0  0  0  0
   59.2748   35.4857   45.8096 H   0  0  0  0  0  0  0  0  0  0  0  0
   60.2613   34.6848   44.5399 H   0  0  0  0  0  0  0  0  0  0  0  0
   58.4747   34.4985   44.5399 H   0  0  0  0  0  0  0  0  0  0  0  0
   56.3460   29.8928   43.3653 H   0  0  0  0  0  0  0  0  0  0  0  0
   57.8172   30.9458   43.2366 H   0  0  0  0  0  0  0  0  0  0  0  0
   56.2672   28.2842   45.4229 H   0  0  0  0  0  0  0  0  0  0  0  0
   57.6406   26.6365   46.6908 H   0  0  0  0  0  0  0  0  0  0  0  0
   60.1970   26.6901   47.8955 H   0  0  0  0  0  0  0  0  0  0  0  0
   60.0712   25.4653   46.5875 H   0  0  0  0  0  0  0  0  0  0  0  0
   61.4273   26.6433   46.5875 H   0  0  0  0  0  0  0  0  0  0  0  0
   61.2558   28.4915   45.1885 H   0  0  0  0  0  0  0  0  0  0  0  0
   59.8810   30.1344   43.9157 H   0  0  0  0  0  0  0  0  0  0  0  0
   57.8451   30.6247   47.1909 H   0  0  0  0  0  0  0  0  0  0  0  0
   59.9600   30.3330   48.2610 H   0  0  0  0  0  0  0  0  0  0  0  0
  1  2  1  0
  2  3  1  0
  3  4  1  0
  3  5  1  0
  5  6  2  0
  6  7  1  0
  7  8  1  0
  7  9  2  0
  9 10  1  0
 10 11  2  0
 10 12  1  0
 12 13  1  0
 13 14  1  0
 14 15  2  0
 15 16  1  0
 16 17  2  0
 17 18  1  0
 17 19  1  0
 19 20  2  0
  9 21  1  0
 21 22  2  0
 22  5  1  0
 20 14  1  0
  1 23  1  0
  1 24  1  0
  1 25  1  0
  2 26  1  0
  2 27  1  0
  4 28  1  0
  4 29  1  0
  4 30  1  0
  8 31  1  0
  8 32  1  0
  8 33  1  0
 13 34  1  0
 13 35  1  0
 15 36  1  0
 16 37  1  0
 18 38  1  0
 18 39  1  0
 18 40  1  0
 19 41  1  0
 20 42  1  0
 21 43  1  0
 22 44  1  0
M  CHG  2  12  -1  22   1
M  END
>  <UniqueID>  (38) 
37

>  <SMILES>  (38) 
CCN(C)c1nc(C)c(C(=O)[N-]Cc2ccc(C)cc2)c[nH+]1

>  <Energy>  (38) 
41.666751983270785

>  <Genealogy>  (38) 
CCN(C)c1nc(C)c(C(=O)[N-]Cc2ccc(C)cc2)c[nH+]1 (protonated)
CCN(C)c1nc(C)c(C(=O)[N-]Cc2ccc(C)cc2)c[nH+]1 (3D coordinates assigned)
CCN(C)c1nc(C)c(C(=O)[N-]Cc2ccc(C)cc2)c[nH+]1 (optimized conformer: 41.666751983270785 kcal/mol)

>  <smiles>  (38) 
CCN(C)c1ncc(C(=O)NCc2ccc(C)cc2)c(C)n1

>  <score_type>  (38) 
oracle

>  <origin>  (38) 
adg

>  <m_score__min__energy>  (38) 
-7.0099999999999998

>  <m_primary>  (38) 
energy

$$$$
38:0
     RDKit          3D

 72 74  0  0  1  0  0  0  0  0999 V2000
   57.3500   21.2670   44.3560 C   0  0  0  0  0  0  0  0  0  0  0  0
   57.0400   21.8280   42.9840 C   0  0  0  0  0  0  0  0  0  0  0  0
   55.8520   22.5180   42.9350 O   0  0  0  0  0  0  0  0  0  0  0  0
   55.8220   23.6330   43.7420 C   0  0  0  0  0  0  0  0  0  0  0  0
   57.0230   24.5160   43.3670 C   0  0  0  0  0  0  0  0  0  0  0  0
   57.2040   25.4180   44.3790 O   0  0  0  0  0  0  0  0  0  0  0  0
   58.1250   24.9760   45.2990 C   0  0  0  0  0  0  0  0  0  0  0  0
   58.6580   26.0850   46.0650 N   0  0  0  0  0  0  0  0  0  0  0  0
   59.6450   25.9830   46.9970 C   0  0  0  0  0  0  0  0  0  0  0  0
   59.9260   27.1830   47.5160 N   0  0  0  0  0  0  0  0  0  0  0  0
   59.1080   28.0600   46.9090 C   0  0  0  0  0  0  0  0  0  0  0  0
   58.9790   29.4230   47.0720 C   0  0  0  0  0  0  0  0  0  0  0  0
   59.6890   30.0980   47.8810 N   0  0  0  0  0  0  0  0  0  0  0  0
   61.1280   29.9780   47.9270 C   0  0  0  0  0  0  0  0  0  0  0  0
   61.7540   31.3440   47.9340 C   0  0  0  0  0  0  0  0  0  0  0  0
   62.8690   31.5980   47.1500 C   0  0  0  0  0  0  0  0  0  0  0  0
   63.4840   32.8290   47.1140 C   0  0  0  0  0  0  0  0  0  0  0  0
   62.9760   33.8540   47.8840 C   0  0  0  0  0  0  0  0  0  0  0  0
   61.8680   33.6190   48.6700 C   0  0  0  0  0  0  0  0  0  0  0  0
   61.2600   32.3780   48.6980 C   0  0  0  0  0  0  0  0  0  0  0  0
   58.0690   30.0710   46.3350 N   0  0  0  0  0  0  0  0  0  0  0  0
   57.3060   29.3860   45.4580 C   0  0  0  0  0  0  0  0  0  0  0  0
   56.4510   30.0730   44.7860 N   0  0  0  0  0  0  0  0  0  0  0  0
   56.6260   30.3530   43.3810 C   0  0  0  0  0  0  0  0  0  0  0  0
   55.8700   29.7480   42.6070 O   0  0  0  0  0  0  0  0  0  0  0  0
   57.6740   31.3150   43.0290 C   0  0  0  0  0  0  0  0  0  0  0  0
   58.1120   32.0930   44.2350 C   0  0  0  0  0  0  0  0  0  0  0  0
   57.5100   33.4240   44.4100 C   0  0  0  0  0  0  0  0  0  0  0  0
   57.9670   34.1470   45.6200 N   0  0  0  0  0  0  0  0  0  0  0  0
   59.3910   34.1240   45.7010 C   0  0  0  0  0  0  0  0  0  0  0  0
   60.0140   35.3530   46.2700 C   0  0  0  0  0  0  0  0  0  0  0  0
   57.3020   33.4300   46.7220 C   0  0  0  0  0  0  0  0  0  0  0  0
   58.2060   33.0120   47.8250 C   0  0  0  0  0  0  0  0  0  0  0  0
   57.4050   28.0590   45.2740 N   0  0  0  0  0  0  0  0  0  0  0  0
   58.3180   27.3850   46.0060 C   0  0  0  0  0  0  0  0  0  0  0  0
   56.9706   21.9536   45.1272 H   0  0  0  0  0  0  0  0  0  0  0  0
   56.8662   20.2856   44.4687 H   0  0  0  0  0  0  0  0  0  0  0  0
   58.4384   21.1544   44.4687 H   0  0  0  0  0  0  0  0  0  0  0  0
   57.8525   22.5105   42.6940 H   0  0  0  0  0  0  0  0  0  0  0  0
   56.9502   20.9748   42.2955 H   0  0  0  0  0  0  0  0  0  0  0  0
   54.8854   24.1868   43.5806 H   0  0  0  0  0  0  0  0  0  0  0  0
   55.8744   23.3423   44.8016 H   0  0  0  0  0  0  0  0  0  0  0  0
   57.9238   23.8952   43.2521 H   0  0  0  0  0  0  0  0  0  0  0  0
   56.8390   25.0350   42.4147 H   0  0  0  0  0  0  0  0  0  0  0  0
   57.6389   24.2652   45.9834 H   0  0  0  0  0  0  0  0  0  0  0  0
   58.9520   24.4865   44.7638 H   0  0  0  0  0  0  0  0  0  0  0  0
   60.1421   25.0444   47.2833 H   0  0  0  0  0  0  0  0  0  0  0  0
   61.4202   29.4380   48.8397 H   0  0  0  0  0  0  0  0  0  0  0  0
   61.4743   29.4249   47.0414 H   0  0  0  0  0  0  0  0  0  0  0  0
   63.2780   30.7844   46.5329 H   0  0  0  0  0  0  0  0  0  0  0  0
   64.3680   32.9927   46.4801 H   0  0  0  0  0  0  0  0  0  0  0  0
   63.4490   34.8470   47.8712 H   0  0  0  0  0  0  0  0  0  0  0  0
   61.4604   34.4340   49.2861 H   0  0  0  0  0  0  0  0  0  0  0  0
   60.3771   32.2154   49.3337 H   0  0  0  0  0  0  0  0  0  0  0  0
   57.9560   31.0890   46.4420 H   0  0  0  0  0  0  0  0  0  0  0  0
   58.5376   30.7724   42.6170 H   0  0  0  0  0  0  0  0  0  0  0  0
   57.2714   32.0173   42.2842 H   0  0  0  0  0  0  0  0  0  0  0  0
   57.8672   31.4955   45.1255 H   0  0  0  0  0  0  0  0  0  0  0  0
   59.1869   32.2758   44.0897 H   0  0  0  0  0  0  0  0  0  0  0  0
   57.7607   34.0337   43.5294 H   0  0  0  0  0  0  0  0  0  0  0  0
   56.4277   33.2666   44.5278 H   0  0  0  0  0  0  0  0  0  0  0  0
   59.6823   33.2714   46.3320 H   0  0  0  0  0  0  0  0  0  0  0  0
   59.7546   34.0486   44.6656 H   0  0  0  0  0  0  0  0  0  0  0  0
   59.9883   35.3022   47.3685 H   0  0  0  0  0  0  0  0  0  0  0  0
   61.0578   35.4257   45.9307 H   0  0  0  0  0  0  0  0  0  0  0  0
   59.4556   36.2379   45.9307 H   0  0  0  0  0  0  0  0  0  0  0  0
   56.5295   34.0900   47.1435 H   0  0  0  0  0  0  0  0  0  0  0  0
   56.8919   32.5057   46.2889 H   0  0  0  0  0  0  0  0  0  0  0  0
   57.7304   33.2319   48.7922 H   0  0  0  0  0  0  0  0  0  0  0  0
   58.4014   31.9321   47.7496 H   0  0  0  0  0  0  0  0  0  0  0  0
   59.1553   33.5626   47.7496 H   0  0  0  0  0  0  0  0  0  0  0  0
   56.8020   27.5550   44.5900 H   0  0  0  0  0  0  0  0  0  0  0  0
  1  2  1  0
  2  3  1  0
  3  4  1  0
  4  5  1  0
  5  6  1  0
  6  7  1  0
  7  8  1  0
  8  9  1  0
  9 10  2  0
 10 11  1  0
 11 12  1  0
 12 13  2  0
 13 14  1  0
 14 15  1  0
 15 16  2  0
 16 17  1  0
 17 18  2  0
 18 19  1  0
 19 20  2  0
 12 21  1  0
 21 22  1  0
 22 23  2  0
 23 24  1  0
 24 25  2  0
 24 26  1  0
 26 27  1  0
 27 28  1  0
 28 29  1  0
 29 30  1  0
 30 31  1  0
 29 32  1  0
 32 33  1  0
 22 34  1  0
 34 35  1  0
 35  8  1  0
 35 11  2  0
 20 15  1  0
  1 36  1  0
  1 37  1  0
  1 38  1  0
  2 39  1  0
  2 40  1  0
  4 41  1  0
  4 42  1  0
  5 43  1  0
  5 44  1  0
  7 45  1  0
  7 46  1  0
  9 47  1  0
 14 48  1  0
 14 49  1  0
 16 50  1  0
 17 51  1  0
 18 52  1  0
 19 53  1  0
 20 54  1  0
 21 55  1  0
 26 56  1  0
 26 57  1  0
 27 58  1  0
 27 59  1  0
 28 60  1  0
 28 61  1  0
 30 62  1  0
 30 63  1  0
 31 64  1  0
 31 65  1  0
 31 66  1  0
 32 67  1  0
 32 68  1  0
 33 69  1  0
 33 70  1  0
 33 71  1  0
 34 72  1  0
M  END
>  <smiles>  (39) 
CCOCCOCn1cnc2c(=NCc3ccccc3)[nH]c(=NC(=O)CCCN(CC)CC)[nH]c21

>  <score_type>  (39) 
oracle

>  <origin>  (39) 
adg

>  <m_score__min__energy>  (39) 
-8.2300000000000004

>  <m_primary>  (39) 
energy

$$$$
39:0
     RDKit          3D

 38 40  0  0  0  0  0  0  0  0999 V2000
   58.4420   27.0890   42.5870 C   0  0  0  0  0  0  0  0  0  0  0  0
   57.4460   26.5400   43.5150 N   0  0  0  0  0  0  0  0  0  0  0  0
   58.0680   25.9910   44.7360 C   0  0  0  0  0  0  0  0  0  0  0  0
   57.2970   26.3590   46.0210 C   0  0  0  0  0  0  0  0  0  0  0  0
   57.7930   27.6410   46.7120 C   0  0  0  0  0  0  0  0  0  0  0  0
   57.5040   28.8820   45.8930 C   0  0  0  0  0  0  0  0  0  0  0  0
   56.5940   28.7460   44.8940 N   0  0  0  0  0  0  0  0  0  0  0  0
   56.2450   29.7670   44.0800 C   0  0  0  0  0  0  0  0  0  0  0  0
   56.8200   31.0210   44.2400 C   0  0  0  0  0  0  0  0  0  0  0  0
   57.7800   31.2420   45.2520 C   0  0  0  0  0  0  0  0  0  0  0  0
   58.1360   30.1450   46.0940 C   0  0  0  0  0  0  0  0  0  0  0  0
   59.1060   30.3360   47.0970 C   0  0  0  0  0  0  0  0  0  0  0  0
   59.7110   31.5720   47.2820 C   0  0  0  0  0  0  0  0  0  0  0  0
   59.3730   32.6600   46.4790 C   0  0  0  0  0  0  0  0  0  0  0  0
   60.0040   33.8960   46.6960 C   0  0  0  0  0  0  0  0  0  0  0  0
   59.6840   34.9990   45.9090 C   0  0  0  0  0  0  0  0  0  0  0  0
   58.7340   34.8800   44.8980 C   0  0  0  0  0  0  0  0  0  0  0  0
   58.0970   33.6600   44.6670 C   0  0  0  0  0  0  0  0  0  0  0  0
   58.4020   32.5160   45.4500 C   0  0  0  0  0  0  0  0  0  0  0  0
   59.2650   27.5426   43.1587 H   0  0  0  0  0  0  0  0  0  0  0  0
   58.8373   26.2813   41.9534 H   0  0  0  0  0  0  0  0  0  0  0  0
   57.9701   27.8545   41.9534 H   0  0  0  0  0  0  0  0  0  0  0  0
   56.9390   25.7670   43.0220 H   0  0  0  0  0  0  0  0  0  0  0  0
   56.7500   27.2850   43.7450 H   0  0  0  0  0  0  0  0  0  0  0  0
   58.1030   24.8950   44.6496 H   0  0  0  0  0  0  0  0  0  0  0  0
   59.0742   26.4278   44.8186 H   0  0  0  0  0  0  0  0  0  0  0  0
   56.2374   26.4965   45.7595 H   0  0  0  0  0  0  0  0  0  0  0  0
   57.4586   25.5354   46.7320 H   0  0  0  0  0  0  0  0  0  0  0  0
   57.2911   27.7349   47.6863 H   0  0  0  0  0  0  0  0  0  0  0  0
   58.8838   27.5606   46.8291 H   0  0  0  0  0  0  0  0  0  0  0  0
   55.5012   29.6038   43.2862 H   0  0  0  0  0  0  0  0  0  0  0  0
   56.5262   31.8465   43.5750 H   0  0  0  0  0  0  0  0  0  0  0  0
   59.3888   29.4926   47.7441 H   0  0  0  0  0  0  0  0  0  0  0  0
   60.4665   31.6941   48.0722 H   0  0  0  0  0  0  0  0  0  0  0  0
   60.7559   33.9931   47.4930 H   0  0  0  0  0  0  0  0  0  0  0  0
   60.1814   35.9640   46.0858 H   0  0  0  0  0  0  0  0  0  0  0  0
   58.4840   35.7532   44.2774 H   0  0  0  0  0  0  0  0  0  0  0  0
   57.3471   33.5837   43.8659 H   0  0  0  0  0  0  0  0  0  0  0  0
  1  2  1  0
  2  3  1  0
  3  4  1  0
  4  5  1  0
  5  6  1  0
  6  7  2  0
  7  8  1  0
  8  9  2  0
  9 10  1  0
 10 11  2  0
 11 12  1  0
 12 13  2  0
 13 14  1  0
 14 15  2  0
 15 16  1  0
 16 17  2  0
 17 18  1  0
 18 19  2  0
 11  6  1  0
 19 14  1  0
 19 10  1  0
  1 20  1  0
  1 21  1  0
  1 22  1  0
  2 23  1  0
  2 24  1  0
  3 25  1  0
  3 26  1  0
  4 27  1  0
  4 28  1  0
  5 29  1  0
  5 30  1  0
  8 31  1  0
  9 32  1  0
 12 33  1  0
 13 34  1  0
 15 35  1  0
 16 36  1  0
 17 37  1  0
 18 38  1  0
M  CHG  1   2   1
M  END
>  <UniqueID>  (40) 
38

>  <SMILES>  (40) 
C[NH2+]CCCc1nccc2c1ccc1ccccc12

>  <Energy>  (40) 
53.08853198986836

>  <Genealogy>  (40) 
C[NH2+]CCCc1nccc2c1ccc1ccccc12 (protonated)
C[NH2+]CCCc1nccc2c1ccc1ccccc12 (3D coordinates assigned)
C[NH2+]CCCc1nccc2c1ccc1ccccc12 (optimized conformer: 53.08853198986836 kcal/mol)

>  <smiles>  (40) 
CNCCCc1nccc2c1ccc1ccccc12

>  <score_type>  (40) 
oracle

>  <origin>  (40) 
adg

>  <m_score__min__energy>  (40) 
-6.29

>  <m_primary>  (40) 
energy

$$$$
40:0
     RDKit          3D

 44 46  0  0  0  0  0  0  0  0999 V2000
   60.3760   30.9460   47.4420 C   0  0  0  0  0  0  0  0  0  0  0  0
   58.8940   31.3340   47.4310 C   0  0  0  0  0  0  0  0  0  0  0  0
   58.3050   31.2180   46.0720 N   0  0  0  0  0  0  0  0  0  0  0  0
   57.8970   32.3530   45.3860 C   0  0  0  0  0  0  0  0  0  0  0  0
   57.9240   33.7500   45.9890 C   0  0  0  0  0  0  0  0  0  0  0  0
   59.2850   34.3010   45.9950 N   0  0  0  0  0  0  0  0  0  0  0  0
   59.6760   34.8380   47.3120 C   0  0  0  0  0  0  0  0  0  0  0  0
   60.9900   34.2360   47.7250 C   0  0  0  0  0  0  0  0  0  0  0  0
   61.9100   33.8200   46.7480 C   0  0  0  0  0  0  0  0  0  0  0  0
   63.1020   33.1910   47.1230 C   0  0  0  0  0  0  0  0  0  0  0  0
   63.3810   32.9690   48.4740 C   0  0  0  0  0  0  0  0  0  0  0  0
   64.5330   32.3530   48.8360 F   0  0  0  0  0  0  0  0  0  0  0  0
   62.4710   33.3790   49.4530 C   0  0  0  0  0  0  0  0  0  0  0  0
   61.2810   34.0110   49.0820 C   0  0  0  0  0  0  0  0  0  0  0  0
   57.4060   32.2490   44.0780 C   0  0  0  0  0  0  0  0  0  0  0  0
   57.2890   31.0160   43.4610 C   0  0  0  0  0  0  0  0  0  0  0  0
   56.8370   30.9580   42.2850 O   0  0  0  0  0  0  0  0  0  0  0  0
   57.6630   29.8570   44.1490 C   0  0  0  0  0  0  0  0  0  0  0  0
   57.5330   28.5940   43.5400 C   0  0  0  0  0  0  0  0  0  0  0  0
   57.9020   27.4320   44.2200 C   0  0  0  0  0  0  0  0  0  0  0  0
   57.7650   26.1540   43.5910 N   0  0  0  0  0  0  0  0  0  0  0  0
   58.4030   27.5250   45.5180 C   0  0  0  0  0  0  0  0  0  0  0  0
   58.5400   28.7670   46.1380 C   0  0  0  0  0  0  0  0  0  0  0  0
   58.1760   29.9690   45.4730 C   0  0  0  0  0  0  0  0  0  0  0  0
   60.7235   30.8550   48.4817 H   0  0  0  0  0  0  0  0  0  0  0  0
   60.5068   29.9833   46.9261 H   0  0  0  0  0  0  0  0  0  0  0  0
   60.9618   31.7211   46.9261 H   0  0  0  0  0  0  0  0  0  0  0  0
   58.3464   30.6687   48.1147 H   0  0  0  0  0  0  0  0  0  0  0  0
   58.8121   32.3831   47.7515 H   0  0  0  0  0  0  0  0  0  0  0  0
   57.2729   34.4091   45.3960 H   0  0  0  0  0  0  0  0  0  0  0  0
   57.5698   33.6869   47.0285 H   0  0  0  0  0  0  0  0  0  0  0  0
   59.3130   35.0820   45.2970 H   0  0  0  0  0  0  0  0  0  0  0  0
   59.7771   35.9314   47.2474 H   0  0  0  0  0  0  0  0  0  0  0  0
   58.9057   34.5858   48.0557 H   0  0  0  0  0  0  0  0  0  0  0  0
   61.6920   33.9897   45.6833 H   0  0  0  0  0  0  0  0  0  0  0  0
   63.8202   32.8710   46.3537 H   0  0  0  0  0  0  0  0  0  0  0  0
   62.6919   33.2040   50.5163 H   0  0  0  0  0  0  0  0  0  0  0  0
   60.5686   34.3340   49.8554 H   0  0  0  0  0  0  0  0  0  0  0  0
   57.1099   33.1586   43.5349 H   0  0  0  0  0  0  0  0  0  0  0  0
   57.1361   28.5222   42.5166 H   0  0  0  0  0  0  0  0  0  0  0  0
   57.0280   25.9870   42.8710 H   0  0  0  0  0  0  0  0  0  0  0  0
   58.4040   25.3650   43.8380 H   0  0  0  0  0  0  0  0  0  0  0  0
   58.6926   26.6112   46.0576 H   0  0  0  0  0  0  0  0  0  0  0  0
   58.9378   28.8170   47.1623 H   0  0  0  0  0  0  0  0  0  0  0  0
  1  2  1  0
  2  3  1  0
  3  4  1  0
  4  5  1  0
  5  6  1  0
  6  7  1  0
  7  8  1  0
  8  9  2  0
  9 10  1  0
 10 11  2  0
 11 12  1  0
 11 13  1  0
 13 14  2  0
  4 15  2  0
 15 16  1  0
 16 17  2  0
 16 18  1  0
 18 19  2  0
 19 20  1  0
 20 21  1  0
 20 22  2  0
 22 23  1  0
 23 24  2  0
 24  3  1  0
 14  8  1  0
 24 18  1  0
  1 25  1  0
  1 26  1  0
  1 27  1  0
  2 28  1  0
  2 29  1  0
  5 30  1  0
  5 31  1  0
  6 32  1  0
  7 33  1  0
  7 34  1  0
  9 35  1  0
 10 36  1  0
 13 37  1  0
 14 38  1  0
 15 39  1  0
 19 40  1  0
 21 41  1  0
 21 42  1  0
 22 43  1  0
 23 44  1  0
M  END
>  <UniqueID>  (41) 
39

>  <SMILES>  (41) 
CCn1c(CNCc2ccc(F)cc2)cc(=O)c2cc(N)ccc21

>  <Energy>  (41) 
55.973576342453384

>  <Genealogy>  (41) 
CCn1c(CNCc2ccc(F)cc2)cc(=O)c2cc(N)ccc21 (3D coordinates assigned)
CCn1c(CNCc2ccc(F)cc2)cc(=O)c2cc(N)ccc21 (optimized conformer: 55.973576342453384 kcal/mol)

>  <smiles>  (41) 
CCn1c(CNCc2ccc(F)cc2)cc(=O)c2cc(N)ccc21

>  <score_type>  (41) 
oracle

>  <origin>  (41) 
adg

>  <m_score__min__energy>  (41) 
-7.2199999999999998

>  <m_primary>  (41) 
energy

$$$$
