0:0
     RDKit          3D

 59 62  0  0  0  0  0  0  0  0999 V2000
   56.8530   31.1960   51.6580 C   0  0  0  0  0  0  0  0  0  0  0  0
   58.2880   31.5210   52.0560 C   0  0  0  0  0  0  0  0  0  0  0  0
   58.9860   32.1730   50.9180 N   0  0  0  0  0  0  0  0  0  0  0  0
   59.2610   33.6030   51.1870 C   0  0  0  0  0  0  0  0  0  0  0  0
   58.4980   34.1030   52.4160 C   0  0  0  0  0  0  0  0  0  0  0  0
   60.2430   31.4700   50.5700 C   0  0  0  0  0  0  0  0  0  0  0  0
   60.1620   30.8090   49.1850 C   0  0  0  0  0  0  0  0  0  0  0  0
   58.8920   31.1080   48.5170 N   0  0  0  0  0  0  0  0  0  0  0  0
   58.8370   31.3730   47.1040 C   0  0  0  0  0  0  0  0  0  0  0  0
   59.0890   32.6760   46.6110 C   0  0  0  0  0  0  0  0  0  0  0  0
   59.6910   33.6520   47.4310 C   0  0  0  0  0  0  0  0  0  0  0  0
   59.9360   34.9360   46.9490 C   0  0  0  0  0  0  0  0  0  0  0  0
   59.5990   35.2670   45.6410 C   0  0  0  0  0  0  0  0  0  0  0  0
   59.0190   34.3170   44.8010 C   0  0  0  0  0  0  0  0  0  0  0  0
   58.7530   33.0040   45.2600 C   0  0  0  0  0  0  0  0  0  0  0  0
   58.1840   32.0500   44.4350 N   0  0  0  0  0  0  0  0  0  0  0  0
   57.7690   32.3830   43.0600 C   0  0  0  0  0  0  0  0  0  0  0  0
   58.0560   30.7710   44.9050 C   0  0  0  0  0  0  0  0  0  0  0  0
   57.4980   29.4220   44.0680 S   0  0  0  0  0  0  0  0  0  0  0  0
   57.7440   28.3820   45.3690 C   0  0  0  0  0  0  0  0  0  0  0  0
   57.3970   26.9450   45.3220 C   0  0  0  0  0  0  0  0  0  0  0  0
   57.7530   26.1690   44.2070 C   0  0  0  0  0  0  0  0  0  0  0  0
   57.4030   24.8160   44.1490 C   0  0  0  0  0  0  0  0  0  0  0  0
   56.6840   24.2340   45.1970 C   0  0  0  0  0  0  0  0  0  0  0  0
   56.3100   25.0040   46.3000 C   0  0  0  0  0  0  0  0  0  0  0  0
   56.6580   26.3570   46.3610 C   0  0  0  0  0  0  0  0  0  0  0  0
   58.2770   29.0400   46.4410 N   0  0  0  0  0  0  0  0  0  0  0  0
   58.8640   28.3490   47.5980 C   0  0  0  0  0  0  0  0  0  0  0  0
   58.4060   30.3880   46.1950 C   0  0  0  0  0  0  0  0  0  0  0  0
   56.2437   31.0580   52.5634 H   0  0  0  0  0  0  0  0  0  0  0  0
   56.4415   32.0237   51.0617 H   0  0  0  0  0  0  0  0  0  0  0  0
   56.8382   30.2718   51.0617 H   0  0  0  0  0  0  0  0  0  0  0  0
   58.2829   32.2013   52.9204 H   0  0  0  0  0  0  0  0  0  0  0  0
   58.8126   30.5914   52.3217 H   0  0  0  0  0  0  0  0  0  0  0  0
   60.3396   33.7326   51.3596 H   0  0  0  0  0  0  0  0  0  0  0  0
   58.9292   34.1866   50.3156 H   0  0  0  0  0  0  0  0  0  0  0  0
   59.0117   33.7663   53.3285 H   0  0  0  0  0  0  0  0  0  0  0  0
   58.4592   35.2022   52.4014 H   0  0  0  0  0  0  0  0  0  0  0  0
   57.4747   33.6998   52.4014 H   0  0  0  0  0  0  0  0  0  0  0  0
   61.0691   32.1963   50.5702 H   0  0  0  0  0  0  0  0  0  0  0  0
   60.4112   30.6801   51.3168 H   0  0  0  0  0  0  0  0  0  0  0  0
   60.9889   31.1819   48.5628 H   0  0  0  0  0  0  0  0  0  0  0  0
   60.2314   29.7195   49.3196 H   0  0  0  0  0  0  0  0  0  0  0  0
   58.0040   30.8750   49.0150 H   0  0  0  0  0  0  0  0  0  0  0  0
   59.9706   33.3967   48.4638 H   0  0  0  0  0  0  0  0  0  0  0  0
   60.3970   35.6896   47.6044 H   0  0  0  0  0  0  0  0  0  0  0  0
   59.7910   36.2835   45.2671 H   0  0  0  0  0  0  0  0  0  0  0  0
   58.7644   34.5915   43.7667 H   0  0  0  0  0  0  0  0  0  0  0  0
   56.9114   33.0711   43.0923 H   0  0  0  0  0  0  0  0  0  0  0  0
   58.6051   32.8637   42.5309 H   0  0  0  0  0  0  0  0  0  0  0  0
   57.4809   31.4627   42.5309 H   0  0  0  0  0  0  0  0  0  0  0  0
   58.3093   26.6270   43.3759 H   0  0  0  0  0  0  0  0  0  0  0  0
   57.6937   24.2097   43.2784 H   0  0  0  0  0  0  0  0  0  0  0  0
   56.4127   23.1689   45.1527 H   0  0  0  0  0  0  0  0  0  0  0  0
   55.7408   24.5457   47.1222 H   0  0  0  0  0  0  0  0  0  0  0  0
   56.3516   26.9630   47.2264 H   0  0  0  0  0  0  0  0  0  0  0  0
   58.4819   28.7988   48.5263 H   0  0  0  0  0  0  0  0  0  0  0  0
   58.5902   27.2841   47.5668 H   0  0  0  0  0  0  0  0  0  0  0  0
   59.9592   28.4470   47.5668 H   0  0  0  0  0  0  0  0  0  0  0  0
  1  2  1  0
  2  3  1  0
  3  4  1  0
  4  5  1  0
  3  6  1  0
  6  7  1  0
  7  8  1  0
  8  9  1  0
  9 10  2  0
 10 11  1  0
 11 12  2  0
 12 13  1  0
 13 14  2  0
 14 15  1  0
 15 16  2  0
 16 17  1  0
 16 18  1  0
 18 19  1  0
 19 20  1  0
 20 21  1  0
 21 22  2  0
 22 23  1  0
 23 24  2  0
 24 25  1  0
 25 26  2  0
 20 27  2  0
 27 28  1  0
 27 29  1  0
 29  9  1  0
 15 10  1  0
 29 18  2  0
 26 21  1  0
  1 30  1  0
  1 31  1  0
  1 32  1  0
  2 33  1  0
  2 34  1  0
  4 35  1  0
  4 36  1  0
  5 37  1  0
  5 38  1  0
  5 39  1  0
  6 40  1  0
  6 41  1  0
  7 42  1  0
  7 43  1  0
  8 44  1  0
 11 45  1  0
 12 46  1  0
 13 47  1  0
 14 48  1  0
 17 49  1  0
 17 50  1  0
 17 51  1  0
 22 52  1  0
 23 53  1  0
 24 54  1  0
 25 55  1  0
 26 56  1  0
 28 57  1  0
 28 58  1  0
 28 59  1  0
M  CHG  2  16   1  27   1
M  END
>  <UniqueID>  (1) 
1

>  <SMILES>  (1) 
CCN(CC)CCNc1c2ccccc2[n+](C)c2sc(-c3ccccc3)[n+](C)c12

>  <Energy>  (1) 
121.32292780572553

>  <Genealogy>  (1) 
CCN(CC)CCNc1c2ccccc2[n+](C)c2sc(-c3ccccc3)[n+](C)c12 (3D coordinates assigned)
CCN(CC)CCNc1c2ccccc2[n+](C)c2sc(-c3ccccc3)[n+](C)c12 (optimized conformer: 121.32292780572553 kcal/mol)

>  <smiles>  (1) 
CCN(CC)CCNc1c2ccccc2[n+](C)c2sc(-c3ccccc3)[n+](C)c12

>  <score_type>  (1) 
oracle

>  <origin>  (1) 
adg

>  <m_score__min__energy>  (1) 
-5.1699999999999999

>  <m_primary>  (1) 
energy

$$$$
1:0
     RDKit          3D

 41 42  0  0  0  0  0  0  0  0999 V2000
   57.1420   26.7680   45.7850 C   0  0  0  0  0  0  0  0  0  0  0  0
   57.8980   27.4510   46.9310 C   0  0  0  0  0  0  0  0  0  0  0  0
   58.7540   28.5810   46.4820 N   0  0  0  0  0  0  0  0  0  0  0  0
   59.4150   28.2230   45.2000 C   0  0  0  0  0  0  0  0  0  0  0  0
   60.7560   28.9350   44.9890 C   0  0  0  0  0  0  0  0  0  0  0  0
   59.6920   29.0780   47.5320 C   0  0  0  0  0  0  0  0  0  0  0  0
   59.2940   30.3990   48.2300 C   0  0  0  0  0  0  0  0  0  0  0  0
   58.2130   31.0550   47.5670 O   0  0  0  0  0  0  0  0  0  0  0  0
   58.3230   31.8770   46.4340 C   0  0  0  0  0  0  0  0  0  0  0  0
   58.9660   33.1310   46.4630 C   0  0  0  0  0  0  0  0  0  0  0  0
   59.0530   33.9060   45.3040 C   0  0  0  0  0  0  0  0  0  0  0  0
   59.6750   35.1110   45.3420 F   0  0  0  0  0  0  0  0  0  0  0  0
   58.5130   33.4400   44.1030 C   0  0  0  0  0  0  0  0  0  0  0  0
   57.8760   32.1920   44.0580 C   0  0  0  0  0  0  0  0  0  0  0  0
   57.7650   31.4230   45.2310 C   0  0  0  0  0  0  0  0  0  0  0  0
   57.1080   30.1850   45.1920 O   0  0  0  0  0  0  0  0  0  0  0  0
   56.2540   29.8180   44.1080 C   0  0  0  0  0  0  0  0  0  0  0  0
   56.8780   30.2040   42.7640 C   0  0  0  0  0  0  0  0  0  0  0  0
   57.3470   31.6310   42.7980 C   0  0  0  0  0  0  0  0  0  0  0  0
   57.3430   32.3150   41.7390 O   0  0  0  0  0  0  0  0  0  0  0  0
   56.3861   26.0851   46.2000 H   0  0  0  0  0  0  0  0  0  0  0  0
   56.6467   27.5309   45.1664 H   0  0  0  0  0  0  0  0  0  0  0  0
   57.8509   26.1980   45.1664 H   0  0  0  0  0  0  0  0  0  0  0  0
   57.1630   27.8357   47.6533 H   0  0  0  0  0  0  0  0  0  0  0  0
   58.5630   26.6967   47.3769 H   0  0  0  0  0  0  0  0  0  0  0  0
   58.1060   29.3760   46.2650 H   0  0  0  0  0  0  0  0  0  0  0  0
   59.5909   27.1372   45.1893 H   0  0  0  0  0  0  0  0  0  0  0  0
   58.7453   28.5428   44.3880 H   0  0  0  0  0  0  0  0  0  0  0  0
   61.2028   29.1723   45.9657 H   0  0  0  0  0  0  0  0  0  0  0  0
   61.4349   28.2786   44.4249 H   0  0  0  0  0  0  0  0  0  0  0  0
   60.5925   29.8651   44.4249 H   0  0  0  0  0  0  0  0  0  0  0  0
   59.7729   28.3003   48.3057 H   0  0  0  0  0  0  0  0  0  0  0  0
   60.6348   29.2934   47.0078 H   0  0  0  0  0  0  0  0  0  0  0  0
   58.9924   30.1763   49.2642 H   0  0  0  0  0  0  0  0  0  0  0  0
   60.1645   31.0709   48.2026 H   0  0  0  0  0  0  0  0  0  0  0  0
   59.4014   33.5012   47.4029 H   0  0  0  0  0  0  0  0  0  0  0  0
   58.5876   34.0524   43.1923 H   0  0  0  0  0  0  0  0  0  0  0  0
   56.0915   28.7303   44.1302 H   0  0  0  0  0  0  0  0  0  0  0  0
   55.2987   30.3522   44.2176 H   0  0  0  0  0  0  0  0  0  0  0  0
   57.7347   29.5452   42.5590 H   0  0  0  0  0  0  0  0  0  0  0  0
   56.1211   30.0947   41.9733 H   0  0  0  0  0  0  0  0  0  0  0  0
  1  2  1  0
  2  3  1  0
  3  4  1  0
  4  5  1  0
  3  6  1  0
  6  7  1  0
  7  8  1  0
  8  9  1  0
  9 10  2  0
 10 11  1  0
 11 12  1  0
 11 13  2  0
 13 14  1  0
 14 15  2  0
 15 16  1  0
 16 17  1  0
 17 18  1  0
 18 19  1  0
 19 20  2  0
 15  9  1  0
 19 14  1  0
  1 21  1  0
  1 22  1  0
  1 23  1  0
  2 24  1  0
  2 25  1  0
  3 26  1  0
  4 27  1  0
  4 28  1  0
  5 29  1  0
  5 30  1  0
  5 31  1  0
  6 32  1  0
  6 33  1  0
  7 34  1  0
  7 35  1  0
 10 36  1  0
 13 37  1  0
 17 38  1  0
 17 39  1  0
 18 40  1  0
 18 41  1  0
M  CHG  1   3   1
M  END
>  <UniqueID>  (2) 
2

>  <SMILES>  (2) 
CC[NH+](CC)CCOc1cc(F)cc2c1OCCC2=O

>  <Energy>  (2) 
44.45919501515634

>  <Genealogy>  (2) 
CC[NH+](CC)CCOc1cc(F)cc2c1OCCC2=O (protonated)
CC[NH+](CC)CCOc1cc(F)cc2c1OCCC2=O (3D coordinates assigned)
CC[NH+](CC)CCOc1cc(F)cc2c1OCCC2=O (nonaromatic ring conformer: 44.45919501515634 kcal/mol)

>  <smiles>  (2) 
CCN(CC)CCOc1cc(F)cc2c1OCCC2=O

>  <score_type>  (2) 
oracle

>  <origin>  (2) 
adg

>  <m_score__min__energy>  (2) 
-3.8999999999999999

>  <m_primary>  (2) 
energy

$$$$
2:0
     RDKit          3D

 32 32  0  0  0  0  0  0  0  0999 V2000
   59.2150   34.9070   45.2970 C   0  0  0  0  0  0  0  0  0  0  0  0
   58.0870   33.9900   44.8390 C   0  0  0  0  0  0  0  0  0  0  0  0
   57.2660   33.6360   45.9360 O   0  0  0  0  0  0  0  0  0  0  0  0
   58.0400   33.5000   47.1100 C   0  0  0  0  0  0  0  0  0  0  0  0
   58.8270   32.2000   47.0420 C   0  0  0  0  0  0  0  0  0  0  0  0
   58.0480   31.2130   46.3720 O   0  0  0  0  0  0  0  0  0  0  0  0
   58.5430   29.9840   45.9050 C   0  0  0  0  0  0  0  0  0  0  0  0
   59.7310   29.4210   46.4110 C   0  0  0  0  0  0  0  0  0  0  0  0
   60.2000   28.2000   45.9190 C   0  0  0  0  0  0  0  0  0  0  0  0
   59.4930   27.5310   44.9210 C   0  0  0  0  0  0  0  0  0  0  0  0
   58.3130   28.0780   44.4110 C   0  0  0  0  0  0  0  0  0  0  0  0
   57.8290   29.3000   44.9010 C   0  0  0  0  0  0  0  0  0  0  0  0
   56.3410   29.9840   44.2410 S   0  0  0  0  0  0  0  0  0  0  0  0
   56.2870   29.7070   42.4840 C   0  0  0  0  0  0  0  0  0  0  0  0
   55.1430   29.3330   44.8730 O   0  0  0  0  0  0  0  0  0  0  0  0
   56.2940   31.4590   44.5240 O   0  0  0  0  0  0  0  0  0  0  0  0
   59.2445   34.9310   46.3963 H   0  0  0  0  0  0  0  0  0  0  0  0
   60.1738   34.5290   44.9126 H   0  0  0  0  0  0  0  0  0  0  0  0
   59.0407   35.9228   44.9126 H   0  0  0  0  0  0  0  0  0  0  0  0
   57.4795   34.5110   44.0843 H   0  0  0  0  0  0  0  0  0  0  0  0
   58.5215   33.0762   44.4075 H   0  0  0  0  0  0  0  0  0  0  0  0
   58.7362   34.3477   47.1921 H   0  0  0  0  0  0  0  0  0  0  0  0
   57.3790   33.4865   47.9891 H   0  0  0  0  0  0  0  0  0  0  0  0
   59.7638   32.3659   46.4899 H   0  0  0  0  0  0  0  0  0  0  0  0
   59.0604   31.8566   48.0606 H   0  0  0  0  0  0  0  0  0  0  0  0
   60.2928   29.9455   47.1980 H   0  0  0  0  0  0  0  0  0  0  0  0
   61.1281   27.7663   46.3197 H   0  0  0  0  0  0  0  0  0  0  0  0
   59.8649   26.5707   44.5344 H   0  0  0  0  0  0  0  0  0  0  0  0
   57.7607   27.5478   43.6212 H   0  0  0  0  0  0  0  0  0  0  0  0
   56.0799   28.6449   42.2865 H   0  0  0  0  0  0  0  0  0  0  0  0
   55.4923   30.3243   42.0397 H   0  0  0  0  0  0  0  0  0  0  0  0
   57.2554   29.9806   42.0397 H   0  0  0  0  0  0  0  0  0  0  0  0
  1  2  1  0
  2  3  1  0
  3  4  1  0
  4  5  1  0
  5  6  1  0
  6  7  1  0
  7  8  2  0
  8  9  1  0
  9 10  2  0
 10 11  1  0
 11 12  2  0
 12 13  1  0
 13 14  1  0
 13 15  2  0
 13 16  2  0
 12  7  1  0
  1 17  1  0
  1 18  1  0
  1 19  1  0
  2 20  1  0
  2 21  1  0
  4 22  1  0
  4 23  1  0
  5 24  1  0
  5 25  1  0
  8 26  1  0
  9 27  1  0
 10 28  1  0
 11 29  1  0
 14 30  1  0
 14 31  1  0
 14 32  1  0
M  END
>  <UniqueID>  (3) 
3

>  <SMILES>  (3) 
CCOCCOc1ccccc1S(C)(=O)=O

>  <Energy>  (3) 
23.94807354445752

>  <Genealogy>  (3) 
CCOCCOc1ccccc1S(C)(=O)=O (3D coordinates assigned)
CCOCCOc1ccccc1S(C)(=O)=O (optimized conformer: 23.94807354445752 kcal/mol)

>  <smiles>  (3) 
CCOCCOc1ccccc1S(C)(=O)=O

>  <score_type>  (3) 
oracle

>  <origin>  (3) 
adg

>  <m_score__min__energy>  (3) 
-6.1699999999999999

>  <m_primary>  (3) 
energy

$$$$
3:0
     RDKit          3D

 67 69  0  0  0  0  0  0  0  0999 V2000
   56.6330   22.4060   42.8430 C   0  0  0  0  0  0  0  0  0  0  0  0
   56.7650   22.1170   44.3360 C   0  0  0  0  0  0  0  0  0  0  0  0
   56.9440   23.3720   45.0990 N   0  0  0  0  0  0  0  0  0  0  0  0
   58.3490   23.7180   45.4290 C   0  0  0  0  0  0  0  0  0  0  0  0
   59.3660   22.6180   45.1030 C   0  0  0  0  0  0  0  0  0  0  0  0
   56.1120   24.5190   44.6540 C   0  0  0  0  0  0  0  0  0  0  0  0
   54.9900   24.9150   45.6340 C   0  0  0  0  0  0  0  0  0  0  0  0
   55.1380   26.2770   45.9810 O   0  0  0  0  0  0  0  0  0  0  0  0
   56.4630   26.5510   46.4000 C   0  0  0  0  0  0  0  0  0  0  0  0
   57.0430   27.6830   45.5540 C   0  0  0  0  0  0  0  0  0  0  0  0
   55.9930   28.6470   45.1970 N   0  0  0  0  0  0  0  0  0  0  0  0
   56.3870   29.4900   44.0570 C   0  0  0  0  0  0  0  0  0  0  0  0
   57.1060   30.7820   44.5070 C   0  0  0  0  0  0  0  0  0  0  0  0
   58.5820   30.6980   44.4280 N   0  0  0  0  0  0  0  0  0  0  0  0
   59.2390   31.2040   45.6310 C   0  0  0  0  0  0  0  0  0  0  0  0
   59.3740   32.6060   45.8770 C   0  0  0  0  0  0  0  0  0  0  0  0
   58.9080   33.5920   44.9650 C   0  0  0  0  0  0  0  0  0  0  0  0
   58.9800   34.9490   45.2620 C   0  0  0  0  0  0  0  0  0  0  0  0
   59.5100   35.3710   46.4700 C   0  0  0  0  0  0  0  0  0  0  0  0
   60.0130   34.4380   47.3700 C   0  0  0  0  0  0  0  0  0  0  0  0
   60.0040   33.0490   47.0780 C   0  0  0  0  0  0  0  0  0  0  0  0
   60.5830   32.1420   47.9410 N   0  0  0  0  0  0  0  0  0  0  0  0
   61.5100   32.6180   48.9940 C   0  0  0  0  0  0  0  0  0  0  0  0
   60.3380   30.7930   47.7980 C   0  0  0  0  0  0  0  0  0  0  0  0
   60.6840   29.8760   48.8200 C   0  0  0  0  0  0  0  0  0  0  0  0
   60.5310   28.5050   48.6490 C   0  0  0  0  0  0  0  0  0  0  0  0
   60.0130   27.9930   47.4590 C   0  0  0  0  0  0  0  0  0  0  0  0
   59.8810   26.5710   47.2710 N   0  0  0  0  0  0  0  0  0  0  0  0
   58.9790   25.9340   47.8540 O   0  0  0  0  0  0  0  0  0  0  0  0
   60.7440   25.8890   46.4460 O   0  0  0  0  0  0  0  0  0  0  0  0
   59.6050   28.8860   46.4580 C   0  0  0  0  0  0  0  0  0  0  0  0
   59.7210   30.2930   46.6190 C   0  0  0  0  0  0  0  0  0  0  0  0
   56.1799   23.3981   42.7002 H   0  0  0  0  0  0  0  0  0  0  0  0
   57.6290   22.3872   42.3764 H   0  0  0  0  0  0  0  0  0  0  0  0
   55.9950   21.6409   42.3764 H   0  0  0  0  0  0  0  0  0  0  0  0
   55.8552   21.6080   44.6869 H   0  0  0  0  0  0  0  0  0  0  0  0
   57.6461   21.4780   44.4955 H   0  0  0  0  0  0  0  0  0  0  0  0
   58.6236   24.6194   44.8615 H   0  0  0  0  0  0  0  0  0  0  0  0
   58.3876   23.8682   46.5180 H   0  0  0  0  0  0  0  0  0  0  0  0
   59.7589   22.1930   46.0384 H   0  0  0  0  0  0  0  0  0  0  0  0
   58.8749   21.8262   44.5183 H   0  0  0  0  0  0  0  0  0  0  0  0
   60.1939   23.0456   44.5183 H   0  0  0  0  0  0  0  0  0  0  0  0
   56.7714   25.3888   44.5175 H   0  0  0  0  0  0  0  0  0  0  0  0
   55.6170   24.2033   43.7238 H   0  0  0  0  0  0  0  0  0  0  0  0
   54.0116   24.7611   45.1553 H   0  0  0  0  0  0  0  0  0  0  0  0
   55.0523   24.2932   46.5393 H   0  0  0  0  0  0  0  0  0  0  0  0
   56.4579   26.8503   47.4585 H   0  0  0  0  0  0  0  0  0  0  0  0
   57.0798   25.6487   46.2760 H   0  0  0  0  0  0  0  0  0  0  0  0
   57.8279   28.1981   46.1273 H   0  0  0  0  0  0  0  0  0  0  0  0
   57.4651   27.2580   44.6314 H   0  0  0  0  0  0  0  0  0  0  0  0
   55.1490   28.1060   44.8970 H   0  0  0  0  0  0  0  0  0  0  0  0
   57.0646   28.9150   43.4088 H   0  0  0  0  0  0  0  0  0  0  0  0
   55.4719   29.7821   43.5209 H   0  0  0  0  0  0  0  0  0  0  0  0
   56.7700   31.6088   43.8640 H   0  0  0  0  0  0  0  0  0  0  0  0
   56.8485   30.9425   45.5643 H   0  0  0  0  0  0  0  0  0  0  0  0
   58.9220   31.1370   43.5510 H   0  0  0  0  0  0  0  0  0  0  0  0
   58.8590   29.7020   44.2850 H   0  0  0  0  0  0  0  0  0  0  0  0
   58.4807   33.2745   44.0024 H   0  0  0  0  0  0  0  0  0  0  0  0
   58.6148   35.6894   44.5351 H   0  0  0  0  0  0  0  0  0  0  0  0
   59.5330   36.4426   46.7171 H   0  0  0  0  0  0  0  0  0  0  0  0
   60.4267   34.7838   48.3288 H   0  0  0  0  0  0  0  0  0  0  0  0
   61.0837   32.3991   49.9841 H   0  0  0  0  0  0  0  0  0  0  0  0
   62.4776   32.1052   48.8899 H   0  0  0  0  0  0  0  0  0  0  0  0
   61.6571   33.7031   48.8899 H   0  0  0  0  0  0  0  0  0  0  0  0
   61.0832   30.2574   49.7714 H   0  0  0  0  0  0  0  0  0  0  0  0
   60.8206   27.8184   49.4582 H   0  0  0  0  0  0  0  0  0  0  0  0
   59.1840   28.4868   45.5234 H   0  0  0  0  0  0  0  0  0  0  0  0
  1  2  1  0
  2  3  1  0
  3  4  1  0
  4  5  1  0
  3  6  1  0
  6  7  1  0
  7  8  1  0
  8  9  1  0
  9 10  1  0
 10 11  1  0
 11 12  1  0
 12 13  1  0
 13 14  1  0
 14 15  1  0
 15 16  2  0
 16 17  1  0
 17 18  2  0
 18 19  1  0
 19 20  2  0
 20 21  1  0
 21 22  2  0
 22 23  1  0
 22 24  1  0
 24 25  2  0
 25 26  1  0
 26 27  2  0
 27 28  1  0
 28 29  2  0
 28 30  1  0
 27 31  1  0
 31 32  2  0
 32 15  1  0
 21 16  1  0
 32 24  1  0
  1 33  1  0
  1 34  1  0
  1 35  1  0
  2 36  1  0
  2 37  1  0
  4 38  1  0
  4 39  1  0
  5 40  1  0
  5 41  1  0
  5 42  1  0
  6 43  1  0
  6 44  1  0
  7 45  1  0
  7 46  1  0
  9 47  1  0
  9 48  1  0
 10 49  1  0
 10 50  1  0
 11 51  1  0
 12 52  1  0
 12 53  1  0
 13 54  1  0
 13 55  1  0
 14 56  1  0
 14 57  1  0
 17 58  1  0
 18 59  1  0
 19 60  1  0
 20 61  1  0
 23 62  1  0
 23 63  1  0
 23 64  1  0
 25 65  1  0
 26 66  1  0
 31 67  1  0
M  CHG  4  14   1  22   1  28   1  30  -1
M  END
>  <UniqueID>  (4) 
4

>  <SMILES>  (4) 
CCN(CC)CCOCCNCC[NH2+]c1c2ccccc2[n+](C)c2ccc([N+](=O)[O-])cc12

>  <Energy>  (4) 
108.15167314080469

>  <Genealogy>  (4) 
CCN(CC)CCOCCNCC[NH2+]c1c2ccccc2[n+](C)c2ccc([N+](=O)[O-])cc12 (protonated)
CCN(CC)CCOCCNCC[NH2+]c1c2ccccc2[n+](C)c2ccc([N+](=O)[O-])cc12 (3D coordinates assigned)
CCN(CC)CCOCCNCC[NH2+]c1c2ccccc2[n+](C)c2ccc([N+](=O)[O-])cc12 (optimized conformer: 108.15167314080469 kcal/mol)

>  <smiles>  (4) 
CCN(CC)CCOCCNCCNc1c2ccccc2[n+](C)c2ccc([N+](=O)[O-])cc12

>  <score_type>  (4) 
oracle

>  <origin>  (4) 
adg

>  <m_score__min__energy>  (4) 
-5.6900000000000004

>  <m_primary>  (4) 
energy

$$$$
4:0
     RDKit          3D

 44 45  0  0  0  0  0  0  0  0999 V2000
   60.9180   33.8700   50.0210 C   0  0  0  0  0  0  0  0  0  0  0  0
   62.1880   33.9910   49.1890 C   0  0  0  0  0  0  0  0  0  0  0  0
   62.3920   32.7390   48.4240 N   0  0  0  0  0  0  0  0  0  0  0  0
   63.5420   32.8130   47.4930 C   0  0  0  0  0  0  0  0  0  0  0  0
   63.3720   33.8640   46.3860 C   0  0  0  0  0  0  0  0  0  0  0  0
   62.4040   31.5170   49.2600 C   0  0  0  0  0  0  0  0  0  0  0  0
   61.3180   30.5270   48.8140 C   0  0  0  0  0  0  0  0  0  0  0  0
   60.8330   30.8530   47.4670 N   0  0  0  0  0  0  0  0  0  0  0  0
   59.3650   30.8750   47.4090 C   0  0  0  0  0  0  0  0  0  0  0  0
   58.8950   31.6060   46.1640 C   0  0  0  0  0  0  0  0  0  0  0  0
   59.2630   32.9640   46.0260 C   0  0  0  0  0  0  0  0  0  0  0  0
   60.0290   33.5860   47.0140 O   0  0  0  0  0  0  0  0  0  0  0  0
   58.8740   33.6950   44.9010 C   0  0  0  0  0  0  0  0  0  0  0  0
   58.1290   33.0970   43.8920 C   0  0  0  0  0  0  0  0  0  0  0  0
   57.7640   31.7500   43.9860 C   0  0  0  0  0  0  0  0  0  0  0  0
   57.0220   31.1610   42.9480 C   0  0  0  0  0  0  0  0  0  0  0  0
   56.6610   29.8170   43.0150 C   0  0  0  0  0  0  0  0  0  0  0  0
   57.0380   29.0480   44.1130 C   0  0  0  0  0  0  0  0  0  0  0  0
   57.7740   29.6150   45.1560 C   0  0  0  0  0  0  0  0  0  0  0  0
   58.1480   30.9800   45.1200 C   0  0  0  0  0  0  0  0  0  0  0  0
   61.1762   33.8946   51.0900 H   0  0  0  0  0  0  0  0  0  0  0  0
   60.2451   34.7081   49.7870 H   0  0  0  0  0  0  0  0  0  0  0  0
   60.4155   32.9199   49.7870 H   0  0  0  0  0  0  0  0  0  0  0  0
   62.0916   34.8363   48.4917 H   0  0  0  0  0  0  0  0  0  0  0  0
   63.0486   34.1625   49.8523 H   0  0  0  0  0  0  0  0  0  0  0  0
   64.4431   33.0617   48.0728 H   0  0  0  0  0  0  0  0  0  0  0  0
   63.6191   31.8337   46.9981 H   0  0  0  0  0  0  0  0  0  0  0  0
   63.2121   34.8528   46.8406 H   0  0  0  0  0  0  0  0  0  0  0  0
   64.2777   33.8894   45.7623 H   0  0  0  0  0  0  0  0  0  0  0  0
   62.5045   33.6025   45.7623 H   0  0  0  0  0  0  0  0  0  0  0  0
   63.3880   31.0329   49.1734 H   0  0  0  0  0  0  0  0  0  0  0  0
   62.2040   31.8065   50.3022 H   0  0  0  0  0  0  0  0  0  0  0  0
   61.7376   29.5102   48.8094 H   0  0  0  0  0  0  0  0  0  0  0  0
   60.4740   30.5912   49.5165 H   0  0  0  0  0  0  0  0  0  0  0  0
   61.1720   31.8170   47.2330 H   0  0  0  0  0  0  0  0  0  0  0  0
   58.9877   29.8420   47.3868 H   0  0  0  0  0  0  0  0  0  0  0  0
   58.9808   31.3990   48.2966 H   0  0  0  0  0  0  0  0  0  0  0  0
   60.6320   33.0560   47.6330 H   0  0  0  0  0  0  0  0  0  0  0  0
   59.1600   34.7535   44.8131 H   0  0  0  0  0  0  0  0  0  0  0  0
   57.8246   33.6862   43.0144 H   0  0  0  0  0  0  0  0  0  0  0  0
   56.7246   31.7645   42.0777 H   0  0  0  0  0  0  0  0  0  0  0  0
   56.0779   29.3631   42.2001 H   0  0  0  0  0  0  0  0  0  0  0  0
   56.7541   27.9863   44.1593 H   0  0  0  0  0  0  0  0  0  0  0  0
   58.0664   28.9937   46.0154 H   0  0  0  0  0  0  0  0  0  0  0  0
  1  2  1  0
  2  3  1  0
  3  4  1  0
  4  5  1  0
  3  6  1  0
  6  7  1  0
  7  8  1  0
  8  9  1  0
  9 10  1  0
 10 11  2  0
 11 12  1  0
 11 13  1  0
 13 14  2  0
 14 15  1  0
 15 16  2  0
 16 17  1  0
 17 18  2  0
 18 19  1  0
 19 20  2  0
 20 10  1  0
 20 15  1  0
  1 21  1  0
  1 22  1  0
  1 23  1  0
  2 24  1  0
  2 25  1  0
  4 26  1  0
  4 27  1  0
  5 28  1  0
  5 29  1  0
  5 30  1  0
  6 31  1  0
  6 32  1  0
  7 33  1  0
  7 34  1  0
  8 35  1  0
  9 36  1  0
  9 37  1  0
 12 38  1  0
 13 39  1  0
 14 40  1  0
 16 41  1  0
 17 42  1  0
 18 43  1  0
 19 44  1  0
M  END
>  <UniqueID>  (5) 
5

>  <SMILES>  (5) 
CCN(CC)CCNCc1c(O)ccc2ccccc12

>  <Energy>  (5) 
49.34003771785964

>  <Genealogy>  (5) 
CCN(CC)CCNCc1c(O)ccc2ccccc12 (3D coordinates assigned)
CCN(CC)CCNCc1c(O)ccc2ccccc12 (optimized conformer: 49.34003771785964 kcal/mol)

>  <smiles>  (5) 
CCN(CC)CCNCc1c(O)ccc2ccccc12

>  <score_type>  (5) 
oracle

>  <origin>  (5) 
adg

>  <m_score__min__energy>  (5) 
-5.7800000000000002

>  <m_primary>  (5) 
energy

$$$$
5:0
     RDKit          3D

 46 48  0  0  0  0  0  0  0  0999 V2000
   64.5490   33.2780   49.5320 C   0  0  0  0  0  0  0  0  0  0  0  0
   63.9490   32.0460   48.8640 C   0  0  0  0  0  0  0  0  0  0  0  0
   63.7420   32.2960   47.4300 N   0  0  0  0  0  0  0  0  0  0  0  0
   63.2450   33.6550   47.1480 C   0  0  0  0  0  0  0  0  0  0  0  0
   61.7590   33.8460   47.5050 C   0  0  0  0  0  0  0  0  0  0  0  0
   60.9590   32.6930   47.0830 N   0  0  0  0  0  0  0  0  0  0  0  0
   61.2160   31.4510   47.4600 N   0  0  0  0  0  0  0  0  0  0  0  0
   60.3440   30.6170   46.8610 C   0  0  0  0  0  0  0  0  0  0  0  0
   60.3780   29.1460   47.0190 C   0  0  0  0  0  0  0  0  0  0  0  0
   60.4260   28.3190   45.8860 C   0  0  0  0  0  0  0  0  0  0  0  0
   60.4510   26.9320   46.0440 C   0  0  0  0  0  0  0  0  0  0  0  0
   60.4170   26.3860   47.2880 N   0  0  0  0  0  0  0  0  0  0  0  0
   60.3570   27.1600   48.4040 C   0  0  0  0  0  0  0  0  0  0  0  0
   60.3300   28.5520   48.2910 C   0  0  0  0  0  0  0  0  0  0  0  0
   59.4840   31.3700   46.0640 C   0  0  0  0  0  0  0  0  0  0  0  0
   58.3360   30.8880   45.2680 C   0  0  0  0  0  0  0  0  0  0  0  0
   58.0420   31.4690   44.0250 C   0  0  0  0  0  0  0  0  0  0  0  0
   56.9650   31.0000   43.2660 C   0  0  0  0  0  0  0  0  0  0  0  0
   56.1790   29.9470   43.7410 C   0  0  0  0  0  0  0  0  0  0  0  0
   55.1360   29.4910   43.0030 F   0  0  0  0  0  0  0  0  0  0  0  0
   56.4690   29.3610   44.9770 C   0  0  0  0  0  0  0  0  0  0  0  0
   57.5440   29.8290   45.7390 C   0  0  0  0  0  0  0  0  0  0  0  0
   59.8990   32.6870   46.2400 C   0  0  0  0  0  0  0  0  0  0  0  0
   59.2750   33.9120   45.6360 C   0  0  0  0  0  0  0  0  0  0  0  0
   64.4943   33.1658   50.6249 H   0  0  0  0  0  0  0  0  0  0  0  0
   65.6003   33.3853   49.2266 H   0  0  0  0  0  0  0  0  0  0  0  0
   63.9853   34.1719   49.2266 H   0  0  0  0  0  0  0  0  0  0  0  0
   64.6343   31.1947   48.9892 H   0  0  0  0  0  0  0  0  0  0  0  0
   62.9798   31.8199   49.3325 H   0  0  0  0  0  0  0  0  0  0  0  0
   64.6340   32.1240   46.9120 H   0  0  0  0  0  0  0  0  0  0  0  0
   63.8396   34.3726   47.7324 H   0  0  0  0  0  0  0  0  0  0  0  0
   63.3439   33.8201   46.0650 H   0  0  0  0  0  0  0  0  0  0  0  0
   61.6647   33.9686   48.5941 H   0  0  0  0  0  0  0  0  0  0  0  0
   61.3871   34.7383   46.9801 H   0  0  0  0  0  0  0  0  0  0  0  0
   61.9990   31.1750   48.0950 H   0  0  0  0  0  0  0  0  0  0  0  0
   60.4438   28.7612   44.8790 H   0  0  0  0  0  0  0  0  0  0  0  0
   60.4983   26.2797   45.1595 H   0  0  0  0  0  0  0  0  0  0  0  0
   60.3297   26.6892   49.3978 H   0  0  0  0  0  0  0  0  0  0  0  0
   60.2715   29.1793   49.1927 H   0  0  0  0  0  0  0  0  0  0  0  0
   58.6606   32.2960   43.6464 H   0  0  0  0  0  0  0  0  0  0  0  0
   56.7364   31.4608   42.2937 H   0  0  0  0  0  0  0  0  0  0  0  0
   55.8509   28.5311   45.3502 H   0  0  0  0  0  0  0  0  0  0  0  0
   57.7698   29.3658   46.7108 H   0  0  0  0  0  0  0  0  0  0  0  0
   58.9333   34.5828   46.4380 H   0  0  0  0  0  0  0  0  0  0  0  0
   60.0176   34.4329   45.0138 H   0  0  0  0  0  0  0  0  0  0  0  0
   58.4170   33.6176   45.0138 H   0  0  0  0  0  0  0  0  0  0  0  0
  1  2  1  0
  2  3  1  0
  3  4  1  0
  4  5  1  0
  5  6  1  0
  6  7  1  0
  7  8  2  0
  8  9  1  0
  9 10  2  0
 10 11  1  0
 11 12  2  0
 12 13  1  0
 13 14  2  0
  8 15  1  0
 15 16  1  0
 16 17  2  0
 17 18  1  0
 18 19  2  0
 19 20  1  0
 19 21  1  0
 21 22  2  0
 15 23  2  0
 23 24  1  0
 23  6  1  0
 14  9  1  0
 22 16  1  0
  1 25  1  0
  1 26  1  0
  1 27  1  0
  2 28  1  0
  2 29  1  0
  3 30  1  0
  4 31  1  0
  4 32  1  0
  5 33  1  0
  5 34  1  0
  7 35  1  0
 10 36  1  0
 11 37  1  0
 13 38  1  0
 14 39  1  0
 17 40  1  0
 18 41  1  0
 21 42  1  0
 22 43  1  0
 24 44  1  0
 24 45  1  0
 24 46  1  0
M  CHG  1   7   1
M  END
>  <UniqueID>  (6) 
6

>  <SMILES>  (6) 
CCNCCn1[nH+]c(-c2ccncc2)c(-c2ccc(F)cc2)c1C

>  <Energy>  (6) 
84.5203263980536

>  <Genealogy>  (6) 
CCNCCn1[nH+]c(-c2ccncc2)c(-c2ccc(F)cc2)c1C (protonated)
CCNCCn1[nH+]c(-c2ccncc2)c(-c2ccc(F)cc2)c1C (3D coordinates assigned)
CCNCCn1[nH+]c(-c2ccncc2)c(-c2ccc(F)cc2)c1C (optimized conformer: 84.5203263980536 kcal/mol)

>  <smiles>  (6) 
CCNCCn1nc(-c2ccncc2)c(-c2ccc(F)cc2)c1C

>  <score_type>  (6) 
oracle

>  <origin>  (6) 
adg

>  <m_score__min__energy>  (6) 
-5.7000000000000002

>  <m_primary>  (6) 
energy

$$$$
6:0
     RDKit          3D

 54 55  0  0  0  0  0  0  0  0999 V2000
   58.5930   31.9320   47.7070 C   0  0  0  0  0  0  0  0  0  0  0  0
   58.9060   33.4140   47.9010 C   0  0  0  0  0  0  0  0  0  0  0  0
   58.3750   34.2040   46.7670 N   0  0  0  0  0  0  0  0  0  0  0  0
   59.4650   34.8460   45.9980 C   0  0  0  0  0  0  0  0  0  0  0  0
   60.8200   34.2290   46.3440 C   0  0  0  0  0  0  0  0  0  0  0  0
   57.5090   33.3770   45.8870 C   0  0  0  0  0  0  0  0  0  0  0  0
   58.1090   33.2860   44.4820 C   0  0  0  0  0  0  0  0  0  0  0  0
   58.4150   31.8990   44.1360 N   0  0  0  0  0  0  0  0  0  0  0  0
   57.5130   30.8180   44.4240 C   0  0  0  0  0  0  0  0  0  0  0  0
   56.2080   30.8550   44.0240 N   0  0  0  0  0  0  0  0  0  0  0  0
   55.5330   29.4180   44.5310 S   0  0  0  0  0  0  0  0  0  0  0  0
   56.8640   28.7320   45.2520 C   0  0  0  0  0  0  0  0  0  0  0  0
   57.0070   27.4920   45.8700 C   0  0  0  0  0  0  0  0  0  0  0  0
   55.8990   26.6350   45.9600 O   0  0  0  0  0  0  0  0  0  0  0  0
   55.9660   25.2190   46.1240 C   0  0  0  0  0  0  0  0  0  0  0  0
   56.4440   24.5490   44.8290 C   0  0  0  0  0  0  0  0  0  0  0  0
   56.5150   23.0210   44.9640 C   0  0  0  0  0  0  0  0  0  0  0  0
   55.9560   22.3450   43.7720 N   0  0  0  0  0  0  0  0  0  0  0  0
   55.3860   23.3370   42.8460 C   0  0  0  0  0  0  0  0  0  0  0  0
   56.9890   21.5600   43.0720 C   0  0  0  0  0  0  0  0  0  0  0  0
   58.2860   27.1700   46.3800 C   0  0  0  0  0  0  0  0  0  0  0  0
   59.3550   28.0760   46.2450 C   0  0  0  0  0  0  0  0  0  0  0  0
   59.1710   29.3150   45.6070 C   0  0  0  0  0  0  0  0  0  0  0  0
   57.9020   29.6390   45.1110 C   0  0  0  0  0  0  0  0  0  0  0  0
   58.4906   31.4472   48.6891 H   0  0  0  0  0  0  0  0  0  0  0  0
   57.6527   31.8262   47.1461 H   0  0  0  0  0  0  0  0  0  0  0  0
   59.4102   31.4550   47.1461 H   0  0  0  0  0  0  0  0  0  0  0  0
   58.4424   33.7635   48.8353 H   0  0  0  0  0  0  0  0  0  0  0  0
   59.9970   33.5460   47.9493 H   0  0  0  0  0  0  0  0  0  0  0  0
   59.2733   34.7123   44.9231 H   0  0  0  0  0  0  0  0  0  0  0  0
   59.4918   35.9150   46.2559 H   0  0  0  0  0  0  0  0  0  0  0  0
   60.9314   34.1783   47.4372 H   0  0  0  0  0  0  0  0  0  0  0  0
   60.8797   33.2150   45.9219 H   0  0  0  0  0  0  0  0  0  0  0  0
   61.6241   34.8497   45.9219 H   0  0  0  0  0  0  0  0  0  0  0  0
   57.4225   32.3655   46.3105 H   0  0  0  0  0  0  0  0  0  0  0  0
   56.5158   33.8452   45.8214 H   0  0  0  0  0  0  0  0  0  0  0  0
   57.3877   33.6881   43.7553 H   0  0  0  0  0  0  0  0  0  0  0  0
   59.0417   33.8687   44.4590 H   0  0  0  0  0  0  0  0  0  0  0  0
   59.2530   31.7320   43.5390 H   0  0  0  0  0  0  0  0  0  0  0  0
   56.6699   24.9816   46.9353 H   0  0  0  0  0  0  0  0  0  0  0  0
   54.9623   24.8419   46.3696 H   0  0  0  0  0  0  0  0  0  0  0  0
   55.7439   24.8018   44.0191 H   0  0  0  0  0  0  0  0  0  0  0  0
   57.4567   24.9180   44.6094 H   0  0  0  0  0  0  0  0  0  0  0  0
   57.5665   22.7212   45.0848 H   0  0  0  0  0  0  0  0  0  0  0  0
   55.9201   22.7238   45.8402 H   0  0  0  0  0  0  0  0  0  0  0  0
   54.9189   24.1498   43.4215 H   0  0  0  0  0  0  0  0  0  0  0  0
   56.1853   23.7487   42.2123 H   0  0  0  0  0  0  0  0  0  0  0  0
   54.6278   22.8538   42.2123 H   0  0  0  0  0  0  0  0  0  0  0  0
   57.6380   21.0668   43.8106 H   0  0  0  0  0  0  0  0  0  0  0  0
   56.5065   20.7986   42.4415 H   0  0  0  0  0  0  0  0  0  0  0  0
   57.5933   22.2288   42.4415 H   0  0  0  0  0  0  0  0  0  0  0  0
   58.4465   26.2061   46.8851 H   0  0  0  0  0  0  0  0  0  0  0  0
   60.3456   27.8114   46.6433 H   0  0  0  0  0  0  0  0  0  0  0  0
   60.0098   30.0184   45.4991 H   0  0  0  0  0  0  0  0  0  0  0  0
  1  2  1  0
  2  3  1  0
  3  4  1  0
  4  5  1  0
  3  6  1  0
  6  7  1  0
  7  8  1  0
  8  9  1  0
  9 10  2  0
 10 11  1  0
 11 12  1  0
 12 13  2  0
 13 14  1  0
 14 15  1  0
 15 16  1  0
 16 17  1  0
 17 18  1  0
 18 19  1  0
 18 20  1  0
 13 21  1  0
 21 22  2  0
 22 23  1  0
 23 24  2  0
 24  9  1  0
 24 12  1  0
  1 25  1  0
  1 26  1  0
  1 27  1  0
  2 28  1  0
  2 29  1  0
  4 30  1  0
  4 31  1  0
  5 32  1  0
  5 33  1  0
  5 34  1  0
  6 35  1  0
  6 36  1  0
  7 37  1  0
  7 38  1  0
  8 39  1  0
 15 40  1  0
 15 41  1  0
 16 42  1  0
 16 43  1  0
 17 44  1  0
 17 45  1  0
 19 46  1  0
 19 47  1  0
 19 48  1  0
 20 49  1  0
 20 50  1  0
 20 51  1  0
 21 52  1  0
 22 53  1  0
 23 54  1  0
M  END
>  <UniqueID>  (7) 
7

>  <SMILES>  (7) 
CCN(CC)CCNc1nsc2c(OCCCN(C)C)cccc12

>  <Energy>  (7) 
82.95391012829107

>  <Genealogy>  (7) 
CCN(CC)CCNc1nsc2c(OCCCN(C)C)cccc12 (3D coordinates assigned)
CCN(CC)CCNc1nsc2c(OCCCN(C)C)cccc12 (optimized conformer: 82.95391012829107 kcal/mol)

>  <smiles>  (7) 
CCN(CC)CCNc1nsc2c(OCCCN(C)C)cccc12

>  <score_type>  (7) 
oracle

>  <origin>  (7) 
adg

>  <m_score__min__energy>  (7) 
-6.7699999999999996

>  <m_primary>  (7) 
energy

$$$$
7:0
     RDKit          3D

 70 73  0  0  1  0  0  0  0  0999 V2000
   55.7770   30.8760   52.0650 C   0  0  0  0  0  0  0  0  0  0  0  0
   57.1670   31.1900   51.5920 C   0  0  0  0  0  0  0  0  0  0  0  0
   57.6680   30.0910   50.8510 O   0  0  0  0  0  0  0  0  0  0  0  0
   59.0190   30.0500   50.4830 C   0  0  0  0  0  0  0  0  0  0  0  0
   59.9300   30.3750   51.4820 C   0  0  0  0  0  0  0  0  0  0  0  0
   61.2900   30.3820   51.2790 C   0  0  0  0  0  0  0  0  0  0  0  0
   61.7440   30.0430   50.0150 C   0  0  0  0  0  0  0  0  0  0  0  0
   60.8280   29.7190   49.0250 C   0  0  0  0  0  0  0  0  0  0  0  0
   59.4640   29.7180   49.2460 C   0  0  0  0  0  0  0  0  0  0  0  0
   58.5600   29.3810   48.1990 O   0  0  0  0  0  0  0  0  0  0  0  0
   58.5830   28.0200   47.8510 C   0  0  0  0  0  0  0  0  0  0  0  0
   58.3370   27.7160   46.4230 C   0  0  0  0  0  0  0  0  0  0  0  0
   58.3030   28.8620   45.5920 N   0  0  0  0  0  0  0  0  0  0  0  0
   57.7410   28.5510   44.2730 C   0  0  0  0  0  0  0  0  0  0  0  0
   56.8430   29.6580   43.7950 C   0  0  0  0  0  0  0  0  0  0  0  0
   56.5460   30.5550   44.9060 N   0  0  0  0  0  0  0  0  0  0  0  0
   56.8650   31.9310   44.5110 C   0  0  0  0  0  0  0  0  0  0  0  0
   57.7990   32.6290   45.4400 C   0  0  0  0  0  0  0  0  0  0  0  0
   58.3310   31.7620   46.4870 N   0  0  0  0  0  0  0  0  0  0  0  0
   59.4180   32.2800   47.2580 C   0  0  0  0  0  0  0  0  0  0  0  0
   59.2350   32.9550   48.4500 C   0  0  0  0  0  0  0  0  0  0  0  0
   60.2720   33.5010   49.1820 C   0  0  0  0  0  0  0  0  0  0  0  0
   61.5610   33.3780   48.7180 C   0  0  0  0  0  0  0  0  0  0  0  0
   62.6310   33.9040   49.3870 C   0  0  0  0  0  0  0  0  0  0  0  0
   62.4960   34.5470   50.5010 N   0  0  0  0  0  0  0  0  0  0  0  0
   62.2470   33.8310   51.7310 C   0  0  0  0  0  0  0  0  0  0  0  0
   63.3300   33.2360   52.3380 C   0  0  0  0  0  0  0  0  0  0  0  0
   63.1270   32.5360   53.5120 C   0  0  0  0  0  0  0  0  0  0  0  0
   61.8630   32.4300   54.0720 C   0  0  0  0  0  0  0  0  0  0  0  0
   60.7620   33.0360   53.4540 C   0  0  0  0  0  0  0  0  0  0  0  0
   59.0470   32.8660   54.2490 Br  0  0  0  0  0  0  0  0  0  0  0  0
   60.9870   33.7330   52.2770 C   0  0  0  0  0  0  0  0  0  0  0  0
   63.8890   33.7670   48.8880 N   0  0  0  0  0  0  0  0  0  0  0  0
   64.1360   33.1180   47.7340 C   0  0  0  0  0  0  0  0  0  0  0  0
   63.0620   32.5970   47.0730 N   0  0  0  0  0  0  0  0  0  0  0  0
   61.7980   32.7160   47.5400 C   0  0  0  0  0  0  0  0  0  0  0  0
   60.7330   32.1760   46.8250 C   0  0  0  0  0  0  0  0  0  0  0  0
   55.7562   30.8713   53.1648 H   0  0  0  0  0  0  0  0  0  0  0  0
   55.0803   31.6394   51.6884 H   0  0  0  0  0  0  0  0  0  0  0  0
   55.4761   29.8873   51.6884 H   0  0  0  0  0  0  0  0  0  0  0  0
   57.1444   32.0848   50.9526 H   0  0  0  0  0  0  0  0  0  0  0  0
   57.8179   31.3781   52.4586 H   0  0  0  0  0  0  0  0  0  0  0  0
   59.5458   30.6381   52.4786 H   0  0  0  0  0  0  0  0  0  0  0  0
   61.9884   30.6459   52.0868 H   0  0  0  0  0  0  0  0  0  0  0  0
   62.8223   30.0308   49.7980 H   0  0  0  0  0  0  0  0  0  0  0  0
   61.2019   29.4526   48.0254 H   0  0  0  0  0  0  0  0  0  0  0  0
   59.5733   27.6207   48.1154 H   0  0  0  0  0  0  0  0  0  0  0  0
   57.7519   27.5564   48.4027 H   0  0  0  0  0  0  0  0  0  0  0  0
   59.1390   27.0529   46.0665 H   0  0  0  0  0  0  0  0  0  0  0  0
   57.3440   27.2466   46.3620 H   0  0  0  0  0  0  0  0  0  0  0  0
   57.9530   29.7310   45.9990 H   0  0  0  0  0  0  0  0  0  0  0  0
   58.5629   28.4188   43.5540 H   0  0  0  0  0  0  0  0  0  0  0  0
   57.1473   27.6285   44.3538 H   0  0  0  0  0  0  0  0  0  0  0  0
   57.3470   30.2196   42.9946 H   0  0  0  0  0  0  0  0  0  0  0  0
   55.9065   29.2301   43.4079 H   0  0  0  0  0  0  0  0  0  0  0  0
   55.5510   30.4870   45.2060 H   0  0  0  0  0  0  0  0  0  0  0  0
   57.3254   31.9060   43.5123 H   0  0  0  0  0  0  0  0  0  0  0  0
   55.9200   32.4937   44.5287 H   0  0  0  0  0  0  0  0  0  0  0  0
   58.6414   33.0258   44.8544 H   0  0  0  0  0  0  0  0  0  0  0  0
   57.2268   33.4257   45.9378 H   0  0  0  0  0  0  0  0  0  0  0  0
   57.9660   30.8100   46.6900 H   0  0  0  0  0  0  0  0  0  0  0  0
   58.2107   33.0632   48.8361 H   0  0  0  0  0  0  0  0  0  0  0  0
   60.0689   34.0284   50.1257 H   0  0  0  0  0  0  0  0  0  0  0  0
   64.3350   33.3161   51.8980 H   0  0  0  0  0  0  0  0  0  0  0  0
   63.9818   32.0552   54.0102 H   0  0  0  0  0  0  0  0  0  0  0  0
   61.7242   31.8669   55.0067 H   0  0  0  0  0  0  0  0  0  0  0  0
   60.1408   34.2181   51.7685 H   0  0  0  0  0  0  0  0  0  0  0  0
   64.7270   34.1570   49.3750 H   0  0  0  0  0  0  0  0  0  0  0  0
   65.1583   33.0126   47.3417 H   0  0  0  0  0  0  0  0  0  0  0  0
   60.9407   31.6477   45.8828 H   0  0  0  0  0  0  0  0  0  0  0  0
  1  2  1  0
  2  3  1  0
  3  4  1  0
  4  5  2  0
  5  6  1  0
  6  7  2  0
  7  8  1  0
  8  9  2  0
  9 10  1  0
 10 11  1  0
 11 12  1  0
 12 13  1  0
 13 14  1  0
 14 15  1  0
 15 16  1  0
 16 17  1  0
 17 18  1  0
 18 19  1  0
 19 20  1  0
 20 21  2  0
 21 22  1  0
 22 23  2  0
 23 24  1  0
 24 25  2  0
 25 26  1  0
 26 27  2  0
 27 28  1  0
 28 29  2  0
 29 30  1  0
 30 31  1  0
 30 32  2  0
 24 33  1  0
 33 34  1  0
 34 35  2  0
 35 36  1  0
 36 37  2  0
  9  4  1  0
 37 20  1  0
 36 23  1  0
 32 26  1  0
  1 38  1  0
  1 39  1  0
  1 40  1  0
  2 41  1  0
  2 42  1  0
  5 43  1  0
  6 44  1  0
  7 45  1  0
  8 46  1  0
 11 47  1  0
 11 48  1  0
 12 49  1  0
 12 50  1  0
 13 51  1  0
 14 52  1  0
 14 53  1  0
 15 54  1  0
 15 55  1  0
 16 56  1  0
 17 57  1  0
 17 58  1  0
 18 59  1  0
 18 60  1  0
 19 61  1  0
 21 62  1  0
 22 63  1  0
 27 64  1  0
 28 65  1  0
 29 66  1  0
 32 67  1  0
 33 68  1  0
 34 69  1  0
 37 70  1  0
M  END
>  <smiles>  (8) 
CCOc1ccccc1OCCNCCNCCNc1ccc2c(=Nc3cccc(Br)c3)[nH]cnc2c1

>  <score_type>  (8) 
oracle

>  <origin>  (8) 
adg

>  <m_score__min__energy>  (8) 
-10.23

>  <m_primary>  (8) 
energy

$$$$
8:0
     RDKit          3D

 61 64  0  0  0  0  0  0  0  0999 V2000
   62.7320   33.8430   46.3680 C   0  0  0  0  0  0  0  0  0  0  0  0
   63.7720   33.7450   47.4940 C   0  0  0  0  0  0  0  0  0  0  0  0
   63.4920   32.6820   48.4920 N   0  0  0  0  0  0  0  0  0  0  0  0
   63.2120   33.1970   49.8530 C   0  0  0  0  0  0  0  0  0  0  0  0
   62.5650   34.5810   49.8110 C   0  0  0  0  0  0  0  0  0  0  0  0
   62.4380   31.7490   48.0340 C   0  0  0  0  0  0  0  0  0  0  0  0
   61.5570   31.3250   49.2150 C   0  0  0  0  0  0  0  0  0  0  0  0
   60.1960   31.8490   49.0820 N   0  0  0  0  0  0  0  0  0  0  0  0
   59.4470   31.6770   47.8680 C   0  0  0  0  0  0  0  0  0  0  0  0
   59.3100   32.7630   46.9850 C   0  0  0  0  0  0  0  0  0  0  0  0
   59.6620   34.0710   47.3830 C   0  0  0  0  0  0  0  0  0  0  0  0
   59.5120   35.1460   46.5100 C   0  0  0  0  0  0  0  0  0  0  0  0
   59.0050   34.9400   45.2320 C   0  0  0  0  0  0  0  0  0  0  0  0
   58.6340   33.6590   44.8230 C   0  0  0  0  0  0  0  0  0  0  0  0
   58.7700   32.5470   45.6910 C   0  0  0  0  0  0  0  0  0  0  0  0
   58.3990   31.2780   45.3000 N   0  0  0  0  0  0  0  0  0  0  0  0
   57.4430   31.1330   44.1790 C   0  0  0  0  0  0  0  0  0  0  0  0
   58.7200   30.1880   46.0870 C   0  0  0  0  0  0  0  0  0  0  0  0
   58.7280   28.8540   45.5900 C   0  0  0  0  0  0  0  0  0  0  0  0
   58.7070   27.7890   46.5000 C   0  0  0  0  0  0  0  0  0  0  0  0
   58.7870   28.0260   47.8290 N   0  0  0  0  0  0  0  0  0  0  0  0
   58.9540   29.2720   48.3400 C   0  0  0  0  0  0  0  0  0  0  0  0
   58.9180   29.4000   49.8380 C   0  0  0  0  0  0  0  0  0  0  0  0
   59.0380   30.3870   47.4570 C   0  0  0  0  0  0  0  0  0  0  0  0
   58.6510   26.3760   45.9910 C   0  0  0  0  0  0  0  0  0  0  0  0
   57.7570   26.3000   44.7430 C   0  0  0  0  0  0  0  0  0  0  0  0
   58.1260   27.3430   43.6560 C   0  0  0  0  0  0  0  0  0  0  0  0
   59.0450   28.4750   44.1570 C   0  0  0  0  0  0  0  0  0  0  0  0
   61.7268   33.9377   46.8045 H   0  0  0  0  0  0  0  0  0  0  0  0
   62.9465   34.7249   45.7465 H   0  0  0  0  0  0  0  0  0  0  0  0
   62.7779   32.9365   45.7465 H   0  0  0  0  0  0  0  0  0  0  0  0
   64.7533   33.5420   47.0402 H   0  0  0  0  0  0  0  0  0  0  0  0
   63.7419   34.7020   48.0355 H   0  0  0  0  0  0  0  0  0  0  0  0
   62.5315   32.5006   50.3648 H   0  0  0  0  0  0  0  0  0  0  0  0
   64.1675   33.2811   50.3914 H   0  0  0  0  0  0  0  0  0  0  0  0
   62.3977   34.9389   50.8376 H   0  0  0  0  0  0  0  0  0  0  0  0
   63.2294   35.2805   49.2826 H   0  0  0  0  0  0  0  0  0  0  0  0
   61.6022   34.5198   49.2826 H   0  0  0  0  0  0  0  0  0  0  0  0
   61.8153   32.2477   47.2767 H   0  0  0  0  0  0  0  0  0  0  0  0
   62.9124   30.8559   47.6011 H   0  0  0  0  0  0  0  0  0  0  0  0
   61.5153   30.2265   49.2540 H   0  0  0  0  0  0  0  0  0  0  0  0
   61.9959   31.7322   50.1378 H   0  0  0  0  0  0  0  0  0  0  0  0
   59.8450   32.5220   49.7990 H   0  0  0  0  0  0  0  0  0  0  0  0
   60.0593   34.2432   48.3942 H   0  0  0  0  0  0  0  0  0  0  0  0
   59.7950   36.1590   46.8321 H   0  0  0  0  0  0  0  0  0  0  0  0
   58.8961   35.7894   44.5415 H   0  0  0  0  0  0  0  0  0  0  0  0
   58.2296   33.5096   43.8110 H   0  0  0  0  0  0  0  0  0  0  0  0
   56.4298   30.9793   44.5787 H   0  0  0  0  0  0  0  0  0  0  0  0
   57.4597   32.0440   43.5627 H   0  0  0  0  0  0  0  0  0  0  0  0
   57.7291   30.2680   43.5627 H   0  0  0  0  0  0  0  0  0  0  0  0
   59.1889   28.4368   50.2949 H   0  0  0  0  0  0  0  0  0  0  0  0
   59.6340   30.1716   50.1574 H   0  0  0  0  0  0  0  0  0  0  0  0
   57.9048   29.6853   50.1574 H   0  0  0  0  0  0  0  0  0  0  0  0
   59.6666   26.0419   45.7321 H   0  0  0  0  0  0  0  0  0  0  0  0
   58.2322   25.7271   46.7743 H   0  0  0  0  0  0  0  0  0  0  0  0
   57.8512   25.2943   44.3074 H   0  0  0  0  0  0  0  0  0  0  0  0
   56.7286   26.5185   45.0666 H   0  0  0  0  0  0  0  0  0  0  0  0
   58.6381   26.8200   42.8349 H   0  0  0  0  0  0  0  0  0  0  0  0
   57.1853   27.8155   43.3370 H   0  0  0  0  0  0  0  0  0  0  0  0
   60.0907   28.1386   44.0991 H   0  0  0  0  0  0  0  0  0  0  0  0
   58.8824   29.3584   43.5221 H   0  0  0  0  0  0  0  0  0  0  0  0
  1  2  1  0
  2  3  1  0
  3  4  1  0
  4  5  1  0
  3  6  1  0
  6  7  1  0
  7  8  1  0
  8  9  1  0
  9 10  2  0
 10 11  1  0
 11 12  2  0
 12 13  1  0
 13 14  2  0
 14 15  1  0
 15 16  2  0
 16 17  1  0
 16 18  1  0
 18 19  2  0
 19 20  1  0
 20 21  2  0
 21 22  1  0
 22 23  1  0
 22 24  2  0
 20 25  1  0
 25 26  1  0
 26 27  1  0
 27 28  1  0
 24  9  1  0
 15 10  1  0
 24 18  1  0
 28 19  1  0
  1 29  1  0
  1 30  1  0
  1 31  1  0
  2 32  1  0
  2 33  1  0
  4 34  1  0
  4 35  1  0
  5 36  1  0
  5 37  1  0
  5 38  1  0
  6 39  1  0
  6 40  1  0
  7 41  1  0
  7 42  1  0
  8 43  1  0
 11 44  1  0
 12 45  1  0
 13 46  1  0
 14 47  1  0
 17 48  1  0
 17 49  1  0
 17 50  1  0
 23 51  1  0
 23 52  1  0
 23 53  1  0
 25 54  1  0
 25 55  1  0
 26 56  1  0
 26 57  1  0
 27 58  1  0
 27 59  1  0
 28 60  1  0
 28 61  1  0
M  CHG  1  16   1
M  END
>  <UniqueID>  (9) 
8

>  <SMILES>  (9) 
CCN(CC)CCNc1c2ccccc2[n+](C)c2c3c(nc(C)c12)CCCC3

>  <Energy>  (9) 
112.17878755879094

>  <Genealogy>  (9) 
CCN(CC)CCNc1c2ccccc2[n+](C)c2c3c(nc(C)c12)CCCC3 (3D coordinates assigned)
CCN(CC)CCNc1c2ccccc2[n+](C)c2c3c(nc(C)c12)CCCC3 (nonaromatic ring conformer: 112.17878755879094 kcal/mol)

>  <smiles>  (9) 
CCN(CC)CCNc1c2ccccc2[n+](C)c2c3c(nc(C)c12)CCCC3

>  <score_type>  (9) 
oracle

>  <origin>  (9) 
adg

>  <m_score__min__energy>  (9) 
-6.8300000000000001

>  <m_primary>  (9) 
energy

$$$$
9:0
     RDKit          3D

 48 50  0  0  0  0  0  0  0  0999 V2000
   67.4010   33.2110   50.4930 C   0  0  0  0  0  0  0  0  0  0  0  0
   66.3390   32.1140   50.5480 C   0  0  0  0  0  0  0  0  0  0  0  0
   65.0110   32.6840   50.8230 N   0  0  0  0  0  0  0  0  0  0  0  0
   64.6390   32.9380   52.2210 C   0  0  0  0  0  0  0  0  0  0  0  0
   64.0680   32.9640   49.7550 C   0  0  0  0  0  0  0  0  0  0  0  0
   63.0820   33.9620   49.8960 C   0  0  0  0  0  0  0  0  0  0  0  0
   62.1800   34.2290   48.8640 C   0  0  0  0  0  0  0  0  0  0  0  0
   62.2430   33.5080   47.6630 C   0  0  0  0  0  0  0  0  0  0  0  0
   61.2590   33.7760   46.5540 C   0  0  0  0  0  0  0  0  0  0  0  0
   60.0440   34.4580   47.0580 N   0  0  0  0  0  0  0  0  0  0  0  0
   59.3900   35.3200   46.0480 C   0  0  0  0  0  0  0  0  0  0  0  0
   58.8020   34.4950   44.8950 C   0  0  0  0  0  0  0  0  0  0  0  0
   58.1520   33.2760   45.3950 N   0  0  0  0  0  0  0  0  0  0  0  0
   57.6390   32.3130   44.4500 C   0  0  0  0  0  0  0  0  0  0  0  0
   57.8520   32.4710   43.1140 N   0  0  0  0  0  0  0  0  0  0  0  0
   57.3760   31.5730   42.2120 C   0  0  0  0  0  0  0  0  0  0  0  0
   56.6540   30.4650   42.6510 C   0  0  0  0  0  0  0  0  0  0  0  0
   56.4410   30.3130   44.0190 C   0  0  0  0  0  0  0  0  0  0  0  0
   56.9340   31.2320   44.8880 N   0  0  0  0  0  0  0  0  0  0  0  0
   57.8580   33.1660   46.8300 C   0  0  0  0  0  0  0  0  0  0  0  0
   59.0960   33.5050   47.6900 C   0  0  0  0  0  0  0  0  0  0  0  0
   63.2180   32.5140   47.5110 C   0  0  0  0  0  0  0  0  0  0  0  0
   64.1230   32.2460   48.5430 C   0  0  0  0  0  0  0  0  0  0  0  0
   67.6818   33.5011   51.5162 H   0  0  0  0  0  0  0  0  0  0  0  0
   68.2882   32.8361   49.9616 H   0  0  0  0  0  0  0  0  0  0  0  0
   66.9976   34.0856   49.9616 H   0  0  0  0  0  0  0  0  0  0  0  0
   66.3128   31.5890   49.5817 H   0  0  0  0  0  0  0  0  0  0  0  0
   66.5965   31.4150   51.3574 H   0  0  0  0  0  0  0  0  0  0  0  0
   65.3613   32.4448   52.8881 H   0  0  0  0  0  0  0  0  0  0  0  0
   64.6450   34.0215   52.4110 H   0  0  0  0  0  0  0  0  0  0  0  0
   63.6321   32.5380   52.4110 H   0  0  0  0  0  0  0  0  0  0  0  0
   63.0225   34.5379   50.8313 H   0  0  0  0  0  0  0  0  0  0  0  0
   61.4157   35.0094   48.9939 H   0  0  0  0  0  0  0  0  0  0  0  0
   61.7388   34.4139   45.7971 H   0  0  0  0  0  0  0  0  0  0  0  0
   60.9578   32.8113   46.1198 H   0  0  0  0  0  0  0  0  0  0  0  0
   58.5797   35.8849   46.5320 H   0  0  0  0  0  0  0  0  0  0  0  0
   60.1491   35.9990   45.6324 H   0  0  0  0  0  0  0  0  0  0  0  0
   58.0592   35.1044   44.3594 H   0  0  0  0  0  0  0  0  0  0  0  0
   59.6209   34.2031   44.2210 H   0  0  0  0  0  0  0  0  0  0  0  0
   57.5602   31.7204   41.1376 H   0  0  0  0  0  0  0  0  0  0  0  0
   56.2618   29.7282   41.9345 H   0  0  0  0  0  0  0  0  0  0  0  0
   55.8737   29.4488   44.3950 H   0  0  0  0  0  0  0  0  0  0  0  0
   57.0456   33.8632   47.0828 H   0  0  0  0  0  0  0  0  0  0  0  0
   57.5639   32.1277   47.0431 H   0  0  0  0  0  0  0  0  0  0  0  0
   58.7470   33.9444   48.6361 H   0  0  0  0  0  0  0  0  0  0  0  0
   59.6467   32.5631   47.8299 H   0  0  0  0  0  0  0  0  0  0  0  0
   63.2722   31.9405   46.5739 H   0  0  0  0  0  0  0  0  0  0  0  0
   64.8866   31.4659   48.4075 H   0  0  0  0  0  0  0  0  0  0  0  0
  1  2  1  0
  2  3  1  0
  3  4  1  0
  3  5  1  0
  5  6  2  0
  6  7  1  0
  7  8  2  0
  8  9  1  0
  9 10  1  0
 10 11  1  0
 11 12  1  0
 12 13  1  0
 13 14  1  0
 14 15  2  0
 15 16  1  0
 16 17  2  0
 17 18  1  0
 18 19  2  0
 13 20  1  0
 20 21  1  0
  8 22  1  0
 22 23  2  0
 23  5  1  0
 21 10  1  0
 19 14  1  0
  1 24  1  0
  1 25  1  0
  1 26  1  0
  2 27  1  0
  2 28  1  0
  4 29  1  0
  4 30  1  0
  4 31  1  0
  6 32  1  0
  7 33  1  0
  9 34  1  0
  9 35  1  0
 11 36  1  0
 11 37  1  0
 12 38  1  0
 12 39  1  0
 16 40  1  0
 17 41  1  0
 18 42  1  0
 20 43  1  0
 20 44  1  0
 21 45  1  0
 21 46  1  0
 22 47  1  0
 23 48  1  0
M  END
>  <UniqueID>  (10) 
9

>  <SMILES>  (10) 
CCN(C)c1ccc(CN2CCN(c3ncccn3)CC2)cc1

>  <Energy>  (10) 
58.87014219533971

>  <Genealogy>  (10) 
CCN(C)c1ccc(CN2CCN(c3ncccn3)CC2)cc1 (3D coordinates assigned)
CCN(C)c1ccc(CN2CCN(c3ncccn3)CC2)cc1 (nonaromatic ring conformer: 58.87014219533971 kcal/mol)

>  <smiles>  (10) 
CCN(C)c1ccc(CN2CCN(c3ncccn3)CC2)cc1

>  <score_type>  (10) 
oracle

>  <origin>  (10) 
adg

>  <m_score__min__energy>  (10) 
-7.7800000000000002

>  <m_primary>  (10) 
energy

$$$$
10:0
     RDKit          3D

 45 47  0  0  0  0  0  0  0  0999 V2000
   55.0953   26.8165   46.9686 H   0  0  0  0  0  0  0  0  0  0  0  0
   55.8890   26.3260   46.3860 C   0  0  0  0  0  0  0  0  0  0  0  0
   56.0930   24.9960   46.3110 N   0  0  0  0  0  0  0  0  0  0  0  0
   57.1330   24.7960   45.5150 N   0  0  0  0  0  0  0  0  0  0  0  0
   57.7120   23.4860   45.2500 C   0  0  0  0  0  0  0  0  0  0  0  0
   57.9340   22.9837   46.2031 H   0  0  0  0  0  0  0  0  0  0  0  0
   56.9981   22.8794   44.6734 H   0  0  0  0  0  0  0  0  0  0  0  0
   58.6411   23.6056   44.6734 H   0  0  0  0  0  0  0  0  0  0  0  0
   57.6280   25.9740   45.0950 C   0  0  0  0  0  0  0  0  0  0  0  0
   58.5090   26.1127   44.4512 H   0  0  0  0  0  0  0  0  0  0  0  0
   56.8360   26.9780   45.6140 C   0  0  0  0  0  0  0  0  0  0  0  0
   57.0580   28.4390   45.5020 C   0  0  0  0  0  0  0  0  0  0  0  0
   56.1080   29.1890   44.8180 C   0  0  0  0  0  0  0  0  0  0  0  0
   55.1862   28.7064   44.4610 H   0  0  0  0  0  0  0  0  0  0  0  0
   56.3070   30.5050   44.5880 N   0  0  0  0  0  0  0  0  0  0  0  0
   57.3940   31.1960   45.0130 C   0  0  0  0  0  0  0  0  0  0  0  0
   57.4430   32.4440   44.6150 N   0  0  0  0  0  0  0  0  0  0  0  0
   57.0400   33.7320   45.1730 C   0  0  0  0  0  0  0  0  0  0  0  0
   56.0398   33.6323   45.6199 H   0  0  0  0  0  0  0  0  0  0  0  0
   57.0301   34.4752   44.3621 H   0  0  0  0  0  0  0  0  0  0  0  0
   58.0270   34.2030   46.2530 C   0  0  0  0  0  0  0  0  0  0  0  0
   58.1038   33.4297   47.0316 H   0  0  0  0  0  0  0  0  0  0  0  0
   57.6543   35.1456   46.6803 H   0  0  0  0  0  0  0  0  0  0  0  0
   59.4180   34.4540   45.6570 C   0  0  0  0  0  0  0  0  0  0  0  0
   59.3597   35.2847   44.9383 H   0  0  0  0  0  0  0  0  0  0  0  0
   59.7594   33.5390   45.1508 H   0  0  0  0  0  0  0  0  0  0  0  0
   60.3830   34.8000   46.7250 N   0  0  0  0  0  0  0  0  0  0  0  0
   61.6990   34.1910   46.4630 C   0  0  0  0  0  0  0  0  0  0  0  0
   62.1938   33.9620   47.4184 H   0  0  0  0  0  0  0  0  0  0  0  0
   61.5656   33.2631   45.8875 H   0  0  0  0  0  0  0  0  0  0  0  0
   62.3200   34.8933   45.8875 H   0  0  0  0  0  0  0  0  0  0  0  0
   59.8860   34.3410   48.0320 C   0  0  0  0  0  0  0  0  0  0  0  0
   60.4388   34.8515   48.8344 H   0  0  0  0  0  0  0  0  0  0  0  0
   58.8145   34.5740   48.1193 H   0  0  0  0  0  0  0  0  0  0  0  0
   60.0332   33.2544   48.1193 H   0  0  0  0  0  0  0  0  0  0  0  0
   58.3760   30.5050   45.8120 C   0  0  0  0  0  0  0  0  0  0  0  0
   59.4960   31.1220   46.4240 C   0  0  0  0  0  0  0  0  0  0  0  0
   59.6448   32.2050   46.3020 H   0  0  0  0  0  0  0  0  0  0  0  0
   60.4140   30.3900   47.1770 C   0  0  0  0  0  0  0  0  0  0  0  0
   61.9270   31.2660   47.9500 Br  0  0  0  0  0  0  0  0  0  0  0  0
   60.2240   29.0330   47.3850 C   0  0  0  0  0  0  0  0  0  0  0  0
   60.9493   28.4613   47.9826 H   0  0  0  0  0  0  0  0  0  0  0  0
   59.1180   28.3950   46.8390 C   0  0  0  0  0  0  0  0  0  0  0  0
   58.9608   27.3237   47.0330 H   0  0  0  0  0  0  0  0  0  0  0  0
   58.1910   29.1000   46.0380 C   0  0  0  0  0  0  0  0  0  0  0  0
  1  2  1  0
  2  3  2  0
  3  4  1  0
  4  5  1  0
  5  6  1  0
  5  7  1  0
  5  8  1  0
  4  9  1  0
  9 10  1  0
  9 11  2  0
 11 12  1  0
 12 13  2  0
 13 14  1  0
 13 15  1  0
 15 16  1  0
 16 17  2  0
 17 18  1  0
 18 19  1  0
 18 20  1  0
 18 21  1  0
 21 22  1  0
 21 23  1  0
 21 24  1  0
 24 25  1  0
 24 26  1  0
 24 27  1  0
 27 28  1  0
 28 29  1  0
 28 30  1  0
 28 31  1  0
 27 32  1  0
 32 33  1  0
 32 34  1  0
 32 35  1  0
 16 36  1  0
 36 37  2  0
 37 38  1  0
 37 39  1  0
 39 40  1  0
 39 41  2  0
 41 42  1  0
 41 43  1  0
 43 44  1  0
 43 45  2  0
 11  2  1  0
 45 12  1  0
 45 36  1  0
M  CHG  1  15  -1
M  END
>  <UniqueID>  (11) 
10

>  <SMILES>  (11) 
CN(C)CCC/N=c1/[n-]cc(-c2cnn(C)c2)c2ccc(Br)cc12

>  <Energy>  (11) 
102.11819355570827

>  <Genealogy>  (11) 
CN(C)CCCN=c1[n-]cc(-c2cnn(C)c2)c2ccc(Br)cc12 (protonated)
CN(C)CCC/N=c1/[n-]cc(-c2cnn(C)c2)c2ccc(Br)cc12 (cis-trans isomerization)
CN(C)CCC/N=c1/[n-]cc(-c2cnn(C)c2)c2ccc(Br)cc12 (3D coordinates assigned)
CN(C)CCC/N=c1/[n-]cc(-c2cnn(C)c2)c2ccc(Br)cc12 (optimized conformer: 102.11819355570827 kcal/mol)

>  <smiles>  (11) 
CN(C)CCCN=c1[nH]cc(-c2cnn(C)c2)c2ccc(Br)cc12

>  <score_type>  (11) 
oracle

>  <origin>  (11) 
adg

>  <m_score__min__energy>  (11) 
-8.8399999999999999

>  <m_primary>  (11) 
energy

$$$$
11:0
     RDKit          3D

 48 49  0  0  0  0  0  0  0  0999 V2000
   60.0840   30.4620   48.7350 C   0  0  0  0  0  0  0  0  0  0  0  0
   61.5390   30.8740   48.5410 C   0  0  0  0  0  0  0  0  0  0  0  0
   61.6890   31.5840   47.3260 O   0  0  0  0  0  0  0  0  0  0  0  0
   62.7920   32.4630   47.3970 C   0  0  0  0  0  0  0  0  0  0  0  0
   62.4290   33.7890   46.7330 C   0  0  0  0  0  0  0  0  0  0  0  0
   61.1580   33.7020   46.1130 O   0  0  0  0  0  0  0  0  0  0  0  0
   60.3720   34.8490   46.3790 C   0  0  0  0  0  0  0  0  0  0  0  0
   59.1450   34.4700   47.2090 C   0  0  0  0  0  0  0  0  0  0  0  0
   59.0180   33.0080   47.2800 N   0  0  0  0  0  0  0  0  0  0  0  0
   57.7960   32.5310   46.6170 C   0  0  0  0  0  0  0  0  0  0  0  0
   58.0550   32.0930   45.1960 C   0  0  0  0  0  0  0  0  0  0  0  0
   57.7300   32.8170   44.0630 C   0  0  0  0  0  0  0  0  0  0  0  0
   57.9250   32.0330   42.9860 N   0  0  0  0  0  0  0  0  0  0  0  0
   57.6000   32.3770   41.6080 C   0  0  0  0  0  0  0  0  0  0  0  0
   58.3230   30.8350   43.3800 N   0  0  0  0  0  0  0  0  0  0  0  0
   58.4270   30.8370   44.7250 C   0  0  0  0  0  0  0  0  0  0  0  0
   58.7740   29.6420   45.5200 C   0  0  0  0  0  0  0  0  0  0  0  0
   57.8290   29.0470   46.3710 C   0  0  0  0  0  0  0  0  0  0  0  0
   58.1680   27.9080   47.1100 C   0  0  0  0  0  0  0  0  0  0  0  0
   59.4510   27.3640   47.0100 C   0  0  0  0  0  0  0  0  0  0  0  0
   60.4020   27.9640   46.1800 C   0  0  0  0  0  0  0  0  0  0  0  0
   60.0680   29.1040   45.4410 C   0  0  0  0  0  0  0  0  0  0  0  0
   59.8610   30.3989   49.8103 H   0  0  0  0  0  0  0  0  0  0  0  0
   59.4259   31.2091   48.2673 H   0  0  0  0  0  0  0  0  0  0  0  0
   59.9153   29.4808   48.2673 H   0  0  0  0  0  0  0  0  0  0  0  0
   61.8491   31.5169   49.3780 H   0  0  0  0  0  0  0  0  0  0  0  0
   62.1660   29.9708   48.5082 H   0  0  0  0  0  0  0  0  0  0  0  0
   63.0528   32.6399   48.4509 H   0  0  0  0  0  0  0  0  0  0  0  0
   63.6518   32.0155   46.8769 H   0  0  0  0  0  0  0  0  0  0  0  0
   62.4063   34.5814   47.4956 H   0  0  0  0  0  0  0  0  0  0  0  0
   63.1833   34.0215   45.9669 H   0  0  0  0  0  0  0  0  0  0  0  0
   60.9751   35.5811   46.9361 H   0  0  0  0  0  0  0  0  0  0  0  0
   60.0387   35.2837   45.4251 H   0  0  0  0  0  0  0  0  0  0  0  0
   59.2534   34.8760   48.2256 H   0  0  0  0  0  0  0  0  0  0  0  0
   58.2450   34.8878   46.7342 H   0  0  0  0  0  0  0  0  0  0  0  0
   59.8520   32.5710   46.8210 H   0  0  0  0  0  0  0  0  0  0  0  0
   57.3950   31.6777   47.1837 H   0  0  0  0  0  0  0  0  0  0  0  0
   57.0784   33.3643   46.5892 H   0  0  0  0  0  0  0  0  0  0  0  0
   57.3727   33.8572   44.0450 H   0  0  0  0  0  0  0  0  0  0  0  0
   56.8446   33.1765   41.5981 H   0  0  0  0  0  0  0  0  0  0  0  0
   58.5079   32.7239   41.0928 H   0  0  0  0  0  0  0  0  0  0  0  0
   57.2022   31.4903   41.0928 H   0  0  0  0  0  0  0  0  0  0  0  0
   58.4990   30.0250   42.7440 H   0  0  0  0  0  0  0  0  0  0  0  0
   56.8202   29.4770   46.4570 H   0  0  0  0  0  0  0  0  0  0  0  0
   57.4232   27.4403   47.7707 H   0  0  0  0  0  0  0  0  0  0  0  0
   59.7127   26.4633   47.5846 H   0  0  0  0  0  0  0  0  0  0  0  0
   61.4142   27.5394   46.1077 H   0  0  0  0  0  0  0  0  0  0  0  0
   60.8215   29.5800   44.7963 H   0  0  0  0  0  0  0  0  0  0  0  0
  1  2  1  0
  2  3  1  0
  3  4  1  0
  4  5  1  0
  5  6  1  0
  6  7  1  0
  7  8  1  0
  8  9  1  0
  9 10  1  0
 10 11  1  0
 11 12  2  0
 12 13  1  0
 13 14  1  0
 13 15  1  0
 15 16  2  0
 16 17  1  0
 17 18  2  0
 18 19  1  0
 19 20  2  0
 20 21  1  0
 21 22  2  0
 16 11  1  0
 22 17  1  0
  1 23  1  0
  1 24  1  0
  1 25  1  0
  2 26  1  0
  2 27  1  0
  4 28  1  0
  4 29  1  0
  5 30  1  0
  5 31  1  0
  7 32  1  0
  7 33  1  0
  8 34  1  0
  8 35  1  0
  9 36  1  0
 10 37  1  0
 10 38  1  0
 12 39  1  0
 14 40  1  0
 14 41  1  0
 14 42  1  0
 15 43  1  0
 18 44  1  0
 19 45  1  0
 20 46  1  0
 21 47  1  0
 22 48  1  0
M  CHG  1  15   1
M  END
>  <UniqueID>  (12) 
11

>  <SMILES>  (12) 
CCOCCOCCNCc1cn(C)[nH+]c1-c1ccccc1

>  <Energy>  (12) 
78.48035688775869

>  <Genealogy>  (12) 
CCOCCOCCNCc1cn(C)[nH+]c1-c1ccccc1 (protonated)
CCOCCOCCNCc1cn(C)[nH+]c1-c1ccccc1 (3D coordinates assigned)
CCOCCOCCNCc1cn(C)[nH+]c1-c1ccccc1 (optimized conformer: 78.48035688775869 kcal/mol)

>  <smiles>  (12) 
CCOCCOCCNCc1cn(C)nc1-c1ccccc1

>  <score_type>  (12) 
oracle

>  <origin>  (12) 
adg

>  <m_score__min__energy>  (12) 
-4.3600000000000003

>  <m_primary>  (12) 
energy

$$$$
12:0
     RDKit          3D

 38 41  0  0  0  0  0  0  0  0999 V2000
   59.2410   34.9830   45.0160 C   0  0  0  0  0  0  0  0  0  0  0  0
   58.9080   33.5190   45.0780 C   0  0  0  0  0  0  0  0  0  0  0  0
   58.1430   32.9900   44.0870 N   0  0  0  0  0  0  0  0  0  0  0  0
   57.8010   31.6770   44.0530 C   0  0  0  0  0  0  0  0  0  0  0  0
   57.0050   31.1980   43.0060 C   0  0  0  0  0  0  0  0  0  0  0  0
   56.6340   29.8530   42.9680 C   0  0  0  0  0  0  0  0  0  0  0  0
   57.0500   28.9820   43.9760 C   0  0  0  0  0  0  0  0  0  0  0  0
   57.8470   29.4500   45.0250 C   0  0  0  0  0  0  0  0  0  0  0  0
   58.2420   30.8020   45.0710 C   0  0  0  0  0  0  0  0  0  0  0  0
   59.0420   31.3180   46.1150 C   0  0  0  0  0  0  0  0  0  0  0  0
   59.5170   30.4600   47.1650 N   0  0  0  0  0  0  0  0  0  0  0  0
   58.8960   30.1890   48.3290 C   0  0  0  0  0  0  0  0  0  0  0  0
   59.6630   29.2730   49.0180 C   0  0  0  0  0  0  0  0  0  0  0  0
   60.7480   28.9750   48.2780 N   0  0  0  0  0  0  0  0  0  0  0  0
   60.6340   29.7070   47.1540 C   0  0  0  0  0  0  0  0  0  0  0  0
   59.3700   32.6930   46.1260 C   0  0  0  0  0  0  0  0  0  0  0  0
   60.2200   33.2450   47.2060 C   0  0  0  0  0  0  0  0  0  0  0  0
   59.6390   33.7150   48.3940 C   0  0  0  0  0  0  0  0  0  0  0  0
   60.4460   34.2150   49.4210 C   0  0  0  0  0  0  0  0  0  0  0  0
   61.8350   34.2440   49.2680 C   0  0  0  0  0  0  0  0  0  0  0  0
   62.4200   33.7730   48.0890 C   0  0  0  0  0  0  0  0  0  0  0  0
   61.6160   33.2740   47.0600 C   0  0  0  0  0  0  0  0  0  0  0  0
   59.3317   35.3820   46.0371 H   0  0  0  0  0  0  0  0  0  0  0  0
   60.1933   35.1202   44.4828 H   0  0  0  0  0  0  0  0  0  0  0  0
   58.4417   35.5186   44.4828 H   0  0  0  0  0  0  0  0  0  0  0  0
   56.6714   31.8825   42.2121 H   0  0  0  0  0  0  0  0  0  0  0  0
   56.0122   29.4786   42.1415 H   0  0  0  0  0  0  0  0  0  0  0  0
   56.7499   27.9242   43.9451 H   0  0  0  0  0  0  0  0  0  0  0  0
   58.1675   28.7592   45.8188 H   0  0  0  0  0  0  0  0  0  0  0  0
   57.9442   30.6222   48.6702 H   0  0  0  0  0  0  0  0  0  0  0  0
   59.4275   28.8551   50.0079 H   0  0  0  0  0  0  0  0  0  0  0  0
   61.5130   28.3080   48.5210 H   0  0  0  0  0  0  0  0  0  0  0  0
   61.3620   29.6921   46.3295 H   0  0  0  0  0  0  0  0  0  0  0  0
   58.5463   33.6900   48.5176 H   0  0  0  0  0  0  0  0  0  0  0  0
   59.9874   34.5856   50.3496 H   0  0  0  0  0  0  0  0  0  0  0  0
   62.4686   34.6379   50.0763 H   0  0  0  0  0  0  0  0  0  0  0  0
   63.5134   33.7950   47.9709 H   0  0  0  0  0  0  0  0  0  0  0  0
   62.0784   32.9031   46.1334 H   0  0  0  0  0  0  0  0  0  0  0  0
  1  2  1  0
  2  3  2  0
  3  4  1  0
  4  5  2  0
  5  6  1  0
  6  7  2  0
  7  8  1  0
  8  9  2  0
  9 10  1  0
 10 11  1  0
 11 12  1  0
 12 13  2  0
 13 14  1  0
 14 15  2  0
 10 16  2  0
 16 17  1  0
 17 18  2  0
 18 19  1  0
 19 20  2  0
 20 21  1  0
 21 22  2  0
 16  2  1  0
 22 17  1  0
  9  4  1  0
 15 11  1  0
  1 23  1  0
  1 24  1  0
  1 25  1  0
  5 26  1  0
  6 27  1  0
  7 28  1  0
  8 29  1  0
 12 30  1  0
 13 31  1  0
 14 32  1  0
 15 33  1  0
 18 34  1  0
 19 35  1  0
 20 36  1  0
 21 37  1  0
 22 38  1  0
M  CHG  1  14   1
M  END
>  <UniqueID>  (13) 
12

>  <SMILES>  (13) 
Cc1nc2ccccc2c(-n2cc[nH+]c2)c1-c1ccccc1

>  <Energy>  (13) 
90.31246748437354

>  <Genealogy>  (13) 
Cc1nc2ccccc2c(-n2cc[nH+]c2)c1-c1ccccc1 (protonated)
Cc1nc2ccccc2c(-n2cc[nH+]c2)c1-c1ccccc1 (3D coordinates assigned)
Cc1nc2ccccc2c(-n2cc[nH+]c2)c1-c1ccccc1 (optimized conformer: 90.31246748437354 kcal/mol)

>  <smiles>  (13) 
Cc1nc2ccccc2c(-n2ccnc2)c1-c1ccccc1

>  <score_type>  (13) 
oracle

>  <origin>  (13) 
adg

>  <m_score__min__energy>  (13) 
-6.0599999999999996

>  <m_primary>  (13) 
energy

$$$$
13:0
     RDKit          3D

 60 62  0  0  0  0  0  0  0  0999 V2000
   64.8900   33.0740   49.4680 C   0  0  0  0  0  0  0  0  0  0  0  0
   63.8380   31.9660   49.4300 C   0  0  0  0  0  0  0  0  0  0  0  0
   62.7170   32.3310   48.5340 N   0  0  0  0  0  0  0  0  0  0  0  0
   63.1890   32.4440   47.1340 C   0  0  0  0  0  0  0  0  0  0  0  0
   63.0110   33.8670   46.6030 C   0  0  0  0  0  0  0  0  0  0  0  0
   62.0290   33.5680   48.9870 C   0  0  0  0  0  0  0  0  0  0  0  0
   60.8440   33.1940   49.8790 C   0  0  0  0  0  0  0  0  0  0  0  0
   59.9540   32.3410   49.1840 O   0  0  0  0  0  0  0  0  0  0  0  0
   59.8250   31.0890   49.8340 C   0  0  0  0  0  0  0  0  0  0  0  0
   59.9660   29.9500   48.8150 C   0  0  0  0  0  0  0  0  0  0  0  0
   60.6030   30.3900   47.5580 N   0  0  0  0  0  0  0  0  0  0  0  0
   59.6580   30.4300   46.4470 C   0  0  0  0  0  0  0  0  0  0  0  0
   59.2290   29.2170   45.8350 C   0  0  0  0  0  0  0  0  0  0  0  0
   59.6870   27.9500   46.2830 C   0  0  0  0  0  0  0  0  0  0  0  0
   59.3220   26.7770   45.6270 C   0  0  0  0  0  0  0  0  0  0  0  0
   58.5030   26.8310   44.5100 C   0  0  0  0  0  0  0  0  0  0  0  0
   58.0100   28.0530   44.0660 C   0  0  0  0  0  0  0  0  0  0  0  0
   58.3210   29.2630   44.7400 C   0  0  0  0  0  0  0  0  0  0  0  0
   57.7680   30.4620   44.3440 N   0  0  0  0  0  0  0  0  0  0  0  0
   56.5920   30.4680   43.4420 C   0  0  0  0  0  0  0  0  0  0  0  0
   58.2790   31.6530   44.8160 C   0  0  0  0  0  0  0  0  0  0  0  0
   57.9290   32.8860   44.2110 C   0  0  0  0  0  0  0  0  0  0  0  0
   58.3650   34.0980   44.7300 C   0  0  0  0  0  0  0  0  0  0  0  0
   59.1580   34.1260   45.8720 C   0  0  0  0  0  0  0  0  0  0  0  0
   59.6320   35.4380   46.4300 C   0  0  0  0  0  0  0  0  0  0  0  0
   59.5820   32.9230   46.4440 C   0  0  0  0  0  0  0  0  0  0  0  0
   59.1840   31.6660   45.9160 C   0  0  0  0  0  0  0  0  0  0  0  0
   65.1246   33.3211   50.5139 H   0  0  0  0  0  0  0  0  0  0  0  0
   65.8026   32.7308   48.9587 H   0  0  0  0  0  0  0  0  0  0  0  0
   64.4999   33.9676   48.9587 H   0  0  0  0  0  0  0  0  0  0  0  0
   64.3042   31.0393   49.0641 H   0  0  0  0  0  0  0  0  0  0  0  0
   63.4426   31.8223   50.4464 H   0  0  0  0  0  0  0  0  0  0  0  0
   64.2551   32.1763   47.0922 H   0  0  0  0  0  0  0  0  0  0  0  0
   62.5928   31.7623   46.5096 H   0  0  0  0  0  0  0  0  0  0  0  0
   62.9236   34.5655   47.4482 H   0  0  0  0  0  0  0  0  0  0  0  0
   63.8819   34.1410   45.9894 H   0  0  0  0  0  0  0  0  0  0  0  0
   62.0995   33.9181   45.9894 H   0  0  0  0  0  0  0  0  0  0  0  0
   62.7337   34.1923   49.5559 H   0  0  0  0  0  0  0  0  0  0  0  0
   61.6673   34.1281   48.1121 H   0  0  0  0  0  0  0  0  0  0  0  0
   61.2147   32.6774   50.7766 H   0  0  0  0  0  0  0  0  0  0  0  0
   60.3089   34.1115   50.1652 H   0  0  0  0  0  0  0  0  0  0  0  0
   60.6103   30.9930   50.5983 H   0  0  0  0  0  0  0  0  0  0  0  0
   58.8337   31.0288   50.3071 H   0  0  0  0  0  0  0  0  0  0  0  0
   60.5788   29.1524   49.2604 H   0  0  0  0  0  0  0  0  0  0  0  0
   58.9543   29.5945   48.5698 H   0  0  0  0  0  0  0  0  0  0  0  0
   61.1110   31.2860   47.7080 H   0  0  0  0  0  0  0  0  0  0  0  0
   61.3910   29.7450   47.3290 H   0  0  0  0  0  0  0  0  0  0  0  0
   60.3424   27.8938   47.1647 H   0  0  0  0  0  0  0  0  0  0  0  0
   59.6842   25.8061   45.9959 H   0  0  0  0  0  0  0  0  0  0  0  0
   58.2428   25.9062   43.9743 H   0  0  0  0  0  0  0  0  0  0  0  0
   57.3661   28.0827   43.1746 H   0  0  0  0  0  0  0  0  0  0  0  0
   55.6699   30.4727   44.0418 H   0  0  0  0  0  0  0  0  0  0  0  0
   56.6212   31.3660   42.8074 H   0  0  0  0  0  0  0  0  0  0  0  0
   56.6121   29.5697   42.8074 H   0  0  0  0  0  0  0  0  0  0  0  0
   57.2978   32.8828   43.3101 H   0  0  0  0  0  0  0  0  0  0  0  0
   58.0821   35.0392   44.2360 H   0  0  0  0  0  0  0  0  0  0  0  0
   59.6168   35.3959   47.5291 H   0  0  0  0  0  0  0  0  0  0  0  0
   60.6578   35.6341   46.0847 H   0  0  0  0  0  0  0  0  0  0  0  0
   58.9684   36.2445   46.0847 H   0  0  0  0  0  0  0  0  0  0  0  0
   60.2402   32.9506   47.3249 H   0  0  0  0  0  0  0  0  0  0  0  0
  1  2  1  0
  2  3  1  0
  3  4  1  0
  4  5  1  0
  3  6  1  0
  6  7  1  0
  7  8  1  0
  8  9  1  0
  9 10  1  0
 10 11  1  0
 11 12  1  0
 12 13  2  0
 13 14  1  0
 14 15  2  0
 15 16  1  0
 16 17  2  0
 17 18  1  0
 18 19  2  0
 19 20  1  0
 19 21  1  0
 21 22  2  0
 22 23  1  0
 23 24  2  0
 24 25  1  0
 24 26  1  0
 26 27  2  0
 27 12  1  0
 18 13  1  0
 27 21  1  0
  1 28  1  0
  1 29  1  0
  1 30  1  0
  2 31  1  0
  2 32  1  0
  4 33  1  0
  4 34  1  0
  5 35  1  0
  5 36  1  0
  5 37  1  0
  6 38  1  0
  6 39  1  0
  7 40  1  0
  7 41  1  0
  9 42  1  0
  9 43  1  0
 10 44  1  0
 10 45  1  0
 11 46  1  0
 11 47  1  0
 14 48  1  0
 15 49  1  0
 16 50  1  0
 17 51  1  0
 20 52  1  0
 20 53  1  0
 20 54  1  0
 22 55  1  0
 23 56  1  0
 25 57  1  0
 25 58  1  0
 25 59  1  0
 26 60  1  0
M  CHG  2  11   1  19   1
M  END
>  <UniqueID>  (14) 
13

>  <SMILES>  (14) 
CCN(CC)CCOCC[NH2+]c1c2ccccc2[n+](C)c2ccc(C)cc12

>  <Energy>  (14) 
90.19858189227205

>  <Genealogy>  (14) 
CCN(CC)CCOCC[NH2+]c1c2ccccc2[n+](C)c2ccc(C)cc12 (protonated)
CCN(CC)CCOCC[NH2+]c1c2ccccc2[n+](C)c2ccc(C)cc12 (3D coordinates assigned)
CCN(CC)CCOCC[NH2+]c1c2ccccc2[n+](C)c2ccc(C)cc12 (optimized conformer: 90.19858189227205 kcal/mol)

>  <smiles>  (14) 
CCN(CC)CCOCCNc1c2ccccc2[n+](C)c2ccc(C)cc12

>  <score_type>  (14) 
oracle

>  <origin>  (14) 
adg

>  <m_score__min__energy>  (14) 
-3.9399999999999999

>  <m_primary>  (14) 
energy

$$$$
14:0
     RDKit          3D

 56 59  0  0  0  0  0  0  0  0999 V2000
   57.5460   25.9550   45.6950 C   0  0  0  0  0  0  0  0  0  0  0  0
   57.4200   27.0170   46.7830 C   0  0  0  0  0  0  0  0  0  0  0  0
   58.1100   28.2600   46.4000 N   0  0  0  0  0  0  0  0  0  0  0  0
   59.3320   28.7440   46.7810 C   0  0  0  0  0  0  0  0  0  0  0  0
   60.2900   28.0700   47.7410 C   0  0  0  0  0  0  0  0  0  0  0  0
   60.7090   28.9150   48.8910 N   0  0  0  0  0  0  0  0  0  0  0  0
   59.6100   29.1950   49.8400 C   0  0  0  0  0  0  0  0  0  0  0  0
   58.7160   30.3880   49.4290 C   0  0  0  0  0  0  0  0  0  0  0  0
   59.4130   31.3990   48.5980 N   0  0  0  0  0  0  0  0  0  0  0  0
   58.7880   32.7350   48.7320 C   0  0  0  0  0  0  0  0  0  0  0  0
   58.6350   33.3840   47.3760 C   0  0  0  0  0  0  0  0  0  0  0  0
   57.3830   33.3460   46.7390 C   0  0  0  0  0  0  0  0  0  0  0  0
   57.2060   33.9390   45.4890 C   0  0  0  0  0  0  0  0  0  0  0  0
   58.2620   34.6100   44.8770 C   0  0  0  0  0  0  0  0  0  0  0  0
   59.5090   34.6710   45.5030 C   0  0  0  0  0  0  0  0  0  0  0  0
   59.7130   34.0500   46.7520 C   0  0  0  0  0  0  0  0  0  0  0  0
   60.9640   34.0740   47.3880 O   0  0  0  0  0  0  0  0  0  0  0  0
   62.2010   33.7720   46.7510 C   0  0  0  0  0  0  0  0  0  0  0  0
   60.8460   31.4440   48.9130 C   0  0  0  0  0  0  0  0  0  0  0  0
   61.5050   30.1170   48.5060 C   0  0  0  0  0  0  0  0  0  0  0  0
   59.6870   29.8720   46.1110 N   0  0  0  0  0  0  0  0  0  0  0  0
   58.6420   30.0990   45.3010 C   0  0  0  0  0  0  0  0  0  0  0  0
   58.5140   31.1070   44.3490 C   0  0  0  0  0  0  0  0  0  0  0  0
   57.3480   31.1190   43.5600 C   0  0  0  0  0  0  0  0  0  0  0  0
   56.3520   30.1350   43.7430 C   0  0  0  0  0  0  0  0  0  0  0  0
   56.5200   29.1220   44.7050 C   0  0  0  0  0  0  0  0  0  0  0  0
   57.6900   29.1390   45.4710 C   0  0  0  0  0  0  0  0  0  0  0  0
   57.6634   24.9653   46.1605 H   0  0  0  0  0  0  0  0  0  0  0  0
   56.6408   25.9612   45.0700 H   0  0  0  0  0  0  0  0  0  0  0  0
   58.4246   26.1728   45.0700 H   0  0  0  0  0  0  0  0  0  0  0  0
   56.3547   27.2351   46.9491 H   0  0  0  0  0  0  0  0  0  0  0  0
   57.8859   26.6301   47.7013 H   0  0  0  0  0  0  0  0  0  0  0  0
   59.8007   27.1683   48.1378 H   0  0  0  0  0  0  0  0  0  0  0  0
   61.2022   27.8482   47.1677 H   0  0  0  0  0  0  0  0  0  0  0  0
   61.3710   28.3010   49.4250 H   0  0  0  0  0  0  0  0  0  0  0  0
   58.9781   28.2976   49.9127 H   0  0  0  0  0  0  0  0  0  0  0  0
   60.0769   29.4616   50.7996 H   0  0  0  0  0  0  0  0  0  0  0  0
   57.8602   29.9995   48.8575 H   0  0  0  0  0  0  0  0  0  0  0  0
   58.4082   30.8925   50.3567 H   0  0  0  0  0  0  0  0  0  0  0  0
   57.7964   32.6263   49.1956 H   0  0  0  0  0  0  0  0  0  0  0  0
   59.4318   33.3685   49.3599 H   0  0  0  0  0  0  0  0  0  0  0  0
   56.5359   32.8447   47.2300 H   0  0  0  0  0  0  0  0  0  0  0  0
   56.2301   33.8766   44.9853 H   0  0  0  0  0  0  0  0  0  0  0  0
   58.1137   35.0924   43.8996 H   0  0  0  0  0  0  0  0  0  0  0  0
   60.3379   35.2074   45.0180 H   0  0  0  0  0  0  0  0  0  0  0  0
   62.9703   33.5842   47.5145 H   0  0  0  0  0  0  0  0  0  0  0  0
   62.0812   32.8767   46.1232 H   0  0  0  0  0  0  0  0  0  0  0  0
   62.5072   34.6218   46.1232 H   0  0  0  0  0  0  0  0  0  0  0  0
   61.3164   32.2709   48.3608 H   0  0  0  0  0  0  0  0  0  0  0  0
   60.9778   31.6010   49.9937 H   0  0  0  0  0  0  0  0  0  0  0  0
   61.6351   30.1134   47.4137 H   0  0  0  0  0  0  0  0  0  0  0  0
   62.4645   30.0547   49.0404 H   0  0  0  0  0  0  0  0  0  0  0  0
   59.2973   31.8681   44.2178 H   0  0  0  0  0  0  0  0  0  0  0  0
   57.2122   31.8993   42.7967 H   0  0  0  0  0  0  0  0  0  0  0  0
   55.4392   30.1605   43.1297 H   0  0  0  0  0  0  0  0  0  0  0  0
   55.7569   28.3430   44.8497 H   0  0  0  0  0  0  0  0  0  0  0  0
  1  2  1  0
  2  3  1  0
  3  4  1  0
  4  5  1  0
  5  6  1  0
  6  7  1  0
  7  8  1  0
  8  9  1  0
  9 10  1  0
 10 11  1  0
 11 12  2  0
 12 13  1  0
 13 14  2  0
 14 15  1  0
 15 16  2  0
 16 17  1  0
 17 18  1  0
  9 19  1  0
 19 20  1  0
  4 21  2  0
 21 22  1  0
 22 23  2  0
 23 24  1  0
 24 25  2  0
 25 26  1  0
 26 27  2  0
 27  3  1  0
 20  6  1  0
 27 22  1  0
 16 11  1  0
  1 28  1  0
  1 29  1  0
  1 30  1  0
  2 31  1  0
  2 32  1  0
  5 33  1  0
  5 34  1  0
  6 35  1  0
  7 36  1  0
  7 37  1  0
  8 38  1  0
  8 39  1  0
 10 40  1  0
 10 41  1  0
 12 42  1  0
 13 43  1  0
 14 44  1  0
 15 45  1  0
 18 46  1  0
 18 47  1  0
 18 48  1  0
 19 49  1  0
 19 50  1  0
 20 51  1  0
 20 52  1  0
 23 53  1  0
 24 54  1  0
 25 55  1  0
 26 56  1  0
M  CHG  1   6   1
M  END
>  <UniqueID>  (15) 
14

>  <SMILES>  (15) 
CCn1c(C[NH+]2CCN(Cc3ccccc3OC)CC2)nc2ccccc21

>  <Energy>  (15) 
106.4252928636668

>  <Genealogy>  (15) 
CCn1c(C[NH+]2CCN(Cc3ccccc3OC)CC2)nc2ccccc21 (protonated)
CCn1c(C[NH+]2CCN(Cc3ccccc3OC)CC2)nc2ccccc21 (3D coordinates assigned)
CCn1c(C[NH+]2CCN(Cc3ccccc3OC)CC2)nc2ccccc21 (nonaromatic ring conformer: 106.4252928636668 kcal/mol)

>  <smiles>  (15) 
CCn1c(CN2CCN(Cc3ccccc3OC)CC2)nc2ccccc21

>  <score_type>  (15) 
oracle

>  <origin>  (15) 
adg

>  <m_score__min__energy>  (15) 
-6.8799999999999999

>  <m_primary>  (15) 
energy

$$$$
15:0
     RDKit          3D

 69 72  0  0  0  0  0  0  0  0999 V2000
   63.4320   33.5190   46.7360 C   0  0  0  0  0  0  0  0  0  0  0  0
   62.9170   32.2360   47.3890 C   0  0  0  0  0  0  0  0  0  0  0  0
   62.6070   32.4560   48.8210 N   0  0  0  0  0  0  0  0  0  0  0  0
   62.1710   33.8490   49.0680 C   0  0  0  0  0  0  0  0  0  0  0  0
   62.9280   34.4590   50.2470 C   0  0  0  0  0  0  0  0  0  0  0  0
   63.7470   32.0780   49.7000 C   0  0  0  0  0  0  0  0  0  0  0  0
   63.3870   30.8360   50.5230 C   0  0  0  0  0  0  0  0  0  0  0  0
   62.0370   30.8800   50.9420 O   0  0  0  0  0  0  0  0  0  0  0  0
   61.8800   31.6460   52.1230 C   0  0  0  0  0  0  0  0  0  0  0  0
   60.4020   31.8810   52.4210 C   0  0  0  0  0  0  0  0  0  0  0  0
   59.6280   31.2760   51.4010 O   0  0  0  0  0  0  0  0  0  0  0  0
   58.5540   32.1010   50.9950 C   0  0  0  0  0  0  0  0  0  0  0  0
   58.6270   32.3620   49.4860 C   0  0  0  0  0  0  0  0  0  0  0  0
   59.8030   31.7300   48.8920 N   0  0  0  0  0  0  0  0  0  0  0  0
   59.6760   30.8150   47.7920 C   0  0  0  0  0  0  0  0  0  0  0  0
   59.8690   29.4430   48.0300 C   0  0  0  0  0  0  0  0  0  0  0  0
   60.4960   28.9950   49.2130 C   0  0  0  0  0  0  0  0  0  0  0  0
   60.7320   27.6380   49.4210 C   0  0  0  0  0  0  0  0  0  0  0  0
   60.3610   26.7110   48.4540 C   0  0  0  0  0  0  0  0  0  0  0  0
   59.7170   27.1320   47.2920 C   0  0  0  0  0  0  0  0  0  0  0  0
   59.4170   28.5030   47.0760 C   0  0  0  0  0  0  0  0  0  0  0  0
   58.6770   28.9270   45.9920 N   0  0  0  0  0  0  0  0  0  0  0  0
   57.8830   27.9430   45.2190 C   0  0  0  0  0  0  0  0  0  0  0  0
   58.6540   30.2700   45.6490 C   0  0  0  0  0  0  0  0  0  0  0  0
   58.0660   30.7020   44.4370 C   0  0  0  0  0  0  0  0  0  0  0  0
   57.9720   32.0470   44.1160 C   0  0  0  0  0  0  0  0  0  0  0  0
   58.5710   33.0110   44.9190 C   0  0  0  0  0  0  0  0  0  0  0  0
   58.5250   34.3580   44.5240 C   0  0  0  0  0  0  0  0  0  0  0  0
   59.2270   35.3250   45.2360 C   0  0  0  0  0  0  0  0  0  0  0  0
   60.0100   34.9510   46.3230 C   0  0  0  0  0  0  0  0  0  0  0  0
   60.0570   33.6160   46.7320 C   0  0  0  0  0  0  0  0  0  0  0  0
   59.2730   32.6230   46.0920 C   0  0  0  0  0  0  0  0  0  0  0  0
   59.2250   31.2510   46.5200 C   0  0  0  0  0  0  0  0  0  0  0  0
   63.7205   34.2377   47.5172 H   0  0  0  0  0  0  0  0  0  0  0  0
   64.3065   33.2866   46.1105 H   0  0  0  0  0  0  0  0  0  0  0  0
   62.6395   33.9557   46.1105 H   0  0  0  0  0  0  0  0  0  0  0  0
   62.0041   31.9094   46.8695 H   0  0  0  0  0  0  0  0  0  0  0  0
   63.6994   31.4665   47.3142 H   0  0  0  0  0  0  0  0  0  0  0  0
   62.3625   34.4509   48.1674 H   0  0  0  0  0  0  0  0  0  0  0  0
   61.0972   33.8430   49.3064 H   0  0  0  0  0  0  0  0  0  0  0  0
   62.4866   34.1033   51.1897 H   0  0  0  0  0  0  0  0  0  0  0  0
   63.9847   34.1570   50.2000 H   0  0  0  0  0  0  0  0  0  0  0  0
   62.8576   35.5557   50.2000 H   0  0  0  0  0  0  0  0  0  0  0  0
   64.6287   31.8604   49.0793 H   0  0  0  0  0  0  0  0  0  0  0  0
   63.9673   32.9116   50.3831 H   0  0  0  0  0  0  0  0  0  0  0  0
   63.5434   29.9383   49.9068 H   0  0  0  0  0  0  0  0  0  0  0  0
   64.0302   30.8078   51.4149 H   0  0  0  0  0  0  0  0  0  0  0  0
   62.3372   31.1074   52.9662 H   0  0  0  0  0  0  0  0  0  0  0  0
   62.3713   32.6199   51.9808 H   0  0  0  0  0  0  0  0  0  0  0  0
   60.1456   31.4349   53.3932 H   0  0  0  0  0  0  0  0  0  0  0  0
   60.1953   32.9608   52.4557 H   0  0  0  0  0  0  0  0  0  0  0  0
   57.6028   31.6017   51.2317 H   0  0  0  0  0  0  0  0  0  0  0  0
   58.6176   33.0609   51.5285 H   0  0  0  0  0  0  0  0  0  0  0  0
   57.7230   31.9562   49.0084 H   0  0  0  0  0  0  0  0  0  0  0  0
   58.6993   33.4478   49.3255 H   0  0  0  0  0  0  0  0  0  0  0  0
   60.6690   31.6770   49.4760 H   0  0  0  0  0  0  0  0  0  0  0  0
   60.8010   29.7245   49.9777 H   0  0  0  0  0  0  0  0  0  0  0  0
   61.2122   27.2998   50.3511 H   0  0  0  0  0  0  0  0  0  0  0  0
   60.5761   25.6430   48.6062 H   0  0  0  0  0  0  0  0  0  0  0  0
   59.4365   26.3902   46.5298 H   0  0  0  0  0  0  0  0  0  0  0  0
   57.3469   27.2786   45.9126 H   0  0  0  0  0  0  0  0  0  0  0  0
   57.1574   28.4740   44.5853 H   0  0  0  0  0  0  0  0  0  0  0  0
   58.5554   27.3460   44.5853 H   0  0  0  0  0  0  0  0  0  0  0  0
   57.6743   29.9530   43.7330 H   0  0  0  0  0  0  0  0  0  0  0  0
   57.4180   32.3548   43.2170 H   0  0  0  0  0  0  0  0  0  0  0  0
   57.9301   34.6501   43.6461 H   0  0  0  0  0  0  0  0  0  0  0  0
   59.1631   36.3826   44.9402 H   0  0  0  0  0  0  0  0  0  0  0  0
   60.5950   35.7099   46.8632 H   0  0  0  0  0  0  0  0  0  0  0  0
   60.7145   33.3299   47.5661 H   0  0  0  0  0  0  0  0  0  0  0  0
  1  2  1  0
  2  3  1  0
  3  4  1  0
  4  5  1  0
  3  6  1  0
  6  7  1  0
  7  8  1  0
  8  9  1  0
  9 10  1  0
 10 11  1  0
 11 12  1  0
 12 13  1  0
 13 14  1  0
 14 15  1  0
 15 16  2  0
 16 17  1  0
 17 18  2  0
 18 19  1  0
 19 20  2  0
 20 21  1  0
 21 22  2  0
 22 23  1  0
 22 24  1  0
 24 25  2  0
 25 26  1  0
 26 27  2  0
 27 28  1  0
 28 29  2  0
 29 30  1  0
 30 31  2  0
 31 32  1  0
 32 33  2  0
 33 15  1  0
 21 16  1  0
 33 24  1  0
 32 27  1  0
  1 34  1  0
  1 35  1  0
  1 36  1  0
  2 37  1  0
  2 38  1  0
  4 39  1  0
  4 40  1  0
  5 41  1  0
  5 42  1  0
  5 43  1  0
  6 44  1  0
  6 45  1  0
  7 46  1  0
  7 47  1  0
  9 48  1  0
  9 49  1  0
 10 50  1  0
 10 51  1  0
 12 52  1  0
 12 53  1  0
 13 54  1  0
 13 55  1  0
 14 56  1  0
 17 57  1  0
 18 58  1  0
 19 59  1  0
 20 60  1  0
 23 61  1  0
 23 62  1  0
 23 63  1  0
 25 64  1  0
 26 65  1  0
 28 66  1  0
 29 67  1  0
 30 68  1  0
 31 69  1  0
M  CHG  1  22   1
M  END
>  <UniqueID>  (16) 
15

>  <SMILES>  (16) 
CCN(CC)CCOCCOCCNc1c2ccccc2[n+](C)c2ccc3ccccc3c12

>  <Energy>  (16) 
116.73105269782056

>  <Genealogy>  (16) 
CCN(CC)CCOCCOCCNc1c2ccccc2[n+](C)c2ccc3ccccc3c12 (3D coordinates assigned)
CCN(CC)CCOCCOCCNc1c2ccccc2[n+](C)c2ccc3ccccc3c12 (optimized conformer: 116.73105269782056 kcal/mol)

>  <smiles>  (16) 
CCN(CC)CCOCCOCCNc1c2ccccc2[n+](C)c2ccc3ccccc3c12

>  <score_type>  (16) 
oracle

>  <origin>  (16) 
adg

>  <m_score__min__energy>  (16) 
-6.8499999999999996

>  <m_primary>  (16) 
energy

$$$$
16:0
     RDKit          3D

 37 39  0  0  0  0  0  0  0  0999 V2000
   60.0180   36.2960   45.6280 C   0  0  0  0  0  0  0  0  0  0  0  0
   59.2940   35.1470   44.9320 C   0  0  0  0  0  0  0  0  0  0  0  0
   59.1200   34.0040   45.8500 N   0  0  0  0  0  0  0  0  0  0  0  0
   59.5450   34.1730   47.1420 C   0  0  0  0  0  0  0  0  0  0  0  0
   59.4320   33.1540   48.0830 C   0  0  0  0  0  0  0  0  0  0  0  0
   60.0610   33.4500   49.8680 Br  0  0  0  0  0  0  0  0  0  0  0  0
   58.8650   31.9350   47.7160 C   0  0  0  0  0  0  0  0  0  0  0  0
   58.7710   31.0110   48.5690 O   0  0  0  0  0  0  0  0  0  0  0  0
   58.4010   31.7510   46.4020 C   0  0  0  0  0  0  0  0  0  0  0  0
   57.8120   30.5330   46.0100 C   0  0  0  0  0  0  0  0  0  0  0  0
   57.3320   30.3550   44.7080 C   0  0  0  0  0  0  0  0  0  0  0  0
   56.7250   29.0340   44.2970 C   0  0  0  0  0  0  0  0  0  0  0  0
   57.5000   28.3790   43.2310 N   0  0  0  0  0  0  0  0  0  0  0  0
   58.5030   27.4590   43.7960 C   0  0  0  0  0  0  0  0  0  0  0  0
   58.5480   27.4050   45.3170 C   0  0  0  0  0  0  0  0  0  0  0  0
   59.6280   28.1540   44.5490 C   0  0  0  0  0  0  0  0  0  0  0  0
   57.4460   31.4000   43.7870 C   0  0  0  0  0  0  0  0  0  0  0  0
   58.0290   32.6120   44.1550 C   0  0  0  0  0  0  0  0  0  0  0  0
   58.5270   32.8150   45.4640 C   0  0  0  0  0  0  0  0  0  0  0  0
   59.9398   36.1719   46.7182 H   0  0  0  0  0  0  0  0  0  0  0  0
   61.0779   36.2934   45.3338 H   0  0  0  0  0  0  0  0  0  0  0  0
   59.5582   37.2510   45.3338 H   0  0  0  0  0  0  0  0  0  0  0  0
   58.3054   35.4940   44.5968 H   0  0  0  0  0  0  0  0  0  0  0  0
   59.8969   34.8198   44.0721 H   0  0  0  0  0  0  0  0  0  0  0  0
   59.9852   35.1355   47.4418 H   0  0  0  0  0  0  0  0  0  0  0  0
   57.7284   29.7115   46.7367 H   0  0  0  0  0  0  0  0  0  0  0  0
   56.6940   28.3695   45.1731 H   0  0  0  0  0  0  0  0  0  0  0  0
   55.7140   29.2302   43.9105 H   0  0  0  0  0  0  0  0  0  0  0  0
   56.8580   27.8320   42.6100 H   0  0  0  0  0  0  0  0  0  0  0  0
   57.9450   29.1260   42.6470 H   0  0  0  0  0  0  0  0  0  0  0  0
   58.4395   26.7062   42.9965 H   0  0  0  0  0  0  0  0  0  0  0  0
   57.8074   27.9623   45.9094 H   0  0  0  0  0  0  0  0  0  0  0  0
   58.5428   26.6007   46.0674 H   0  0  0  0  0  0  0  0  0  0  0  0
   59.6680   29.2526   44.5866 H   0  0  0  0  0  0  0  0  0  0  0  0
   60.7268   28.1151   44.5148 H   0  0  0  0  0  0  0  0  0  0  0  0
   57.0720   31.2650   42.7614 H   0  0  0  0  0  0  0  0  0  0  0  0
   58.1030   33.4234   43.4160 H   0  0  0  0  0  0  0  0  0  0  0  0
  1  2  1  0
  2  3  1  0
  3  4  1  0
  4  5  2  0
  5  6  1  0
  5  7  1  0
  7  8  2  0
  7  9  1  0
  9 10  2  0
 10 11  1  0
 11 12  1  0
 12 13  1  0
 13 14  1  0
 14 15  1  0
 15 16  1  0
 11 17  2  0
 17 18  1  0
 18 19  2  0
 19  3  1  0
 19  9  1  0
 16 14  1  0
  1 20  1  0
  1 21  1  0
  1 22  1  0
  2 23  1  0
  2 24  1  0
  4 25  1  0
 10 26  1  0
 12 27  1  0
 12 28  1  0
 13 29  1  0
 13 30  1  0
 14 31  1  0
 15 32  1  0
 15 33  1  0
 16 34  1  0
 16 35  1  0
 17 36  1  0
 18 37  1  0
M  CHG  1  13   1
M  END
>  <UniqueID>  (17) 
16

>  <SMILES>  (17) 
CCn1cc(Br)c(=O)c2cc(C[NH2+]C3CC3)ccc21

>  <Energy>  (17) 
310.3127261838202

>  <Genealogy>  (17) 
CCn1cc(Br)c(=O)c2cc(C[NH2+]C3CC3)ccc21 (protonated)
CCn1cc(Br)c(=O)c2cc(C[NH2+]C3CC3)ccc21 (3D coordinates assigned)
CCn1cc(Br)c(=O)c2cc(C[NH2+]C3CC3)ccc21 (nonaromatic ring conformer: 310.3127261838202 kcal/mol)

>  <smiles>  (17) 
CCn1cc(Br)c(=O)c2cc(CNC3CC3)ccc21

>  <score_type>  (17) 
oracle

>  <origin>  (17) 
adg

>  <m_score__min__energy>  (17) 
-5.3899999999999997

>  <m_primary>  (17) 
energy

$$$$
17:0
     RDKit          3D

 20 20  0  0  0  0  0  0  0  0999 V2000
   57.6850   32.2010   41.6300 C   0  0  0  0  0  0  0  0  0  0  0  0
   57.1120   31.1960   42.2970 C   0  0  0  0  0  0  0  0  0  0  0  0
   57.0520   31.1810   43.7990 C   0  0  0  0  0  0  0  0  0  0  0  0
   57.6000   29.9210   44.3250 N   0  0  0  0  0  0  0  0  0  0  0  0
   58.9280   29.7320   44.3130 N   0  0  0  0  0  0  0  0  0  0  0  0
   59.4970   28.6000   44.8010 C   0  0  0  0  0  0  0  0  0  0  0  0
   58.6970   27.5970   45.3400 C   0  0  0  0  0  0  0  0  0  0  0  0
   59.4570   26.1380   45.9680 Cl  0  0  0  0  0  0  0  0  0  0  0  0
   57.3100   27.7790   45.3710 C   0  0  0  0  0  0  0  0  0  0  0  0
   56.4470   26.7630   45.9290 C   0  0  0  0  0  0  0  0  0  0  0  0
   55.7560   25.9490   46.3750 N   0  0  0  0  0  0  0  0  0  0  0  0
   56.7690   28.9660   44.8550 C   0  0  0  0  0  0  0  0  0  0  0  0
   55.5190   29.1520   44.8840 O   0  0  0  0  0  0  0  0  0  0  0  0
   57.7144   32.1854   40.5305 H   0  0  0  0  0  0  0  0  0  0  0  0
   58.1277   33.0445   42.1801 H   0  0  0  0  0  0  0  0  0  0  0  0
   56.6734   30.3590   41.7339 H   0  0  0  0  0  0  0  0  0  0  0  0
   57.6394   32.0234   44.1930 H   0  0  0  0  0  0  0  0  0  0  0  0
   56.0017   31.2704   44.1136 H   0  0  0  0  0  0  0  0  0  0  0  0
   59.5610   30.4670   43.9220 H   0  0  0  0  0  0  0  0  0  0  0  0
   60.5895   28.4758   44.7703 H   0  0  0  0  0  0  0  0  0  0  0  0
  1  2  2  0
  2  3  1  0
  3  4  1  0
  4  5  1  0
  5  6  2  0
  6  7  1  0
  7  8  1  0
  7  9  2  0
  9 10  1  0
 10 11  3  0
  9 12  1  0
 12 13  2  0
 12  4  1  0
  1 14  1  0
  1 15  1  0
  2 16  1  0
  3 17  1  0
  3 18  1  0
  5 19  1  0
  6 20  1  0
M  CHG  1   5   1
M  END
>  <UniqueID>  (18) 
17

>  <SMILES>  (18) 
C=CCn1[nH+]cc(Cl)c(C#N)c1=O

>  <Energy>  (18) 
18.073180271011637

>  <Genealogy>  (18) 
C=CCn1[nH+]cc(Cl)c(C#N)c1=O (protonated)
C=CCn1[nH+]cc(Cl)c(C#N)c1=O (3D coordinates assigned)
C=CCn1[nH+]cc(Cl)c(C#N)c1=O (optimized conformer: 18.073180271011637 kcal/mol)

>  <smiles>  (18) 
C=CCn1ncc(Cl)c(C#N)c1=O

>  <score_type>  (18) 
oracle

>  <origin>  (18) 
adg

>  <m_score__min__energy>  (18) 
-4.0700000000000003

>  <m_primary>  (18) 
energy

$$$$
18:0
     RDKit          3D

 45 47  0  0  0  0  0  0  0  0999 V2000
   56.8050   27.9180   45.2380 C   0  0  0  0  0  0  0  0  0  0  0  0
   57.0700   29.3340   44.8540 C   0  0  0  0  0  0  0  0  0  0  0  0
   57.1550   29.8180   43.5650 C   0  0  0  0  0  0  0  0  0  0  0  0
   57.4820   31.1500   43.7210 C   0  0  0  0  0  0  0  0  0  0  0  0
   57.7630   32.0830   42.5810 C   0  0  0  0  0  0  0  0  0  0  0  0
   57.6140   31.4160   45.0460 N   0  0  0  0  0  0  0  0  0  0  0  0
   57.9640   32.6790   45.7140 C   0  0  2  0  0  0  0  0  0  0  0  0
   57.6990   33.9050   44.8000 C   0  0  0  0  0  0  0  0  0  0  0  0
   58.8050   34.9700   44.8780 C   0  0  0  0  0  0  0  0  0  0  0  0
   59.2790   35.1890   46.3200 C   0  0  0  0  0  0  0  0  0  0  0  0
   59.6860   33.9240   46.9530 N   0  0  0  0  0  0  0  0  0  0  0  0
   60.3050   33.9630   48.2540 C   0  0  0  0  0  0  0  0  0  0  0  0
   59.6080   34.2610   49.2620 O   0  0  0  0  0  0  0  0  0  0  0  0
   61.7450   33.6660   48.4380 C   0  0  0  0  0  0  0  0  0  0  0  0
   62.5430   33.3540   47.3280 C   0  0  0  0  0  0  0  0  0  0  0  0
   63.9000   33.0910   47.5080 C   0  0  0  0  0  0  0  0  0  0  0  0
   64.4510   33.1260   48.7890 C   0  0  0  0  0  0  0  0  0  0  0  0
   63.6250   33.4050   49.8860 C   0  0  0  0  0  0  0  0  0  0  0  0
   64.2100   33.4690   51.2660 C   0  0  0  0  0  0  0  0  0  0  0  0
   62.3010   33.6740   49.6870 N   0  0  0  0  0  0  0  0  0  0  0  0
   59.3900   32.6430   46.2940 C   0  0  0  0  0  0  0  0  0  0  0  0
   57.3630   30.3110   45.7330 N   0  0  0  0  0  0  0  0  0  0  0  0
   56.7890   27.8323   46.3345 H   0  0  0  0  0  0  0  0  0  0  0  0
   55.8324   27.6037   44.8314 H   0  0  0  0  0  0  0  0  0  0  0  0
   57.5981   27.2733   44.8314 H   0  0  0  0  0  0  0  0  0  0  0  0
   56.9978   29.2674   42.6258 H   0  0  0  0  0  0  0  0  0  0  0  0
   58.0591   33.0660   42.9761 H   0  0  0  0  0  0  0  0  0  0  0  0
   58.5780   31.6747   41.9654 H   0  0  0  0  0  0  0  0  0  0  0  0
   56.8580   32.1927   41.9654 H   0  0  0  0  0  0  0  0  0  0  0  0
   57.2934   32.7983   46.5777 H   0  0  0  0  0  0  0  0  0  0  0  0
   57.6232   33.5555   43.7598 H   0  0  0  0  0  0  0  0  0  0  0  0
   56.7674   34.3757   45.1471 H   0  0  0  0  0  0  0  0  0  0  0  0
   59.6594   34.6424   44.2675 H   0  0  0  0  0  0  0  0  0  0  0  0
   58.3947   35.9194   44.5034 H   0  0  0  0  0  0  0  0  0  0  0  0
   60.1369   35.8774   46.3134 H   0  0  0  0  0  0  0  0  0  0  0  0
   58.4428   35.6101   46.8975 H   0  0  0  0  0  0  0  0  0  0  0  0
   62.1009   33.3170   46.3214 H   0  0  0  0  0  0  0  0  0  0  0  0
   64.5353   32.8562   46.6413 H   0  0  0  0  0  0  0  0  0  0  0  0
   65.5244   32.9363   48.9367 H   0  0  0  0  0  0  0  0  0  0  0  0
   63.4047   33.3809   52.0101 H   0  0  0  0  0  0  0  0  0  0  0  0
   64.9248   32.6437   51.3999 H   0  0  0  0  0  0  0  0  0  0  0  0
   64.7295   34.4293   51.3999 H   0  0  0  0  0  0  0  0  0  0  0  0
   61.6970   33.8660   50.5170 H   0  0  0  0  0  0  0  0  0  0  0  0
   60.1118   32.4738   45.4813 H   0  0  0  0  0  0  0  0  0  0  0  0
   59.4656   31.8278   47.0286 H   0  0  0  0  0  0  0  0  0  0  0  0
  1  2  1  0
  2  3  1  0
  3  4  2  0
  4  5  1  0
  4  6  1  0
  6  7  1  0
  7  8  1  0
  8  9  1  0
  9 10  1  0
 10 11  1  0
 11 12  1  0
 12 13  2  0
 12 14  1  0
 14 15  2  0
 15 16  1  0
 16 17  2  0
 17 18  1  0
 18 19  1  0
 18 20  2  0
 11 21  1  0
  6 22  1  0
 22  2  2  0
 21  7  1  0
 20 14  1  0
  1 23  1  0
  1 24  1  0
  1 25  1  0
  3 26  1  0
  5 27  1  0
  5 28  1  0
  5 29  1  0
  7 30  1  1
  8 31  1  0
  8 32  1  0
  9 33  1  0
  9 34  1  0
 10 35  1  0
 10 36  1  0
 15 37  1  0
 16 38  1  0
 17 39  1  0
 19 40  1  0
 19 41  1  0
 19 42  1  0
 20 43  1  0
 21 44  1  0
 21 45  1  0
M  CHG  1  20   1
M  END
>  <UniqueID>  (19) 
18

>  <SMILES>  (19) 
Cc1cc(C)n([C@@H]2CCCN(C(=O)c3cccc(C)[nH+]3)C2)n1

>  <Energy>  (19) 
79.94350140164786

>  <Genealogy>  (19) 
Cc1cc(C)n(C2CCCN(C(=O)c3cccc(C)[nH+]3)C2)n1 (protonated)
Cc1cc(C)n([C@@H]2CCCN(C(=O)c3cccc(C)[nH+]3)C2)n1 (chirality)
Cc1cc(C)n([C@@H]2CCCN(C(=O)c3cccc(C)[nH+]3)C2)n1 (3D coordinates assigned)
Cc1cc(C)n([C@@H]2CCCN(C(=O)c3cccc(C)[nH+]3)C2)n1 (nonaromatic ring conformer: 79.94350140164786 kcal/mol)

>  <smiles>  (19) 
Cc1cccc(C(=O)N2CCCC(n3nc(C)cc3C)C2)n1

>  <score_type>  (19) 
oracle

>  <origin>  (19) 
adg

>  <m_score__min__energy>  (19) 
-6.9100000000000001

>  <m_primary>  (19) 
energy

$$$$
19:0
     RDKit          3D

 67 71  0  0  0  0  0  0  0  0999 V2000
   58.1480   26.9520   43.8340 C   0  0  0  0  0  0  0  0  0  0  0  0
   58.0060   27.6340   45.1310 N   0  0  0  0  0  0  0  0  0  0  0  0
   56.6480   28.1980   45.2450 C   0  0  0  0  0  0  0  0  0  0  0  0
   58.2980   26.6930   46.2390 C   0  0  0  0  0  0  0  0  0  0  0  0
   59.4960   27.1570   47.0970 C   0  0  0  0  0  0  0  0  0  0  0  0
   60.1560   28.3870   46.6110 N   0  0  0  0  0  0  0  0  0  0  0  0
   59.9200   29.5380   47.4610 C   0  0  0  0  0  0  0  0  0  0  0  0
   60.3380   29.5390   48.8290 C   0  0  0  0  0  0  0  0  0  0  0  0
   61.0610   28.4580   49.3920 C   0  0  0  0  0  0  0  0  0  0  0  0
   61.4480   28.4690   50.7300 C   0  0  0  0  0  0  0  0  0  0  0  0
   61.1470   29.5550   51.5380 C   0  0  0  0  0  0  0  0  0  0  0  0
   60.4520   30.6420   51.0170 C   0  0  0  0  0  0  0  0  0  0  0  0
   60.0150   30.6540   49.6690 C   0  0  0  0  0  0  0  0  0  0  0  0
   59.3040   31.7240   49.1670 N   0  0  0  0  0  0  0  0  0  0  0  0
   58.5660   32.6250   50.0720 C   0  0  0  0  0  0  0  0  0  0  0  0
   59.1240   31.8150   47.8100 C   0  0  0  0  0  0  0  0  0  0  0  0
   59.3070   30.7220   46.9740 C   0  0  0  0  0  0  0  0  0  0  0  0
   58.8180   31.1330   45.7230 C   0  0  0  0  0  0  0  0  0  0  0  0
   58.6200   30.4800   44.4900 C   0  0  0  0  0  0  0  0  0  0  0  0
   58.0840   31.2050   43.4170 C   0  0  0  0  0  0  0  0  0  0  0  0
   57.7340   32.5540   43.5700 C   0  0  0  0  0  0  0  0  0  0  0  0
   57.9130   33.1940   44.8000 C   0  0  0  0  0  0  0  0  0  0  0  0
   58.4630   32.4650   45.8670 C   0  0  0  0  0  0  0  0  0  0  0  0
   58.6910   32.9120   47.1240 N   0  0  0  0  0  0  0  0  0  0  0  0
   58.8740   34.3320   47.4930 C   0  0  0  0  0  0  0  0  0  0  0  0
   60.0440   34.9850   46.7290 C   0  0  0  0  0  0  0  0  0  0  0  0
   61.1380   33.9990   46.2780 C   0  0  0  0  0  0  0  0  0  0  0  0
   62.0170   33.5110   47.4060 C   0  0  0  0  0  0  0  0  0  0  0  0
   61.9030   34.0580   48.6970 C   0  0  0  0  0  0  0  0  0  0  0  0
   62.7090   33.5850   49.7370 C   0  0  0  0  0  0  0  0  0  0  0  0
   63.6220   32.5540   49.5040 C   0  0  0  0  0  0  0  0  0  0  0  0
   63.7230   31.9840   48.2320 C   0  0  0  0  0  0  0  0  0  0  0  0
   62.9170   32.4510   47.1890 C   0  0  0  0  0  0  0  0  0  0  0  0
   58.3696   25.8877   44.0017 H   0  0  0  0  0  0  0  0  0  0  0  0
   57.2110   27.0463   43.2656 H   0  0  0  0  0  0  0  0  0  0  0  0
   58.9695   27.4125   43.2656 H   0  0  0  0  0  0  0  0  0  0  0  0
   56.3844   28.3075   46.3073 H   0  0  0  0  0  0  0  0  0  0  0  0
   56.6179   29.1830   44.7563 H   0  0  0  0  0  0  0  0  0  0  0  0
   55.9289   27.5241   44.7563 H   0  0  0  0  0  0  0  0  0  0  0  0
   57.4093   26.6169   46.8828 H   0  0  0  0  0  0  0  0  0  0  0  0
   58.5559   25.7194   45.7966 H   0  0  0  0  0  0  0  0  0  0  0  0
   59.1356   27.3413   48.1198 H   0  0  0  0  0  0  0  0  0  0  0  0
   60.2481   26.3560   47.0447 H   0  0  0  0  0  0  0  0  0  0  0  0
   59.9030   28.5710   45.6260 H   0  0  0  0  0  0  0  0  0  0  0  0
   61.1830   28.2150   46.5440 H   0  0  0  0  0  0  0  0  0  0  0  0
   61.3211   27.5951   48.7613 H   0  0  0  0  0  0  0  0  0  0  0  0
   61.9955   27.6114   51.1480 H   0  0  0  0  0  0  0  0  0  0  0  0
   61.4583   29.5572   52.5930 H   0  0  0  0  0  0  0  0  0  0  0  0
   60.2381   31.5067   51.6624 H   0  0  0  0  0  0  0  0  0  0  0  0
   58.7858   32.3567   51.1159 H   0  0  0  0  0  0  0  0  0  0  0  0
   58.8757   33.6642   49.8875 H   0  0  0  0  0  0  0  0  0  0  0  0
   57.4861   32.5260   49.8875 H   0  0  0  0  0  0  0  0  0  0  0  0
   58.8819   29.4182   44.3716 H   0  0  0  0  0  0  0  0  0  0  0  0
   57.9365   30.7108   42.4454 H   0  0  0  0  0  0  0  0  0  0  0  0
   57.3167   33.1114   42.7184 H   0  0  0  0  0  0  0  0  0  0  0  0
   57.6284   34.2486   44.9296 H   0  0  0  0  0  0  0  0  0  0  0  0
   57.9491   34.8805   47.2612 H   0  0  0  0  0  0  0  0  0  0  0  0
   59.1056   34.3752   48.5675 H   0  0  0  0  0  0  0  0  0  0  0  0
   59.6374   35.4804   45.8350 H   0  0  0  0  0  0  0  0  0  0  0  0
   60.5225   35.6871   47.4277 H   0  0  0  0  0  0  0  0  0  0  0  0
   60.6513   33.1279   45.8150 H   0  0  0  0  0  0  0  0  0  0  0  0
   61.7880   34.5393   45.5740 H   0  0  0  0  0  0  0  0  0  0  0  0
   61.1766   34.8614   48.8892 H   0  0  0  0  0  0  0  0  0  0  0  0
   62.6238   34.0259   50.7412 H   0  0  0  0  0  0  0  0  0  0  0  0
   64.2616   32.1906   50.3218 H   0  0  0  0  0  0  0  0  0  0  0  0
   64.4372   31.1672   48.0510 H   0  0  0  0  0  0  0  0  0  0  0  0
   62.9868   31.9875   46.1939 H   0  0  0  0  0  0  0  0  0  0  0  0
  1  2  1  0
  2  3  1  0
  2  4  1  0
  4  5  1  0
  5  6  1  0
  6  7  1  0
  7  8  2  0
  8  9  1  0
  9 10  2  0
 10 11  1  0
 11 12  2  0
 12 13  1  0
 13 14  2  0
 14 15  1  0
 14 16  1  0
 16 17  2  0
 17 18  1  0
 18 19  2  0
 19 20  1  0
 20 21  2  0
 21 22  1  0
 22 23  2  0
 23 24  1  0
 24 25  1  0
 25 26  1  0
 26 27  1  0
 27 28  1  0
 28 29  2  0
 29 30  1  0
 30 31  2  0
 31 32  1  0
 32 33  2  0
 17  7  1  0
 23 18  1  0
 33 28  1  0
 13  8  1  0
 24 16  1  0
  1 34  1  0
  1 35  1  0
  1 36  1  0
  3 37  1  0
  3 38  1  0
  3 39  1  0
  4 40  1  0
  4 41  1  0
  5 42  1  0
  5 43  1  0
  6 44  1  0
  6 45  1  0
  9 46  1  0
 10 47  1  0
 11 48  1  0
 12 49  1  0
 15 50  1  0
 15 51  1  0
 15 52  1  0
 19 53  1  0
 20 54  1  0
 21 55  1  0
 22 56  1  0
 25 57  1  0
 25 58  1  0
 26 59  1  0
 26 60  1  0
 27 61  1  0
 27 62  1  0
 29 63  1  0
 30 64  1  0
 31 65  1  0
 32 66  1  0
 33 67  1  0
M  CHG  2   6   1  14   1
M  END
>  <UniqueID>  (20) 
19

>  <SMILES>  (20) 
CN(C)CC[NH2+]c1c2ccccc2[n+](C)c2c1c1ccccc1n2CCCc1ccccc1

>  <Energy>  (20) 
140.05594351715786

>  <Genealogy>  (20) 
CN(C)CC[NH2+]c1c2ccccc2[n+](C)c2c1c1ccccc1n2CCCc1ccccc1 (protonated)
CN(C)CC[NH2+]c1c2ccccc2[n+](C)c2c1c1ccccc1n2CCCc1ccccc1 (3D coordinates assigned)
CN(C)CC[NH2+]c1c2ccccc2[n+](C)c2c1c1ccccc1n2CCCc1ccccc1 (optimized conformer: 140.05594351715786 kcal/mol)

>  <smiles>  (20) 
CN(C)CCNc1c2ccccc2[n+](C)c2c1c1ccccc1n2CCCc1ccccc1

>  <score_type>  (20) 
oracle

>  <origin>  (20) 
adg

>  <m_score__min__energy>  (20) 
-5.0700000000000003

>  <m_primary>  (20) 
energy

$$$$
20:0
     RDKit          3D

 72 78  0  0  0  0  0  0  0  0999 V2000
   55.5440   29.7140   46.0150 H   0  0  0  0  0  0  0  0  0  0  0  0
   56.0860   29.5580   45.1370 N   0  0  0  0  0  0  0  0  0  0  0  0
   57.2660   29.0170   45.1280 C   0  0  0  0  0  0  0  0  0  0  0  0
   58.4240   29.8370   44.9050 N   0  0  0  0  0  0  0  0  0  0  0  0
   59.3340   29.3770   44.6750 H   0  0  0  0  0  0  0  0  0  0  0  0
   58.4130   31.2920   45.0630 C   0  0  0  0  0  0  0  0  0  0  0  0
   59.1318   31.7369   44.3591 H   0  0  0  0  0  0  0  0  0  0  0  0
   57.3977   31.6619   44.8573 H   0  0  0  0  0  0  0  0  0  0  0  0
   58.8040   31.6900   46.5080 C   0  0  1  0  0  0  0  0  0  0  0  0
   58.1298   31.1241   47.1677 H   0  0  0  0  0  0  0  0  0  0  0  0
   60.2720   31.2810   46.8360 C   0  0  0  0  0  0  0  0  0  0  0  0
   60.2625   30.4274   47.5298 H   0  0  0  0  0  0  0  0  0  0  0  0
   60.7801   31.0065   45.8998 H   0  0  0  0  0  0  0  0  0  0  0  0
   61.0430   32.4700   47.4960 C   0  0  1  0  0  0  0  0  0  0  0  0
   61.0940   33.5670   46.3940 C   0  0  0  0  0  0  0  0  0  0  0  0
   61.6854   34.4206   46.7569 H   0  0  0  0  0  0  0  0  0  0  0  0
   61.5591   33.1485   45.4893 H   0  0  0  0  0  0  0  0  0  0  0  0
   59.6510   34.0470   46.0520 C   0  0  0  0  0  0  0  0  0  0  0  0
   59.5509   35.1055   46.3342 H   0  0  0  0  0  0  0  0  0  0  0  0
   59.4906   33.9105   44.9723 H   0  0  0  0  0  0  0  0  0  0  0  0
   58.5600   33.2070   46.8220 C   0  0  1  0  0  0  0  0  0  0  0  0
   57.2080   33.5070   46.4730 O   0  0  0  0  0  0  0  0  0  0  0  0
   57.0620   34.1860   45.2420 C   0  0  0  0  0  0  0  0  0  0  0  0
   56.8342   35.2452   45.4323 H   0  0  0  0  0  0  0  0  0  0  0  0
   57.9971   34.1094   44.6678 H   0  0  0  0  0  0  0  0  0  0  0  0
   56.2410   33.7318   44.6678 H   0  0  0  0  0  0  0  0  0  0  0  0
   58.7960   33.4280   48.3550 C   0  0  1  0  0  0  0  0  0  0  0  0
   58.5656   34.4875   48.5406 H   0  0  0  0  0  0  0  0  0  0  0  0
   57.9680   32.5920   49.1800 O   0  0  0  0  0  0  0  0  0  0  0  0
   58.7520   31.7200   49.9200 C   0  0  0  0  0  0  0  0  0  0  0  0
   58.3180   30.6470   50.6950 C   0  0  0  0  0  0  0  0  0  0  0  0
   56.9700   30.4680   50.9750 O   0  0  0  0  0  0  0  0  0  0  0  0
   59.2810   29.7240   51.1510 C   0  0  0  0  0  0  0  0  0  0  0  0
   58.9828   28.9073   51.8248 H   0  0  0  0  0  0  0  0  0  0  0  0
   60.6290   29.8460   50.7440 C   0  0  0  0  0  0  0  0  0  0  0  0
   61.3659   29.0888   51.0500 H   0  0  0  0  0  0  0  0  0  0  0  0
   61.0300   30.9360   49.9470 C   0  0  0  0  0  0  0  0  0  0  0  0
   60.0780   31.9250   49.6820 C   0  0  0  0  0  0  0  0  0  0  0  0
   60.2640   33.0330   48.7200 C   0  0  1  0  0  0  0  0  0  0  0  0
   61.0170   34.2080   49.4030 C   0  0  0  0  0  0  0  0  0  0  0  0
   60.9882   35.0806   48.7339 H   0  0  0  0  0  0  0  0  0  0  0  0
   60.5151   34.4123   50.3603 H   0  0  0  0  0  0  0  0  0  0  0  0
   62.4850   33.8730   49.7110 C   0  0  0  0  0  0  0  0  0  0  0  0
   63.0196   34.8017   49.9595 H   0  0  0  0  0  0  0  0  0  0  0  0
   62.5100   33.1703   50.5569 H   0  0  0  0  0  0  0  0  0  0  0  0
   63.1460   33.2320   48.5530 N   0  0  0  0  0  0  0  0  0  0  0  0
   64.6230   33.1080   48.6350 C   0  0  0  0  0  0  0  0  0  0  0  0
   64.9166   32.1703   48.1405 H   0  0  0  0  0  0  0  0  0  0  0  0
   65.0386   34.0017   48.1466 H   0  0  0  0  0  0  0  0  0  0  0  0
   65.1880   33.0920   50.0730 C   0  0  0  0  0  0  0  0  0  0  0  0
   64.5652   33.9186   50.4458 H   0  0  0  0  0  0  0  0  0  0  0  0
   66.6580   32.7230   50.2130 C   0  0  0  0  0  0  0  0  0  0  0  0
   67.2768   32.5794   49.3149 H   0  0  0  0  0  0  0  0  0  0  0  0
   67.5216   33.1560   50.7391 H   0  0  0  0  0  0  0  0  0  0  0  0
   65.5840   31.7070   50.5660 C   0  0  0  0  0  0  0  0  0  0  0  0
   65.4256   30.8284   49.9233 H   0  0  0  0  0  0  0  0  0  0  0  0
   65.3487   31.1007   51.4531 H   0  0  0  0  0  0  0  0  0  0  0  0
   62.4400   32.0300   48.0400 C   0  0  1  0  0  0  0  0  0  0  0  0
   63.0228   31.5842   47.2205 H   0  0  0  0  0  0  0  0  0  0  0  0
   62.3220   30.9030   49.1410 C   0  0  0  0  0  0  0  0  0  0  0  0
   62.3890   29.9259   48.6402 H   0  0  0  0  0  0  0  0  0  0  0  0
   63.1395   31.0789   49.8556 H   0  0  0  0  0  0  0  0  0  0  0  0
   57.4480   27.5400   45.4080 C   0  0  0  0  0  0  0  0  0  0  0  0
   56.4498   27.0949   45.5324 H   0  0  0  0  0  0  0  0  0  0  0  0
   58.2130   27.3040   46.7150 C   0  0  0  0  0  0  0  0  0  0  0  0
   57.5509   27.5082   47.5694 H   0  0  0  0  0  0  0  0  0  0  0  0
   58.5538   26.2590   46.7568 H   0  0  0  0  0  0  0  0  0  0  0  0
   59.0833   27.9754   46.7568 H   0  0  0  0  0  0  0  0  0  0  0  0
   58.1350   26.8460   44.2260 C   0  0  0  0  0  0  0  0  0  0  0  0
   58.8618   26.1118   44.6039 H   0  0  0  0  0  0  0  0  0  0  0  0
   57.3798   26.3323   43.6131 H   0  0  0  0  0  0  0  0  0  0  0  0
   58.6564   27.5960   43.6131 H   0  0  0  0  0  0  0  0  0  0  0  0
  1  2  1  0
  2  3  2  0
  3  4  1  0
  4  5  1  0
  4  6  1  0
  6  7  1  0
  6  8  1  0
  6  9  1  0
  9 10  1  1
  9 11  1  0
 11 12  1  0
 11 13  1  0
 14 11  1  0
 14 15  1  6
 15 16  1  0
 15 17  1  0
 15 18  1  0
 18 19  1  0
 18 20  1  0
 18 21  1  0
 21 22  1  6
 22 23  1  0
 23 24  1  0
 23 25  1  0
 23 26  1  0
 21 27  1  0
 27 28  1  1
 27 29  1  0
 29 30  1  0
 30 31  2  0
 31 32  1  0
 31 33  1  0
 33 34  1  0
 33 35  2  0
 35 36  1  0
 35 37  1  0
 37 38  2  0
 38 39  1  0
 39 40  1  1
 40 41  1  0
 40 42  1  0
 40 43  1  0
 43 44  1  0
 43 45  1  0
 43 46  1  0
 46 47  1  0
 47 48  1  0
 47 49  1  0
 47 50  1  0
 50 51  1  0
 50 52  1  0
 52 53  1  0
 52 54  1  0
 52 55  1  0
 55 56  1  0
 55 57  1  0
 46 58  1  0
 58 59  1  6
 58 60  1  0
 60 61  1  0
 60 62  1  0
  3 63  1  0
 63 64  1  0
 63 65  1  0
 65 66  1  0
 65 67  1  0
 65 68  1  0
 63 69  1  0
 69 70  1  0
 69 71  1  0
 69 72  1  0
 21  9  1  0
 39 27  1  0
 55 50  1  0
 39 14  1  0
 58 14  1  0
 38 30  1  0
 60 37  1  0
M  CHG  1  32  -1
M  END
>  <UniqueID>  (21) 
20

>  <SMILES>  (21) 
[H]/N=C(/NCC1C[C@@]23CC[C@]1(OC)C1Oc4c([O-])ccc5c4C12CCN(CC1CC1)C3C5)C(C)C

>  <Energy>  (21) 
400.5732598688301

>  <Genealogy>  (21) 
COC12CCC3(CC1CNC(=N)C(C)C)C1Cc4ccc([O-])c5c4C3(CCN1CC1CC1)C2O5 (protonated)
CO[C@]12CC[C@@]3(CC1CNC(=N)C(C)C)C1Cc4ccc([O-])c5c4C3(CCN1CC1CC1)C2O5 (chirality)
[H]/N=C(/NCC1C[C@@]23CC[C@]1(OC)C1Oc4c([O-])ccc5c4C12CCN(CC1CC1)C3C5)C(C)C (cis-trans isomerization)
[H]/N=C(/NCC1C[C@@]23CC[C@]1(OC)C1Oc4c([O-])ccc5c4C12CCN(CC1CC1)C3C5)C(C)C (3D coordinates assigned)
[H]/N=C(/NCC1C[C@@]23CC[C@]1(OC)C1Oc4c([O-])ccc5c4C12CCN(CC1CC1)C3C5)C(C)C (nonaromatic ring conformer: 400.5732598688301 kcal/mol)

>  <smiles>  (21) 
COC12CCC3(CC1CNC(=N)C(C)C)C1Cc4ccc(O)c5c4C3(CCN1CC1CC1)C2O5

>  <score_type>  (21) 
oracle

>  <origin>  (21) 
adg

>  <m_score__min__energy>  (21) 
-11.32

>  <m_primary>  (21) 
energy

$$$$
21:0
     RDKit          3D

 58 61  0  0  0  0  0  0  0  0999 V2000
   62.1380   34.2940   49.3710 C   0  0  0  0  0  0  0  0  0  0  0  0
   62.2830   33.0370   50.2280 C   0  0  0  0  0  0  0  0  0  0  0  0
   63.2600   32.0910   49.6470 N   0  0  0  0  0  0  0  0  0  0  0  0
   64.3540   31.8070   50.6070 C   0  0  0  0  0  0  0  0  0  0  0  0
   65.7050   32.3540   50.1470 C   0  0  0  0  0  0  0  0  0  0  0  0
   63.7130   32.4590   48.2760 C   0  0  0  0  0  0  0  0  0  0  0  0
   62.8300   31.9410   47.1190 C   0  0  0  0  0  0  0  0  0  0  0  0
   61.5270   31.4790   47.6030 N   0  0  0  0  0  0  0  0  0  0  0  0
   60.3890   31.3020   46.7360 C   0  0  0  0  0  0  0  0  0  0  0  0
   59.6690   32.4040   46.2080 C   0  0  0  0  0  0  0  0  0  0  0  0
   60.0640   33.7280   46.4860 C   0  0  0  0  0  0  0  0  0  0  0  0
   59.3270   34.8080   46.0040 C   0  0  0  0  0  0  0  0  0  0  0  0
   58.1810   34.5920   45.2480 C   0  0  0  0  0  0  0  0  0  0  0  0
   57.7770   33.2940   44.9350 C   0  0  0  0  0  0  0  0  0  0  0  0
   58.5250   32.1730   45.3670 C   0  0  0  0  0  0  0  0  0  0  0  0
   58.1640   30.8800   45.0130 N   0  0  0  0  0  0  0  0  0  0  0  0
   57.1810   30.6110   43.9500 C   0  0  0  0  0  0  0  0  0  0  0  0
   58.8030   29.8430   45.6380 C   0  0  0  0  0  0  0  0  0  0  0  0
   59.8960   30.0300   46.4550 C   0  0  0  0  0  0  0  0  0  0  0  0
   60.3430   28.8830   46.9210 O   0  0  0  0  0  0  0  0  0  0  0  0
   59.5610   27.9410   46.4430 C   0  0  0  0  0  0  0  0  0  0  0  0
   59.6500   26.5780   46.7010 C   0  0  0  0  0  0  0  0  0  0  0  0
   58.6820   25.7230   46.1290 C   0  0  0  0  0  0  0  0  0  0  0  0
   58.6890   24.3100   46.3730 N   0  0  0  0  0  0  0  0  0  0  0  0
   59.1540   23.2850   45.4840 C   0  0  0  0  0  0  0  0  0  0  0  0
   58.2460   22.6130   44.5000 C   0  0  0  0  0  0  0  0  0  0  0  0
   60.3530   22.9110   45.5600 O   0  0  0  0  0  0  0  0  0  0  0  0
   57.6230   26.2750   45.3720 C   0  0  0  0  0  0  0  0  0  0  0  0
   57.5530   27.6570   45.1260 C   0  0  0  0  0  0  0  0  0  0  0  0
   58.5660   28.4710   45.6440 C   0  0  0  0  0  0  0  0  0  0  0  0
   62.0366   35.1733   50.0241 H   0  0  0  0  0  0  0  0  0  0  0  0
   63.0288   34.4096   48.7360 H   0  0  0  0  0  0  0  0  0  0  0  0
   61.2443   34.2038   48.7360 H   0  0  0  0  0  0  0  0  0  0  0  0
   62.6221   33.3276   51.2333 H   0  0  0  0  0  0  0  0  0  0  0  0
   61.3045   32.5365   50.2725 H   0  0  0  0  0  0  0  0  0  0  0  0
   64.1004   32.2657   51.5741 H   0  0  0  0  0  0  0  0  0  0  0  0
   64.4494   30.7139   50.6852 H   0  0  0  0  0  0  0  0  0  0  0  0
   66.3184   32.6024   51.0257 H   0  0  0  0  0  0  0  0  0  0  0  0
   66.2215   31.5942   49.5421 H   0  0  0  0  0  0  0  0  0  0  0  0
   65.5474   33.2592   49.5421 H   0  0  0  0  0  0  0  0  0  0  0  0
   63.7434   33.5568   48.2130 H   0  0  0  0  0  0  0  0  0  0  0  0
   64.6936   31.9783   48.1443 H   0  0  0  0  0  0  0  0  0  0  0  0
   62.6744   32.7553   46.3960 H   0  0  0  0  0  0  0  0  0  0  0  0
   63.3439   31.0907   46.6469 H   0  0  0  0  0  0  0  0  0  0  0  0
   61.4730   31.1030   48.5760 H   0  0  0  0  0  0  0  0  0  0  0  0
   60.9646   33.9110   47.0905 H   0  0  0  0  0  0  0  0  0  0  0  0
   59.6535   35.8354   46.2227 H   0  0  0  0  0  0  0  0  0  0  0  0
   57.5893   35.4493   44.8945 H   0  0  0  0  0  0  0  0  0  0  0  0
   56.8628   33.1394   44.3432 H   0  0  0  0  0  0  0  0  0  0  0  0
   56.2142   30.3464   44.4031 H   0  0  0  0  0  0  0  0  0  0  0  0
   57.0602   31.5091   43.3265 H   0  0  0  0  0  0  0  0  0  0  0  0
   57.5343   29.7765   43.3265 H   0  0  0  0  0  0  0  0  0  0  0  0
   60.4540   26.1754   47.3346 H   0  0  0  0  0  0  0  0  0  0  0  0
   57.4762   22.0433   45.0412 H   0  0  0  0  0  0  0  0  0  0  0  0
   57.7632   23.3731   43.8682 H   0  0  0  0  0  0  0  0  0  0  0  0
   58.8318   21.9292   43.8682 H   0  0  0  0  0  0  0  0  0  0  0  0
   56.8422   25.6129   44.9696 H   0  0  0  0  0  0  0  0  0  0  0  0
   56.7251   28.0864   44.5427 H   0  0  0  0  0  0  0  0  0  0  0  0
  1  2  1  0
  2  3  1  0
  3  4  1  0
  4  5  1  0
  3  6  1  0
  6  7  1  0
  7  8  1  0
  8  9  1  0
  9 10  2  0
 10 11  1  0
 11 12  2  0
 12 13  1  0
 13 14  2  0
 14 15  1  0
 15 16  2  0
 16 17  1  0
 16 18  1  0
 18 19  2  0
 19 20  1  0
 20 21  1  0
 21 22  2  0
 22 23  1  0
 23 24  1  0
 24 25  1  0
 25 26  1  0
 25 27  2  0
 23 28  2  0
 28 29  1  0
 29 30  2  0
 19  9  1  0
 30 21  1  0
 15 10  1  0
 30 18  1  0
  1 31  1  0
  1 32  1  0
  1 33  1  0
  2 34  1  0
  2 35  1  0
  4 36  1  0
  4 37  1  0
  5 38  1  0
  5 39  1  0
  5 40  1  0
  6 41  1  0
  6 42  1  0
  7 43  1  0
  7 44  1  0
  8 45  1  0
 11 46  1  0
 12 47  1  0
 13 48  1  0
 14 49  1  0
 17 50  1  0
 17 51  1  0
 17 52  1  0
 22 53  1  0
 26 54  1  0
 26 55  1  0
 26 56  1  0
 28 57  1  0
 29 58  1  0
M  CHG  2  16   1  24  -1
M  END
>  <UniqueID>  (22) 
21

>  <SMILES>  (22) 
CCN(CC)CCNc1c2ccccc2[n+](C)c2c1oc1cc([N-]C(C)=O)ccc12

>  <Energy>  (22) 
127.23851537715976

>  <Genealogy>  (22) 
CCN(CC)CCNc1c2ccccc2[n+](C)c2c1oc1cc([N-]C(C)=O)ccc12 (protonated)
CCN(CC)CCNc1c2ccccc2[n+](C)c2c1oc1cc([N-]C(C)=O)ccc12 (3D coordinates assigned)
CCN(CC)CCNc1c2ccccc2[n+](C)c2c1oc1cc([N-]C(C)=O)ccc12 (optimized conformer: 127.23851537715976 kcal/mol)

>  <smiles>  (22) 
CCN(CC)CCNc1c2ccccc2[n+](C)c2c1oc1cc(NC(C)=O)ccc12

>  <score_type>  (22) 
oracle

>  <origin>  (22) 
adg

>  <m_score__min__energy>  (22) 
-8.3200000000000003

>  <m_primary>  (22) 
energy

$$$$
22:0
     RDKit          3D

 44 46  0  0  0  0  0  0  0  0999 V2000
   58.5090   26.4900   46.9620 C   0  0  0  0  0  0  0  0  0  0  0  0
   57.0140   26.4160   46.6320 C   0  0  0  0  0  0  0  0  0  0  0  0
   56.6210   27.3780   45.5840 N   0  0  0  0  0  0  0  0  0  0  0  0
   57.7540   27.8740   44.7850 C   0  0  0  0  0  0  0  0  0  0  0  0
   57.8150   29.3800   44.7710 C   0  0  0  0  0  0  0  0  0  0  0  0
   57.3910   30.0980   43.6410 C   0  0  0  0  0  0  0  0  0  0  0  0
   57.3220   31.4940   43.6780 C   0  0  0  0  0  0  0  0  0  0  0  0
   57.6590   32.1880   44.8480 C   0  0  0  0  0  0  0  0  0  0  0  0
   57.4240   33.6060   44.9210 N   0  0  0  0  0  0  0  0  0  0  0  0
   58.5120   34.5860   44.9520 C   0  0  0  0  0  0  0  0  0  0  0  0
   59.4130   34.3320   46.1360 C   0  0  0  0  0  0  0  0  0  0  0  0
   58.9450   34.5470   47.4410 C   0  0  0  0  0  0  0  0  0  0  0  0
   59.8160   34.4110   48.5200 C   0  0  0  0  0  0  0  0  0  0  0  0
   61.1530   34.0640   48.2970 C   0  0  0  0  0  0  0  0  0  0  0  0
   62.0590   33.9510   49.3630 C   0  0  0  0  0  0  0  0  0  0  0  0
   63.3920   33.6150   49.1130 C   0  0  0  0  0  0  0  0  0  0  0  0
   63.8280   33.3880   47.8040 C   0  0  0  0  0  0  0  0  0  0  0  0
   62.9320   33.4960   46.7370 C   0  0  0  0  0  0  0  0  0  0  0  0
   61.5910   33.8350   46.9730 C   0  0  0  0  0  0  0  0  0  0  0  0
   60.7130   33.9620   45.9340 N   0  0  0  0  0  0  0  0  0  0  0  0
   58.1390   31.4720   45.9590 C   0  0  0  0  0  0  0  0  0  0  0  0
   58.2150   30.0790   45.9200 C   0  0  0  0  0  0  0  0  0  0  0  0
   58.6436   26.4967   48.0537 H   0  0  0  0  0  0  0  0  0  0  0  0
   59.0225   25.6162   46.5346 H   0  0  0  0  0  0  0  0  0  0  0  0
   58.9337   27.4103   46.5346 H   0  0  0  0  0  0  0  0  0  0  0  0
   56.7789   25.3992   46.2843 H   0  0  0  0  0  0  0  0  0  0  0  0
   56.4559   26.6687   47.5456 H   0  0  0  0  0  0  0  0  0  0  0  0
   55.8820   26.9830   44.9570 H   0  0  0  0  0  0  0  0  0  0  0  0
   58.6891   27.4841   45.2135 H   0  0  0  0  0  0  0  0  0  0  0  0
   57.6182   27.5286   43.7495 H   0  0  0  0  0  0  0  0  0  0  0  0
   57.1120   29.5599   42.7230 H   0  0  0  0  0  0  0  0  0  0  0  0
   57.0017   32.0501   42.7846 H   0  0  0  0  0  0  0  0  0  0  0  0
   56.4680   33.9390   45.1800 H   0  0  0  0  0  0  0  0  0  0  0  0
   59.0993   34.5055   44.0254 H   0  0  0  0  0  0  0  0  0  0  0  0
   58.0822   35.5948   45.0396 H   0  0  0  0  0  0  0  0  0  0  0  0
   57.8937   34.8221   47.6118 H   0  0  0  0  0  0  0  0  0  0  0  0
   59.4532   34.5761   49.5452 H   0  0  0  0  0  0  0  0  0  0  0  0
   61.7199   34.1268   50.3945 H   0  0  0  0  0  0  0  0  0  0  0  0
   64.1013   33.5287   49.9493 H   0  0  0  0  0  0  0  0  0  0  0  0
   64.8787   33.1238   47.6136 H   0  0  0  0  0  0  0  0  0  0  0  0
   63.2790   33.3147   45.7090 H   0  0  0  0  0  0  0  0  0  0  0  0
   61.0480   33.8040   44.9570 H   0  0  0  0  0  0  0  0  0  0  0  0
   58.4561   32.0124   46.8631 H   0  0  0  0  0  0  0  0  0  0  0  0
   58.5902   29.5265   46.7940 H   0  0  0  0  0  0  0  0  0  0  0  0
  1  2  1  0
  2  3  1  0
  3  4  1  0
  4  5  1  0
  5  6  2  0
  6  7  1  0
  7  8  2  0
  8  9  1  0
  9 10  1  0
 10 11  1  0
 11 12  2  0
 12 13  1  0
 13 14  2  0
 14 15  1  0
 15 16  2  0
 16 17  1  0
 17 18  2  0
 18 19  1  0
 19 20  2  0
  8 21  1  0
 21 22  2  0
 22  5  1  0
 20 11  1  0
 19 14  1  0
  1 23  1  0
  1 24  1  0
  1 25  1  0
  2 26  1  0
  2 27  1  0
  3 28  1  0
  4 29  1  0
  4 30  1  0
  6 31  1  0
  7 32  1  0
  9 33  1  0
 10 34  1  0
 10 35  1  0
 12 36  1  0
 13 37  1  0
 15 38  1  0
 16 39  1  0
 17 40  1  0
 18 41  1  0
 20 42  1  0
 21 43  1  0
 22 44  1  0
M  CHG  1  20   1
M  END
>  <UniqueID>  (23) 
22

>  <SMILES>  (23) 
CCNCc1ccc(NCc2ccc3ccccc3[nH+]2)cc1

>  <Energy>  (23) 
46.48751850799795

>  <Genealogy>  (23) 
CCNCc1ccc(NCc2ccc3ccccc3[nH+]2)cc1 (protonated)
CCNCc1ccc(NCc2ccc3ccccc3[nH+]2)cc1 (3D coordinates assigned)
CCNCc1ccc(NCc2ccc3ccccc3[nH+]2)cc1 (optimized conformer: 46.48751850799795 kcal/mol)

>  <smiles>  (23) 
CCNCc1ccc(NCc2ccc3ccccc3n2)cc1

>  <score_type>  (23) 
oracle

>  <origin>  (23) 
adg

>  <m_score__min__energy>  (23) 
-6.1600000000000001

>  <m_primary>  (23) 
energy

$$$$
23:0
     RDKit          3D

 56 58  0  0  0  0  0  0  0  0999 V2000
   59.6540   33.4440   50.5860 C   0  0  0  0  0  0  0  0  0  0  0  0
   58.5920   32.3490   50.5780 C   0  0  0  0  0  0  0  0  0  0  0  0
   58.7740   31.4930   49.4630 O   0  0  0  0  0  0  0  0  0  0  0  0
   59.8580   30.6060   49.6670 C   0  0  0  0  0  0  0  0  0  0  0  0
   59.8710   29.5250   48.5790 C   0  0  0  0  0  0  0  0  0  0  0  0
   60.2590   30.1020   47.2130 C   0  0  0  0  0  0  0  0  0  0  0  0
   59.5810   31.3750   46.9600 N   0  0  0  0  0  0  0  0  0  0  0  0
   58.7190   31.5430   45.8280 C   0  0  0  0  0  0  0  0  0  0  0  0
   58.7750   30.7090   44.8810 O   0  0  0  0  0  0  0  0  0  0  0  0
   57.7600   32.7230   45.7500 C   0  0  0  0  0  0  0  0  0  0  0  0
   57.6560   33.4890   47.0960 C   0  0  0  0  0  0  0  0  0  0  0  0
   58.8240   34.4790   47.3230 C   0  0  0  0  0  0  0  0  0  0  0  0
   59.8970   34.2580   46.3460 N   0  0  0  0  0  0  0  0  0  0  0  0
   61.2000   33.8150   46.7700 C   0  0  0  0  0  0  0  0  0  0  0  0
   61.4610   33.3050   47.9890 N   0  0  0  0  0  0  0  0  0  0  0  0
   62.7920   33.0930   47.9080 C   0  0  0  0  0  0  0  0  0  0  0  0
   63.6060   32.5640   49.0220 C   0  0  0  0  0  0  0  0  0  0  0  0
   64.8840   33.0900   49.2810 C   0  0  0  0  0  0  0  0  0  0  0  0
   65.6650   32.5760   50.3210 C   0  0  0  0  0  0  0  0  0  0  0  0
   65.1810   31.5210   51.1180 C   0  0  0  0  0  0  0  0  0  0  0  0
   65.9290   30.9650   52.1660 O   0  0  0  0  0  0  0  0  0  0  0  0
   66.8300   29.8710   52.0190 C   0  0  0  0  0  0  0  0  0  0  0  0
   63.9090   31.0010   50.8600 C   0  0  0  0  0  0  0  0  0  0  0  0
   63.1240   31.5180   49.8250 C   0  0  0  0  0  0  0  0  0  0  0  0
   63.2960   33.4480   46.7080 N   0  0  0  0  0  0  0  0  0  0  0  0
   62.2800   33.8880   46.0320 O   0  0  0  0  0  0  0  0  0  0  0  0
   59.5600   34.3300   44.9150 C   0  0  0  0  0  0  0  0  0  0  0  0
   58.1670   33.7280   44.6480 C   0  0  0  0  0  0  0  0  0  0  0  0
   59.9055   33.7033   51.6250 H   0  0  0  0  0  0  0  0  0  0  0  0
   60.5559   33.0839   50.0694 H   0  0  0  0  0  0  0  0  0  0  0  0
   59.2664   34.3345   50.0694 H   0  0  0  0  0  0  0  0  0  0  0  0
   58.6713   31.7603   51.5038 H   0  0  0  0  0  0  0  0  0  0  0  0
   57.5982   32.8159   50.5112 H   0  0  0  0  0  0  0  0  0  0  0  0
   60.8013   31.1706   49.6293 H   0  0  0  0  0  0  0  0  0  0  0  0
   59.7471   30.1243   50.6497 H   0  0  0  0  0  0  0  0  0  0  0  0
   60.5977   28.7475   48.8573 H   0  0  0  0  0  0  0  0  0  0  0  0
   58.8572   29.1057   48.4993 H   0  0  0  0  0  0  0  0  0  0  0  0
   61.3467   30.2645   47.1887 H   0  0  0  0  0  0  0  0  0  0  0  0
   59.9544   29.3863   46.4351 H   0  0  0  0  0  0  0  0  0  0  0  0
   59.7080   32.1680   47.6270 H   0  0  0  0  0  0  0  0  0  0  0  0
   56.7804   32.2860   45.5062 H   0  0  0  0  0  0  0  0  0  0  0  0
   56.7118   34.0533   47.1056 H   0  0  0  0  0  0  0  0  0  0  0  0
   57.6976   32.7421   47.9025 H   0  0  0  0  0  0  0  0  0  0  0  0
   58.4490   35.5079   47.2192 H   0  0  0  0  0  0  0  0  0  0  0  0
   59.2299   34.3173   48.3325 H   0  0  0  0  0  0  0  0  0  0  0  0
   65.2723   33.9116   48.6612 H   0  0  0  0  0  0  0  0  0  0  0  0
   66.6618   32.9978   50.5172 H   0  0  0  0  0  0  0  0  0  0  0  0
   67.1299   29.5069   53.0127 H   0  0  0  0  0  0  0  0  0  0  0  0
   66.3346   29.0598   51.4654 H   0  0  0  0  0  0  0  0  0  0  0  0
   67.7211   30.2018   51.4654 H   0  0  0  0  0  0  0  0  0  0  0  0
   63.5221   30.1770   51.4775 H   0  0  0  0  0  0  0  0  0  0  0  0
   62.1226   31.1027   49.6387 H   0  0  0  0  0  0  0  0  0  0  0  0
   59.5646   35.3828   44.5963 H   0  0  0  0  0  0  0  0  0  0  0  0
   60.3066   33.7542   44.3484 H   0  0  0  0  0  0  0  0  0  0  0  0
   57.4270   34.5412   44.6157 H   0  0  0  0  0  0  0  0  0  0  0  0
   58.2027   33.1907   43.6888 H   0  0  0  0  0  0  0  0  0  0  0  0
  1  2  1  0
  2  3  1  0
  3  4  1  0
  4  5  1  0
  5  6  1  0
  6  7  1  0
  7  8  1  0
  8  9  2  0
  8 10  1  0
 10 11  1  0
 11 12  1  0
 12 13  1  0
 13 14  1  0
 14 15  2  0
 15 16  1  0
 16 17  1  0
 17 18  2  0
 18 19  1  0
 19 20  2  0
 20 21  1  0
 21 22  1  0
 20 23  1  0
 23 24  2  0
 16 25  2  0
 25 26  1  0
 13 27  1  0
 27 28  1  0
 28 10  1  0
 26 14  1  0
 24 17  1  0
  1 29  1  0
  1 30  1  0
  1 31  1  0
  2 32  1  0
  2 33  1  0
  4 34  1  0
  4 35  1  0
  5 36  1  0
  5 37  1  0
  6 38  1  0
  6 39  1  0
  7 40  1  0
 10 41  1  0
 11 42  1  0
 11 43  1  0
 12 44  1  0
 12 45  1  0
 18 46  1  0
 19 47  1  0
 22 48  1  0
 22 49  1  0
 22 50  1  0
 23 51  1  0
 24 52  1  0
 27 53  1  0
 27 54  1  0
 28 55  1  0
 28 56  1  0
M  END
>  <UniqueID>  (24) 
23

>  <SMILES>  (24) 
CCOCCCNC(=O)C1CCN(c2nc(-c3ccc(OC)cc3)no2)CC1

>  <Energy>  (24) 
88.68190918198701

>  <Genealogy>  (24) 
CCOCCCNC(=O)C1CCN(c2nc(-c3ccc(OC)cc3)no2)CC1 (3D coordinates assigned)
CCOCCCNC(=O)C1CCN(c2nc(-c3ccc(OC)cc3)no2)CC1 (nonaromatic ring conformer: 88.68190918198701 kcal/mol)

>  <smiles>  (24) 
CCOCCCNC(=O)C1CCN(c2nc(-c3ccc(OC)cc3)no2)CC1

>  <score_type>  (24) 
oracle

>  <origin>  (24) 
adg

>  <m_score__min__energy>  (24) 
-7.1799999999999997

>  <m_primary>  (24) 
energy

$$$$
24:0
     RDKit          3D

 42 43  0  0  0  0  0  0  0  0999 V2000
   57.9336   32.7341   48.2863 H   0  0  0  0  0  0  0  0  0  0  0  0
   58.5340   33.2340   47.5120 C   0  0  0  0  0  0  0  0  0  0  0  0
   58.3410   32.7680   46.2400 C   0  0  0  0  0  0  0  0  0  0  0  0
   58.1930   31.2630   46.0890 C   0  0  0  0  0  0  0  0  0  0  0  0
   57.9942   30.8113   47.0721 H   0  0  0  0  0  0  0  0  0  0  0  0
   59.1201   30.8374   45.6775 H   0  0  0  0  0  0  0  0  0  0  0  0
   57.1190   30.9940   45.2200 O   0  0  0  0  0  0  0  0  0  0  0  0
   57.4070   31.4310   43.9020 C   0  0  0  0  0  0  0  0  0  0  0  0
   56.4545   31.6520   43.3982 H   0  0  0  0  0  0  0  0  0  0  0  0
   57.9717   30.6187   43.4211 H   0  0  0  0  0  0  0  0  0  0  0  0
   58.3020   32.6960   43.8210 C   0  0  0  0  0  0  0  0  0  0  0  0
   58.0061   33.2739   42.9330 H   0  0  0  0  0  0  0  0  0  0  0  0
   59.3443   32.3482   43.7689 H   0  0  0  0  0  0  0  0  0  0  0  0
   58.1990   33.5870   45.0200 N   0  0  0  0  0  0  0  0  0  0  0  0
   59.2840   34.5920   44.8850 C   0  0  0  0  0  0  0  0  0  0  0  0
   59.6210   34.9042   45.8845 H   0  0  0  0  0  0  0  0  0  0  0  0
   60.1276   34.1492   44.3353 H   0  0  0  0  0  0  0  0  0  0  0  0
   58.9070   35.4670   44.3353 H   0  0  0  0  0  0  0  0  0  0  0  0
   56.8740   34.2530   44.9970 C   0  0  0  0  0  0  0  0  0  0  0  0
   56.5321   34.4249   46.0283 H   0  0  0  0  0  0  0  0  0  0  0  0
   56.9570   35.2165   44.4728 H   0  0  0  0  0  0  0  0  0  0  0  0
   56.1503   33.6116   44.4728 H   0  0  0  0  0  0  0  0  0  0  0  0
   59.4450   34.3300   48.0180 C   0  0  0  0  0  0  0  0  0  0  0  0
   59.8967   34.8436   47.1564 H   0  0  0  0  0  0  0  0  0  0  0  0
   58.8417   35.0247   48.6209 H   0  0  0  0  0  0  0  0  0  0  0  0
   60.5670   33.7740   48.9100 C   0  0  0  0  0  0  0  0  0  0  0  0
   60.4967   34.2442   49.9019 H   0  0  0  0  0  0  0  0  0  0  0  0
   60.4384   32.6834   48.9736 H   0  0  0  0  0  0  0  0  0  0  0  0
   61.9120   34.0410   48.3500 N   0  0  0  0  0  0  0  0  0  0  0  0
   62.9600   33.2570   49.0480 C   0  0  0  0  0  0  0  0  0  0  0  0
   63.8476   33.8921   49.1853 H   0  0  0  0  0  0  0  0  0  0  0  0
   62.5541   32.9300   50.0167 H   0  0  0  0  0  0  0  0  0  0  0  0
   63.3630   32.0030   48.2500 C   0  0  0  0  0  0  0  0  0  0  0  0
   64.1394   31.4666   48.8153 H   0  0  0  0  0  0  0  0  0  0  0  0
   62.4515   31.4025   48.1140 H   0  0  0  0  0  0  0  0  0  0  0  0
   63.8690   32.2880   46.9530 O   0  0  0  0  0  0  0  0  0  0  0  0
   63.3600   33.4910   46.3930 C   0  0  0  0  0  0  0  0  0  0  0  0
   64.0361   34.3151   46.6646 H   0  0  0  0  0  0  0  0  0  0  0  0
   63.3008   33.3422   45.3047 H   0  0  0  0  0  0  0  0  0  0  0  0
   61.9440   33.8420   46.8800 C   0  0  0  0  0  0  0  0  0  0  0  0
   61.6147   34.7681   46.3860 H   0  0  0  0  0  0  0  0  0  0  0  0
   61.2740   33.0066   46.6286 H   0  0  0  0  0  0  0  0  0  0  0  0
  1  2  1  0
  2  3  2  0
  3  4  1  0
  4  5  1  0
  4  6  1  0
  4  7  1  0
  7  8  1  0
  8  9  1  0
  8 10  1  0
  8 11  1  0
 11 12  1  0
 11 13  1  0
 11 14  1  0
 14 15  1  0
 15 16  1  0
 15 17  1  0
 15 18  1  0
 14 19  1  0
 19 20  1  0
 19 21  1  0
 19 22  1  0
  2 23  1  0
 23 24  1  0
 23 25  1  0
 23 26  1  0
 26 27  1  0
 26 28  1  0
 26 29  1  0
 29 30  1  0
 30 31  1  0
 30 32  1  0
 30 33  1  0
 33 34  1  0
 33 35  1  0
 33 36  1  0
 36 37  1  0
 37 38  1  0
 37 39  1  0
 37 40  1  0
 40 41  1  0
 40 42  1  0
 14  3  1  0
 40 29  1  0
M  CHG  1  14   1
M  END
>  <UniqueID>  (25) 
24

>  <SMILES>  (25) 
C[N+]1(C)CCOC/C1=C/CCN1CCOCC1

>  <Energy>  (25) 
79.05579327305297

>  <Genealogy>  (25) 
C[N+]1(C)CCOC/C1=C/CCN1CCOCC1 (cis-trans isomerization)
C[N+]1(C)CCOC/C1=C/CCN1CCOCC1 (3D coordinates assigned)
C[N+]1(C)CCOC/C1=C/CCN1CCOCC1 (nonaromatic ring conformer: 79.05579327305297 kcal/mol)

>  <smiles>  (25) 
C[N+]1(C)CCOCC1=CCCN1CCOCC1

>  <score_type>  (25) 
oracle

>  <origin>  (25) 
adg

>  <m_score__min__energy>  (25) 
-4.7000000000000002

>  <m_primary>  (25) 
energy

$$$$
25:0
     RDKit          3D

 51 54  0  0  0  0  0  0  0  0999 V2000
   63.3990   33.8350   46.5410 C   0  0  0  0  0  0  0  0  0  0  0  0
   62.8140   33.7360   47.9500 C   0  0  0  0  0  0  0  0  0  0  0  0
   62.9740   32.3720   48.4970 N   0  0  0  0  0  0  0  0  0  0  0  0
   64.2710   32.2510   49.1830 C   0  0  0  0  0  0  0  0  0  0  0  0
   61.8590   31.9890   49.3980 C   0  0  0  0  0  0  0  0  0  0  0  0
   60.9050   31.0490   48.6480 C   0  0  0  0  0  0  0  0  0  0  0  0
   61.2090   30.9700   47.2070 N   0  0  0  0  0  0  0  0  0  0  0  0
   60.0010   30.9690   46.3950 C   0  0  0  0  0  0  0  0  0  0  0  0
   59.3580   32.1750   46.0080 C   0  0  0  0  0  0  0  0  0  0  0  0
   59.8760   33.4400   46.3760 C   0  0  0  0  0  0  0  0  0  0  0  0
   59.2370   34.6160   45.9940 C   0  0  0  0  0  0  0  0  0  0  0  0
   58.0760   34.5650   45.2390 C   0  0  0  0  0  0  0  0  0  0  0  0
   57.5400   33.3380   44.8590 C   0  0  0  0  0  0  0  0  0  0  0  0
   58.1620   32.1170   45.2300 C   0  0  0  0  0  0  0  0  0  0  0  0
   57.6280   30.8970   44.8540 N   0  0  0  0  0  0  0  0  0  0  0  0
   56.3900   30.8450   44.0460 C   0  0  0  0  0  0  0  0  0  0  0  0
   58.2430   29.7270   45.2320 C   0  0  0  0  0  0  0  0  0  0  0  0
   57.7180   28.5180   44.8800 N   0  0  0  0  0  0  0  0  0  0  0  0
   58.2970   27.3450   45.2420 C   0  0  0  0  0  0  0  0  0  0  0  0
   57.7310   26.1210   44.8660 C   0  0  0  0  0  0  0  0  0  0  0  0
   58.3450   24.9250   45.2530 C   0  0  0  0  0  0  0  0  0  0  0  0
   59.5210   24.9510   46.0130 C   0  0  0  0  0  0  0  0  0  0  0  0
   60.0880   26.1730   46.3900 C   0  0  0  0  0  0  0  0  0  0  0  0
   59.4760   27.3700   46.0030 C   0  0  0  0  0  0  0  0  0  0  0  0
   60.0070   28.5660   46.3570 N   0  0  0  0  0  0  0  0  0  0  0  0
   59.4290   29.7470   45.9980 C   0  0  0  0  0  0  0  0  0  0  0  0
   64.4817   34.0182   46.6056 H   0  0  0  0  0  0  0  0  0  0  0  0
   63.2180   32.8934   46.0018 H   0  0  0  0  0  0  0  0  0  0  0  0
   62.9182   34.6646   46.0018 H   0  0  0  0  0  0  0  0  0  0  0  0
   63.3340   34.4496   48.6060 H   0  0  0  0  0  0  0  0  0  0  0  0
   61.7401   33.9691   47.9001 H   0  0  0  0  0  0  0  0  0  0  0  0
   64.1129   32.2658   50.2715 H   0  0  0  0  0  0  0  0  0  0  0  0
   64.7512   31.3042   48.8950 H   0  0  0  0  0  0  0  0  0  0  0  0
   64.9180   33.0927   48.8950 H   0  0  0  0  0  0  0  0  0  0  0  0
   62.2613   31.4752   50.2835 H   0  0  0  0  0  0  0  0  0  0  0  0
   61.3151   32.8903   49.7171 H   0  0  0  0  0  0  0  0  0  0  0  0
   60.9883   30.0417   49.0821 H   0  0  0  0  0  0  0  0  0  0  0  0
   59.8867   31.4513   48.7538 H   0  0  0  0  0  0  0  0  0  0  0  0
   61.7970   30.1240   47.0240 H   0  0  0  0  0  0  0  0  0  0  0  0
   61.8210   31.7690   46.9310 H   0  0  0  0  0  0  0  0  0  0  0  0
   60.7981   33.4944   46.9733 H   0  0  0  0  0  0  0  0  0  0  0  0
   59.6548   35.5889   46.2923 H   0  0  0  0  0  0  0  0  0  0  0  0
   57.5762   35.4978   44.9389 H   0  0  0  0  0  0  0  0  0  0  0  0
   56.6175   33.3139   44.2603 H   0  0  0  0  0  0  0  0  0  0  0  0
   55.5172   30.8083   44.7144 H   0  0  0  0  0  0  0  0  0  0  0  0
   56.3284   31.7414   43.4114 H   0  0  0  0  0  0  0  0  0  0  0  0
   56.4038   29.9466   43.4114 H   0  0  0  0  0  0  0  0  0  0  0  0
   56.8075   26.0997   44.2688 H   0  0  0  0  0  0  0  0  0  0  0  0
   57.9028   23.9615   44.9595 H   0  0  0  0  0  0  0  0  0  0  0  0
   60.0002   24.0078   46.3144 H   0  0  0  0  0  0  0  0  0  0  0  0
   61.0110   26.1926   46.9881 H   0  0  0  0  0  0  0  0  0  0  0  0
  1  2  1  0
  2  3  1  0
  3  4  1  0
  3  5  1  0
  5  6  1  0
  6  7  1  0
  7  8  1  0
  8  9  2  0
  9 10  1  0
 10 11  2  0
 11 12  1  0
 12 13  2  0
 13 14  1  0
 14 15  2  0
 15 16  1  0
 15 17  1  0
 17 18  2  0
 18 19  1  0
 19 20  2  0
 20 21  1  0
 21 22  2  0
 22 23  1  0
 23 24  2  0
 24 25  1  0
 25 26  2  0
 26  8  1  0
 14  9  1  0
 26 17  1  0
 24 19  1  0
  1 27  1  0
  1 28  1  0
  1 29  1  0
  2 30  1  0
  2 31  1  0
  4 32  1  0
  4 33  1  0
  4 34  1  0
  5 35  1  0
  5 36  1  0
  6 37  1  0
  6 38  1  0
  7 39  1  0
  7 40  1  0
 10 41  1  0
 11 42  1  0
 12 43  1  0
 13 44  1  0
 16 45  1  0
 16 46  1  0
 16 47  1  0
 20 48  1  0
 21 49  1  0
 22 50  1  0
 23 51  1  0
M  CHG  2   7   1  15   1
M  END
>  <UniqueID>  (26) 
25

>  <SMILES>  (26) 
CCN(C)CC[NH2+]c1c2ccccc2[n+](C)c2nc3ccccc3nc12

>  <Energy>  (26) 
75.0764180197718

>  <Genealogy>  (26) 
CCN(C)CC[NH2+]c1c2ccccc2[n+](C)c2nc3ccccc3nc12 (protonated)
CCN(C)CC[NH2+]c1c2ccccc2[n+](C)c2nc3ccccc3nc12 (3D coordinates assigned)
CCN(C)CC[NH2+]c1c2ccccc2[n+](C)c2nc3ccccc3nc12 (optimized conformer: 75.0764180197718 kcal/mol)

>  <smiles>  (26) 
CCN(C)CCNc1c2ccccc2[n+](C)c2nc3ccccc3nc12

>  <score_type>  (26) 
oracle

>  <origin>  (26) 
adg

>  <m_score__min__energy>  (26) 
-4.7300000000000004

>  <m_primary>  (26) 
energy

$$$$
26:0
     RDKit          3D

 64 66  0  0  0  0  0  0  0  0999 V2000
   58.8180   34.7160   44.8780 C   0  0  0  0  0  0  0  0  0  0  0  0
   59.7490   35.1750   45.9980 C   0  0  0  0  0  0  0  0  0  0  0  0
   60.0590   34.0710   46.9350 N   0  0  0  0  0  0  0  0  0  0  0  0
   61.3450   34.2140   47.6600 C   0  0  0  0  0  0  0  0  0  0  0  0
   62.5740   33.8140   46.8330 C   0  0  0  0  0  0  0  0  0  0  0  0
   58.9230   33.7560   47.8340 C   0  0  0  0  0  0  0  0  0  0  0  0
   58.5360   32.2780   47.6890 C   0  0  0  0  0  0  0  0  0  0  0  0
   59.4820   31.5490   46.8220 N   0  0  0  0  0  0  0  0  0  0  0  0
   58.9830   30.2210   46.5060 C   0  0  0  0  0  0  0  0  0  0  0  0
   58.1580   30.0600   45.3580 C   0  0  0  0  0  0  0  0  0  0  0  0
   57.5060   31.1670   44.7520 C   0  0  0  0  0  0  0  0  0  0  0  0
   56.7750   31.0200   43.5780 C   0  0  0  0  0  0  0  0  0  0  0  0
   56.6820   29.7800   42.9680 C   0  0  0  0  0  0  0  0  0  0  0  0
   57.2910   28.6720   43.5490 C   0  0  0  0  0  0  0  0  0  0  0  0
   58.0010   28.7760   44.7760 C   0  0  0  0  0  0  0  0  0  0  0  0
   58.5650   27.6700   45.3730 N   0  0  0  0  0  0  0  0  0  0  0  0
   58.2060   26.3140   44.8900 C   0  0  0  0  0  0  0  0  0  0  0  0
   59.3960   27.8130   46.4660 C   0  0  0  0  0  0  0  0  0  0  0  0
   60.1720   26.7260   46.9220 C   0  0  0  0  0  0  0  0  0  0  0  0
   60.7600   26.7430   48.1700 C   0  0  0  0  0  0  0  0  0  0  0  0
   60.6020   27.8380   49.0030 C   0  0  0  0  0  0  0  0  0  0  0  0
   60.9940   27.5210   50.8610 Br  0  0  0  0  0  0  0  0  0  0  0  0
   60.0400   29.0450   48.5070 C   0  0  0  0  0  0  0  0  0  0  0  0
   59.7820   30.1130   49.4550 N   0  0  0  0  0  0  0  0  0  0  0  0
   58.5450   29.9950   50.2500 C   0  0  0  0  0  0  0  0  0  0  0  0
   58.1610   31.3060   50.9320 C   0  0  0  0  0  0  0  0  0  0  0  0
   60.9110   30.9160   49.9870 C   0  0  0  0  0  0  0  0  0  0  0  0
   62.0410   31.1100   48.9800 C   0  0  0  0  0  0  0  0  0  0  0  0
   59.4870   29.0550   47.1670 C   0  0  0  0  0  0  0  0  0  0  0  0
   57.9122   34.2694   45.3140 H   0  0  0  0  0  0  0  0  0  0  0  0
   58.5384   35.5795   44.2566 H   0  0  0  0  0  0  0  0  0  0  0  0
   59.3327   33.9684   44.2566 H   0  0  0  0  0  0  0  0  0  0  0  0
   60.6868   35.5415   45.5551 H   0  0  0  0  0  0  0  0  0  0  0  0
   59.2429   35.9729   46.5613 H   0  0  0  0  0  0  0  0  0  0  0  0
   61.4577   35.2661   47.9608 H   0  0  0  0  0  0  0  0  0  0  0  0
   61.3035   33.5302   48.5207 H   0  0  0  0  0  0  0  0  0  0  0  0
   63.3992   33.5454   47.5089 H   0  0  0  0  0  0  0  0  0  0  0  0
   62.3240   32.9509   46.1986 H   0  0  0  0  0  0  0  0  0  0  0  0
   62.8799   34.6590   46.1986 H   0  0  0  0  0  0  0  0  0  0  0  0
   59.2157   33.9559   48.8753 H   0  0  0  0  0  0  0  0  0  0  0  0
   58.0617   34.3841   47.5627 H   0  0  0  0  0  0  0  0  0  0  0  0
   58.5326   31.8110   48.6849 H   0  0  0  0  0  0  0  0  0  0  0  0
   57.5390   32.2281   47.2270 H   0  0  0  0  0  0  0  0  0  0  0  0
   59.5890   32.1270   45.9820 H   0  0  0  0  0  0  0  0  0  0  0  0
   60.4350   31.4880   47.2400 H   0  0  0  0  0  0  0  0  0  0  0  0
   57.5807   32.1595   45.2203 H   0  0  0  0  0  0  0  0  0  0  0  0
   56.2698   31.8900   43.1332 H   0  0  0  0  0  0  0  0  0  0  0  0
   56.1269   29.6712   42.0246 H   0  0  0  0  0  0  0  0  0  0  0  0
   57.2215   27.6951   43.0482 H   0  0  0  0  0  0  0  0  0  0  0  0
   58.0309   25.6525   45.7512 H   0  0  0  0  0  0  0  0  0  0  0  0
   57.2922   26.3719   44.2803 H   0  0  0  0  0  0  0  0  0  0  0  0
   59.0287   25.9122   44.2803 H   0  0  0  0  0  0  0  0  0  0  0  0
   60.3104   25.8501   46.2712 H   0  0  0  0  0  0  0  0  0  0  0  0
   61.3574   25.8823   48.5051 H   0  0  0  0  0  0  0  0  0  0  0  0
   57.7248   29.6908   49.5832 H   0  0  0  0  0  0  0  0  0  0  0  0
   58.7239   29.2483   51.0377 H   0  0  0  0  0  0  0  0  0  0  0  0
   58.1990   31.1763   52.0237 H   0  0  0  0  0  0  0  0  0  0  0  0
   58.8656   32.0956   50.6318 H   0  0  0  0  0  0  0  0  0  0  0  0
   57.1417   31.5906   50.6318 H   0  0  0  0  0  0  0  0  0  0  0  0
   60.5289   31.9056   50.2780 H   0  0  0  0  0  0  0  0  0  0  0  0
   61.3282   30.3647   50.8426 H   0  0  0  0  0  0  0  0  0  0  0  0
   62.9870   31.2724   49.5173 H   0  0  0  0  0  0  0  0  0  0  0  0
   62.1272   30.2135   48.3484 H   0  0  0  0  0  0  0  0  0  0  0  0
   61.8233   31.9839   48.3484 H   0  0  0  0  0  0  0  0  0  0  0  0
  1  2  1  0
  2  3  1  0
  3  4  1  0
  4  5  1  0
  3  6  1  0
  6  7  1  0
  7  8  1  0
  8  9  1  0
  9 10  2  0
 10 11  1  0
 11 12  2  0
 12 13  1  0
 13 14  2  0
 14 15  1  0
 15 16  2  0
 16 17  1  0
 16 18  1  0
 18 19  2  0
 19 20  1  0
 20 21  2  0
 21 22  1  0
 21 23  1  0
 23 24  1  0
 24 25  1  0
 25 26  1  0
 24 27  1  0
 27 28  1  0
 23 29  2  0
 29  9  1  0
 15 10  1  0
 29 18  1  0
  1 30  1  0
  1 31  1  0
  1 32  1  0
  2 33  1  0
  2 34  1  0
  4 35  1  0
  4 36  1  0
  5 37  1  0
  5 38  1  0
  5 39  1  0
  6 40  1  0
  6 41  1  0
  7 42  1  0
  7 43  1  0
  8 44  1  0
  8 45  1  0
 11 46  1  0
 12 47  1  0
 13 48  1  0
 14 49  1  0
 17 50  1  0
 17 51  1  0
 17 52  1  0
 19 53  1  0
 20 54  1  0
 25 55  1  0
 25 56  1  0
 26 57  1  0
 26 58  1  0
 26 59  1  0
 27 60  1  0
 27 61  1  0
 28 62  1  0
 28 63  1  0
 28 64  1  0
M  CHG  2   8   1  16   1
M  END
>  <UniqueID>  (27) 
26

>  <SMILES>  (27) 
CCN(CC)CC[NH2+]c1c2ccccc2[n+](C)c2ccc(Br)c(N(CC)CC)c12

>  <Energy>  (27) 
114.43304149664033

>  <Genealogy>  (27) 
CCN(CC)CC[NH2+]c1c2ccccc2[n+](C)c2ccc(Br)c(N(CC)CC)c12 (protonated)
CCN(CC)CC[NH2+]c1c2ccccc2[n+](C)c2ccc(Br)c(N(CC)CC)c12 (3D coordinates assigned)
CCN(CC)CC[NH2+]c1c2ccccc2[n+](C)c2ccc(Br)c(N(CC)CC)c12 (optimized conformer: 114.43304149664033 kcal/mol)

>  <smiles>  (27) 
CCN(CC)CCNc1c2ccccc2[n+](C)c2ccc(Br)c(N(CC)CC)c12

>  <score_type>  (27) 
oracle

>  <origin>  (27) 
adg

>  <m_score__min__energy>  (27) 
-4.3200000000000003

>  <m_primary>  (27) 
energy

$$$$
27:0
     RDKit          3D

 61 64  0  0  0  0  0  0  0  0999 V2000
   59.6210   33.0490   51.5170 C   0  0  0  0  0  0  0  0  0  0  0  0
   60.9640   32.3890   51.8040 C   0  0  0  0  0  0  0  0  0  0  0  0
   60.9610   31.0270   51.3730 O   0  0  0  0  0  0  0  0  0  0  0  0
   60.4280   30.5550   50.1610 C   0  0  0  0  0  0  0  0  0  0  0  0
   61.2480   30.5750   49.0290 C   0  0  0  0  0  0  0  0  0  0  0  0
   60.7730   30.1190   47.7960 C   0  0  0  0  0  0  0  0  0  0  0  0
   59.4620   29.6250   47.6740 C   0  0  0  0  0  0  0  0  0  0  0  0
   58.9300   29.1500   46.3700 C   0  0  0  0  0  0  0  0  0  0  0  0
   59.1460   27.8440   45.9110 C   0  0  0  0  0  0  0  0  0  0  0  0
   58.6130   27.4560   44.6860 C   0  0  0  0  0  0  0  0  0  0  0  0
   57.8740   28.3720   43.9390 C   0  0  0  0  0  0  0  0  0  0  0  0
   57.3830   28.0170   42.8330 O   0  0  0  0  0  0  0  0  0  0  0  0
   57.6880   29.6410   44.4160 N   0  0  0  0  0  0  0  0  0  0  0  0
   56.8930   30.6290   43.6790 C   0  0  0  0  0  0  0  0  0  0  0  0
   57.7990   31.7420   43.1390 C   0  0  0  0  0  0  0  0  0  0  0  0
   58.5090   32.4820   44.2840 C   0  0  0  0  0  0  0  0  0  0  0  0
   57.6060   33.4320   44.9780 N   0  0  0  0  0  0  0  0  0  0  0  0
   58.0170   34.8500   44.8600 C   0  0  0  0  0  0  0  0  0  0  0  0
   59.3730   35.1110   45.5360 C   0  0  0  0  0  0  0  0  0  0  0  0
   59.5220   34.2660   46.7260 N   0  0  0  0  0  0  0  0  0  0  0  0
   60.8340   33.9510   47.2310 C   0  0  0  0  0  0  0  0  0  0  0  0
   61.8370   33.4810   46.3670 C   0  0  0  0  0  0  0  0  0  0  0  0
   63.1040   33.1600   46.8640 C   0  0  0  0  0  0  0  0  0  0  0  0
   63.3790   33.2980   48.2270 C   0  0  0  0  0  0  0  0  0  0  0  0
   64.6080   32.9840   48.7070 F   0  0  0  0  0  0  0  0  0  0  0  0
   62.3850   33.7550   49.0970 C   0  0  0  0  0  0  0  0  0  0  0  0
   61.1160   34.0800   48.6030 C   0  0  0  0  0  0  0  0  0  0  0  0
   58.3130   33.7760   47.3950 C   0  0  0  0  0  0  0  0  0  0  0  0
   57.3870   33.0470   46.3980 C   0  0  0  0  0  0  0  0  0  0  0  0
   58.1940   29.9990   45.6010 N   0  0  0  0  0  0  0  0  0  0  0  0
   58.6380   29.6090   48.8120 C   0  0  0  0  0  0  0  0  0  0  0  0
   59.1140   30.0640   50.0440 C   0  0  0  0  0  0  0  0  0  0  0  0
   59.1225   33.2940   52.4665 H   0  0  0  0  0  0  0  0  0  0  0  0
   59.7816   33.9708   50.9387 H   0  0  0  0  0  0  0  0  0  0  0  0
   58.9893   32.3587   50.9387 H   0  0  0  0  0  0  0  0  0  0  0  0
   61.7558   32.9348   51.2699 H   0  0  0  0  0  0  0  0  0  0  0  0
   61.1460   32.4158   52.8885 H   0  0  0  0  0  0  0  0  0  0  0  0
   62.2777   30.9535   49.1094 H   0  0  0  0  0  0  0  0  0  0  0  0
   61.4299   30.1468   46.9141 H   0  0  0  0  0  0  0  0  0  0  0  0
   59.7309   27.1329   46.5129 H   0  0  0  0  0  0  0  0  0  0  0  0
   58.7734   26.4348   44.3099 H   0  0  0  0  0  0  0  0  0  0  0  0
   56.3861   30.1331   42.8381 H   0  0  0  0  0  0  0  0  0  0  0  0
   56.1491   31.0701   44.3588 H   0  0  0  0  0  0  0  0  0  0  0  0
   58.5551   31.2989   42.4742 H   0  0  0  0  0  0  0  0  0  0  0  0
   57.1764   32.4636   42.5897 H   0  0  0  0  0  0  0  0  0  0  0  0
   58.8735   31.7425   45.0122 H   0  0  0  0  0  0  0  0  0  0  0  0
   59.3399   33.0586   43.8513 H   0  0  0  0  0  0  0  0  0  0  0  0
   58.0948   35.1104   43.7941 H   0  0  0  0  0  0  0  0  0  0  0  0
   57.2596   35.4680   45.3644 H   0  0  0  0  0  0  0  0  0  0  0  0
   60.1818   34.8832   44.8261 H   0  0  0  0  0  0  0  0  0  0  0  0
   59.4231   36.1671   45.8396 H   0  0  0  0  0  0  0  0  0  0  0  0
   61.6246   33.3649   45.2940 H   0  0  0  0  0  0  0  0  0  0  0  0
   63.8860   32.7980   46.1804 H   0  0  0  0  0  0  0  0  0  0  0  0
   62.6000   33.8594   50.1707 H   0  0  0  0  0  0  0  0  0  0  0  0
   60.3359   34.4379   49.2910 H   0  0  0  0  0  0  0  0  0  0  0  0
   58.6019   33.0778   48.1944 H   0  0  0  0  0  0  0  0  0  0  0  0
   57.7702   34.6365   47.8131 H   0  0  0  0  0  0  0  0  0  0  0  0
   57.5590   31.9648   46.4937 H   0  0  0  0  0  0  0  0  0  0  0  0
   56.3561   33.3354   46.6511 H   0  0  0  0  0  0  0  0  0  0  0  0
   57.6070   29.2341   48.7319 H   0  0  0  0  0  0  0  0  0  0  0  0
   58.4587   30.0385   50.9271 H   0  0  0  0  0  0  0  0  0  0  0  0
  1  2  1  0
  2  3  1  0
  3  4  1  0
  4  5  2  0
  5  6  1  0
  6  7  2  0
  7  8  1  0
  8  9  1  0
  9 10  2  0
 10 11  1  0
 11 12  2  0
 11 13  1  0
 13 14  1  0
 14 15  1  0
 15 16  1  0
 16 17  1  0
 17 18  1  0
 18 19  1  0
 19 20  1  0
 20 21  1  0
 21 22  2  0
 22 23  1  0
 23 24  2  0
 24 25  1  0
 24 26  1  0
 26 27  2  0
 20 28  1  0
 28 29  1  0
 13 30  1  0
  7 31  1  0
 31 32  2  0
 32  4  1  0
 30  8  2  0
 29 17  1  0
 27 21  1  0
  1 33  1  0
  1 34  1  0
  1 35  1  0
  2 36  1  0
  2 37  1  0
  5 38  1  0
  6 39  1  0
  9 40  1  0
 10 41  1  0
 14 42  1  0
 14 43  1  0
 15 44  1  0
 15 45  1  0
 16 46  1  0
 16 47  1  0
 18 48  1  0
 18 49  1  0
 19 50  1  0
 19 51  1  0
 22 52  1  0
 23 53  1  0
 26 54  1  0
 27 55  1  0
 28 56  1  0
 28 57  1  0
 29 58  1  0
 29 59  1  0
 31 60  1  0
 32 61  1  0
M  END
>  <UniqueID>  (28) 
27

>  <SMILES>  (28) 
CCOc1ccc(-c2ccc(=O)n(CCCN3CCN(c4ccc(F)cc4)CC3)n2)cc1

>  <Energy>  (28) 
77.36164299368801

>  <Genealogy>  (28) 
CCOc1ccc(-c2ccc(=O)n(CCCN3CCN(c4ccc(F)cc4)CC3)n2)cc1 (3D coordinates assigned)
CCOc1ccc(-c2ccc(=O)n(CCCN3CCN(c4ccc(F)cc4)CC3)n2)cc1 (nonaromatic ring conformer: 77.36164299368801 kcal/mol)

>  <smiles>  (28) 
CCOc1ccc(-c2ccc(=O)n(CCCN3CCN(c4ccc(F)cc4)CC3)n2)cc1

>  <score_type>  (28) 
oracle

>  <origin>  (28) 
adg

>  <m_score__min__energy>  (28) 
-8.3699999999999992

>  <m_primary>  (28) 
energy

$$$$
28:0
     RDKit          3D

 62 65  0  0  0  0  0  0  0  0999 V2000
   66.4120   31.7900   50.4860 C   0  0  0  0  0  0  0  0  0  0  0  0
   65.3240   32.6830   49.8660 C   0  0  0  0  0  0  0  0  0  0  0  0
   64.7410   33.6830   50.7950 N   0  0  0  0  0  0  0  0  0  0  0  0
   65.7330   34.4160   51.6190 C   0  0  0  0  0  0  0  0  0  0  0  0
   65.1630   35.6240   52.3670 C   0  0  0  0  0  0  0  0  0  0  0  0
   63.5140   33.2450   51.4970 C   0  0  0  0  0  0  0  0  0  0  0  0
   62.2280   33.8440   50.8880 C   0  0  0  0  0  0  0  0  0  0  0  0
   62.3690   34.2320   49.4720 N   0  0  0  0  0  0  0  0  0  0  0  0
   61.5710   33.4040   48.5980 C   0  0  0  0  0  0  0  0  0  0  0  0
   60.7740   33.9900   47.5900 C   0  0  0  0  0  0  0  0  0  0  0  0
   59.9580   33.1970   46.7670 C   0  0  0  0  0  0  0  0  0  0  0  0
   59.9890   31.8040   46.9220 C   0  0  0  0  0  0  0  0  0  0  0  0
   60.7270   31.2350   47.9470 C   0  0  0  0  0  0  0  0  0  0  0  0
   61.5330   32.0080   48.7810 C   0  0  0  0  0  0  0  0  0  0  0  0
   60.4440   29.7790   48.0990 C   0  0  0  0  0  0  0  0  0  0  0  0
   59.4300   29.5820   47.0170 C   0  0  0  0  0  0  0  0  0  0  0  0
   58.7460   28.4030   46.7530 C   0  0  0  0  0  0  0  0  0  0  0  0
   57.8050   28.3620   45.7090 C   0  0  0  0  0  0  0  0  0  0  0  0
   57.0460   27.1570   45.4850 N   0  0  0  0  0  0  0  0  0  0  0  0
   57.1870   25.9510   46.3020 C   0  0  0  0  0  0  0  0  0  0  0  0
   55.8700   25.1730   46.3830 C   0  0  0  0  0  0  0  0  0  0  0  0
   54.7530   26.0010   45.9360 N   0  0  0  0  0  0  0  0  0  0  0  0
   57.6200   29.5120   44.8870 C   0  0  0  0  0  0  0  0  0  0  0  0
   56.7590   29.4770   43.7680 C   0  0  0  0  0  0  0  0  0  0  0  0
   56.6450   30.5800   42.9230 C   0  0  0  0  0  0  0  0  0  0  0  0
   57.4070   31.7210   43.1520 C   0  0  0  0  0  0  0  0  0  0  0  0
   58.2700   31.7820   44.2460 C   0  0  0  0  0  0  0  0  0  0  0  0
   58.3570   30.7100   45.1540 C   0  0  0  0  0  0  0  0  0  0  0  0
   59.2020   30.7360   46.2860 C   0  0  0  0  0  0  0  0  0  0  0  0
   66.3482   31.8423   51.5829 H   0  0  0  0  0  0  0  0  0  0  0  0
   66.2631   30.7503   50.1593 H   0  0  0  0  0  0  0  0  0  0  0  0
   67.4028   32.1387   50.1593 H   0  0  0  0  0  0  0  0  0  0  0  0
   65.7664   33.2221   49.0154 H   0  0  0  0  0  0  0  0  0  0  0  0
   64.5017   32.0139   49.5727 H   0  0  0  0  0  0  0  0  0  0  0  0
   66.1488   33.7172   52.3598 H   0  0  0  0  0  0  0  0  0  0  0  0
   66.4920   34.8056   50.9247 H   0  0  0  0  0  0  0  0  0  0  0  0
   65.2427   35.4551   53.4510 H   0  0  0  0  0  0  0  0  0  0  0  0
   65.7306   36.5257   52.0937 H   0  0  0  0  0  0  0  0  0  0  0  0
   64.1061   35.7592   52.0937 H   0  0  0  0  0  0  0  0  0  0  0  0
   63.4506   32.1482   51.4421 H   0  0  0  0  0  0  0  0  0  0  0  0
   63.5836   33.5992   52.5361 H   0  0  0  0  0  0  0  0  0  0  0  0
   61.4257   33.0954   50.9650 H   0  0  0  0  0  0  0  0  0  0  0  0
   62.0013   34.7608   51.4521 H   0  0  0  0  0  0  0  0  0  0  0  0
   63.3780   34.2040   49.1950 H   0  0  0  0  0  0  0  0  0  0  0  0
   62.0540   35.2240   49.3680 H   0  0  0  0  0  0  0  0  0  0  0  0
   60.7927   35.0806   47.4479 H   0  0  0  0  0  0  0  0  0  0  0  0
   59.3052   33.6612   46.0131 H   0  0  0  0  0  0  0  0  0  0  0  0
   62.1320   31.5337   49.5723 H   0  0  0  0  0  0  0  0  0  0  0  0
   61.3442   29.1706   47.9272 H   0  0  0  0  0  0  0  0  0  0  0  0
   60.1063   29.4807   49.1025 H   0  0  0  0  0  0  0  0  0  0  0  0
   58.9394   27.5049   47.3579 H   0  0  0  0  0  0  0  0  0  0  0  0
   56.3640   27.1240   44.6940 H   0  0  0  0  0  0  0  0  0  0  0  0
   57.9574   25.3048   45.8561 H   0  0  0  0  0  0  0  0  0  0  0  0
   57.4728   26.2542   47.3200 H   0  0  0  0  0  0  0  0  0  0  0  0
   55.9374   24.2812   45.7425 H   0  0  0  0  0  0  0  0  0  0  0  0
   55.6964   24.8795   47.4288 H   0  0  0  0  0  0  0  0  0  0  0  0
   54.6440   25.8770   44.9040 H   0  0  0  0  0  0  0  0  0  0  0  0
   53.8810   25.6190   46.3680 H   0  0  0  0  0  0  0  0  0  0  0  0
   56.1722   28.5699   43.5610 H   0  0  0  0  0  0  0  0  0  0  0  0
   55.9494   30.5479   42.0715 H   0  0  0  0  0  0  0  0  0  0  0  0
   57.3286   32.5786   42.4676 H   0  0  0  0  0  0  0  0  0  0  0  0
   58.8894   32.6777   44.4009 H   0  0  0  0  0  0  0  0  0  0  0  0
  1  2  1  0
  2  3  1  0
  3  4  1  0
  4  5  1  0
  3  6  1  0
  6  7  1  0
  7  8  1  0
  8  9  1  0
  9 10  2  0
 10 11  1  0
 11 12  2  0
 12 13  1  0
 13 14  2  0
 13 15  1  0
 15 16  1  0
 16 17  2  0
 17 18  1  0
 18 19  1  0
 19 20  1  0
 20 21  1  0
 21 22  1  0
 18 23  2  0
 23 24  1  0
 24 25  2  0
 25 26  1  0
 26 27  2  0
 27 28  1  0
 28 29  2  0
 14  9  1  0
 29 16  1  0
 29 12  1  0
 28 23  1  0
  1 30  1  0
  1 31  1  0
  1 32  1  0
  2 33  1  0
  2 34  1  0
  4 35  1  0
  4 36  1  0
  5 37  1  0
  5 38  1  0
  5 39  1  0
  6 40  1  0
  6 41  1  0
  7 42  1  0
  7 43  1  0
  8 44  1  0
  8 45  1  0
 10 46  1  0
 11 47  1  0
 14 48  1  0
 15 49  1  0
 15 50  1  0
 17 51  1  0
 19 52  1  0
 20 53  1  0
 20 54  1  0
 21 55  1  0
 21 56  1  0
 22 57  1  0
 22 58  1  0
 24 59  1  0
 25 60  1  0
 26 61  1  0
 27 62  1  0
M  CHG  1   8   1
M  END
>  <UniqueID>  (29) 
28

>  <SMILES>  (29) 
CCN(CC)CC[NH2+]c1ccc2c(c1)Cc1cc(NCCN)c3ccccc3c1-2

>  <Energy>  (29) 
102.65545384503204

>  <Genealogy>  (29) 
CCN(CC)CC[NH2+]c1ccc2c(c1)Cc1cc(NCCN)c3ccccc3c1-2 (protonated)
CCN(CC)CC[NH2+]c1ccc2c(c1)Cc1cc(NCCN)c3ccccc3c1-2 (3D coordinates assigned)
CCN(CC)CC[NH2+]c1ccc2c(c1)Cc1cc(NCCN)c3ccccc3c1-2 (nonaromatic ring conformer: 102.65545384503204 kcal/mol)

>  <smiles>  (29) 
CCN(CC)CCNc1ccc2c(c1)Cc1cc(NCCN)c3ccccc3c1-2

>  <score_type>  (29) 
oracle

>  <origin>  (29) 
adg

>  <m_score__min__energy>  (29) 
-7.6900000000000004

>  <m_primary>  (29) 
energy

$$$$
29:0
     RDKit          3D

 40 42  0  0  0  0  0  0  0  0999 V2000
   58.0990   26.3400   46.7450 C   0  0  0  0  0  0  0  0  0  0  0  0
   59.3440   26.8120   46.0040 C   0  0  0  0  0  0  0  0  0  0  0  0
   59.4390   28.2680   46.0570 N   0  0  0  0  0  0  0  0  0  0  0  0
   60.4070   28.9440   46.6670 N   0  0  0  0  0  0  0  0  0  0  0  0
   60.1470   30.2720   46.5730 C   0  0  0  0  0  0  0  0  0  0  0  0
   61.0090   31.3410   47.1620 C   0  0  0  0  0  0  0  0  0  0  0  0
   58.9440   30.4260   45.8990 C   0  0  0  0  0  0  0  0  0  0  0  0
   58.1600   31.5090   45.5080 C   0  0  0  0  0  0  0  0  0  0  0  0
   58.5230   32.8590   45.8130 N   0  0  0  0  0  0  0  0  0  0  0  0
   58.1440   33.4160   47.1170 C   0  0  0  0  0  0  0  0  0  0  0  0
   59.1040   34.5420   47.5670 C   0  0  0  0  0  0  0  0  0  0  0  0
   59.9940   35.0130   46.4930 N   0  0  0  0  0  0  0  0  0  0  0  0
   59.2680   35.1350   45.2280 C   0  0  0  0  0  0  0  0  0  0  0  0
   58.9250   33.7390   44.7120 C   0  0  0  0  0  0  0  0  0  0  0  0
   57.0130   31.2420   44.8150 N   0  0  0  0  0  0  0  0  0  0  0  0
   56.6260   29.9560   44.5280 C   0  0  0  0  0  0  0  0  0  0  0  0
   55.3830   29.7150   43.7410 C   0  0  0  0  0  0  0  0  0  0  0  0
   57.4040   28.9010   44.9150 N   0  0  0  0  0  0  0  0  0  0  0  0
   58.5470   29.1610   45.5950 C   0  0  0  0  0  0  0  0  0  0  0  0
   58.2710   26.4052   47.8295 H   0  0  0  0  0  0  0  0  0  0  0  0
   57.2452   26.9768   46.4702 H   0  0  0  0  0  0  0  0  0  0  0  0
   57.8820   25.2972   46.4702 H   0  0  0  0  0  0  0  0  0  0  0  0
   60.2358   26.3721   46.4744 H   0  0  0  0  0  0  0  0  0  0  0  0
   59.2791   26.4940   44.9530 H   0  0  0  0  0  0  0  0  0  0  0  0
   61.2260   28.5080   47.1470 H   0  0  0  0  0  0  0  0  0  0  0  0
   60.9639   31.2851   48.2597 H   0  0  0  0  0  0  0  0  0  0  0  0
   62.0480   31.1987   46.8300 H   0  0  0  0  0  0  0  0  0  0  0  0
   60.6497   32.3262   46.8300 H   0  0  0  0  0  0  0  0  0  0  0  0
   57.1253   33.8250   47.0460 H   0  0  0  0  0  0  0  0  0  0  0  0
   58.1969   32.6070   47.8605 H   0  0  0  0  0  0  0  0  0  0  0  0
   58.5028   35.3927   47.9204 H   0  0  0  0  0  0  0  0  0  0  0  0
   59.7428   34.1274   48.3608 H   0  0  0  0  0  0  0  0  0  0  0  0
   60.3490   35.9610   46.7590 H   0  0  0  0  0  0  0  0  0  0  0  0
   58.3418   35.7063   45.3885 H   0  0  0  0  0  0  0  0  0  0  0  0
   59.8937   35.6592   44.4907 H   0  0  0  0  0  0  0  0  0  0  0  0
   58.0978   33.8147   43.9909 H   0  0  0  0  0  0  0  0  0  0  0  0
   59.8172   33.3134   44.2295 H   0  0  0  0  0  0  0  0  0  0  0  0
   54.5398   29.5515   44.4282 H   0  0  0  0  0  0  0  0  0  0  0  0
   55.1751   30.5896   43.1070 H   0  0  0  0  0  0  0  0  0  0  0  0
   55.5170   28.8261   43.1070 H   0  0  0  0  0  0  0  0  0  0  0  0
  1  2  1  0
  2  3  1  0
  3  4  1  0
  4  5  2  0
  5  6  1  0
  5  7  1  0
  7  8  2  0
  8  9  1  0
  9 10  1  0
 10 11  1  0
 11 12  1  0
 12 13  1  0
 13 14  1  0
  8 15  1  0
 15 16  2  0
 16 17  1  0
 16 18  1  0
 18 19  2  0
 19  3  1  0
 19  7  1  0
 14  9  1  0
  1 20  1  0
  1 21  1  0
  1 22  1  0
  2 23  1  0
  2 24  1  0
  4 25  1  0
  6 26  1  0
  6 27  1  0
  6 28  1  0
 10 29  1  0
 10 30  1  0
 11 31  1  0
 11 32  1  0
 12 33  1  0
 13 34  1  0
 13 35  1  0
 14 36  1  0
 14 37  1  0
 17 38  1  0
 17 39  1  0
 17 40  1  0
M  CHG  1   4   1
M  END
>  <UniqueID>  (30) 
29

>  <SMILES>  (30) 
CCn1[nH+]c(C)c2c(N3CCNCC3)nc(C)nc21

>  <Energy>  (30) 
84.72049185628396

>  <Genealogy>  (30) 
CCn1[nH+]c(C)c2c(N3CCNCC3)nc(C)nc21 (protonated)
CCn1[nH+]c(C)c2c(N3CCNCC3)nc(C)nc21 (3D coordinates assigned)
CCn1[nH+]c(C)c2c(N3CCNCC3)nc(C)nc21 (nonaromatic ring conformer: 84.72049185628396 kcal/mol)

>  <smiles>  (30) 
CCn1nc(C)c2c(N3CCNCC3)nc(C)nc21

>  <score_type>  (30) 
oracle

>  <origin>  (30) 
adg

>  <m_score__min__energy>  (30) 
-4.96

>  <m_primary>  (30) 
energy

$$$$
30:0
     RDKit          3D

 50 51  0  0  0  0  0  0  0  0999 V2000
   55.8247   30.4941   43.4502 H   0  0  0  0  0  0  0  0  0  0  0  0
   56.9010   30.3070   43.5790 C   0  0  0  0  0  0  0  0  0  0  0  0
   57.7630   31.3240   43.4380 C   0  0  0  0  0  0  0  0  0  0  0  0
   58.6547   31.1930   42.8073 H   0  0  0  0  0  0  0  0  0  0  0  0
   57.5320   32.6430   44.1280 C   0  0  0  0  0  0  0  0  0  0  0  0
   57.2030   33.3839   43.3844 H   0  0  0  0  0  0  0  0  0  0  0  0
   56.7629   32.5008   44.9015 H   0  0  0  0  0  0  0  0  0  0  0  0
   58.7660   33.1300   44.7800 N   0  0  0  0  0  0  0  0  0  0  0  0
   58.7200   34.5990   44.9980 C   0  0  0  0  0  0  0  0  0  0  0  0
   59.0442   35.1070   44.0778 H   0  0  0  0  0  0  0  0  0  0  0  0
   57.6875   34.8768   45.2565 H   0  0  0  0  0  0  0  0  0  0  0  0
   59.6350   35.0260   46.1510 C   0  0  0  0  0  0  0  0  0  0  0  0
   60.6602   34.6874   45.9405 H   0  0  0  0  0  0  0  0  0  0  0  0
   59.6002   36.1220   46.2374 H   0  0  0  0  0  0  0  0  0  0  0  0
   59.1850   34.4380   47.4340 N   0  0  0  0  0  0  0  0  0  0  0  0
   60.2800   34.4540   48.4240 C   0  0  0  0  0  0  0  0  0  0  0  0
   60.7116   35.4647   48.4705 H   0  0  0  0  0  0  0  0  0  0  0  0
   59.8761   34.1693   49.4068 H   0  0  0  0  0  0  0  0  0  0  0  0
   61.3560   33.4720   48.0350 C   0  0  0  0  0  0  0  0  0  0  0  0
   62.4030   33.8570   47.1820 C   0  0  0  0  0  0  0  0  0  0  0  0
   62.4459   34.8864   46.7967 H   0  0  0  0  0  0  0  0  0  0  0  0
   63.3910   32.9360   46.8210 C   0  0  0  0  0  0  0  0  0  0  0  0
   64.2089   33.2419   46.1520 H   0  0  0  0  0  0  0  0  0  0  0  0
   63.3410   31.6270   47.3090 C   0  0  0  0  0  0  0  0  0  0  0  0
   64.1204   30.9044   47.0255 H   0  0  0  0  0  0  0  0  0  0  0  0
   62.3010   31.2360   48.1570 C   0  0  0  0  0  0  0  0  0  0  0  0
   62.2611   30.2052   48.5390 H   0  0  0  0  0  0  0  0  0  0  0  0
   61.3110   32.1550   48.5200 C   0  0  0  0  0  0  0  0  0  0  0  0
   60.4940   31.8448   49.1880 H   0  0  0  0  0  0  0  0  0  0  0  0
   58.5820   33.0880   47.2840 C   0  0  0  0  0  0  0  0  0  0  0  0
   58.8523   32.4815   48.1610 H   0  0  0  0  0  0  0  0  0  0  0  0
   57.4926   33.2159   47.2009 H   0  0  0  0  0  0  0  0  0  0  0  0
   59.0660   32.3640   46.0150 C   0  0  0  0  0  0  0  0  0  0  0  0
   60.1540   32.2173   46.0847 H   0  0  0  0  0  0  0  0  0  0  0  0
   58.5341   31.4032   45.9524 H   0  0  0  0  0  0  0  0  0  0  0  0
   57.3710   28.9120   43.9100 C   0  0  0  0  0  0  0  0  0  0  0  0
   58.3657   28.7628   43.4647 H   0  0  0  0  0  0  0  0  0  0  0  0
   56.6280   28.2104   43.5029 H   0  0  0  0  0  0  0  0  0  0  0  0
   57.4640   28.6610   45.3640 N   0  0  0  0  0  0  0  0  0  0  0  0
   57.0250   27.3150   45.7640 C   0  0  0  0  0  0  0  0  0  0  0  0
   57.0030   27.2476   46.8617 H   0  0  0  0  0  0  0  0  0  0  0  0
   56.0180   27.1240   45.3647 H   0  0  0  0  0  0  0  0  0  0  0  0
   57.7258   26.5670   45.3647 H   0  0  0  0  0  0  0  0  0  0  0  0
   58.7180   29.1320   46.0010 C   0  0  0  0  0  0  0  0  0  0  0  0
   58.8746   28.5490   46.9206 H   0  0  0  0  0  0  0  0  0  0  0  0
   58.5858   30.2081   46.1865 H   0  0  0  0  0  0  0  0  0  0  0  0
   59.9740   28.9950   45.1290 C   0  0  0  0  0  0  0  0  0  0  0  0
   60.8596   28.8984   45.7743 H   0  0  0  0  0  0  0  0  0  0  0  0
   59.8838   28.1014   44.4940 H   0  0  0  0  0  0  0  0  0  0  0  0
   60.0786   29.8871   44.4940 H   0  0  0  0  0  0  0  0  0  0  0  0
  1  2  1  0
  2  3  2  0
  3  4  1  0
  3  5  1  0
  5  6  1  0
  5  7  1  0
  5  8  1  0
  8  9  1  0
  9 10  1  0
  9 11  1  0
  9 12  1  0
 12 13  1  0
 12 14  1  0
 12 15  1  0
 15 16  1  0
 16 17  1  0
 16 18  1  0
 16 19  1  0
 19 20  2  0
 20 21  1  0
 20 22  1  0
 22 23  1  0
 22 24  2  0
 24 25  1  0
 24 26  1  0
 26 27  1  0
 26 28  2  0
 28 29  1  0
 15 30  1  0
 30 31  1  0
 30 32  1  0
 30 33  1  0
 33 34  1  0
 33 35  1  0
  2 36  1  0
 36 37  1  0
 36 38  1  0
 36 39  1  0
 39 40  1  0
 40 41  1  0
 40 42  1  0
 40 43  1  0
 39 44  1  0
 44 45  1  0
 44 46  1  0
 44 47  1  0
 47 48  1  0
 47 49  1  0
 47 50  1  0
 33  8  1  0
 28 19  1  0
M  END
>  <UniqueID>  (31) 
30

>  <SMILES>  (31) 
CCN(C)C/C=C/CN1CCN(Cc2ccccc2)CC1

>  <Energy>  (31) 
63.510082154567726

>  <Genealogy>  (31) 
CCN(C)C/C=C/CN1CCN(Cc2ccccc2)CC1 (cis-trans isomerization)
CCN(C)C/C=C/CN1CCN(Cc2ccccc2)CC1 (3D coordinates assigned)
CCN(C)C/C=C/CN1CCN(Cc2ccccc2)CC1 (nonaromatic ring conformer: 63.510082154567726 kcal/mol)

>  <smiles>  (31) 
CCN(C)CC=CCN1CCN(Cc2ccccc2)CC1

>  <score_type>  (31) 
oracle

>  <origin>  (31) 
adg

>  <m_score__min__energy>  (31) 
-6.75

>  <m_primary>  (31) 
energy

$$$$
