0:0
     RDKit          3D

 33 34  0  0  0  0  0  0  0  0999 V2000
   59.0069   32.4104   49.8762 H   0  0  0  0  0  0  0  0  0  0  0  0
   59.1720   33.0560   49.0010 C   0  0  0  0  0  0  0  0  0  0  0  0
   58.4690   33.0220   47.8930 O   0  0  0  0  0  0  0  0  0  0  0  0
   58.9390   33.9310   47.0700 C   0  0  0  0  0  0  0  0  0  0  0  0
   58.3750   34.1960   45.7030 C   0  0  0  0  0  0  0  0  0  0  0  0
   59.1999   34.2046   44.9754 H   0  0  0  0  0  0  0  0  0  0  0  0
   57.8574   35.1661   45.7344 H   0  0  0  0  0  0  0  0  0  0  0  0
   57.3950   33.1750   45.2960 N   0  0  0  0  0  0  0  0  0  0  0  0
   57.0050   32.6690   46.1240 H   0  0  0  0  0  0  0  0  0  0  0  0
   57.9070   32.2250   44.2940 C   0  0  0  0  0  0  0  0  0  0  0  0
   58.9926   32.3716   44.1936 H   0  0  0  0  0  0  0  0  0  0  0  0
   57.3786   32.4236   43.3499 H   0  0  0  0  0  0  0  0  0  0  0  0
   57.6480   30.7880   44.6640 C   0  0  0  0  0  0  0  0  0  0  0  0
   58.1560   30.0800   46.1080 S   0  0  0  0  0  0  0  0  0  0  0  0
   57.4480   28.6010   45.7540 C   0  0  0  0  0  0  0  0  0  0  0  0
   57.4590   27.5940   46.5780 N   0  0  0  0  0  0  0  0  0  0  0  0
   56.6580   26.4060   46.5020 C   0  0  0  0  0  0  0  0  0  0  0  0
   55.5100   26.4760   45.9920 O   0  0  0  0  0  0  0  0  0  0  0  0
   57.1060   25.1070   47.1010 C   0  0  0  0  0  0  0  0  0  0  0  0
   57.0805   25.1810   48.1982 H   0  0  0  0  0  0  0  0  0  0  0  0
   56.4341   24.3005   46.7722 H   0  0  0  0  0  0  0  0  0  0  0  0
   58.1322   24.8862   46.7722 H   0  0  0  0  0  0  0  0  0  0  0  0
   56.8140   28.6240   44.5580 N   0  0  0  0  0  0  0  0  0  0  0  0
   56.2470   27.8430   44.1640 H   0  0  0  0  0  0  0  0  0  0  0  0
   56.9370   29.8280   43.9310 C   0  0  0  0  0  0  0  0  0  0  0  0
   56.2820   30.0900   42.6100 C   0  0  0  0  0  0  0  0  0  0  0  0
   55.2722   30.4939   42.7751 H   0  0  0  0  0  0  0  0  0  0  0  0
   56.8799   30.8182   42.0423 H   0  0  0  0  0  0  0  0  0  0  0  0
   56.2128   29.1504   42.0423 H   0  0  0  0  0  0  0  0  0  0  0  0
   60.0060   34.5880   47.6520 C   0  0  0  0  0  0  0  0  0  0  0  0
   60.6132   35.3920   47.2106 H   0  0  0  0  0  0  0  0  0  0  0  0
   60.1500   34.0250   48.9010 C   0  0  0  0  0  0  0  0  0  0  0  0
   60.8945   34.2936   49.6649 H   0  0  0  0  0  0  0  0  0  0  0  0
  1  2  1  0
  2  3  1  0
  3  4  1  0
  4  5  1  0
  5  6  1  0
  5  7  1  0
  5  8  1  0
  8  9  1  0
  8 10  1  0
 10 11  1  0
 10 12  1  0
 10 13  1  0
 13 14  1  0
 14 15  1  0
 15 16  2  0
 16 17  1  0
 17 18  2  0
 17 19  1  0
 19 20  1  0
 19 21  1  0
 19 22  1  0
 15 23  1  0
 23 24  1  0
 23 25  1  0
 25 26  1  0
 26 27  1  0
 26 28  1  0
 26 29  1  0
  4 30  2  0
 30 31  1  0
 30 32  1  0
 32 33  1  0
 32  2  2  0
 25 13  2  0
M  END
>  <UniqueID>  (1) 
1

>  <SMILES>  (1) 
CC(=O)/N=c1\[nH]c(C)c(CNCc2ccco2)s1

>  <Energy>  (1) 
91.2724873504854

>  <Genealogy>  (1) 
CC(=O)/N=c1\[nH]c(C)c(CNCc2ccco2)s1 (cis-trans isomerization)
CC(=O)/N=c1\[nH]c(C)c(CNCc2ccco2)s1 (3D coordinates assigned)
CC(=O)/N=c1\[nH]c(C)c(CNCc2ccco2)s1 (optimized conformer: 91.2724873504854 kcal/mol)

>  <smiles>  (1) 
CC(=O)N=c1[nH]c(C)c(CNCc2ccco2)s1

>  <score_type>  (1) 
oracle

>  <origin>  (1) 
adg

>  <m_score__min__energy>  (1) 
-6.4000000000000004

>  <m_primary>  (1) 
energy

$$$$
1:0
     RDKit          3D

 31 32  0  0  0  0  0  0  0  0999 V2000
   56.2680   29.7310   42.3760 C   0  0  0  0  0  0  0  0  0  0  0  0
   56.8100   30.0770   43.7200 C   0  0  0  0  0  0  0  0  0  0  0  0
   56.3040   29.6200   44.8800 N   0  0  0  0  0  0  0  0  0  0  0  0
   57.0650   30.1230   45.8380 N   0  0  0  0  0  0  0  0  0  0  0  0
   58.0100   30.8640   45.2260 C   0  0  0  0  0  0  0  0  0  0  0  0
   59.0760   31.6080   45.9280 C   0  0  0  0  0  0  0  0  0  0  0  0
   60.1430   30.9160   46.5170 C   0  0  0  0  0  0  0  0  0  0  0  0
   61.1490   31.6110   47.1900 C   0  0  0  0  0  0  0  0  0  0  0  0
   61.1070   33.0080   47.2860 C   0  0  0  0  0  0  0  0  0  0  0  0
   62.1450   33.6930   48.0060 N   0  0  0  0  0  0  0  0  0  0  0  0
   61.8920   34.2320   49.3410 C   0  0  0  0  0  0  0  0  0  0  0  0
   63.4600   33.8570   47.3880 C   0  0  0  0  0  0  0  0  0  0  0  0
   60.0510   33.7190   46.6760 C   0  0  0  0  0  0  0  0  0  0  0  0
   59.9780   35.2200   46.7440 C   0  0  0  0  0  0  0  0  0  0  0  0
   59.0330   33.0090   46.0150 C   0  0  0  0  0  0  0  0  0  0  0  0
   57.8590   30.8370   43.9230 O   0  0  0  0  0  0  0  0  0  0  0  0
   55.3461   29.1425   42.4928 H   0  0  0  0  0  0  0  0  0  0  0  0
   56.0456   30.6546   41.8214 H   0  0  0  0  0  0  0  0  0  0  0  0
   57.0122   29.1405   41.8214 H   0  0  0  0  0  0  0  0  0  0  0  0
   60.1878   29.8191   46.4485 H   0  0  0  0  0  0  0  0  0  0  0  0
   61.9815   31.0574   47.6487 H   0  0  0  0  0  0  0  0  0  0  0  0
   62.2310   33.5098   50.0983 H   0  0  0  0  0  0  0  0  0  0  0  0
   62.4403   35.1775   49.4647 H   0  0  0  0  0  0  0  0  0  0  0  0
   60.8143   34.4143   49.4647 H   0  0  0  0  0  0  0  0  0  0  0  0
   64.2247   33.9524   48.1729 H   0  0  0  0  0  0  0  0  0  0  0  0
   63.6834   32.9798   46.7631 H   0  0  0  0  0  0  0  0  0  0  0  0
   63.4611   34.7622   46.7631 H   0  0  0  0  0  0  0  0  0  0  0  0
   59.9625   35.5390   47.7966 H   0  0  0  0  0  0  0  0  0  0  0  0
   60.8562   35.6529   46.2426 H   0  0  0  0  0  0  0  0  0  0  0  0
   59.0620   35.5656   46.2426 H   0  0  0  0  0  0  0  0  0  0  0  0
   58.1940   33.5568   45.5612 H   0  0  0  0  0  0  0  0  0  0  0  0
  1  2  1  0
  2  3  2  0
  3  4  1  0
  4  5  2  0
  5  6  1  0
  6  7  2  0
  7  8  1  0
  8  9  2  0
  9 10  1  0
 10 11  1  0
 10 12  1  0
  9 13  1  0
 13 14  1  0
 13 15  2  0
  5 16  1  0
 16  2  1  0
 15  6  1  0
  1 17  1  0
  1 18  1  0
  1 19  1  0
  7 20  1  0
  8 21  1  0
 11 22  1  0
 11 23  1  0
 11 24  1  0
 12 25  1  0
 12 26  1  0
 12 27  1  0
 14 28  1  0
 14 29  1  0
 14 30  1  0
 15 31  1  0
M  END
>  <UniqueID>  (2) 
2

>  <SMILES>  (2) 
Cc1nnc(-c2ccc(N(C)C)c(C)c2)o1

>  <Energy>  (2) 
67.36032085636819

>  <Genealogy>  (2) 
Cc1nnc(-c2ccc(N(C)C)c(C)c2)o1 (3D coordinates assigned)
Cc1nnc(-c2ccc(N(C)C)c(C)c2)o1 (optimized conformer: 67.36032085636819 kcal/mol)

>  <smiles>  (2) 
Cc1nnc(-c2ccc(N(C)C)c(C)c2)o1

>  <score_type>  (2) 
oracle

>  <origin>  (2) 
adg

>  <m_score__min__energy>  (2) 
-5.6799999999999997

>  <m_primary>  (2) 
energy

$$$$
2:0
     RDKit          3D

 46 48  0  0  0  0  0  0  0  0999 V2000
   57.3660   34.0410   44.7150 O   0  0  0  0  0  0  0  0  0  0  0  0
   57.7100   33.1050   45.4890 C   0  0  0  0  0  0  0  0  0  0  0  0
   57.0320   31.8450   45.4250 N   0  0  0  0  0  0  0  0  0  0  0  0
   57.1270   30.9260   44.2940 C   0  0  0  0  0  0  0  0  0  0  0  0
   58.4480   30.1340   44.3200 C   0  0  0  0  0  0  0  0  0  0  0  0
   58.8930   29.7440   45.6860 N   0  0  0  0  0  0  0  0  0  0  0  0
   60.3360   30.0250   45.8950 C   0  0  0  0  0  0  0  0  0  0  0  0
   60.8610   29.7280   47.3160 C   0  0  0  0  0  0  0  0  0  0  0  0
   59.9070   30.2420   48.4090 C   0  0  0  0  0  0  0  0  0  0  0  0
   58.5740   29.4830   48.4830 C   0  0  0  0  0  0  0  0  0  0  0  0
   58.4970   28.1800   47.6700 C   0  0  0  0  0  0  0  0  0  0  0  0
   58.4890   28.3840   46.1390 C   0  0  0  0  0  0  0  0  0  0  0  0
   58.8080   33.3110   46.4630 C   0  0  0  0  0  0  0  0  0  0  0  0
   58.5240   33.5180   47.8240 C   0  0  0  0  0  0  0  0  0  0  0  0
   59.5550   33.7090   48.7470 C   0  0  0  0  0  0  0  0  0  0  0  0
   60.8910   33.6940   48.3260 C   0  0  0  0  0  0  0  0  0  0  0  0
   61.9350   33.8840   49.2460 C   0  0  0  0  0  0  0  0  0  0  0  0
   63.2630   33.8670   48.8130 C   0  0  0  0  0  0  0  0  0  0  0  0
   63.5610   33.6610   47.4640 C   0  0  0  0  0  0  0  0  0  0  0  0
   62.5310   33.4710   46.5380 C   0  0  0  0  0  0  0  0  0  0  0  0
   61.1910   33.4860   46.9590 C   0  0  0  0  0  0  0  0  0  0  0  0
   60.1500   33.2950   46.0380 C   0  0  0  0  0  0  0  0  0  0  0  0
   56.2854   30.2190   44.3362 H   0  0  0  0  0  0  0  0  0  0  0  0
   57.0964   31.5160   43.3661 H   0  0  0  0  0  0  0  0  0  0  0  0
   58.3142   29.2184   43.7252 H   0  0  0  0  0  0  0  0  0  0  0  0
   59.2244   30.7962   43.9092 H   0  0  0  0  0  0  0  0  0  0  0  0
   58.4060   30.4040   46.3390 H   0  0  0  0  0  0  0  0  0  0  0  0
   60.9092   29.4113   45.1846 H   0  0  0  0  0  0  0  0  0  0  0  0
   60.4633   31.1067   45.7408 H   0  0  0  0  0  0  0  0  0  0  0  0
   60.9770   28.6401   47.4303 H   0  0  0  0  0  0  0  0  0  0  0  0
   61.8226   30.2486   47.4358 H   0  0  0  0  0  0  0  0  0  0  0  0
   60.4127   30.1483   49.3814 H   0  0  0  0  0  0  0  0  0  0  0  0
   59.6655   31.2848   48.1555 H   0  0  0  0  0  0  0  0  0  0  0  0
   58.3862   29.2337   49.5378 H   0  0  0  0  0  0  0  0  0  0  0  0
   57.8239   30.1549   48.0403 H   0  0  0  0  0  0  0  0  0  0  0  0
   59.3676   27.5600   47.9301 H   0  0  0  0  0  0  0  0  0  0  0  0
   57.5396   27.7041   47.9288 H   0  0  0  0  0  0  0  0  0  0  0  0
   59.1822   27.6554   45.6935 H   0  0  0  0  0  0  0  0  0  0  0  0
   57.4468   28.2475   45.8148 H   0  0  0  0  0  0  0  0  0  0  0  0
   57.4786   33.5297   48.1660 H   0  0  0  0  0  0  0  0  0  0  0  0
   59.3169   33.8718   49.8085 H   0  0  0  0  0  0  0  0  0  0  0  0
   61.7065   34.0465   50.3097 H   0  0  0  0  0  0  0  0  0  0  0  0
   64.0773   34.0164   49.5373 H   0  0  0  0  0  0  0  0  0  0  0  0
   64.6088   33.6482   47.1294 H   0  0  0  0  0  0  0  0  0  0  0  0
   62.7706   33.3093   45.4767 H   0  0  0  0  0  0  0  0  0  0  0  0
   60.3842   33.1315   44.9757 H   0  0  0  0  0  0  0  0  0  0  0  0
  1  2  2  0
  2  3  1  0
  3  4  1  0
  4  5  1  0
  5  6  1  0
  6  7  1  0
  7  8  1  0
  8  9  1  0
  9 10  1  0
 10 11  1  0
 11 12  1  0
  2 13  1  0
 13 14  2  0
 14 15  1  0
 15 16  2  0
 16 17  1  0
 17 18  2  0
 18 19  1  0
 19 20  2  0
 20 21  1  0
 21 22  2  0
 12  6  1  0
 22 13  1  0
 21 16  1  0
  4 23  1  0
  4 24  1  0
  5 25  1  0
  5 26  1  0
  6 27  1  0
  7 28  1  0
  7 29  1  0
  8 30  1  0
  8 31  1  0
  9 32  1  0
  9 33  1  0
 10 34  1  0
 10 35  1  0
 11 36  1  0
 11 37  1  0
 12 38  1  0
 12 39  1  0
 14 40  1  0
 15 41  1  0
 17 42  1  0
 18 43  1  0
 19 44  1  0
 20 45  1  0
 22 46  1  0
M  CHG  2   3  -1   6   1
M  END
>  <UniqueID>  (3) 
3

>  <SMILES>  (3) 
O=C([N-]CC[NH+]1CCCCCC1)c1ccc2ccccc2c1

>  <Energy>  (3) 
60.55425634283962

>  <Genealogy>  (3) 
O=C([N-]CC[NH+]1CCCCCC1)c1ccc2ccccc2c1 (protonated)
O=C([N-]CC[NH+]1CCCCCC1)c1ccc2ccccc2c1 (3D coordinates assigned)
O=C([N-]CC[NH+]1CCCCCC1)c1ccc2ccccc2c1 (nonaromatic ring conformer: 60.55425634283962 kcal/mol)

>  <smiles>  (3) 
O=C(NCCN1CCCCCC1)c1ccc2ccccc2c1

>  <score_type>  (3) 
oracle

>  <origin>  (3) 
adg

>  <m_score__min__energy>  (3) 
-5.4100000000000001

>  <m_primary>  (3) 
energy

$$$$
3:0
     RDKit          3D

 51 55  0  0  0  0  0  0  0  0999 V2000
   57.3120   30.6920   44.2190 C   0  0  0  0  0  0  0  0  0  0  0  0
   57.9450   30.1860   45.4920 C   0  0  0  0  0  0  0  0  0  0  0  0
   58.7160   31.0230   46.3470 C   0  0  0  0  0  0  0  0  0  0  0  0
   58.9000   32.4670   46.0720 C   0  0  0  0  0  0  0  0  0  0  0  0
   60.1170   33.0910   46.3870 C   0  0  0  0  0  0  0  0  0  0  0  0
   60.3010   34.4520   46.1170 C   0  0  0  0  0  0  0  0  0  0  0  0
   59.2700   35.2010   45.5430 C   0  0  0  0  0  0  0  0  0  0  0  0
   58.0480   34.5920   45.2490 C   0  0  0  0  0  0  0  0  0  0  0  0
   57.8580   33.2310   45.5200 C   0  0  0  0  0  0  0  0  0  0  0  0
   59.3300   30.4750   47.4460 N   0  0  0  0  0  0  0  0  0  0  0  0
   59.1870   29.1580   47.7760 C   0  0  0  0  0  0  0  0  0  0  0  0
   59.8710   28.6200   48.9190 N   0  0  0  0  0  0  0  0  0  0  0  0
   60.6730   27.3990   48.7960 C   0  0  0  0  0  0  0  0  0  0  0  0
   60.7730   26.7090   50.1600 C   0  0  0  0  0  0  0  0  0  0  0  0
   61.2180   27.6200   51.1490 O   0  0  0  0  0  0  0  0  0  0  0  0
   60.2400   28.6240   51.3420 C   0  0  0  0  0  0  0  0  0  0  0  0
   60.0920   29.4810   50.0820 C   0  0  0  0  0  0  0  0  0  0  0  0
   58.3940   28.3590   46.9520 C   0  0  0  0  0  0  0  0  0  0  0  0
   58.1800   27.0360   47.0940 N   0  0  0  0  0  0  0  0  0  0  0  0
   57.3990   26.7260   46.0320 C   0  0  0  0  0  0  0  0  0  0  0  0
   56.9490   25.3830   45.7240 N   0  0  0  0  0  0  0  0  0  0  0  0
   57.8770   24.4210   45.4170 C   0  0  0  0  0  0  0  0  0  0  0  0
   57.4880   23.1060   45.1520 C   0  0  0  0  0  0  0  0  0  0  0  0
   56.1390   22.7680   45.1980 C   0  0  0  0  0  0  0  0  0  0  0  0
   55.1940   23.7460   45.4900 C   0  0  0  0  0  0  0  0  0  0  0  0
   55.6110   25.0590   45.7420 C   0  0  0  0  0  0  0  0  0  0  0  0
   54.7330   25.9290   45.9880 O   0  0  0  0  0  0  0  0  0  0  0  0
   57.1640   27.8620   45.2670 C   0  0  0  0  0  0  0  0  0  0  0  0
   57.8070   28.8820   45.8630 N   0  0  0  0  0  0  0  0  0  0  0  0
   56.4748   31.3612   44.4666 H   0  0  0  0  0  0  0  0  0  0  0  0
   58.0607   31.2434   43.6312 H   0  0  0  0  0  0  0  0  0  0  0  0
   56.9391   29.8403   43.6312 H   0  0  0  0  0  0  0  0  0  0  0  0
   60.9287   32.5087   46.8475 H   0  0  0  0  0  0  0  0  0  0  0  0
   61.2602   34.9337   46.3574 H   0  0  0  0  0  0  0  0  0  0  0  0
   59.4208   36.2682   45.3232 H   0  0  0  0  0  0  0  0  0  0  0  0
   57.2334   35.1822   44.8039 H   0  0  0  0  0  0  0  0  0  0  0  0
   56.8894   32.7585   45.2998 H   0  0  0  0  0  0  0  0  0  0  0  0
   59.9090   31.0850   48.0670 H   0  0  0  0  0  0  0  0  0  0  0  0
   60.1953   26.7184   48.0758 H   0  0  0  0  0  0  0  0  0  0  0  0
   61.6821   27.6592   48.4439 H   0  0  0  0  0  0  0  0  0  0  0  0
   59.7825   26.3234   50.4434 H   0  0  0  0  0  0  0  0  0  0  0  0
   61.4966   25.8837   50.0873 H   0  0  0  0  0  0  0  0  0  0  0  0
   59.2748   28.1491   51.5717 H   0  0  0  0  0  0  0  0  0  0  0  0
   60.5541   29.2697   52.1753 H   0  0  0  0  0  0  0  0  0  0  0  0
   59.2352   30.1605   50.2012 H   0  0  0  0  0  0  0  0  0  0  0  0
   61.0112   30.0660   49.9310 H   0  0  0  0  0  0  0  0  0  0  0  0
   58.9432   24.6890   45.3789 H   0  0  0  0  0  0  0  0  0  0  0  0
   58.2424   22.3433   44.9088 H   0  0  0  0  0  0  0  0  0  0  0  0
   55.8215   21.7327   45.0045 H   0  0  0  0  0  0  0  0  0  0  0  0
   54.1248   23.4895   45.5228 H   0  0  0  0  0  0  0  0  0  0  0  0
   56.5644   27.9168   44.3464 H   0  0  0  0  0  0  0  0  0  0  0  0
  1  2  1  0
  2  3  2  0
  3  4  1  0
  4  5  2  0
  5  6  1  0
  6  7  2  0
  7  8  1  0
  8  9  2  0
  3 10  1  0
 10 11  2  0
 11 12  1  0
 12 13  1  0
 13 14  1  0
 14 15  1  0
 15 16  1  0
 16 17  1  0
 11 18  1  0
 18 19  2  0
 19 20  1  0
 20 21  1  0
 21 22  1  0
 22 23  2  0
 23 24  1  0
 24 25  2  0
 25 26  1  0
 26 27  2  0
 20 28  2  0
 28 29  1  0
 29  2  1  0
  9  4  1  0
 17 12  1  0
 29 18  1  0
 26 21  1  0
  1 30  1  0
  1 31  1  0
  1 32  1  0
  5 33  1  0
  6 34  1  0
  7 35  1  0
  8 36  1  0
  9 37  1  0
 10 38  1  0
 13 39  1  0
 13 40  1  0
 14 41  1  0
 14 42  1  0
 16 43  1  0
 16 44  1  0
 17 45  1  0
 17 46  1  0
 22 47  1  0
 23 48  1  0
 24 49  1  0
 25 50  1  0
 28 51  1  0
M  CHG  1  10   1
M  END
>  <UniqueID>  (4) 
4

>  <SMILES>  (4) 
Cc1c(-c2ccccc2)[nH+]c(N2CCOCC2)c2nc(-n3ccccc3=O)cn12

>  <Energy>  (4) 
112.33571807700858

>  <Genealogy>  (4) 
Cc1c(-c2ccccc2)[nH+]c(N2CCOCC2)c2nc(-n3ccccc3=O)cn12 (protonated)
Cc1c(-c2ccccc2)[nH+]c(N2CCOCC2)c2nc(-n3ccccc3=O)cn12 (3D coordinates assigned)
Cc1c(-c2ccccc2)[nH+]c(N2CCOCC2)c2nc(-n3ccccc3=O)cn12 (nonaromatic ring conformer: 112.33571807700858 kcal/mol)

>  <smiles>  (4) 
Cc1c(-c2ccccc2)nc(N2CCOCC2)c2nc(-n3ccccc3=O)cn12

>  <score_type>  (4) 
oracle

>  <origin>  (4) 
adg

>  <m_score__min__energy>  (4) 
-6.8200000000000003

>  <m_primary>  (4) 
energy

$$$$
4:0
     RDKit          3D

 28 30  0  0  0  0  0  0  0  0999 V2000
   56.8912   30.4929   42.0583 H   0  0  0  0  0  0  0  0  0  0  0  0
   57.2480   31.1060   42.8990 C   0  0  0  0  0  0  0  0  0  0  0  0
   57.7630   32.3290   42.7910 C   0  0  0  0  0  0  0  0  0  0  0  0
   57.9028   32.8872   41.8535 H   0  0  0  0  0  0  0  0  0  0  0  0
   58.1100   32.8030   44.1240 C   0  0  0  0  0  0  0  0  0  0  0  0
   58.6750   34.0200   44.5020 C   0  0  0  0  0  0  0  0  0  0  0  0
   58.9216   34.7853   43.7514 H   0  0  0  0  0  0  0  0  0  0  0  0
   58.9210   34.2430   45.8660 C   0  0  0  0  0  0  0  0  0  0  0  0
   59.3657   35.1943   46.1935 H   0  0  0  0  0  0  0  0  0  0  0  0
   58.6010   33.2540   46.8180 C   0  0  0  0  0  0  0  0  0  0  0  0
   58.7988   33.4383   47.8843 H   0  0  0  0  0  0  0  0  0  0  0  0
   58.0310   32.0340   46.4150 C   0  0  0  0  0  0  0  0  0  0  0  0
   57.7810   31.2566   47.1520 H   0  0  0  0  0  0  0  0  0  0  0  0
   57.7900   31.8350   45.0500 C   0  0  0  0  0  0  0  0  0  0  0  0
   57.2280   30.6970   44.3170 C   0  0  0  0  0  0  0  0  0  0  0  0
   56.7310   29.5570   44.8300 C   0  0  0  0  0  0  0  0  0  0  0  0
   55.3900   29.3530   44.8410 F   0  0  0  0  0  0  0  0  0  0  0  0
   57.5880   28.4670   45.3430 C   0  0  0  0  0  0  0  0  0  0  0  0
   58.9820   28.5640   45.2100 C   0  0  0  0  0  0  0  0  0  0  0  0
   59.4270   29.4592   44.7512 H   0  0  0  0  0  0  0  0  0  0  0  0
   59.8080   27.5280   45.6580 C   0  0  0  0  0  0  0  0  0  0  0  0
   60.9003   27.6167   45.5636 H   0  0  0  0  0  0  0  0  0  0  0  0
   59.2480   26.3810   46.2250 C   0  0  0  0  0  0  0  0  0  0  0  0
   59.8997   25.5702   46.5827 H   0  0  0  0  0  0  0  0  0  0  0  0
   57.8600   26.2630   46.3380 C   0  0  0  0  0  0  0  0  0  0  0  0
   57.4194   25.3562   46.7780 H   0  0  0  0  0  0  0  0  0  0  0  0
   57.0310   27.2970   45.8920 C   0  0  0  0  0  0  0  0  0  0  0  0
   55.9385   27.1954   45.9706 H   0  0  0  0  0  0  0  0  0  0  0  0
  1  2  1  0
  2  3  2  0
  3  4  1  0
  3  5  1  0
  5  6  2  0
  6  7  1  0
  6  8  1  0
  8  9  1  0
  8 10  2  0
 10 11  1  0
 10 12  1  0
 12 13  1  0
 12 14  2  0
 14 15  1  0
 15 16  2  0
 16 17  1  0
 16 18  1  0
 18 19  2  0
 19 20  1  0
 19 21  1  0
 21 22  1  0
 21 23  2  0
 23 24  1  0
 23 25  1  0
 25 26  1  0
 25 27  2  0
 27 28  1  0
 15  2  1  0
 27 18  1  0
 14  5  1  0
M  END
>  <UniqueID>  (5) 
5

>  <SMILES>  (5) 
F/C(=C1/C=Cc2ccccc21)c1ccccc1

>  <Energy>  (5) 
64.24424871460266

>  <Genealogy>  (5) 
F/C(=C1/C=Cc2ccccc21)c1ccccc1 (cis-trans isomerization)
F/C(=C1/C=Cc2ccccc21)c1ccccc1 (3D coordinates assigned)
F/C(=C1/C=Cc2ccccc21)c1ccccc1 (nonaromatic ring conformer: 64.24424871460266 kcal/mol)

>  <smiles>  (5) 
FC(=C1C=Cc2ccccc21)c1ccccc1

>  <score_type>  (5) 
oracle

>  <origin>  (5) 
adg

>  <m_score__min__energy>  (5) 
-7.3499999999999996

>  <m_primary>  (5) 
energy

$$$$
5:0
     RDKit          3D

 29 32  0  0  0  0  0  0  0  0999 V2000
   55.0970   30.0900   43.8480 O   0  0  0  0  0  0  0  0  0  0  0  0
   56.1520   30.3270   44.4960 C   0  0  0  0  0  0  0  0  0  0  0  0
   56.6390   31.5970   44.5820 N   0  0  0  0  0  0  0  0  0  0  0  0
   57.7830   31.8660   45.2820 C   0  0  0  0  0  0  0  0  0  0  0  0
   58.2720   33.1750   45.3610 C   0  0  0  0  0  0  0  0  0  0  0  0
   59.4410   33.4440   46.0800 C   0  0  0  0  0  0  0  0  0  0  0  0
   60.1300   32.4090   46.7230 C   0  0  0  0  0  0  0  0  0  0  0  0
   59.6550   31.0950   46.6540 C   0  0  0  0  0  0  0  0  0  0  0  0
   58.4830   30.8190   45.9360 C   0  0  0  0  0  0  0  0  0  0  0  0
   57.9430   29.5380   45.8190 C   0  0  0  0  0  0  0  0  0  0  0  0
   58.4230   28.3970   46.3460 N   0  0  0  0  0  0  0  0  0  0  0  0
   57.5060   27.4890   45.9120 C   0  0  0  0  0  0  0  0  0  0  0  0
   57.5740   26.0460   46.2240 C   0  0  0  0  0  0  0  0  0  0  0  0
   56.6430   25.4610   47.1020 C   0  0  0  0  0  0  0  0  0  0  0  0
   56.7100   24.0950   47.3950 C   0  0  0  0  0  0  0  0  0  0  0  0
   57.7050   23.3020   46.8180 C   0  0  0  0  0  0  0  0  0  0  0  0
   57.7690   21.9450   47.1100 O   0  0  0  0  0  0  0  0  0  0  0  0
   58.6340   23.8730   45.9440 C   0  0  0  0  0  0  0  0  0  0  0  0
   58.5710   25.2390   45.6480 C   0  0  0  0  0  0  0  0  0  0  0  0
   56.5230   28.0480   45.1620 N   0  0  0  0  0  0  0  0  0  0  0  0
   56.8240   29.3300   45.1220 N   0  0  0  0  0  0  0  0  0  0  0  0
   57.7363   33.9930   44.8571 H   0  0  0  0  0  0  0  0  0  0  0  0
   59.8211   34.4745   46.1406 H   0  0  0  0  0  0  0  0  0  0  0  0
   61.0493   32.6299   47.2852 H   0  0  0  0  0  0  0  0  0  0  0  0
   60.1979   30.2832   47.1601 H   0  0  0  0  0  0  0  0  0  0  0  0
   55.8585   26.0811   47.5603 H   0  0  0  0  0  0  0  0  0  0  0  0
   55.9778   23.6442   48.0811 H   0  0  0  0  0  0  0  0  0  0  0  0
   59.4158   23.2477   45.4882 H   0  0  0  0  0  0  0  0  0  0  0  0
   59.3056   25.6841   44.9608 H   0  0  0  0  0  0  0  0  0  0  0  0
  1  2  2  0
  2  3  1  0
  3  4  1  0
  4  5  2  0
  5  6  1  0
  6  7  2  0
  7  8  1  0
  8  9  2  0
  9 10  1  0
 10 11  2  0
 11 12  1  0
 12 13  1  0
 13 14  2  0
 14 15  1  0
 15 16  2  0
 16 17  1  0
 16 18  1  0
 18 19  2  0
 12 20  2  0
 20 21  1  0
 21  2  1  0
  9  4  1  0
 21 10  1  0
 19 13  1  0
  5 22  1  0
  6 23  1  0
  7 24  1  0
  8 25  1  0
 14 26  1  0
 15 27  1  0
 18 28  1  0
 19 29  1  0
M  CHG  2   3  -1  17  -1
M  END
>  <UniqueID>  (6) 
6

>  <SMILES>  (6) 
O=c1[n-]c2ccccc2c2nc(-c3ccc([O-])cc3)nn12

>  <Energy>  (6) 
77.16403506942218

>  <Genealogy>  (6) 
O=c1[n-]c2ccccc2c2nc(-c3ccc([O-])cc3)nn12 (protonated)
O=c1[n-]c2ccccc2c2nc(-c3ccc([O-])cc3)nn12 (3D coordinates assigned)
O=c1[n-]c2ccccc2c2nc(-c3ccc([O-])cc3)nn12 (optimized conformer: 77.16403506942218 kcal/mol)

>  <smiles>  (6) 
O=c1[nH]c2ccccc2c2nc(-c3ccc(O)cc3)nn12

>  <score_type>  (6) 
oracle

>  <origin>  (6) 
adg

>  <m_score__min__energy>  (6) 
-10.52

>  <m_primary>  (6) 
energy

$$$$
6:0
     RDKit          3D

 37 40  0  0  0  0  0  0  0  0999 V2000
   60.6710   26.8790   49.3810 C   0  0  0  0  0  0  0  0  0  0  0  0
   60.2500   27.9770   48.5190 N   0  0  0  0  0  0  0  0  0  0  0  0
   60.6260   29.2760   48.6080 C   0  0  0  0  0  0  0  0  0  0  0  0
   59.9840   30.0590   47.7100 N   0  0  0  0  0  0  0  0  0  0  0  0
   59.1750   29.2160   47.0390 C   0  0  0  0  0  0  0  0  0  0  0  0
   58.2450   29.5070   46.0320 C   0  0  0  0  0  0  0  0  0  0  0  0
   58.0770   30.8720   45.4820 C   0  0  0  0  0  0  0  0  0  0  0  0
   58.1060   31.9910   46.3310 C   0  0  0  0  0  0  0  0  0  0  0  0
   57.9610   33.2800   45.8050 C   0  0  0  0  0  0  0  0  0  0  0  0
   57.7920   33.4600   44.4310 C   0  0  0  0  0  0  0  0  0  0  0  0
   57.7720   32.3530   43.5780 C   0  0  0  0  0  0  0  0  0  0  0  0
   57.9160   31.0640   44.0990 C   0  0  0  0  0  0  0  0  0  0  0  0
   57.4550   28.4350   45.5560 C   0  0  0  0  0  0  0  0  0  0  0  0
   57.6130   27.1170   46.0680 C   0  0  0  0  0  0  0  0  0  0  0  0
   56.7810   25.9930   45.5690 C   0  0  0  0  0  0  0  0  0  0  0  0
   57.2690   25.0720   44.6270 C   0  0  0  0  0  0  0  0  0  0  0  0
   56.4340   24.0370   44.2060 C   0  0  0  0  0  0  0  0  0  0  0  0
   55.1780   23.9300   44.7090 N   0  0  0  0  0  0  0  0  0  0  0  0
   54.7180   24.8190   45.6260 C   0  0  0  0  0  0  0  0  0  0  0  0
   55.5160   25.8350   46.0480 N   0  0  0  0  0  0  0  0  0  0  0  0
   58.5620   26.8810   47.0890 C   0  0  0  0  0  0  0  0  0  0  0  0
   59.3250   27.9550   47.5420 C   0  0  0  0  0  0  0  0  0  0  0  0
   60.5574   27.1754   50.4342 H   0  0  0  0  0  0  0  0  0  0  0  0
   60.0480   25.9951   49.1796 H   0  0  0  0  0  0  0  0  0  0  0  0
   61.7252   26.6382   49.1796 H   0  0  0  0  0  0  0  0  0  0  0  0
   61.3683   29.6511   49.3279 H   0  0  0  0  0  0  0  0  0  0  0  0
   60.0770   31.0940   47.6030 H   0  0  0  0  0  0  0  0  0  0  0  0
   58.2432   31.8536   47.4137 H   0  0  0  0  0  0  0  0  0  0  0  0
   57.9802   34.1522   46.4751 H   0  0  0  0  0  0  0  0  0  0  0  0
   57.6745   34.4734   44.0196 H   0  0  0  0  0  0  0  0  0  0  0  0
   57.6427   32.4964   42.4951 H   0  0  0  0  0  0  0  0  0  0  0  0
   57.9033   30.1959   43.4236 H   0  0  0  0  0  0  0  0  0  0  0  0
   56.7039   28.6238   44.7749 H   0  0  0  0  0  0  0  0  0  0  0  0
   58.2902   25.1653   44.2290 H   0  0  0  0  0  0  0  0  0  0  0  0
   56.7937   23.3071   43.4659 H   0  0  0  0  0  0  0  0  0  0  0  0
   53.6990   24.7170   46.0276 H   0  0  0  0  0  0  0  0  0  0  0  0
   58.6945   25.8754   47.5147 H   0  0  0  0  0  0  0  0  0  0  0  0
  1  2  1  0
  2  3  1  0
  3  4  2  0
  4  5  1  0
  5  6  2  0
  6  7  1  0
  7  8  2  0
  8  9  1  0
  9 10  2  0
 10 11  1  0
 11 12  2  0
  6 13  1  0
 13 14  2  0
 14 15  1  0
 15 16  2  0
 16 17  1  0
 17 18  2  0
 18 19  1  0
 19 20  2  0
 14 21  1  0
 21 22  2  0
 22  2  1  0
 22  5  1  0
 12  7  1  0
 20 15  1  0
  1 23  1  0
  1 24  1  0
  1 25  1  0
  3 26  1  0
  4 27  1  0
  8 28  1  0
  9 29  1  0
 10 30  1  0
 11 31  1  0
 12 32  1  0
 13 33  1  0
 16 34  1  0
 17 35  1  0
 19 36  1  0
 21 37  1  0
M  CHG  1   4   1
M  END
>  <UniqueID>  (7) 
7

>  <SMILES>  (7) 
Cn1c[nH+]c2c(-c3ccccc3)cc(-c3ccncn3)cc21

>  <Energy>  (7) 
90.51694657827797

>  <Genealogy>  (7) 
Cn1c[nH+]c2c(-c3ccccc3)cc(-c3ccncn3)cc21 (protonated)
Cn1c[nH+]c2c(-c3ccccc3)cc(-c3ccncn3)cc21 (3D coordinates assigned)
Cn1c[nH+]c2c(-c3ccccc3)cc(-c3ccncn3)cc21 (optimized conformer: 90.51694657827797 kcal/mol)

>  <smiles>  (7) 
Cn1cnc2c(-c3ccccc3)cc(-c3ccncn3)cc21

>  <score_type>  (7) 
oracle

>  <origin>  (7) 
adg

>  <m_score__min__energy>  (7) 
-5.6100000000000003

>  <m_primary>  (7) 
energy

$$$$
7:0
     RDKit          3D

 34 35  0  0  0  0  0  0  0  0999 V2000
   55.1370   30.4680   45.2300 H   0  0  0  0  0  0  0  0  0  0  0  0
   55.3830   29.4960   45.0850 O   0  0  0  0  0  0  0  0  0  0  0  0
   56.6940   29.0440   45.2310 C   0  0  0  0  0  0  0  0  0  0  0  0
   57.7680   29.8740   44.8680 C   0  0  0  0  0  0  0  0  0  0  0  0
   57.5050   31.2370   44.3610 C   0  0  0  0  0  0  0  0  0  0  0  0
   58.0447   31.5706   43.4624 H   0  0  0  0  0  0  0  0  0  0  0  0
   56.6690   32.0650   44.9200 N   0  0  0  0  0  0  0  0  0  0  0  0
   56.9960   33.1640   45.8300 C   0  0  0  0  0  0  0  0  0  0  0  0
   57.5346   32.7625   46.7010 H   0  0  0  0  0  0  0  0  0  0  0  0
   56.0607   33.6484   46.1471 H   0  0  0  0  0  0  0  0  0  0  0  0
   57.8780   34.2090   45.1310 C   0  0  0  0  0  0  0  0  0  0  0  0
   57.2981   35.1360   45.0112 H   0  0  0  0  0  0  0  0  0  0  0  0
   58.1820   33.7921   44.1595 H   0  0  0  0  0  0  0  0  0  0  0  0
   59.1560   34.5270   45.9210 C   0  0  0  0  0  0  0  0  0  0  0  0
   59.3361   35.6113   45.8770 H   0  0  0  0  0  0  0  0  0  0  0  0
   59.9792   33.9586   45.4634 H   0  0  0  0  0  0  0  0  0  0  0  0
   59.0640   34.1060   47.3870 C   0  0  0  0  0  0  0  0  0  0  0  0
   59.2543   34.9770   48.0313 H   0  0  0  0  0  0  0  0  0  0  0  0
   58.0583   33.7107   47.5925 H   0  0  0  0  0  0  0  0  0  0  0  0
   59.8132   33.3272   47.5925 H   0  0  0  0  0  0  0  0  0  0  0  0
   59.0860   29.4270   45.0470 C   0  0  0  0  0  0  0  0  0  0  0  0
   59.9266   30.0917   44.7988 H   0  0  0  0  0  0  0  0  0  0  0  0
   59.3390   28.1390   45.5400 C   0  0  0  0  0  0  0  0  0  0  0  0
   60.6550   27.6810   45.7030 C   0  0  0  0  0  0  0  0  0  0  0  0
   61.5002   28.3353   45.4434 H   0  0  0  0  0  0  0  0  0  0  0  0
   60.8940   26.3940   46.1950 C   0  0  0  0  0  0  0  0  0  0  0  0
   61.9273   26.0379   46.3194 H   0  0  0  0  0  0  0  0  0  0  0  0
   59.8250   25.5590   46.5290 C   0  0  0  0  0  0  0  0  0  0  0  0
   60.0194   24.5472   46.9144 H   0  0  0  0  0  0  0  0  0  0  0  0
   58.5090   26.0050   46.3750 C   0  0  0  0  0  0  0  0  0  0  0  0
   57.6706   25.3449   46.6421 H   0  0  0  0  0  0  0  0  0  0  0  0
   58.2560   27.2940   45.8800 C   0  0  0  0  0  0  0  0  0  0  0  0
   56.9410   27.7570   45.7290 C   0  0  0  0  0  0  0  0  0  0  0  0
   56.0977   27.1061   46.0031 H   0  0  0  0  0  0  0  0  0  0  0  0
  1  2  1  0
  2  3  1  0
  3  4  2  0
  4  5  1  0
  5  6  1  0
  5  7  2  0
  7  8  1  0
  8  9  1  0
  8 10  1  0
  8 11  1  0
 11 12  1  0
 11 13  1  0
 11 14  1  0
 14 15  1  0
 14 16  1  0
 14 17  1  0
 17 18  1  0
 17 19  1  0
 17 20  1  0
  4 21  1  0
 21 22  1  0
 21 23  2  0
 23 24  1  0
 24 25  1  0
 24 26  2  0
 26 27  1  0
 26 28  1  0
 28 29  1  0
 28 30  2  0
 30 31  1  0
 30 32  1  0
 32 33  2  0
 33 34  1  0
 33  3  1  0
 32 23  1  0
M  END
>  <UniqueID>  (8) 
8

>  <SMILES>  (8) 
CCCC/N=C\c1cc2ccccc2cc1O

>  <Energy>  (8) 
37.69518235014986

>  <Genealogy>  (8) 
CCCC/N=C\c1cc2ccccc2cc1O (cis-trans isomerization)
CCCC/N=C\c1cc2ccccc2cc1O (3D coordinates assigned)
CCCC/N=C\c1cc2ccccc2cc1O (optimized conformer: 37.69518235014986 kcal/mol)

>  <smiles>  (8) 
CCCCN=Cc1cc2ccccc2cc1O

>  <score_type>  (8) 
oracle

>  <origin>  (8) 
adg

>  <m_score__min__energy>  (8) 
-6.8200000000000003

>  <m_primary>  (8) 
energy

$$$$
8:0
     RDKit          3D

 48 51  0  0  0  0  0  0  0  0999 V2000
   57.8540   30.4180   45.3090 C   0  0  0  0  0  0  0  0  0  0  0  0
   58.2050   31.8610   45.5310 C   0  0  0  0  0  0  0  0  0  0  0  0
   57.3870   32.8750   45.0110 C   0  0  0  0  0  0  0  0  0  0  0  0
   57.7290   34.2170   45.1950 C   0  0  0  0  0  0  0  0  0  0  0  0
   58.8970   34.5560   45.8830 C   0  0  0  0  0  0  0  0  0  0  0  0
   59.7410   33.5520   46.3850 C   0  0  0  0  0  0  0  0  0  0  0  0
   60.9430   33.9010   47.0990 N   0  0  0  0  0  0  0  0  0  0  0  0
   60.8630   34.2300   48.5310 C   0  0  0  0  0  0  0  0  0  0  0  0
   62.2520   34.2890   49.1790 C   0  0  0  0  0  0  0  0  0  0  0  0
   63.0890   33.1950   48.6730 N   0  0  0  0  0  0  0  0  0  0  0  0
   63.9320   32.4700   49.5780 C   0  0  0  0  0  0  0  0  0  0  0  0
   65.2480   32.8970   49.7750 C   0  0  0  0  0  0  0  0  0  0  0  0
   66.0850   32.2000   50.6550 C   0  0  0  0  0  0  0  0  0  0  0  0
   67.5100   32.6360   50.8350 C   0  0  0  0  0  0  0  0  0  0  0  0
   65.6220   31.0900   51.2990 N   0  0  0  0  0  0  0  0  0  0  0  0
   64.3410   30.6490   51.1350 C   0  0  0  0  0  0  0  0  0  0  0  0
   63.8900   29.5120   51.8250 C   0  0  0  0  0  0  0  0  0  0  0  0
   62.5770   29.0640   51.6620 C   0  0  0  0  0  0  0  0  0  0  0  0
   61.7040   29.7440   50.8120 C   0  0  0  0  0  0  0  0  0  0  0  0
   62.1370   30.8760   50.1170 C   0  0  0  0  0  0  0  0  0  0  0  0
   63.4590   31.3370   50.2670 C   0  0  0  0  0  0  0  0  0  0  0  0
   63.1840   32.9210   47.2340 C   0  0  0  0  0  0  0  0  0  0  0  0
   62.2530   33.8360   46.4370 C   0  0  0  0  0  0  0  0  0  0  0  0
   59.3870   32.2040   46.2050 C   0  0  0  0  0  0  0  0  0  0  0  0
   57.7321   29.9167   46.2805 H   0  0  0  0  0  0  0  0  0  0  0  0
   56.9137   30.3524   44.7419 H   0  0  0  0  0  0  0  0  0  0  0  0
   58.6591   29.9278   44.7419 H   0  0  0  0  0  0  0  0  0  0  0  0
   56.4737   32.6128   44.4568 H   0  0  0  0  0  0  0  0  0  0  0  0
   57.0772   35.0088   44.7973 H   0  0  0  0  0  0  0  0  0  0  0  0
   59.1567   35.6144   46.0322 H   0  0  0  0  0  0  0  0  0  0  0  0
   60.3748   35.2091   48.6449 H   0  0  0  0  0  0  0  0  0  0  0  0
   60.2846   33.4399   49.0321 H   0  0  0  0  0  0  0  0  0  0  0  0
   62.7259   35.2519   48.9376 H   0  0  0  0  0  0  0  0  0  0  0  0
   62.1463   34.1881   50.2692 H   0  0  0  0  0  0  0  0  0  0  0  0
   65.6261   33.7801   49.2391 H   0  0  0  0  0  0  0  0  0  0  0  0
   67.7392   32.7061   51.9086 H   0  0  0  0  0  0  0  0  0  0  0  0
   68.1803   31.9019   50.3642 H   0  0  0  0  0  0  0  0  0  0  0  0
   67.6548   33.6195   50.3642 H   0  0  0  0  0  0  0  0  0  0  0  0
   66.2680   30.5680   51.9340 H   0  0  0  0  0  0  0  0  0  0  0  0
   64.5736   28.9720   52.4966 H   0  0  0  0  0  0  0  0  0  0  0  0
   62.2303   28.1726   52.2053 H   0  0  0  0  0  0  0  0  0  0  0  0
   60.6708   29.3874   50.6886 H   0  0  0  0  0  0  0  0  0  0  0  0
   61.4429   31.4089   49.4505 H   0  0  0  0  0  0  0  0  0  0  0  0
   64.2201   33.0873   46.9042 H   0  0  0  0  0  0  0  0  0  0  0  0
   62.8847   31.8775   47.0564 H   0  0  0  0  0  0  0  0  0  0  0  0
   62.6876   34.8452   46.3848 H   0  0  0  0  0  0  0  0  0  0  0  0
   62.1295   33.4360   45.4198 H   0  0  0  0  0  0  0  0  0  0  0  0
   60.0419   31.4112   46.5957 H   0  0  0  0  0  0  0  0  0  0  0  0
  1  2  1  0
  2  3  2  0
  3  4  1  0
  4  5  2  0
  5  6  1  0
  6  7  1  0
  7  8  1  0
  8  9  1  0
  9 10  1  0
 10 11  1  0
 11 12  2  0
 12 13  1  0
 13 14  1  0
 13 15  2  0
 15 16  1  0
 16 17  2  0
 17 18  1  0
 18 19  2  0
 19 20  1  0
 20 21  2  0
 10 22  1  0
 22 23  1  0
  6 24  2  0
 24  2  1  0
 23  7  1  0
 21 11  1  0
 21 16  1  0
  1 25  1  0
  1 26  1  0
  1 27  1  0
  3 28  1  0
  4 29  1  0
  5 30  1  0
  8 31  1  0
  8 32  1  0
  9 33  1  0
  9 34  1  0
 12 35  1  0
 14 36  1  0
 14 37  1  0
 14 38  1  0
 15 39  1  0
 17 40  1  0
 18 41  1  0
 19 42  1  0
 20 43  1  0
 22 44  1  0
 22 45  1  0
 23 46  1  0
 23 47  1  0
 24 48  1  0
M  CHG  1  15   1
M  END
>  <UniqueID>  (9) 
9

>  <SMILES>  (9) 
Cc1cccc(N2CCN(c3cc(C)[nH+]c4ccccc34)CC2)c1

>  <Energy>  (9) 
62.87737430091433

>  <Genealogy>  (9) 
Cc1cccc(N2CCN(c3cc(C)[nH+]c4ccccc34)CC2)c1 (protonated)
Cc1cccc(N2CCN(c3cc(C)[nH+]c4ccccc34)CC2)c1 (3D coordinates assigned)
Cc1cccc(N2CCN(c3cc(C)[nH+]c4ccccc34)CC2)c1 (nonaromatic ring conformer: 62.87737430091433 kcal/mol)

>  <smiles>  (9) 
Cc1cccc(N2CCN(c3cc(C)nc4ccccc34)CC2)c1

>  <score_type>  (9) 
oracle

>  <origin>  (9) 
adg

>  <m_score__min__energy>  (9) 
-6.29

>  <m_primary>  (9) 
energy

$$$$
9:0
     RDKit          3D

 52 55  0  0  0  0  0  0  0  0999 V2000
   55.1520   28.9430   42.6180 H   0  0  0  0  0  0  0  0  0  0  0  0
   55.0030   29.5230   43.4750 N   0  0  0  0  0  0  0  0  0  0  0  0
   55.9420   29.7010   44.3440 C   0  0  0  0  0  0  0  0  0  0  0  0
   56.3920   28.6560   45.0880 N   0  0  0  0  0  0  0  0  0  0  0  0
   57.3750   28.8320   46.0050 C   0  0  0  0  0  0  0  0  0  0  0  0
   57.8020   27.7860   46.7560 N   0  0  0  0  0  0  0  0  0  0  0  0
   58.7760   27.9400   47.6910 C   0  0  0  0  0  0  0  0  0  0  0  0
   59.1103   27.0783   48.2874 H   0  0  0  0  0  0  0  0  0  0  0  0
   59.3550   29.2060   47.8930 C   0  0  0  0  0  0  0  0  0  0  0  0
   60.4090   29.4360   48.9120 C   0  0  0  0  0  0  0  0  0  0  0  0
   60.6430   28.4680   49.9050 C   0  0  0  0  0  0  0  0  0  0  0  0
   60.0437   27.5457   49.9204 H   0  0  0  0  0  0  0  0  0  0  0  0
   61.6300   28.6690   50.8710 C   0  0  0  0  0  0  0  0  0  0  0  0
   61.8060   27.9049   51.6425 H   0  0  0  0  0  0  0  0  0  0  0  0
   62.3940   29.8360   50.8610 C   0  0  0  0  0  0  0  0  0  0  0  0
   63.1732   29.9840   51.6232 H   0  0  0  0  0  0  0  0  0  0  0  0
   62.1780   30.8200   49.8900 C   0  0  0  0  0  0  0  0  0  0  0  0
   62.9810   31.9720   49.9270 O   0  0  0  0  0  0  0  0  0  0  0  0
   63.9500   32.3330   48.9450 C   0  0  0  0  0  0  0  0  0  0  0  0
   65.2230   32.0320   49.3950 F   0  0  0  0  0  0  0  0  0  0  0  0
   63.6970   31.6680   47.7580 F   0  0  0  0  0  0  0  0  0  0  0  0
   63.8710   33.6950   48.7190 F   0  0  0  0  0  0  0  0  0  0  0  0
   61.1750   30.6180   48.9200 C   0  0  0  0  0  0  0  0  0  0  0  0
   60.9886   31.3921   48.1610 H   0  0  0  0  0  0  0  0  0  0  0  0
   58.9120   30.2510   47.1390 N   0  0  0  0  0  0  0  0  0  0  0  0
   57.9470   30.1030   46.1950 C   0  0  0  0  0  0  0  0  0  0  0  0
   57.4790   31.1790   45.4080 C   0  0  0  0  0  0  0  0  0  0  0  0
   58.0050   32.5210   45.5160 N   0  0  0  0  0  0  0  0  0  0  0  0
   58.5400   33.3090   44.4140 C   0  0  0  0  0  0  0  0  0  0  0  0
   59.5140   32.9078   44.0973 H   0  0  0  0  0  0  0  0  0  0  0  0
   57.8708   33.2800   43.5415 H   0  0  0  0  0  0  0  0  0  0  0  0
   58.7010   34.7290   44.9390 C   0  0  0  0  0  0  0  0  0  0  0  0
   59.6984   35.1173   44.6855 H   0  0  0  0  0  0  0  0  0  0  0  0
   57.9585   35.4058   44.4912 H   0  0  0  0  0  0  0  0  0  0  0  0
   58.5330   34.6500   46.4700 C   0  0  2  0  0  0  0  0  0  0  0  0
   57.8905   35.4760   46.8091 H   0  0  0  0  0  0  0  0  0  0  0  0
   59.7940   34.8500   47.2360 N   0  0  0  0  0  0  0  0  0  0  0  0
   60.9080   34.1010   46.6240 C   0  0  0  0  0  0  0  0  0  0  0  0
   61.5419   33.6748   47.4155 H   0  0  0  0  0  0  0  0  0  0  0  0
   60.5052   33.2895   46.0001 H   0  0  0  0  0  0  0  0  0  0  0  0
   61.5075   34.7802   46.0001 H   0  0  0  0  0  0  0  0  0  0  0  0
   59.6860   34.5760   48.6880 C   0  0  0  0  0  0  0  0  0  0  0  0
   59.2995   35.4708   49.1978 H   0  0  0  0  0  0  0  0  0  0  0  0
   59.0018   33.7283   48.8409 H   0  0  0  0  0  0  0  0  0  0  0  0
   61.0530   34.2190   49.2660 C   0  0  0  0  0  0  0  0  0  0  0  0
   61.0014   34.2325   50.3647 H   0  0  0  0  0  0  0  0  0  0  0  0
   61.3444   33.2146   48.9249 H   0  0  0  0  0  0  0  0  0  0  0  0
   61.7983   34.9526   48.9249 H   0  0  0  0  0  0  0  0  0  0  0  0
   57.9150   33.2780   46.7560 C   0  0  0  0  0  0  0  0  0  0  0  0
   58.4736   32.7680   47.5546 H   0  0  0  0  0  0  0  0  0  0  0  0
   56.8716   33.3723   47.0912 H   0  0  0  0  0  0  0  0  0  0  0  0
   56.4820   30.9370   44.5110 N   0  0  0  0  0  0  0  0  0  0  0  0
  1  2  1  0
  2  3  2  0
  3  4  1  0
  4  5  2  0
  5  6  1  0
  6  7  2  0
  7  8  1  0
  7  9  1  0
  9 10  1  0
 10 11  2  0
 11 12  1  0
 11 13  1  0
 13 14  1  0
 13 15  2  0
 15 16  1  0
 15 17  1  0
 17 18  1  0
 18 19  1  0
 19 20  1  0
 19 21  1  0
 19 22  1  0
 17 23  2  0
 23 24  1  0
  9 25  2  0
 25 26  1  0
 26 27  2  0
 27 28  1  0
 28 29  1  0
 29 30  1  0
 29 31  1  0
 29 32  1  0
 32 33  1  0
 32 34  1  0
 32 35  1  0
 35 36  1  1
 35 37  1  0
 37 38  1  0
 38 39  1  0
 38 40  1  0
 38 41  1  0
 37 42  1  0
 42 43  1  0
 42 44  1  0
 42 45  1  0
 45 46  1  0
 45 47  1  0
 45 48  1  0
 35 49  1  0
 49 50  1  0
 49 51  1  0
 27 52  1  0
 52  3  1  0
 26  5  1  0
 49 28  1  0
 23 10  1  0
M  CHG  1  52  -1
M  END
>  <UniqueID>  (10) 
10

>  <SMILES>  (10) 
[H]/N=c1\nc2ncc(-c3cccc(OC(F)(F)F)c3)nc2c(N2CC[C@H](N(C)CC)C2)[n-]1

>  <Energy>  (10) 
70.58376423579658

>  <Genealogy>  (10) 
CCN(C)C1CCN(c2[n-]c(=N)nc3ncc(-c4cccc(OC(F)(F)F)c4)nc23)C1 (protonated)
CCN(C)[C@H]1CCN(c2[n-]c(=N)nc3ncc(-c4cccc(OC(F)(F)F)c4)nc23)C1 (chirality)
[H]/N=c1\nc2ncc(-c3cccc(OC(F)(F)F)c3)nc2c(N2CC[C@H](N(C)CC)C2)[n-]1 (cis-trans isomerization)
[H]/N=c1\nc2ncc(-c3cccc(OC(F)(F)F)c3)nc2c(N2CC[C@H](N(C)CC)C2)[n-]1 (3D coordinates assigned)
[H]/N=c1\nc2ncc(-c3cccc(OC(F)(F)F)c3)nc2c(N2CC[C@H](N(C)CC)C2)[n-]1 (nonaromatic ring conformer: 70.58376423579658 kcal/mol)

>  <smiles>  (10) 
CCN(C)C1CCN(c2[nH]c(=N)nc3ncc(-c4cccc(OC(F)(F)F)c4)nc23)C1

>  <score_type>  (10) 
oracle

>  <origin>  (10) 
adg

>  <m_score__min__energy>  (10) 
-9.2400000000000002

>  <m_primary>  (10) 
energy

$$$$
10:0
     RDKit          3D

 53 56  0  0  0  0  0  0  0  0999 V2000
   56.5500   29.6050   43.5460 C   0  0  0  0  0  0  0  0  0  0  0  0
   56.6550   30.0640   44.8900 O   0  0  0  0  0  0  0  0  0  0  0  0
   57.6060   30.9940   45.3380 C   0  0  0  0  0  0  0  0  0  0  0  0
   58.6050   30.6590   46.2720 C   0  0  0  0  0  0  0  0  0  0  0  0
   59.5340   31.6170   46.6880 C   0  0  0  0  0  0  0  0  0  0  0  0
   59.4850   32.9230   46.1730 C   0  0  0  0  0  0  0  0  0  0  0  0
   60.3980   33.9240   46.5590 C   0  0  0  0  0  0  0  0  0  0  0  0
   61.4730   33.6450   47.4680 N   0  0  0  0  0  0  0  0  0  0  0  0
   62.8320   33.4770   46.9490 C   0  0  0  0  0  0  0  0  0  0  0  0
   63.5910   32.3890   47.7260 C   0  0  0  0  0  0  0  0  0  0  0  0
   63.2030   32.2560   49.2320 C   0  0  0  0  0  0  0  0  0  0  0  0
   64.4070   31.8980   50.0430 N   0  0  0  0  0  0  0  0  0  0  0  0
   65.5820   32.7560   49.7430 C   0  0  0  0  0  0  0  0  0  0  0  0
   66.6670   32.7040   50.8440 C   0  0  0  0  0  0  0  0  0  0  0  0
   66.5930   31.4710   51.6490 N   0  0  0  0  0  0  0  0  0  0  0  0
   66.9920   30.2820   50.8740 C   0  0  0  0  0  0  0  0  0  0  0  0
   65.2670   31.3040   52.2880 C   0  0  0  0  0  0  0  0  0  0  0  0
   64.1190   31.9560   51.4930 C   0  0  0  0  0  0  0  0  0  0  0  0
   62.5240   33.5660   49.7160 C   0  0  0  0  0  0  0  0  0  0  0  0
   61.2560   33.8520   48.9010 C   0  0  0  0  0  0  0  0  0  0  0  0
   60.2640   35.1790   46.0580 N   0  0  0  0  0  0  0  0  0  0  0  0
   59.2800   35.4910   45.1780 C   0  0  0  0  0  0  0  0  0  0  0  0
   58.3960   34.5430   44.7720 N   0  0  0  0  0  0  0  0  0  0  0  0
   58.4730   33.2680   45.2500 C   0  0  0  0  0  0  0  0  0  0  0  0
   57.5470   32.2980   44.8370 C   0  0  0  0  0  0  0  0  0  0  0  0
   56.3047   28.5327   43.5429 H   0  0  0  0  0  0  0  0  0  0  0  0
   55.7566   30.1642   43.0285 H   0  0  0  0  0  0  0  0  0  0  0  0
   57.5076   29.7636   43.0285 H   0  0  0  0  0  0  0  0  0  0  0  0
   58.6547   29.6374   46.6767 H   0  0  0  0  0  0  0  0  0  0  0  0
   60.3072   31.3469   47.4223 H   0  0  0  0  0  0  0  0  0  0  0  0
   62.7786   33.1899   45.8885 H   0  0  0  0  0  0  0  0  0  0  0  0
   63.3704   34.4291   47.0653 H   0  0  0  0  0  0  0  0  0  0  0  0
   63.3958   31.4229   47.2375 H   0  0  0  0  0  0  0  0  0  0  0  0
   64.6506   32.6837   47.7083 H   0  0  0  0  0  0  0  0  0  0  0  0
   62.4749   31.4419   49.3628 H   0  0  0  0  0  0  0  0  0  0  0  0
   66.0282   32.4200   48.7954 H   0  0  0  0  0  0  0  0  0  0  0  0
   65.2238   33.7944   49.6837 H   0  0  0  0  0  0  0  0  0  0  0  0
   67.6569   32.7555   50.3670 H   0  0  0  0  0  0  0  0  0  0  0  0
   66.5000   33.5559   51.5196 H   0  0  0  0  0  0  0  0  0  0  0  0
   67.2647   29.4694   51.5635 H   0  0  0  0  0  0  0  0  0  0  0  0
   66.1530   29.9590   50.2401 H   0  0  0  0  0  0  0  0  0  0  0  0
   67.8560   30.5304   50.2401 H   0  0  0  0  0  0  0  0  0  0  0  0
   65.0585   30.2281   52.3829 H   0  0  0  0  0  0  0  0  0  0  0  0
   65.3117   31.8062   53.2656 H   0  0  0  0  0  0  0  0  0  0  0  0
   63.1821   31.4179   51.6995 H   0  0  0  0  0  0  0  0  0  0  0  0
   64.0219   33.0082   51.7987 H   0  0  0  0  0  0  0  0  0  0  0  0
   62.2553   33.4627   50.7777 H   0  0  0  0  0  0  0  0  0  0  0  0
   63.2277   34.4005   49.5802 H   0  0  0  0  0  0  0  0  0  0  0  0
   60.4549   33.1790   49.2408 H   0  0  0  0  0  0  0  0  0  0  0  0
   60.9797   34.9053   49.0565 H   0  0  0  0  0  0  0  0  0  0  0  0
   59.1975   36.5174   44.7910 H   0  0  0  0  0  0  0  0  0  0  0  0
   57.6500   34.8100   44.0900 H   0  0  0  0  0  0  0  0  0  0  0  0
   56.7657   32.5666   44.1108 H   0  0  0  0  0  0  0  0  0  0  0  0
  1  2  1  0
  2  3  1  0
  3  4  2  0
  4  5  1  0
  5  6  2  0
  6  7  1  0
  7  8  1  0
  8  9  1  0
  9 10  1  0
 10 11  1  0
 11 12  1  0
 12 13  1  0
 13 14  1  0
 14 15  1  0
 15 16  1  0
 15 17  1  0
 17 18  1  0
 11 19  1  0
 19 20  1  0
  7 21  2  0
 21 22  1  0
 22 23  2  0
 23 24  1  0
 24 25  2  0
 25  3  1  0
 24  6  1  0
 20  8  1  0
 18 12  1  0
  1 26  1  0
  1 27  1  0
  1 28  1  0
  4 29  1  0
  5 30  1  0
  9 31  1  0
  9 32  1  0
 10 33  1  0
 10 34  1  0
 11 35  1  0
 13 36  1  0
 13 37  1  0
 14 38  1  0
 14 39  1  0
 16 40  1  0
 16 41  1  0
 16 42  1  0
 17 43  1  0
 17 44  1  0
 18 45  1  0
 18 46  1  0
 19 47  1  0
 19 48  1  0
 20 49  1  0
 20 50  1  0
 22 51  1  0
 23 52  1  0
 25 53  1  0
M  CHG  1  23   1
M  END
>  <UniqueID>  (11) 
11

>  <SMILES>  (11) 
COc1ccc2c(N3CCC(N4CCN(C)CC4)CC3)nc[nH+]c2c1

>  <Energy>  (11) 
81.57074563322394

>  <Genealogy>  (11) 
COc1ccc2c(N3CCC(N4CCN(C)CC4)CC3)nc[nH+]c2c1 (protonated)
COc1ccc2c(N3CCC(N4CCN(C)CC4)CC3)nc[nH+]c2c1 (3D coordinates assigned)
COc1ccc2c(N3CCC(N4CCN(C)CC4)CC3)nc[nH+]c2c1 (nonaromatic ring conformer: 81.57074563322394 kcal/mol)

>  <smiles>  (11) 
COc1ccc2c(N3CCC(N4CCN(C)CC4)CC3)ncnc2c1

>  <score_type>  (11) 
oracle

>  <origin>  (11) 
adg

>  <m_score__min__energy>  (11) 
-6.3499999999999996

>  <m_primary>  (11) 
energy

$$$$
11:0
     RDKit          3D

 33 34  0  0  0  0  0  0  0  0999 V2000
   63.2110   32.6180   46.7870 C   0  0  0  0  0  0  0  0  0  0  0  0
   63.3310   33.1560   48.1850 C   0  0  0  0  0  0  0  0  0  0  0  0
   64.5470   33.1520   48.8070 N   0  0  0  0  0  0  0  0  0  0  0  0
   64.7020   33.6350   50.0410 N   0  0  0  0  0  0  0  0  0  0  0  0
   63.6590   34.1490   50.7410 C   0  0  0  0  0  0  0  0  0  0  0  0
   62.3920   34.1670   50.1680 C   0  0  0  0  0  0  0  0  0  0  0  0
   62.2100   33.6560   48.8810 C   0  0  0  0  0  0  0  0  0  0  0  0
   60.8940   33.6490   48.3000 N   0  0  0  0  0  0  0  0  0  0  0  0
   60.6570   34.2230   46.9710 C   0  0  0  0  0  0  0  0  0  0  0  0
   59.7190   33.3680   46.1590 C   0  0  0  0  0  0  0  0  0  0  0  0
   59.0170   32.3510   46.6860 C   0  0  0  0  0  0  0  0  0  0  0  0
   58.1280   31.5950   45.8410 C   0  0  0  0  0  0  0  0  0  0  0  0
   57.3840   30.9620   45.1340 C   0  0  0  0  0  0  0  0  0  0  0  0
   56.4810   30.1930   44.2740 C   0  0  0  0  0  0  0  0  0  0  0  0
   55.4920   29.5740   45.0490 O   0  0  0  0  0  0  0  0  0  0  0  0
   59.2230   31.8890   48.1080 C   0  0  0  0  0  0  0  0  0  0  0  0
   59.7770   33.0050   48.9900 C   0  0  0  0  0  0  0  0  0  0  0  0
   62.9717   31.5451   46.8263 H   0  0  0  0  0  0  0  0  0  0  0  0
   62.4101   33.1531   46.2557 H   0  0  0  0  0  0  0  0  0  0  0  0
   64.1633   32.7620   46.2557 H   0  0  0  0  0  0  0  0  0  0  0  0
   65.3840   32.7690   48.3140 H   0  0  0  0  0  0  0  0  0  0  0  0
   63.8147   34.5484   51.7540 H   0  0  0  0  0  0  0  0  0  0  0  0
   61.5385   34.5811   50.7249 H   0  0  0  0  0  0  0  0  0  0  0  0
   60.2172   35.2245   47.0875 H   0  0  0  0  0  0  0  0  0  0  0  0
   61.6199   34.2770   46.4419 H   0  0  0  0  0  0  0  0  0  0  0  0
   59.6039   33.5862   45.0870 H   0  0  0  0  0  0  0  0  0  0  0  0
   56.0051   30.8693   43.5486 H   0  0  0  0  0  0  0  0  0  0  0  0
   57.0582   29.4220   43.7426 H   0  0  0  0  0  0  0  0  0  0  0  0
   55.7390   29.7240   45.9990 H   0  0  0  0  0  0  0  0  0  0  0  0
   58.2580   31.5565   48.5181 H   0  0  0  0  0  0  0  0  0  0  0  0
   59.9523   31.0656   48.0986 H   0  0  0  0  0  0  0  0  0  0  0  0
   58.9881   33.7461   49.1856 H   0  0  0  0  0  0  0  0  0  0  0  0
   60.1238   32.5850   49.9457 H   0  0  0  0  0  0  0  0  0  0  0  0
  1  2  1  0
  2  3  2  0
  3  4  1  0
  4  5  2  0
  5  6  1  0
  6  7  2  0
  7  8  1  0
  8  9  1  0
  9 10  1  0
 10 11  2  0
 11 12  1  0
 12 13  3  0
 13 14  1  0
 14 15  1  0
 11 16  1  0
 16 17  1  0
  7  2  1  0
 17  8  1  0
  1 18  1  0
  1 19  1  0
  1 20  1  0
  3 21  1  0
  5 22  1  0
  6 23  1  0
  9 24  1  0
  9 25  1  0
 10 26  1  0
 14 27  1  0
 14 28  1  0
 15 29  1  0
 16 30  1  0
 16 31  1  0
 17 32  1  0
 17 33  1  0
M  CHG  1   3   1
M  END
>  <UniqueID>  (12) 
12

>  <SMILES>  (12) 
Cc1[nH+]nccc1N1CC=C(C#CCO)CC1

>  <Energy>  (12) 
33.56654115934824

>  <Genealogy>  (12) 
Cc1[nH+]nccc1N1CC=C(C#CCO)CC1 (protonated)
Cc1[nH+]nccc1N1CC=C(C#CCO)CC1 (3D coordinates assigned)
Cc1[nH+]nccc1N1CC=C(C#CCO)CC1 (nonaromatic ring conformer: 33.56654115934824 kcal/mol)

>  <smiles>  (12) 
Cc1nnccc1N1CC=C(C#CCO)CC1

>  <score_type>  (12) 
oracle

>  <origin>  (12) 
adg

>  <m_score__min__energy>  (12) 
-5.3200000000000003

>  <m_primary>  (12) 
energy

$$$$
12:0
     RDKit          3D

 46 49  0  0  0  0  0  0  0  0999 V2000
   57.0380   34.1390   44.8910 C   0  0  0  0  0  0  0  0  0  0  0  0
   57.6740   33.0070   45.4670 O   0  0  0  0  0  0  0  0  0  0  0  0
   58.9600   33.0140   46.0320 C   0  0  0  0  0  0  0  0  0  0  0  0
   59.6000   34.2110   46.4080 C   0  0  0  0  0  0  0  0  0  0  0  0
   60.8880   34.1860   46.9480 C   0  0  0  0  0  0  0  0  0  0  0  0
   61.5540   32.9750   47.1240 C   0  0  0  0  0  0  0  0  0  0  0  0
   63.1810   32.9490   47.7700 Cl  0  0  0  0  0  0  0  0  0  0  0  0
   60.9270   31.7800   46.7640 C   0  0  0  0  0  0  0  0  0  0  0  0
   59.6330   31.7890   46.2220 C   0  0  0  0  0  0  0  0  0  0  0  0
   58.8870   30.2760   45.7000 S   0  0  0  0  0  0  0  0  0  0  0  0
   57.4010   30.3210   45.9420 O   0  0  0  0  0  0  0  0  0  0  0  0
   59.1230   30.0830   44.2230 O   0  0  0  0  0  0  0  0  0  0  0  0
   59.5970   28.9620   46.6100 N   0  0  0  0  0  0  0  0  0  0  0  0
   60.1810   27.9590   45.6920 C   0  0  0  0  0  0  0  0  0  0  0  0
   60.3970   26.6170   46.4000 C   0  0  0  0  0  0  0  0  0  0  0  0
   59.0490   26.0150   46.8690 C   0  0  0  0  0  0  0  0  0  0  0  0
   58.5440   24.9900   45.8870 C   0  0  0  0  0  0  0  0  0  0  0  0
   59.0380   23.7230   45.8180 N   0  0  0  0  0  0  0  0  0  0  0  0
   58.2870   23.1700   44.8510 C   0  0  0  0  0  0  0  0  0  0  0  0
   58.3410   21.8610   44.3710 C   0  0  0  0  0  0  0  0  0  0  0  0
   57.4290   21.4980   43.3590 C   0  0  0  0  0  0  0  0  0  0  0  0
   56.5010   22.4400   42.8600 C   0  0  0  0  0  0  0  0  0  0  0  0
   56.4770   23.7540   43.3710 C   0  0  0  0  0  0  0  0  0  0  0  0
   57.3940   24.0780   44.3720 C   0  0  0  0  0  0  0  0  0  0  0  0
   57.5320   25.2490   45.0130 N   0  0  0  0  0  0  0  0  0  0  0  0
   57.9800   27.1040   47.1150 C   0  0  0  0  0  0  0  0  0  0  0  0
   58.6280   28.4110   47.5900 C   0  0  0  0  0  0  0  0  0  0  0  0
   56.6678   34.7978   45.6903 H   0  0  0  0  0  0  0  0  0  0  0  0
   57.7598   34.6878   44.2683 H   0  0  0  0  0  0  0  0  0  0  0  0
   56.1938   33.8080   44.2683 H   0  0  0  0  0  0  0  0  0  0  0  0
   59.0819   35.1723   46.2755 H   0  0  0  0  0  0  0  0  0  0  0  0
   61.3790   35.1273   47.2358 H   0  0  0  0  0  0  0  0  0  0  0  0
   61.4521   30.8240   46.9066 H   0  0  0  0  0  0  0  0  0  0  0  0
   59.4985   27.8103   44.8423 H   0  0  0  0  0  0  0  0  0  0  0  0
   61.1568   28.3307   45.3462 H   0  0  0  0  0  0  0  0  0  0  0  0
   60.8812   25.9165   45.7037 H   0  0  0  0  0  0  0  0  0  0  0  0
   61.0327   26.7838   47.2821 H   0  0  0  0  0  0  0  0  0  0  0  0
   59.2383   25.5158   47.8308 H   0  0  0  0  0  0  0  0  0  0  0  0
   59.0690   21.1382   44.7679 H   0  0  0  0  0  0  0  0  0  0  0  0
   57.4398   20.4749   42.9551 H   0  0  0  0  0  0  0  0  0  0  0  0
   55.7944   22.1468   42.0696 H   0  0  0  0  0  0  0  0  0  0  0  0
   55.7602   24.4981   42.9936 H   0  0  0  0  0  0  0  0  0  0  0  0
   57.4353   27.2920   46.1780 H   0  0  0  0  0  0  0  0  0  0  0  0
   57.2910   26.7496   47.8959 H   0  0  0  0  0  0  0  0  0  0  0  0
   57.8357   29.1555   47.7574 H   0  0  0  0  0  0  0  0  0  0  0  0
   59.1816   28.1893   48.5143 H   0  0  0  0  0  0  0  0  0  0  0  0
  1  2  1  0
  2  3  1  0
  3  4  2  0
  4  5  1  0
  5  6  2  0
  6  7  1  0
  6  8  1  0
  8  9  2  0
  9 10  1  0
 10 11  2  0
 10 12  2  0
 10 13  1  0
 13 14  1  0
 14 15  1  0
 15 16  1  0
 16 17  1  0
 17 18  2  0
 18 19  1  0
 19 20  2  0
 20 21  1  0
 21 22  2  0
 22 23  1  0
 23 24  2  0
 24 25  1  0
 16 26  1  0
 26 27  1  0
  9  3  1  0
 27 13  1  0
 25 17  1  0
 24 19  1  0
  1 28  1  0
  1 29  1  0
  1 30  1  0
  4 31  1  0
  5 32  1  0
  8 33  1  0
 14 34  1  0
 14 35  1  0
 15 36  1  0
 15 37  1  0
 16 38  1  0
 20 39  1  0
 21 40  1  0
 22 41  1  0
 23 42  1  0
 26 43  1  0
 26 44  1  0
 27 45  1  0
 27 46  1  0
M  CHG  1  25  -1
M  END
>  <UniqueID>  (13) 
13

>  <SMILES>  (13) 
COc1ccc(Cl)cc1S(=O)(=O)N1CCC(c2nc3ccccc3[n-]2)CC1

>  <Energy>  (13) 
90.29532175703154

>  <Genealogy>  (13) 
COc1ccc(Cl)cc1S(=O)(=O)N1CCC(c2nc3ccccc3[n-]2)CC1 (protonated)
COc1ccc(Cl)cc1S(=O)(=O)N1CCC(c2nc3ccccc3[n-]2)CC1 (3D coordinates assigned)
COc1ccc(Cl)cc1S(=O)(=O)N1CCC(c2nc3ccccc3[n-]2)CC1 (nonaromatic ring conformer: 90.29532175703154 kcal/mol)

>  <smiles>  (13) 
COc1ccc(Cl)cc1S(=O)(=O)N1CCC(c2nc3ccccc3[nH]2)CC1

>  <score_type>  (13) 
oracle

>  <origin>  (13) 
adg

>  <m_score__min__energy>  (13) 
-10.380000000000001

>  <m_primary>  (13) 
energy

$$$$
13:0
     RDKit          3D

 46 48  0  0  0  0  0  0  0  0999 V2000
   63.0110   32.4960   47.5270 C   0  0  0  0  0  0  0  0  0  0  0  0
   61.8640   31.8600   48.0820 O   0  0  0  0  0  0  0  0  0  0  0  0
   60.8640   31.2310   47.3240 C   0  0  0  0  0  0  0  0  0  0  0  0
   59.5540   31.7120   47.4230 C   0  0  0  0  0  0  0  0  0  0  0  0
   58.5230   31.1210   46.6860 C   0  0  0  0  0  0  0  0  0  0  0  0
   58.7910   30.0390   45.8360 C   0  0  0  0  0  0  0  0  0  0  0  0
   57.7340   29.4310   45.0760 N   0  0  0  0  0  0  0  0  0  0  0  0
   57.6090   27.9710   45.0270 C   0  0  0  0  0  0  0  0  0  0  0  0
   57.0210   27.4380   46.3090 C   0  0  0  0  0  0  0  0  0  0  0  0
   57.6400   27.6210   47.3910 O   0  0  0  0  0  0  0  0  0  0  0  0
   55.8720   26.5800   46.3140 N   0  0  0  0  0  0  0  0  0  0  0  0
   55.8010   25.2540   45.7730 C   0  0  0  0  0  0  0  0  0  0  0  0
   54.5450   24.6550   45.6010 C   0  0  0  0  0  0  0  0  0  0  0  0
   54.4420   23.3730   45.0500 C   0  0  0  0  0  0  0  0  0  0  0  0
   55.5950   22.6920   44.6530 C   0  0  0  0  0  0  0  0  0  0  0  0
   56.8480   23.3070   44.7710 C   0  0  0  0  0  0  0  0  0  0  0  0
   56.9520   24.5840   45.3290 C   0  0  0  0  0  0  0  0  0  0  0  0
   57.9840   22.6270   44.3210 O   0  0  0  0  0  0  0  0  0  0  0  0
   57.8710   21.4530   43.5120 C   0  0  0  0  0  0  0  0  0  0  0  0
   56.6930   20.5920   43.9890 C   0  0  0  0  0  0  0  0  0  0  0  0
   55.5200   21.3950   44.1350 O   0  0  0  0  0  0  0  0  0  0  0  0
   56.4920   30.4250   44.3720 S   0  0  0  0  0  0  0  0  0  0  0  0
   56.6230   30.4250   42.5930 C   0  0  0  0  0  0  0  0  0  0  0  0
   56.6220   31.8320   44.8820 O   0  0  0  0  0  0  0  0  0  0  0  0
   55.1410   29.8770   44.7360 O   0  0  0  0  0  0  0  0  0  0  0  0
   60.1020   29.5510   45.7380 C   0  0  0  0  0  0  0  0  0  0  0  0
   61.1340   30.1420   46.4730 C   0  0  0  0  0  0  0  0  0  0  0  0
   63.6598   32.8557   48.3392 H   0  0  0  0  0  0  0  0  0  0  0  0
   63.5651   31.7763   46.9066 H   0  0  0  0  0  0  0  0  0  0  0  0
   62.6941   33.3472   46.9066 H   0  0  0  0  0  0  0  0  0  0  0  0
   59.3333   32.5617   48.0858 H   0  0  0  0  0  0  0  0  0  0  0  0
   57.4967   31.5070   46.7737 H   0  0  0  0  0  0  0  0  0  0  0  0
   56.9542   27.6936   44.1878 H   0  0  0  0  0  0  0  0  0  0  0  0
   58.6107   27.5368   44.8926 H   0  0  0  0  0  0  0  0  0  0  0  0
   53.6354   25.1960   45.9010 H   0  0  0  0  0  0  0  0  0  0  0  0
   53.4550   22.9025   44.9297 H   0  0  0  0  0  0  0  0  0  0  0  0
   57.9371   25.0649   45.4205 H   0  0  0  0  0  0  0  0  0  0  0  0
   57.7053   21.7476   42.4652 H   0  0  0  0  0  0  0  0  0  0  0  0
   58.7994   20.8689   43.5953 H   0  0  0  0  0  0  0  0  0  0  0  0
   56.5007   19.7991   43.2512 H   0  0  0  0  0  0  0  0  0  0  0  0
   56.9458   20.1469   44.9626 H   0  0  0  0  0  0  0  0  0  0  0  0
   56.6499   29.3879   42.2273 H   0  0  0  0  0  0  0  0  0  0  0  0
   55.7542   30.9435   42.1614 H   0  0  0  0  0  0  0  0  0  0  0  0
   57.5456   30.9435   42.2933 H   0  0  0  0  0  0  0  0  0  0  0  0
   60.3198   28.6978   45.0787 H   0  0  0  0  0  0  0  0  0  0  0  0
   62.1601   29.7551   46.3863 H   0  0  0  0  0  0  0  0  0  0  0  0
  1  2  1  0
  2  3  1  0
  3  4  2  0
  4  5  1  0
  5  6  2  0
  6  7  1  0
  7  8  1  0
  8  9  1  0
  9 10  2  0
  9 11  1  0
 11 12  1  0
 12 13  2  0
 13 14  1  0
 14 15  2  0
 15 16  1  0
 16 17  2  0
 16 18  1  0
 18 19  1  0
 19 20  1  0
 20 21  1  0
  7 22  1  0
 22 23  1  0
 22 24  2  0
 22 25  2  0
  6 26  1  0
 26 27  2  0
 27  3  1  0
 17 12  1  0
 21 15  1  0
  1 28  1  0
  1 29  1  0
  1 30  1  0
  4 31  1  0
  5 32  1  0
  8 33  1  0
  8 34  1  0
 13 35  1  0
 14 36  1  0
 17 37  1  0
 19 38  1  0
 19 39  1  0
 20 40  1  0
 20 41  1  0
 23 42  1  0
 23 43  1  0
 23 44  1  0
 26 45  1  0
 27 46  1  0
M  CHG  1  11  -1
M  END
>  <UniqueID>  (14) 
14

>  <SMILES>  (14) 
COc1ccc(N(CC(=O)[N-]c2ccc3c(c2)OCCO3)S(C)(=O)=O)cc1

>  <Energy>  (14) 
53.75389927273102

>  <Genealogy>  (14) 
COc1ccc(N(CC(=O)[N-]c2ccc3c(c2)OCCO3)S(C)(=O)=O)cc1 (protonated)
COc1ccc(N(CC(=O)[N-]c2ccc3c(c2)OCCO3)S(C)(=O)=O)cc1 (3D coordinates assigned)
COc1ccc(N(CC(=O)[N-]c2ccc3c(c2)OCCO3)S(C)(=O)=O)cc1 (nonaromatic ring conformer: 53.75389927273102 kcal/mol)

>  <smiles>  (14) 
COc1ccc(N(CC(=O)Nc2ccc3c(c2)OCCO3)S(C)(=O)=O)cc1

>  <score_type>  (14) 
oracle

>  <origin>  (14) 
adg

>  <m_score__min__energy>  (14) 
-9.3100000000000005

>  <m_primary>  (14) 
energy

$$$$
14:0
     RDKit          3D

 43 44  0  0  0  0  0  0  0  0999 V2000
   58.0590   27.6080   44.6970 C   0  0  0  0  0  0  0  0  0  0  0  0
   57.7790   28.9840   45.1140 N   0  0  0  0  0  0  0  0  0  0  0  0
   58.6310   29.6260   46.0790 C   0  0  0  0  0  0  0  0  0  0  0  0
   59.5860   30.5710   45.6680 C   0  0  0  0  0  0  0  0  0  0  0  0
   60.4030   31.2080   46.6070 C   0  0  0  0  0  0  0  0  0  0  0  0
   60.2800   30.9090   47.9710 C   0  0  0  0  0  0  0  0  0  0  0  0
   61.1360   31.6290   48.9860 C   0  0  0  0  0  0  0  0  0  0  0  0
   60.5580   32.9270   49.3830 N   0  0  0  0  0  0  0  0  0  0  0  0
   60.7440   34.0010   48.3840 C   0  0  0  0  0  0  0  0  0  0  0  0
   59.4380   34.4100   47.6680 C   0  0  1  0  0  0  0  0  0  0  0  0
   59.6280   34.6180   46.1660 C   0  0  0  0  0  0  0  0  0  0  0  0
   58.3700   34.0560   45.5570 C   0  0  0  0  0  0  0  0  0  0  0  0
   57.6160   33.4620   46.7380 C   0  0  0  0  0  0  0  0  0  0  0  0
   58.4780   33.3960   47.8470 O   0  0  0  0  0  0  0  0  0  0  0  0
   59.3350   29.9560   48.3840 C   0  0  0  0  0  0  0  0  0  0  0  0
   58.5190   29.3160   47.4450 C   0  0  0  0  0  0  0  0  0  0  0  0
   56.4680   29.8610   44.3740 S   0  0  0  0  0  0  0  0  0  0  0  0
   56.5450   29.7020   42.6000 C   0  0  0  0  0  0  0  0  0  0  0  0
   55.1540   29.3320   44.8800 O   0  0  0  0  0  0  0  0  0  0  0  0
   56.5780   31.3220   44.7130 O   0  0  0  0  0  0  0  0  0  0  0  0
   58.1880   26.9743   45.5868 H   0  0  0  0  0  0  0  0  0  0  0  0
   57.2195   27.2291   44.0955 H   0  0  0  0  0  0  0  0  0  0  0  0
   58.9798   27.5873   44.0955 H   0  0  0  0  0  0  0  0  0  0  0  0
   59.6917   30.8115   44.5998 H   0  0  0  0  0  0  0  0  0  0  0  0
   61.1460   31.9475   46.2737 H   0  0  0  0  0  0  0  0  0  0  0  0
   61.2327   30.9960   49.8804 H   0  0  0  0  0  0  0  0  0  0  0  0
   62.1155   31.8229   48.5245 H   0  0  0  0  0  0  0  0  0  0  0  0
   60.9990   33.2320   50.2820 H   0  0  0  0  0  0  0  0  0  0  0  0
   59.5390   32.7930   49.5800 H   0  0  0  0  0  0  0  0  0  0  0  0
   61.1522   34.8852   48.8954 H   0  0  0  0  0  0  0  0  0  0  0  0
   61.4266   33.6118   47.6142 H   0  0  0  0  0  0  0  0  0  0  0  0
   59.1143   35.3644   48.1088 H   0  0  0  0  0  0  0  0  0  0  0  0
   59.7327   35.6872   45.9297 H   0  0  0  0  0  0  0  0  0  0  0  0
   60.5371   34.1311   45.7833 H   0  0  0  0  0  0  0  0  0  0  0  0
   57.7799   34.8509   45.0775 H   0  0  0  0  0  0  0  0  0  0  0  0
   58.5773   33.3129   44.7729 H   0  0  0  0  0  0  0  0  0  0  0  0
   56.7515   34.0974   46.9805 H   0  0  0  0  0  0  0  0  0  0  0  0
   57.2624   32.4522   46.4824 H   0  0  0  0  0  0  0  0  0  0  0  0
   59.2358   29.7113   49.4518 H   0  0  0  0  0  0  0  0  0  0  0  0
   57.7860   28.5663   47.7777 H   0  0  0  0  0  0  0  0  0  0  0  0
   57.0106   28.7405   42.3379 H   0  0  0  0  0  0  0  0  0  0  0  0
   55.5276   29.7422   42.1837 H   0  0  0  0  0  0  0  0  0  0  0  0
   57.1443   30.5252   42.1837 H   0  0  0  0  0  0  0  0  0  0  0  0
  1  2  1  0
  2  3  1  0
  3  4  2  0
  4  5  1  0
  5  6  2  0
  6  7  1  0
  7  8  1  0
  8  9  1  0
  9 10  1  0
 10 11  1  0
 11 12  1  0
 12 13  1  0
 13 14  1  0
  6 15  1  0
 15 16  2  0
  2 17  1  0
 17 18  1  0
 17 19  2  0
 17 20  2  0
 16  3  1  0
 14 10  1  0
  1 21  1  0
  1 22  1  0
  1 23  1  0
  4 24  1  0
  5 25  1  0
  7 26  1  0
  7 27  1  0
  8 28  1  0
  8 29  1  0
  9 30  1  0
  9 31  1  0
 10 32  1  1
 11 33  1  0
 11 34  1  0
 12 35  1  0
 12 36  1  0
 13 37  1  0
 13 38  1  0
 15 39  1  0
 16 40  1  0
 18 41  1  0
 18 42  1  0
 18 43  1  0
M  CHG  1   8   1
M  END
>  <UniqueID>  (15) 
15

>  <SMILES>  (15) 
CN(c1ccc(C[NH2+]C[C@H]2CCCO2)cc1)S(C)(=O)=O

>  <Energy>  (15) 
42.13400795609589

>  <Genealogy>  (15) 
CN(c1ccc(C[NH2+]CC2CCCO2)cc1)S(C)(=O)=O (protonated)
CN(c1ccc(C[NH2+]C[C@H]2CCCO2)cc1)S(C)(=O)=O (chirality)
CN(c1ccc(C[NH2+]C[C@H]2CCCO2)cc1)S(C)(=O)=O (3D coordinates assigned)
CN(c1ccc(C[NH2+]C[C@H]2CCCO2)cc1)S(C)(=O)=O (nonaromatic ring conformer: 42.13400795609589 kcal/mol)

>  <smiles>  (15) 
CN(c1ccc(CNCC2CCCO2)cc1)S(C)(=O)=O

>  <score_type>  (15) 
oracle

>  <origin>  (15) 
adg

>  <m_score__min__energy>  (15) 
-5.96

>  <m_primary>  (15) 
energy

$$$$
15:0
     RDKit          3D

 38 40  0  0  0  0  0  0  0  0999 V2000
   62.5980   34.2790   49.6800 C   0  0  0  0  0  0  0  0  0  0  0  0
   61.3090   34.7270   49.2730 O   0  0  0  0  0  0  0  0  0  0  0  0
   60.4430   33.9980   48.4440 C   0  0  0  0  0  0  0  0  0  0  0  0
   60.6380   32.6170   48.3290 C   0  0  0  0  0  0  0  0  0  0  0  0
   59.8020   31.8450   47.5160 C   0  0  0  0  0  0  0  0  0  0  0  0
   58.7540   32.4480   46.8020 C   0  0  0  0  0  0  0  0  0  0  0  0
   57.8770   31.6290   45.9430 C   0  0  0  0  0  0  0  0  0  0  0  0
   56.9640   32.1280   45.0840 N   0  0  0  0  0  0  0  0  0  0  0  0
   56.3920   31.0860   44.5020 N   0  0  0  0  0  0  0  0  0  0  0  0
   56.9730   29.9930   45.0310 C   0  0  0  0  0  0  0  0  0  0  0  0
   56.6520   28.5900   44.6300 C   0  0  0  0  0  0  0  0  0  0  0  0
   57.3740   27.6210   45.5300 C   0  0  0  0  0  0  0  0  0  0  0  0
   58.7540   27.7700   45.7450 C   0  0  0  0  0  0  0  0  0  0  0  0
   59.4340   26.9010   46.5990 C   0  0  0  0  0  0  0  0  0  0  0  0
   58.7430   25.8820   47.2560 C   0  0  0  0  0  0  0  0  0  0  0  0
   57.3680   25.7310   47.0640 C   0  0  0  0  0  0  0  0  0  0  0  0
   56.6670   26.6010   46.2050 C   0  0  0  0  0  0  0  0  0  0  0  0
   55.2820   26.4850   46.0030 O   0  0  0  0  0  0  0  0  0  0  0  0
   54.6170   25.2860   45.6200 C   0  0  0  0  0  0  0  0  0  0  0  0
   57.8870   30.3180   45.9130 O   0  0  0  0  0  0  0  0  0  0  0  0
   58.5560   33.8340   46.9150 C   0  0  0  0  0  0  0  0  0  0  0  0
   59.3930   34.6040   47.7280 C   0  0  0  0  0  0  0  0  0  0  0  0
   62.6499   34.2610   50.7786 H   0  0  0  0  0  0  0  0  0  0  0  0
   62.7750   33.2666   49.2879 H   0  0  0  0  0  0  0  0  0  0  0  0
   63.3647   34.9634   49.2879 H   0  0  0  0  0  0  0  0  0  0  0  0
   61.4564   32.1342   48.8832 H   0  0  0  0  0  0  0  0  0  0  0  0
   59.9662   30.7603   47.4355 H   0  0  0  0  0  0  0  0  0  0  0  0
   55.5675   28.4261   44.7131 H   0  0  0  0  0  0  0  0  0  0  0  0
   56.9743   28.4278   43.5909 H   0  0  0  0  0  0  0  0  0  0  0  0
   59.3022   28.5770   45.2368 H   0  0  0  0  0  0  0  0  0  0  0  0
   60.5165   27.0193   46.7546 H   0  0  0  0  0  0  0  0  0  0  0  0
   59.2823   25.1965   47.9263 H   0  0  0  0  0  0  0  0  0  0  0  0
   56.8284   24.9275   47.5868 H   0  0  0  0  0  0  0  0  0  0  0  0
   54.3104   24.7332   46.5202 H   0  0  0  0  0  0  0  0  0  0  0  0
   53.7280   25.5348   45.0219 H   0  0  0  0  0  0  0  0  0  0  0  0
   55.2988   24.6636   45.0219 H   0  0  0  0  0  0  0  0  0  0  0  0
   57.7375   34.3164   46.3605 H   0  0  0  0  0  0  0  0  0  0  0  0
   59.2304   35.6889   47.8087 H   0  0  0  0  0  0  0  0  0  0  0  0
  1  2  1  0
  2  3  1  0
  3  4  2  0
  4  5  1  0
  5  6  2  0
  6  7  1  0
  7  8  2  0
  8  9  1  0
  9 10  2  0
 10 11  1  0
 11 12  1  0
 12 13  2  0
 13 14  1  0
 14 15  2  0
 15 16  1  0
 16 17  2  0
 17 18  1  0
 18 19  1  0
 10 20  1  0
  6 21  1  0
 21 22  2  0
 22  3  1  0
 20  7  1  0
 17 12  1  0
  1 23  1  0
  1 24  1  0
  1 25  1  0
  4 26  1  0
  5 27  1  0
 11 28  1  0
 11 29  1  0
 13 30  1  0
 14 31  1  0
 15 32  1  0
 16 33  1  0
 19 34  1  0
 19 35  1  0
 19 36  1  0
 21 37  1  0
 22 38  1  0
M  END
>  <UniqueID>  (16) 
16

>  <SMILES>  (16) 
COc1ccc(-c2nnc(Cc3ccccc3OC)o2)cc1

>  <Energy>  (16) 
72.06939242035146

>  <Genealogy>  (16) 
COc1ccc(-c2nnc(Cc3ccccc3OC)o2)cc1 (3D coordinates assigned)
COc1ccc(-c2nnc(Cc3ccccc3OC)o2)cc1 (optimized conformer: 72.06939242035146 kcal/mol)

>  <smiles>  (16) 
COc1ccc(-c2nnc(Cc3ccccc3OC)o2)cc1

>  <score_type>  (16) 
oracle

>  <origin>  (16) 
adg

>  <m_score__min__energy>  (16) 
-7.2000000000000002

>  <m_primary>  (16) 
energy

$$$$
16:0
     RDKit          3D

 35 37  0  0  0  0  0  0  0  0999 V2000
   55.1430   30.4260   44.4800 O   0  0  0  0  0  0  0  0  0  0  0  0
   56.1430   29.6670   44.5860 C   0  0  0  0  0  0  0  0  0  0  0  0
   57.4130   30.0120   43.8530 C   0  0  0  0  0  0  0  0  0  0  0  0
   58.7640   30.4630   45.0000 S   0  0  0  0  0  0  0  0  0  0  0  0
   58.1970   32.1490   45.2550 C   0  0  0  0  0  0  0  0  0  0  0  0
   57.0170   32.6180   44.8200 N   0  0  0  0  0  0  0  0  0  0  0  0
   56.9160   33.8560   45.2790 N   0  0  0  0  0  0  0  0  0  0  0  0
   58.0020   34.1490   45.9810 N   0  0  0  0  0  0  0  0  0  0  0  0
   58.8190   33.1070   45.9720 N   0  0  0  0  0  0  0  0  0  0  0  0
   60.0590   33.0430   46.6950 C   0  0  0  0  0  0  0  0  0  0  0  0
   60.2330   32.1440   47.7600 C   0  0  0  0  0  0  0  0  0  0  0  0
   61.4460   32.0980   48.4550 C   0  0  0  0  0  0  0  0  0  0  0  0
   62.4990   32.9390   48.0850 C   0  0  0  0  0  0  0  0  0  0  0  0
   64.1540   32.8750   49.0350 Br  0  0  0  0  0  0  0  0  0  0  0  0
   62.3420   33.8220   47.0120 C   0  0  0  0  0  0  0  0  0  0  0  0
   61.1310   33.8670   46.3140 C   0  0  0  0  0  0  0  0  0  0  0  0
   55.9770   28.4060   45.2480 N   0  0  0  0  0  0  0  0  0  0  0  0
   57.0250   27.5710   45.7540 C   0  0  0  0  0  0  0  0  0  0  0  0
   57.3600   26.3580   45.1300 C   0  0  0  0  0  0  0  0  0  0  0  0
   58.4160   25.5820   45.6200 C   0  0  0  0  0  0  0  0  0  0  0  0
   59.1530   26.0210   46.7230 C   0  0  0  0  0  0  0  0  0  0  0  0
   58.8440   27.2420   47.3290 C   0  0  0  0  0  0  0  0  0  0  0  0
   57.7910   28.0210   46.8390 C   0  0  0  0  0  0  0  0  0  0  0  0
   57.7275   29.1417   43.2583 H   0  0  0  0  0  0  0  0  0  0  0  0
   57.2091   30.8805   43.2095 H   0  0  0  0  0  0  0  0  0  0  0  0
   56.2940   32.1190   44.2580 H   0  0  0  0  0  0  0  0  0  0  0  0
   59.4110   31.4726   48.0490 H   0  0  0  0  0  0  0  0  0  0  0  0
   61.5713   31.3984   49.2946 H   0  0  0  0  0  0  0  0  0  0  0  0
   63.1714   34.4815   46.7169 H   0  0  0  0  0  0  0  0  0  0  0  0
   61.0172   34.5522   45.4610 H   0  0  0  0  0  0  0  0  0  0  0  0
   56.7901   26.0170   44.2531 H   0  0  0  0  0  0  0  0  0  0  0  0
   58.6662   24.6260   45.1368 H   0  0  0  0  0  0  0  0  0  0  0  0
   59.9764   25.4056   47.1144 H   0  0  0  0  0  0  0  0  0  0  0  0
   59.4298   27.5906   48.1923 H   0  0  0  0  0  0  0  0  0  0  0  0
   57.5628   28.9903   47.3064 H   0  0  0  0  0  0  0  0  0  0  0  0
  1  2  2  0
  2  3  1  0
  3  4  1  0
  4  5  1  0
  5  6  2  0
  6  7  1  0
  7  8  2  0
  8  9  1  0
  9 10  1  0
 10 11  2  0
 11 12  1  0
 12 13  2  0
 13 14  1  0
 13 15  1  0
 15 16  2  0
  2 17  1  0
 17 18  1  0
 18 19  2  0
 19 20  1  0
 20 21  2  0
 21 22  1  0
 22 23  2  0
  9  5  1  0
 16 10  1  0
 23 18  1  0
  3 24  1  0
  3 25  1  0
  6 26  1  0
 11 27  1  0
 12 28  1  0
 15 29  1  0
 16 30  1  0
 19 31  1  0
 20 32  1  0
 21 33  1  0
 22 34  1  0
 23 35  1  0
M  CHG  2   6   1  17  -1
M  END
>  <UniqueID>  (17) 
17

>  <SMILES>  (17) 
O=C(CSc1[nH+]nnn1-c1ccc(Br)cc1)[N-]c1ccccc1

>  <Energy>  (17) 
83.32692929082873

>  <Genealogy>  (17) 
O=C(CSc1[nH+]nnn1-c1ccc(Br)cc1)[N-]c1ccccc1 (protonated)
O=C(CSc1[nH+]nnn1-c1ccc(Br)cc1)[N-]c1ccccc1 (3D coordinates assigned)
O=C(CSc1[nH+]nnn1-c1ccc(Br)cc1)[N-]c1ccccc1 (optimized conformer: 83.32692929082873 kcal/mol)

>  <smiles>  (17) 
O=C(CSc1nnnn1-c1ccc(Br)cc1)Nc1ccccc1

>  <score_type>  (17) 
oracle

>  <origin>  (17) 
adg

>  <m_score__min__energy>  (17) 
-9.0199999999999996

>  <m_primary>  (17) 
energy

$$$$
17:0
     RDKit          3D

 30 32  0  0  0  0  0  0  0  0999 V2000
   58.4120   34.0800   46.0620 C   0  0  0  0  0  0  0  0  0  0  0  0
   58.2390   32.9360   45.1070 C   0  0  0  0  0  0  0  0  0  0  0  0
   58.1090   33.1770   43.7330 C   0  0  0  0  0  0  0  0  0  0  0  0
   57.8960   32.1030   42.8620 C   0  0  0  0  0  0  0  0  0  0  0  0
   57.7350   32.3410   41.3950 C   0  0  0  0  0  0  0  0  0  0  0  0
   57.8040   30.8400   43.3580 N   0  0  0  0  0  0  0  0  0  0  0  0
   57.9270   30.5660   44.6860 C   0  0  0  0  0  0  0  0  0  0  0  0
   57.7990   29.2060   45.1360 N   0  0  0  0  0  0  0  0  0  0  0  0
   59.0680   28.2730   45.6900 S   0  0  0  0  0  0  0  0  0  0  0  0
   58.2130   26.8910   46.0620 C   0  0  0  0  0  0  0  0  0  0  0  0
   58.6500   25.6790   46.5830 C   0  0  0  0  0  0  0  0  0  0  0  0
   57.6890   24.6810   46.8100 C   0  0  0  0  0  0  0  0  0  0  0  0
   56.3290   24.9190   46.5160 C   0  0  0  0  0  0  0  0  0  0  0  0
   55.9180   26.1580   45.9920 C   0  0  0  0  0  0  0  0  0  0  0  0
   56.8820   27.1450   45.7640 C   0  0  0  0  0  0  0  0  0  0  0  0
   56.6700   28.4470   45.2590 C   0  0  0  0  0  0  0  0  0  0  0  0
   55.5220   28.8820   44.9760 O   0  0  0  0  0  0  0  0  0  0  0  0
   58.1280   31.6250   45.5880 C   0  0  0  0  0  0  0  0  0  0  0  0
   58.3556   33.7068   47.0952 H   0  0  0  0  0  0  0  0  0  0  0  0
   59.3917   34.5517   45.8955 H   0  0  0  0  0  0  0  0  0  0  0  0
   57.6156   34.8203   45.8955 H   0  0  0  0  0  0  0  0  0  0  0  0
   58.1739   34.2031   43.3419 H   0  0  0  0  0  0  0  0  0  0  0  0
   57.1253   33.2424   41.2345 H   0  0  0  0  0  0  0  0  0  0  0  0
   58.7246   32.4811   40.9355 H   0  0  0  0  0  0  0  0  0  0  0  0
   57.2367   31.4746   40.9355 H   0  0  0  0  0  0  0  0  0  0  0  0
   59.7126   25.5075   46.8098 H   0  0  0  0  0  0  0  0  0  0  0  0
   57.9977   23.7078   47.2194 H   0  0  0  0  0  0  0  0  0  0  0  0
   55.5850   24.1295   46.6981 H   0  0  0  0  0  0  0  0  0  0  0  0
   54.8582   26.3470   45.7658 H   0  0  0  0  0  0  0  0  0  0  0  0
   58.1979   31.4251   46.6674 H   0  0  0  0  0  0  0  0  0  0  0  0
  1  2  1  0
  2  3  2  0
  3  4  1  0
  4  5  1  0
  4  6  2  0
  6  7  1  0
  7  8  1  0
  8  9  1  0
  9 10  1  0
 10 11  2  0
 11 12  1  0
 12 13  2  0
 13 14  1  0
 14 15  2  0
 15 16  1  0
 16 17  2  0
  7 18  2  0
 18  2  1  0
 16  8  1  0
 15 10  1  0
  1 19  1  0
  1 20  1  0
  1 21  1  0
  3 22  1  0
  5 23  1  0
  5 24  1  0
  5 25  1  0
 11 26  1  0
 12 27  1  0
 13 28  1  0
 14 29  1  0
 18 30  1  0
M  END
>  <UniqueID>  (18) 
18

>  <SMILES>  (18) 
Cc1cc(C)nc(-n2sc3ccccc3c2=O)c1

>  <Energy>  (18) 
74.87114643315577

>  <Genealogy>  (18) 
Cc1cc(C)nc(-n2sc3ccccc3c2=O)c1 (3D coordinates assigned)
Cc1cc(C)nc(-n2sc3ccccc3c2=O)c1 (optimized conformer: 74.87114643315577 kcal/mol)

>  <smiles>  (18) 
Cc1cc(C)nc(-n2sc3ccccc3c2=O)c1

>  <score_type>  (18) 
oracle

>  <origin>  (18) 
adg

>  <m_score__min__energy>  (18) 
-7

>  <m_primary>  (18) 
energy

$$$$
18:0
     RDKit          3D

 53 57  0  0  0  0  0  0  0  0999 V2000
   55.2770   22.6620   44.8270 C   0  0  0  0  0  0  0  0  0  0  0  0
   56.6630   22.5550   45.3080 N   0  0  0  0  0  0  0  0  0  0  0  0
   56.8290   23.2890   46.5830 C   0  0  0  0  0  0  0  0  0  0  0  0
   56.5280   24.7990   46.4210 C   0  0  0  0  0  0  0  0  0  0  0  0
   57.5190   25.5350   45.4970 C   0  0  0  0  0  0  0  0  0  0  0  0
   57.1470   25.5260   44.0540 N   0  0  0  0  0  0  0  0  0  0  0  0
   57.9930   26.4430   43.2630 C   0  0  0  0  0  0  0  0  0  0  0  0
   58.1480   27.7640   43.9700 C   0  0  0  0  0  0  0  0  0  0  0  0
   59.3020   28.0100   44.7590 C   0  0  0  0  0  0  0  0  0  0  0  0
   59.4780   29.2450   45.4080 C   0  0  0  0  0  0  0  0  0  0  0  0
   58.4960   30.2190   45.2260 C   0  0  0  0  0  0  0  0  0  0  0  0
   58.3170   31.4970   45.7170 C   0  0  0  0  0  0  0  0  0  0  0  0
   59.2150   32.2850   46.5820 C   0  0  0  0  0  0  0  0  0  0  0  0
   58.6980   33.3740   47.2980 C   0  0  0  0  0  0  0  0  0  0  0  0
   59.5380   34.1270   48.1170 C   0  0  0  0  0  0  0  0  0  0  0  0
   60.8950   33.8020   48.2090 C   0  0  0  0  0  0  0  0  0  0  0  0
   61.7630   34.5440   49.0250 C   0  0  0  0  0  0  0  0  0  0  0  0
   63.1180   34.2070   49.0910 C   0  0  0  0  0  0  0  0  0  0  0  0
   63.6130   33.1330   48.3460 C   0  0  0  0  0  0  0  0  0  0  0  0
   62.7560   32.3890   47.5300 C   0  0  0  0  0  0  0  0  0  0  0  0
   61.3930   32.7140   47.4570 C   0  0  0  0  0  0  0  0  0  0  0  0
   60.5480   31.9920   46.6610 N   0  0  0  0  0  0  0  0  0  0  0  0
   57.1490   31.9300   45.2740 O   0  0  0  0  0  0  0  0  0  0  0  0
   56.5520   31.0420   44.5220 N   0  0  0  0  0  0  0  0  0  0  0  0
   57.3740   29.9800   44.4830 C   0  0  0  0  0  0  0  0  0  0  0  0
   57.1650   28.7680   43.8320 C   0  0  0  0  0  0  0  0  0  0  0  0
   57.0370   24.1920   43.4150 C   0  0  0  0  0  0  0  0  0  0  0  0
   57.5950   23.0280   44.2620 C   0  0  0  0  0  0  0  0  0  0  0  0
   54.5934   22.7148   45.6872 H   0  0  0  0  0  0  0  0  0  0  0  0
   55.1697   23.5711   44.2171 H   0  0  0  0  0  0  0  0  0  0  0  0
   55.0314   21.7801   44.2171 H   0  0  0  0  0  0  0  0  0  0  0  0
   56.1399   22.8667   47.3292 H   0  0  0  0  0  0  0  0  0  0  0  0
   57.8752   23.1817   46.9054 H   0  0  0  0  0  0  0  0  0  0  0  0
   55.5167   24.9082   46.0022 H   0  0  0  0  0  0  0  0  0  0  0  0
   56.6217   25.2534   47.4184 H   0  0  0  0  0  0  0  0  0  0  0  0
   57.5835   26.5820   45.8280 H   0  0  0  0  0  0  0  0  0  0  0  0
   58.4755   24.9975   45.5752 H   0  0  0  0  0  0  0  0  0  0  0  0
   58.9852   25.9893   43.1231 H   0  0  0  0  0  0  0  0  0  0  0  0
   57.5131   26.6165   42.2886 H   0  0  0  0  0  0  0  0  0  0  0  0
   60.0667   27.2263   44.8639 H   0  0  0  0  0  0  0  0  0  0  0  0
   60.3596   29.4365   46.0375 H   0  0  0  0  0  0  0  0  0  0  0  0
   57.6324   33.6335   47.2137 H   0  0  0  0  0  0  0  0  0  0  0  0
   59.1343   34.9750   48.6896 H   0  0  0  0  0  0  0  0  0  0  0  0
   61.3772   35.3903   49.6123 H   0  0  0  0  0  0  0  0  0  0  0  0
   63.7970   34.7890   49.7314 H   0  0  0  0  0  0  0  0  0  0  0  0
   64.6802   32.8724   48.4020 H   0  0  0  0  0  0  0  0  0  0  0  0
   63.1512   31.5465   46.9435 H   0  0  0  0  0  0  0  0  0  0  0  0
   60.9410   31.2230   46.0740 H   0  0  0  0  0  0  0  0  0  0  0  0
   56.2615   28.5974   43.2283 H   0  0  0  0  0  0  0  0  0  0  0  0
   55.9736   23.9931   43.2161 H   0  0  0  0  0  0  0  0  0  0  0  0
   57.6458   24.2326   42.4997 H   0  0  0  0  0  0  0  0  0  0  0  0
   57.8197   22.1863   43.5905 H   0  0  0  0  0  0  0  0  0  0  0  0
   58.4914   23.4050   44.7762 H   0  0  0  0  0  0  0  0  0  0  0  0
  1  2  1  0
  2  3  1  0
  3  4  1  0
  4  5  1  0
  5  6  1  0
  6  7  1  0
  7  8  1  0
  8  9  1  0
  9 10  2  0
 10 11  1  0
 11 12  2  0
 12 13  1  0
 13 14  2  0
 14 15  1  0
 15 16  2  0
 16 17  1  0
 17 18  2  0
 18 19  1  0
 19 20  2  0
 20 21  1  0
 21 22  2  0
 12 23  1  0
 23 24  1  0
 24 25  2  0
 25 26  1  0
  6 27  1  0
 27 28  1  0
 28  2  1  0
 26  8  2  0
 25 11  1  0
 22 13  1  0
 21 16  1  0
  1 29  1  0
  1 30  1  0
  1 31  1  0
  3 32  1  0
  3 33  1  0
  4 34  1  0
  4 35  1  0
  5 36  1  0
  5 37  1  0
  7 38  1  0
  7 39  1  0
  9 40  1  0
 10 41  1  0
 14 42  1  0
 15 43  1  0
 17 44  1  0
 18 45  1  0
 19 46  1  0
 20 47  1  0
 22 48  1  0
 26 49  1  0
 27 50  1  0
 27 51  1  0
 28 52  1  0
 28 53  1  0
M  CHG  1  22   1
M  END
>  <UniqueID>  (19) 
19

>  <SMILES>  (19) 
CN1CCCN(Cc2ccc3c(-c4ccc5ccccc5[nH+]4)onc3c2)CC1

>  <Energy>  (19) 
120.0581368703504

>  <Genealogy>  (19) 
CN1CCCN(Cc2ccc3c(-c4ccc5ccccc5[nH+]4)onc3c2)CC1 (protonated)
CN1CCCN(Cc2ccc3c(-c4ccc5ccccc5[nH+]4)onc3c2)CC1 (3D coordinates assigned)
CN1CCCN(Cc2ccc3c(-c4ccc5ccccc5[nH+]4)onc3c2)CC1 (nonaromatic ring conformer: 120.0581368703504 kcal/mol)

>  <smiles>  (19) 
CN1CCCN(Cc2ccc3c(-c4ccc5ccccc5n4)onc3c2)CC1

>  <score_type>  (19) 
oracle

>  <origin>  (19) 
adg

>  <m_score__min__energy>  (19) 
-6.4900000000000002

>  <m_primary>  (19) 
energy

$$$$
19:0
     RDKit          3D

 32 33  0  0  0  0  0  0  0  0999 V2000
   55.1490   29.4300   44.8440 O   0  0  0  0  0  0  0  0  0  0  0  0
   56.3020   28.9220   44.9140 C   0  0  0  0  0  0  0  0  0  0  0  0
   57.3320   29.2710   43.8880 C   0  0  0  0  0  0  0  0  0  0  0  0
   56.9070   30.8410   43.0590 S   0  0  0  0  0  0  0  0  0  0  0  0
   57.7380   31.8820   44.2630 C   0  0  0  0  0  0  0  0  0  0  0  0
   58.4050   31.3040   45.3490 C   0  0  0  0  0  0  0  0  0  0  0  0
   59.0500   32.1130   46.2880 C   0  0  0  0  0  0  0  0  0  0  0  0
   59.0260   33.5140   46.1580 C   0  0  0  0  0  0  0  0  0  0  0  0
   59.7610   34.3850   47.1440 C   0  0  0  0  0  0  0  0  0  0  0  0
   59.2470   34.2220   48.4200 F   0  0  0  0  0  0  0  0  0  0  0  0
   61.1070   34.0610   47.1760 F   0  0  0  0  0  0  0  0  0  0  0  0
   59.6270   35.7100   46.7710 F   0  0  0  0  0  0  0  0  0  0  0  0
   58.3850   34.0840   45.0430 C   0  0  0  0  0  0  0  0  0  0  0  0
   57.7390   33.2720   44.1060 C   0  0  0  0  0  0  0  0  0  0  0  0
   56.6410   28.0370   45.9860 N   0  0  0  0  0  0  0  0  0  0  0  0
   57.2110   26.7100   45.7830 C   0  0  0  0  0  0  0  0  0  0  0  0
   56.1210   25.7000   45.6080 C   0  0  0  0  0  0  0  0  0  0  0  0
   56.2720   24.4350   45.0760 C   0  0  0  0  0  0  0  0  0  0  0  0
   55.0120   23.8770   45.0890 C   0  0  0  0  0  0  0  0  0  0  0  0
   54.1740   24.8340   45.6240 C   0  0  0  0  0  0  0  0  0  0  0  0
   54.8650   25.9110   45.9220 O   0  0  0  0  0  0  0  0  0  0  0  0
   58.3108   29.3749   44.3791 H   0  0  0  0  0  0  0  0  0  0  0  0
   57.3675   28.4704   43.1345 H   0  0  0  0  0  0  0  0  0  0  0  0
   58.4215   30.2101   45.4637 H   0  0  0  0  0  0  0  0  0  0  0  0
   59.5800   31.6518   47.1344 H   0  0  0  0  0  0  0  0  0  0  0  0
   58.3921   35.1756   44.9075 H   0  0  0  0  0  0  0  0  0  0  0  0
   57.2304   33.7272   43.2434 H   0  0  0  0  0  0  0  0  0  0  0  0
   57.8444   26.7204   44.8837 H   0  0  0  0  0  0  0  0  0  0  0  0
   57.8126   26.4396   46.6633 H   0  0  0  0  0  0  0  0  0  0  0  0
   57.2023   23.9703   44.7173 H   0  0  0  0  0  0  0  0  0  0  0  0
   54.7309   22.8715   44.7427 H   0  0  0  0  0  0  0  0  0  0  0  0
   53.0915   24.7134   45.7777 H   0  0  0  0  0  0  0  0  0  0  0  0
  1  2  2  0
  2  3  1  0
  3  4  1  0
  4  5  1  0
  5  6  2  0
  6  7  1  0
  7  8  2  0
  8  9  1  0
  9 10  1  0
  9 11  1  0
  9 12  1  0
  8 13  1  0
 13 14  2  0
  2 15  1  0
 15 16  1  0
 16 17  1  0
 17 18  2  0
 18 19  1  0
 19 20  2  0
 20 21  1  0
 14  5  1  0
 21 17  1  0
  3 22  1  0
  3 23  1  0
  6 24  1  0
  7 25  1  0
 13 26  1  0
 14 27  1  0
 16 28  1  0
 16 29  1  0
 18 30  1  0
 19 31  1  0
 20 32  1  0
M  CHG  1  15  -1
M  END
>  <UniqueID>  (20) 
20

>  <SMILES>  (20) 
O=C(CSc1ccc(C(F)(F)F)cc1)[N-]Cc1ccco1

>  <Energy>  (20) 
50.15699350160678

>  <Genealogy>  (20) 
O=C(CSc1ccc(C(F)(F)F)cc1)[N-]Cc1ccco1 (protonated)
O=C(CSc1ccc(C(F)(F)F)cc1)[N-]Cc1ccco1 (3D coordinates assigned)
O=C(CSc1ccc(C(F)(F)F)cc1)[N-]Cc1ccco1 (optimized conformer: 50.15699350160678 kcal/mol)

>  <smiles>  (20) 
O=C(CSc1ccc(C(F)(F)F)cc1)NCc1ccco1

>  <score_type>  (20) 
oracle

>  <origin>  (20) 
adg

>  <m_score__min__energy>  (20) 
-9.2799999999999994

>  <m_primary>  (20) 
energy

$$$$
20:0
     RDKit          3D

 41 41  0  0  0  0  0  0  0  0999 V2000
   58.1190   31.8490   45.9500 C   0  0  0  0  0  0  0  0  0  0  0  0
   59.0440   31.2150   46.9860 C   0  0  0  0  0  0  0  0  0  0  0  0
   60.4810   31.4660   46.7120 N   0  0  0  0  0  0  0  0  0  0  0  0
   60.8790   32.7260   47.3910 C   0  0  0  0  0  0  0  0  0  0  0  0
   60.8190   33.9150   46.4390 C   0  0  0  0  0  0  0  0  0  0  0  0
   61.3400   30.3340   47.1590 C   0  0  0  0  0  0  0  0  0  0  0  0
   60.5250   29.0720   47.3820 C   0  0  0  0  0  0  0  0  0  0  0  0
   60.0750   28.8710   48.5010 O   0  0  0  0  0  0  0  0  0  0  0  0
   60.2780   28.0340   46.2730 C   0  0  0  0  0  0  0  0  0  0  0  0
   61.0670   26.7340   46.5620 C   0  0  0  0  0  0  0  0  0  0  0  0
   60.8170   28.6100   44.9390 C   0  0  0  0  0  0  0  0  0  0  0  0
   58.7880   27.6570   46.2100 C   0  0  0  0  0  0  0  0  0  0  0  0
   58.3680   26.4000   46.6970 C   0  0  0  0  0  0  0  0  0  0  0  0
   57.0350   25.9990   46.5990 C   0  0  0  0  0  0  0  0  0  0  0  0
   56.0950   26.8270   45.9850 C   0  0  0  0  0  0  0  0  0  0  0  0
   54.7700   26.4150   45.8980 O   0  0  0  0  0  0  0  0  0  0  0  0
   56.4930   28.0630   45.4550 C   0  0  0  0  0  0  0  0  0  0  0  0
   55.5770   28.9040   44.8230 O   0  0  0  0  0  0  0  0  0  0  0  0
   57.8290   28.4650   45.5550 C   0  0  0  0  0  0  0  0  0  0  0  0
   57.3164   32.3991   46.4630 H   0  0  0  0  0  0  0  0  0  0  0  0
   58.6949   32.5432   45.3203 H   0  0  0  0  0  0  0  0  0  0  0  0
   57.6793   31.0615   45.3203 H   0  0  0  0  0  0  0  0  0  0  0  0
   58.7983   31.6290   47.9751 H   0  0  0  0  0  0  0  0  0  0  0  0
   58.8866   30.1271   46.9452 H   0  0  0  0  0  0  0  0  0  0  0  0
   60.1971   32.9085   48.2346 H   0  0  0  0  0  0  0  0  0  0  0  0
   61.9155   32.6167   47.7427 H   0  0  0  0  0  0  0  0  0  0  0  0
   60.7719   34.8479   47.0200 H   0  0  0  0  0  0  0  0  0  0  0  0
   61.7179   33.9228   45.8050 H   0  0  0  0  0  0  0  0  0  0  0  0
   59.9239   33.8323   45.8050 H   0  0  0  0  0  0  0  0  0  0  0  0
   62.1009   30.1369   46.3894 H   0  0  0  0  0  0  0  0  0  0  0  0
   61.8114   30.6138   48.1127 H   0  0  0  0  0  0  0  0  0  0  0  0
   61.1534   26.5916   47.6493 H   0  0  0  0  0  0  0  0  0  0  0  0
   60.5363   25.8773   46.1210 H   0  0  0  0  0  0  0  0  0  0  0  0
   62.0719   26.8093   46.1210 H   0  0  0  0  0  0  0  0  0  0  0  0
   61.5545   29.3981   45.1513 H   0  0  0  0  0  0  0  0  0  0  0  0
   61.2954   27.8067   44.3594 H   0  0  0  0  0  0  0  0  0  0  0  0
   59.9838   29.0340   44.3594 H   0  0  0  0  0  0  0  0  0  0  0  0
   59.1032   25.7261   47.1610 H   0  0  0  0  0  0  0  0  0  0  0  0
   56.7242   25.0261   47.0075 H   0  0  0  0  0  0  0  0  0  0  0  0
   54.6610   28.5820   44.5370 H   0  0  0  0  0  0  0  0  0  0  0  0
   58.1391   29.4252   45.1171 H   0  0  0  0  0  0  0  0  0  0  0  0
  1  2  1  0
  2  3  1  0
  3  4  1  0
  4  5  1  0
  3  6  1  0
  6  7  1  0
  7  8  2  0
  7  9  1  0
  9 10  1  0
  9 11  1  0
  9 12  1  0
 12 13  2  0
 13 14  1  0
 14 15  2  0
 15 16  1  0
 15 17  1  0
 17 18  1  0
 17 19  2  0
 19 12  1  0
  1 20  1  0
  1 21  1  0
  1 22  1  0
  2 23  1  0
  2 24  1  0
  4 25  1  0
  4 26  1  0
  5 27  1  0
  5 28  1  0
  5 29  1  0
  6 30  1  0
  6 31  1  0
 10 32  1  0
 10 33  1  0
 10 34  1  0
 11 35  1  0
 11 36  1  0
 11 37  1  0
 13 38  1  0
 14 39  1  0
 18 40  1  0
 19 41  1  0
M  CHG  1  16  -1
M  END
>  <UniqueID>  (21) 
21

>  <SMILES>  (21) 
CCN(CC)CC(=O)C(C)(C)c1ccc([O-])c(O)c1

>  <Energy>  (21) 
41.93797118756139

>  <Genealogy>  (21) 
CCN(CC)CC(=O)C(C)(C)c1ccc([O-])c(O)c1 (protonated)
CCN(CC)CC(=O)C(C)(C)c1ccc([O-])c(O)c1 (3D coordinates assigned)
CCN(CC)CC(=O)C(C)(C)c1ccc([O-])c(O)c1 (optimized conformer: 41.93797118756139 kcal/mol)

>  <smiles>  (21) 
CCN(CC)CC(=O)C(C)(C)c1ccc(O)c(O)c1

>  <score_type>  (21) 
oracle

>  <origin>  (21) 
adg

>  <m_score__min__energy>  (21) 
-9.9700000000000006

>  <m_primary>  (21) 
energy

$$$$
21:0
     RDKit          3D

 48 51  0  0  0  0  0  0  0  0999 V2000
   60.6280   26.4190   46.6100 C   0  0  0  0  0  0  0  0  0  0  0  0
   59.4870   25.5020   46.3060 C   0  0  0  0  0  0  0  0  0  0  0  0
   59.6500   24.2020   45.9940 N   0  0  0  0  0  0  0  0  0  0  0  0
   58.4500   23.6810   45.7850 N   0  0  0  0  0  0  0  0  0  0  0  0
   58.2290   22.2980   45.3430 C   0  0  0  0  0  0  0  0  0  0  0  0
   56.9920   21.7160   46.0520 C   0  0  0  0  0  0  0  0  0  0  0  0
   56.3570   20.6100   45.1940 C   0  0  0  0  0  0  0  0  0  0  0  0
   55.9010   21.0500   43.9170 O   0  0  0  0  0  0  0  0  0  0  0  0
   56.6090   22.1670   43.3920 C   0  0  0  0  0  0  0  0  0  0  0  0
   58.0890   22.2180   43.8060 C   0  0  0  0  0  0  0  0  0  0  0  0
   57.5090   24.6390   45.9310 C   0  0  0  0  0  0  0  0  0  0  0  0
   55.7830   24.3900   45.6790 Cl  0  0  0  0  0  0  0  0  0  0  0  0
   58.1350   25.8270   46.2750 C   0  0  0  0  0  0  0  0  0  0  0  0
   57.5140   27.1420   46.5380 C   0  0  0  0  0  0  0  0  0  0  0  0
   57.7990   27.7740   47.5900 O   0  0  0  0  0  0  0  0  0  0  0  0
   56.5910   27.7040   45.6000 N   0  0  0  0  0  0  0  0  0  0  0  0
   56.9950   28.4720   44.4280 C   0  0  0  0  0  0  0  0  0  0  0  0
   57.4940   29.8300   44.8430 C   0  0  0  0  0  0  0  0  0  0  0  0
   58.6490   29.9430   45.6270 C   0  0  0  0  0  0  0  0  0  0  0  0
   59.1360   31.2010   45.9960 C   0  0  0  0  0  0  0  0  0  0  0  0
   58.4750   32.3730   45.5790 C   0  0  0  0  0  0  0  0  0  0  0  0
   58.9600   33.6820   45.9490 N   0  0  0  0  0  0  0  0  0  0  0  0
   59.2460   34.7250   45.1430 C   0  0  0  0  0  0  0  0  0  0  0  0
   59.6730   35.7890   45.8500 N   0  0  0  0  0  0  0  0  0  0  0  0
   59.6300   35.3330   47.1200 C   0  0  0  0  0  0  0  0  0  0  0  0
   59.1990   34.0590   47.1930 N   0  0  0  0  0  0  0  0  0  0  0  0
   57.3170   32.2510   44.7900 C   0  0  0  0  0  0  0  0  0  0  0  0
   56.8330   30.9930   44.4230 C   0  0  0  0  0  0  0  0  0  0  0  0
   60.7435   26.5118   47.7000 H   0  0  0  0  0  0  0  0  0  0  0  0
   61.5527   26.0099   46.1768 H   0  0  0  0  0  0  0  0  0  0  0  0
   60.4274   27.4100   46.1768 H   0  0  0  0  0  0  0  0  0  0  0  0
   59.1061   21.6939   45.6181 H   0  0  0  0  0  0  0  0  0  0  0  0
   57.2945   21.2943   47.0219 H   0  0  0  0  0  0  0  0  0  0  0  0
   56.2555   22.5188   46.2036 H   0  0  0  0  0  0  0  0  0  0  0  0
   57.1069   19.8202   45.0392 H   0  0  0  0  0  0  0  0  0  0  0  0
   55.4710   20.2553   45.7409 H   0  0  0  0  0  0  0  0  0  0  0  0
   56.5579   22.1243   42.2940 H   0  0  0  0  0  0  0  0  0  0  0  0
   56.1316   23.0689   43.8026 H   0  0  0  0  0  0  0  0  0  0  0  0
   58.5955   21.3108   43.4449 H   0  0  0  0  0  0  0  0  0  0  0  0
   58.5469   23.1152   43.3641 H   0  0  0  0  0  0  0  0  0  0  0  0
   57.7977   27.9354   43.9010 H   0  0  0  0  0  0  0  0  0  0  0  0
   56.1271   28.5962   43.7637 H   0  0  0  0  0  0  0  0  0  0  0  0
   59.1771   29.0355   45.9550 H   0  0  0  0  0  0  0  0  0  0  0  0
   60.0415   31.2758   46.6161 H   0  0  0  0  0  0  0  0  0  0  0  0
   59.1436   34.7087   44.0479 H   0  0  0  0  0  0  0  0  0  0  0  0
   59.9148   35.9340   47.9962 H   0  0  0  0  0  0  0  0  0  0  0  0
   56.7868   33.1559   44.4584 H   0  0  0  0  0  0  0  0  0  0  0  0
   55.9288   30.9145   43.8014 H   0  0  0  0  0  0  0  0  0  0  0  0
  1  2  1  0
  2  3  2  0
  3  4  1  0
  4  5  1  0
  5  6  1  0
  6  7  1  0
  7  8  1  0
  8  9  1  0
  9 10  1  0
  4 11  1  0
 11 12  1  0
 11 13  2  0
 13 14  1  0
 14 15  2  0
 14 16  1  0
 16 17  1  0
 17 18  1  0
 18 19  2  0
 19 20  1  0
 20 21  2  0
 21 22  1  0
 22 23  1  0
 23 24  2  0
 24 25  1  0
 25 26  2  0
 21 27  1  0
 27 28  2  0
 13  2  1  0
 28 18  1  0
 10  5  1  0
 26 22  1  0
  1 29  1  0
  1 30  1  0
  1 31  1  0
  5 32  1  0
  6 33  1  0
  6 34  1  0
  7 35  1  0
  7 36  1  0
  9 37  1  0
  9 38  1  0
 10 39  1  0
 10 40  1  0
 17 41  1  0
 17 42  1  0
 19 43  1  0
 20 44  1  0
 23 45  1  0
 25 46  1  0
 27 47  1  0
 28 48  1  0
M  CHG  1  16  -1
M  END
>  <UniqueID>  (22) 
22

>  <SMILES>  (22) 
Cc1nn(C2CCOCC2)c(Cl)c1C(=O)[N-]Cc1ccc(-n2cncn2)cc1

>  <Energy>  (22) 
124.0426926754786

>  <Genealogy>  (22) 
Cc1nn(C2CCOCC2)c(Cl)c1C(=O)[N-]Cc1ccc(-n2cncn2)cc1 (protonated)
Cc1nn(C2CCOCC2)c(Cl)c1C(=O)[N-]Cc1ccc(-n2cncn2)cc1 (3D coordinates assigned)
Cc1nn(C2CCOCC2)c(Cl)c1C(=O)[N-]Cc1ccc(-n2cncn2)cc1 (nonaromatic ring conformer: 124.0426926754786 kcal/mol)

>  <smiles>  (22) 
Cc1nn(C2CCOCC2)c(Cl)c1C(=O)NCc1ccc(-n2cncn2)cc1

>  <score_type>  (22) 
oracle

>  <origin>  (22) 
adg

>  <m_score__min__energy>  (22) 
-9.8399999999999999

>  <m_primary>  (22) 
energy

$$$$
22:0
     RDKit          3D

 32 34  0  0  0  0  0  0  0  0999 V2000
   53.6420   25.9430   46.3750 H   0  0  0  0  0  0  0  0  0  0  0  0
   54.3310   25.3740   45.8330 N   0  0  0  0  0  0  0  0  0  0  0  0
   55.5810   25.7000   45.7790 C   0  0  0  0  0  0  0  0  0  0  0  0
   55.9490   27.0070   45.7500 N   0  0  0  0  0  0  0  0  0  0  0  0
   57.2630   27.3480   45.6900 C   0  0  0  0  0  0  0  0  0  0  0  0
   57.6570   28.7630   45.6520 C   0  0  0  0  0  0  0  0  0  0  0  0
   56.9380   29.9450   44.6760 S   0  0  0  0  0  0  0  0  0  0  0  0
   57.9190   31.1960   45.2140 C   0  0  0  0  0  0  0  0  0  0  0  0
   57.9030   32.5330   44.8250 C   0  0  0  0  0  0  0  0  0  0  0  0
   57.1869   32.8920   44.0711 H   0  0  0  0  0  0  0  0  0  0  0  0
   58.8270   33.4150   45.4210 C   0  0  0  0  0  0  0  0  0  0  0  0
   58.8660   34.8610   45.0030 C   0  0  0  0  0  0  0  0  0  0  0  0
   59.2933   34.9332   43.9920 H   0  0  0  0  0  0  0  0  0  0  0  0
   57.8409   35.2599   45.0135 H   0  0  0  0  0  0  0  0  0  0  0  0
   59.7200   35.6780   45.9670 C   0  0  0  0  0  0  0  0  0  0  0  0
   59.4516   35.4213   47.0024 H   0  0  0  0  0  0  0  0  0  0  0  0
   60.7830   35.4520   45.7969 H   0  0  0  0  0  0  0  0  0  0  0  0
   59.5413   36.7500   45.7969 H   0  0  0  0  0  0  0  0  0  0  0  0
   59.7500   32.9250   46.3730 C   0  0  0  0  0  0  0  0  0  0  0  0
   60.4812   33.6110   46.8255 H   0  0  0  0  0  0  0  0  0  0  0  0
   59.7430   31.5710   46.7470 C   0  0  0  0  0  0  0  0  0  0  0  0
   60.4576   31.1932   47.4931 H   0  0  0  0  0  0  0  0  0  0  0  0
   58.8140   30.7130   46.1560 C   0  0  0  0  0  0  0  0  0  0  0  0
   58.6760   29.3450   46.4110 C   0  0  0  0  0  0  0  0  0  0  0  0
   59.2989   28.7899   47.1278 H   0  0  0  0  0  0  0  0  0  0  0  0
   58.2090   26.3720   45.6600 N   0  0  0  0  0  0  0  0  0  0  0  0
   57.8460   25.0650   45.7010 C   0  0  0  0  0  0  0  0  0  0  0  0
   58.8860   23.9980   45.6300 C   0  0  0  0  0  0  0  0  0  0  0  0
   59.1761   23.7004   46.6485 H   0  0  0  0  0  0  0  0  0  0  0  0
   58.4812   23.1265   45.0946 H   0  0  0  0  0  0  0  0  0  0  0  0
   59.7676   24.3803   45.0946 H   0  0  0  0  0  0  0  0  0  0  0  0
   56.5300   24.7310   45.7490 N   0  0  0  0  0  0  0  0  0  0  0  0
  1  2  1  0
  2  3  2  0
  3  4  1  0
  4  5  2  0
  5  6  1  0
  6  7  1  0
  7  8  1  0
  8  9  2  0
  9 10  1  0
  9 11  1  0
 11 12  1  0
 12 13  1  0
 12 14  1  0
 12 15  1  0
 15 16  1  0
 15 17  1  0
 15 18  1  0
 11 19  2  0
 19 20  1  0
 19 21  1  0
 21 22  1  0
 21 23  2  0
 23 24  1  0
 24 25  1  0
  5 26  1  0
 26 27  1  0
 27 28  1  0
 28 29  1  0
 28 30  1  0
 28 31  1  0
 27 32  2  0
 32  3  1  0
 24  6  2  0
 23  8  1  0
M  CHG  1  26  -1
M  END
>  <UniqueID>  (23) 
23

>  <SMILES>  (23) 
[H]/N=c1/nc(C)[n-]c(-c2cc3ccc(CC)cc3s2)n1

>  <Energy>  (23) 
59.89446015171895

>  <Genealogy>  (23) 
CCc1ccc2cc(-c3nc(=N)nc(C)[n-]3)sc2c1 (protonated)
[H]/N=c1/nc(C)[n-]c(-c2cc3ccc(CC)cc3s2)n1 (cis-trans isomerization)
[H]/N=c1/nc(C)[n-]c(-c2cc3ccc(CC)cc3s2)n1 (3D coordinates assigned)
[H]/N=c1/nc(C)[n-]c(-c2cc3ccc(CC)cc3s2)n1 (optimized conformer: 59.89446015171895 kcal/mol)

>  <smiles>  (23) 
CCc1ccc2cc(-c3nc(=N)nc(C)[nH]3)sc2c1

>  <score_type>  (23) 
oracle

>  <origin>  (23) 
adg

>  <m_score__min__energy>  (23) 
-9.1400000000000006

>  <m_primary>  (23) 
energy

$$$$
23:0
     RDKit          3D

 55 58  0  0  0  0  0  0  0  0999 V2000
   61.5690   29.4820   49.8860 O   0  0  0  0  0  0  0  0  0  0  0  0
   61.5210   30.7030   49.9570 C   0  0  0  0  0  0  0  0  0  0  0  0
   60.2620   31.3970   49.4460 C   0  0  0  0  0  0  0  0  0  0  0  0
   59.8420   30.9390   48.0560 C   0  0  0  0  0  0  0  0  0  0  0  0
   60.7410   30.1810   47.2820 C   0  0  0  0  0  0  0  0  0  0  0  0
   60.3770   29.7170   46.0150 C   0  0  0  0  0  0  0  0  0  0  0  0
   59.1080   29.9990   45.5040 C   0  0  0  0  0  0  0  0  0  0  0  0
   58.2010   30.7430   46.2620 C   0  0  0  0  0  0  0  0  0  0  0  0
   58.5610   31.2090   47.5300 C   0  0  0  0  0  0  0  0  0  0  0  0
   59.1190   31.3800   50.4520 C   0  0  0  0  0  0  0  0  0  0  0  0
   58.6810   32.5910   51.0220 C   0  0  0  0  0  0  0  0  0  0  0  0
   57.6220   32.6070   51.9330 C   0  0  0  0  0  0  0  0  0  0  0  0
   56.9770   31.4170   52.2790 C   0  0  0  0  0  0  0  0  0  0  0  0
   57.3860   30.2120   51.7070 C   0  0  0  0  0  0  0  0  0  0  0  0
   58.4450   30.1900   50.7960 C   0  0  0  0  0  0  0  0  0  0  0  0
   62.6340   31.4370   50.5450 N   0  0  2  0  0  0  0  0  0  0  0  0
   62.1430   32.6490   51.2500 C   0  0  0  0  0  0  0  0  0  0  0  0
   63.0000   33.8990   50.9710 C   0  0  0  0  0  0  0  0  0  0  0  0
   62.7450   34.5820   49.6060 C   0  0  0  0  0  0  0  0  0  0  0  0
   62.3670   33.6310   48.5460 N   0  0  0  0  0  0  0  0  0  0  0  0
   61.2020   33.8900   47.7370 C   0  0  0  0  0  0  0  0  0  0  0  0
   61.2300   33.6360   46.3550 C   0  0  0  0  0  0  0  0  0  0  0  0
   60.1030   33.8840   45.5660 C   0  0  0  0  0  0  0  0  0  0  0  0
   58.9370   34.3840   46.1500 C   0  0  0  0  0  0  0  0  0  0  0  0
   58.8950   34.6370   47.5230 C   0  0  0  0  0  0  0  0  0  0  0  0
   60.0200   34.3920   48.3180 C   0  0  0  0  0  0  0  0  0  0  0  0
   59.9430   34.6180   49.6520 F   0  0  0  0  0  0  0  0  0  0  0  0
   63.1760   32.4310   48.2540 C   0  0  0  0  0  0  0  0  0  0  0  0
   63.6780   31.6960   49.5170 C   0  0  0  0  0  0  0  0  0  0  0  0
   60.5398   32.4552   49.3319 H   0  0  0  0  0  0  0  0  0  0  0  0
   61.7409   29.9514   47.6788 H   0  0  0  0  0  0  0  0  0  0  0  0
   61.0908   29.1290   45.4194 H   0  0  0  0  0  0  0  0  0  0  0  0
   58.8233   29.6355   44.5056 H   0  0  0  0  0  0  0  0  0  0  0  0
   57.2009   30.9629   45.8603 H   0  0  0  0  0  0  0  0  0  0  0  0
   57.8396   31.7909   48.1224 H   0  0  0  0  0  0  0  0  0  0  0  0
   59.1775   33.5333   50.7473 H   0  0  0  0  0  0  0  0  0  0  0  0
   57.2954   33.5582   52.3787 H   0  0  0  0  0  0  0  0  0  0  0  0
   56.1477   31.4301   53.0015 H   0  0  0  0  0  0  0  0  0  0  0  0
   56.8731   29.2763   51.9741 H   0  0  0  0  0  0  0  0  0  0  0  0
   58.7556   29.2367   50.3434 H   0  0  0  0  0  0  0  0  0  0  0  0
   63.0720   30.8320   51.2760 H   0  0  0  0  0  0  0  0  0  0  0  0
   61.1124   32.8509   50.9229 H   0  0  0  0  0  0  0  0  0  0  0  0
   62.2000   32.4463   52.3297 H   0  0  0  0  0  0  0  0  0  0  0  0
   62.7964   34.6348   51.7629 H   0  0  0  0  0  0  0  0  0  0  0  0
   64.0443   33.5542   50.9492 H   0  0  0  0  0  0  0  0  0  0  0  0
   61.9320   35.3131   49.7267 H   0  0  0  0  0  0  0  0  0  0  0  0
   63.6863   35.0603   49.2974 H   0  0  0  0  0  0  0  0  0  0  0  0
   62.1451   33.2393   45.8910 H   0  0  0  0  0  0  0  0  0  0  0  0
   60.1345   33.6852   44.4846 H   0  0  0  0  0  0  0  0  0  0  0  0
   58.0509   34.5787   45.5280 H   0  0  0  0  0  0  0  0  0  0  0  0
   57.9750   35.0299   47.9805 H   0  0  0  0  0  0  0  0  0  0  0  0
   62.5613   31.7325   47.6673 H   0  0  0  0  0  0  0  0  0  0  0  0
   64.0668   32.7704   47.7051 H   0  0  0  0  0  0  0  0  0  0  0  0
   64.0987   30.7286   49.2053 H   0  0  0  0  0  0  0  0  0  0  0  0
   64.4180   32.3599   49.9878 H   0  0  0  0  0  0  0  0  0  0  0  0
  1  2  2  0
  2  3  1  0
  3  4  1  0
  4  5  2  0
  5  6  1  0
  6  7  2  0
  7  8  1  0
  8  9  2  0
  3 10  1  0
 10 11  2  0
 11 12  1  0
 12 13  2  0
 13 14  1  0
 14 15  2  0
  2 16  1  0
 16 17  1  0
 17 18  1  0
 18 19  1  0
 19 20  1  0
 20 21  1  0
 21 22  2  0
 22 23  1  0
 23 24  2  0
 24 25  1  0
 25 26  2  0
 26 27  1  0
 20 28  1  0
 28 29  1  0
  9  4  1  0
 15 10  1  0
 29 16  1  0
 26 21  1  0
  3 30  1  0
  5 31  1  0
  6 32  1  0
  7 33  1  0
  8 34  1  0
  9 35  1  0
 11 36  1  0
 12 37  1  0
 13 38  1  0
 14 39  1  0
 15 40  1  0
 16 41  1  1
 17 42  1  0
 17 43  1  0
 18 44  1  0
 18 45  1  0
 19 46  1  0
 19 47  1  0
 22 48  1  0
 23 49  1  0
 24 50  1  0
 25 51  1  0
 28 52  1  0
 28 53  1  0
 29 54  1  0
 29 55  1  0
M  CHG  1  16   1
M  END
>  <UniqueID>  (24) 
24

>  <SMILES>  (24) 
O=C(C(c1ccccc1)c1ccccc1)[N@@H+]1CCCN(c2ccccc2F)CC1

>  <Energy>  (24) 
80.1671820212596

>  <Genealogy>  (24) 
O=C(C(c1ccccc1)c1ccccc1)[NH+]1CCCN(c2ccccc2F)CC1 (protonated)
O=C(C(c1ccccc1)c1ccccc1)[N@@H+]1CCCN(c2ccccc2F)CC1 (chirality)
O=C(C(c1ccccc1)c1ccccc1)[N@@H+]1CCCN(c2ccccc2F)CC1 (3D coordinates assigned)
O=C(C(c1ccccc1)c1ccccc1)[N@@H+]1CCCN(c2ccccc2F)CC1 (nonaromatic ring conformer: 80.1671820212596 kcal/mol)

>  <smiles>  (24) 
O=C(C(c1ccccc1)c1ccccc1)N1CCCN(c2ccccc2F)CC1

>  <score_type>  (24) 
oracle

>  <origin>  (24) 
adg

>  <m_score__min__energy>  (24) 
-4.8899999999999997

>  <m_primary>  (24) 
energy

$$$$
24:0
     RDKit          3D

 43 44  0  0  0  0  0  0  0  0999 V2000
   57.9572   30.0680   42.9025 H   0  0  0  0  0  0  0  0  0  0  0  0
   57.2860   30.6590   43.5430 C   0  0  0  0  0  0  0  0  0  0  0  0
   56.3010   29.9230   44.3620 C   0  0  0  0  0  0  0  0  0  0  0  0
   55.0900   29.8890   44.0120 O   0  0  0  0  0  0  0  0  0  0  0  0
   56.6680   29.3440   45.6200 N   0  0  0  0  0  0  0  0  0  0  0  0
   57.6170   28.2860   45.8290 C   0  0  0  0  0  0  0  0  0  0  0  0
   57.4530   27.0280   45.2210 C   0  0  0  0  0  0  0  0  0  0  0  0
   56.5995   26.8521   44.5497 H   0  0  0  0  0  0  0  0  0  0  0  0
   58.3680   26.0010   45.4650 C   0  0  0  0  0  0  0  0  0  0  0  0
   58.2438   25.0261   44.9710 H   0  0  0  0  0  0  0  0  0  0  0  0
   59.4400   26.2100   46.3350 C   0  0  0  0  0  0  0  0  0  0  0  0
   60.1614   25.4013   46.5233 H   0  0  0  0  0  0  0  0  0  0  0  0
   59.5960   27.4460   46.9660 C   0  0  0  0  0  0  0  0  0  0  0  0
   60.4376   27.6063   47.6560 H   0  0  0  0  0  0  0  0  0  0  0  0
   58.6850   28.4830   46.7240 C   0  0  0  0  0  0  0  0  0  0  0  0
   58.9080   30.0550   47.5660 S   0  0  0  0  0  0  0  0  0  0  0  0
   60.6350   30.2540   47.0050 C   0  0  0  0  0  0  0  0  0  0  0  0
   60.7243   29.8773   45.9754 H   0  0  0  0  0  0  0  0  0  0  0  0
   61.2906   29.6863   47.6817 H   0  0  0  0  0  0  0  0  0  0  0  0
   61.0570   31.7240   47.0380 C   0  0  0  0  0  0  0  0  0  0  0  0
   60.3713   32.2751   47.6984 H   0  0  0  0  0  0  0  0  0  0  0  0
   61.0174   32.1108   46.0090 H   0  0  0  0  0  0  0  0  0  0  0  0
   62.4840   31.9010   47.5520 C   0  0  0  0  0  0  0  0  0  0  0  0
   62.4802   31.9005   48.6520 H   0  0  0  0  0  0  0  0  0  0  0  0
   63.1104   31.0737   47.1871 H   0  0  0  0  0  0  0  0  0  0  0  0
   62.8893   32.8563   47.1871 H   0  0  0  0  0  0  0  0  0  0  0  0
   57.4240   31.9920   43.5210 C   0  0  0  0  0  0  0  0  0  0  0  0
   57.1670   32.5129   42.5868 H   0  0  0  0  0  0  0  0  0  0  0  0
   57.8950   32.8180   44.6550 C   0  0  0  0  0  0  0  0  0  0  0  0
   57.4020   32.5600   45.9410 C   0  0  0  0  0  0  0  0  0  0  0  0
   56.6447   31.7763   46.0905 H   0  0  0  0  0  0  0  0  0  0  0  0
   57.8690   33.2950   47.0350 C   0  0  0  0  0  0  0  0  0  0  0  0
   57.4661   33.0938   48.0386 H   0  0  0  0  0  0  0  0  0  0  0  0
   58.8450   34.2850   46.8650 C   0  0  0  0  0  0  0  0  0  0  0  0
   59.2800   34.9940   47.9950 O   0  0  0  0  0  0  0  0  0  0  0  0
   59.9600   34.4060   49.1000 C   0  0  0  0  0  0  0  0  0  0  0  0
   59.5265   34.7809   50.0389 H   0  0  0  0  0  0  0  0  0  0  0  0
   59.8518   33.3122   49.0572 H   0  0  0  0  0  0  0  0  0  0  0  0
   61.0268   34.6709   49.0572 H   0  0  0  0  0  0  0  0  0  0  0  0
   59.3600   34.5260   45.5780 C   0  0  0  0  0  0  0  0  0  0  0  0
   60.1338   35.2941   45.4324 H   0  0  0  0  0  0  0  0  0  0  0  0
   58.8920   33.7930   44.4840 C   0  0  0  0  0  0  0  0  0  0  0  0
   59.3069   33.9806   43.4827 H   0  0  0  0  0  0  0  0  0  0  0  0
  1  2  1  0
  2  3  1  0
  3  4  2  0
  3  5  1  0
  5  6  1  0
  6  7  2  0
  7  8  1  0
  7  9  1  0
  9 10  1  0
  9 11  2  0
 11 12  1  0
 11 13  1  0
 13 14  1  0
 13 15  2  0
 15 16  1  0
 16 17  1  0
 17 18  1  0
 17 19  1  0
 17 20  1  0
 20 21  1  0
 20 22  1  0
 20 23  1  0
 23 24  1  0
 23 25  1  0
 23 26  1  0
  2 27  2  0
 27 28  1  0
 27 29  1  0
 29 30  2  0
 30 31  1  0
 30 32  1  0
 32 33  1  0
 32 34  2  0
 34 35  1  0
 35 36  1  0
 36 37  1  0
 36 38  1  0
 36 39  1  0
 34 40  1  0
 40 41  1  0
 40 42  2  0
 42 43  1  0
 15  6  1  0
 42 29  1  0
M  CHG  1   5  -1
M  END
>  <UniqueID>  (25) 
25

>  <SMILES>  (25) 
CCCSc1ccccc1[N-]C(=O)/C=C\c1ccc(OC)cc1

>  <Energy>  (25) 
46.2166963340041

>  <Genealogy>  (25) 
CCCSc1ccccc1[N-]C(=O)C=Cc1ccc(OC)cc1 (protonated)
CCCSc1ccccc1[N-]C(=O)/C=C\c1ccc(OC)cc1 (cis-trans isomerization)
CCCSc1ccccc1[N-]C(=O)/C=C\c1ccc(OC)cc1 (3D coordinates assigned)
CCCSc1ccccc1[N-]C(=O)/C=C\c1ccc(OC)cc1 (optimized conformer: 46.2166963340041 kcal/mol)

>  <smiles>  (25) 
CCCSc1ccccc1NC(=O)C=Cc1ccc(OC)cc1

>  <score_type>  (25) 
oracle

>  <origin>  (25) 
adg

>  <m_score__min__energy>  (25) 
-9.5500000000000007

>  <m_primary>  (25) 
energy

$$$$
25:0
     RDKit          3D

 21 21  0  0  0  0  0  0  0  0999 V2000
   55.1440   27.6780   45.2490 H   0  0  0  0  0  0  0  0  0  0  0  0
   55.8800   28.3710   45.3050 O   0  0  0  0  0  0  0  0  0  0  0  0
   57.1740   27.9810   45.5690 N   0  0  0  0  0  0  0  0  0  0  0  0
   57.4540   26.8470   46.1390 C   0  0  0  0  0  0  0  0  0  0  0  0
   56.9260   25.5670   45.6130 C   0  0  0  0  0  0  0  0  0  0  0  0
   57.8190   24.5990   45.1330 C   0  0  0  0  0  0  0  0  0  0  0  0
   58.9010   24.7963   45.1521 H   0  0  0  0  0  0  0  0  0  0  0  0
   57.3450   23.3890   44.6320 C   0  0  0  0  0  0  0  0  0  0  0  0
   58.0554   22.6341   44.2639 H   0  0  0  0  0  0  0  0  0  0  0  0
   55.9740   23.1280   44.5940 C   0  0  0  0  0  0  0  0  0  0  0  0
   55.5360   21.9050   44.0930 O   0  0  0  0  0  0  0  0  0  0  0  0
   55.0520   24.0890   45.0550 C   0  0  0  0  0  0  0  0  0  0  0  0
   53.6000   23.7900   44.9950 C   0  0  0  0  0  0  0  0  0  0  0  0
   52.9129   24.5484   44.5917 H   0  0  0  0  0  0  0  0  0  0  0  0
   53.1340   22.6900   45.3940 O   0  0  0  0  0  0  0  0  0  0  0  0
   55.5390   25.3210   45.5570 C   0  0  0  0  0  0  0  0  0  0  0  0
   54.6530   26.3090   45.9800 O   0  0  0  0  0  0  0  0  0  0  0  0
   58.2260   26.8600   47.4220 C   0  0  0  0  0  0  0  0  0  0  0  0
   57.5266   26.8482   48.2709 H   0  0  0  0  0  0  0  0  0  0  0  0
   58.8744   25.9726   47.4688 H   0  0  0  0  0  0  0  0  0  0  0  0
   58.8442   27.7687   47.4688 H   0  0  0  0  0  0  0  0  0  0  0  0
  1  2  1  0
  2  3  1  0
  3  4  2  0
  4  5  1  0
  5  6  2  0
  6  7  1  0
  6  8  1  0
  8  9  1  0
  8 10  2  0
 10 11  1  0
 10 12  1  0
 12 13  1  0
 13 14  1  0
 13 15  2  0
 12 16  2  0
 16 17  1  0
  4 18  1  0
 18 19  1  0
 18 20  1  0
 18 21  1  0
 16  5  1  0
M  CHG  2  11  -1  17  -1
M  END
>  <UniqueID>  (26) 
26

>  <SMILES>  (26) 
C/C(=N/O)c1ccc([O-])c(C=O)c1[O-]

>  <Energy>  (26) 
26.788135818958377

>  <Genealogy>  (26) 
CC(=NO)c1ccc([O-])c(C=O)c1[O-] (protonated)
C/C(=N/O)c1ccc([O-])c(C=O)c1[O-] (cis-trans isomerization)
C/C(=N/O)c1ccc([O-])c(C=O)c1[O-] (3D coordinates assigned)
C/C(=N/O)c1ccc([O-])c(C=O)c1[O-] (optimized conformer: 26.788135818958377 kcal/mol)

>  <smiles>  (26) 
CC(=NO)c1ccc(O)c(C=O)c1O

>  <score_type>  (26) 
oracle

>  <origin>  (26) 
adg

>  <m_score__min__energy>  (26) 
-11.49

>  <m_primary>  (26) 
energy

$$$$
26:0
     RDKit          3D

 39 40  0  0  0  0  0  0  0  0999 V2000
   57.0740   20.9760   42.8800 C   0  0  0  0  0  0  0  0  0  0  0  0
   56.0120   21.9090   43.0570 O   0  0  0  0  0  0  0  0  0  0  0  0
   56.0390   22.9780   43.9650 C   0  0  0  0  0  0  0  0  0  0  0  0
   55.0180   23.0650   44.9170 C   0  0  0  0  0  0  0  0  0  0  0  0
   54.9970   24.1120   45.8400 C   0  0  0  0  0  0  0  0  0  0  0  0
   55.9970   25.0870   45.8140 C   0  0  0  0  0  0  0  0  0  0  0  0
   57.0260   25.0280   44.8680 C   0  0  0  0  0  0  0  0  0  0  0  0
   57.9970   26.0430   44.8890 O   0  0  0  0  0  0  0  0  0  0  0  0
   57.7810   27.4250   44.6010 C   0  0  0  0  0  0  0  0  0  0  0  0
   57.0520   28.1190   45.7510 C   0  0  0  0  0  0  0  0  0  0  0  0
   55.9170   28.8820   45.2480 N   0  0  0  0  0  0  0  0  0  0  0  0
   55.8820   29.5710   43.9940 C   0  0  0  0  0  0  0  0  0  0  0  0
   54.7760   29.7040   43.4050 O   0  0  0  0  0  0  0  0  0  0  0  0
   57.1150   30.1750   43.3790 C   0  0  0  0  0  0  0  0  0  0  0  0
   57.6540   31.2890   44.2380 C   0  0  0  0  0  0  0  0  0  0  0  0
   58.0170   31.0500   45.5750 C   0  0  0  0  0  0  0  0  0  0  0  0
   58.5130   32.0890   46.3670 C   0  0  0  0  0  0  0  0  0  0  0  0
   58.6580   33.3720   45.8330 C   0  0  0  0  0  0  0  0  0  0  0  0
   59.3350   34.7900   46.9180 Br  0  0  0  0  0  0  0  0  0  0  0  0
   58.3100   33.6170   44.5000 C   0  0  0  0  0  0  0  0  0  0  0  0
   57.8130   32.5800   43.7040 C   0  0  0  0  0  0  0  0  0  0  0  0
   57.0520   23.9590   43.9490 C   0  0  0  0  0  0  0  0  0  0  0  0
   57.4441   20.6508   43.8635 H   0  0  0  0  0  0  0  0  0  0  0  0
   56.7062   20.1037   42.3199 H   0  0  0  0  0  0  0  0  0  0  0  0
   57.8917   21.4531   42.3199 H   0  0  0  0  0  0  0  0  0  0  0  0
   54.2255   22.3025   44.9385 H   0  0  0  0  0  0  0  0  0  0  0  0
   54.1926   24.1693   46.5881 H   0  0  0  0  0  0  0  0  0  0  0  0
   55.9752   25.9092   46.5444 H   0  0  0  0  0  0  0  0  0  0  0  0
   58.7530   27.9154   44.4437 H   0  0  0  0  0  0  0  0  0  0  0  0
   57.1591   27.5005   43.6968 H   0  0  0  0  0  0  0  0  0  0  0  0
   56.6921   27.3606   46.4618 H   0  0  0  0  0  0  0  0  0  0  0  0
   57.7496   28.8065   46.2516 H   0  0  0  0  0  0  0  0  0  0  0  0
   57.8844   29.3957   43.2753 H   0  0  0  0  0  0  0  0  0  0  0  0
   56.8504   30.5873   42.3941 H   0  0  0  0  0  0  0  0  0  0  0  0
   57.9101   30.0408   45.9995 H   0  0  0  0  0  0  0  0  0  0  0  0
   58.7901   31.8962   47.4139 H   0  0  0  0  0  0  0  0  0  0  0  0
   58.4274   34.6260   44.0779 H   0  0  0  0  0  0  0  0  0  0  0  0
   57.5452   32.7753   42.6551 H   0  0  0  0  0  0  0  0  0  0  0  0
   57.8680   23.8897   43.2146 H   0  0  0  0  0  0  0  0  0  0  0  0
  1  2  1  0
  2  3  1  0
  3  4  2  0
  4  5  1  0
  5  6  2  0
  6  7  1  0
  7  8  1  0
  8  9  1  0
  9 10  1  0
 10 11  1  0
 11 12  1  0
 12 13  2  0
 12 14  1  0
 14 15  1  0
 15 16  2  0
 16 17  1  0
 17 18  2  0
 18 19  1  0
 18 20  1  0
 20 21  2  0
  7 22  2  0
 22  3  1  0
 21 15  1  0
  1 23  1  0
  1 24  1  0
  1 25  1  0
  4 26  1  0
  5 27  1  0
  6 28  1  0
  9 29  1  0
  9 30  1  0
 10 31  1  0
 10 32  1  0
 14 33  1  0
 14 34  1  0
 16 35  1  0
 17 36  1  0
 20 37  1  0
 21 38  1  0
 22 39  1  0
M  CHG  1  11  -1
M  END
>  <UniqueID>  (27) 
27

>  <SMILES>  (27) 
COc1cccc(OCC[N-]C(=O)Cc2ccc(Br)cc2)c1

>  <Energy>  (27) 
33.975064887151696

>  <Genealogy>  (27) 
COc1cccc(OCC[N-]C(=O)Cc2ccc(Br)cc2)c1 (protonated)
COc1cccc(OCC[N-]C(=O)Cc2ccc(Br)cc2)c1 (3D coordinates assigned)
COc1cccc(OCC[N-]C(=O)Cc2ccc(Br)cc2)c1 (optimized conformer: 33.975064887151696 kcal/mol)

>  <smiles>  (27) 
COc1cccc(OCCNC(=O)Cc2ccc(Br)cc2)c1

>  <score_type>  (27) 
oracle

>  <origin>  (27) 
adg

>  <m_score__min__energy>  (27) 
-10.08

>  <m_primary>  (27) 
energy

$$$$
27:0
     RDKit          3D

 36 38  0  0  0  0  0  0  0  0999 V2000
   57.0390   20.7510   42.9870 C   0  0  0  0  0  0  0  0  0  0  0  0
   55.9220   21.6330   43.0080 O   0  0  0  0  0  0  0  0  0  0  0  0
   55.8620   22.8170   43.7570 C   0  0  0  0  0  0  0  0  0  0  0  0
   54.7630   23.1380   44.5770 C   0  0  0  0  0  0  0  0  0  0  0  0
   54.7510   24.3330   45.3030 C   0  0  0  0  0  0  0  0  0  0  0  0
   55.8230   25.2280   45.2170 C   0  0  0  0  0  0  0  0  0  0  0  0
   55.7770   26.4100   45.9700 O   0  0  0  0  0  0  0  0  0  0  0  0
   56.8940   27.1670   46.3530 C   0  0  0  0  0  0  0  0  0  0  0  0
   57.8800   26.5760   47.1440 C   0  0  0  0  0  0  0  0  0  0  0  0
   57.7490   24.8990   47.6480 Cl  0  0  0  0  0  0  0  0  0  0  0  0
   58.9940   27.3240   47.5120 C   0  0  0  0  0  0  0  0  0  0  0  0
   59.0930   28.6190   47.1210 N   0  0  0  0  0  0  0  0  0  0  0  0
   58.1450   29.2180   46.3940 N   0  0  0  0  0  0  0  0  0  0  0  0
   58.3380   30.6010   46.0400 C   0  0  0  0  0  0  0  0  0  0  0  0
   58.7530   31.5410   47.0010 C   0  0  0  0  0  0  0  0  0  0  0  0
   58.9580   32.8760   46.6390 C   0  0  0  0  0  0  0  0  0  0  0  0
   58.7620   33.2830   45.3150 C   0  0  0  0  0  0  0  0  0  0  0  0
   59.0220   34.9580   44.8640 Cl  0  0  0  0  0  0  0  0  0  0  0  0
   58.3660   32.3500   44.3500 C   0  0  0  0  0  0  0  0  0  0  0  0
   58.1600   31.0150   44.7100 C   0  0  0  0  0  0  0  0  0  0  0  0
   57.0340   28.5190   45.9910 C   0  0  0  0  0  0  0  0  0  0  0  0
   56.1370   29.0800   45.3030 O   0  0  0  0  0  0  0  0  0  0  0  0
   56.9270   24.9010   44.4100 C   0  0  0  0  0  0  0  0  0  0  0  0
   56.9400   23.7070   43.6830 C   0  0  0  0  0  0  0  0  0  0  0  0
   57.3387   20.5143   44.0186 H   0  0  0  0  0  0  0  0  0  0  0  0
   56.7641   19.8236   42.4631 H   0  0  0  0  0  0  0  0  0  0  0  0
   57.8773   21.2334   42.4631 H   0  0  0  0  0  0  0  0  0  0  0  0
   53.9108   22.4460   44.6466 H   0  0  0  0  0  0  0  0  0  0  0  0
   53.8917   24.5714   45.9470 H   0  0  0  0  0  0  0  0  0  0  0  0
   59.7908   26.8672   48.1173 H   0  0  0  0  0  0  0  0  0  0  0  0
   58.9169   31.2244   48.0416 H   0  0  0  0  0  0  0  0  0  0  0  0
   59.2741   33.6078   47.3970 H   0  0  0  0  0  0  0  0  0  0  0  0
   58.2167   32.6674   43.3074 H   0  0  0  0  0  0  0  0  0  0  0  0
   57.8564   30.2839   43.9463 H   0  0  0  0  0  0  0  0  0  0  0  0
   57.7842   25.5877   44.3504 H   0  0  0  0  0  0  0  0  0  0  0  0
   57.8046   23.4648   43.0475 H   0  0  0  0  0  0  0  0  0  0  0  0
  1  2  1  0
  2  3  1  0
  3  4  2  0
  4  5  1  0
  5  6  2  0
  6  7  1  0
  7  8  1  0
  8  9  2  0
  9 10  1  0
  9 11  1  0
 11 12  2  0
 12 13  1  0
 13 14  1  0
 14 15  2  0
 15 16  1  0
 16 17  2  0
 17 18  1  0
 17 19  1  0
 19 20  2  0
 13 21  1  0
 21 22  2  0
  6 23  1  0
 23 24  2  0
 24  3  1  0
 21  8  1  0
 20 14  1  0
  1 25  1  0
  1 26  1  0
  1 27  1  0
  4 28  1  0
  5 29  1  0
 11 30  1  0
 15 31  1  0
 16 32  1  0
 19 33  1  0
 20 34  1  0
 23 35  1  0
 24 36  1  0
M  END
>  <UniqueID>  (28) 
28

>  <SMILES>  (28) 
COc1ccc(Oc2c(Cl)cnn(-c3ccc(Cl)cc3)c2=O)cc1

>  <Energy>  (28) 
54.42091785939804

>  <Genealogy>  (28) 
COc1ccc(Oc2c(Cl)cnn(-c3ccc(Cl)cc3)c2=O)cc1 (3D coordinates assigned)
COc1ccc(Oc2c(Cl)cnn(-c3ccc(Cl)cc3)c2=O)cc1 (optimized conformer: 54.42091785939804 kcal/mol)

>  <smiles>  (28) 
COc1ccc(Oc2c(Cl)cnn(-c3ccc(Cl)cc3)c2=O)cc1

>  <score_type>  (28) 
oracle

>  <origin>  (28) 
adg

>  <m_score__min__energy>  (28) 
-7.6299999999999999

>  <m_primary>  (28) 
energy

$$$$
28:0
     RDKit          3D

 36 38  0  0  0  0  0  0  0  0999 V2000
   59.0660   34.6680   44.8680 C   0  0  0  0  0  0  0  0  0  0  0  0
   59.5460   35.2190   46.2070 C   0  0  0  0  0  0  0  0  0  0  0  0
   58.7880   34.6630   47.2650 O   0  0  0  0  0  0  0  0  0  0  0  0
   58.1940   33.4450   46.8690 C   0  0  0  0  0  0  0  0  0  0  0  0
   59.1970   32.3810   46.9440 N   0  0  0  0  0  0  0  0  0  0  0  0
   59.2490   31.2570   46.1750 C   0  0  0  0  0  0  0  0  0  0  0  0
   58.2150   30.8520   45.2050 C   0  0  0  0  0  0  0  0  0  0  0  0
   58.0210   31.5800   44.0200 C   0  0  0  0  0  0  0  0  0  0  0  0
   57.0440   31.1840   43.1030 C   0  0  0  0  0  0  0  0  0  0  0  0
   56.2460   30.0670   43.3670 C   0  0  0  0  0  0  0  0  0  0  0  0
   56.4210   29.3480   44.5530 C   0  0  0  0  0  0  0  0  0  0  0  0
   57.3970   29.7420   45.4730 C   0  0  0  0  0  0  0  0  0  0  0  0
   60.4580   30.5840   46.3490 C   0  0  0  0  0  0  0  0  0  0  0  0
   61.1570   31.3460   47.2560 C   0  0  0  0  0  0  0  0  0  0  0  0
   62.4340   31.2150   47.7800 C   0  0  0  0  0  0  0  0  0  0  0  0
   62.8790   32.1890   48.6240 N   0  0  0  0  0  0  0  0  0  0  0  0
   62.1010   33.2710   48.9410 C   0  0  0  0  0  0  0  0  0  0  0  0
   62.6190   34.2770   49.8290 C   0  0  0  0  0  0  0  0  0  0  0  0
   63.0370   35.0850   50.5430 N   0  0  0  0  0  0  0  0  0  0  0  0
   60.8440   33.3990   48.4130 N   0  0  0  0  0  0  0  0  0  0  0  0
   60.3850   32.4210   47.5850 C   0  0  0  0  0  0  0  0  0  0  0  0
   58.3527   33.8491   45.0430 H   0  0  0  0  0  0  0  0  0  0  0  0
   58.5724   35.4687   44.2977 H   0  0  0  0  0  0  0  0  0  0  0  0
   59.9268   34.2888   44.2977 H   0  0  0  0  0  0  0  0  0  0  0  0
   60.6066   34.9625   46.3462 H   0  0  0  0  0  0  0  0  0  0  0  0
   59.4199   36.3117   46.2111 H   0  0  0  0  0  0  0  0  0  0  0  0
   57.3544   33.2087   47.5392 H   0  0  0  0  0  0  0  0  0  0  0  0
   57.8190   33.5313   45.8385 H   0  0  0  0  0  0  0  0  0  0  0  0
   58.6404   32.4652   43.8129 H   0  0  0  0  0  0  0  0  0  0  0  0
   56.9025   31.7521   42.1718 H   0  0  0  0  0  0  0  0  0  0  0  0
   55.4806   29.7539   42.6417 H   0  0  0  0  0  0  0  0  0  0  0  0
   55.7902   28.4715   44.7625 H   0  0  0  0  0  0  0  0  0  0  0  0
   57.5249   29.1807   46.4103 H   0  0  0  0  0  0  0  0  0  0  0  0
   60.7814   29.6496   45.8670 H   0  0  0  0  0  0  0  0  0  0  0  0
   63.0675   30.3532   47.5231 H   0  0  0  0  0  0  0  0  0  0  0  0
   60.2600   34.2320   48.6460 H   0  0  0  0  0  0  0  0  0  0  0  0
  1  2  1  0
  2  3  1  0
  3  4  1  0
  4  5  1  0
  5  6  1  0
  6  7  1  0
  7  8  2  0
  8  9  1  0
  9 10  2  0
 10 11  1  0
 11 12  2  0
  6 13  2  0
 13 14  1  0
 14 15  2  0
 15 16  1  0
 16 17  2  0
 17 18  1  0
 18 19  3  0
 17 20  1  0
 20 21  2  0
 21  5  1  0
 12  7  1  0
 21 14  1  0
  1 22  1  0
  1 23  1  0
  1 24  1  0
  2 25  1  0
  2 26  1  0
  4 27  1  0
  4 28  1  0
  8 29  1  0
  9 30  1  0
 10 31  1  0
 11 32  1  0
 12 33  1  0
 13 34  1  0
 15 35  1  0
 20 36  1  0
M  CHG  1  20   1
M  END
>  <UniqueID>  (29) 
29

>  <SMILES>  (29) 
CCOCn1c(-c2ccccc2)cc2cnc(C#N)[nH+]c21

>  <Energy>  (29) 
78.36741629563642

>  <Genealogy>  (29) 
CCOCn1c(-c2ccccc2)cc2cnc(C#N)[nH+]c21 (protonated)
CCOCn1c(-c2ccccc2)cc2cnc(C#N)[nH+]c21 (3D coordinates assigned)
CCOCn1c(-c2ccccc2)cc2cnc(C#N)[nH+]c21 (optimized conformer: 78.36741629563642 kcal/mol)

>  <smiles>  (29) 
CCOCn1c(-c2ccccc2)cc2cnc(C#N)nc21

>  <score_type>  (29) 
oracle

>  <origin>  (29) 
adg

>  <m_score__min__energy>  (29) 
-5.1699999999999999

>  <m_primary>  (29) 
energy

$$$$
29:0
     RDKit          3D

 54 56  0  0  0  0  0  0  0  0999 V2000
   60.1880   28.5750   44.8520 C   0  0  0  0  0  0  0  0  0  0  0  0
   60.0280   29.8430   45.4500 O   0  0  0  0  0  0  0  0  0  0  0  0
   60.3860   29.7930   46.8170 C   0  0  0  0  0  0  0  0  0  0  0  0
   60.8370   31.1820   47.2940 C   0  0  0  0  0  0  0  0  0  0  0  0
   60.0580   32.3210   46.5970 C   0  0  1  0  0  0  0  0  0  0  0  0
   58.5370   32.0810   46.6370 C   0  0  0  0  0  0  0  0  0  0  0  0
   57.8050   33.0940   45.8520 N   0  0  0  0  0  0  0  0  0  0  0  0
   57.9300   32.9000   44.3920 C   0  0  0  0  0  0  0  0  0  0  0  0
   57.2360   31.6340   43.9830 C   0  0  0  0  0  0  0  0  0  0  0  0
   56.7970   30.7180   44.8720 N   0  0  0  0  0  0  0  0  0  0  0  0
   56.2890   29.7300   44.1060 C   0  0  0  0  0  0  0  0  0  0  0  0
   56.4320   30.0560   42.7750 C   0  0  0  0  0  0  0  0  0  0  0  0
   57.0220   31.2610   42.7030 N   0  0  0  0  0  0  0  0  0  0  0  0
   57.4340   31.9530   41.4860 C   0  0  0  0  0  0  0  0  0  0  0  0
   58.1380   34.4670   46.2860 C   0  0  0  0  0  0  0  0  0  0  0  0
   59.6590   34.7390   46.3430 C   0  0  0  0  0  0  0  0  0  0  0  0
   60.4000   33.6870   47.0690 N   0  0  0  0  0  0  0  0  0  0  0  0
   60.6360   33.9540   48.5140 C   0  0  0  0  0  0  0  0  0  0  0  0
   62.0530   33.7220   48.9880 C   0  0  0  0  0  0  0  0  0  0  0  0
   63.0540   33.3370   48.0810 C   0  0  0  0  0  0  0  0  0  0  0  0
   64.3550   33.1010   48.5290 C   0  0  0  0  0  0  0  0  0  0  0  0
   64.6440   33.2210   49.8920 C   0  0  0  0  0  0  0  0  0  0  0  0
   66.0340   32.9900   50.3940 C   0  0  0  0  0  0  0  0  0  0  0  0
   63.6550   33.5550   50.7640 N   0  0  0  0  0  0  0  0  0  0  0  0
   62.3820   33.7920   50.3510 C   0  0  0  0  0  0  0  0  0  0  0  0
   60.2846   27.8094   45.6360 H   0  0  0  0  0  0  0  0  0  0  0  0
   59.3110   28.3511   44.2269 H   0  0  0  0  0  0  0  0  0  0  0  0
   61.0931   28.5760   44.2269 H   0  0  0  0  0  0  0  0  0  0  0  0
   59.5176   29.4689   47.4092 H   0  0  0  0  0  0  0  0  0  0  0  0
   61.2138   29.0805   46.9473 H   0  0  0  0  0  0  0  0  0  0  0  0
   60.6737   31.2539   48.3794 H   0  0  0  0  0  0  0  0  0  0  0  0
   61.9012   31.2967   47.0404 H   0  0  0  0  0  0  0  0  0  0  0  0
   60.3919   32.2852   45.5495 H   0  0  0  0  0  0  0  0  0  0  0  0
   58.3220   31.0849   46.2228 H   0  0  0  0  0  0  0  0  0  0  0  0
   58.2055   32.1519   47.6835 H   0  0  0  0  0  0  0  0  0  0  0  0
   57.4706   33.7525   43.8703 H   0  0  0  0  0  0  0  0  0  0  0  0
   58.9951   32.8309   44.1260 H   0  0  0  0  0  0  0  0  0  0  0  0
   55.8306   28.8052   44.4863 H   0  0  0  0  0  0  0  0  0  0  0  0
   56.1181   29.4380   41.9209 H   0  0  0  0  0  0  0  0  0  0  0  0
   57.9800   32.8700   41.7526 H   0  0  0  0  0  0  0  0  0  0  0  0
   58.0880   31.2958   40.8941 H   0  0  0  0  0  0  0  0  0  0  0  0
   56.5446   32.2148   40.8941 H   0  0  0  0  0  0  0  0  0  0  0  0
   57.6828   35.1765   45.5793 H   0  0  0  0  0  0  0  0  0  0  0  0
   57.7469   34.5897   47.3068 H   0  0  0  0  0  0  0  0  0  0  0  0
   60.0451   34.7953   45.3145 H   0  0  0  0  0  0  0  0  0  0  0  0
   59.8072   35.6842   46.8857 H   0  0  0  0  0  0  0  0  0  0  0  0
   60.3784   35.0048   48.7125 H   0  0  0  0  0  0  0  0  0  0  0  0
   60.0087   33.2367   49.0636 H   0  0  0  0  0  0  0  0  0  0  0  0
   62.8120   33.2211   47.0142 H   0  0  0  0  0  0  0  0  0  0  0  0
   65.1456   32.8232   47.8164 H   0  0  0  0  0  0  0  0  0  0  0  0
   66.0314   32.9904   51.4940 H   0  0  0  0  0  0  0  0  0  0  0  0
   66.3992   32.0189   50.0286 H   0  0  0  0  0  0  0  0  0  0  0  0
   66.6936   33.7908   50.0286 H   0  0  0  0  0  0  0  0  0  0  0  0
   61.6050   34.0401   51.0890 H   0  0  0  0  0  0  0  0  0  0  0  0
  1  2  1  0
  2  3  1  0
  3  4  1  0
  4  5  1  0
  5  6  1  0
  6  7  1  0
  7  8  1  0
  8  9  1  0
  9 10  2  0
 10 11  1  0
 11 12  2  0
 12 13  1  0
 13 14  1  0
  7 15  1  0
 15 16  1  0
 16 17  1  0
 17 18  1  0
 18 19  1  0
 19 20  2  0
 20 21  1  0
 21 22  2  0
 22 23  1  0
 22 24  1  0
 24 25  2  0
 17  5  1  0
 25 19  1  0
 13  9  1  0
  1 26  1  0
  1 27  1  0
  1 28  1  0
  3 29  1  0
  3 30  1  0
  4 31  1  0
  4 32  1  0
  5 33  1  6
  6 34  1  0
  6 35  1  0
  8 36  1  0
  8 37  1  0
 11 38  1  0
 12 39  1  0
 14 40  1  0
 14 41  1  0
 14 42  1  0
 15 43  1  0
 15 44  1  0
 16 45  1  0
 16 46  1  0
 18 47  1  0
 18 48  1  0
 20 49  1  0
 21 50  1  0
 23 51  1  0
 23 52  1  0
 23 53  1  0
 25 54  1  0
M  END
>  <UniqueID>  (30) 
30

>  <SMILES>  (30) 
COCC[C@H]1CN(Cc2nccn2C)CCN1Cc1ccc(C)nc1

>  <Energy>  (30) 
98.68194157944694

>  <Genealogy>  (30) 
COCC[C@H]1CN(Cc2nccn2C)CCN1Cc1ccc(C)nc1 (chirality)
COCC[C@H]1CN(Cc2nccn2C)CCN1Cc1ccc(C)nc1 (3D coordinates assigned)
COCC[C@H]1CN(Cc2nccn2C)CCN1Cc1ccc(C)nc1 (nonaromatic ring conformer: 98.68194157944694 kcal/mol)

>  <smiles>  (30) 
COCCC1CN(Cc2nccn2C)CCN1Cc1ccc(C)nc1

>  <score_type>  (30) 
oracle

>  <origin>  (30) 
adg

>  <m_score__min__energy>  (30) 
-7.4800000000000004

>  <m_primary>  (30) 
energy

$$$$
30:0
     RDKit          3D

 59 60  0  0  0  0  0  0  0  0999 V2000
   60.1920   29.9050   47.5870 C   0  0  0  0  0  0  0  0  0  0  0  0
   61.1470   30.7830   46.7880 C   0  0  0  0  0  0  0  0  0  0  0  0
   61.8030   31.7780   47.6680 N   0  0  0  0  0  0  0  0  0  0  0  0
   63.2650   31.8040   47.4160 C   0  0  0  0  0  0  0  0  0  0  0  0
   63.6610   33.1400   46.7930 C   0  0  0  0  0  0  0  0  0  0  0  0
   61.5070   31.5140   49.0970 C   0  0  0  0  0  0  0  0  0  0  0  0
   61.2180   32.8370   49.8580 C   0  0  1  0  0  0  0  0  0  0  0  0
   61.3180   34.0390   48.9860 N   0  0  0  0  0  0  0  0  0  0  0  0
   60.0500   34.7130   48.6190 C   0  0  0  0  0  0  0  0  0  0  0  0
   59.3190   34.0290   47.4910 C   0  0  0  0  0  0  0  0  0  0  0  0
   58.3810   33.0210   47.7710 C   0  0  0  0  0  0  0  0  0  0  0  0
   57.7670   32.3170   46.7300 C   0  0  0  0  0  0  0  0  0  0  0  0
   58.0710   32.6190   45.3920 C   0  0  0  0  0  0  0  0  0  0  0  0
   57.4320   31.8370   44.2620 C   0  0  0  0  0  0  0  0  0  0  0  0
   56.7700   30.5840   44.6940 N   0  0  0  0  0  0  0  0  0  0  0  0
   57.7290   29.5250   45.0450 C   0  0  0  0  0  0  0  0  0  0  0  0
   55.7810   30.1020   43.7200 C   0  0  0  0  0  0  0  0  0  0  0  0
   59.0020   33.6330   45.1140 C   0  0  0  0  0  0  0  0  0  0  0  0
   59.6270   34.3260   46.1540 C   0  0  0  0  0  0  0  0  0  0  0  0
   59.9370   32.8050   50.6870 C   0  0  0  0  0  0  0  0  0  0  0  0
   59.0700   31.7040   50.5640 C   0  0  0  0  0  0  0  0  0  0  0  0
   57.9080   31.6210   51.3350 C   0  0  0  0  0  0  0  0  0  0  0  0
   57.6000   32.6310   52.2480 C   0  0  0  0  0  0  0  0  0  0  0  0
   58.4550   33.7260   52.3930 C   0  0  0  0  0  0  0  0  0  0  0  0
   58.1610   34.7010   53.2880 F   0  0  0  0  0  0  0  0  0  0  0  0
   59.6190   33.8150   51.6230 C   0  0  0  0  0  0  0  0  0  0  0  0
   60.3626   30.0618   48.6623 H   0  0  0  0  0  0  0  0  0  0  0  0
   59.1541   30.1708   47.3378 H   0  0  0  0  0  0  0  0  0  0  0  0
   60.3699   28.8485   47.3378 H   0  0  0  0  0  0  0  0  0  0  0  0
   61.9165   30.1494   46.3227 H   0  0  0  0  0  0  0  0  0  0  0  0
   60.5743   31.3170   46.0154 H   0  0  0  0  0  0  0  0  0  0  0  0
   63.8015   31.6718   48.3672 H   0  0  0  0  0  0  0  0  0  0  0  0
   63.5279   30.9899   46.7246 H   0  0  0  0  0  0  0  0  0  0  0  0
   63.8764   33.8668   47.5901 H   0  0  0  0  0  0  0  0  0  0  0  0
   64.5571   33.0028   46.1700 H   0  0  0  0  0  0  0  0  0  0  0  0
   62.8349   33.5133   46.1700 H   0  0  0  0  0  0  0  0  0  0  0  0
   60.6263   30.8587   49.1671 H   0  0  0  0  0  0  0  0  0  0  0  0
   62.3834   31.0308   49.5535 H   0  0  0  0  0  0  0  0  0  0  0  0
   62.0294   32.9271   50.5953 H   0  0  0  0  0  0  0  0  0  0  0  0
   61.8980   34.7410   49.5030 H   0  0  0  0  0  0  0  0  0  0  0  0
   61.8680   33.8040   48.1250 H   0  0  0  0  0  0  0  0  0  0  0  0
   59.3941   34.7289   49.5019 H   0  0  0  0  0  0  0  0  0  0  0  0
   60.3056   35.7265   48.2762 H   0  0  0  0  0  0  0  0  0  0  0  0
   58.1281   32.7842   48.8150 H   0  0  0  0  0  0  0  0  0  0  0  0
   57.0420   31.5224   46.9602 H   0  0  0  0  0  0  0  0  0  0  0  0
   56.6785   32.4779   43.7809 H   0  0  0  0  0  0  0  0  0  0  0  0
   58.2429   31.5482   43.5771 H   0  0  0  0  0  0  0  0  0  0  0  0
   57.8019   29.4445   46.1396 H   0  0  0  0  0  0  0  0  0  0  0  0
   57.3853   28.5665   44.6289 H   0  0  0  0  0  0  0  0  0  0  0  0
   58.7168   29.7722   44.6289 H   0  0  0  0  0  0  0  0  0  0  0  0
   54.9162   29.6806   44.2535 H   0  0  0  0  0  0  0  0  0  0  0  0
   55.4497   30.9397   43.0887 H   0  0  0  0  0  0  0  0  0  0  0  0
   56.2367   29.3249   43.0887 H   0  0  0  0  0  0  0  0  0  0  0  0
   59.2410   33.8835   44.0699 H   0  0  0  0  0  0  0  0  0  0  0  0
   60.3647   35.1088   45.9237 H   0  0  0  0  0  0  0  0  0  0  0  0
   59.3097   30.8997   49.8530 H   0  0  0  0  0  0  0  0  0  0  0  0
   57.2347   30.7584   51.2225 H   0  0  0  0  0  0  0  0  0  0  0  0
   56.6839   32.5646   52.8533 H   0  0  0  0  0  0  0  0  0  0  0  0
   60.2914   34.6767   51.7467 H   0  0  0  0  0  0  0  0  0  0  0  0
  1  2  1  0
  2  3  1  0
  3  4  1  0
  4  5  1  0
  3  6  1  0
  6  7  1  0
  7  8  1  0
  8  9  1  0
  9 10  1  0
 10 11  2  0
 11 12  1  0
 12 13  2  0
 13 14  1  0
 14 15  1  0
 15 16  1  0
 15 17  1  0
 13 18  1  0
 18 19  2  0
  7 20  1  0
 20 21  2  0
 21 22  1  0
 22 23  2  0
 23 24  1  0
 24 25  1  0
 24 26  2  0
 19 10  1  0
 26 20  1  0
  1 27  1  0
  1 28  1  0
  1 29  1  0
  2 30  1  0
  2 31  1  0
  4 32  1  0
  4 33  1  0
  5 34  1  0
  5 35  1  0
  5 36  1  0
  6 37  1  0
  6 38  1  0
  7 39  1  1
  8 40  1  0
  8 41  1  0
  9 42  1  0
  9 43  1  0
 11 44  1  0
 12 45  1  0
 14 46  1  0
 14 47  1  0
 16 48  1  0
 16 49  1  0
 16 50  1  0
 17 51  1  0
 17 52  1  0
 17 53  1  0
 18 54  1  0
 19 55  1  0
 21 56  1  0
 22 57  1  0
 23 58  1  0
 26 59  1  0
M  CHG  1   8   1
M  END
>  <UniqueID>  (31) 
31

>  <SMILES>  (31) 
CCN(CC)C[C@@H]([NH2+]Cc1ccc(CN(C)C)cc1)c1cccc(F)c1

>  <Energy>  (31) 
64.99061834984015

>  <Genealogy>  (31) 
CCN(CC)CC([NH2+]Cc1ccc(CN(C)C)cc1)c1cccc(F)c1 (protonated)
CCN(CC)C[C@@H]([NH2+]Cc1ccc(CN(C)C)cc1)c1cccc(F)c1 (chirality)
CCN(CC)C[C@@H]([NH2+]Cc1ccc(CN(C)C)cc1)c1cccc(F)c1 (3D coordinates assigned)
CCN(CC)C[C@@H]([NH2+]Cc1ccc(CN(C)C)cc1)c1cccc(F)c1 (optimized conformer: 64.99061834984015 kcal/mol)

>  <smiles>  (31) 
CCN(CC)CC(NCc1ccc(CN(C)C)cc1)c1cccc(F)c1

>  <score_type>  (31) 
oracle

>  <origin>  (31) 
adg

>  <m_score__min__energy>  (31) 
-5.4100000000000001

>  <m_primary>  (31) 
energy

$$$$
31:0
     RDKit          3D

 41 43  0  0  0  0  0  0  0  0999 V2000
   56.9770   22.0040   46.5870 C   0  0  0  0  0  0  0  0  0  0  0  0
   57.3970   23.1360   47.3420 O   0  0  0  0  0  0  0  0  0  0  0  0
   57.3900   24.4550   46.8620 C   0  0  0  0  0  0  0  0  0  0  0  0
   56.2070   25.1140   46.4810 C   0  0  0  0  0  0  0  0  0  0  0  0
   56.2520   26.4280   46.0080 C   0  0  0  0  0  0  0  0  0  0  0  0
   57.4790   27.1080   45.9060 C   0  0  0  0  0  0  0  0  0  0  0  0
   57.5320   28.5050   45.4050 C   0  0  0  0  0  0  0  0  0  0  0  0
   58.2560   29.4800   46.1040 C   0  0  0  0  0  0  0  0  0  0  0  0
   58.2920   30.8010   45.6390 C   0  0  0  0  0  0  0  0  0  0  0  0
   58.9890   31.8170   46.4640 C   0  0  0  0  0  0  0  0  0  0  0  0
   58.2590   32.8200   47.1240 C   0  0  0  0  0  0  0  0  0  0  0  0
   58.9190   33.7700   47.9090 C   0  0  0  0  0  0  0  0  0  0  0  0
   60.3090   33.7220   48.0460 C   0  0  0  0  0  0  0  0  0  0  0  0
   60.9470   34.6440   48.8080 F   0  0  0  0  0  0  0  0  0  0  0  0
   61.0400   32.7190   47.4040 C   0  0  0  0  0  0  0  0  0  0  0  0
   60.3850   31.7660   46.6180 C   0  0  0  0  0  0  0  0  0  0  0  0
   57.6170   31.1330   44.4410 C   0  0  0  0  0  0  0  0  0  0  0  0
   57.6900   32.4930   43.8480 C   0  0  0  0  0  0  0  0  0  0  0  0
   58.1430   32.7100   42.4370 C   0  0  0  0  0  0  0  0  0  0  0  0
   57.3450   33.4910   44.5360 O   0  0  0  0  0  0  0  0  0  0  0  0
   56.8900   30.1240   43.7760 C   0  0  0  0  0  0  0  0  0  0  0  0
   56.2760   30.3830   42.7050 O   0  0  0  0  0  0  0  0  0  0  0  0
   56.8620   28.8550   44.2690 N   0  0  0  0  0  0  0  0  0  0  0  0
   58.6580   26.4450   46.2880 C   0  0  0  0  0  0  0  0  0  0  0  0
   58.6100   25.1310   46.7600 C   0  0  0  0  0  0  0  0  0  0  0  0
   56.6776   21.1970   47.2719 H   0  0  0  0  0  0  0  0  0  0  0  0
   56.1224   22.2827   45.9529 H   0  0  0  0  0  0  0  0  0  0  0  0
   57.8065   21.6579   45.9529 H   0  0  0  0  0  0  0  0  0  0  0  0
   55.2416   24.5922   46.5558 H   0  0  0  0  0  0  0  0  0  0  0  0
   55.3210   26.9344   45.7132 H   0  0  0  0  0  0  0  0  0  0  0  0
   58.7982   29.2071   47.0214 H   0  0  0  0  0  0  0  0  0  0  0  0
   57.1643   32.8578   47.0226 H   0  0  0  0  0  0  0  0  0  0  0  0
   58.3435   34.5563   48.4195 H   0  0  0  0  0  0  0  0  0  0  0  0
   62.1334   32.6791   47.5172 H   0  0  0  0  0  0  0  0  0  0  0  0
   60.9636   30.9746   46.1191 H   0  0  0  0  0  0  0  0  0  0  0  0
   59.1351   33.1852   42.4394 H   0  0  0  0  0  0  0  0  0  0  0  0
   58.2013   31.7421   41.9177 H   0  0  0  0  0  0  0  0  0  0  0  0
   57.4253   33.3621   41.9177 H   0  0  0  0  0  0  0  0  0  0  0  0
   56.3340   28.1280   43.7350 H   0  0  0  0  0  0  0  0  0  0  0  0
   59.6250   26.9642   46.2148 H   0  0  0  0  0  0  0  0  0  0  0  0
   59.5405   24.6234   47.0542 H   0  0  0  0  0  0  0  0  0  0  0  0
  1  2  1  0
  2  3  1  0
  3  4  2  0
  4  5  1  0
  5  6  2  0
  6  7  1  0
  7  8  2  0
  8  9  1  0
  9 10  1  0
 10 11  2  0
 11 12  1  0
 12 13  2  0
 13 14  1  0
 13 15  1  0
 15 16  2  0
  9 17  2  0
 17 18  1  0
 18 19  1  0
 18 20  2  0
 17 21  1  0
 21 22  2  0
 21 23  1  0
  6 24  1  0
 24 25  2  0
 25  3  1  0
 23  7  1  0
 16 10  1  0
  1 26  1  0
  1 27  1  0
  1 28  1  0
  4 29  1  0
  5 30  1  0
  8 31  1  0
 11 32  1  0
 12 33  1  0
 15 34  1  0
 16 35  1  0
 19 36  1  0
 19 37  1  0
 19 38  1  0
 23 39  1  0
 24 40  1  0
 25 41  1  0
M  END
>  <UniqueID>  (32) 
32

>  <SMILES>  (32) 
COc1ccc(-c2cc(-c3ccc(F)cc3)c(C(C)=O)c(=O)[nH]2)cc1

>  <Energy>  (32) 
60.512293073267166

>  <Genealogy>  (32) 
COc1ccc(-c2cc(-c3ccc(F)cc3)c(C(C)=O)c(=O)[nH]2)cc1 (3D coordinates assigned)
COc1ccc(-c2cc(-c3ccc(F)cc3)c(C(C)=O)c(=O)[nH]2)cc1 (optimized conformer: 60.512293073267166 kcal/mol)

>  <smiles>  (32) 
COc1ccc(-c2cc(-c3ccc(F)cc3)c(C(C)=O)c(=O)[nH]2)cc1

>  <score_type>  (32) 
oracle

>  <origin>  (32) 
adg

>  <m_score__min__energy>  (32) 
-7.6799999999999997

>  <m_primary>  (32) 
energy

$$$$
32:0
     RDKit          3D

 56 57  0  0  0  0  0  0  0  0999 V2000
   57.1120   33.4930   45.9870 C   0  0  0  0  0  0  0  0  0  0  0  0
   58.0600   33.8680   44.8510 C   0  0  0  0  0  0  0  0  0  0  0  0
   59.4980   34.0370   45.3650 C   0  0  0  0  0  0  0  0  0  0  0  0
   59.5980   35.0920   46.4770 C   0  0  0  0  0  0  0  0  0  0  0  0
   60.0450   34.4880   47.8200 C   0  0  0  0  0  0  0  0  0  0  0  0
   61.5600   34.2160   47.8590 C   0  0  0  0  0  0  0  0  0  0  0  0
   61.9480   33.1640   48.9050 C   0  0  0  0  0  0  0  0  0  0  0  0
   61.2360   31.9060   48.6420 N   0  0  0  0  0  0  0  0  0  0  0  0
   61.7730   31.1970   47.4700 C   0  0  0  0  0  0  0  0  0  0  0  0
   60.6430   30.5070   46.7570 C   0  0  0  0  0  0  0  0  0  0  0  0
   59.3120   30.8020   47.0910 C   0  0  0  0  0  0  0  0  0  0  0  0
   58.2600   30.2020   46.3930 C   0  0  0  0  0  0  0  0  0  0  0  0
   58.5260   29.3050   45.3460 C   0  0  0  0  0  0  0  0  0  0  0  0
   57.3990   28.6700   44.5730 C   0  0  0  0  0  0  0  0  0  0  0  0
   56.4750   27.9780   45.4790 N   0  0  0  0  0  0  0  0  0  0  0  0
   57.1710   26.9530   46.2670 C   0  0  0  0  0  0  0  0  0  0  0  0
   56.6820   25.5880   45.8640 C   0  0  0  0  0  0  0  0  0  0  0  0
   57.6050   24.5630   45.5920 C   0  0  0  0  0  0  0  0  0  0  0  0
   57.1590   23.3000   45.1930 C   0  0  0  0  0  0  0  0  0  0  0  0
   55.7910   23.0540   45.0440 C   0  0  0  0  0  0  0  0  0  0  0  0
   54.8660   24.0700   45.2980 C   0  0  0  0  0  0  0  0  0  0  0  0
   55.3050   25.3360   45.7020 C   0  0  0  0  0  0  0  0  0  0  0  0
   54.3690   26.3390   45.9340 O   0  0  0  0  0  0  0  0  0  0  0  0
   59.8570   29.0190   45.0050 C   0  0  0  0  0  0  0  0  0  0  0  0
   60.9080   29.6220   45.7000 C   0  0  0  0  0  0  0  0  0  0  0  0
   57.6020   33.6868   46.9526 H   0  0  0  0  0  0  0  0  0  0  0  0
   56.1950   34.0961   45.9136 H   0  0  0  0  0  0  0  0  0  0  0  0
   56.8558   32.4258   45.9136 H   0  0  0  0  0  0  0  0  0  0  0  0
   58.0412   33.0738   44.0902 H   0  0  0  0  0  0  0  0  0  0  0  0
   57.7281   34.8239   44.4196 H   0  0  0  0  0  0  0  0  0  0  0  0
   59.8484   33.0720   45.7600 H   0  0  0  0  0  0  0  0  0  0  0  0
   60.1195   34.3751   44.5227 H   0  0  0  0  0  0  0  0  0  0  0  0
   60.3276   35.8572   46.1735 H   0  0  0  0  0  0  0  0  0  0  0  0
   58.5967   35.5243   46.6203 H   0  0  0  0  0  0  0  0  0  0  0  0
   59.7902   35.1908   48.6270 H   0  0  0  0  0  0  0  0  0  0  0  0
   59.5256   33.5268   47.9479 H   0  0  0  0  0  0  0  0  0  0  0  0
   61.8789   33.8606   46.8680 H   0  0  0  0  0  0  0  0  0  0  0  0
   62.0585   35.1570   48.1349 H   0  0  0  0  0  0  0  0  0  0  0  0
   63.0324   32.9855   48.8570 H   0  0  0  0  0  0  0  0  0  0  0  0
   61.6738   33.5314   49.9049 H   0  0  0  0  0  0  0  0  0  0  0  0
   60.2280   32.1310   48.4710 H   0  0  0  0  0  0  0  0  0  0  0  0
   62.2529   31.9171   46.7909 H   0  0  0  0  0  0  0  0  0  0  0  0
   62.5179   30.4548   47.7929 H   0  0  0  0  0  0  0  0  0  0  0  0
   59.0958   31.5086   47.9058 H   0  0  0  0  0  0  0  0  0  0  0  0
   57.2196   30.4335   46.6650 H   0  0  0  0  0  0  0  0  0  0  0  0
   56.8511   29.4513   44.0258 H   0  0  0  0  0  0  0  0  0  0  0  0
   57.8210   27.9368   43.8699 H   0  0  0  0  0  0  0  0  0  0  0  0
   55.7560   27.4930   44.8910 H   0  0  0  0  0  0  0  0  0  0  0  0
   58.2534   27.0229   46.0840 H   0  0  0  0  0  0  0  0  0  0  0  0
   56.9672   27.1131   47.3360 H   0  0  0  0  0  0  0  0  0  0  0  0
   58.6832   24.7560   45.6937 H   0  0  0  0  0  0  0  0  0  0  0  0
   57.8857   22.4981   44.9959 H   0  0  0  0  0  0  0  0  0  0  0  0
   55.4426   22.0601   44.7266 H   0  0  0  0  0  0  0  0  0  0  0  0
   53.7900   23.8743   45.1801 H   0  0  0  0  0  0  0  0  0  0  0  0
   60.0736   28.3167   44.1866 H   0  0  0  0  0  0  0  0  0  0  0  0
   61.9482   29.4023   45.4177 H   0  0  0  0  0  0  0  0  0  0  0  0
  1  2  1  0
  2  3  1  0
  3  4  1  0
  4  5  1  0
  5  6  1  0
  6  7  1  0
  7  8  1  0
  8  9  1  0
  9 10  1  0
 10 11  2  0
 11 12  1  0
 12 13  2  0
 13 14  1  0
 14 15  1  0
 15 16  1  0
 16 17  1  0
 17 18  2  0
 18 19  1  0
 19 20  2  0
 20 21  1  0
 21 22  2  0
 22 23  1  0
 13 24  1  0
 24 25  2  0
 25 10  1  0
 22 17  1  0
  1 26  1  0
  1 27  1  0
  1 28  1  0
  2 29  1  0
  2 30  1  0
  3 31  1  0
  3 32  1  0
  4 33  1  0
  4 34  1  0
  5 35  1  0
  5 36  1  0
  6 37  1  0
  6 38  1  0
  7 39  1  0
  7 40  1  0
  8 41  1  0
  9 42  1  0
  9 43  1  0
 11 44  1  0
 12 45  1  0
 14 46  1  0
 14 47  1  0
 15 48  1  0
 16 49  1  0
 16 50  1  0
 18 51  1  0
 19 52  1  0
 20 53  1  0
 21 54  1  0
 24 55  1  0
 25 56  1  0
M  CHG  1  23  -1
M  END
>  <UniqueID>  (33) 
33

>  <SMILES>  (33) 
CCCCCCCNCc1ccc(CNCc2ccccc2[O-])cc1

>  <Energy>  (33) 
39.36799594559488

>  <Genealogy>  (33) 
CCCCCCCNCc1ccc(CNCc2ccccc2[O-])cc1 (protonated)
CCCCCCCNCc1ccc(CNCc2ccccc2[O-])cc1 (3D coordinates assigned)
CCCCCCCNCc1ccc(CNCc2ccccc2[O-])cc1 (optimized conformer: 39.36799594559488 kcal/mol)

>  <smiles>  (33) 
CCCCCCCNCc1ccc(CNCc2ccccc2O)cc1

>  <score_type>  (33) 
oracle

>  <origin>  (33) 
adg

>  <m_score__min__energy>  (33) 
-11.9

>  <m_primary>  (33) 
energy

$$$$
33:0
     RDKit          3D

 30 31  0  0  0  0  0  0  0  0999 V2000
   62.1990   33.5500   47.2320 C   0  0  0  0  0  0  0  0  0  0  0  0
   60.8460   34.1120   47.6480 C   0  0  0  0  0  0  0  0  0  0  0  0
   59.8840   33.9880   46.5520 N   0  0  0  0  0  0  0  0  0  0  0  0
   59.4240   35.0020   45.7800 C   0  0  0  0  0  0  0  0  0  0  0  0
   58.4740   34.5370   44.8780 C   0  0  0  0  0  0  0  0  0  0  0  0
   58.3560   33.1880   45.1360 C   0  0  0  0  0  0  0  0  0  0  0  0
   57.5420   32.2260   44.5460 C   0  0  0  0  0  0  0  0  0  0  0  0
   57.6190   30.9060   45.0310 C   0  0  0  0  0  0  0  0  0  0  0  0
   56.6230   29.6490   44.2990 S   0  0  0  0  0  0  0  0  0  0  0  0
   56.5380   29.8930   42.8190 O   0  0  0  0  0  0  0  0  0  0  0  0
   55.2320   29.6950   44.8680 O   0  0  0  0  0  0  0  0  0  0  0  0
   57.3200   28.0820   44.5800 N   0  0  0  0  0  0  0  0  0  0  0  0
   58.6980   28.0600   44.0960 C   0  0  0  0  0  0  0  0  0  0  0  0
   58.5100   30.5890   46.0870 C   0  0  0  0  0  0  0  0  0  0  0  0
   59.3180   31.5850   46.6630 C   0  0  0  0  0  0  0  0  0  0  0  0
   59.2170   32.8830   46.1580 C   0  0  0  0  0  0  0  0  0  0  0  0
   62.7863   33.3060   48.1295 H   0  0  0  0  0  0  0  0  0  0  0  0
   62.0494   32.6396   46.6330 H   0  0  0  0  0  0  0  0  0  0  0  0
   62.7385   34.2985   46.6330 H   0  0  0  0  0  0  0  0  0  0  0  0
   60.4749   33.5550   48.5209 H   0  0  0  0  0  0  0  0  0  0  0  0
   60.9638   35.1760   47.9011 H   0  0  0  0  0  0  0  0  0  0  0  0
   59.7561   36.0479   45.8564 H   0  0  0  0  0  0  0  0  0  0  0  0
   57.9318   35.1211   44.1198 H   0  0  0  0  0  0  0  0  0  0  0  0
   56.8586   32.4887   43.7251 H   0  0  0  0  0  0  0  0  0  0  0  0
   56.7720   27.3950   44.0140 H   0  0  0  0  0  0  0  0  0  0  0  0
   59.3875   28.0490   44.9530 H   0  0  0  0  0  0  0  0  0  0  0  0
   58.8578   27.1592   43.4853 H   0  0  0  0  0  0  0  0  0  0  0  0
   58.8865   28.9553   43.4853 H   0  0  0  0  0  0  0  0  0  0  0  0
   58.5697   29.5554   46.4588 H   0  0  0  0  0  0  0  0  0  0  0  0
   60.0085   31.3491   47.4861 H   0  0  0  0  0  0  0  0  0  0  0  0
  1  2  1  0
  2  3  1  0
  3  4  1  0
  4  5  2  0
  5  6  1  0
  6  7  2  0
  7  8  1  0
  8  9  1  0
  9 10  2  0
  9 11  2  0
  9 12  1  0
 12 13  1  0
  8 14  2  0
 14 15  1  0
 15 16  2  0
 16  3  1  0
 16  6  1  0
  1 17  1  0
  1 18  1  0
  1 19  1  0
  2 20  1  0
  2 21  1  0
  4 22  1  0
  5 23  1  0
  7 24  1  0
 12 25  1  0
 13 26  1  0
 13 27  1  0
 13 28  1  0
 14 29  1  0
 15 30  1  0
M  END
>  <UniqueID>  (34) 
34

>  <SMILES>  (34) 
CCn1ccc2cc(S(=O)(=O)NC)ccc21

>  <Energy>  (34) 
56.751608276397924

>  <Genealogy>  (34) 
CCn1ccc2cc(S(=O)(=O)NC)ccc21 (3D coordinates assigned)
CCn1ccc2cc(S(=O)(=O)NC)ccc21 (optimized conformer: 56.751608276397924 kcal/mol)

>  <smiles>  (34) 
CCn1ccc2cc(S(=O)(=O)NC)ccc21

>  <score_type>  (34) 
oracle

>  <origin>  (34) 
adg

>  <m_score__min__energy>  (34) 
-7.1600000000000001

>  <m_primary>  (34) 
energy

$$$$
34:0
     RDKit          3D

 36 37  0  0  0  0  0  0  0  0999 V2000
   54.0940   25.1610   45.6020 C   0  0  0  0  0  0  0  0  0  0  0  0
   54.9020   26.3150   45.9970 N   0  0  0  0  0  0  0  0  0  0  0  0
   56.3010   26.0920   46.3300 C   0  0  0  0  0  0  0  0  0  0  0  0
   56.7900   26.9850   47.0440 O   0  0  0  0  0  0  0  0  0  0  0  0
   57.0070   24.9170   45.8420 C   0  0  0  0  0  0  0  0  0  0  0  0
   56.9290   23.8110   46.6840 C   0  0  0  0  0  0  0  0  0  0  0  0
   57.4430   22.6200   46.2910 C   0  0  0  0  0  0  0  0  0  0  0  0
   57.3640   21.5280   47.1240 O   0  0  0  0  0  0  0  0  0  0  0  0
   57.3910   20.2320   46.5670 C   0  0  0  0  0  0  0  0  0  0  0  0
   58.0320   22.4940   45.0860 C   0  0  0  0  0  0  0  0  0  0  0  0
   58.1090   23.5760   44.2650 C   0  0  0  0  0  0  0  0  0  0  0  0
   57.6090   24.8580   44.5830 C   0  0  0  0  0  0  0  0  0  0  0  0
   57.8350   26.0140   43.8930 N   0  0  0  0  0  0  0  0  0  0  0  0
   58.0610   27.1760   43.2010 C   0  0  0  0  0  0  0  0  0  0  0  0
   57.6120   28.4970   43.7540 C   0  0  0  0  0  0  0  0  0  0  0  0
   58.1770   28.8910   44.9760 C   0  0  0  0  0  0  0  0  0  0  0  0
   57.8720   30.1180   45.5480 C   0  0  0  0  0  0  0  0  0  0  0  0
   57.0220   30.9170   44.8940 N   0  0  0  0  0  0  0  0  0  0  0  0
   56.4720   30.5730   43.7370 C   0  0  0  0  0  0  0  0  0  0  0  0
   56.7480   29.3530   43.1270 C   0  0  0  0  0  0  0  0  0  0  0  0
   53.7309   24.6424   46.5016 H   0  0  0  0  0  0  0  0  0  0  0  0
   53.2361   25.5016   45.0037 H   0  0  0  0  0  0  0  0  0  0  0  0
   54.7075   24.4713   45.0037 H   0  0  0  0  0  0  0  0  0  0  0  0
   56.4495   23.9039   47.6696 H   0  0  0  0  0  0  0  0  0  0  0  0
   57.4065   19.4859   47.3751 H   0  0  0  0  0  0  0  0  0  0  0  0
   56.4958   20.0812   45.9458 H   0  0  0  0  0  0  0  0  0  0  0  0
   58.2917   20.1186   45.9458 H   0  0  0  0  0  0  0  0  0  0  0  0
   58.4466   21.5257   44.7690 H   0  0  0  0  0  0  0  0  0  0  0  0
   58.5938   23.4433   43.2866 H   0  0  0  0  0  0  0  0  0  0  0  0
   56.6750   26.5240   44.3260 H   0  0  0  0  0  0  0  0  0  0  0  0
   59.1491   27.2493   43.0569 H   0  0  0  0  0  0  0  0  0  0  0  0
   57.4294   27.0565   42.3084 H   0  0  0  0  0  0  0  0  0  0  0  0
   58.8751   28.2144   45.4907 H   0  0  0  0  0  0  0  0  0  0  0  0
   58.3147   30.4233   46.5076 H   0  0  0  0  0  0  0  0  0  0  0  0
   55.7784   31.2715   43.2460 H   0  0  0  0  0  0  0  0  0  0  0  0
   56.2841   29.0840   42.1666 H   0  0  0  0  0  0  0  0  0  0  0  0
  1  2  1  0
  2  3  1  0
  3  4  2  0
  3  5  1  0
  5  6  2  0
  6  7  1  0
  7  8  1  0
  8  9  1  0
  7 10  2  0
 10 11  1  0
 11 12  2  0
 12 13  1  0
 13 14  1  0
 14 15  1  0
 15 16  2  0
 16 17  1  0
 17 18  2  0
 18 19  1  0
 19 20  2  0
 12  5  1  0
 20 15  1  0
  1 21  1  0
  1 22  1  0
  1 23  1  0
  6 24  1  0
  9 25  1  0
  9 26  1  0
  9 27  1  0
 10 28  1  0
 11 29  1  0
 13 30  1  0
 14 31  1  0
 14 32  1  0
 16 33  1  0
 17 34  1  0
 19 35  1  0
 20 36  1  0
M  CHG  1   2  -1
M  END
>  <UniqueID>  (35) 
35

>  <SMILES>  (35) 
C[N-]C(=O)c1cc(OC)ccc1NCc1ccncc1

>  <Energy>  (35) 
207.7934926045

>  <Genealogy>  (35) 
C[N-]C(=O)c1cc(OC)ccc1NCc1ccncc1 (protonated)
C[N-]C(=O)c1cc(OC)ccc1NCc1ccncc1 (3D coordinates assigned)
C[N-]C(=O)c1cc(OC)ccc1NCc1ccncc1 (optimized conformer: 207.7934926045 kcal/mol)

>  <smiles>  (35) 
CNC(=O)c1cc(OC)ccc1NCc1ccncc1

>  <score_type>  (35) 
oracle

>  <origin>  (35) 
adg

>  <m_score__min__energy>  (35) 
-8.8100000000000005

>  <m_primary>  (35) 
energy

$$$$
35:0
     RDKit          3D

 16 17  0  0  0  0  0  0  0  0999 V2000
   55.7170   26.6800   46.2190 O   0  0  0  0  0  0  0  0  0  0  0  0
   56.2800   27.6320   45.6170 C   0  0  0  0  0  0  0  0  0  0  0  0
   55.5390   28.6410   44.9260 N   0  0  0  0  0  0  0  0  0  0  0  0
   56.6750   29.7500   44.2450 S   0  0  0  0  0  0  0  0  0  0  0  0
   56.5220   31.1240   44.8310 O   0  0  0  0  0  0  0  0  0  0  0  0
   56.6030   29.7570   42.7450 O   0  0  0  0  0  0  0  0  0  0  0  0
   58.0890   28.9320   44.8350 C   0  0  0  0  0  0  0  0  0  0  0  0
   59.4230   29.2940   44.6500 C   0  0  0  0  0  0  0  0  0  0  0  0
   60.4180   28.4850   45.2190 C   0  0  0  0  0  0  0  0  0  0  0  0
   60.0670   27.3370   45.9560 C   0  0  0  0  0  0  0  0  0  0  0  0
   58.7160   26.9910   46.1300 C   0  0  0  0  0  0  0  0  0  0  0  0
   57.7370   27.8070   45.5580 C   0  0  0  0  0  0  0  0  0  0  0  0
   59.6885   30.1916   44.0723 H   0  0  0  0  0  0  0  0  0  0  0  0
   61.4780   28.7486   45.0889 H   0  0  0  0  0  0  0  0  0  0  0  0
   60.8542   26.7082   46.3975 H   0  0  0  0  0  0  0  0  0  0  0  0
   58.4353   26.0961   46.7048 H   0  0  0  0  0  0  0  0  0  0  0  0
  1  2  2  0
  2  3  1  0
  3  4  1  0
  4  5  2  0
  4  6  2  0
  4  7  1  0
  7  8  2  0
  8  9  1  0
  9 10  2  0
 10 11  1  0
 11 12  2  0
 12  2  1  0
 12  7  1  0
  8 13  1  0
  9 14  1  0
 10 15  1  0
 11 16  1  0
M  CHG  1   3  -1
M  END
>  <UniqueID>  (36) 
36

>  <SMILES>  (36) 
O=C1[N-]S(=O)(=O)c2ccccc21

>  <Energy>  (36) 
39.45769417763812

>  <Genealogy>  (36) 
O=C1[N-]S(=O)(=O)c2ccccc21 (protonated)
O=C1[N-]S(=O)(=O)c2ccccc21 (3D coordinates assigned)
O=C1[N-]S(=O)(=O)c2ccccc21 (nonaromatic ring conformer: 39.45769417763812 kcal/mol)

>  <smiles>  (36) 
O=C1NS(=O)(=O)c2ccccc21

>  <score_type>  (36) 
oracle

>  <origin>  (36) 
adg

>  <m_score__min__energy>  (36) 
-7.9800000000000004

>  <m_primary>  (36) 
energy

$$$$
36:0
     RDKit          3D

 50 54  0  0  0  0  0  0  0  0999 V2000
   63.2680   31.6150   49.2380 N   0  0  0  0  0  0  0  0  0  0  0  0
   63.7770   32.8750   48.6880 C   0  0  0  0  0  0  0  0  0  0  0  0
   63.7120   32.8830   47.1330 C   0  0  0  0  0  0  0  0  0  0  0  0
   62.7080   33.8970   46.5710 C   0  0  0  0  0  0  0  0  0  0  0  0
   61.4780   33.8960   47.3760 N   0  0  0  0  0  0  0  0  0  0  0  0
   60.2100   33.5420   46.7810 C   0  0  0  0  0  0  0  0  0  0  0  0
   59.0520   34.3540   46.9660 C   0  0  0  0  0  0  0  0  0  0  0  0
   57.8500   33.9750   46.4340 N   0  0  0  0  0  0  0  0  0  0  0  0
   57.7970   32.8250   45.7210 C   0  0  0  0  0  0  0  0  0  0  0  0
   56.7050   32.2570   45.1910 N   0  0  0  0  0  0  0  0  0  0  0  0
   57.1420   31.0840   44.6620 C   0  0  0  0  0  0  0  0  0  0  0  0
   56.2500   30.0580   44.1040 C   0  0  0  0  0  0  0  0  0  0  0  0
   55.8370   30.1530   42.9190 O   0  0  0  0  0  0  0  0  0  0  0  0
   55.7920   28.9850   44.9290 N   0  0  0  0  0  0  0  0  0  0  0  0
   56.6600   27.8610   45.2650 C   0  0  0  0  0  0  0  0  0  0  0  0
   57.9120   28.3620   45.9340 C   0  0  0  0  0  0  0  0  0  0  0  0
   59.1860   27.9600   45.4560 C   0  0  0  0  0  0  0  0  0  0  0  0
   60.3550   28.3110   46.1540 C   0  0  0  0  0  0  0  0  0  0  0  0
   60.2160   29.0480   47.3240 C   0  0  0  0  0  0  0  0  0  0  0  0
   59.0010   29.4380   47.7870 C   0  0  0  0  0  0  0  0  0  0  0  0
   57.8200   29.1200   47.1220 C   0  0  0  0  0  0  0  0  0  0  0  0
   59.1610   30.1380   48.9670 O   0  0  0  0  0  0  0  0  0  0  0  0
   60.5630   30.1880   49.2650 C   0  0  0  0  0  0  0  0  0  0  0  0
   61.2000   29.4830   48.1890 O   0  0  0  0  0  0  0  0  0  0  0  0
   58.5190   30.9260   44.8480 C   0  0  0  0  0  0  0  0  0  0  0  0
   58.8970   32.0540   45.5330 C   0  0  0  0  0  0  0  0  0  0  0  0
   60.0990   32.3820   46.0580 N   0  0  0  0  0  0  0  0  0  0  0  0
   61.5770   34.1530   48.8230 C   0  0  0  0  0  0  0  0  0  0  0  0
   63.0310   34.0660   49.3200 C   0  0  0  0  0  0  0  0  0  0  0  0
   62.6370   31.1740   48.5310 H   0  0  0  0  0  0  0  0  0  0  0  0
   62.6900   31.8100   50.0870 H   0  0  0  0  0  0  0  0  0  0  0  0
   64.8411   32.9742   48.9486 H   0  0  0  0  0  0  0  0  0  0  0  0
   64.7109   33.1287   46.7434 H   0  0  0  0  0  0  0  0  0  0  0  0
   63.3767   31.8842   46.8167 H   0  0  0  0  0  0  0  0  0  0  0  0
   63.1556   34.9016   46.5933 H   0  0  0  0  0  0  0  0  0  0  0  0
   62.4590   33.6186   45.5363 H   0  0  0  0  0  0  0  0  0  0  0  0
   59.1259   35.2898   47.5394 H   0  0  0  0  0  0  0  0  0  0  0  0
   55.7230   32.6110   45.2370 H   0  0  0  0  0  0  0  0  0  0  0  0
   56.1288   27.1814   45.9476 H   0  0  0  0  0  0  0  0  0  0  0  0
   56.9316   27.3253   44.3434 H   0  0  0  0  0  0  0  0  0  0  0  0
   59.2598   27.3687   44.5314 H   0  0  0  0  0  0  0  0  0  0  0  0
   61.3475   28.0119   45.7859 H   0  0  0  0  0  0  0  0  0  0  0  0
   56.8448   29.4492   47.5101 H   0  0  0  0  0  0  0  0  0  0  0  0
   60.9125   31.2303   49.3040 H   0  0  0  0  0  0  0  0  0  0  0  0
   60.7923   29.7406   50.2434 H   0  0  0  0  0  0  0  0  0  0  0  0
   59.1538   30.0895   44.5205 H   0  0  0  0  0  0  0  0  0  0  0  0
   61.1884   35.1603   49.0333 H   0  0  0  0  0  0  0  0  0  0  0  0
   60.9894   33.3854   49.3479 H   0  0  0  0  0  0  0  0  0  0  0  0
   63.5549   34.9963   49.0552 H   0  0  0  0  0  0  0  0  0  0  0  0
   63.0135   33.9212   50.4103 H   0  0  0  0  0  0  0  0  0  0  0  0
  1  2  1  0
  2  3  1  0
  3  4  1  0
  4  5  1  0
  5  6  1  0
  6  7  2  0
  7  8  1  0
  8  9  2  0
  9 10  1  0
 10 11  1  0
 11 12  1  0
 12 13  2  0
 12 14  1  0
 14 15  1  0
 15 16  1  0
 16 17  2  0
 17 18  1  0
 18 19  2  0
 19 20  1  0
 20 21  2  0
 20 22  1  0
 22 23  1  0
 23 24  1  0
 11 25  2  0
 25 26  1  0
 26 27  2  0
  5 28  1  0
 28 29  1  0
 29  2  1  0
 27  6  1  0
 26  9  1  0
 21 16  1  0
 24 19  1  0
  1 30  1  0
  1 31  1  0
  2 32  1  0
  3 33  1  0
  3 34  1  0
  4 35  1  0
  4 36  1  0
  7 37  1  0
 10 38  1  0
 15 39  1  0
 15 40  1  0
 17 41  1  0
 18 42  1  0
 21 43  1  0
 23 44  1  0
 23 45  1  0
 25 46  1  0
 28 47  1  0
 28 48  1  0
 29 49  1  0
 29 50  1  0
M  CHG  1  14  -1
M  END
>  <UniqueID>  (37) 
37

>  <SMILES>  (37) 
NC1CCN(c2cnc3[nH]c(C(=O)[N-]Cc4ccc5c(c4)OCO5)cc3n2)CC1

>  <Energy>  (37) 
126.71879382838502

>  <Genealogy>  (37) 
NC1CCN(c2cnc3[nH]c(C(=O)[N-]Cc4ccc5c(c4)OCO5)cc3n2)CC1 (protonated)
NC1CCN(c2cnc3[nH]c(C(=O)[N-]Cc4ccc5c(c4)OCO5)cc3n2)CC1 (3D coordinates assigned)
NC1CCN(c2cnc3[nH]c(C(=O)[N-]Cc4ccc5c(c4)OCO5)cc3n2)CC1 (nonaromatic ring conformer: 126.71879382838502 kcal/mol)

>  <smiles>  (37) 
NC1CCN(c2cnc3[nH]c(C(=O)NCc4ccc5c(c4)OCO5)cc3n2)CC1

>  <score_type>  (37) 
oracle

>  <origin>  (37) 
adg

>  <m_score__min__energy>  (37) 
-9.6799999999999997

>  <m_primary>  (37) 
energy

$$$$
37:0
     RDKit          3D

 52 54  0  0  0  0  0  0  0  0999 V2000
   53.9400   24.8200   45.5480 C   0  0  0  0  0  0  0  0  0  0  0  0
   54.6070   26.0280   45.8950 O   0  0  0  0  0  0  0  0  0  0  0  0
   55.9830   26.1310   46.1540 C   0  0  0  0  0  0  0  0  0  0  0  0
   56.7140   25.0770   46.7340 C   0  0  0  0  0  0  0  0  0  0  0  0
   58.0810   25.2180   46.9800 C   0  0  0  0  0  0  0  0  0  0  0  0
   58.7420   26.4100   46.6540 C   0  0  0  0  0  0  0  0  0  0  0  0
   60.2170   26.5560   46.9420 C   0  0  0  0  0  0  0  0  0  0  0  0
   60.4800   27.4410   48.1760 C   0  0  0  0  0  0  0  0  0  0  0  0
   60.7150   28.8350   47.7970 N   0  0  0  0  0  0  0  0  0  0  0  0
   61.0450   29.8550   48.7520 C   0  0  0  0  0  0  0  0  0  0  0  0
   61.1300   29.5670   49.9770 O   0  0  0  0  0  0  0  0  0  0  0  0
   61.3810   31.2270   48.3070 C   0  0  0  0  0  0  0  0  0  0  0  0
   62.7380   31.5780   48.1950 C   0  0  0  0  0  0  0  0  0  0  0  0
   63.1110   32.8370   47.7180 C   0  0  0  0  0  0  0  0  0  0  0  0
   62.1350   33.7600   47.3480 C   0  0  0  0  0  0  0  0  0  0  0  0
   60.7850   33.4370   47.4740 C   0  0  0  0  0  0  0  0  0  0  0  0
   60.3930   32.1870   47.9730 C   0  0  0  0  0  0  0  0  0  0  0  0
   58.6350   31.8870   48.2280 S   0  0  0  0  0  0  0  0  0  0  0  0
   58.1760   32.5330   46.6110 C   0  0  0  0  0  0  0  0  0  0  0  0
   57.4300   33.7170   46.5420 C   0  0  0  0  0  0  0  0  0  0  0  0
   57.0620   34.2500   45.3040 C   0  0  0  0  0  0  0  0  0  0  0  0
   57.4310   33.6000   44.1260 C   0  0  0  0  0  0  0  0  0  0  0  0
   58.1640   32.4100   44.1820 C   0  0  0  0  0  0  0  0  0  0  0  0
   58.5370   31.8680   45.4200 C   0  0  0  0  0  0  0  0  0  0  0  0
   59.2700   30.6280   45.4490 C   0  0  0  0  0  0  0  0  0  0  0  0
   59.8600   29.6320   45.4710 N   0  0  0  0  0  0  0  0  0  0  0  0
   58.0180   27.4580   46.0660 C   0  0  0  0  0  0  0  0  0  0  0  0
   56.6380   27.3270   45.8190 C   0  0  0  0  0  0  0  0  0  0  0  0
   55.8830   28.3620   45.2440 O   0  0  0  0  0  0  0  0  0  0  0  0
   56.4040   29.3380   44.3490 C   0  0  0  0  0  0  0  0  0  0  0  0
   53.6459   24.2873   46.4644 H   0  0  0  0  0  0  0  0  0  0  0  0
   53.0430   25.0535   44.9557 H   0  0  0  0  0  0  0  0  0  0  0  0
   54.6155   24.1853   44.9557 H   0  0  0  0  0  0  0  0  0  0  0  0
   56.2054   24.1372   46.9948 H   0  0  0  0  0  0  0  0  0  0  0  0
   58.6431   24.3879   47.4328 H   0  0  0  0  0  0  0  0  0  0  0  0
   60.6438   25.5585   47.1230 H   0  0  0  0  0  0  0  0  0  0  0  0
   60.6867   27.0382   46.0720 H   0  0  0  0  0  0  0  0  0  0  0  0
   59.6058   27.3943   48.8420 H   0  0  0  0  0  0  0  0  0  0  0  0
   61.3804   27.0654   48.6841 H   0  0  0  0  0  0  0  0  0  0  0  0
   60.8010   29.0500   46.7790 H   0  0  0  0  0  0  0  0  0  0  0  0
   63.5135   30.8541   48.4858 H   0  0  0  0  0  0  0  0  0  0  0  0
   64.1759   33.0998   47.6345 H   0  0  0  0  0  0  0  0  0  0  0  0
   62.4302   34.7445   46.9561 H   0  0  0  0  0  0  0  0  0  0  0  0
   60.0197   34.1701   47.1790 H   0  0  0  0  0  0  0  0  0  0  0  0
   57.1322   34.2301   47.4683 H   0  0  0  0  0  0  0  0  0  0  0  0
   56.4809   35.1828   45.2581 H   0  0  0  0  0  0  0  0  0  0  0  0
   57.1452   34.0238   43.1520 H   0  0  0  0  0  0  0  0  0  0  0  0
   58.4488   31.8975   43.2513 H   0  0  0  0  0  0  0  0  0  0  0  0
   58.5335   28.3912   45.7953 H   0  0  0  0  0  0  0  0  0  0  0  0
   56.8454   30.1649   44.9247 H   0  0  0  0  0  0  0  0  0  0  0  0
   57.1770   28.8788   43.7152 H   0  0  0  0  0  0  0  0  0  0  0  0
   55.5923   29.7247   43.7152 H   0  0  0  0  0  0  0  0  0  0  0  0
  1  2  1  0
  2  3  1  0
  3  4  2  0
  4  5  1  0
  5  6  2  0
  6  7  1  0
  7  8  1  0
  8  9  1  0
  9 10  1  0
 10 11  2  0
 10 12  1  0
 12 13  2  0
 13 14  1  0
 14 15  2  0
 15 16  1  0
 16 17  2  0
 17 18  1  0
 18 19  1  0
 19 20  2  0
 20 21  1  0
 21 22  2  0
 22 23  1  0
 23 24  2  0
 24 25  1  0
 25 26  3  0
  6 27  1  0
 27 28  2  0
 28 29  1  0
 29 30  1  0
 28  3  1  0
 17 12  1  0
 24 19  1  0
  1 31  1  0
  1 32  1  0
  1 33  1  0
  4 34  1  0
  5 35  1  0
  7 36  1  0
  7 37  1  0
  8 38  1  0
  8 39  1  0
  9 40  1  0
 13 41  1  0
 14 42  1  0
 15 43  1  0
 16 44  1  0
 20 45  1  0
 21 46  1  0
 22 47  1  0
 23 48  1  0
 27 49  1  0
 30 50  1  0
 30 51  1  0
 30 52  1  0
M  END
>  <UniqueID>  (38) 
38

>  <SMILES>  (38) 
COc1ccc(CCNC(=O)c2ccccc2Sc2ccccc2C#N)cc1OC

>  <Energy>  (38) 
51.07846647525576

>  <Genealogy>  (38) 
COc1ccc(CCNC(=O)c2ccccc2Sc2ccccc2C#N)cc1OC (3D coordinates assigned)
COc1ccc(CCNC(=O)c2ccccc2Sc2ccccc2C#N)cc1OC (optimized conformer: 51.07846647525576 kcal/mol)

>  <smiles>  (38) 
COc1ccc(CCNC(=O)c2ccccc2Sc2ccccc2C#N)cc1OC

>  <score_type>  (38) 
oracle

>  <origin>  (38) 
adg

>  <m_score__min__energy>  (38) 
-9.5600000000000005

>  <m_primary>  (38) 
energy

$$$$
38:0
     RDKit          3D

 44 45  0  0  0  0  0  0  0  0999 V2000
   54.7790   24.9720   45.6010 C   0  0  0  0  0  0  0  0  0  0  0  0
   55.0940   26.3300   45.8870 O   0  0  0  0  0  0  0  0  0  0  0  0
   56.3990   26.8310   46.0290 C   0  0  0  0  0  0  0  0  0  0  0  0
   57.4250   26.0810   46.6340 C   0  0  0  0  0  0  0  0  0  0  0  0
   58.7090   26.6120   46.7590 C   0  0  0  0  0  0  0  0  0  0  0  0
   58.9930   27.8960   46.2790 C   0  0  0  0  0  0  0  0  0  0  0  0
   60.3760   28.4740   46.4410 C   0  0  0  0  0  0  0  0  0  0  0  0
   60.3360   29.9410   46.5280 N   0  0  0  0  0  0  0  0  0  0  0  0
   59.7220   30.4540   47.7690 C   0  0  0  0  0  0  0  0  0  0  0  0
   58.8780   31.7300   47.5700 C   0  0  0  0  0  0  0  0  0  0  0  0
   59.0510   32.3120   46.2200 N   0  0  0  0  0  0  0  0  0  0  0  0
   57.8040   32.2210   45.4210 C   0  0  0  0  0  0  0  0  0  0  0  0
   57.0450   33.5600   45.3860 C   0  0  0  0  0  0  0  0  0  0  0  0
   57.8020   34.6290   44.8340 O   0  0  0  0  0  0  0  0  0  0  0  0
   59.2040   34.4950   45.0270 C   0  0  0  0  0  0  0  0  0  0  0  0
   59.5790   33.6960   46.2860 C   0  0  0  0  0  0  0  0  0  0  0  0
   57.9730   28.6500   45.6780 C   0  0  0  0  0  0  0  0  0  0  0  0
   56.6740   28.1220   45.5510 C   0  0  0  0  0  0  0  0  0  0  0  0
   55.6290   28.8500   44.9590 O   0  0  0  0  0  0  0  0  0  0  0  0
   55.7930   29.7620   43.8790 C   0  0  0  0  0  0  0  0  0  0  0  0
   54.6507   24.4191   46.5432 H   0  0  0  0  0  0  0  0  0  0  0  0
   53.8465   24.9266   45.0193 H   0  0  0  0  0  0  0  0  0  0  0  0
   55.5963   24.5207   45.0193 H   0  0  0  0  0  0  0  0  0  0  0  0
   57.2130   25.0695   47.0107 H   0  0  0  0  0  0  0  0  0  0  0  0
   59.5023   26.0187   47.2372 H   0  0  0  0  0  0  0  0  0  0  0  0
   60.8263   28.0728   47.3609 H   0  0  0  0  0  0  0  0  0  0  0  0
   60.9738   28.1950   45.5608 H   0  0  0  0  0  0  0  0  0  0  0  0
   59.8130   30.3090   45.7000 H   0  0  0  0  0  0  0  0  0  0  0  0
   59.0711   29.6697   48.1828 H   0  0  0  0  0  0  0  0  0  0  0  0
   60.5471   30.7203   48.4460 H   0  0  0  0  0  0  0  0  0  0  0  0
   57.8168   31.4784   47.7136 H   0  0  0  0  0  0  0  0  0  0  0  0
   59.2165   32.4758   48.3043 H   0  0  0  0  0  0  0  0  0  0  0  0
   58.0617   31.9314   44.3916 H   0  0  0  0  0  0  0  0  0  0  0  0
   57.1512   31.4716   45.8925 H   0  0  0  0  0  0  0  0  0  0  0  0
   56.1360   33.4287   44.7807 H   0  0  0  0  0  0  0  0  0  0  0  0
   56.8184   33.8297   46.4281 H   0  0  0  0  0  0  0  0  0  0  0  0
   59.6281   33.9826   44.1509 H   0  0  0  0  0  0  0  0  0  0  0  0
   59.6100   35.5092   45.1560 H   0  0  0  0  0  0  0  0  0  0  0  0
   60.6748   33.6581   46.3737 H   0  0  0  0  0  0  0  0  0  0  0  0
   59.1369   34.1961   47.1603 H   0  0  0  0  0  0  0  0  0  0  0  0
   58.1902   29.6612   45.3034 H   0  0  0  0  0  0  0  0  0  0  0  0
   55.9746   30.7717   44.2760 H   0  0  0  0  0  0  0  0  0  0  0  0
   56.6496   29.4507   43.2631 H   0  0  0  0  0  0  0  0  0  0  0  0
   54.8816   29.7686   43.2631 H   0  0  0  0  0  0  0  0  0  0  0  0
  1  2  1  0
  2  3  1  0
  3  4  2  0
  4  5  1  0
  5  6  2  0
  6  7  1  0
  7  8  1  0
  8  9  1  0
  9 10  1  0
 10 11  1  0
 11 12  1  0
 12 13  1  0
 13 14  1  0
 14 15  1  0
 15 16  1  0
  6 17  1  0
 17 18  2  0
 18 19  1  0
 19 20  1  0
 18  3  1  0
 16 11  1  0
  1 21  1  0
  1 22  1  0
  1 23  1  0
  4 24  1  0
  5 25  1  0
  7 26  1  0
  7 27  1  0
  8 28  1  0
  9 29  1  0
  9 30  1  0
 10 31  1  0
 10 32  1  0
 12 33  1  0
 12 34  1  0
 13 35  1  0
 13 36  1  0
 15 37  1  0
 15 38  1  0
 16 39  1  0
 16 40  1  0
 17 41  1  0
 20 42  1  0
 20 43  1  0
 20 44  1  0
M  END
>  <UniqueID>  (39) 
39

>  <SMILES>  (39) 
COc1ccc(CNCCN2CCOCC2)cc1OC

>  <Energy>  (39) 
56.119896288428706

>  <Genealogy>  (39) 
COc1ccc(CNCCN2CCOCC2)cc1OC (3D coordinates assigned)
COc1ccc(CNCCN2CCOCC2)cc1OC (nonaromatic ring conformer: 56.119896288428706 kcal/mol)

>  <smiles>  (39) 
COc1ccc(CNCCN2CCOCC2)cc1OC

>  <score_type>  (39) 
oracle

>  <origin>  (39) 
adg

>  <m_score__min__energy>  (39) 
-6.79

>  <m_primary>  (39) 
energy

$$$$
39:0
     RDKit          3D

 41 44  0  0  0  0  0  0  0  0999 V2000
   56.7190   30.7760   42.2460 C   0  0  0  0  0  0  0  0  0  0  0  0
   57.2130   31.2010   43.5900 C   0  0  0  0  0  0  0  0  0  0  0  0
   57.8230   32.3430   43.8100 O   0  0  0  0  0  0  0  0  0  0  0  0
   58.1120   32.4230   45.0880 C   0  0  0  0  0  0  0  0  0  0  0  0
   58.7920   33.5700   45.7030 C   0  0  0  0  0  0  0  0  0  0  0  0
   59.1220   33.6870   47.0470 C   0  0  0  0  0  0  0  0  0  0  0  0
   59.7660   34.8930   47.3530 C   0  0  0  0  0  0  0  0  0  0  0  0
   59.9440   35.7250   46.2550 C   0  0  0  0  0  0  0  0  0  0  0  0
   59.3000   34.9600   44.9020 S   0  0  0  0  0  0  0  0  0  0  0  0
   57.6770   31.2890   45.7480 C   0  0  0  0  0  0  0  0  0  0  0  0
   57.1010   30.4910   44.7770 C   0  0  0  0  0  0  0  0  0  0  0  0
   56.4250   29.1910   44.9720 C   0  0  0  0  0  0  0  0  0  0  0  0
   55.1780   29.1230   44.8120 O   0  0  0  0  0  0  0  0  0  0  0  0
   57.1360   27.9910   45.3040 N   0  0  0  0  0  0  0  0  0  0  0  0
   57.7690   27.7050   46.5850 C   0  0  0  0  0  0  0  0  0  0  0  0
   58.8750   28.6910   46.8210 C   0  0  0  0  0  0  0  0  0  0  0  0
   59.8400   28.9250   45.8320 C   0  0  0  0  0  0  0  0  0  0  0  0
   60.8520   29.8690   46.0360 C   0  0  0  0  0  0  0  0  0  0  0  0
   60.9080   30.6090   47.2340 C   0  0  0  0  0  0  0  0  0  0  0  0
   61.9440   31.5870   47.4650 N   0  0  0  0  0  0  0  0  0  0  0  0
   62.9130   31.5710   48.4020 C   0  0  0  0  0  0  0  0  0  0  0  0
   63.7040   32.6580   48.3080 N   0  0  0  0  0  0  0  0  0  0  0  0
   63.1610   33.3260   47.2680 C   0  0  0  0  0  0  0  0  0  0  0  0
   62.0960   32.6880   46.7490 N   0  0  0  0  0  0  0  0  0  0  0  0
   59.9280   30.3790   48.2160 C   0  0  0  0  0  0  0  0  0  0  0  0
   58.9180   29.4350   48.0090 C   0  0  0  0  0  0  0  0  0  0  0  0
   55.8903   30.0631   42.3685 H   0  0  0  0  0  0  0  0  0  0  0  0
   56.3657   31.6568   41.6898 H   0  0  0  0  0  0  0  0  0  0  0  0
   57.5372   30.2951   41.6898 H   0  0  0  0  0  0  0  0  0  0  0  0
   58.9003   32.9116   47.7951 H   0  0  0  0  0  0  0  0  0  0  0  0
   60.0994   35.1563   48.3676 H   0  0  0  0  0  0  0  0  0  0  0  0
   60.4239   36.7147   46.2679 H   0  0  0  0  0  0  0  0  0  0  0  0
   57.7697   31.0677   46.8215 H   0  0  0  0  0  0  0  0  0  0  0  0
   57.0240   27.7884   47.3900 H   0  0  0  0  0  0  0  0  0  0  0  0
   58.1801   26.6848   46.5739 H   0  0  0  0  0  0  0  0  0  0  0  0
   59.8013   28.3619   44.8878 H   0  0  0  0  0  0  0  0  0  0  0  0
   61.6094   30.0349   45.2558 H   0  0  0  0  0  0  0  0  0  0  0  0
   63.0416   30.7728   49.1479 H   0  0  0  0  0  0  0  0  0  0  0  0
   63.5458   34.2838   46.8878 H   0  0  0  0  0  0  0  0  0  0  0  0
   59.9565   30.9480   49.1570 H   0  0  0  0  0  0  0  0  0  0  0  0
   58.1525   29.2748   48.7825 H   0  0  0  0  0  0  0  0  0  0  0  0
  1  2  1  0
  2  3  1  0
  3  4  1  0
  4  5  1  0
  5  6  2  0
  6  7  1  0
  7  8  2  0
  8  9  1  0
  4 10  2  0
 10 11  1  0
 11 12  1  0
 12 13  2  0
 12 14  1  0
 14 15  1  0
 15 16  1  0
 16 17  2  0
 17 18  1  0
 18 19  2  0
 19 20  1  0
 20 21  1  0
 21 22  2  0
 22 23  1  0
 23 24  2  0
 19 25  1  0
 25 26  2  0
 11  2  2  0
 26 16  1  0
  9  5  1  0
 24 20  1  0
  1 27  1  0
  1 28  1  0
  1 29  1  0
  6 30  1  0
  7 31  1  0
  8 32  1  0
 10 33  1  0
 15 34  1  0
 15 35  1  0
 17 36  1  0
 18 37  1  0
 21 38  1  0
 23 39  1  0
 25 40  1  0
 26 41  1  0
M  CHG  1  14  -1
M  END
>  <UniqueID>  (40) 
40

>  <SMILES>  (40) 
Cc1oc(-c2cccs2)cc1C(=O)[N-]Cc1ccc(-n2cncn2)cc1

>  <Energy>  (40) 
132.9147130452415

>  <Genealogy>  (40) 
Cc1oc(-c2cccs2)cc1C(=O)[N-]Cc1ccc(-n2cncn2)cc1 (protonated)
Cc1oc(-c2cccs2)cc1C(=O)[N-]Cc1ccc(-n2cncn2)cc1 (3D coordinates assigned)
Cc1oc(-c2cccs2)cc1C(=O)[N-]Cc1ccc(-n2cncn2)cc1 (optimized conformer: 132.9147130452415 kcal/mol)

>  <smiles>  (40) 
Cc1oc(-c2cccs2)cc1C(=O)NCc1ccc(-n2cncn2)cc1

>  <score_type>  (40) 
oracle

>  <origin>  (40) 
adg

>  <m_score__min__energy>  (40) 
-9.0500000000000007

>  <m_primary>  (40) 
energy

$$$$
40:0
     RDKit          3D

 54 57  0  0  0  0  0  0  0  0999 V2000
   60.7762   26.0070   49.0206 H   0  0  0  0  0  0  0  0  0  0  0  0
   60.4340   27.0470   48.9140 C   0  0  0  0  0  0  0  0  0  0  0  0
   59.7530   27.4430   47.7610 C   0  0  0  0  0  0  0  0  0  0  0  0
   59.5225   26.7076   46.9761 H   0  0  0  0  0  0  0  0  0  0  0  0
   59.3630   28.7850   47.6070 C   0  0  0  0  0  0  0  0  0  0  0  0
   58.6530   29.2500   46.4430 N   0  0  0  0  0  0  0  0  0  0  0  0
   58.4160   30.4840   46.1010 C   0  0  0  0  0  0  0  0  0  0  0  0
   59.1510   31.5140   46.6200 N   0  0  0  0  0  0  0  0  0  0  0  0
   58.8630   32.7820   46.2390 C   0  0  0  0  0  0  0  0  0  0  0  0
   57.8710   33.0560   45.3520 C   0  0  0  0  0  0  0  0  0  0  0  0
   57.1030   32.0240   44.8280 C   0  0  0  0  0  0  0  0  0  0  0  0
   56.2866   32.2263   44.1191 H   0  0  0  0  0  0  0  0  0  0  0  0
   57.3960   30.7480   45.2230 N   0  0  0  0  0  0  0  0  0  0  0  0
   57.9040   34.4090   45.0990 C   0  0  0  0  0  0  0  0  0  0  0  0
   57.2396   34.9827   44.4361 H   0  0  0  0  0  0  0  0  0  0  0  0
   58.9630   34.8940   45.8660 C   0  0  0  0  0  0  0  0  0  0  0  0
   59.2890   35.9444   45.8874 H   0  0  0  0  0  0  0  0  0  0  0  0
   59.5380   33.8920   46.5840 N   0  0  0  0  0  0  0  0  0  0  0  0
   60.7710   33.9390   47.3840 C   0  0  0  0  0  0  0  0  0  0  0  0
   61.1728   34.9627   47.4076 H   0  0  0  0  0  0  0  0  0  0  0  0
   60.4460   33.5460   48.8420 C   0  0  0  0  0  0  0  0  0  0  0  0
   59.7728   34.3119   49.2546 H   0  0  0  0  0  0  0  0  0  0  0  0
   60.0043   32.5402   48.7857 H   0  0  0  0  0  0  0  0  0  0  0  0
   61.6560   33.4160   49.7970 C   0  0  0  0  0  0  0  0  0  0  0  0
   61.3316   33.7209   50.8029 H   0  0  0  0  0  0  0  0  0  0  0  0
   61.9798   32.3661   49.7432 H   0  0  0  0  0  0  0  0  0  0  0  0
   62.8830   34.2670   49.4110 C   0  0  0  0  0  0  0  0  0  0  0  0
   62.5169   35.2237   49.0102 H   0  0  0  0  0  0  0  0  0  0  0  0
   63.4789   34.3639   50.3305 H   0  0  0  0  0  0  0  0  0  0  0  0
   63.8390   33.6420   48.3540 C   0  0  0  0  0  0  0  0  0  0  0  0
   64.7751   34.2195   48.3644 H   0  0  0  0  0  0  0  0  0  0  0  0
   63.9553   32.5882   48.6473 H   0  0  0  0  0  0  0  0  0  0  0  0
   63.3200   33.6130   46.9040 C   0  0  0  0  0  0  0  0  0  0  0  0
   63.3529   34.6393   46.5094 H   0  0  0  0  0  0  0  0  0  0  0  0
   63.9711   32.9138   46.3588 H   0  0  0  0  0  0  0  0  0  0  0  0
   61.8820   33.0820   46.7360 C   0  0  0  0  0  0  0  0  0  0  0  0
   61.6708   33.0134   45.6586 H   0  0  0  0  0  0  0  0  0  0  0  0
   61.8569   32.1141   47.2581 H   0  0  0  0  0  0  0  0  0  0  0  0
   59.6010   29.6630   48.6210 N   0  0  0  0  0  0  0  0  0  0  0  0
   59.2960   30.6550   48.5180 H   0  0  0  0  0  0  0  0  0  0  0  0
   60.2490   29.2940   49.7600 C   0  0  0  0  0  0  0  0  0  0  0  0
   60.4346   30.0377   50.5490 H   0  0  0  0  0  0  0  0  0  0  0  0
   60.6810   27.9720   49.9330 C   0  0  0  0  0  0  0  0  0  0  0  0
   61.4010   27.5620   51.1570 C   0  0  0  0  0  0  0  0  0  0  0  0
   60.9310   26.6180   51.8510 O   0  0  0  0  0  0  0  0  0  0  0  0
   62.6150   28.2100   51.5750 N   0  0  0  0  0  0  0  0  0  0  0  0
   63.5690   27.4780   52.4110 C   0  0  0  0  0  0  0  0  0  0  0  0
   63.3382   27.6551   53.4718 H   0  0  0  0  0  0  0  0  0  0  0  0
   63.4959   26.4020   52.1945 H   0  0  0  0  0  0  0  0  0  0  0  0
   64.5894   27.8271   52.1945 H   0  0  0  0  0  0  0  0  0  0  0  0
   62.8420   29.6280   51.2780 C   0  0  0  0  0  0  0  0  0  0  0  0
   62.9320   30.1900   52.2193 H   0  0  0  0  0  0  0  0  0  0  0  0
   63.7690   29.7369   50.6959 H   0  0  0  0  0  0  0  0  0  0  0  0
   61.9953   30.0208   50.6959 H   0  0  0  0  0  0  0  0  0  0  0  0
  1  2  1  0
  2  3  2  0
  3  4  1  0
  3  5  1  0
  5  6  1  0
  6  7  2  0
  7  8  1  0
  8  9  2  0
  9 10  1  0
 10 11  2  0
 11 12  1  0
 11 13  1  0
 10 14  1  0
 14 15  1  0
 14 16  2  0
 16 17  1  0
 16 18  1  0
 18 19  1  0
 19 20  1  0
 19 21  1  0
 21 22  1  0
 21 23  1  0
 21 24  1  0
 24 25  1  0
 24 26  1  0
 24 27  1  0
 27 28  1  0
 27 29  1  0
 27 30  1  0
 30 31  1  0
 30 32  1  0
 30 33  1  0
 33 34  1  0
 33 35  1  0
 33 36  1  0
 36 37  1  0
 36 38  1  0
  5 39  2  0
 39 40  1  0
 39 41  1  0
 41 42  1  0
 41 43  2  0
 43 44  1  0
 44 45  2  0
 44 46  1  0
 46 47  1  0
 47 48  1  0
 47 49  1  0
 47 50  1  0
 46 51  1  0
 51 52  1  0
 51 53  1  0
 51 54  1  0
 43  2  1  0
 13  7  1  0
 36 19  1  0
 18  9  1  0
M  CHG  2  13  -1  39   1
M  END
>  <UniqueID>  (41) 
41

>  <SMILES>  (41) 
CN(C)C(=O)c1ccc(/N=c2\nc3c(ccn3C3CCCCCC3)c[n-]2)[nH+]c1

>  <Energy>  (41) 
110.00212366432264

>  <Genealogy>  (41) 
CN(C)C(=O)c1ccc(N=c2nc3c(ccn3C3CCCCCC3)c[n-]2)[nH+]c1 (protonated)
CN(C)C(=O)c1ccc(/N=c2\nc3c(ccn3C3CCCCCC3)c[n-]2)[nH+]c1 (cis-trans isomerization)
CN(C)C(=O)c1ccc(/N=c2\nc3c(ccn3C3CCCCCC3)c[n-]2)[nH+]c1 (3D coordinates assigned)
CN(C)C(=O)c1ccc(/N=c2\nc3c(ccn3C3CCCCCC3)c[n-]2)[nH+]c1 (nonaromatic ring conformer: 110.00212366432264 kcal/mol)

>  <smiles>  (41) 
CN(C)C(=O)c1ccc(N=c2nc3c(ccn3C3CCCCCC3)c[nH]2)nc1

>  <score_type>  (41) 
oracle

>  <origin>  (41) 
adg

>  <m_score__min__energy>  (41) 
-6.4900000000000002

>  <m_primary>  (41) 
energy

$$$$
41:0
     RDKit          3D

 46 48  0  0  0  0  0  0  0  0999 V2000
   58.1990   32.3140   49.4950 C   0  0  0  0  0  0  0  0  0  0  0  0
   58.5460   32.8720   48.2370 O   0  0  0  0  0  0  0  0  0  0  0  0
   59.8610   33.1670   47.8380 C   0  0  0  0  0  0  0  0  0  0  0  0
   60.8970   33.3720   48.7780 C   0  0  0  0  0  0  0  0  0  0  0  0
   62.1790   33.7140   48.3510 C   0  0  0  0  0  0  0  0  0  0  0  0
   62.4490   33.8580   46.9880 C   0  0  0  0  0  0  0  0  0  0  0  0
   61.4390   33.6450   46.0480 C   0  0  0  0  0  0  0  0  0  0  0  0
   60.1490   33.2770   46.4620 C   0  0  0  0  0  0  0  0  0  0  0  0
   59.1370   33.0450   45.4710 N   0  0  0  0  0  0  0  0  0  0  0  0
   58.3320   31.8520   45.4090 C   0  0  0  0  0  0  0  0  0  0  0  0
   57.0790   31.8790   44.7430 C   0  0  0  0  0  0  0  0  0  0  0  0
   56.2920   30.7590   44.6700 N   0  0  0  0  0  0  0  0  0  0  0  0
   56.7310   29.6100   45.2380 C   0  0  0  0  0  0  0  0  0  0  0  0
   56.0870   28.4300   45.2440 N   0  0  0  0  0  0  0  0  0  0  0  0
   56.9190   27.5770   45.8910 C   0  0  0  0  0  0  0  0  0  0  0  0
   56.6390   26.1490   46.1070 C   0  0  0  0  0  0  0  0  0  0  0  0
   57.5830   25.3590   46.3750 O   0  0  0  0  0  0  0  0  0  0  0  0
   55.2920   25.6500   46.0460 N   0  0  0  0  0  0  0  0  0  0  0  0
   54.9530   24.2990   45.5650 C   0  0  0  0  0  0  0  0  0  0  0  0
   55.2950   23.2950   46.6850 C   0  0  0  0  0  0  0  0  0  0  0  0
   53.4430   24.2260   45.2470 C   0  0  0  0  0  0  0  0  0  0  0  0
   55.7680   23.9430   44.3030 C   0  0  0  0  0  0  0  0  0  0  0  0
   58.0860   28.2300   46.3030 C   0  0  0  0  0  0  0  0  0  0  0  0
   57.9390   29.5280   45.8670 C   0  0  0  0  0  0  0  0  0  0  0  0
   58.7790   30.6310   45.9680 C   0  0  0  0  0  0  0  0  0  0  0  0
   58.5948   32.9505   50.3002 H   0  0  0  0  0  0  0  0  0  0  0  0
   57.1039   32.2538   49.5799 H   0  0  0  0  0  0  0  0  0  0  0  0
   58.6293   31.3052   49.5799 H   0  0  0  0  0  0  0  0  0  0  0  0
   60.6901   33.2609   49.8526 H   0  0  0  0  0  0  0  0  0  0  0  0
   62.9797   33.8708   49.0888 H   0  0  0  0  0  0  0  0  0  0  0  0
   63.4588   34.1396   46.6549 H   0  0  0  0  0  0  0  0  0  0  0  0
   61.6553   33.7663   44.9763 H   0  0  0  0  0  0  0  0  0  0  0  0
   59.0300   33.7630   44.7150 H   0  0  0  0  0  0  0  0  0  0  0  0
   56.7337   32.8140   44.2777 H   0  0  0  0  0  0  0  0  0  0  0  0
   55.1490   28.2230   44.8310 H   0  0  0  0  0  0  0  0  0  0  0  0
   55.1335   23.7691   47.6643 H   0  0  0  0  0  0  0  0  0  0  0  0
   54.6475   22.4103   46.5947 H   0  0  0  0  0  0  0  0  0  0  0  0
   56.3479   22.9895   46.5947 H   0  0  0  0  0  0  0  0  0  0  0  0
   52.8714   24.1984   46.1864 H   0  0  0  0  0  0  0  0  0  0  0  0
   53.1478   25.1109   44.6641 H   0  0  0  0  0  0  0  0  0  0  0  0
   53.2346   23.3167   44.6641 H   0  0  0  0  0  0  0  0  0  0  0  0
   56.7384   23.5191   44.6007 H   0  0  0  0  0  0  0  0  0  0  0  0
   55.2136   23.2051   43.7046 H   0  0  0  0  0  0  0  0  0  0  0  0
   55.9326   24.8512   43.7046 H   0  0  0  0  0  0  0  0  0  0  0  0
   58.9352   27.8004   46.8546 H   0  0  0  0  0  0  0  0  0  0  0  0
   59.7574   30.5574   46.4653 H   0  0  0  0  0  0  0  0  0  0  0  0
  1  2  1  0
  2  3  1  0
  3  4  2  0
  4  5  1  0
  5  6  2  0
  6  7  1  0
  7  8  2  0
  8  9  1  0
  9 10  1  0
 10 11  2  0
 11 12  1  0
 12 13  2  0
 13 14  1  0
 14 15  1  0
 15 16  1  0
 16 17  2  0
 16 18  1  0
 18 19  1  0
 19 20  1  0
 19 21  1  0
 19 22  1  0
 15 23  2  0
 23 24  1  0
 24 25  2  0
  8  3  1  0
 25 10  1  0
 24 13  1  0
  1 26  1  0
  1 27  1  0
  1 28  1  0
  4 29  1  0
  5 30  1  0
  6 31  1  0
  7 32  1  0
  9 33  1  0
 11 34  1  0
 14 35  1  0
 20 36  1  0
 20 37  1  0
 20 38  1  0
 21 39  1  0
 21 40  1  0
 21 41  1  0
 22 42  1  0
 22 43  1  0
 22 44  1  0
 23 45  1  0
 25 46  1  0
M  CHG  1  18  -1
M  END
>  <UniqueID>  (42) 
42

>  <SMILES>  (42) 
COc1ccccc1Nc1cnc2[nH]c(C(=O)[N-]C(C)(C)C)cc2c1

>  <Energy>  (42) 
89.9537671036369

>  <Genealogy>  (42) 
COc1ccccc1Nc1cnc2[nH]c(C(=O)[N-]C(C)(C)C)cc2c1 (protonated)
COc1ccccc1Nc1cnc2[nH]c(C(=O)[N-]C(C)(C)C)cc2c1 (3D coordinates assigned)
COc1ccccc1Nc1cnc2[nH]c(C(=O)[N-]C(C)(C)C)cc2c1 (optimized conformer: 89.9537671036369 kcal/mol)

>  <smiles>  (42) 
COc1ccccc1Nc1cnc2[nH]c(C(=O)NC(C)(C)C)cc2c1

>  <score_type>  (42) 
oracle

>  <origin>  (42) 
adg

>  <m_score__min__energy>  (42) 
-9.5800000000000001

>  <m_primary>  (42) 
energy

$$$$
42:0
     RDKit          3D

 38 40  0  0  0  0  0  0  0  0999 V2000
   57.3674   34.2134   43.7061 H   0  0  0  0  0  0  0  0  0  0  0  0
   57.7780   33.3930   44.3130 C   0  0  0  0  0  0  0  0  0  0  0  0
   57.4840   32.1380   43.9390 C   0  0  0  0  0  0  0  0  0  0  0  0
   57.0683   31.9908   42.9313 H   0  0  0  0  0  0  0  0  0  0  0  0
   57.6780   30.9370   44.7830 C   0  0  0  0  0  0  0  0  0  0  0  0
   58.8070   30.7230   45.5110 N   0  0  0  0  0  0  0  0  0  0  0  0
   58.5980   29.5060   46.0450 C   0  0  0  0  0  0  0  0  0  0  0  0
   57.4100   29.0010   45.6420 C   0  0  0  0  0  0  0  0  0  0  0  0
   57.0270   27.7210   46.0280 C   0  0  0  0  0  0  0  0  0  0  0  0
   55.9410   27.2240   45.6210 O   0  0  0  0  0  0  0  0  0  0  0  0
   57.8700   27.0090   46.8530 N   0  0  0  0  0  0  0  0  0  0  0  0
   57.5120   25.6390   47.2570 C   0  0  0  0  0  0  0  0  0  0  0  0
   57.4948   25.5732   48.3549 H   0  0  0  0  0  0  0  0  0  0  0  0
   56.5179   25.3873   46.8590 H   0  0  0  0  0  0  0  0  0  0  0  0
   58.2559   24.9331   46.8590 H   0  0  0  0  0  0  0  0  0  0  0  0
   59.0890   27.5440   47.2340 C   0  0  0  0  0  0  0  0  0  0  0  0
   59.8840   26.8570   47.9360 O   0  0  0  0  0  0  0  0  0  0  0  0
   59.4510   28.8170   46.8510 N   0  0  0  0  0  0  0  0  0  0  0  0
   60.7500   29.3870   47.2280 C   0  0  0  0  0  0  0  0  0  0  0  0
   60.8306   29.4224   48.3245 H   0  0  0  0  0  0  0  0  0  0  0  0
   61.5574   28.7605   46.8210 H   0  0  0  0  0  0  0  0  0  0  0  0
   60.8356   30.4054   46.8210 H   0  0  0  0  0  0  0  0  0  0  0  0
   56.7990   29.8990   44.8450 N   0  0  0  0  0  0  0  0  0  0  0  0
   55.5160   29.7590   44.1540 C   0  0  0  0  0  0  0  0  0  0  0  0
   54.7080   29.6708   44.8952 H   0  0  0  0  0  0  0  0  0  0  0  0
   55.3405   30.6433   43.5238 H   0  0  0  0  0  0  0  0  0  0  0  0
   55.5354   28.8576   43.5238 H   0  0  0  0  0  0  0  0  0  0  0  0
   58.6120   33.7570   45.4790 C   0  0  0  0  0  0  0  0  0  0  0  0
   59.9360   34.2040   45.3120 C   0  0  0  0  0  0  0  0  0  0  0  0
   60.3564   34.3043   44.3005 H   0  0  0  0  0  0  0  0  0  0  0  0
   60.7190   34.5210   46.4250 C   0  0  0  0  0  0  0  0  0  0  0  0
   61.7472   34.8868   46.2869 H   0  0  0  0  0  0  0  0  0  0  0  0
   60.1980   34.3740   47.7130 C   0  0  0  0  0  0  0  0  0  0  0  0
   60.8135   34.6306   48.5878 H   0  0  0  0  0  0  0  0  0  0  0  0
   58.8950   33.9010   47.8900 C   0  0  0  0  0  0  0  0  0  0  0  0
   58.4893   33.7775   48.9049 H   0  0  0  0  0  0  0  0  0  0  0  0
   58.1050   33.5840   46.7790 C   0  0  0  0  0  0  0  0  0  0  0  0
   56.8410   33.1260   46.9710 F   0  0  0  0  0  0  0  0  0  0  0  0
  1  2  1  0
  2  3  2  0
  3  4  1  0
  3  5  1  0
  5  6  2  0
  6  7  1  0
  7  8  2  0
  8  9  1  0
  9 10  2  0
  9 11  1  0
 11 12  1  0
 12 13  1  0
 12 14  1  0
 12 15  1  0
 11 16  1  0
 16 17  2  0
 16 18  1  0
 18 19  1  0
 19 20  1  0
 19 21  1  0
 19 22  1  0
  8 23  1  0
 23 24  1  0
 24 25  1  0
 24 26  1  0
 24 27  1  0
  2 28  1  0
 28 29  2  0
 29 30  1  0
 29 31  1  0
 31 32  1  0
 31 33  2  0
 33 34  1  0
 33 35  1  0
 35 36  1  0
 35 37  2  0
 37 38  1  0
 23  5  1  0
 37 28  1  0
 18  7  1  0
M  END
>  <UniqueID>  (43) 
43

>  <SMILES>  (43) 
Cn1c(=O)c2c(nc(/C=C\c3ccccc3F)n2C)n(C)c1=O

>  <Energy>  (43) 
93.63181944728437

>  <Genealogy>  (43) 
Cn1c(=O)c2c(nc(/C=C\c3ccccc3F)n2C)n(C)c1=O (cis-trans isomerization)
Cn1c(=O)c2c(nc(/C=C\c3ccccc3F)n2C)n(C)c1=O (3D coordinates assigned)
Cn1c(=O)c2c(nc(/C=C\c3ccccc3F)n2C)n(C)c1=O (optimized conformer: 93.63181944728437 kcal/mol)

>  <smiles>  (43) 
Cn1c(=O)c2c(nc(C=Cc3ccccc3F)n2C)n(C)c1=O

>  <score_type>  (43) 
oracle

>  <origin>  (43) 
adg

>  <m_score__min__energy>  (43) 
-7.1299999999999999

>  <m_primary>  (43) 
energy

$$$$
43:0
     RDKit          3D

 37 39  0  0  0  0  0  0  0  0999 V2000
   57.2500   32.3230   41.1970 C   0  0  0  0  0  0  0  0  0  0  0  0
   58.4680   32.6420   42.0540 C   0  0  0  0  0  0  0  0  0  0  0  0
   58.1670   32.4320   43.4740 N   0  0  0  0  0  0  0  0  0  0  0  0
   57.5320   31.3780   44.0620 C   0  0  0  0  0  0  0  0  0  0  0  0
   56.9810   30.1840   43.3290 C   0  0  0  0  0  0  0  0  0  0  0  0
   55.5020   29.5160   44.1690 S   0  0  0  0  0  0  0  0  0  0  0  0
   56.4290   28.4270   45.2470 C   0  0  0  0  0  0  0  0  0  0  0  0
   57.6480   28.8070   45.7100 N   0  0  0  0  0  0  0  0  0  0  0  0
   58.3650   28.0030   46.5410 C   0  0  0  0  0  0  0  0  0  0  0  0
   59.6880   28.4630   47.0650 C   0  0  0  0  0  0  0  0  0  0  0  0
   57.8320   26.7730   46.9410 C   0  0  0  0  0  0  0  0  0  0  0  0
   56.5790   26.4000   46.4520 C   0  0  0  0  0  0  0  0  0  0  0  0
   56.0700   25.2980   46.7870 O   0  0  0  0  0  0  0  0  0  0  0  0
   55.9050   27.2280   45.6140 N   0  0  0  0  0  0  0  0  0  0  0  0
   57.4380   31.5180   45.4090 N   0  0  0  0  0  0  0  0  0  0  0  0
   58.0660   32.6740   45.6710 C   0  0  0  0  0  0  0  0  0  0  0  0
   58.2870   33.2710   46.9100 C   0  0  0  0  0  0  0  0  0  0  0  0
   58.9990   34.4850   46.9320 C   0  0  0  0  0  0  0  0  0  0  0  0
   59.4700   35.0600   45.7290 C   0  0  0  0  0  0  0  0  0  0  0  0
   59.2300   34.4280   44.4940 C   0  0  0  0  0  0  0  0  0  0  0  0
   58.5150   33.2280   44.5060 C   0  0  0  0  0  0  0  0  0  0  0  0
   56.3923   32.0984   41.8480 H   0  0  0  0  0  0  0  0  0  0  0  0
   57.0115   33.1890   40.5620 H   0  0  0  0  0  0  0  0  0  0  0  0
   57.4666   31.4513   40.5620 H   0  0  0  0  0  0  0  0  0  0  0  0
   59.2998   31.9852   41.7594 H   0  0  0  0  0  0  0  0  0  0  0  0
   58.7440   33.6958   41.9012 H   0  0  0  0  0  0  0  0  0  0  0  0
   56.7075   30.4854   42.3071 H   0  0  0  0  0  0  0  0  0  0  0  0
   57.7533   29.4010   43.3094 H   0  0  0  0  0  0  0  0  0  0  0  0
   59.6691   28.4564   48.1648 H   0  0  0  0  0  0  0  0  0  0  0  0
   60.4789   27.7871   46.7078 H   0  0  0  0  0  0  0  0  0  0  0  0
   59.8890   29.4838   46.7078 H   0  0  0  0  0  0  0  0  0  0  0  0
   58.3876   26.1149   47.6252 H   0  0  0  0  0  0  0  0  0  0  0  0
   56.9960   30.8650   46.0950 H   0  0  0  0  0  0  0  0  0  0  0  0
   57.9182   32.8101   47.8382 H   0  0  0  0  0  0  0  0  0  0  0  0
   59.1902   34.9894   47.8906 H   0  0  0  0  0  0  0  0  0  0  0  0
   60.0278   36.0076   45.7583 H   0  0  0  0  0  0  0  0  0  0  0  0
   59.5931   34.8643   43.5518 H   0  0  0  0  0  0  0  0  0  0  0  0
  1  2  1  0
  2  3  1  0
  3  4  1  0
  4  5  1  0
  5  6  1  0
  6  7  1  0
  7  8  2  0
  8  9  1  0
  9 10  1  0
  9 11  2  0
 11 12  1  0
 12 13  2  0
 12 14  1  0
  4 15  2  0
 15 16  1  0
 16 17  2  0
 17 18  1  0
 18 19  2  0
 19 20  1  0
 20 21  2  0
 21  3  1  0
 14  7  1  0
 21 16  1  0
  1 22  1  0
  1 23  1  0
  1 24  1  0
  2 25  1  0
  2 26  1  0
  5 27  1  0
  5 28  1  0
 10 29  1  0
 10 30  1  0
 10 31  1  0
 11 32  1  0
 15 33  1  0
 17 34  1  0
 18 35  1  0
 19 36  1  0
 20 37  1  0
M  CHG  2  14  -1  15   1
M  END
>  <UniqueID>  (44) 
44

>  <SMILES>  (44) 
CCn1c(CSc2nc(C)cc(=O)[n-]2)[nH+]c2ccccc21

>  <Energy>  (44) 
68.57850342314607

>  <Genealogy>  (44) 
CCn1c(CSc2nc(C)cc(=O)[n-]2)[nH+]c2ccccc21 (protonated)
CCn1c(CSc2nc(C)cc(=O)[n-]2)[nH+]c2ccccc21 (3D coordinates assigned)
CCn1c(CSc2nc(C)cc(=O)[n-]2)[nH+]c2ccccc21 (optimized conformer: 68.57850342314607 kcal/mol)

>  <smiles>  (44) 
CCn1c(CSc2nc(C)cc(=O)[nH]2)nc2ccccc21

>  <score_type>  (44) 
oracle

>  <origin>  (44) 
adg

>  <m_score__min__energy>  (44) 
-7.96

>  <m_primary>  (44) 
energy

$$$$
44:0
     RDKit          3D

 58 60  0  0  0  0  0  0  0  0999 V2000
   59.2850   33.0590   50.1380 C   0  0  0  0  0  0  0  0  0  0  0  0
   58.9200   32.5850   48.8460 O   0  0  0  0  0  0  0  0  0  0  0  0
   59.0670   33.3190   47.6590 C   0  0  0  0  0  0  0  0  0  0  0  0
   59.5290   34.6510   47.6550 C   0  0  0  0  0  0  0  0  0  0  0  0
   59.6570   35.3500   46.4520 C   0  0  0  0  0  0  0  0  0  0  0  0
   59.3240   34.7350   45.2450 C   0  0  0  0  0  0  0  0  0  0  0  0
   58.8610   33.4180   45.2360 C   0  0  0  0  0  0  0  0  0  0  0  0
   58.7460   32.7030   46.4360 C   0  0  0  0  0  0  0  0  0  0  0  0
   58.1550   31.0030   46.3950 S   0  0  0  0  0  0  0  0  0  0  0  0
   58.8790   30.6130   44.7620 C   0  0  0  0  0  0  0  0  0  0  0  0
   58.7300   29.1230   44.4350 C   0  0  0  0  0  0  0  0  0  0  0  0
   59.9870   28.3300   44.8140 C   0  0  0  0  0  0  0  0  0  0  0  0
   59.6210   27.0350   45.4370 N   0  0  0  0  0  0  0  0  0  0  0  0
   60.6270   26.5810   46.4190 C   0  0  0  0  0  0  0  0  0  0  0  0
   60.6480   27.4620   47.6900 C   0  0  0  0  0  0  0  0  0  0  0  0
   59.3920   28.2220   47.8370 N   0  0  0  0  0  0  0  0  0  0  0  0
   59.2720   28.9650   49.1110 C   0  0  0  0  0  0  0  0  0  0  0  0
   60.3940   29.9980   49.3710 C   0  0  0  0  0  0  0  0  0  0  0  0
   61.0220   30.4470   48.1240 N   0  0  0  0  0  0  0  0  0  0  0  0
   62.0200   31.4840   48.0730 C   0  0  0  0  0  0  0  0  0  0  0  0
   62.9890   31.6340   49.0860 C   0  0  0  0  0  0  0  0  0  0  0  0
   63.9440   32.6530   49.0050 C   0  0  0  0  0  0  0  0  0  0  0  0
   63.9430   33.5300   47.9180 C   0  0  0  0  0  0  0  0  0  0  0  0
   62.9880   33.3900   46.9100 C   0  0  0  0  0  0  0  0  0  0  0  0
   62.0330   32.3730   46.9850 C   0  0  0  0  0  0  0  0  0  0  0  0
   58.2180   27.4000   47.5080 C   0  0  0  0  0  0  0  0  0  0  0  0
   58.2500   27.0370   46.0090 C   0  0  0  0  0  0  0  0  0  0  0  0
   58.8048   32.4354   50.9065 H   0  0  0  0  0  0  0  0  0  0  0  0
   60.3777   33.0059   50.2528 H   0  0  0  0  0  0  0  0  0  0  0  0
   58.9545   34.1019   50.2528 H   0  0  0  0  0  0  0  0  0  0  0  0
   59.7900   35.1425   48.6039 H   0  0  0  0  0  0  0  0  0  0  0  0
   60.0213   36.3879   46.4567 H   0  0  0  0  0  0  0  0  0  0  0  0
   59.4263   35.2881   44.2997 H   0  0  0  0  0  0  0  0  0  0  0  0
   58.5856   32.9400   44.2843 H   0  0  0  0  0  0  0  0  0  0  0  0
   58.3639   31.2036   43.9901 H   0  0  0  0  0  0  0  0  0  0  0  0
   59.9506   30.8603   44.7864 H   0  0  0  0  0  0  0  0  0  0  0  0
   57.8723   28.7196   44.9933 H   0  0  0  0  0  0  0  0  0  0  0  0
   58.5764   29.0239   43.3503 H   0  0  0  0  0  0  0  0  0  0  0  0
   60.5810   28.1398   43.9079 H   0  0  0  0  0  0  0  0  0  0  0  0
   60.5717   28.9178   45.5369 H   0  0  0  0  0  0  0  0  0  0  0  0
   60.3948   25.5460   46.7102 H   0  0  0  0  0  0  0  0  0  0  0  0
   61.6165   26.6531   45.9439 H   0  0  0  0  0  0  0  0  0  0  0  0
   60.7815   26.8168   48.5709 H   0  0  0  0  0  0  0  0  0  0  0  0
   61.4785   28.1780   47.6022 H   0  0  0  0  0  0  0  0  0  0  0  0
   58.3104   29.4991   49.1058 H   0  0  0  0  0  0  0  0  0  0  0  0
   59.3501   28.2164   49.9132 H   0  0  0  0  0  0  0  0  0  0  0  0
   59.9632   30.8692   49.8863 H   0  0  0  0  0  0  0  0  0  0  0  0
   61.1664   29.5152   49.9877 H   0  0  0  0  0  0  0  0  0  0  0  0
   60.7270   30.0110   47.2210 H   0  0  0  0  0  0  0  0  0  0  0  0
   62.9941   30.9462   49.9445 H   0  0  0  0  0  0  0  0  0  0  0  0
   64.6972   32.7638   49.7990 H   0  0  0  0  0  0  0  0  0  0  0  0
   64.6947   34.3308   47.8564 H   0  0  0  0  0  0  0  0  0  0  0  0
   62.9872   34.0818   46.0547 H   0  0  0  0  0  0  0  0  0  0  0  0
   61.2849   32.2674   46.1855 H   0  0  0  0  0  0  0  0  0  0  0  0
   58.2349   26.4789   48.1090 H   0  0  0  0  0  0  0  0  0  0  0  0
   57.3004   27.9648   47.7296 H   0  0  0  0  0  0  0  0  0  0  0  0
   57.8170   26.0337   45.8828 H   0  0  0  0  0  0  0  0  0  0  0  0
   57.6734   27.8059   45.4739 H   0  0  0  0  0  0  0  0  0  0  0  0
  1  2  1  0
  2  3  1  0
  3  4  2  0
  4  5  1  0
  5  6  2  0
  6  7  1  0
  7  8  2  0
  8  9  1  0
  9 10  1  0
 10 11  1  0
 11 12  1  0
 12 13  1  0
 13 14  1  0
 14 15  1  0
 15 16  1  0
 16 17  1  0
 17 18  1  0
 18 19  1  0
 19 20  1  0
 20 21  2  0
 21 22  1  0
 22 23  2  0
 23 24  1  0
 24 25  2  0
 16 26  1  0
 26 27  1  0
  8  3  1  0
 27 13  1  0
 25 20  1  0
  1 28  1  0
  1 29  1  0
  1 30  1  0
  4 31  1  0
  5 32  1  0
  6 33  1  0
  7 34  1  0
 10 35  1  0
 10 36  1  0
 11 37  1  0
 11 38  1  0
 12 39  1  0
 12 40  1  0
 14 41  1  0
 14 42  1  0
 15 43  1  0
 15 44  1  0
 17 45  1  0
 17 46  1  0
 18 47  1  0
 18 48  1  0
 19 49  1  0
 21 50  1  0
 22 51  1  0
 23 52  1  0
 24 53  1  0
 25 54  1  0
 26 55  1  0
 26 56  1  0
 27 57  1  0
 27 58  1  0
M  END
>  <UniqueID>  (45) 
45

>  <SMILES>  (45) 
COc1ccccc1SCCCN1CCN(CCNc2ccccc2)CC1

>  <Energy>  (45) 
65.8085837453483

>  <Genealogy>  (45) 
COc1ccccc1SCCCN1CCN(CCNc2ccccc2)CC1 (3D coordinates assigned)
COc1ccccc1SCCCN1CCN(CCNc2ccccc2)CC1 (nonaromatic ring conformer: 65.8085837453483 kcal/mol)

>  <smiles>  (45) 
COc1ccccc1SCCCN1CCN(CCNc2ccccc2)CC1

>  <score_type>  (45) 
oracle

>  <origin>  (45) 
adg

>  <m_score__min__energy>  (45) 
-8.1999999999999993

>  <m_primary>  (45) 
energy

$$$$
45:0
     RDKit          3D

 35 37  0  0  0  0  0  0  0  0999 V2000
   54.9170   26.3320   45.9890 N   0  0  0  0  0  0  0  0  0  0  0  0
   56.6300   26.1210   46.0490 S   0  0  0  0  0  0  0  0  0  0  0  0
   57.1160   25.5700   44.7380 O   0  0  0  0  0  0  0  0  0  0  0  0
   56.9790   25.1480   47.1400 O   0  0  0  0  0  0  0  0  0  0  0  0
   57.3990   27.6720   46.3680 C   0  0  0  0  0  0  0  0  0  0  0  0
   58.3140   27.8000   47.4210 C   0  0  0  0  0  0  0  0  0  0  0  0
   58.9360   29.0270   47.6720 C   0  0  0  0  0  0  0  0  0  0  0  0
   58.6540   30.1390   46.8650 C   0  0  0  0  0  0  0  0  0  0  0  0
   59.2730   31.3740   47.1090 C   0  0  0  0  0  0  0  0  0  0  0  0
   58.9880   32.4790   46.2960 C   0  0  0  0  0  0  0  0  0  0  0  0
   59.7480   34.0320   46.6250 S   0  0  0  0  0  0  0  0  0  0  0  0
   60.0170   34.7520   45.3340 O   0  0  0  0  0  0  0  0  0  0  0  0
   58.8330   34.8880   47.4570 O   0  0  0  0  0  0  0  0  0  0  0  0
   61.2580   33.7590   47.4850 C   0  0  0  0  0  0  0  0  0  0  0  0
   62.3600   33.2180   46.8100 C   0  0  0  0  0  0  0  0  0  0  0  0
   63.5580   33.0250   47.4990 C   0  0  0  0  0  0  0  0  0  0  0  0
   63.6470   33.3750   48.8470 C   0  0  0  0  0  0  0  0  0  0  0  0
   65.1470   33.1400   49.7270 Cl  0  0  0  0  0  0  0  0  0  0  0  0
   62.5310   33.9200   49.4870 C   0  0  0  0  0  0  0  0  0  0  0  0
   61.3700   34.1020   48.8000 N   0  0  0  0  0  0  0  0  0  0  0  0
   58.0710   32.3520   45.2440 C   0  0  0  0  0  0  0  0  0  0  0  0
   57.4510   31.1260   44.9920 C   0  0  0  0  0  0  0  0  0  0  0  0
   57.7350   30.0130   45.7960 C   0  0  0  0  0  0  0  0  0  0  0  0
   57.1150   28.7780   45.5530 C   0  0  0  0  0  0  0  0  0  0  0  0
   54.6770   27.0840   46.6740 H   0  0  0  0  0  0  0  0  0  0  0  0
   58.5445   26.9304   48.0540 H   0  0  0  0  0  0  0  0  0  0  0  0
   59.6486   29.1204   48.5048 H   0  0  0  0  0  0  0  0  0  0  0  0
   59.9847   31.4753   47.9416 H   0  0  0  0  0  0  0  0  0  0  0  0
   62.2816   32.9478   45.7466 H   0  0  0  0  0  0  0  0  0  0  0  0
   64.4296   32.5983   46.9812 H   0  0  0  0  0  0  0  0  0  0  0  0
   62.5907   34.2026   50.5484 H   0  0  0  0  0  0  0  0  0  0  0  0
   60.5530   34.5200   49.2990 H   0  0  0  0  0  0  0  0  0  0  0  0
   57.8382   33.2226   44.6132 H   0  0  0  0  0  0  0  0  0  0  0  0
   56.7375   31.0334   44.1599 H   0  0  0  0  0  0  0  0  0  0  0  0
   56.4035   28.6766   44.7202 H   0  0  0  0  0  0  0  0  0  0  0  0
  1  2  1  0
  2  3  2  0
  2  4  2  0
  2  5  1  0
  5  6  2  0
  6  7  1  0
  7  8  2  0
  8  9  1  0
  9 10  2  0
 10 11  1  0
 11 12  2  0
 11 13  2  0
 11 14  1  0
 14 15  2  0
 15 16  1  0
 16 17  2  0
 17 18  1  0
 17 19  1  0
 19 20  2  0
 10 21  1  0
 21 22  2  0
 22 23  1  0
 23 24  2  0
 24  5  1  0
 23  8  1  0
 20 14  1  0
  1 25  1  0
  6 26  1  0
  7 27  1  0
  9 28  1  0
 15 29  1  0
 16 30  1  0
 19 31  1  0
 20 32  1  0
 21 33  1  0
 22 34  1  0
 24 35  1  0
M  CHG  2   1  -1  20   1
M  END
>  <UniqueID>  (46) 
46

>  <SMILES>  (46) 
[NH-]S(=O)(=O)c1ccc2cc(S(=O)(=O)c3ccc(Cl)c[nH+]3)ccc2c1

>  <Energy>  (46) 
42.40102452568432

>  <Genealogy>  (46) 
[NH-]S(=O)(=O)c1ccc2cc(S(=O)(=O)c3ccc(Cl)c[nH+]3)ccc2c1 (protonated)
[NH-]S(=O)(=O)c1ccc2cc(S(=O)(=O)c3ccc(Cl)c[nH+]3)ccc2c1 (3D coordinates assigned)
[NH-]S(=O)(=O)c1ccc2cc(S(=O)(=O)c3ccc(Cl)c[nH+]3)ccc2c1 (optimized conformer: 42.40102452568432 kcal/mol)

>  <smiles>  (46) 
NS(=O)(=O)c1ccc2cc(S(=O)(=O)c3ccc(Cl)cn3)ccc2c1

>  <score_type>  (46) 
oracle

>  <origin>  (46) 
adg

>  <m_score__min__energy>  (46) 
-10.539999999999999

>  <m_primary>  (46) 
energy

$$$$
46:0
     RDKit          3D

 36 38  0  0  0  0  0  0  0  0999 V2000
   59.1090   27.8900   47.4840 O   0  0  0  0  0  0  0  0  0  0  0  0
   59.5850   28.2160   46.3640 C   0  0  0  0  0  0  0  0  0  0  0  0
   59.3080   27.3560   45.1730 C   0  0  0  0  0  0  0  0  0  0  0  0
   57.7800   27.8590   44.4100 S   0  0  0  0  0  0  0  0  0  0  0  0
   57.7550   27.4950   42.7690 O   0  0  0  0  0  0  0  0  0  0  0  0
   57.4670   29.5600   44.6730 C   0  0  0  0  0  0  0  0  0  0  0  0
   56.2620   30.1350   44.5220 N   0  0  0  0  0  0  0  0  0  0  0  0
   56.4280   31.4170   44.8110 N   0  0  0  0  0  0  0  0  0  0  0  0
   57.7300   31.5680   45.1270 C   0  0  0  0  0  0  0  0  0  0  0  0
   58.3400   32.8470   45.5140 C   0  0  0  0  0  0  0  0  0  0  0  0
   58.7030   33.7930   44.5430 C   0  0  0  0  0  0  0  0  0  0  0  0
   59.2820   34.9990   44.9440 C   0  0  0  0  0  0  0  0  0  0  0  0
   59.4920   35.2520   46.3010 C   0  0  0  0  0  0  0  0  0  0  0  0
   59.1200   34.2880   47.2400 C   0  0  0  0  0  0  0  0  0  0  0  0
   58.5570   33.1190   46.8310 N   0  0  0  0  0  0  0  0  0  0  0  0
   58.3740   30.4290   45.0450 O   0  0  0  0  0  0  0  0  0  0  0  0
   60.3100   29.4460   46.2050 N   0  0  0  0  0  0  0  0  0  0  0  0
   60.7720   30.2570   47.2990 C   0  0  0  0  0  0  0  0  0  0  0  0
   61.9020   31.0720   47.1200 C   0  0  0  0  0  0  0  0  0  0  0  0
   62.3840   31.8540   48.1750 C   0  0  0  0  0  0  0  0  0  0  0  0
   61.7520   31.8160   49.4210 C   0  0  0  0  0  0  0  0  0  0  0  0
   62.2210   32.5730   50.4430 F   0  0  0  0  0  0  0  0  0  0  0  0
   60.6410   30.9910   49.6150 C   0  0  0  0  0  0  0  0  0  0  0  0
   60.1550   30.2090   48.5620 C   0  0  0  0  0  0  0  0  0  0  0  0
   60.1294   27.4593   44.4487 H   0  0  0  0  0  0  0  0  0  0  0  0
   59.2266   26.3067   45.4930 H   0  0  0  0  0  0  0  0  0  0  0  0
   56.8380   27.1600   42.5990 H   0  0  0  0  0  0  0  0  0  0  0  0
   58.5331   33.5865   43.4760 H   0  0  0  0  0  0  0  0  0  0  0  0
   59.5720   35.7480   44.1924 H   0  0  0  0  0  0  0  0  0  0  0  0
   59.9453   36.1999   46.6265 H   0  0  0  0  0  0  0  0  0  0  0  0
   59.2824   34.4740   48.3119 H   0  0  0  0  0  0  0  0  0  0  0  0
   60.4310   29.8150   45.2340 H   0  0  0  0  0  0  0  0  0  0  0  0
   62.4106   31.0954   46.1449 H   0  0  0  0  0  0  0  0  0  0  0  0
   63.2616   32.4997   48.0237 H   0  0  0  0  0  0  0  0  0  0  0  0
   60.1477   30.9565   50.5976 H   0  0  0  0  0  0  0  0  0  0  0  0
   59.2863   29.5535   48.7224 H   0  0  0  0  0  0  0  0  0  0  0  0
  1  2  2  0
  2  3  1  0
  3  4  1  0
  4  5  1  6
  4  6  1  0
  6  7  2  0
  7  8  1  0
  8  9  2  0
  9 10  1  0
 10 11  2  0
 11 12  1  0
 12 13  2  0
 13 14  1  0
 14 15  2  0
  9 16  1  0
  2 17  1  0
 17 18  1  0
 18 19  2  0
 19 20  1  0
 20 21  2  0
 21 22  1  0
 21 23  1  0
 23 24  2  0
 16  6  1  0
 24 18  1  0
 15 10  1  0
  3 25  1  0
  3 26  1  0
  5 27  1  0
 11 28  1  0
 12 29  1  0
 13 30  1  0
 14 31  1  0
 17 32  1  0
 19 33  1  0
 20 34  1  0
 23 35  1  0
 24 36  1  0
M  CHG  1   4   1
M  END
>  <UniqueID>  (47) 
47

>  <SMILES>  (47) 
O=C(C[S@+](O)c1nnc(-c2ccccn2)o1)Nc1ccc(F)cc1

>  <Energy>  (47) 
71.26811808335134

>  <Genealogy>  (47) 
O=C(C[S+](O)c1nnc(-c2ccccn2)o1)Nc1ccc(F)cc1 (protonated)
O=C(C[S@+](O)c1nnc(-c2ccccn2)o1)Nc1ccc(F)cc1 (chirality)
O=C(C[S@+](O)c1nnc(-c2ccccn2)o1)Nc1ccc(F)cc1 (3D coordinates assigned)
O=C(C[S@+](O)c1nnc(-c2ccccn2)o1)Nc1ccc(F)cc1 (optimized conformer: 71.26811808335134 kcal/mol)

>  <smiles>  (47) 
O=C(C[S+]([O-])c1nnc(-c2ccccn2)o1)Nc1ccc(F)cc1

>  <score_type>  (47) 
oracle

>  <origin>  (47) 
adg

>  <m_score__min__energy>  (47) 
-6.0899999999999999

>  <m_primary>  (47) 
energy

$$$$
47:0
     RDKit          3D

 46 47  0  0  0  0  0  0  0  0999 V2000
   57.7870   27.1450   45.1260 C   0  0  0  0  0  0  0  0  0  0  0  0
   58.1780   28.2130   44.1110 C   0  0  0  0  0  0  0  0  0  0  0  0
   57.7820   29.5810   44.5990 C   0  0  0  0  0  0  0  0  0  0  0  0
   58.5330   30.4210   45.4080 C   0  0  0  0  0  0  0  0  0  0  0  0
   59.8660   30.1310   46.0300 C   0  0  0  0  0  0  0  0  0  0  0  0
   57.7800   31.5890   45.4940 C   0  0  0  0  0  0  0  0  0  0  0  0
   58.1060   32.8230   46.2280 C   0  0  0  0  0  0  0  0  0  0  0  0
   57.4190   33.1290   47.2400 O   0  0  0  0  0  0  0  0  0  0  0  0
   59.1530   33.6970   45.7830 N   0  0  0  0  0  0  0  0  0  0  0  0
   59.7520   34.7050   46.6530 C   0  0  0  0  0  0  0  0  0  0  0  0
   61.0000   34.1540   47.2950 C   0  0  0  0  0  0  0  0  0  0  0  0
   62.0940   33.8290   46.4800 C   0  0  0  0  0  0  0  0  0  0  0  0
   63.2530   33.2820   47.0290 C   0  0  0  0  0  0  0  0  0  0  0  0
   63.3410   33.0410   48.4030 C   0  0  0  0  0  0  0  0  0  0  0  0
   64.5300   32.4880   48.9040 O   0  0  0  0  0  0  0  0  0  0  0  0
   64.8640   32.4160   50.2860 C   0  0  0  0  0  0  0  0  0  0  0  0
   62.2460   33.3580   49.2290 C   0  0  0  0  0  0  0  0  0  0  0  0
   61.0690   33.9110   48.6830 C   0  0  0  0  0  0  0  0  0  0  0  0
   59.9630   34.2270   49.4880 O   0  0  0  0  0  0  0  0  0  0  0  0
   59.5280   33.4650   50.6100 C   0  0  0  0  0  0  0  0  0  0  0  0
   56.6380   31.4380   44.7920 N   0  0  0  0  0  0  0  0  0  0  0  0
   56.6530   30.2340   44.2440 N   0  0  0  0  0  0  0  0  0  0  0  0
   55.5790   29.7280   43.3960 C   0  0  0  0  0  0  0  0  0  0  0  0
   57.9304   27.5366   46.1439 H   0  0  0  0  0  0  0  0  0  0  0  0
   56.7308   26.8727   44.9833 H   0  0  0  0  0  0  0  0  0  0  0  0
   58.4176   26.2551   44.9833 H   0  0  0  0  0  0  0  0  0  0  0  0
   59.2671   28.1851   43.9588 H   0  0  0  0  0  0  0  0  0  0  0  0
   57.6552   28.0100   43.1647 H   0  0  0  0  0  0  0  0  0  0  0  0
   59.7716   30.1515   47.1257 H   0  0  0  0  0  0  0  0  0  0  0  0
   60.2113   29.1367   45.7103 H   0  0  0  0  0  0  0  0  0  0  0  0
   60.5931   30.8920   45.7103 H   0  0  0  0  0  0  0  0  0  0  0  0
   59.4920   33.6310   44.7970 H   0  0  0  0  0  0  0  0  0  0  0  0
   60.0100   35.5934   46.0579 H   0  0  0  0  0  0  0  0  0  0  0  0
   59.0321   34.9791   47.4382 H   0  0  0  0  0  0  0  0  0  0  0  0
   62.0371   34.0075   45.3961 H   0  0  0  0  0  0  0  0  0  0  0  0
   64.1042   33.0384   46.3762 H   0  0  0  0  0  0  0  0  0  0  0  0
   63.9659   32.6096   50.8909 H   0  0  0  0  0  0  0  0  0  0  0  0
   65.2528   31.4134   50.5175 H   0  0  0  0  0  0  0  0  0  0  0  0
   65.6314   33.1694   50.5175 H   0  0  0  0  0  0  0  0  0  0  0  0
   62.3090   33.1725   50.3114 H   0  0  0  0  0  0  0  0  0  0  0  0
   59.8210   33.9783   51.5377 H   0  0  0  0  0  0  0  0  0  0  0  0
   58.4335   33.3594   50.5794 H   0  0  0  0  0  0  0  0  0  0  0  0
   59.9935   32.4688   50.5794 H   0  0  0  0  0  0  0  0  0  0  0  0
   54.7638   29.3439   44.0268 H   0  0  0  0  0  0  0  0  0  0  0  0
   55.1989   30.5418   42.7609 H   0  0  0  0  0  0  0  0  0  0  0  0
   55.9645   28.9168   42.7609 H   0  0  0  0  0  0  0  0  0  0  0  0
  1  2  1  0
  2  3  1  0
  3  4  2  0
  4  5  1  0
  4  6  1  0
  6  7  1  0
  7  8  2  0
  7  9  1  0
  9 10  1  0
 10 11  1  0
 11 12  2  0
 12 13  1  0
 13 14  2  0
 14 15  1  0
 15 16  1  0
 14 17  1  0
 17 18  2  0
 18 19  1  0
 19 20  1  0
  6 21  2  0
 21 22  1  0
 22 23  1  0
 22  3  1  0
 18 11  1  0
  1 24  1  0
  1 25  1  0
  1 26  1  0
  2 27  1  0
  2 28  1  0
  5 29  1  0
  5 30  1  0
  5 31  1  0
  9 32  1  0
 10 33  1  0
 10 34  1  0
 12 35  1  0
 13 36  1  0
 16 37  1  0
 16 38  1  0
 16 39  1  0
 17 40  1  0
 20 41  1  0
 20 42  1  0
 20 43  1  0
 23 44  1  0
 23 45  1  0
 23 46  1  0
M  END
>  <UniqueID>  (48) 
48

>  <SMILES>  (48) 
CCc1c(C)c(C(=O)NCc2ccc(OC)cc2OC)nn1C

>  <Energy>  (48) 
69.62127701236467

>  <Genealogy>  (48) 
CCc1c(C)c(C(=O)NCc2ccc(OC)cc2OC)nn1C (3D coordinates assigned)
CCc1c(C)c(C(=O)NCc2ccc(OC)cc2OC)nn1C (optimized conformer: 69.62127701236467 kcal/mol)

>  <smiles>  (48) 
CCc1c(C)c(C(=O)NCc2ccc(OC)cc2OC)nn1C

>  <score_type>  (48) 
oracle

>  <origin>  (48) 
adg

>  <m_score__min__energy>  (48) 
-6.7999999999999998

>  <m_primary>  (48) 
energy

$$$$
