0:0
     RDKit          3D

 34 36  0  0  0  0  0  0  0  0999 V2000
   58.5730   24.3800   47.0835 H   0  0  0  0  0  0  0  0  0  0  0  0
   58.0130   25.2470   46.7030 C   0  0  0  0  0  0  0  0  0  0  0  0
   56.6140   25.2110   46.6410 C   0  0  0  0  0  0  0  0  0  0  0  0
   55.8680   23.9940   47.0870 C   0  0  0  0  0  0  0  0  0  0  0  0
   55.8467   23.9593   48.1862 H   0  0  0  0  0  0  0  0  0  0  0  0
   54.8385   24.0331   46.7014 H   0  0  0  0  0  0  0  0  0  0  0  0
   56.3700   23.0944   46.7014 H   0  0  0  0  0  0  0  0  0  0  0  0
   55.9330   26.2790   46.1460 N   0  0  0  0  0  0  0  0  0  0  0  0
   56.5670   27.4040   45.7090 C   0  0  0  0  0  0  0  0  0  0  0  0
   55.8930   28.4080   45.2370 N   0  0  0  0  0  0  0  0  0  0  0  0
   56.4900   29.4800   44.0110 S   0  0  0  0  0  0  0  0  0  0  0  0
   57.4200   28.7370   43.0940 O   0  0  0  0  0  0  0  0  0  0  0  0
   55.3340   30.0390   43.2310 O   0  0  0  0  0  0  0  0  0  0  0  0
   57.3620   30.7950   44.7740 C   0  0  0  0  0  0  0  0  0  0  0  0
   58.2020   30.6740   46.2350 S   0  0  0  0  0  0  0  0  0  0  0  0
   58.7180   32.2720   46.2260 C   0  0  0  0  0  0  0  0  0  0  0  0
   59.5020   32.9320   47.1710 C   0  0  0  0  0  0  0  0  0  0  0  0
   59.8689   32.4087   48.0663 H   0  0  0  0  0  0  0  0  0  0  0  0
   59.8100   34.2830   46.9480 C   0  0  0  0  0  0  0  0  0  0  0  0
   60.4255   34.8307   47.6768 H   0  0  0  0  0  0  0  0  0  0  0  0
   59.3360   34.9420   45.7970 C   0  0  0  0  0  0  0  0  0  0  0  0
   59.5848   36.0008   45.6324 H   0  0  0  0  0  0  0  0  0  0  0  0
   58.5470   34.2560   44.8570 C   0  0  0  0  0  0  0  0  0  0  0  0
   58.1745   34.7682   43.9576 H   0  0  0  0  0  0  0  0  0  0  0  0
   58.2450   32.9110   45.0870 C   0  0  0  0  0  0  0  0  0  0  0  0
   57.4780   32.0840   44.2600 C   0  0  0  0  0  0  0  0  0  0  0  0
   57.0205   32.4129   43.3153 H   0  0  0  0  0  0  0  0  0  0  0  0
   57.9640   27.4750   45.7620 C   0  0  0  0  0  0  0  0  0  0  0  0
   58.4861   28.3736   45.4014 H   0  0  0  0  0  0  0  0  0  0  0  0
   58.6940   26.3950   46.2770 C   0  0  0  0  0  0  0  0  0  0  0  0
   60.1920   26.4380   46.3010 C   0  0  0  0  0  0  0  0  0  0  0  0
   60.5419   26.4480   47.3438 H   0  0  0  0  0  0  0  0  0  0  0  0
   60.5925   25.5510   45.7884 H   0  0  0  0  0  0  0  0  0  0  0  0
   60.5410   27.3465   45.7884 H   0  0  0  0  0  0  0  0  0  0  0  0
  1  2  1  0
  2  3  2  0
  3  4  1  0
  4  5  1  0
  4  6  1  0
  4  7  1  0
  3  8  1  0
  8  9  1  0
  9 10  2  0
 10 11  1  0
 11 12  2  0
 11 13  2  0
 11 14  1  0
 14 15  1  0
 15 16  1  0
 16 17  2  0
 17 18  1  0
 17 19  1  0
 19 20  1  0
 19 21  2  0
 21 22  1  0
 21 23  1  0
 23 24  1  0
 23 25  2  0
 25 26  1  0
 26 27  1  0
  9 28  1  0
 28 29  1  0
 28 30  2  0
 30 31  1  0
 31 32  1  0
 31 33  1  0
 31 34  1  0
 30  2  1  0
 26 14  2  0
 25 16  1  0
M  CHG  1   8  -1
M  END
>  <UniqueID>  (1) 
1

>  <SMILES>  (1) 
Cc1cc(C)[n-]/c(=N\S(=O)(=O)c2cc3ccccc3s2)c1

>  <Energy>  (1) 
69.21028690910123

>  <Genealogy>  (1) 
Cc1cc(C)[n-]c(=NS(=O)(=O)c2cc3ccccc3s2)c1 (protonated)
Cc1cc(C)[n-]/c(=N\S(=O)(=O)c2cc3ccccc3s2)c1 (cis-trans isomerization)
Cc1cc(C)[n-]/c(=N\S(=O)(=O)c2cc3ccccc3s2)c1 (3D coordinates assigned)
Cc1cc(C)[n-]/c(=N\S(=O)(=O)c2cc3ccccc3s2)c1 (optimized conformer: 69.21028690910123 kcal/mol)

>  <smiles>  (1) 
Cc1cc(C)[nH]c(=NS(=O)(=O)c2cc3ccccc3s2)c1

>  <score_type>  (1) 
oracle

>  <origin>  (1) 
adg

>  <m_score__min__energy>  (1) 
-10.199999999999999

>  <m_primary>  (1) 
energy

$$$$
1:0
     RDKit          3D

 45 48  0  0  0  0  0  0  0  0999 V2000
   64.2881   32.8614   46.1624 H   0  0  0  0  0  0  0  0  0  0  0  0
   63.7290   33.0720   47.0860 C   0  0  0  0  0  0  0  0  0  0  0  0
   64.4100   33.4440   48.2440 C   0  0  0  0  0  0  0  0  0  0  0  0
   65.5065   33.5304   48.2324 H   0  0  0  0  0  0  0  0  0  0  0  0
   63.7030   33.7070   49.4180 C   0  0  0  0  0  0  0  0  0  0  0  0
   64.2506   33.9795   50.3323 H   0  0  0  0  0  0  0  0  0  0  0  0
   62.2980   33.6280   49.4470 C   0  0  0  0  0  0  0  0  0  0  0  0
   61.5900   33.8410   50.7680 C   0  0  0  0  0  0  0  0  0  0  0  0
   60.5271   34.0459   50.5725 H   0  0  0  0  0  0  0  0  0  0  0  0
   62.0705   34.6884   51.2789 H   0  0  0  0  0  0  0  0  0  0  0  0
   61.6980   32.6160   51.6790 C   0  0  0  0  0  0  0  0  0  0  0  0
   61.6697   32.9375   52.7306 H   0  0  0  0  0  0  0  0  0  0  0  0
   60.8563   31.9362   51.4806 H   0  0  0  0  0  0  0  0  0  0  0  0
   62.6457   32.0939   51.4806 H   0  0  0  0  0  0  0  0  0  0  0  0
   61.6060   33.2580   48.2620 C   0  0  0  0  0  0  0  0  0  0  0  0
   60.1780   33.1080   48.2210 N   0  0  0  0  0  0  0  0  0  0  0  0
   59.4560   32.2800   49.0010 C   0  0  0  0  0  0  0  0  0  0  0  0
   59.8506   31.6639   49.8224 H   0  0  0  0  0  0  0  0  0  0  0  0
   58.1390   32.3350   48.5960 C   0  0  0  0  0  0  0  0  0  0  0  0
   57.3048   31.7792   49.0490 H   0  0  0  0  0  0  0  0  0  0  0  0
   58.0440   33.1820   47.5540 N   0  0  0  0  0  0  0  0  0  0  0  0
   57.1810   33.4300   47.0210 H   0  0  0  0  0  0  0  0  0  0  0  0
   59.2960   33.6260   47.3360 C   0  0  0  0  0  0  0  0  0  0  0  0
   59.6980   34.7940   46.0330 S   0  0  0  0  0  0  0  0  0  0  0  0
   58.9070   33.8540   44.6790 C   0  0  0  0  0  0  0  0  0  0  0  0
   58.9975   34.4308   43.7467 H   0  0  0  0  0  0  0  0  0  0  0  0
   59.4166   32.8825   44.5982 H   0  0  0  0  0  0  0  0  0  0  0  0
   57.4500   33.5920   44.9480 C   0  0  0  0  0  0  0  0  0  0  0  0
   56.7090   34.5710   45.2240 O   0  0  0  0  0  0  0  0  0  0  0  0
   56.8750   32.2740   44.9870 N   0  0  0  0  0  0  0  0  0  0  0  0
   57.4460   31.1310   45.2330 C   0  0  0  0  0  0  0  0  0  0  0  0
   56.7380   29.9750   45.2270 N   0  0  0  0  0  0  0  0  0  0  0  0
   57.5340   28.9130   45.5050 C   0  0  0  0  0  0  0  0  0  0  0  0
   57.0860   27.5940   45.5910 C   0  0  0  0  0  0  0  0  0  0  0  0
   56.0263   27.3496   45.4260 H   0  0  0  0  0  0  0  0  0  0  0  0
   58.0170   26.5830   45.8930 C   0  0  0  0  0  0  0  0  0  0  0  0
   57.6838   25.5372   45.9663 H   0  0  0  0  0  0  0  0  0  0  0  0
   59.3730   26.9020   46.1020 C   0  0  0  0  0  0  0  0  0  0  0  0
   60.0925   26.1036   46.3364 H   0  0  0  0  0  0  0  0  0  0  0  0
   59.8120   28.2330   46.0130 C   0  0  0  0  0  0  0  0  0  0  0  0
   60.8687   28.4925   46.1741 H   0  0  0  0  0  0  0  0  0  0  0  0
   58.8710   29.2140   45.7150 C   0  0  0  0  0  0  0  0  0  0  0  0
   59.0950   30.8680   45.5510 S   0  0  0  0  0  0  0  0  0  0  0  0
   62.3390   32.9670   47.0990 C   0  0  0  0  0  0  0  0  0  0  0  0
   61.8094   32.6525   46.1876 H   0  0  0  0  0  0  0  0  0  0  0  0
  1  2  1  0
  2  3  2  0
  3  4  1  0
  3  5  1  0
  5  6  1  0
  5  7  2  0
  7  8  1  0
  8  9  1  0
  8 10  1  0
  8 11  1  0
 11 12  1  0
 11 13  1  0
 11 14  1  0
  7 15  1  0
 15 16  1  0
 16 17  1  0
 17 18  1  0
 17 19  2  0
 19 20  1  0
 19 21  1  0
 21 22  1  0
 21 23  2  0
 23 24  1  0
 24 25  1  0
 25 26  1  0
 25 27  1  0
 25 28  1  0
 28 29  2  0
 28 30  1  0
 30 31  2  0
 31 32  1  0
 32 33  1  0
 33 34  2  0
 34 35  1  0
 34 36  1  0
 36 37  1  0
 36 38  2  0
 38 39  1  0
 38 40  1  0
 40 41  1  0
 40 42  2  0
 42 43  1  0
 15 44  2  0
 44 45  1  0
 44  2  1  0
 23 16  1  0
 43 31  1  0
 42 33  1  0
M  CHG  2  21   1  32  -1
M  END
>  <UniqueID>  (2) 
2

>  <SMILES>  (2) 
CCc1ccccc1-n1cc[nH+]c1SCC(=O)/N=c1/[n-]c2ccccc2s1

>  <Energy>  (2) 
118.89641022467428

>  <Genealogy>  (2) 
CCc1ccccc1-n1cc[nH+]c1SCC(=O)N=c1[n-]c2ccccc2s1 (protonated)
CCc1ccccc1-n1cc[nH+]c1SCC(=O)/N=c1/[n-]c2ccccc2s1 (cis-trans isomerization)
CCc1ccccc1-n1cc[nH+]c1SCC(=O)/N=c1/[n-]c2ccccc2s1 (3D coordinates assigned)
CCc1ccccc1-n1cc[nH+]c1SCC(=O)/N=c1/[n-]c2ccccc2s1 (optimized conformer: 118.89641022467428 kcal/mol)

>  <smiles>  (2) 
CCc1ccccc1-n1ccnc1SCC(=O)N=c1[nH]c2ccccc2s1

>  <score_type>  (2) 
oracle

>  <origin>  (2) 
adg

>  <m_score__min__energy>  (2) 
-9.2100000000000009

>  <m_primary>  (2) 
energy

$$$$
2:0
     RDKit          3D

 32 33  0  0  0  0  0  0  0  0999 V2000
   59.7790   27.6760   45.4460 C   0  0  0  0  0  0  0  0  0  0  0  0
   59.6510   29.0550   45.1160 O   0  0  0  0  0  0  0  0  0  0  0  0
   59.8680   30.1200   46.0090 C   0  0  0  0  0  0  0  0  0  0  0  0
   60.7010   29.9660   47.1290 C   0  0  0  0  0  0  0  0  0  0  0  0
   60.9290   31.0280   47.9940 C   0  0  0  0  0  0  0  0  0  0  0  0
   60.3550   32.2780   47.7510 C   0  0  0  0  0  0  0  0  0  0  0  0
   60.6270   33.3400   48.6280 C   0  0  0  0  0  0  0  0  0  0  0  0
   60.0880   34.6020   48.3950 C   0  0  0  0  0  0  0  0  0  0  0  0
   59.2780   34.8180   47.2830 C   0  0  0  0  0  0  0  0  0  0  0  0
   58.9930   33.7730   46.4010 C   0  0  0  0  0  0  0  0  0  0  0  0
   59.5100   32.4720   46.6210 C   0  0  0  0  0  0  0  0  0  0  0  0
   59.2320   31.3630   45.7620 C   0  0  0  0  0  0  0  0  0  0  0  0
   58.2960   31.4420   44.5610 C   0  0  0  0  0  0  0  0  0  0  0  0
   56.9820   30.8810   44.8800 N   0  0  0  0  0  0  0  0  0  0  0  0
   56.5030   29.7440   44.4650 C   0  0  0  0  0  0  0  0  0  0  0  0
   57.2820   28.8380   43.6720 N   0  0  0  0  0  0  0  0  0  0  0  0
   55.1640   29.3910   44.8130 N   0  0  0  0  0  0  0  0  0  0  0  0
   59.7897   27.5602   46.5398 H   0  0  0  0  0  0  0  0  0  0  0  0
   58.9288   27.1182   45.0266 H   0  0  0  0  0  0  0  0  0  0  0  0
   60.7174   27.2842   45.0266 H   0  0  0  0  0  0  0  0  0  0  0  0
   61.1779   28.9939   47.3231 H   0  0  0  0  0  0  0  0  0  0  0  0
   61.5672   30.8837   48.8783 H   0  0  0  0  0  0  0  0  0  0  0  0
   61.2701   33.1737   49.5048 H   0  0  0  0  0  0  0  0  0  0  0  0
   60.3018   35.4283   49.0889 H   0  0  0  0  0  0  0  0  0  0  0  0
   58.8597   35.8184   47.0979 H   0  0  0  0  0  0  0  0  0  0  0  0
   58.3581   33.9627   45.5230 H   0  0  0  0  0  0  0  0  0  0  0  0
   58.1755   32.4954   44.2679 H   0  0  0  0  0  0  0  0  0  0  0  0
   58.7343   30.8596   43.7372 H   0  0  0  0  0  0  0  0  0  0  0  0
   56.8570   27.9460   43.3350 H   0  0  0  0  0  0  0  0  0  0  0  0
   58.2790   29.0200   43.4340 H   0  0  0  0  0  0  0  0  0  0  0  0
   54.5770   30.0360   45.3880 H   0  0  0  0  0  0  0  0  0  0  0  0
   54.7540   28.4840   44.4960 H   0  0  0  0  0  0  0  0  0  0  0  0
  1  2  1  0
  2  3  1  0
  3  4  2  0
  4  5  1  0
  5  6  2  0
  6  7  1  0
  7  8  2  0
  8  9  1  0
  9 10  2  0
 10 11  1  0
 11 12  2  0
 12 13  1  0
 13 14  1  0
 14 15  2  3
 15 16  1  0
 15 17  1  0
 12  3  1  0
 11  6  1  0
  1 18  1  0
  1 19  1  0
  1 20  1  0
  4 21  1  0
  5 22  1  0
  7 23  1  0
  8 24  1  0
  9 25  1  0
 10 26  1  0
 13 27  1  0
 13 28  1  0
 16 29  1  0
 16 30  1  0
 17 31  1  0
 17 32  1  0
M  END
>  <UniqueID>  (3) 
3

>  <SMILES>  (3) 
COc1ccc2ccccc2c1CN=C(N)N

>  <Energy>  (3) 
38.87860543687728

>  <Genealogy>  (3) 
COc1ccc2ccccc2c1CN=C(N)N (3D coordinates assigned)
COc1ccc2ccccc2c1CN=C(N)N (optimized conformer: 38.87860543687728 kcal/mol)

>  <smiles>  (3) 
COc1ccc2ccccc2c1CN=C(N)N

>  <score_type>  (3) 
oracle

>  <origin>  (3) 
adg

>  <m_score__min__energy>  (3) 
-7.1799999999999997

>  <m_primary>  (3) 
energy

$$$$
3:0
     RDKit          3D

 30 31  0  0  0  0  0  0  0  0999 V2000
   65.4100   32.3810   50.1000 C   0  0  0  0  0  0  0  0  0  0  0  0
   64.6090   33.5090   49.7650 O   0  0  0  0  0  0  0  0  0  0  0  0
   63.4420   33.4490   48.9870 C   0  0  0  0  0  0  0  0  0  0  0  0
   63.4030   32.5540   47.9140 C   0  0  0  0  0  0  0  0  0  0  0  0
   62.2640   32.4550   47.1090 C   0  0  0  0  0  0  0  0  0  0  0  0
   61.1370   33.2560   47.3650 C   0  0  0  0  0  0  0  0  0  0  0  0
   59.9180   33.1680   46.5230 C   0  0  0  0  0  0  0  0  0  0  0  0
   59.1570   34.2390   46.2010 N   0  0  0  0  0  0  0  0  0  0  0  0
   58.1720   33.7740   45.4510 N   0  0  0  0  0  0  0  0  0  0  0  0
   57.0900   34.5910   44.9170 C   0  0  0  0  0  0  0  0  0  0  0  0
   58.3250   32.4440   45.3330 C   0  0  0  0  0  0  0  0  0  0  0  0
   57.2210   31.3530   44.4340 S   0  0  0  0  0  0  0  0  0  0  0  0
   57.7740   31.9460   42.8070 C   0  0  0  0  0  0  0  0  0  0  0  0
   59.4190   32.0280   45.9920 N   0  0  0  0  0  0  0  0  0  0  0  0
   61.1790   34.1560   48.4450 C   0  0  0  0  0  0  0  0  0  0  0  0
   62.3190   34.2530   49.2490 C   0  0  0  0  0  0  0  0  0  0  0  0
   65.4750   32.2894   51.1943 H   0  0  0  0  0  0  0  0  0  0  0  0
   64.9547   31.4709   49.6823 H   0  0  0  0  0  0  0  0  0  0  0  0
   66.4193   32.5109   49.6823 H   0  0  0  0  0  0  0  0  0  0  0  0
   64.2771   31.9212   47.7008 H   0  0  0  0  0  0  0  0  0  0  0  0
   62.2495   31.7450   46.2689 H   0  0  0  0  0  0  0  0  0  0  0  0
   56.5144   35.0256   45.7476 H   0  0  0  0  0  0  0  0  0  0  0  0
   57.5106   35.3988   44.3002 H   0  0  0  0  0  0  0  0  0  0  0  0
   56.4282   33.9653   44.3002 H   0  0  0  0  0  0  0  0  0  0  0  0
   58.5186   32.7444   42.9414 H   0  0  0  0  0  0  0  0  0  0  0  0
   58.2259   31.1136   42.2475 H   0  0  0  0  0  0  0  0  0  0  0  0
   56.9122   32.3387   42.2475 H   0  0  0  0  0  0  0  0  0  0  0  0
   59.7720   31.0500   46.0690 H   0  0  0  0  0  0  0  0  0  0  0  0
   60.3061   34.7901   48.6594 H   0  0  0  0  0  0  0  0  0  0  0  0
   62.3371   34.9616   50.0902 H   0  0  0  0  0  0  0  0  0  0  0  0
  1  2  1  0
  2  3  1  0
  3  4  2  0
  4  5  1  0
  5  6  2  0
  6  7  1  0
  7  8  2  0
  8  9  1  0
  9 10  1  0
  9 11  1  0
 11 12  1  0
 12 13  1  0
 11 14  2  0
  6 15  1  0
 15 16  2  0
 16  3  1  0
 14  7  1  0
  1 17  1  0
  1 18  1  0
  1 19  1  0
  4 20  1  0
  5 21  1  0
 10 22  1  0
 10 23  1  0
 10 24  1  0
 13 25  1  0
 13 26  1  0
 13 27  1  0
 14 28  1  0
 15 29  1  0
 16 30  1  0
M  CHG  1  14   1
M  END
>  <UniqueID>  (4) 
4

>  <SMILES>  (4) 
COc1ccc(-c2nn(C)c(SC)[nH+]2)cc1

>  <Energy>  (4) 
60.422682710923326

>  <Genealogy>  (4) 
COc1ccc(-c2nn(C)c(SC)[nH+]2)cc1 (protonated)
COc1ccc(-c2nn(C)c(SC)[nH+]2)cc1 (3D coordinates assigned)
COc1ccc(-c2nn(C)c(SC)[nH+]2)cc1 (optimized conformer: 60.422682710923326 kcal/mol)

>  <smiles>  (4) 
COc1ccc(-c2nc(SC)n(C)n2)cc1

>  <score_type>  (4) 
oracle

>  <origin>  (4) 
adg

>  <m_score__min__energy>  (4) 
-4.0999999999999996

>  <m_primary>  (4) 
energy

$$$$
4:0
     RDKit          3D

 46 48  0  0  0  0  0  0  0  0999 V2000
   57.0200   20.7790   46.6760 C   0  0  0  0  0  0  0  0  0  0  0  0
   57.0670   21.9640   47.4630 O   0  0  0  0  0  0  0  0  0  0  0  0
   57.0450   23.2650   46.9400 C   0  0  0  0  0  0  0  0  0  0  0  0
   56.7000   23.5350   45.6020 C   0  0  0  0  0  0  0  0  0  0  0  0
   56.6920   24.8500   45.1260 C   0  0  0  0  0  0  0  0  0  0  0  0
   57.0260   25.9170   45.9780 C   0  0  0  0  0  0  0  0  0  0  0  0
   57.0170   27.3070   45.4830 C   0  0  0  0  0  0  0  0  0  0  0  0
   58.1350   28.0100   45.1980 N   0  0  0  0  0  0  0  0  0  0  0  0
   57.6530   29.1950   44.7790 C   0  0  0  0  0  0  0  0  0  0  0  0
   58.5130   30.3570   44.3770 C   0  0  0  0  0  0  0  0  0  0  0  0
   58.0680   31.6200   45.0190 N   0  0  0  0  0  0  0  0  0  0  0  0
   58.5060   31.7640   46.4460 C   0  0  1  0  0  0  0  0  0  0  0  0
   60.0050   31.4650   46.6720 C   0  0  0  0  0  0  0  0  0  0  0  0
   58.1660   33.1640   47.0220 C   0  0  0  0  0  0  0  0  0  0  0  0
   57.0430   33.8280   46.2300 C   0  0  0  0  0  0  0  0  0  0  0  0
   57.4590   34.0180   44.7650 C   0  0  0  0  0  0  0  0  0  0  0  0
   58.3430   32.8580   44.2330 C   0  0  2  0  0  0  0  0  0  0  0  0
   58.1040   32.7080   42.7170 C   0  0  0  0  0  0  0  0  0  0  0  0
   56.2780   29.1820   44.8390 C   0  0  0  0  0  0  0  0  0  0  0  0
   55.9180   28.0000   45.2730 O   0  0  0  0  0  0  0  0  0  0  0  0
   57.3680   25.6440   47.3120 C   0  0  0  0  0  0  0  0  0  0  0  0
   57.3760   24.3290   47.7860 C   0  0  0  0  0  0  0  0  0  0  0  0
   56.9852   19.9007   47.3374 H   0  0  0  0  0  0  0  0  0  0  0  0
   56.1218   20.7958   46.0412 H   0  0  0  0  0  0  0  0  0  0  0  0
   57.9167   20.7246   46.0412 H   0  0  0  0  0  0  0  0  0  0  0  0
   56.4354   22.7073   44.9275 H   0  0  0  0  0  0  0  0  0  0  0  0
   56.4227   25.0506   44.0785 H   0  0  0  0  0  0  0  0  0  0  0  0
   59.5514   30.1519   44.6764 H   0  0  0  0  0  0  0  0  0  0  0  0
   58.4332   30.4807   43.2869 H   0  0  0  0  0  0  0  0  0  0  0  0
   57.9324   30.9981   46.9885 H   0  0  0  0  0  0  0  0  0  0  0  0
   60.2120   31.4237   47.7516 H   0  0  0  0  0  0  0  0  0  0  0  0
   60.2594   30.4984   46.2127 H   0  0  0  0  0  0  0  0  0  0  0  0
   60.6108   32.2600   46.2127 H   0  0  0  0  0  0  0  0  0  0  0  0
   57.8498   33.0539   48.0698 H   0  0  0  0  0  0  0  0  0  0  0  0
   59.0630   33.7968   46.9524 H   0  0  0  0  0  0  0  0  0  0  0  0
   56.1457   33.1931   46.2722 H   0  0  0  0  0  0  0  0  0  0  0  0
   56.8310   34.8134   46.6706 H   0  0  0  0  0  0  0  0  0  0  0  0
   56.5509   34.0790   44.1473 H   0  0  0  0  0  0  0  0  0  0  0  0
   58.0554   34.9405   44.7081 H   0  0  0  0  0  0  0  0  0  0  0  0
   59.4140   33.0699   44.3669 H   0  0  0  0  0  0  0  0  0  0  0  0
   57.1836   32.1303   42.5463 H   0  0  0  0  0  0  0  0  0  0  0  0
   58.0015   33.7041   42.2616 H   0  0  0  0  0  0  0  0  0  0  0  0
   58.9564   32.1826   42.2616 H   0  0  0  0  0  0  0  0  0  0  0  0
   55.6060   30.0109   44.5719 H   0  0  0  0  0  0  0  0  0  0  0  0
   57.6314   26.4703   47.9886 H   0  0  0  0  0  0  0  0  0  0  0  0
   57.6450   24.1289   48.8337 H   0  0  0  0  0  0  0  0  0  0  0  0
  1  2  1  0
  2  3  1  0
  3  4  2  0
  4  5  1  0
  5  6  2  0
  6  7  1  0
  7  8  2  0
  8  9  1  0
  9 10  1  0
 10 11  1  0
 11 12  1  0
 12 13  1  0
 12 14  1  0
 14 15  1  0
 15 16  1  0
 16 17  1  0
 17 18  1  0
  9 19  2  0
 19 20  1  0
  6 21  1  0
 21 22  2  0
 22  3  1  0
 20  7  1  0
 17 11  1  0
  1 23  1  0
  1 24  1  0
  1 25  1  0
  4 26  1  0
  5 27  1  0
 10 28  1  0
 10 29  1  0
 12 30  1  1
 13 31  1  0
 13 32  1  0
 13 33  1  0
 14 34  1  0
 14 35  1  0
 15 36  1  0
 15 37  1  0
 16 38  1  0
 16 39  1  0
 17 40  1  6
 18 41  1  0
 18 42  1  0
 18 43  1  0
 19 44  1  0
 21 45  1  0
 22 46  1  0
M  END
>  <UniqueID>  (5) 
5

>  <SMILES>  (5) 
COc1ccc(-c2nc(CN3[C@@H](C)CCC[C@@H]3C)co2)cc1

>  <Energy>  (5) 
87.05941375914533

>  <Genealogy>  (5) 
COc1ccc(-c2nc(CN3[C@@H](C)CCC[C@@H]3C)co2)cc1 (chirality)
COc1ccc(-c2nc(CN3[C@@H](C)CCC[C@@H]3C)co2)cc1 (3D coordinates assigned)
COc1ccc(-c2nc(CN3[C@@H](C)CCC[C@@H]3C)co2)cc1 (nonaromatic ring conformer: 87.05941375914533 kcal/mol)

>  <smiles>  (5) 
COc1ccc(-c2nc(CN3C(C)CCCC3C)co2)cc1

>  <score_type>  (5) 
oracle

>  <origin>  (5) 
adg

>  <m_score__min__energy>  (5) 
-7.2699999999999996

>  <m_primary>  (5) 
energy

$$$$
5:0
     RDKit          3D

 37 40  0  0  0  0  0  0  0  0999 V2000
   58.5340   32.2990   49.2960 C   0  0  0  0  0  0  0  0  0  0  0  0
   59.1090   31.5750   48.0700 C   0  0  0  0  0  0  0  0  0  0  0  0
   59.9180   32.4660   47.3030 N   0  0  0  0  0  0  0  0  0  0  0  0
   59.5040   33.3550   46.3830 C   0  0  0  0  0  0  0  0  0  0  0  0
   58.1370   33.6500   45.8880 C   0  0  0  0  0  0  0  0  0  0  0  0
   57.7980   32.7160   44.8450 N   0  0  0  0  0  0  0  0  0  0  0  0
   57.7480   33.0880   43.5350 C   0  0  0  0  0  0  0  0  0  0  0  0
   57.4120   32.0260   42.7780 N   0  0  0  0  0  0  0  0  0  0  0  0
   57.2420   30.9610   43.5890 C   0  0  0  0  0  0  0  0  0  0  0  0
   56.9060   29.6460   43.4160 C   0  0  0  0  0  0  0  0  0  0  0  0
   56.6720   29.1880   42.2470 N   0  0  0  0  0  0  0  0  0  0  0  0
   56.8050   28.7800   44.4490 N   0  0  0  0  0  0  0  0  0  0  0  0
   57.0520   29.2670   45.6720 C   0  0  0  0  0  0  0  0  0  0  0  0
   57.3830   30.5440   45.8730 N   0  0  0  0  0  0  0  0  0  0  0  0
   57.4880   31.4200   44.8700 C   0  0  0  0  0  0  0  0  0  0  0  0
   60.5950   33.9940   45.9160 N   0  0  0  0  0  0  0  0  0  0  0  0
   61.6680   33.5050   46.5400 C   0  0  0  0  0  0  0  0  0  0  0  0
   63.0030   33.8450   46.3980 C   0  0  0  0  0  0  0  0  0  0  0  0
   63.9240   33.1630   47.1880 C   0  0  0  0  0  0  0  0  0  0  0  0
   63.5250   32.1800   48.0870 C   0  0  0  0  0  0  0  0  0  0  0  0
   62.1970   31.8620   48.2080 C   0  0  0  0  0  0  0  0  0  0  0  0
   61.2750   32.5310   47.4310 C   0  0  0  0  0  0  0  0  0  0  0  0
   58.9117   31.8235   50.2132 H   0  0  0  0  0  0  0  0  0  0  0  0
   58.8425   33.3547   49.2765 H   0  0  0  0  0  0  0  0  0  0  0  0
   57.4359   32.2375   49.2765 H   0  0  0  0  0  0  0  0  0  0  0  0
   59.7221   30.7253   48.4048 H   0  0  0  0  0  0  0  0  0  0  0  0
   58.2786   31.2168   47.4438 H   0  0  0  0  0  0  0  0  0  0  0  0
   57.4179   33.5547   46.7150 H   0  0  0  0  0  0  0  0  0  0  0  0
   58.1014   34.6753   45.4912 H   0  0  0  0  0  0  0  0  0  0  0  0
   57.9509   34.0999   43.1544 H   0  0  0  0  0  0  0  0  0  0  0  0
   55.7510   29.0450   41.8150 H   0  0  0  0  0  0  0  0  0  0  0  0
   56.5490   27.7750   44.3190 H   0  0  0  0  0  0  0  0  0  0  0  0
   56.9797   28.5929   46.5382 H   0  0  0  0  0  0  0  0  0  0  0  0
   63.3228   34.6230   45.6892 H   0  0  0  0  0  0  0  0  0  0  0  0
   64.9928   33.4074   47.0991 H   0  0  0  0  0  0  0  0  0  0  0  0
   64.2742   31.6581   48.7004 H   0  0  0  0  0  0  0  0  0  0  0  0
   61.8716   31.0844   48.9147 H   0  0  0  0  0  0  0  0  0  0  0  0
  1  2  1  0
  2  3  1  0
  3  4  1  0
  4  5  1  0
  5  6  1  0
  6  7  1  0
  7  8  2  0
  8  9  1  0
  9 10  1  0
 10 11  2  3
 10 12  1  0
 12 13  1  0
 13 14  2  0
 14 15  1  0
  4 16  2  0
 16 17  1  0
 17 18  2  0
 18 19  1  0
 19 20  2  0
 20 21  1  0
 21 22  2  0
 22  3  1  0
 15  6  1  0
 22 17  1  0
 15  9  2  0
  1 23  1  0
  1 24  1  0
  1 25  1  0
  2 26  1  0
  2 27  1  0
  5 28  1  0
  5 29  1  0
  7 30  1  0
 11 31  1  0
 12 32  1  0
 13 33  1  0
 18 34  1  0
 19 35  1  0
 20 36  1  0
 21 37  1  0
M  END
>  <smiles>  (6) 
CCn1c(Cn2cnc3c(=N)[nH]cnc32)nc2ccccc21

>  <score_type>  (6) 
oracle

>  <origin>  (6) 
adg

>  <m_score__min__energy>  (6) 
-7.1100000000000003

>  <m_primary>  (6) 
energy

$$$$
6:0
     RDKit          3D

 36 39  0  0  0  0  0  0  0  0999 V2000
   60.4650   28.9940   47.8820 C   0  0  0  0  0  0  0  0  0  0  0  0
   59.6560   29.9540   47.0360 C   0  0  0  0  0  0  0  0  0  0  0  0
   59.8430   31.3570   47.1140 C   0  0  0  0  0  0  0  0  0  0  0  0
   60.9180   31.8450   48.0080 C   0  0  0  0  0  0  0  0  0  0  0  0
   62.1970   32.0870   47.4860 C   0  0  0  0  0  0  0  0  0  0  0  0
   63.1970   32.5860   48.3200 C   0  0  0  0  0  0  0  0  0  0  0  0
   62.9310   32.8480   49.6280 N   0  0  0  0  0  0  0  0  0  0  0  0
   61.6950   32.6390   50.1570 C   0  0  0  0  0  0  0  0  0  0  0  0
   60.6600   32.1400   49.3600 C   0  0  0  0  0  0  0  0  0  0  0  0
   59.0690   31.8930   50.0700 Cl  0  0  0  0  0  0  0  0  0  0  0  0
   59.0550   32.2370   46.2930 C   0  0  0  0  0  0  0  0  0  0  0  0
   59.1570   33.6660   46.3320 C   0  0  0  0  0  0  0  0  0  0  0  0
   60.1060   34.6010   47.4880 Cl  0  0  0  0  0  0  0  0  0  0  0  0
   58.4240   34.4460   45.4340 C   0  0  0  0  0  0  0  0  0  0  0  0
   57.5880   33.8610   44.5000 C   0  0  0  0  0  0  0  0  0  0  0  0
   57.4300   32.4830   44.4680 C   0  0  0  0  0  0  0  0  0  0  0  0
   58.1170   31.6500   45.3740 C   0  0  0  0  0  0  0  0  0  0  0  0
   57.9440   30.2860   45.3920 N   0  0  0  0  0  0  0  0  0  0  0  0
   57.1040   29.4130   44.7660 C   0  0  0  0  0  0  0  0  0  0  0  0
   55.9790   29.7230   43.8260 C   0  0  0  0  0  0  0  0  0  0  0  0
   54.7730   29.3430   44.3860 F   0  0  0  0  0  0  0  0  0  0  0  0
   57.3540   28.1430   45.1450 N   0  0  0  0  0  0  0  0  0  0  0  0
   58.3400   28.1780   46.0260 N   0  0  0  0  0  0  0  0  0  0  0  0
   58.6760   29.4730   46.1730 C   0  0  0  0  0  0  0  0  0  0  0  0
   60.2875   29.2047   48.9469 H   0  0  0  0  0  0  0  0  0  0  0  0
   60.1609   27.9611   47.6569 H   0  0  0  0  0  0  0  0  0  0  0  0
   61.5345   29.1187   47.6569 H   0  0  0  0  0  0  0  0  0  0  0  0
   62.4099   31.8846   46.4260 H   0  0  0  0  0  0  0  0  0  0  0  0
   64.2048   32.7684   47.9186 H   0  0  0  0  0  0  0  0  0  0  0  0
   63.6910   33.2210   50.2390 H   0  0  0  0  0  0  0  0  0  0  0  0
   61.5089   32.8638   51.2176 H   0  0  0  0  0  0  0  0  0  0  0  0
   58.5130   35.5418   45.4703 H   0  0  0  0  0  0  0  0  0  0  0  0
   57.0461   34.4912   43.7794 H   0  0  0  0  0  0  0  0  0  0  0  0
   56.7573   32.0330   43.7231 H   0  0  0  0  0  0  0  0  0  0  0  0
   55.9615   30.8041   43.6236 H   0  0  0  0  0  0  0  0  0  0  0  0
   56.1307   29.1688   42.8880 H   0  0  0  0  0  0  0  0  0  0  0  0
  1  2  1  0
  2  3  2  0
  3  4  1  0
  4  5  2  0
  5  6  1  0
  6  7  2  0
  7  8  1  0
  8  9  2  0
  9 10  1  0
  3 11  1  0
 11 12  2  0
 12 13  1  0
 12 14  1  0
 14 15  2  0
 15 16  1  0
 16 17  2  0
 17 18  1  0
 18 19  1  0
 19 20  1  0
 20 21  1  0
 19 22  2  0
 22 23  1  0
 23 24  2  0
 24  2  1  0
  9  4  1  0
 17 11  1  0
 24 18  1  0
  1 25  1  0
  1 26  1  0
  1 27  1  0
  5 28  1  0
  6 29  1  0
  7 30  1  0
  8 31  1  0
 14 32  1  0
 15 33  1  0
 16 34  1  0
 20 35  1  0
 20 36  1  0
M  CHG  1   7   1
M  END
>  <UniqueID>  (7) 
6

>  <SMILES>  (7) 
Cc1c(-c2cc[nH+]cc2Cl)c2c(Cl)cccc2n2c(CF)nnc12

>  <Energy>  (7) 
108.1200457597152

>  <Genealogy>  (7) 
Cc1c(-c2cc[nH+]cc2Cl)c2c(Cl)cccc2n2c(CF)nnc12 (protonated)
Cc1c(-c2cc[nH+]cc2Cl)c2c(Cl)cccc2n2c(CF)nnc12 (3D coordinates assigned)
Cc1c(-c2cc[nH+]cc2Cl)c2c(Cl)cccc2n2c(CF)nnc12 (optimized conformer: 108.1200457597152 kcal/mol)

>  <smiles>  (7) 
Cc1c(-c2ccncc2Cl)c2c(Cl)cccc2n2c(CF)nnc12

>  <score_type>  (7) 
oracle

>  <origin>  (7) 
adg

>  <m_score__min__energy>  (7) 
-6.8600000000000003

>  <m_primary>  (7) 
energy

$$$$
7:0
     RDKit          3D

 34 36  0  0  0  0  0  0  0  0999 V2000
   56.3270   29.3800   42.6820 C   0  0  0  0  0  0  0  0  0  0  0  0
   57.0720   30.4940   43.3540 C   0  0  0  0  0  0  0  0  0  0  0  0
   57.3830   30.4140   44.7190 C   0  0  0  0  0  0  0  0  0  0  0  0
   58.0460   31.4670   45.3540 C   0  0  0  0  0  0  0  0  0  0  0  0
   58.3860   32.6300   44.6420 C   0  0  0  0  0  0  0  0  0  0  0  0
   59.1390   33.7360   45.3470 C   0  0  0  0  0  0  0  0  0  0  0  0
   59.5650   33.3400   46.7000 N   0  0  0  0  0  0  0  0  0  0  0  0
   58.5630   33.1500   47.7270 C   0  0  0  0  0  0  0  0  0  0  0  0
   57.3590   33.4500   47.5060 O   0  0  0  0  0  0  0  0  0  0  0  0
   58.9460   32.6150   49.0730 C   0  0  0  0  0  0  0  0  0  0  0  0
   60.0560   31.1990   48.8340 S   0  0  0  0  0  0  0  0  0  0  0  0
   61.3130   32.2030   48.0370 C   0  0  0  0  0  0  0  0  0  0  0  0
   62.6460   32.0750   48.4410 C   0  0  0  0  0  0  0  0  0  0  0  0
   63.6460   32.8140   47.8060 C   0  0  0  0  0  0  0  0  0  0  0  0
   63.3160   33.6910   46.7740 C   0  0  0  0  0  0  0  0  0  0  0  0
   61.9830   33.8450   46.3810 C   0  0  0  0  0  0  0  0  0  0  0  0
   60.9610   33.1050   47.0110 C   0  0  0  0  0  0  0  0  0  0  0  0
   58.0740   32.7060   43.2730 C   0  0  0  0  0  0  0  0  0  0  0  0
   57.4100   31.6520   42.6390 C   0  0  0  0  0  0  0  0  0  0  0  0
   55.8864   28.7211   43.4447 H   0  0  0  0  0  0  0  0  0  0  0  0
   55.5274   29.8000   42.0541 H   0  0  0  0  0  0  0  0  0  0  0  0
   57.0206   28.8015   42.0541 H   0  0  0  0  0  0  0  0  0  0  0  0
   57.1036   29.5179   45.2925 H   0  0  0  0  0  0  0  0  0  0  0  0
   58.3041   31.3852   46.4202 H   0  0  0  0  0  0  0  0  0  0  0  0
   60.0302   33.9918   44.7551 H   0  0  0  0  0  0  0  0  0  0  0  0
   58.4631   34.5985   45.4432 H   0  0  0  0  0  0  0  0  0  0  0  0
   59.4608   33.3969   49.6505 H   0  0  0  0  0  0  0  0  0  0  0  0
   58.0472   32.3011   49.6240 H   0  0  0  0  0  0  0  0  0  0  0  0
   62.9072   31.3902   49.2613 H   0  0  0  0  0  0  0  0  0  0  0  0
   64.6944   32.7041   48.1201 H   0  0  0  0  0  0  0  0  0  0  0  0
   64.1067   34.2637   46.2672 H   0  0  0  0  0  0  0  0  0  0  0  0
   61.7295   34.5486   45.5744 H   0  0  0  0  0  0  0  0  0  0  0  0
   58.3542   33.6005   42.6974 H   0  0  0  0  0  0  0  0  0  0  0  0
   57.1511   31.7314   41.5729 H   0  0  0  0  0  0  0  0  0  0  0  0
  1  2  1  0
  2  3  2  0
  3  4  1  0
  4  5  2  0
  5  6  1  0
  6  7  1  0
  7  8  1  0
  8  9  2  0
  8 10  1  0
 10 11  1  0
 11 12  1  0
 12 13  2  0
 13 14  1  0
 14 15  2  0
 15 16  1  0
 16 17  2  0
  5 18  1  0
 18 19  2  0
 19  2  1  0
 17  7  1  0
 17 12  1  0
  1 20  1  0
  1 21  1  0
  1 22  1  0
  3 23  1  0
  4 24  1  0
  6 25  1  0
  6 26  1  0
 10 27  1  0
 10 28  1  0
 13 29  1  0
 14 30  1  0
 15 31  1  0
 16 32  1  0
 18 33  1  0
 19 34  1  0
M  END
>  <UniqueID>  (8) 
7

>  <SMILES>  (8) 
Cc1ccc(CN2C(=O)CSc3ccccc32)cc1

>  <Energy>  (8) 
42.381865839124096

>  <Genealogy>  (8) 
Cc1ccc(CN2C(=O)CSc3ccccc32)cc1 (3D coordinates assigned)
Cc1ccc(CN2C(=O)CSc3ccccc32)cc1 (nonaromatic ring conformer: 42.381865839124096 kcal/mol)

>  <smiles>  (8) 
Cc1ccc(CN2C(=O)CSc3ccccc32)cc1

>  <score_type>  (8) 
oracle

>  <origin>  (8) 
adg

>  <m_score__min__energy>  (8) 
-7.1900000000000004

>  <m_primary>  (8) 
energy

$$$$
8:0
     RDKit          3D

 83 85  0  0  0  0  0  0  0  0999 V2000
   57.3980   34.1650   44.8810 C   0  0  0  0  0  0  0  0  0  0  0  0
   57.3410   33.4850   46.2410 C   0  0  0  0  0  0  0  0  0  0  0  0
   58.7020   33.4360   46.8230 N   0  0  0  0  0  0  0  0  0  0  0  0
   59.5850   34.5220   46.3520 C   0  0  0  0  0  0  0  0  0  0  0  0
   61.0040   34.0020   46.1310 C   0  0  0  0  0  0  0  0  0  0  0  0
   58.6880   33.3010   48.2980 C   0  0  0  0  0  0  0  0  0  0  0  0
   59.6670   34.2590   49.0180 C   0  0  0  0  0  0  0  0  0  0  0  0
   59.9490   33.8270   50.4640 C   0  0  0  0  0  0  0  0  0  0  0  0
   59.9550   32.3620   50.5950 N   0  0  0  0  0  0  0  0  0  0  0  0
   61.3310   31.8850   50.7880 C   0  0  0  0  0  0  0  0  0  0  0  0
   62.1110   32.0220   49.5050 C   0  0  0  0  0  0  0  0  0  0  0  0
   63.2030   32.9010   49.4540 C   0  0  0  0  0  0  0  0  0  0  0  0
   63.9580   33.0160   48.2870 C   0  0  0  0  0  0  0  0  0  0  0  0
   63.6220   32.2430   47.1770 C   0  0  0  0  0  0  0  0  0  0  0  0
   62.5690   31.3850   47.2340 N   0  0  0  0  0  0  0  0  0  0  0  0
   61.8110   31.2540   48.3580 C   0  0  0  0  0  0  0  0  0  0  0  0
   60.7070   30.3390   48.3530 N   0  0  0  0  0  0  0  0  0  0  0  0
   59.6340   30.5240   47.3710 C   0  0  0  0  0  0  0  0  0  0  0  0
   58.5820   29.4170   47.4990 C   0  0  0  0  0  0  0  0  0  0  0  0
   59.2480   28.1010   47.5150 N   0  0  0  0  0  0  0  0  0  0  0  0
   58.8240   26.9710   46.7070 C   0  0  0  0  0  0  0  0  0  0  0  0
   59.5380   25.9260   46.6980 O   0  0  0  0  0  0  0  0  0  0  0  0
   57.5850   26.9630   45.8360 C   0  0  2  0  0  0  0  0  0  0  0  0
   57.4110   25.6280   45.0850 C   0  0  0  0  0  0  0  0  0  0  0  0
   56.3700   24.7530   45.7380 C   0  0  0  0  0  0  0  0  0  0  0  0
   55.2200   24.3710   45.0250 C   0  0  0  0  0  0  0  0  0  0  0  0
   54.2670   23.5370   45.6210 C   0  0  0  0  0  0  0  0  0  0  0  0
   54.4600   23.0730   46.9260 C   0  0  0  0  0  0  0  0  0  0  0  0
   53.2650   22.0280   47.6720 Cl  0  0  0  0  0  0  0  0  0  0  0  0
   55.6080   23.4410   47.6360 C   0  0  0  0  0  0  0  0  0  0  0  0
   56.5620   24.2760   47.0450 C   0  0  0  0  0  0  0  0  0  0  0  0
   57.6120   28.0830   44.8950 N   0  0  0  0  0  0  0  0  0  0  0  0
   56.6850   29.1760   44.8150 C   0  0  0  0  0  0  0  0  0  0  0  0
   55.5070   28.9930   45.2160 O   0  0  0  0  0  0  0  0  0  0  0  0
   57.0590   30.5250   44.2680 C   0  0  0  0  0  0  0  0  0  0  0  0
   56.8180   30.5890   42.7550 C   0  0  0  0  0  0  0  0  0  0  0  0
   56.3070   29.3150   42.2450 N   0  0  0  0  0  0  0  0  0  0  0  0
   60.4000   27.9040   48.4180 C   0  0  0  0  0  0  0  0  0  0  0  0
   60.7280   29.1660   49.2300 C   0  0  0  0  0  0  0  0  0  0  0  0
   57.4892   35.2526   45.0184 H   0  0  0  0  0  0  0  0  0  0  0  0
   58.2680   33.7920   44.3207 H   0  0  0  0  0  0  0  0  0  0  0  0
   56.4780   33.9420   44.3207 H   0  0  0  0  0  0  0  0  0  0  0  0
   56.6766   34.0537   46.9083 H   0  0  0  0  0  0  0  0  0  0  0  0
   56.9537   32.4620   46.1248 H   0  0  0  0  0  0  0  0  0  0  0  0
   59.1941   34.9206   45.4042 H   0  0  0  0  0  0  0  0  0  0  0  0
   59.6118   35.3139   47.1150 H   0  0  0  0  0  0  0  0  0  0  0  0
   61.4856   33.8255   47.1041 H   0  0  0  0  0  0  0  0  0  0  0  0
   60.9652   33.0597   45.5649 H   0  0  0  0  0  0  0  0  0  0  0  0
   61.5832   34.7463   45.5649 H   0  0  0  0  0  0  0  0  0  0  0  0
   57.6695   33.5109   48.6566 H   0  0  0  0  0  0  0  0  0  0  0  0
   59.0110   32.2756   48.5308 H   0  0  0  0  0  0  0  0  0  0  0  0
   60.6165   34.2770   48.4629 H   0  0  0  0  0  0  0  0  0  0  0  0
   59.2005   35.2547   49.0497 H   0  0  0  0  0  0  0  0  0  0  0  0
   60.9310   34.2176   50.7692 H   0  0  0  0  0  0  0  0  0  0  0  0
   59.1521   34.2288   51.1070 H   0  0  0  0  0  0  0  0  0  0  0  0
   59.4160   32.1080   51.4570 H   0  0  0  0  0  0  0  0  0  0  0  0
   61.8162   32.4819   51.5744 H   0  0  0  0  0  0  0  0  0  0  0  0
   61.3070   30.8258   51.0837 H   0  0  0  0  0  0  0  0  0  0  0  0
   63.4648   33.5017   50.3375 H   0  0  0  0  0  0  0  0  0  0  0  0
   64.8103   33.7100   48.2431 H   0  0  0  0  0  0  0  0  0  0  0  0
   64.2108   32.3274   46.2517 H   0  0  0  0  0  0  0  0  0  0  0  0
   62.3370   30.8150   46.3890 H   0  0  0  0  0  0  0  0  0  0  0  0
   59.1539   31.4990   47.5408 H   0  0  0  0  0  0  0  0  0  0  0  0
   60.0690   30.4819   46.3615 H   0  0  0  0  0  0  0  0  0  0  0  0
   58.0187   29.5536   48.4339 H   0  0  0  0  0  0  0  0  0  0  0  0
   57.8928   29.4673   46.6432 H   0  0  0  0  0  0  0  0  0  0  0  0
   56.7170   27.0772   46.5020 H   0  0  0  0  0  0  0  0  0  0  0  0
   57.1020   25.8384   44.0505 H   0  0  0  0  0  0  0  0  0  0  0  0
   58.3721   25.0935   45.1079 H   0  0  0  0  0  0  0  0  0  0  0  0
   55.0688   24.7286   43.9958 H   0  0  0  0  0  0  0  0  0  0  0  0
   53.3652   23.2462   45.0623 H   0  0  0  0  0  0  0  0  0  0  0  0
   55.7607   23.0729   48.6613 H   0  0  0  0  0  0  0  0  0  0  0  0
   57.4650   24.5598   47.6054 H   0  0  0  0  0  0  0  0  0  0  0  0
   56.4494   31.2956   44.7625 H   0  0  0  0  0  0  0  0  0  0  0  0
   58.1281   30.6979   44.4608 H   0  0  0  0  0  0  0  0  0  0  0  0
   56.0847   31.3807   42.5418 H   0  0  0  0  0  0  0  0  0  0  0  0
   57.7761   30.8033   42.2588 H   0  0  0  0  0  0  0  0  0  0  0  0
   55.2600   29.3450   42.2410 H   0  0  0  0  0  0  0  0  0  0  0  0
   56.6030   28.5520   42.8950 H   0  0  0  0  0  0  0  0  0  0  0  0
   60.1669   27.0857   49.1151 H   0  0  0  0  0  0  0  0  0  0  0  0
   61.2766   27.6663   47.7975 H   0  0  0  0  0  0  0  0  0  0  0  0
   59.9803   29.2922   50.0268 H   0  0  0  0  0  0  0  0  0  0  0  0
   61.7289   29.0623   49.6744 H   0  0  0  0  0  0  0  0  0  0  0  0
  1  2  1  0
  2  3  1  0
  3  4  1  0
  4  5  1  0
  3  6  1  0
  6  7  1  0
  7  8  1  0
  8  9  1  0
  9 10  1  0
 10 11  1  0
 11 12  2  0
 12 13  1  0
 13 14  2  0
 14 15  1  0
 15 16  2  0
 16 17  1  0
 17 18  1  0
 18 19  1  0
 19 20  1  0
 20 21  1  0
 21 22  2  0
 21 23  1  0
 23 24  1  0
 24 25  1  0
 25 26  2  0
 26 27  1  0
 27 28  2  0
 28 29  1  0
 28 30  1  0
 30 31  2  0
 23 32  1  0
 32 33  1  0
 33 34  2  0
 33 35  1  0
 35 36  1  0
 36 37  1  0
 20 38  1  0
 38 39  1  0
 16 11  1  0
 39 17  1  0
 31 25  1  0
  1 40  1  0
  1 41  1  0
  1 42  1  0
  2 43  1  0
  2 44  1  0
  4 45  1  0
  4 46  1  0
  5 47  1  0
  5 48  1  0
  5 49  1  0
  6 50  1  0
  6 51  1  0
  7 52  1  0
  7 53  1  0
  8 54  1  0
  8 55  1  0
  9 56  1  0
 10 57  1  0
 10 58  1  0
 12 59  1  0
 13 60  1  0
 14 61  1  0
 15 62  1  0
 18 63  1  0
 18 64  1  0
 19 65  1  0
 19 66  1  0
 23 67  1  1
 24 68  1  0
 24 69  1  0
 26 70  1  0
 27 71  1  0
 30 72  1  0
 31 73  1  0
 35 74  1  0
 35 75  1  0
 36 76  1  0
 36 77  1  0
 37 78  1  0
 37 79  1  0
 38 80  1  0
 38 81  1  0
 39 82  1  0
 39 83  1  0
M  CHG  2  15   1  32  -1
M  END
>  <UniqueID>  (9) 
8

>  <SMILES>  (9) 
CCN(CC)CCCNCc1ccc[nH+]c1N1CCN(C(=O)[C@H](Cc2ccc(Cl)cc2)[N-]C(=O)CCN)CC1

>  <Energy>  (9) 
83.2853184834931

>  <Genealogy>  (9) 
CCN(CC)CCCNCc1ccc[nH+]c1N1CCN(C(=O)C(Cc2ccc(Cl)cc2)[N-]C(=O)CCN)CC1 (protonated)
CCN(CC)CCCNCc1ccc[nH+]c1N1CCN(C(=O)[C@H](Cc2ccc(Cl)cc2)[N-]C(=O)CCN)CC1 (chirality)
CCN(CC)CCCNCc1ccc[nH+]c1N1CCN(C(=O)[C@H](Cc2ccc(Cl)cc2)[N-]C(=O)CCN)CC1 (3D coordinates assigned)
CCN(CC)CCCNCc1ccc[nH+]c1N1CCN(C(=O)[C@H](Cc2ccc(Cl)cc2)[N-]C(=O)CCN)CC1 (nonaromatic ring conformer: 83.2853184834931 kcal/mol)

>  <smiles>  (9) 
CCN(CC)CCCNCc1cccnc1N1CCN(C(=O)C(Cc2ccc(Cl)cc2)NC(=O)CCN)CC1

>  <score_type>  (9) 
oracle

>  <origin>  (9) 
adg

>  <m_score__min__energy>  (9) 
-9.0399999999999991

>  <m_primary>  (9) 
energy

$$$$
9:0
     RDKit          3D

 47 50  0  0  0  0  0  0  0  0999 V2000
   57.6650   33.0872   42.2583 H   0  0  0  0  0  0  0  0  0  0  0  0
   57.3920   32.2140   42.8690 C   0  0  0  0  0  0  0  0  0  0  0  0
   57.4100   32.2970   44.2670 C   0  0  0  0  0  0  0  0  0  0  0  0
   57.7200   33.5440   44.9110 N   0  0  0  0  0  0  0  0  0  0  0  0
   57.2410   34.4080   44.5700 H   0  0  0  0  0  0  0  0  0  0  0  0
   58.5110   33.6400   46.1040 C   0  0  0  0  0  0  0  0  0  0  0  0
   59.6670   34.4400   46.1460 C   0  0  0  0  0  0  0  0  0  0  0  0
   59.9881   34.9867   45.2471 H   0  0  0  0  0  0  0  0  0  0  0  0
   60.4100   34.5430   47.3270 C   0  0  0  0  0  0  0  0  0  0  0  0
   61.3139   35.1693   47.3545 H   0  0  0  0  0  0  0  0  0  0  0  0
   60.0050   33.8510   48.4720 C   0  0  0  0  0  0  0  0  0  0  0  0
   60.5962   33.9243   49.3968 H   0  0  0  0  0  0  0  0  0  0  0  0
   58.8490   33.0660   48.4420 C   0  0  0  0  0  0  0  0  0  0  0  0
   58.5288   32.5242   49.3442 H   0  0  0  0  0  0  0  0  0  0  0  0
   58.0990   32.9690   47.2650 C   0  0  0  0  0  0  0  0  0  0  0  0
   57.1810   32.3631   47.2499 H   0  0  0  0  0  0  0  0  0  0  0  0
   57.0580   31.2080   45.0050 N   0  0  0  0  0  0  0  0  0  0  0  0
   56.6850   30.0280   44.4330 C   0  0  0  0  0  0  0  0  0  0  0  0
   56.3170   29.0170   45.1640 N   0  0  0  0  0  0  0  0  0  0  0  0
   57.2260   28.0810   45.8310 C   0  0  0  0  0  0  0  0  0  0  0  0
   57.5671   27.3331   45.1000 H   0  0  0  0  0  0  0  0  0  0  0  0
   56.6803   27.6033   46.6580 H   0  0  0  0  0  0  0  0  0  0  0  0
   58.4300   28.7870   46.4070 C   0  0  0  0  0  0  0  0  0  0  0  0
   58.5140   29.0500   47.7830 C   0  0  0  0  0  0  0  0  0  0  0  0
   57.7182   28.7001   48.4570 H   0  0  0  0  0  0  0  0  0  0  0  0
   59.6050   29.7550   48.3010 C   0  0  0  0  0  0  0  0  0  0  0  0
   59.6573   29.9633   49.3798 H   0  0  0  0  0  0  0  0  0  0  0  0
   60.6360   30.2000   47.4540 C   0  0  0  0  0  0  0  0  0  0  0  0
   61.7790   30.9750   47.9970 C   0  0  0  0  0  0  0  0  0  0  0  0
   61.9090   31.1990   49.3770 C   0  0  0  0  0  0  0  0  0  0  0  0
   61.1564   30.7970   50.0712 H   0  0  0  0  0  0  0  0  0  0  0  0
   62.9900   31.9300   49.8700 C   0  0  0  0  0  0  0  0  0  0  0  0
   63.0949   32.1037   50.9511 H   0  0  0  0  0  0  0  0  0  0  0  0
   63.9370   32.4390   48.9810 C   0  0  0  0  0  0  0  0  0  0  0  0
   64.9910   33.1510   49.4490 F   0  0  0  0  0  0  0  0  0  0  0  0
   63.8040   32.2200   47.6440 N   0  0  0  0  0  0  0  0  0  0  0  0
   64.5180   32.6100   46.9880 H   0  0  0  0  0  0  0  0  0  0  0  0
   62.7590   31.5090   47.1400 C   0  0  0  0  0  0  0  0  0  0  0  0
   62.6797   31.3505   46.0544 H   0  0  0  0  0  0  0  0  0  0  0  0
   60.5630   29.9030   46.0820 C   0  0  0  0  0  0  0  0  0  0  0  0
   61.3695   30.2302   45.4094 H   0  0  0  0  0  0  0  0  0  0  0  0
   59.4750   29.1960   45.5660 C   0  0  0  0  0  0  0  0  0  0  0  0
   59.4374   28.9583   44.4927 H   0  0  0  0  0  0  0  0  0  0  0  0
   56.6640   29.9150   43.0390 C   0  0  0  0  0  0  0  0  0  0  0  0
   56.3661   28.9691   42.5630 H   0  0  0  0  0  0  0  0  0  0  0  0
   57.0250   31.0150   42.2570 C   0  0  0  0  0  0  0  0  0  0  0  0
   57.0199   30.9359   41.1599 H   0  0  0  0  0  0  0  0  0  0  0  0
  1  2  1  0
  2  3  2  0
  3  4  1  0
  4  5  1  0
  4  6  1  0
  6  7  2  0
  7  8  1  0
  7  9  1  0
  9 10  1  0
  9 11  2  0
 11 12  1  0
 11 13  1  0
 13 14  1  0
 13 15  2  0
 15 16  1  0
  3 17  1  0
 17 18  1  0
 18 19  2  0
 19 20  1  0
 20 21  1  0
 20 22  1  0
 20 23  1  0
 23 24  2  0
 24 25  1  0
 24 26  1  0
 26 27  1  0
 26 28  2  0
 28 29  1  0
 29 30  2  0
 30 31  1  0
 30 32  1  0
 32 33  1  0
 32 34  2  0
 34 35  1  0
 34 36  1  0
 36 37  1  0
 36 38  2  0
 38 39  1  0
 28 40  1  0
 40 41  1  0
 40 42  2  0
 42 43  1  0
 18 44  1  0
 44 45  1  0
 44 46  2  0
 46 47  1  0
 46  2  1  0
 15  6  1  0
 42 23  1  0
 38 29  1  0
M  CHG  2  17  -1  36   1
M  END
>  <UniqueID>  (10) 
9

>  <SMILES>  (10) 
Fc1ccc(-c2ccc(C/N=c3/cccc(Nc4ccccc4)[n-]3)cc2)c[nH+]1

>  <Energy>  (10) 
57.186288791241864

>  <Genealogy>  (10) 
Fc1ccc(-c2ccc(CN=c3cccc(Nc4ccccc4)[n-]3)cc2)c[nH+]1 (protonated)
Fc1ccc(-c2ccc(C/N=c3/cccc(Nc4ccccc4)[n-]3)cc2)c[nH+]1 (cis-trans isomerization)
Fc1ccc(-c2ccc(C/N=c3/cccc(Nc4ccccc4)[n-]3)cc2)c[nH+]1 (3D coordinates assigned)
Fc1ccc(-c2ccc(C/N=c3/cccc(Nc4ccccc4)[n-]3)cc2)c[nH+]1 (optimized conformer: 57.186288791241864 kcal/mol)

>  <smiles>  (10) 
Fc1ccc(-c2ccc(CN=c3cccc(Nc4ccccc4)[nH]3)cc2)cn1

>  <score_type>  (10) 
oracle

>  <origin>  (10) 
adg

>  <m_score__min__energy>  (10) 
-10.109999999999999

>  <m_primary>  (10) 
energy

$$$$
10:0
     RDKit          3D

 44 46  0  0  0  0  0  0  0  0999 V2000
   57.7790   28.0730   44.9710 C   0  0  0  0  0  0  0  0  0  0  0  0
   58.2530   26.9550   45.9130 C   0  0  2  0  0  0  0  0  0  0  0  0
   57.1010   26.4620   46.8100 C   0  0  0  0  0  0  0  0  0  0  0  0
   55.5210   26.6230   45.9970 S   0  0  0  0  0  0  0  0  0  0  0  0
   59.4760   27.3610   46.7120 C   0  0  0  0  0  0  0  0  0  0  0  0
   60.4130   26.5270   46.8440 O   0  0  0  0  0  0  0  0  0  0  0  0
   59.6450   28.6840   47.2460 N   0  0  0  0  0  0  0  0  0  0  0  0
   58.8260   29.2130   48.3180 C   0  0  0  0  0  0  0  0  0  0  0  0
   59.4150   30.5950   48.6140 C   0  0  0  0  0  0  0  0  0  0  0  0
   60.0490   31.0940   47.2810 C   0  0  0  0  0  0  0  0  0  0  0  0
   59.0100   31.9310   46.5160 C   0  0  0  0  0  0  0  0  0  0  0  0
   58.5560   31.5870   45.2210 C   0  0  0  0  0  0  0  0  0  0  0  0
   57.5870   32.3620   44.5750 C   0  0  0  0  0  0  0  0  0  0  0  0
   57.0420   33.4780   45.2090 C   0  0  0  0  0  0  0  0  0  0  0  0
   57.4580   33.8200   46.4960 C   0  0  0  0  0  0  0  0  0  0  0  0
   58.4260   33.0500   47.1480 C   0  0  0  0  0  0  0  0  0  0  0  0
   61.3450   31.9100   47.4570 C   0  0  0  0  0  0  0  0  0  0  0  0
   62.4000   31.3870   48.2410 C   0  0  0  0  0  0  0  0  0  0  0  0
   63.6040   32.0800   48.3820 C   0  0  0  0  0  0  0  0  0  0  0  0
   63.8000   33.2880   47.7140 C   0  0  0  0  0  0  0  0  0  0  0  0
   62.8010   33.7910   46.8820 C   0  0  0  0  0  0  0  0  0  0  0  0
   61.5930   33.1030   46.7360 C   0  0  0  0  0  0  0  0  0  0  0  0
   60.3200   29.7650   46.6190 C   0  0  0  0  0  0  0  0  0  0  0  0
   60.9670   29.6290   45.5470 O   0  0  0  0  0  0  0  0  0  0  0  0
   57.4178   28.9250   45.5657 H   0  0  0  0  0  0  0  0  0  0  0  0
   58.6169   28.3977   44.3365 H   0  0  0  0  0  0  0  0  0  0  0  0
   56.9631   27.6965   44.3365 H   0  0  0  0  0  0  0  0  0  0  0  0
   58.5668   26.1053   45.2888 H   0  0  0  0  0  0  0  0  0  0  0  0
   57.2690   25.4034   47.0574 H   0  0  0  0  0  0  0  0  0  0  0  0
   57.0845   27.0800   47.7198 H   0  0  0  0  0  0  0  0  0  0  0  0
   57.7771   29.2991   47.9980 H   0  0  0  0  0  0  0  0  0  0  0  0
   58.8299   28.5613   49.2041 H   0  0  0  0  0  0  0  0  0  0  0  0
   58.6229   31.2847   48.9408 H   0  0  0  0  0  0  0  0  0  0  0  0
   60.1627   30.5471   49.4194 H   0  0  0  0  0  0  0  0  0  0  0  0
   58.9692   30.7010   44.7169 H   0  0  0  0  0  0  0  0  0  0  0  0
   57.2536   32.0899   43.5627 H   0  0  0  0  0  0  0  0  0  0  0  0
   56.2848   34.0881   44.6949 H   0  0  0  0  0  0  0  0  0  0  0  0
   57.0238   34.6968   46.9986 H   0  0  0  0  0  0  0  0  0  0  0  0
   58.7369   33.3201   48.1680 H   0  0  0  0  0  0  0  0  0  0  0  0
   62.2698   30.4192   48.7475 H   0  0  0  0  0  0  0  0  0  0  0  0
   64.4001   31.6717   49.0219 H   0  0  0  0  0  0  0  0  0  0  0  0
   64.7409   33.8430   47.8432 H   0  0  0  0  0  0  0  0  0  0  0  0
   62.9640   34.7332   46.3382 H   0  0  0  0  0  0  0  0  0  0  0  0
   60.8251   33.4935   46.0521 H   0  0  0  0  0  0  0  0  0  0  0  0
  1  2  1  0
  2  3  1  0
  3  4  1  0
  2  5  1  0
  5  6  2  0
  5  7  1  0
  7  8  1  0
  8  9  1  0
  9 10  1  0
 10 11  1  0
 11 12  2  0
 12 13  1  0
 13 14  2  0
 14 15  1  0
 15 16  2  0
 10 17  1  0
 17 18  2  0
 18 19  1  0
 19 20  2  0
 20 21  1  0
 21 22  2  0
 10 23  1  0
 23 24  2  0
 23  7  1  0
 16 11  1  0
 22 17  1  0
  1 25  1  0
  1 26  1  0
  1 27  1  0
  2 28  1  6
  3 29  1  0
  3 30  1  0
  8 31  1  0
  8 32  1  0
  9 33  1  0
  9 34  1  0
 12 35  1  0
 13 36  1  0
 14 37  1  0
 15 38  1  0
 16 39  1  0
 18 40  1  0
 19 41  1  0
 20 42  1  0
 21 43  1  0
 22 44  1  0
M  CHG  1   4  -1
M  END
>  <UniqueID>  (11) 
10

>  <SMILES>  (11) 
C[C@H](C[S-])C(=O)N1CCC(c2ccccc2)(c2ccccc2)C1=O

>  <Energy>  (11) 
67.17254849412576

>  <Genealogy>  (11) 
CC(C[S-])C(=O)N1CCC(c2ccccc2)(c2ccccc2)C1=O (protonated)
C[C@H](C[S-])C(=O)N1CCC(c2ccccc2)(c2ccccc2)C1=O (chirality)
C[C@H](C[S-])C(=O)N1CCC(c2ccccc2)(c2ccccc2)C1=O (3D coordinates assigned)
C[C@H](C[S-])C(=O)N1CCC(c2ccccc2)(c2ccccc2)C1=O (nonaromatic ring conformer: 67.17254849412576 kcal/mol)

>  <smiles>  (11) 
CC(CS)C(=O)N1CCC(c2ccccc2)(c2ccccc2)C1=O

>  <score_type>  (11) 
oracle

>  <origin>  (11) 
adg

>  <m_score__min__energy>  (11) 
-9.8100000000000005

>  <m_primary>  (11) 
energy

$$$$
11:0
     RDKit          3D

 32 34  0  0  0  0  0  0  0  0999 V2000
   57.7040   24.1310   45.0450 C   0  0  0  0  0  0  0  0  0  0  0  0
   58.2200   24.7910   46.1960 O   0  0  0  0  0  0  0  0  0  0  0  0
   58.2710   26.1850   46.3580 C   0  0  0  0  0  0  0  0  0  0  0  0
   58.8850   26.6930   47.5050 C   0  0  0  0  0  0  0  0  0  0  0  0
   58.9480   28.0680   47.7200 C   0  0  0  0  0  0  0  0  0  0  0  0
   58.4230   28.9540   46.7770 C   0  0  0  0  0  0  0  0  0  0  0  0
   57.8100   28.4760   45.6040 C   0  0  0  0  0  0  0  0  0  0  0  0
   57.7190   27.0770   45.4180 C   0  0  0  0  0  0  0  0  0  0  0  0
   57.0920   29.4790   44.6890 C   0  0  2  0  0  0  0  0  0  0  0  0
   55.7850   29.6750   45.1740 O   0  0  0  0  0  0  0  0  0  0  0  0
   57.0290   28.9820   43.2110 C   0  0  0  0  0  0  0  0  0  0  0  0
   56.3990   30.0280   42.2830 C   0  0  0  0  0  0  0  0  0  0  0  0
   57.0700   31.3540   42.4460 C   0  0  0  0  0  0  0  0  0  0  0  0
   57.0240   32.1970   41.5120 O   0  0  0  0  0  0  0  0  0  0  0  0
   57.7420   31.6980   43.7050 C   0  0  0  0  0  0  0  0  0  0  0  0
   57.8030   30.8370   44.7360 C   0  0  0  0  0  0  0  0  0  0  0  0
   58.5380   31.2870   45.9760 C   0  0  0  0  0  0  0  0  0  0  0  0
   58.4940   30.3230   47.0210 O   0  0  0  0  0  0  0  0  0  0  0  0
   57.0546   23.3004   45.3589 H   0  0  0  0  0  0  0  0  0  0  0  0
   57.1218   24.8445   44.4434 H   0  0  0  0  0  0  0  0  0  0  0  0
   58.5369   23.7381   44.4434 H   0  0  0  0  0  0  0  0  0  0  0  0
   59.3213   26.0035   48.2428 H   0  0  0  0  0  0  0  0  0  0  0  0
   59.4137   28.4577   48.6372 H   0  0  0  0  0  0  0  0  0  0  0  0
   57.2102   26.6801   44.5271 H   0  0  0  0  0  0  0  0  0  0  0  0
   55.8290   29.7100   46.1660 H   0  0  0  0  0  0  0  0  0  0  0  0
   58.0506   28.7677   42.8639 H   0  0  0  0  0  0  0  0  0  0  0  0
   56.4027   28.0782   43.1813 H   0  0  0  0  0  0  0  0  0  0  0  0
   56.5054   29.6956   41.2398 H   0  0  0  0  0  0  0  0  0  0  0  0
   55.3357   30.1361   42.5434 H   0  0  0  0  0  0  0  0  0  0  0  0
   58.2091   32.6886   43.8079 H   0  0  0  0  0  0  0  0  0  0  0  0
   59.5898   31.4734   45.7134 H   0  0  0  0  0  0  0  0  0  0  0  0
   58.0426   32.1978   46.3434 H   0  0  0  0  0  0  0  0  0  0  0  0
  1  2  1  0
  2  3  1  0
  3  4  2  0
  4  5  1  0
  5  6  2  0
  6  7  1  0
  7  8  2  0
  7  9  1  0
  9 10  1  1
  9 11  1  0
 11 12  1  0
 12 13  1  0
 13 14  2  0
 13 15  1  0
 15 16  2  0
 16 17  1  0
 17 18  1  0
  8  3  1  0
 16  9  1  0
 18  6  1  0
  1 19  1  0
  1 20  1  0
  1 21  1  0
  4 22  1  0
  5 23  1  0
  8 24  1  0
 10 25  1  0
 11 26  1  0
 11 27  1  0
 12 28  1  0
 12 29  1  0
 15 30  1  0
 17 31  1  0
 17 32  1  0
M  END
>  <UniqueID>  (12) 
11

>  <SMILES>  (12) 
COc1ccc2c(c1)[C@]1(O)CCC(=O)C=C1CO2

>  <Energy>  (12) 
41.115384807089946

>  <Genealogy>  (12) 
COc1ccc2c(c1)[C@]1(O)CCC(=O)C=C1CO2 (chirality)
COc1ccc2c(c1)[C@]1(O)CCC(=O)C=C1CO2 (3D coordinates assigned)
COc1ccc2c(c1)[C@]1(O)CCC(=O)C=C1CO2 (nonaromatic ring conformer: 41.115384807089946 kcal/mol)

>  <smiles>  (12) 
COc1ccc2c(c1)C1(O)CCC(=O)C=C1CO2

>  <score_type>  (12) 
oracle

>  <origin>  (12) 
adg

>  <m_score__min__energy>  (12) 
-6.6799999999999997

>  <m_primary>  (12) 
energy

$$$$
12:0
     RDKit          3D

 31 33  0  0  0  0  0  0  0  0999 V2000
   56.9780   30.2730   43.5050 C   0  0  0  0  0  0  0  0  0  0  0  0
   57.0460   30.6960   44.8630 O   0  0  0  0  0  0  0  0  0  0  0  0
   57.7090   31.8520   45.3100 C   0  0  0  0  0  0  0  0  0  0  0  0
   57.1040   33.1190   45.2290 C   0  0  0  0  0  0  0  0  0  0  0  0
   57.7690   34.2500   45.6910 C   0  0  0  0  0  0  0  0  0  0  0  0
   59.0510   34.1400   46.2220 C   0  0  0  0  0  0  0  0  0  0  0  0
   59.6980   32.8930   46.3030 C   0  0  0  0  0  0  0  0  0  0  0  0
   59.0040   31.7280   45.8640 C   0  0  0  0  0  0  0  0  0  0  0  0
   59.5950   30.3650   45.9410 C   0  0  0  0  0  0  0  0  0  0  0  0
   60.2930   29.9140   46.9880 C   0  0  0  0  0  0  0  0  0  0  0  0
   60.6140   30.7740   48.1690 C   0  0  0  0  0  0  0  0  0  0  0  0
   61.5380   31.8720   47.7310 C   0  0  0  0  0  0  0  0  0  0  0  0
   62.8650   31.8900   48.1980 C   0  0  0  0  0  0  0  0  0  0  0  0
   63.7540   32.8740   47.7650 C   0  0  0  0  0  0  0  0  0  0  0  0
   63.3350   33.8420   46.8560 C   0  0  0  0  0  0  0  0  0  0  0  0
   62.0220   33.8350   46.3800 C   0  0  0  0  0  0  0  0  0  0  0  0
   61.1030   32.8570   46.8120 C   0  0  0  0  0  0  0  0  0  0  0  0
   56.8035   29.1876   43.4674 H   0  0  0  0  0  0  0  0  0  0  0  0
   56.1522   30.7949   42.9993 H   0  0  0  0  0  0  0  0  0  0  0  0
   57.9257   30.5098   42.9993 H   0  0  0  0  0  0  0  0  0  0  0  0
   56.0971   33.2163   44.7969 H   0  0  0  0  0  0  0  0  0  0  0  0
   57.2804   35.2340   45.6366 H   0  0  0  0  0  0  0  0  0  0  0  0
   59.5664   35.0419   46.5839 H   0  0  0  0  0  0  0  0  0  0  0  0
   59.4490   29.6885   45.0860 H   0  0  0  0  0  0  0  0  0  0  0  0
   60.6444   28.8717   46.9808 H   0  0  0  0  0  0  0  0  0  0  0  0
   59.6876   31.2092   48.5721 H   0  0  0  0  0  0  0  0  0  0  0  0
   61.0964   30.1696   48.9513 H   0  0  0  0  0  0  0  0  0  0  0  0
   63.2039   31.1227   48.9096 H   0  0  0  0  0  0  0  0  0  0  0  0
   64.7873   32.8852   48.1421 H   0  0  0  0  0  0  0  0  0  0  0  0
   64.0395   34.6137   46.5121 H   0  0  0  0  0  0  0  0  0  0  0  0
   61.7011   34.6017   45.6595 H   0  0  0  0  0  0  0  0  0  0  0  0
  1  2  1  0
  2  3  1  0
  3  4  2  0
  4  5  1  0
  5  6  2  0
  6  7  1  0
  7  8  2  0
  8  9  1  0
  9 10  2  0
 10 11  1  0
 11 12  1  0
 12 13  2  0
 13 14  1  0
 14 15  2  0
 15 16  1  0
 16 17  2  0
  8  3  1  0
 17 12  1  0
 17  7  1  0
  1 18  1  0
  1 19  1  0
  1 20  1  0
  4 21  1  0
  5 22  1  0
  6 23  1  0
  9 24  1  0
 10 25  1  0
 11 26  1  0
 11 27  1  0
 13 28  1  0
 14 29  1  0
 15 30  1  0
 16 31  1  0
M  END
>  <UniqueID>  (13) 
12

>  <SMILES>  (13) 
COc1cccc2c1C=CCc1ccccc1-2

>  <Energy>  (13) 
47.080426525799545

>  <Genealogy>  (13) 
COc1cccc2c1C=CCc1ccccc1-2 (3D coordinates assigned)
COc1cccc2c1C=CCc1ccccc1-2 (nonaromatic ring conformer: 47.080426525799545 kcal/mol)

>  <smiles>  (13) 
COc1cccc2c1C=CCc1ccccc1-2

>  <score_type>  (13) 
oracle

>  <origin>  (13) 
adg

>  <m_score__min__energy>  (13) 
-6.0099999999999998

>  <m_primary>  (13) 
energy

$$$$
13:0
     RDKit          3D

 34 37  0  0  0  0  0  0  0  0999 V2000
   65.3100   32.3250   50.1000 C   0  0  0  0  0  0  0  0  0  0  0  0
   64.5450   33.2510   49.3330 O   0  0  0  0  0  0  0  0  0  0  0  0
   63.3780   32.9210   48.6270 C   0  0  0  0  0  0  0  0  0  0  0  0
   62.8720   31.6250   48.7530 C   0  0  0  0  0  0  0  0  0  0  0  0
   61.7210   31.2400   48.0630 C   0  0  0  0  0  0  0  0  0  0  0  0
   61.0620   32.1410   47.2040 C   0  0  0  0  0  0  0  0  0  0  0  0
   61.5340   33.4710   47.1300 C   0  0  0  0  0  0  0  0  0  0  0  0
   62.6980   33.8490   47.8180 C   0  0  0  0  0  0  0  0  0  0  0  0
   60.7360   34.4910   46.3710 C   0  0  0  0  0  0  0  0  0  0  0  0
   59.0070   34.3340   46.9050 S   0  0  0  0  0  0  0  0  0  0  0  0
   58.8830   32.6650   46.2360 C   0  0  0  0  0  0  0  0  0  0  0  0
   57.8020   32.3560   45.4710 N   0  0  0  0  0  0  0  0  0  0  0  0
   57.6620   31.1280   44.9090 C   0  0  0  0  0  0  0  0  0  0  0  0
   56.5250   30.8210   44.1430 C   0  0  0  0  0  0  0  0  0  0  0  0
   56.3950   29.5610   43.5520 C   0  0  0  0  0  0  0  0  0  0  0  0
   57.3980   28.6040   43.7170 C   0  0  0  0  0  0  0  0  0  0  0  0
   58.5350   28.9000   44.4730 C   0  0  0  0  0  0  0  0  0  0  0  0
   58.6730   30.1650   45.0800 C   0  0  0  0  0  0  0  0  0  0  0  0
   59.8050   30.5120   45.8370 C   0  0  0  0  0  0  0  0  0  0  0  0
   60.7660   29.6950   45.9160 O   0  0  0  0  0  0  0  0  0  0  0  0
   59.8830   31.7440   46.4480 N   0  0  0  0  0  0  0  0  0  0  0  0
   65.1513   32.5171   51.1714 H   0  0  0  0  0  0  0  0  0  0  0  0
   64.9922   31.2996   49.8603 H   0  0  0  0  0  0  0  0  0  0  0  0
   66.3770   32.4436   49.8603 H   0  0  0  0  0  0  0  0  0  0  0  0
   63.3855   30.9007   49.4023 H   0  0  0  0  0  0  0  0  0  0  0  0
   61.3245   30.2220   48.1916 H   0  0  0  0  0  0  0  0  0  0  0  0
   63.0801   34.8762   47.7238 H   0  0  0  0  0  0  0  0  0  0  0  0
   61.1082   35.5018   46.5942 H   0  0  0  0  0  0  0  0  0  0  0  0
   60.8245   34.3257   45.2871 H   0  0  0  0  0  0  0  0  0  0  0  0
   57.0640   33.0820   45.3250 H   0  0  0  0  0  0  0  0  0  0  0  0
   55.7349   31.5743   44.0080 H   0  0  0  0  0  0  0  0  0  0  0  0
   55.5014   29.3232   42.9562 H   0  0  0  0  0  0  0  0  0  0  0  0
   57.2927   27.6135   43.2502 H   0  0  0  0  0  0  0  0  0  0  0  0
   59.3247   28.1440   44.5950 H   0  0  0  0  0  0  0  0  0  0  0  0
  1  2  1  0
  2  3  1  0
  3  4  2  0
  4  5  1  0
  5  6  2  0
  6  7  1  0
  7  8  2  0
  7  9  1  0
  9 10  1  0
 10 11  1  0
 11 12  2  0
 12 13  1  0
 13 14  2  0
 14 15  1  0
 15 16  2  0
 16 17  1  0
 17 18  2  0
 18 19  1  0
 19 20  2  0
 19 21  1  0
  8  3  1  0
 21 11  1  0
 21  6  1  0
 18 13  1  0
  1 22  1  0
  1 23  1  0
  1 24  1  0
  4 25  1  0
  5 26  1  0
  8 27  1  0
  9 28  1  0
  9 29  1  0
 12 30  1  0
 14 31  1  0
 15 32  1  0
 16 33  1  0
 17 34  1  0
M  CHG  1  12   1
M  END
>  <UniqueID>  (14) 
13

>  <SMILES>  (14) 
COc1ccc2c(c1)CSc1[nH+]c3ccccc3c(=O)n1-2

>  <Energy>  (14) 
56.43350715937687

>  <Genealogy>  (14) 
COc1ccc2c(c1)CSc1[nH+]c3ccccc3c(=O)n1-2 (protonated)
COc1ccc2c(c1)CSc1[nH+]c3ccccc3c(=O)n1-2 (3D coordinates assigned)
COc1ccc2c(c1)CSc1[nH+]c3ccccc3c(=O)n1-2 (nonaromatic ring conformer: 56.43350715937687 kcal/mol)

>  <smiles>  (14) 
COc1ccc2c(c1)CSc1nc3ccccc3c(=O)n1-2

>  <score_type>  (14) 
oracle

>  <origin>  (14) 
adg

>  <m_score__min__energy>  (14) 
-5.5899999999999999

>  <m_primary>  (14) 
energy

$$$$
14:0
     RDKit          3D

 43 45  0  0  0  0  0  0  0  0999 V2000
   60.2657   26.2841   44.9548 H   0  0  0  0  0  0  0  0  0  0  0  0
   59.2540   26.3540   45.3810 C   0  0  0  0  0  0  0  0  0  0  0  0
   58.6950   25.2350   45.8690 C   0  0  0  0  0  0  0  0  0  0  0  0
   59.2543   24.6562   46.6188 H   0  0  0  0  0  0  0  0  0  0  0  0
   57.3600   24.7390   45.4480 C   0  0  0  0  0  0  0  0  0  0  0  0
   57.1400   24.1310   44.1980 C   0  0  0  0  0  0  0  0  0  0  0  0
   57.9745   24.0210   43.4898 H   0  0  0  0  0  0  0  0  0  0  0  0
   55.8690   23.6660   43.8500 C   0  0  0  0  0  0  0  0  0  0  0  0
   55.7074   23.2004   42.8666 H   0  0  0  0  0  0  0  0  0  0  0  0
   54.7940   23.7900   44.7510 C   0  0  0  0  0  0  0  0  0  0  0  0
   53.5010   23.3400   44.4470 O   0  0  0  0  0  0  0  0  0  0  0  0
   52.3070   24.0390   44.7810 C   0  0  0  0  0  0  0  0  0  0  0  0
   52.2094   24.0961   45.8752 H   0  0  0  0  0  0  0  0  0  0  0  0
   52.3481   25.0556   44.3630 H   0  0  0  0  0  0  0  0  0  0  0  0
   51.4406   23.5055   44.3630 H   0  0  0  0  0  0  0  0  0  0  0  0
   55.0170   24.3790   45.9990 C   0  0  0  0  0  0  0  0  0  0  0  0
   54.1851   24.4777   46.7119 H   0  0  0  0  0  0  0  0  0  0  0  0
   56.2890   24.8440   46.3490 C   0  0  0  0  0  0  0  0  0  0  0  0
   56.4512   25.2958   47.3387 H   0  0  0  0  0  0  0  0  0  0  0  0
   58.5890   27.6750   45.3830 C   0  0  0  0  0  0  0  0  0  0  0  0
   59.3340   28.7420   45.6650 O   0  0  0  0  0  0  0  0  0  0  0  0
   58.8460   29.9780   45.7060 C   0  0  0  0  0  0  0  0  0  0  0  0
   59.5166   30.8196   45.9341 H   0  0  0  0  0  0  0  0  0  0  0  0
   57.4920   30.2210   45.4630 C   0  0  0  0  0  0  0  0  0  0  0  0
   57.0260   31.5440   45.5190 O   0  0  0  0  0  0  0  0  0  0  0  0
   57.8410   32.6820   45.5860 C   0  0  0  0  0  0  0  0  0  0  0  0
   58.0640   33.2660   46.8390 C   0  0  0  0  0  0  0  0  0  0  0  0
   57.5865   32.8392   47.7333 H   0  0  0  0  0  0  0  0  0  0  0  0
   58.8880   34.3860   46.9610 C   0  0  0  0  0  0  0  0  0  0  0  0
   59.0640   34.8340   47.9501 H   0  0  0  0  0  0  0  0  0  0  0  0
   59.4890   34.9380   45.8280 C   0  0  0  0  0  0  0  0  0  0  0  0
   60.1494   35.8121   45.9275 H   0  0  0  0  0  0  0  0  0  0  0  0
   59.2530   34.3820   44.5680 C   0  0  0  0  0  0  0  0  0  0  0  0
   59.7307   34.8205   43.6794 H   0  0  0  0  0  0  0  0  0  0  0  0
   58.4100   33.2670   44.4280 C   0  0  0  0  0  0  0  0  0  0  0  0
   58.1410   32.7170   43.0550 C   0  0  0  0  0  0  0  0  0  0  0  0
   57.6592   31.7320   43.1425 H   0  0  0  0  0  0  0  0  0  0  0  0
   57.4767   33.4029   42.5089 H   0  0  0  0  0  0  0  0  0  0  0  0
   59.0903   32.6137   42.5089 H   0  0  0  0  0  0  0  0  0  0  0  0
   56.6690   29.1230   45.1490 C   0  0  0  0  0  0  0  0  0  0  0  0
   55.4490   29.2810   44.8790 O   0  0  0  0  0  0  0  0  0  0  0  0
   57.2170   27.8400   45.1210 C   0  0  0  0  0  0  0  0  0  0  0  0
   56.5840   26.9687   44.8969 H   0  0  0  0  0  0  0  0  0  0  0  0
  1  2  1  0
  2  3  2  0
  3  4  1  0
  3  5  1  0
  5  6  2  0
  6  7  1  0
  6  8  1  0
  8  9  1  0
  8 10  2  0
 10 11  1  0
 11 12  1  0
 12 13  1  0
 12 14  1  0
 12 15  1  0
 10 16  1  0
 16 17  1  0
 16 18  2  0
 18 19  1  0
  2 20  1  0
 20 21  1  0
 21 22  1  0
 22 23  1  0
 22 24  2  0
 24 25  1  0
 25 26  1  0
 26 27  2  0
 27 28  1  0
 27 29  1  0
 29 30  1  0
 29 31  2  0
 31 32  1  0
 31 33  1  0
 33 34  1  0
 33 35  2  0
 35 36  1  0
 36 37  1  0
 36 38  1  0
 36 39  1  0
 24 40  1  0
 40 41  2  0
 40 42  1  0
 42 43  1  0
 18  5  1  0
 42 20  2  0
 35 26  1  0
M  END
>  <UniqueID>  (15) 
14

>  <SMILES>  (15) 
COc1ccc(/C=C/c2cc(=O)c(Oc3ccccc3C)co2)cc1

>  <Energy>  (15) 
60.79521477127302

>  <Genealogy>  (15) 
COc1ccc(/C=C/c2cc(=O)c(Oc3ccccc3C)co2)cc1 (cis-trans isomerization)
COc1ccc(/C=C/c2cc(=O)c(Oc3ccccc3C)co2)cc1 (3D coordinates assigned)
COc1ccc(/C=C/c2cc(=O)c(Oc3ccccc3C)co2)cc1 (optimized conformer: 60.79521477127302 kcal/mol)

>  <smiles>  (15) 
COc1ccc(C=Cc2cc(=O)c(Oc3ccccc3C)co2)cc1

>  <score_type>  (15) 
oracle

>  <origin>  (15) 
adg

>  <m_score__min__energy>  (15) 
-8.0299999999999994

>  <m_primary>  (15) 
energy

$$$$
15:0
     RDKit          3D

 54 57  0  0  0  0  0  0  0  0999 V2000
   56.2830   29.4320   42.5970 C   0  0  0  0  0  0  0  0  0  0  0  0
   56.8910   30.7200   42.5540 O   0  0  0  0  0  0  0  0  0  0  0  0
   57.4550   31.3640   43.6660 C   0  0  0  0  0  0  0  0  0  0  0  0
   57.7970   32.7300   43.5420 C   0  0  0  0  0  0  0  0  0  0  0  0
   58.3580   33.4330   44.6230 C   0  0  0  0  0  0  0  0  0  0  0  0
   58.5720   32.7390   45.8120 C   0  0  0  0  0  0  0  0  0  0  0  0
   59.0510   33.1610   47.0310 C   0  0  0  0  0  0  0  0  0  0  0  0
   59.6700   34.8020   47.4320 S   0  0  0  0  0  0  0  0  0  0  0  0
   61.2580   34.1860   48.0100 C   0  0  0  0  0  0  0  0  0  0  0  0
   61.6020   34.2970   49.3610 C   0  0  0  0  0  0  0  0  0  0  0  0
   62.8470   33.8490   49.8120 C   0  0  0  0  0  0  0  0  0  0  0  0
   63.7660   33.2930   48.9080 C   0  0  0  0  0  0  0  0  0  0  0  0
   65.0990   32.7940   49.3860 C   0  0  0  0  0  0  0  0  0  0  0  0
   63.4150   33.1740   47.5540 C   0  0  0  0  0  0  0  0  0  0  0  0
   62.1710   33.6310   47.1040 C   0  0  0  0  0  0  0  0  0  0  0  0
   58.9620   32.0530   47.8790 C   0  0  0  0  0  0  0  0  0  0  0  0
   59.2200   32.0680   49.3390 C   0  0  0  0  0  0  0  0  0  0  0  0
   58.4190   32.7050   50.0790 O   0  0  0  0  0  0  0  0  0  0  0  0
   60.3850   31.4070   49.9110 N   0  0  0  0  0  0  0  0  0  0  0  0
   59.9760   30.3520   50.8670 C   0  0  0  0  0  0  0  0  0  0  0  0
   59.4130   29.0840   50.1810 C   0  0  0  0  0  0  0  0  0  0  0  0
   59.6860   29.0700   48.7320 N   0  0  0  0  0  0  0  0  0  0  0  0
   59.3750   27.7500   48.1670 C   0  0  0  0  0  0  0  0  0  0  0  0
   61.0860   29.4320   48.4810 C   0  0  0  0  0  0  0  0  0  0  0  0
   61.3320   30.9020   48.8770 C   0  0  0  0  0  0  0  0  0  0  0  0
   58.4750   30.9830   47.1990 N   0  0  0  0  0  0  0  0  0  0  0  0
   58.2430   31.4160   45.9460 C   0  0  0  0  0  0  0  0  0  0  0  0
   57.6850   30.6910   44.8940 C   0  0  0  0  0  0  0  0  0  0  0  0
   56.1399   29.1289   43.6447 H   0  0  0  0  0  0  0  0  0  0  0  0
   55.3077   29.4698   42.0898 H   0  0  0  0  0  0  0  0  0  0  0  0
   56.9321   28.7030   42.0898 H   0  0  0  0  0  0  0  0  0  0  0  0
   57.6222   33.2494   42.5882 H   0  0  0  0  0  0  0  0  0  0  0  0
   58.6197   34.4976   44.5327 H   0  0  0  0  0  0  0  0  0  0  0  0
   60.8891   34.7392   50.0725 H   0  0  0  0  0  0  0  0  0  0  0  0
   63.1072   33.9323   50.8775 H   0  0  0  0  0  0  0  0  0  0  0  0
   65.1153   32.7879   50.4859 H   0  0  0  0  0  0  0  0  0  0  0  0
   65.2643   31.7731   49.0112 H   0  0  0  0  0  0  0  0  0  0  0  0
   65.8940   33.4554   49.0112 H   0  0  0  0  0  0  0  0  0  0  0  0
   64.1210   32.7195   46.8434 H   0  0  0  0  0  0  0  0  0  0  0  0
   61.9100   33.5543   46.0382 H   0  0  0  0  0  0  0  0  0  0  0  0
   60.9090   32.1160   50.4750 H   0  0  0  0  0  0  0  0  0  0  0  0
   60.8534   30.0643   51.4648 H   0  0  0  0  0  0  0  0  0  0  0  0
   59.1692   30.7708   51.4864 H   0  0  0  0  0  0  0  0  0  0  0  0
   59.8772   28.1976   50.6380 H   0  0  0  0  0  0  0  0  0  0  0  0
   58.3219   29.0795   50.3203 H   0  0  0  0  0  0  0  0  0  0  0  0
   59.2059   27.0323   48.9833 H   0  0  0  0  0  0  0  0  0  0  0  0
   58.4689   27.8206   47.5473 H   0  0  0  0  0  0  0  0  0  0  0  0
   60.2173   27.4087   47.5473 H   0  0  0  0  0  0  0  0  0  0  0  0
   61.7427   28.7801   49.0758 H   0  0  0  0  0  0  0  0  0  0  0  0
   61.3042   29.3060   47.4102 H   0  0  0  0  0  0  0  0  0  0  0  0
   62.3556   30.9898   49.2702 H   0  0  0  0  0  0  0  0  0  0  0  0
   61.1778   31.5100   47.9734 H   0  0  0  0  0  0  0  0  0  0  0  0
   58.2370   30.0370   47.5680 H   0  0  0  0  0  0  0  0  0  0  0  0
   57.4303   29.6275   45.0125 H   0  0  0  0  0  0  0  0  0  0  0  0
  1  2  1  0
  2  3  1  0
  3  4  2  0
  4  5  1  0
  5  6  2  0
  6  7  1  0
  7  8  1  0
  8  9  1  0
  9 10  2  0
 10 11  1  0
 11 12  2  0
 12 13  1  0
 12 14  1  0
 14 15  2  0
  7 16  2  0
 16 17  1  0
 17 18  2  0
 17 19  1  0
 19 20  1  0
 20 21  1  0
 21 22  1  0
 22 23  1  0
 22 24  1  0
 24 25  1  0
 16 26  1  0
 26 27  1  0
 27 28  2  0
 28  3  1  0
 27  6  1  0
 15  9  1  0
 25 19  1  0
  1 29  1  0
  1 30  1  0
  1 31  1  0
  4 32  1  0
  5 33  1  0
 10 34  1  0
 11 35  1  0
 13 36  1  0
 13 37  1  0
 13 38  1  0
 14 39  1  0
 15 40  1  0
 19 41  1  0
 20 42  1  0
 20 43  1  0
 21 44  1  0
 21 45  1  0
 23 46  1  0
 23 47  1  0
 23 48  1  0
 24 49  1  0
 24 50  1  0
 25 51  1  0
 25 52  1  0
 26 53  1  0
 28 54  1  0
M  CHG  1  19   1
M  END
>  <UniqueID>  (16) 
15

>  <SMILES>  (16) 
COc1ccc2c(Sc3ccc(C)cc3)c(C(=O)[NH+]3CCN(C)CC3)[nH]c2c1

>  <Energy>  (16) 
99.03085989072105

>  <Genealogy>  (16) 
COc1ccc2c(Sc3ccc(C)cc3)c(C(=O)[NH+]3CCN(C)CC3)[nH]c2c1 (protonated)
COc1ccc2c(Sc3ccc(C)cc3)c(C(=O)[NH+]3CCN(C)CC3)[nH]c2c1 (3D coordinates assigned)
COc1ccc2c(Sc3ccc(C)cc3)c(C(=O)[NH+]3CCN(C)CC3)[nH]c2c1 (nonaromatic ring conformer: 99.03085989072105 kcal/mol)

>  <smiles>  (16) 
COc1ccc2c(Sc3ccc(C)cc3)c(C(=O)N3CCN(C)CC3)[nH]c2c1

>  <score_type>  (16) 
oracle

>  <origin>  (16) 
adg

>  <m_score__min__energy>  (16) 
-6.1100000000000003

>  <m_primary>  (16) 
energy

$$$$
16:0
     RDKit          3D

 36 39  0  0  0  0  0  0  0  0999 V2000
   56.2890   29.0340   42.1860 N   0  0  0  0  0  0  0  0  0  0  0  0
   56.7630   29.5510   43.2820 C   0  0  0  0  0  0  0  0  0  0  0  0
   56.4650   30.7990   43.6860 N   0  0  0  0  0  0  0  0  0  0  0  0
   56.9520   31.3440   44.8220 C   0  0  0  0  0  0  0  0  0  0  0  0
   56.6550   32.6200   45.2470 O   0  0  0  0  0  0  0  0  0  0  0  0
   57.6800   33.4190   45.7460 C   0  0  0  0  0  0  0  0  0  0  0  0
   58.4210   34.2260   44.8730 C   0  0  0  0  0  0  0  0  0  0  0  0
   59.4120   34.9800   45.4410 C   0  0  0  0  0  0  0  0  0  0  0  0
   59.6780   34.9560   46.8110 C   0  0  0  0  0  0  0  0  0  0  0  0
   58.9320   34.1520   47.6500 C   0  0  0  0  0  0  0  0  0  0  0  0
   57.9300   33.3840   47.0930 C   0  0  0  0  0  0  0  0  0  0  0  0
   57.7830   30.6180   45.6130 N   0  0  0  0  0  0  0  0  0  0  0  0
   58.1300   29.3600   45.2810 C   0  0  0  0  0  0  0  0  0  0  0  0
   57.6180   28.8290   44.1150 C   0  0  0  0  0  0  0  0  0  0  0  0
   58.1380   27.5490   44.0360 C   0  0  0  0  0  0  0  0  0  0  0  0
   58.9090   27.3820   45.1210 N   0  0  0  0  0  0  0  0  0  0  0  0
   58.9250   28.4550   45.8920 N   0  0  0  0  0  0  0  0  0  0  0  0
   59.6260   28.6460   47.1170 C   0  0  0  0  0  0  0  0  0  0  0  0
   60.2550   29.8810   47.2790 C   0  0  0  0  0  0  0  0  0  0  0  0
   60.9620   30.1650   48.4350 C   0  0  0  0  0  0  0  0  0  0  0  0
   61.0310   29.2030   49.4210 C   0  0  0  0  0  0  0  0  0  0  0  0
   60.4030   27.9620   49.2690 C   0  0  0  0  0  0  0  0  0  0  0  0
   59.6970   27.6880   48.1050 C   0  0  0  0  0  0  0  0  0  0  0  0
   55.3340   28.5940   42.2390 H   0  0  0  0  0  0  0  0  0  0  0  0
   58.2179   34.2522   43.7922 H   0  0  0  0  0  0  0  0  0  0  0  0
   60.0211   35.6286   44.7942 H   0  0  0  0  0  0  0  0  0  0  0  0
   60.4846   35.5797   47.2237 H   0  0  0  0  0  0  0  0  0  0  0  0
   59.1308   34.1246   48.7315 H   0  0  0  0  0  0  0  0  0  0  0  0
   57.3227   32.7339   47.7399 H   0  0  0  0  0  0  0  0  0  0  0  0
   58.1640   31.0410   46.5020 H   0  0  0  0  0  0  0  0  0  0  0  0
   57.9550   26.8127   43.2395 H   0  0  0  0  0  0  0  0  0  0  0  0
   60.1886   30.6355   46.4813 H   0  0  0  0  0  0  0  0  0  0  0  0
   61.4585   31.1380   48.5645 H   0  0  0  0  0  0  0  0  0  0  0  0
   61.5902   29.4154   50.3441 H   0  0  0  0  0  0  0  0  0  0  0  0
   60.4681   27.2077   50.0670 H   0  0  0  0  0  0  0  0  0  0  0  0
   59.1994   26.7159   47.9729 H   0  0  0  0  0  0  0  0  0  0  0  0
  1  2  2  3
  2  3  1  0
  3  4  2  0
  4  5  1  0
  5  6  1  0
  6  7  2  0
  7  8  1  0
  8  9  2  0
  9 10  1  0
 10 11  2  0
  4 12  1  0
 12 13  1  0
 13 14  2  0
 14 15  1  0
 15 16  2  0
 16 17  1  0
 17 18  1  0
 18 19  2  0
 19 20  1  0
 20 21  2  0
 21 22  1  0
 22 23  2  0
 14  2  1  0
 23 18  1  0
 11  6  1  0
 17 13  1  0
  1 24  1  0
  7 25  1  0
  8 26  1  0
  9 27  1  0
 10 28  1  0
 11 29  1  0
 12 30  1  0
 15 31  1  0
 19 32  1  0
 20 33  1  0
 21 34  1  0
 22 35  1  0
 23 36  1  0
M  END
>  <smiles>  (17) 
N=c1nc(Oc2ccccc2)[nH]c2c1cnn2-c1ccccc1

>  <score_type>  (17) 
oracle

>  <origin>  (17) 
adg

>  <m_score__min__energy>  (17) 
-7.1699999999999999

>  <m_primary>  (17) 
energy

$$$$
17:0
     RDKit          3D

 42 43  0  0  0  0  0  0  0  0999 V2000
   58.6160   34.4980   45.1390 C   0  0  0  0  0  0  0  0  0  0  0  0
   57.6770   33.5480   45.1190 C   0  0  0  0  0  0  0  0  0  0  0  0
   57.7610   32.3430   46.0150 C   0  0  0  0  0  0  0  0  0  0  0  0
   57.5950   31.0980   45.2320 N   0  0  0  0  0  0  0  0  0  0  0  0
   57.3640   31.4080   43.7980 C   0  0  0  0  0  0  0  0  0  0  0  0
   56.5600   30.3200   43.1420 C   0  0  0  0  0  0  0  0  0  0  0  0
   55.5390   29.7300   43.7700 C   0  0  0  0  0  0  0  0  0  0  0  0
   58.7730   30.2200   45.4190 C   0  0  0  0  0  0  0  0  0  0  0  0
   58.3540   28.8140   45.7170 C   0  0  0  0  0  0  0  0  0  0  0  0
   58.3490   28.2020   46.9520 C   0  0  0  0  0  0  0  0  0  0  0  0
   57.9480   26.9630   46.7780 O   0  0  0  0  0  0  0  0  0  0  0  0
   57.7100   26.7960   45.4930 C   0  0  0  0  0  0  0  0  0  0  0  0
   57.2490   25.5130   44.9110 C   0  0  0  0  0  0  0  0  0  0  0  0
   56.6610   24.5460   45.7440 C   0  0  0  0  0  0  0  0  0  0  0  0
   56.2230   23.3290   45.2190 C   0  0  0  0  0  0  0  0  0  0  0  0
   56.3640   23.0490   43.8550 C   0  0  0  0  0  0  0  0  0  0  0  0
   55.9080   21.8120   43.3770 O   0  0  0  0  0  0  0  0  0  0  0  0
   56.7560   20.7190   43.0380 C   0  0  0  0  0  0  0  0  0  0  0  0
   56.9530   24.0130   43.0160 C   0  0  0  0  0  0  0  0  0  0  0  0
   57.3920   25.2320   43.5400 C   0  0  0  0  0  0  0  0  0  0  0  0
   57.9450   27.9270   44.7940 N   0  0  0  0  0  0  0  0  0  0  0  0
   58.5309   35.3696   44.4733 H   0  0  0  0  0  0  0  0  0  0  0  0
   59.4743   34.4087   45.8211 H   0  0  0  0  0  0  0  0  0  0  0  0
   56.8237   33.6493   44.4322 H   0  0  0  0  0  0  0  0  0  0  0  0
   58.7425   32.3295   46.5114 H   0  0  0  0  0  0  0  0  0  0  0  0
   56.9566   32.4010   46.7630 H   0  0  0  0  0  0  0  0  0  0  0  0
   56.8175   32.3593   43.7177 H   0  0  0  0  0  0  0  0  0  0  0  0
   58.3374   31.4831   43.2911 H   0  0  0  0  0  0  0  0  0  0  0  0
   56.8185   30.0023   42.1211 H   0  0  0  0  0  0  0  0  0  0  0  0
   54.9678   28.9365   43.2659 H   0  0  0  0  0  0  0  0  0  0  0  0
   55.2695   30.0378   44.7911 H   0  0  0  0  0  0  0  0  0  0  0  0
   59.3768   30.2279   44.4996 H   0  0  0  0  0  0  0  0  0  0  0  0
   59.3596   30.5979   46.2694 H   0  0  0  0  0  0  0  0  0  0  0  0
   58.6296   28.6663   47.9089 H   0  0  0  0  0  0  0  0  0  0  0  0
   56.5449   24.7498   46.8187 H   0  0  0  0  0  0  0  0  0  0  0  0
   55.7627   22.5830   45.8836 H   0  0  0  0  0  0  0  0  0  0  0  0
   57.1256   20.2426   43.9580 H   0  0  0  0  0  0  0  0  0  0  0  0
   56.1890   19.9846   42.4471 H   0  0  0  0  0  0  0  0  0  0  0  0
   57.6083   21.0857   42.4471 H   0  0  0  0  0  0  0  0  0  0  0  0
   57.0685   23.8060   41.9418 H   0  0  0  0  0  0  0  0  0  0  0  0
   57.8529   25.9775   42.8753 H   0  0  0  0  0  0  0  0  0  0  0  0
   57.8540   28.0980   43.7680 H   0  0  0  0  0  0  0  0  0  0  0  0
  1  2  2  0
  2  3  1  0
  3  4  1  0
  4  5  1  0
  5  6  1  0
  6  7  2  0
  4  8  1  0
  8  9  1  0
  9 10  2  0
 10 11  1  0
 11 12  1  0
 12 13  1  0
 13 14  2  0
 14 15  1  0
 15 16  2  0
 16 17  1  0
 17 18  1  0
 16 19  1  0
 19 20  2  0
 12 21  2  0
 21  9  1  0
 20 13  1  0
  1 22  1  0
  1 23  1  0
  2 24  1  0
  3 25  1  0
  3 26  1  0
  5 27  1  0
  5 28  1  0
  6 29  1  0
  7 30  1  0
  7 31  1  0
  8 32  1  0
  8 33  1  0
 10 34  1  0
 14 35  1  0
 15 36  1  0
 18 37  1  0
 18 38  1  0
 18 39  1  0
 19 40  1  0
 20 41  1  0
 21 42  1  0
M  CHG  1  21   1
M  END
>  <UniqueID>  (18) 
16

>  <SMILES>  (18) 
C=CCN(CC=C)Cc1coc(-c2ccc(OC)cc2)[nH+]1

>  <Energy>  (18) 
67.88454873163401

>  <Genealogy>  (18) 
C=CCN(CC=C)Cc1coc(-c2ccc(OC)cc2)[nH+]1 (protonated)
C=CCN(CC=C)Cc1coc(-c2ccc(OC)cc2)[nH+]1 (3D coordinates assigned)
C=CCN(CC=C)Cc1coc(-c2ccc(OC)cc2)[nH+]1 (optimized conformer: 67.88454873163401 kcal/mol)

>  <smiles>  (18) 
C=CCN(CC=C)Cc1coc(-c2ccc(OC)cc2)n1

>  <score_type>  (18) 
oracle

>  <origin>  (18) 
adg

>  <m_score__min__energy>  (18) 
-4.96

>  <m_primary>  (18) 
energy

$$$$
18:0
     RDKit          3D

 36 38  0  0  0  0  0  0  0  0999 V2000
   55.9790   29.6630   44.8710 O   0  0  0  0  0  0  0  0  0  0  0  0
   57.0950   29.2630   44.5610 C   0  0  0  0  0  0  0  0  0  0  0  0
   57.3900   27.7730   44.6060 C   0  0  2  0  0  0  0  0  0  0  0  0
   56.9770   27.1730   45.9640 C   0  0  0  0  0  0  0  0  0  0  0  0
   57.9690   27.5090   47.0890 C   0  0  0  0  0  0  0  0  0  0  0  0
   59.4330   27.5510   46.6100 C   0  0  0  0  0  0  0  0  0  0  0  0
   59.6220   26.8320   45.3450 N   0  0  0  0  0  0  0  0  0  0  0  0
   58.8770   27.4760   44.2510 C   0  0  0  0  0  0  0  0  0  0  0  0
   58.1150   30.2150   44.1600 N   0  0  0  0  0  0  0  0  0  0  0  0
   59.0990   30.4410   45.2540 C   0  0  0  0  0  0  0  0  0  0  0  0
   58.9720   31.8690   45.6130 C   0  0  0  0  0  0  0  0  0  0  0  0
   59.6480   32.5680   46.6170 C   0  0  0  0  0  0  0  0  0  0  0  0
   59.3780   33.9370   46.7770 C   0  0  0  0  0  0  0  0  0  0  0  0
   58.4500   34.5770   45.9350 C   0  0  0  0  0  0  0  0  0  0  0  0
   57.7880   33.8500   44.9320 C   0  0  0  0  0  0  0  0  0  0  0  0
   58.0730   32.4890   44.7990 C   0  0  0  0  0  0  0  0  0  0  0  0
   57.5150   31.5330   43.8190 C   0  0  0  0  0  0  0  0  0  0  0  0
   56.7811   27.2780   43.8352 H   0  0  0  0  0  0  0  0  0  0  0  0
   55.9880   27.5693   46.2373 H   0  0  0  0  0  0  0  0  0  0  0  0
   56.9609   26.0788   45.8519 H   0  0  0  0  0  0  0  0  0  0  0  0
   57.7078   28.4937   47.5038 H   0  0  0  0  0  0  0  0  0  0  0  0
   57.8929   26.7117   47.8430 H   0  0  0  0  0  0  0  0  0  0  0  0
   59.7298   28.6008   46.4688 H   0  0  0  0  0  0  0  0  0  0  0  0
   60.0531   27.0596   47.3742 H   0  0  0  0  0  0  0  0  0  0  0  0
   59.3000   25.8420   45.4540 H   0  0  0  0  0  0  0  0  0  0  0  0
   59.3729   28.4262   44.0036 H   0  0  0  0  0  0  0  0  0  0  0  0
   58.8746   26.7751   43.4032 H   0  0  0  0  0  0  0  0  0  0  0  0
   58.6290   29.8570   43.3200 H   0  0  0  0  0  0  0  0  0  0  0  0
   58.8635   29.8048   46.1199 H   0  0  0  0  0  0  0  0  0  0  0  0
   60.1227   30.1895   44.9395 H   0  0  0  0  0  0  0  0  0  0  0  0
   60.3745   32.0579   47.2666 H   0  0  0  0  0  0  0  0  0  0  0  0
   59.8931   34.5100   47.5621 H   0  0  0  0  0  0  0  0  0  0  0  0
   58.2424   35.6497   46.0626 H   0  0  0  0  0  0  0  0  0  0  0  0
   57.0622   34.3408   44.2669 H   0  0  0  0  0  0  0  0  0  0  0  0
   56.4192   31.4900   43.9055 H   0  0  0  0  0  0  0  0  0  0  0  0
   57.7445   31.8295   42.7849 H   0  0  0  0  0  0  0  0  0  0  0  0
  1  2  2  0
  2  3  1  0
  3  4  1  0
  4  5  1  0
  5  6  1  0
  6  7  1  0
  7  8  1  0
  2  9  1  0
  9 10  1  0
 10 11  1  0
 11 12  2  0
 12 13  1  0
 13 14  2  0
 14 15  1  0
 15 16  2  0
 16 17  1  0
  8  3  1  0
 17  9  1  0
 16 11  1  0
  3 18  1  6
  4 19  1  0
  4 20  1  0
  5 21  1  0
  5 22  1  0
  6 23  1  0
  6 24  1  0
  7 25  1  0
  8 26  1  0
  8 27  1  0
  9 28  1  0
 10 29  1  0
 10 30  1  0
 12 31  1  0
 13 32  1  0
 14 33  1  0
 15 34  1  0
 17 35  1  0
 17 36  1  0
M  CHG  1   9   1
M  END
>  <UniqueID>  (19) 
17

>  <SMILES>  (19) 
O=C([C@@H]1CCCNC1)[NH+]1Cc2ccccc2C1

>  <Energy>  (19) 
55.68750808738408

>  <Genealogy>  (19) 
O=C(C1CCCNC1)[NH+]1Cc2ccccc2C1 (protonated)
O=C([C@@H]1CCCNC1)[NH+]1Cc2ccccc2C1 (chirality)
O=C([C@@H]1CCCNC1)[NH+]1Cc2ccccc2C1 (3D coordinates assigned)
O=C([C@@H]1CCCNC1)[NH+]1Cc2ccccc2C1 (nonaromatic ring conformer: 55.68750808738408 kcal/mol)

>  <smiles>  (19) 
O=C(C1CCCNC1)N1Cc2ccccc2C1

>  <score_type>  (19) 
oracle

>  <origin>  (19) 
adg

>  <m_score__min__energy>  (19) 
-5.6500000000000004

>  <m_primary>  (19) 
energy

$$$$
19:0
     RDKit          3D

 48 51  0  0  1  0  0  0  0  0999 V2000
   55.4720   29.4980   44.8690 O   0  0  0  0  0  0  0  0  0  0  0  0
   56.6550   29.0950   44.9890 C   0  0  0  0  0  0  0  0  0  0  0  0
   57.7460   29.6780   44.1610 C   0  0  0  0  0  0  0  0  0  0  0  0
   58.2590   30.9130   44.6220 N   0  0  0  0  0  0  0  0  0  0  0  0
   57.8570   32.1000   43.9870 C   0  0  0  0  0  0  0  0  0  0  0  0
   57.4920   33.2550   44.8820 C   0  0  0  0  0  0  0  0  0  0  0  0
   58.1460   33.3280   46.1080 N   0  0  0  0  0  0  0  0  0  0  0  0
   58.7770   34.4930   46.5490 C   0  0  0  0  0  0  0  0  0  0  0  0
   60.1260   34.2090   47.1150 C   0  0  0  0  0  0  0  0  0  0  0  0
   60.2700   34.3330   48.5020 C   0  0  0  0  0  0  0  0  0  0  0  0
   61.4890   34.0750   49.0690 C   0  0  0  0  0  0  0  0  0  0  0  0
   62.5880   33.6970   48.3500 C   0  0  0  0  0  0  0  0  0  0  0  0
   62.4560   33.5690   46.9630 C   0  0  0  0  0  0  0  0  0  0  0  0
   61.2080   33.8330   46.3860 C   0  0  0  0  0  0  0  0  0  0  0  0
   58.2890   32.1150   46.7840 C   0  0  0  0  0  0  0  0  0  0  0  0
   58.7610   30.9610   45.9390 C   0  0  0  0  0  0  0  0  0  0  0  0
   57.0430   28.0680   45.9080 N   0  0  0  0  0  0  0  0  0  0  0  0
   56.7760   26.8290   45.6610 C   0  0  0  0  0  0  0  0  0  0  0  0
   55.8150   25.9870   46.1090 N   0  0  0  0  0  0  0  0  0  0  0  0
   55.8910   24.7990   45.6020 N   0  0  0  0  0  0  0  0  0  0  0  0
   56.6350   24.3370   44.8340 C   0  0  0  0  0  0  0  0  0  0  0  0
   56.9090   23.0510   44.1290 C   0  0  0  0  0  0  0  0  0  0  0  0
   58.0890   22.3840   44.1890 C   0  0  0  0  0  0  0  0  0  0  0  0
   57.9410   21.2520   43.4110 C   0  0  0  0  0  0  0  0  0  0  0  0
   56.6400   21.2990   42.9090 C   0  0  0  0  0  0  0  0  0  0  0  0
   56.1070   22.3790   43.3760 O   0  0  0  0  0  0  0  0  0  0  0  0
   57.7750   25.7990   44.4760 S   0  0  0  0  0  0  0  0  0  0  0  0
   58.5745   28.9550   44.1323 H   0  0  0  0  0  0  0  0  0  0  0  0
   57.3045   29.8807   43.1741 H   0  0  0  0  0  0  0  0  0  0  0  0
   58.6835   32.4281   43.3395 H   0  0  0  0  0  0  0  0  0  0  0  0
   56.9300   31.8431   43.4535 H   0  0  0  0  0  0  0  0  0  0  0  0
   57.7089   34.1832   44.3330 H   0  0  0  0  0  0  0  0  0  0  0  0
   56.4309   33.1040   45.1296 H   0  0  0  0  0  0  0  0  0  0  0  0
   58.8850   35.1833   45.6994 H   0  0  0  0  0  0  0  0  0  0  0  0
   58.1590   34.9382   47.3427 H   0  0  0  0  0  0  0  0  0  0  0  0
   59.4161   34.6333   49.1271 H   0  0  0  0  0  0  0  0  0  0  0  0
   61.5891   34.1772   50.1597 H   0  0  0  0  0  0  0  0  0  0  0  0
   63.5489   33.4990   48.8475 H   0  0  0  0  0  0  0  0  0  0  0  0
   63.3120   33.2683   46.3410 H   0  0  0  0  0  0  0  0  0  0  0  0
   61.0995   33.7315   45.2961 H   0  0  0  0  0  0  0  0  0  0  0  0
   59.0163   32.2618   47.5961 H   0  0  0  0  0  0  0  0  0  0  0  0
   57.2837   31.8427   47.1379 H   0  0  0  0  0  0  0  0  0  0  0  0
   59.8581   31.0143   45.8792 H   0  0  0  0  0  0  0  0  0  0  0  0
   58.3806   30.0556   46.4345 H   0  0  0  0  0  0  0  0  0  0  0  0
   55.1040   26.3510   46.8140 H   0  0  0  0  0  0  0  0  0  0  0  0
   58.9874   22.6855   44.7476 H   0  0  0  0  0  0  0  0  0  0  0  0
   58.6949   20.4728   43.2252 H   0  0  0  0  0  0  0  0  0  0  0  0
   56.1626   20.5620   42.2465 H   0  0  0  0  0  0  0  0  0  0  0  0
  1  2  2  0
  2  3  1  0
  3  4  1  0
  4  5  1  0
  5  6  1  0
  6  7  1  0
  7  8  1  0
  8  9  1  0
  9 10  2  0
 10 11  1  0
 11 12  2  0
 12 13  1  0
 13 14  2  0
  7 15  1  0
 15 16  1  0
  2 17  1  0
 17 18  2  0
 18 19  1  0
 19 20  1  0
 20 21  2  0
 21 22  1  0
 22 23  2  0
 23 24  1  0
 24 25  2  0
 25 26  1  0
 21 27  1  0
 16  4  1  0
 27 18  1  0
 14  9  1  0
 26 22  1  0
  3 28  1  0
  3 29  1  0
  5 30  1  0
  5 31  1  0
  6 32  1  0
  6 33  1  0
  8 34  1  0
  8 35  1  0
 10 36  1  0
 11 37  1  0
 12 38  1  0
 13 39  1  0
 14 40  1  0
 15 41  1  0
 15 42  1  0
 16 43  1  0
 16 44  1  0
 19 45  1  0
 23 46  1  0
 24 47  1  0
 25 48  1  0
M  END
>  <smiles>  (20) 
O=C(CN1CCN(Cc2ccccc2)CC1)N=c1[nH]nc(-c2ccco2)s1

>  <score_type>  (20) 
oracle

>  <origin>  (20) 
adg

>  <m_score__min__energy>  (20) 
-9.5999999999999996

>  <m_primary>  (20) 
energy

$$$$
20:0
     RDKit          3D

 44 46  0  0  0  0  0  0  0  0999 V2000
   57.9117   31.6995   48.7874 H   0  0  0  0  0  0  0  0  0  0  0  0
   58.5130   32.3720   48.1580 C   0  0  0  0  0  0  0  0  0  0  0  0
   59.4630   33.2260   48.7530 C   0  0  0  0  0  0  0  0  0  0  0  0
   59.6740   33.2500   50.1400 O   0  0  0  0  0  0  0  0  0  0  0  0
   58.7780   32.7030   51.1030 C   0  0  0  0  0  0  0  0  0  0  0  0
   59.1458   32.9275   52.1151 H   0  0  0  0  0  0  0  0  0  0  0  0
   57.7802   33.1461   50.9687 H   0  0  0  0  0  0  0  0  0  0  0  0
   58.7162   31.6130   50.9687 H   0  0  0  0  0  0  0  0  0  0  0  0
   60.2300   34.0840   47.9480 C   0  0  0  0  0  0  0  0  0  0  0  0
   61.1670   34.9220   48.5730 O   0  0  0  0  0  0  0  0  0  0  0  0
   62.2950   34.4630   49.3110 C   0  0  0  0  0  0  0  0  0  0  0  0
   62.0876   34.5474   50.3880 H   0  0  0  0  0  0  0  0  0  0  0  0
   62.4959   33.4116   49.0576 H   0  0  0  0  0  0  0  0  0  0  0  0
   63.1729   35.0754   49.0576 H   0  0  0  0  0  0  0  0  0  0  0  0
   60.0430   34.0850   46.5500 C   0  0  0  0  0  0  0  0  0  0  0  0
   60.6421   34.7573   45.9182 H   0  0  0  0  0  0  0  0  0  0  0  0
   59.0980   33.2340   45.9620 C   0  0  0  0  0  0  0  0  0  0  0  0
   58.8980   33.2180   44.5770 C   0  0  0  0  0  0  0  0  0  0  0  0
   59.4882   33.8822   43.9285 H   0  0  0  0  0  0  0  0  0  0  0  0
   57.9460   32.3560   44.0160 C   0  0  0  0  0  0  0  0  0  0  0  0
   57.7560   32.3470   42.5850 C   0  0  0  0  0  0  0  0  0  0  0  0
   57.6010   32.3400   41.4380 N   0  0  0  0  0  0  0  0  0  0  0  0
   57.2000   31.5110   44.8590 C   0  0  0  0  0  0  0  0  0  0  0  0
   56.3120   30.7040   44.3530 N   0  0  0  0  0  0  0  0  0  0  0  0
   56.3300   29.2470   44.4770 C   0  0  0  0  0  0  0  0  0  0  0  0
   56.3829   28.9800   45.5428 H   0  0  0  0  0  0  0  0  0  0  0  0
   55.4120   28.8512   44.0181 H   0  0  0  0  0  0  0  0  0  0  0  0
   57.5360   28.6320   43.7480 C   0  0  0  0  0  0  0  0  0  0  0  0
   57.1640   28.0156   42.9164 H   0  0  0  0  0  0  0  0  0  0  0  0
   58.1643   29.4645   43.3984 H   0  0  0  0  0  0  0  0  0  0  0  0
   58.4100   27.7520   44.6540 C   0  0  0  0  0  0  0  0  0  0  0  0
   57.7615   27.0767   45.2314 H   0  0  0  0  0  0  0  0  0  0  0  0
   59.1014   27.1784   44.0193 H   0  0  0  0  0  0  0  0  0  0  0  0
   59.1980   28.5630   45.5800 N   0  0  0  0  0  0  0  0  0  0  0  0
   59.0560   28.6300   46.9180 C   0  0  0  0  0  0  0  0  0  0  0  0
   58.2984   28.1011   47.5150 H   0  0  0  0  0  0  0  0  0  0  0  0
   60.0270   29.4780   47.4080 C   0  0  0  0  0  0  0  0  0  0  0  0
   60.1728   29.7435   48.4655 H   0  0  0  0  0  0  0  0  0  0  0  0
   60.7670   29.9270   46.3760 N   0  0  0  0  0  0  0  0  0  0  0  0
   61.5820   30.5780   46.4210 H   0  0  0  0  0  0  0  0  0  0  0  0
   60.2440   29.3540   45.2760 C   0  0  0  0  0  0  0  0  0  0  0  0
   60.6239   29.5123   44.2559 H   0  0  0  0  0  0  0  0  0  0  0  0
   57.4130   31.5480   46.2050 N   0  0  0  0  0  0  0  0  0  0  0  0
   58.3310   32.3750   46.7730 C   0  0  0  0  0  0  0  0  0  0  0  0
  1  2  1  0
  2  3  2  0
  3  4  1  0
  4  5  1  0
  5  6  1  0
  5  7  1  0
  5  8  1  0
  3  9  1  0
  9 10  1  0
 10 11  1  0
 11 12  1  0
 11 13  1  0
 11 14  1  0
  9 15  2  0
 15 16  1  0
 15 17  1  0
 17 18  1  0
 18 19  1  0
 18 20  2  0
 20 21  1  0
 21 22  3  0
 20 23  1  0
 23 24  2  0
 24 25  1  0
 25 26  1  0
 25 27  1  0
 25 28  1  0
 28 29  1  0
 28 30  1  0
 28 31  1  0
 31 32  1  0
 31 33  1  0
 31 34  1  0
 34 35  1  0
 35 36  1  0
 35 37  2  0
 37 38  1  0
 37 39  1  0
 39 40  1  0
 39 41  2  0
 41 42  1  0
 23 43  1  0
 43 44  1  0
 44  2  1  0
 44 17  2  0
 41 34  1  0
M  CHG  2  39   1  43  -1
M  END
>  <UniqueID>  (21) 
18

>  <SMILES>  (21) 
COc1cc2cc(C#N)/c(=N/CCCn3cc[nH+]c3)[n-]c2cc1OC

>  <Energy>  (21) 
73.29936623869024

>  <Genealogy>  (21) 
COc1cc2cc(C#N)c(=NCCCn3cc[nH+]c3)[n-]c2cc1OC (protonated)
COc1cc2cc(C#N)/c(=N/CCCn3cc[nH+]c3)[n-]c2cc1OC (cis-trans isomerization)
COc1cc2cc(C#N)/c(=N/CCCn3cc[nH+]c3)[n-]c2cc1OC (3D coordinates assigned)
COc1cc2cc(C#N)/c(=N/CCCn3cc[nH+]c3)[n-]c2cc1OC (optimized conformer: 73.29936623869024 kcal/mol)

>  <smiles>  (21) 
COc1cc2cc(C#N)c(=NCCCn3ccnc3)[nH]c2cc1OC

>  <score_type>  (21) 
oracle

>  <origin>  (21) 
adg

>  <m_score__min__energy>  (21) 
-6.7699999999999996

>  <m_primary>  (21) 
energy

$$$$
21:0
     RDKit          3D

 31 33  0  0  0  0  0  0  0  0999 V2000
   58.2230   32.6590   41.1210 C   0  0  0  0  0  0  0  0  0  0  0  0
   57.0400   31.9040   41.7130 C   0  0  0  0  0  0  0  0  0  0  0  0
   57.3840   31.3790   43.0340 N   0  0  0  0  0  0  0  0  0  0  0  0
   57.3310   30.0890   43.3470 N   0  0  0  0  0  0  0  0  0  0  0  0
   57.6500   29.9570   44.6560 C   0  0  0  0  0  0  0  0  0  0  0  0
   57.6990   28.6540   45.3380 C   0  0  0  0  0  0  0  0  0  0  0  0
   57.2100   27.4990   44.8420 N   0  0  0  0  0  0  0  0  0  0  0  0
   57.4560   26.5910   45.8010 C   0  0  0  0  0  0  0  0  0  0  0  0
   56.9960   25.1680   45.7620 C   0  0  0  0  0  0  0  0  0  0  0  0
   57.2780   24.6140   44.5270 F   0  0  0  0  0  0  0  0  0  0  0  0
   57.6400   24.4320   46.7410 F   0  0  0  0  0  0  0  0  0  0  0  0
   55.6320   25.1190   45.9810 F   0  0  0  0  0  0  0  0  0  0  0  0
   58.0620   27.2280   46.8640 C   0  0  0  0  0  0  0  0  0  0  0  0
   58.2000   28.4950   46.5440 O   0  0  0  0  0  0  0  0  0  0  0  0
   57.8840   31.2170   45.1860 C   0  0  0  0  0  0  0  0  0  0  0  0
   58.1520   31.6790   46.4770 C   0  0  0  0  0  0  0  0  0  0  0  0
   58.2810   33.0680   46.6630 C   0  0  0  0  0  0  0  0  0  0  0  0
   58.1210   33.9550   45.5760 C   0  0  0  0  0  0  0  0  0  0  0  0
   57.8210   33.4640   44.2940 C   0  0  0  0  0  0  0  0  0  0  0  0
   57.7090   32.0810   44.1360 C   0  0  0  0  0  0  0  0  0  0  0  0
   58.8476   33.0576   41.9340 H   0  0  0  0  0  0  0  0  0  0  0  0
   58.8211   31.9752   40.5007 H   0  0  0  0  0  0  0  0  0  0  0  0
   57.8547   33.4894   40.5007 H   0  0  0  0  0  0  0  0  0  0  0  0
   56.1829   32.5872   41.8057 H   0  0  0  0  0  0  0  0  0  0  0  0
   56.7824   31.0650   41.0500 H   0  0  0  0  0  0  0  0  0  0  0  0
   56.6870   27.3480   43.9520 H   0  0  0  0  0  0  0  0  0  0  0  0
   58.3736   26.7597   47.8093 H   0  0  0  0  0  0  0  0  0  0  0  0
   58.2586   30.9804   47.3199 H   0  0  0  0  0  0  0  0  0  0  0  0
   58.5083   33.4658   47.6630 H   0  0  0  0  0  0  0  0  0  0  0  0
   58.2320   35.0379   45.7339 H   0  0  0  0  0  0  0  0  0  0  0  0
   57.6791   34.1464   43.4430 H   0  0  0  0  0  0  0  0  0  0  0  0
  1  2  1  0
  2  3  1  0
  3  4  1  0
  4  5  2  0
  5  6  1  0
  6  7  2  0
  7  8  1  0
  8  9  1  0
  9 10  1  0
  9 11  1  0
  9 12  1  0
  8 13  2  0
 13 14  1  0
  5 15  1  0
 15 16  2  0
 16 17  1  0
 17 18  2  0
 18 19  1  0
 19 20  2  0
 20  3  1  0
 14  6  1  0
 20 15  1  0
  1 21  1  0
  1 22  1  0
  1 23  1  0
  2 24  1  0
  2 25  1  0
  7 26  1  0
 13 27  1  0
 16 28  1  0
 17 29  1  0
 18 30  1  0
 19 31  1  0
M  CHG  1   7   1
M  END
>  <UniqueID>  (22) 
19

>  <SMILES>  (22) 
CCn1nc(-c2[nH+]c(C(F)(F)F)co2)c2ccccc21

>  <Energy>  (22) 
100.70203378107882

>  <Genealogy>  (22) 
CCn1nc(-c2[nH+]c(C(F)(F)F)co2)c2ccccc21 (protonated)
CCn1nc(-c2[nH+]c(C(F)(F)F)co2)c2ccccc21 (3D coordinates assigned)
CCn1nc(-c2[nH+]c(C(F)(F)F)co2)c2ccccc21 (optimized conformer: 100.70203378107882 kcal/mol)

>  <smiles>  (22) 
CCn1nc(-c2nc(C(F)(F)F)co2)c2ccccc21

>  <score_type>  (22) 
oracle

>  <origin>  (22) 
adg

>  <m_score__min__energy>  (22) 
-4.0899999999999999

>  <m_primary>  (22) 
energy

$$$$
22:0
     RDKit          3D

 35 35  0  0  0  0  0  0  0  0999 V2000
   59.0825   31.2090   46.2754 H   0  0  0  0  0  0  0  0  0  0  0  0
   58.5720   30.2380   46.1940 C   0  0  0  0  0  0  0  0  0  0  0  0
   57.3550   30.1590   45.6000 N   0  0  0  0  0  0  0  0  0  0  0  0
   56.6760   28.9810   45.4740 C   0  0  0  0  0  0  0  0  0  0  0  0
   55.5170   28.9650   44.8840 N   0  0  0  0  0  0  0  0  0  0  0  0
   55.1950   29.7190   43.6780 C   0  0  0  0  0  0  0  0  0  0  0  0
   54.7772   30.6973   43.9578 H   0  0  0  0  0  0  0  0  0  0  0  0
   56.1084   29.8669   43.0832 H   0  0  0  0  0  0  0  0  0  0  0  0
   54.4565   29.1615   43.0832 H   0  0  0  0  0  0  0  0  0  0  0  0
   57.2500   27.7850   45.9790 C   0  0  0  0  0  0  0  0  0  0  0  0
   56.5810   26.4570   45.8750 C   0  0  0  0  0  0  0  0  0  0  0  0
   57.2490   25.4460   45.5250 O   0  0  0  0  0  0  0  0  0  0  0  0
   55.1870   26.3090   46.1690 N   0  0  0  0  0  0  0  0  0  0  0  0
   54.3480   25.2470   45.6230 C   0  0  0  0  0  0  0  0  0  0  0  0
   53.4825   25.0980   46.2853 H   0  0  0  0  0  0  0  0  0  0  0  0
   54.0211   25.5462   44.6162 H   0  0  0  0  0  0  0  0  0  0  0  0
   55.1230   23.9260   45.5080 C   0  0  0  0  0  0  0  0  0  0  0  0
   56.0688   24.0255   46.0608 H   0  0  0  0  0  0  0  0  0  0  0  0
   54.4844   23.1333   45.9248 H   0  0  0  0  0  0  0  0  0  0  0  0
   55.4440   23.5400   44.0530 C   0  0  0  0  0  0  0  0  0  0  0  0
   54.5383   23.6712   43.4427 H   0  0  0  0  0  0  0  0  0  0  0  0
   56.2586   24.1899   43.7009 H   0  0  0  0  0  0  0  0  0  0  0  0
   55.8980   22.1350   43.9390 N   0  0  0  0  0  0  0  0  0  0  0  0
   56.7070   21.7680   45.1120 C   0  0  0  0  0  0  0  0  0  0  0  0
   56.1557   22.0181   46.0304 H   0  0  0  0  0  0  0  0  0  0  0  0
   56.9140   20.6879   45.0912 H   0  0  0  0  0  0  0  0  0  0  0  0
   57.6561   22.3237   45.0912 H   0  0  0  0  0  0  0  0  0  0  0  0
   56.6900   21.9260   42.7140 C   0  0  0  0  0  0  0  0  0  0  0  0
   57.7206   21.6540   42.9857 H   0  0  0  0  0  0  0  0  0  0  0  0
   56.2411   21.1156   42.1210 H   0  0  0  0  0  0  0  0  0  0  0  0
   56.6994   22.8524   42.1210 H   0  0  0  0  0  0  0  0  0  0  0  0
   58.5150   27.8670   46.5900 C   0  0  0  0  0  0  0  0  0  0  0  0
   58.9889   26.9562   46.9849 H   0  0  0  0  0  0  0  0  0  0  0  0
   59.1740   29.0910   46.7000 C   0  0  0  0  0  0  0  0  0  0  0  0
   60.1608   29.1487   47.1825 H   0  0  0  0  0  0  0  0  0  0  0  0
  1  2  1  0
  2  3  1  0
  3  4  1  0
  4  5  2  0
  5  6  1  0
  6  7  1  0
  6  8  1  0
  6  9  1  0
  4 10  1  0
 10 11  1  0
 11 12  2  0
 11 13  1  0
 13 14  1  0
 14 15  1  0
 14 16  1  0
 14 17  1  0
 17 18  1  0
 17 19  1  0
 17 20  1  0
 20 21  1  0
 20 22  1  0
 20 23  1  0
 23 24  1  0
 24 25  1  0
 24 26  1  0
 24 27  1  0
 23 28  1  0
 28 29  1  0
 28 30  1  0
 28 31  1  0
 10 32  2  0
 32 33  1  0
 32 34  1  0
 34 35  1  0
 34  2  2  0
M  CHG  2   3  -1  13  -1
M  END
>  <UniqueID>  (23) 
20

>  <SMILES>  (23) 
C/N=c1\[n-]cccc1C(=O)[N-]CCCN(C)C

>  <Energy>  (23) 
29.271519167627105

>  <Genealogy>  (23) 
CN=c1[n-]cccc1C(=O)[N-]CCCN(C)C (protonated)
C/N=c1\[n-]cccc1C(=O)[N-]CCCN(C)C (cis-trans isomerization)
C/N=c1\[n-]cccc1C(=O)[N-]CCCN(C)C (3D coordinates assigned)
C/N=c1\[n-]cccc1C(=O)[N-]CCCN(C)C (optimized conformer: 29.271519167627105 kcal/mol)

>  <smiles>  (23) 
CN=c1[nH]cccc1C(=O)NCCCN(C)C

>  <score_type>  (23) 
oracle

>  <origin>  (23) 
adg

>  <m_score__min__energy>  (23) 
-9.5099999999999998

>  <m_primary>  (23) 
energy

$$$$
23:0
     RDKit          3D

 34 34  0  0  0  0  0  0  0  0999 V2000
   57.0980   32.3330   41.0510 C   0  0  0  0  0  0  0  0  0  0  0  0
   58.1400   31.9740   42.1040 C   0  0  0  0  0  0  0  0  0  0  0  0
   57.5220   31.7590   43.3700 O   0  0  0  0  0  0  0  0  0  0  0  0
   56.5990   30.7360   43.6130 C   0  0  0  0  0  0  0  0  0  0  0  0
   55.7340   30.8490   44.5240 O   0  0  0  0  0  0  0  0  0  0  0  0
   56.6660   29.4780   42.8080 C   0  0  0  0  0  0  0  0  0  0  0  0
   57.3430   28.4200   43.5590 N   0  0  0  0  0  0  0  0  0  0  0  0
   58.4560   28.6700   44.4350 C   0  0  0  0  0  0  0  0  0  0  0  0
   59.2310   27.3910   45.1110 S   0  0  0  0  0  0  0  0  0  0  0  0
   58.8130   30.0090   44.8350 N   0  0  0  0  0  0  0  0  0  0  0  0
   59.7940   29.9630   45.9290 C   0  0  0  0  0  0  0  0  0  0  0  0
   59.4200   30.9560   47.0350 C   0  0  0  0  0  0  0  0  0  0  0  0
   59.0430   32.2800   46.4450 C   0  0  0  0  0  0  0  0  0  0  0  0
   57.7490   32.7460   46.2490 C   0  0  0  0  0  0  0  0  0  0  0  0
   57.7050   34.0560   45.7560 C   0  0  0  0  0  0  0  0  0  0  0  0
   58.9580   34.6270   45.5790 C   0  0  0  0  0  0  0  0  0  0  0  0
   60.1230   33.5030   46.0400 S   0  0  0  0  0  0  0  0  0  0  0  0
   56.1700   32.6527   41.5476 H   0  0  0  0  0  0  0  0  0  0  0  0
   57.4786   33.1518   40.4228 H   0  0  0  0  0  0  0  0  0  0  0  0
   56.8935   31.4535   40.4228 H   0  0  0  0  0  0  0  0  0  0  0  0
   58.6629   31.0563   41.7967 H   0  0  0  0  0  0  0  0  0  0  0  0
   58.8530   32.8067   42.1949 H   0  0  0  0  0  0  0  0  0  0  0  0
   55.6447   29.1507   42.5635 H   0  0  0  0  0  0  0  0  0  0  0  0
   57.2332   29.6769   41.8868 H   0  0  0  0  0  0  0  0  0  0  0  0
   57.0440   27.4270   43.4180 H   0  0  0  0  0  0  0  0  0  0  0  0
   59.2270   30.5140   44.0170 H   0  0  0  0  0  0  0  0  0  0  0  0
   57.9620   30.5360   45.1350 H   0  0  0  0  0  0  0  0  0  0  0  0
   59.8185   28.9468   46.3494 H   0  0  0  0  0  0  0  0  0  0  0  0
   60.7821   30.2349   45.5293 H   0  0  0  0  0  0  0  0  0  0  0  0
   58.5680   30.5582   47.6058 H   0  0  0  0  0  0  0  0  0  0  0  0
   60.2876   31.0952   47.6967 H   0  0  0  0  0  0  0  0  0  0  0  0
   56.8507   32.1471   46.4596 H   0  0  0  0  0  0  0  0  0  0  0  0
   56.7662   34.5829   45.5303 H   0  0  0  0  0  0  0  0  0  0  0  0
   59.1558   35.6412   45.2018 H   0  0  0  0  0  0  0  0  0  0  0  0
  1  2  1  0
  2  3  1  0
  3  4  1  0
  4  5  2  0
  4  6  1  0
  6  7  1  0
  7  8  1  0
  8  9  2  0
  8 10  1  0
 10 11  1  0
 11 12  1  0
 12 13  1  0
 13 14  2  0
 14 15  1  0
 15 16  2  0
 16 17  1  0
 17 13  1  0
  1 18  1  0
  1 19  1  0
  1 20  1  0
  2 21  1  0
  2 22  1  0
  6 23  1  0
  6 24  1  0
  7 25  1  0
 10 26  1  0
 10 27  1  0
 11 28  1  0
 11 29  1  0
 12 30  1  0
 12 31  1  0
 14 32  1  0
 15 33  1  0
 16 34  1  0
M  CHG  1  10   1
M  END
>  <UniqueID>  (24) 
21

>  <SMILES>  (24) 
CCOC(=O)CNC(=S)[NH2+]CCc1cccs1

>  <Energy>  (24) 
46.99576341985917

>  <Genealogy>  (24) 
CCOC(=O)CNC(=S)[NH2+]CCc1cccs1 (protonated)
CCOC(=O)CNC(=S)[NH2+]CCc1cccs1 (3D coordinates assigned)
CCOC(=O)CNC(=S)[NH2+]CCc1cccs1 (optimized conformer: 46.99576341985917 kcal/mol)

>  <smiles>  (24) 
CCOC(=O)CNC(=S)NCCc1cccs1

>  <score_type>  (24) 
oracle

>  <origin>  (24) 
adg

>  <m_score__min__energy>  (24) 
-3.96

>  <m_primary>  (24) 
energy

$$$$
24:0
     RDKit          3D

 25 26  0  0  0  0  0  0  0  0999 V2000
   57.7250   31.3310   45.1810 C   0  0  0  0  0  0  0  0  0  0  0  0
   58.5050   32.5720   45.4990 C   0  0  0  0  0  0  0  0  0  0  0  0
   58.1090   33.8100   44.9730 C   0  0  0  0  0  0  0  0  0  0  0  0
   58.8590   34.9580   45.2360 C   0  0  0  0  0  0  0  0  0  0  0  0
   60.0160   34.8780   46.0150 C   0  0  0  0  0  0  0  0  0  0  0  0
   60.4400   33.6430   46.5380 C   0  0  0  0  0  0  0  0  0  0  0  0
   61.6750   33.5550   47.3590 C   0  0  0  0  0  0  0  0  0  0  0  0
   61.6690   33.9290   48.7130 C   0  0  0  0  0  0  0  0  0  0  0  0
   62.8360   33.8420   49.4710 C   0  0  0  0  0  0  0  0  0  0  0  0
   64.0090   33.3800   48.8720 C   0  0  0  0  0  0  0  0  0  0  0  0
   64.0080   33.0190   47.5600 N   0  0  0  0  0  0  0  0  0  0  0  0
   62.8820   33.0970   46.8000 C   0  0  0  0  0  0  0  0  0  0  0  0
   59.6780   32.4910   46.2670 C   0  0  0  0  0  0  0  0  0  0  0  0
   57.4173   30.8415   46.1168 H   0  0  0  0  0  0  0  0  0  0  0  0
   56.8324   31.5986   44.5965 H   0  0  0  0  0  0  0  0  0  0  0  0
   58.3532   30.6428   44.5965 H   0  0  0  0  0  0  0  0  0  0  0  0
   57.2043   33.8770   44.3509 H   0  0  0  0  0  0  0  0  0  0  0  0
   58.5380   35.9281   44.8287 H   0  0  0  0  0  0  0  0  0  0  0  0
   60.5996   35.7874   46.2208 H   0  0  0  0  0  0  0  0  0  0  0  0
   60.7400   34.2919   49.1771 H   0  0  0  0  0  0  0  0  0  0  0  0
   62.8323   34.1348   50.5313 H   0  0  0  0  0  0  0  0  0  0  0  0
   64.9351   33.3077   49.4611 H   0  0  0  0  0  0  0  0  0  0  0  0
   64.8930   32.6720   47.1270 H   0  0  0  0  0  0  0  0  0  0  0  0
   62.9157   32.7999   45.7414 H   0  0  0  0  0  0  0  0  0  0  0  0
   60.0046   31.5172   46.6608 H   0  0  0  0  0  0  0  0  0  0  0  0
  1  2  1  0
  2  3  2  0
  3  4  1  0
  4  5  2  0
  5  6  1  0
  6  7  1  0
  7  8  2  0
  8  9  1  0
  9 10  2  0
 10 11  1  0
 11 12  2  0
  6 13  2  0
 13  2  1  0
 12  7  1  0
  1 14  1  0
  1 15  1  0
  1 16  1  0
  3 17  1  0
  4 18  1  0
  5 19  1  0
  8 20  1  0
  9 21  1  0
 10 22  1  0
 11 23  1  0
 12 24  1  0
 13 25  1  0
M  CHG  1  11   1
M  END
>  <UniqueID>  (25) 
22

>  <SMILES>  (25) 
Cc1cccc(-c2ccc[nH+]c2)c1

>  <Energy>  (25) 
29.950627479466384

>  <Genealogy>  (25) 
Cc1cccc(-c2ccc[nH+]c2)c1 (protonated)
Cc1cccc(-c2ccc[nH+]c2)c1 (3D coordinates assigned)
Cc1cccc(-c2ccc[nH+]c2)c1 (optimized conformer: 29.950627479466384 kcal/mol)

>  <smiles>  (25) 
Cc1cccc(-c2cccnc2)c1

>  <score_type>  (25) 
oracle

>  <origin>  (25) 
adg

>  <m_score__min__energy>  (25) 
-4.6200000000000001

>  <m_primary>  (25) 
energy

$$$$
25:0
     RDKit          3D

 42 45  0  0  0  0  0  0  0  0999 V2000
   58.1400   27.0900   42.9990 C   0  0  0  0  0  0  0  0  0  0  0  0
   57.9490   27.4280   44.3690 O   0  0  0  0  0  0  0  0  0  0  0  0
   58.6690   28.4220   45.0480 C   0  0  0  0  0  0  0  0  0  0  0  0
   60.0660   28.5570   44.9280 C   0  0  0  0  0  0  0  0  0  0  0  0
   60.7380   29.5680   45.6240 C   0  0  0  0  0  0  0  0  0  0  0  0
   60.0280   30.4660   46.4330 C   0  0  0  0  0  0  0  0  0  0  0  0
   60.7520   31.5170   47.1800 C   0  0  0  0  0  0  0  0  0  0  0  0
   61.8490   31.1480   47.8950 N   0  0  0  0  0  0  0  0  0  0  0  0
   62.5290   32.0280   48.6700 C   0  0  0  0  0  0  0  0  0  0  0  0
   63.6530   31.6140   49.3920 C   0  0  0  0  0  0  0  0  0  0  0  0
   64.3490   32.5220   50.2010 C   0  0  0  0  0  0  0  0  0  0  0  0
   65.4700   32.0600   50.9060 O   0  0  0  0  0  0  0  0  0  0  0  0
   66.8180   32.3090   50.5240 C   0  0  0  0  0  0  0  0  0  0  0  0
   63.9040   33.8570   50.2790 C   0  0  0  0  0  0  0  0  0  0  0  0
   62.7810   34.2720   49.5580 C   0  0  0  0  0  0  0  0  0  0  0  0
   62.0860   33.3600   48.7500 C   0  0  0  0  0  0  0  0  0  0  0  0
   60.9960   33.7450   48.0300 N   0  0  0  0  0  0  0  0  0  0  0  0
   60.3230   32.8670   47.2270 C   0  0  0  0  0  0  0  0  0  0  0  0
   59.2120   33.3740   46.3910 C   0  0  0  0  0  0  0  0  0  0  0  0
   59.3190   33.7960   45.0700 C   0  0  0  0  0  0  0  0  0  0  0  0
   58.0920   34.1550   44.5000 C   0  0  0  0  0  0  0  0  0  0  0  0
   57.0110   34.0030   45.3580 C   0  0  0  0  0  0  0  0  0  0  0  0
   57.5830   33.4170   46.8260 S   0  0  0  0  0  0  0  0  0  0  0  0
   58.6380   30.3160   46.5690 C   0  0  0  0  0  0  0  0  0  0  0  0
   57.9660   29.3060   45.8740 C   0  0  0  0  0  0  0  0  0  0  0  0
   58.6801   26.1343   42.9290 H   0  0  0  0  0  0  0  0  0  0  0  0
   57.1618   26.9955   42.5048 H   0  0  0  0  0  0  0  0  0  0  0  0
   58.7257   27.8792   42.5048 H   0  0  0  0  0  0  0  0  0  0  0  0
   60.6304   27.8655   44.2852 H   0  0  0  0  0  0  0  0  0  0  0  0
   61.8307   29.6587   45.5357 H   0  0  0  0  0  0  0  0  0  0  0  0
   63.9925   30.5699   49.3244 H   0  0  0  0  0  0  0  0  0  0  0  0
   67.4391   32.4237   51.4246 H   0  0  0  0  0  0  0  0  0  0  0  0
   67.1916   31.4647   49.9261 H   0  0  0  0  0  0  0  0  0  0  0  0
   66.8653   33.2311   49.9261 H   0  0  0  0  0  0  0  0  0  0  0  0
   64.4441   34.5770   50.9114 H   0  0  0  0  0  0  0  0  0  0  0  0
   62.4414   35.3162   49.6243 H   0  0  0  0  0  0  0  0  0  0  0  0
   60.6890   34.7450   48.0690 H   0  0  0  0  0  0  0  0  0  0  0  0
   60.2742   33.8430   44.5265 H   0  0  0  0  0  0  0  0  0  0  0  0
   57.9933   34.5233   43.4682 H   0  0  0  0  0  0  0  0  0  0  0  0
   55.9611   34.2274   45.1184 H   0  0  0  0  0  0  0  0  0  0  0  0
   58.0756   30.9963   47.2254 H   0  0  0  0  0  0  0  0  0  0  0  0
   56.8755   29.2054   45.9774 H   0  0  0  0  0  0  0  0  0  0  0  0
  1  2  1  0
  2  3  1  0
  3  4  2  0
  4  5  1  0
  5  6  2  0
  6  7  1  0
  7  8  2  0
  8  9  1  0
  9 10  2  0
 10 11  1  0
 11 12  1  0
 12 13  1  0
 11 14  2  0
 14 15  1  0
 15 16  2  0
 16 17  1  0
 17 18  2  0
 18 19  1  0
 19 20  2  0
 20 21  1  0
 21 22  2  0
 22 23  1  0
  6 24  1  0
 24 25  2  0
 25  3  1  0
 18  7  1  0
 23 19  1  0
 16  9  1  0
  1 26  1  0
  1 27  1  0
  1 28  1  0
  4 29  1  0
  5 30  1  0
 10 31  1  0
 13 32  1  0
 13 33  1  0
 13 34  1  0
 14 35  1  0
 15 36  1  0
 17 37  1  0
 20 38  1  0
 21 39  1  0
 22 40  1  0
 24 41  1  0
 25 42  1  0
M  CHG  1  17   1
M  END
>  <UniqueID>  (26) 
23

>  <SMILES>  (26) 
COc1ccc(-c2nc3cc(OC)ccc3[nH+]c2-c2cccs2)cc1

>  <Energy>  (26) 
85.66218111049783

>  <Genealogy>  (26) 
COc1ccc(-c2nc3cc(OC)ccc3[nH+]c2-c2cccs2)cc1 (protonated)
COc1ccc(-c2nc3cc(OC)ccc3[nH+]c2-c2cccs2)cc1 (3D coordinates assigned)
COc1ccc(-c2nc3cc(OC)ccc3[nH+]c2-c2cccs2)cc1 (optimized conformer: 85.66218111049783 kcal/mol)

>  <smiles>  (26) 
COc1ccc(-c2nc3cc(OC)ccc3nc2-c2cccs2)cc1

>  <score_type>  (26) 
oracle

>  <origin>  (26) 
adg

>  <m_score__min__energy>  (26) 
-5.4400000000000004

>  <m_primary>  (26) 
energy

$$$$
26:0
     RDKit          3D

 35 37  0  0  0  0  0  0  0  0999 V2000
   60.3930   28.0090   48.5580 C   0  0  0  0  0  0  0  0  0  0  0  0
   59.1480   28.7680   48.2160 C   0  0  0  0  0  0  0  0  0  0  0  0
   58.5560   29.3630   49.1520 O   0  0  0  0  0  0  0  0  0  0  0  0
   58.6670   28.8040   46.8850 N   0  0  0  0  0  0  0  0  0  0  0  0
   58.5490   30.0690   46.2050 C   0  0  0  0  0  0  0  0  0  0  0  0
   57.8710   29.9390   44.8640 C   0  0  0  0  0  0  0  0  0  0  0  0
   58.2980   28.6910   44.1300 C   0  0  0  0  0  0  0  0  0  0  0  0
   58.1320   27.4750   44.9260 C   0  0  0  0  0  0  0  0  0  0  0  0
   57.7960   26.3040   44.2730 C   0  0  0  0  0  0  0  0  0  0  0  0
   57.6530   25.1810   45.0780 C   0  0  0  0  0  0  0  0  0  0  0  0
   57.2970   23.8710   44.5250 C   0  0  0  0  0  0  0  0  0  0  0  0
   56.1950   23.7140   43.7050 C   0  0  0  0  0  0  0  0  0  0  0  0
   55.8800   22.4940   43.2000 N   0  0  0  0  0  0  0  0  0  0  0  0
   56.6410   21.4190   43.4960 C   0  0  0  0  0  0  0  0  0  0  0  0
   56.3140   20.2840   43.0040 N   0  0  0  0  0  0  0  0  0  0  0  0
   57.7100   21.5750   44.2930 N   0  0  0  0  0  0  0  0  0  0  0  0
   58.0800   22.7510   44.8260 C   0  0  0  0  0  0  0  0  0  0  0  0
   57.8430   25.2560   46.4560 C   0  0  0  0  0  0  0  0  0  0  0  0
   58.1740   26.4450   47.0390 N   0  0  0  0  0  0  0  0  0  0  0  0
   58.3210   27.5520   46.2900 C   0  0  0  0  0  0  0  0  0  0  0  0
   60.4956   27.9465   49.6514 H   0  0  0  0  0  0  0  0  0  0  0  0
   60.3314   26.9947   48.1369 H   0  0  0  0  0  0  0  0  0  0  0  0
   61.2664   28.5284   48.1369 H   0  0  0  0  0  0  0  0  0  0  0  0
   57.9612   30.7544   46.8332 H   0  0  0  0  0  0  0  0  0  0  0  0
   59.5651   30.4530   46.0316 H   0  0  0  0  0  0  0  0  0  0  0  0
   56.7825   29.9044   45.0188 H   0  0  0  0  0  0  0  0  0  0  0  0
   58.1600   30.8068   44.2529 H   0  0  0  0  0  0  0  0  0  0  0  0
   57.6927   28.5973   43.2163 H   0  0  0  0  0  0  0  0  0  0  0  0
   59.3697   28.7926   43.9038 H   0  0  0  0  0  0  0  0  0  0  0  0
   57.6508   26.2639   43.1834 H   0  0  0  0  0  0  0  0  0  0  0  0
   55.5686   24.5844   43.4599 H   0  0  0  0  0  0  0  0  0  0  0  0
   56.6570   19.3640   43.3390 H   0  0  0  0  0  0  0  0  0  0  0  0
   58.2840   20.7300   44.5080 H   0  0  0  0  0  0  0  0  0  0  0  0
   58.9649   22.8307   45.4745 H   0  0  0  0  0  0  0  0  0  0  0  0
   57.7260   24.3548   47.0758 H   0  0  0  0  0  0  0  0  0  0  0  0
  1  2  1  0
  2  3  2  0
  2  4  1  0
  4  5  1  0
  5  6  1  0
  6  7  1  0
  7  8  1  0
  8  9  2  0
  9 10  1  0
 10 11  1  0
 11 12  1  0
 12 13  2  0
 13 14  1  0
 14 15  2  3
 14 16  1  0
 16 17  1  0
 10 18  2  0
 18 19  1  0
 19 20  2  0
 20  4  1  0
 20  8  1  0
 17 11  2  0
  1 21  1  0
  1 22  1  0
  1 23  1  0
  5 24  1  0
  5 25  1  0
  6 26  1  0
  6 27  1  0
  7 28  1  0
  7 29  1  0
  9 30  1  0
 12 31  1  0
 15 32  1  0
 16 33  1  0
 17 34  1  0
 18 35  1  0
M  END
>  <smiles>  (27) 
CC(=O)N1CCCc2cc(-c3cnc(=N)[nH]c3)cnc21

>  <score_type>  (27) 
oracle

>  <origin>  (27) 
adg

>  <m_score__min__energy>  (27) 
-7.0099999999999998

>  <m_primary>  (27) 
energy

$$$$
27:0
     RDKit          3D

 33 35  0  0  0  0  0  0  0  0999 V2000
   61.3450   33.6100   47.9300 C   0  0  0  0  0  0  0  0  0  0  0  0
   59.8340   33.8400   48.1790 C   0  0  0  0  0  0  0  0  0  0  0  0
   59.6570   34.2320   49.6610 C   0  0  0  0  0  0  0  0  0  0  0  0
   59.3040   34.9970   47.2950 C   0  0  0  0  0  0  0  0  0  0  0  0
   59.2900   34.6530   45.8270 C   0  0  0  0  0  0  0  0  0  0  0  0
   59.3680   35.5610   45.0120 O   0  0  0  0  0  0  0  0  0  0  0  0
   59.2280   33.2190   45.3500 C   0  0  2  0  0  0  0  0  0  0  0  0
   58.4070   33.1080   44.1360 N   0  0  0  0  0  0  0  0  0  0  0  0
   57.7560   31.8750   43.8150 C   0  0  0  0  0  0  0  0  0  0  0  0
   57.2780   31.6160   42.5220 C   0  0  0  0  0  0  0  0  0  0  0  0
   56.6440   30.4010   42.2450 C   0  0  0  0  0  0  0  0  0  0  0  0
   56.4790   29.4480   43.2570 C   0  0  0  0  0  0  0  0  0  0  0  0
   56.9480   29.7110   44.5500 C   0  0  0  0  0  0  0  0  0  0  0  0
   57.5910   30.9230   44.8250 C   0  0  0  0  0  0  0  0  0  0  0  0
   58.0250   31.2280   46.1530 N   0  0  0  0  0  0  0  0  0  0  0  0
   58.7230   32.2880   46.4480 C   0  0  0  0  0  0  0  0  0  0  0  0
   59.0310   32.5400   47.9040 C   0  0  0  0  0  0  0  0  0  0  0  0
   61.8676   33.5304   48.8946 H   0  0  0  0  0  0  0  0  0  0  0  0
   61.4852   32.6802   47.3592 H   0  0  0  0  0  0  0  0  0  0  0  0
   61.7555   34.4560   47.3592 H   0  0  0  0  0  0  0  0  0  0  0  0
   60.0248   33.4174   50.3022 H   0  0  0  0  0  0  0  0  0  0  0  0
   60.2286   35.1486   49.8686 H   0  0  0  0  0  0  0  0  0  0  0  0
   58.5914   34.4094   49.8686 H   0  0  0  0  0  0  0  0  0  0  0  0
   58.2776   35.2373   47.6092 H   0  0  0  0  0  0  0  0  0  0  0  0
   59.9829   35.8523   47.4278 H   0  0  0  0  0  0  0  0  0  0  0  0
   60.2510   32.9028   45.0979 H   0  0  0  0  0  0  0  0  0  0  0  0
   58.5140   33.8230   43.3800 H   0  0  0  0  0  0  0  0  0  0  0  0
   57.4016   32.3670   41.7278 H   0  0  0  0  0  0  0  0  0  0  0  0
   56.2742   30.1936   41.2300 H   0  0  0  0  0  0  0  0  0  0  0  0
   55.9808   28.4924   43.0365 H   0  0  0  0  0  0  0  0  0  0  0  0
   56.8112   28.9663   45.3479 H   0  0  0  0  0  0  0  0  0  0  0  0
   58.0783   32.6031   48.4503 H   0  0  0  0  0  0  0  0  0  0  0  0
   59.6651   31.7054   48.2376 H   0  0  0  0  0  0  0  0  0  0  0  0
  1  2  1  0
  2  3  1  0
  2  4  1  0
  4  5  1  0
  5  6  2  0
  5  7  1  0
  7  8  1  0
  8  9  1  0
  9 10  2  0
 10 11  1  0
 11 12  2  0
 12 13  1  0
 13 14  2  0
 14 15  1  0
 15 16  2  0
 16 17  1  0
 17  2  1  0
 16  7  1  0
 14  9  1  0
  1 18  1  0
  1 19  1  0
  1 20  1  0
  3 21  1  0
  3 22  1  0
  3 23  1  0
  4 24  1  0
  4 25  1  0
  7 26  1  6
  8 27  1  0
 10 28  1  0
 11 29  1  0
 12 30  1  0
 13 31  1  0
 17 32  1  0
 17 33  1  0
M  END
>  <UniqueID>  (28) 
24

>  <SMILES>  (28) 
CC1(C)CC(=O)[C@@H]2Nc3ccccc3N=C2C1

>  <Energy>  (28) 
37.11711817325421

>  <Genealogy>  (28) 
CC1(C)CC(=O)[C@@H]2Nc3ccccc3N=C2C1 (chirality)
CC1(C)CC(=O)[C@@H]2Nc3ccccc3N=C2C1 (3D coordinates assigned)
CC1(C)CC(=O)[C@@H]2Nc3ccccc3N=C2C1 (nonaromatic ring conformer: 37.11711817325421 kcal/mol)

>  <smiles>  (28) 
CC1(C)CC(=O)C2Nc3ccccc3N=C2C1

>  <score_type>  (28) 
oracle

>  <origin>  (28) 
adg

>  <m_score__min__energy>  (28) 
-6.9500000000000002

>  <m_primary>  (28) 
energy

$$$$
28:0
     RDKit          3D

 39 42  0  0  0  0  0  0  0  0999 V2000
   57.7820   34.2060   44.8770 C   0  0  0  0  0  0  0  0  0  0  0  0
   59.2250   34.6330   45.1180 C   0  0  0  0  0  0  0  0  0  0  0  0
   59.6770   34.1640   46.4240 N   0  0  0  0  0  0  0  0  0  0  0  0
   58.8920   33.6820   47.4040 C   0  0  0  0  0  0  0  0  0  0  0  0
   59.6850   33.4290   48.5070 C   0  0  0  0  0  0  0  0  0  0  0  0
   59.2000   33.0040   49.8360 C   0  0  0  0  0  0  0  0  0  0  0  0
   59.3730   33.8340   50.9600 C   0  0  0  0  0  0  0  0  0  0  0  0
   58.8960   33.4400   52.2130 C   0  0  0  0  0  0  0  0  0  0  0  0
   58.2290   32.2190   52.3530 C   0  0  0  0  0  0  0  0  0  0  0  0
   57.7590   31.8200   53.5640 N   0  0  0  0  0  0  0  0  0  0  0  0
   57.1040   30.6380   53.7080 C   0  0  0  0  0  0  0  0  0  0  0  0
   56.9090   29.8170   52.5930 C   0  0  0  0  0  0  0  0  0  0  0  0
   57.3770   30.2100   51.3790 N   0  0  0  0  0  0  0  0  0  0  0  0
   58.0320   31.3920   51.2280 C   0  0  0  0  0  0  0  0  0  0  0  0
   58.5100   31.7880   49.9750 C   0  0  0  0  0  0  0  0  0  0  0  0
   60.9700   33.7870   48.1080 C   0  0  0  0  0  0  0  0  0  0  0  0
   62.2260   33.6540   48.8650 C   0  0  0  0  0  0  0  0  0  0  0  0
   62.5150   34.2190   50.1050 C   0  0  0  0  0  0  0  0  0  0  0  0
   63.7690   33.8480   50.6040 C   0  0  0  0  0  0  0  0  0  0  0  0
   64.4630   32.9930   49.7590 C   0  0  0  0  0  0  0  0  0  0  0  0
   65.7790   32.3530   50.0570 C   0  0  0  0  0  0  0  0  0  0  0  0
   63.5110   32.6640   48.4140 S   0  0  0  0  0  0  0  0  0  0  0  0
   60.9320   34.2430   46.8400 N   0  0  0  0  0  0  0  0  0  0  0  0
   57.2776   34.0567   45.8431 H   0  0  0  0  0  0  0  0  0  0  0  0
   57.2586   34.9878   44.3070 H   0  0  0  0  0  0  0  0  0  0  0  0
   57.7683   33.2653   44.3070 H   0  0  0  0  0  0  0  0  0  0  0  0
   59.8670   34.2029   44.3351 H   0  0  0  0  0  0  0  0  0  0  0  0
   59.2842   35.7311   45.0903 H   0  0  0  0  0  0  0  0  0  0  0  0
   57.8063   33.5176   47.3387 H   0  0  0  0  0  0  0  0  0  0  0  0
   59.8876   34.8001   50.8510 H   0  0  0  0  0  0  0  0  0  0  0  0
   59.0450   34.0896   53.0881 H   0  0  0  0  0  0  0  0  0  0  0  0
   56.7297   30.3292   54.6952 H   0  0  0  0  0  0  0  0  0  0  0  0
   56.3798   28.8584   52.6978 H   0  0  0  0  0  0  0  0  0  0  0  0
   58.3455   31.1465   49.0967 H   0  0  0  0  0  0  0  0  0  0  0  0
   61.8262   34.8901   50.6390 H   0  0  0  0  0  0  0  0  0  0  0  0
   64.1647   34.1987   51.5686 H   0  0  0  0  0  0  0  0  0  0  0  0
   65.9160   32.2864   51.1464 H   0  0  0  0  0  0  0  0  0  0  0  0
   65.8024   31.3429   49.6220 H   0  0  0  0  0  0  0  0  0  0  0  0
   66.5880   32.9583   49.6220 H   0  0  0  0  0  0  0  0  0  0  0  0
  1  2  1  0
  2  3  1  0
  3  4  1  0
  4  5  2  0
  5  6  1  0
  6  7  2  0
  7  8  1  0
  8  9  2  0
  9 10  1  0
 10 11  2  0
 11 12  1  0
 12 13  2  0
 13 14  1  0
 14 15  2  0
  5 16  1  0
 16 17  1  0
 17 18  2  0
 18 19  1  0
 19 20  2  0
 20 21  1  0
 20 22  1  0
 16 23  2  0
 23  3  1  0
 15  6  1  0
 22 17  1  0
 14  9  1  0
  1 24  1  0
  1 25  1  0
  1 26  1  0
  2 27  1  0
  2 28  1  0
  4 29  1  0
  7 30  1  0
  8 31  1  0
 11 32  1  0
 12 33  1  0
 15 34  1  0
 18 35  1  0
 19 36  1  0
 21 37  1  0
 21 38  1  0
 21 39  1  0
M  END
>  <UniqueID>  (29) 
25

>  <SMILES>  (29) 
CCn1cc(-c2ccc3nccnc3c2)c(-c2ccc(C)s2)n1

>  <Energy>  (29) 
104.28871749884522

>  <Genealogy>  (29) 
CCn1cc(-c2ccc3nccnc3c2)c(-c2ccc(C)s2)n1 (3D coordinates assigned)
CCn1cc(-c2ccc3nccnc3c2)c(-c2ccc(C)s2)n1 (optimized conformer: 104.28871749884522 kcal/mol)

>  <smiles>  (29) 
CCn1cc(-c2ccc3nccnc3c2)c(-c2ccc(C)s2)n1

>  <score_type>  (29) 
oracle

>  <origin>  (29) 
adg

>  <m_score__min__energy>  (29) 
-7.2800000000000002

>  <m_primary>  (29) 
energy

$$$$
29:0
     RDKit          3D

 43 44  0  0  1  0  0  0  0  0999 V2000
   57.6960   32.6810   40.7260 C   0  0  0  0  0  0  0  0  0  0  0  0
   57.0170   31.5730   41.3770 N   0  0  0  0  0  0  0  0  0  0  0  0
   57.0200   31.4010   42.6550 C   0  0  0  0  0  0  0  0  0  0  0  0
   57.3970   32.3960   43.4800 N   0  0  0  0  0  0  0  0  0  0  0  0
   57.4070   32.2350   44.8120 C   0  0  0  0  0  0  0  0  0  0  0  0
   57.7950   33.2460   45.7290 N   0  0  0  0  0  0  0  0  0  0  0  0
   57.8050   33.0780   47.1620 C   0  0  0  0  0  0  0  0  0  0  0  0
   59.2250   33.2730   47.6190 C   0  0  0  0  0  0  0  0  0  0  0  0
   59.7170   34.6620   47.2590 C   0  0  0  0  0  0  0  0  0  0  0  0
   59.5700   34.9440   45.7980 C   0  0  0  0  0  0  0  0  0  0  0  0
   58.2180   34.5570   45.2320 C   0  0  0  0  0  0  0  0  0  0  0  0
   57.0220   31.0340   45.2820 N   0  0  0  0  0  0  0  0  0  0  0  0
   56.6370   30.0150   44.4780 C   0  0  0  0  0  0  0  0  0  0  0  0
   56.2950   28.9250   45.0580 N   0  0  0  0  0  0  0  0  0  0  0  0
   57.2760   27.9310   45.3490 C   0  0  0  0  0  0  0  0  0  0  0  0
   58.5870   28.4430   45.8570 C   0  0  0  0  0  0  0  0  0  0  0  0
   59.1060   27.3970   46.8350 C   0  0  0  0  0  0  0  0  0  0  0  0
   59.6320   28.5430   44.7680 C   0  0  0  0  0  0  0  0  0  0  0  0
   56.6400   30.2110   43.1530 N   0  0  0  0  0  0  0  0  0  0  0  0
   58.1100   33.3566   41.4890 H   0  0  0  0  0  0  0  0  0  0  0  0
   58.5117   32.2932   40.0981 H   0  0  0  0  0  0  0  0  0  0  0  0
   56.9801   33.2318   40.0981 H   0  0  0  0  0  0  0  0  0  0  0  0
   57.6790   33.2850   43.0560 H   0  0  0  0  0  0  0  0  0  0  0  0
   57.1504   33.8252   47.6343 H   0  0  0  0  0  0  0  0  0  0  0  0
   57.4364   32.0802   47.4424 H   0  0  0  0  0  0  0  0  0  0  0  0
   59.2743   33.1438   48.7103 H   0  0  0  0  0  0  0  0  0  0  0  0
   59.8634   32.5303   47.1181 H   0  0  0  0  0  0  0  0  0  0  0  0
   59.1340   35.4036   47.8248 H   0  0  0  0  0  0  0  0  0  0  0  0
   60.7859   34.7214   47.5119 H   0  0  0  0  0  0  0  0  0  0  0  0
   59.7176   36.0220   45.6365 H   0  0  0  0  0  0  0  0  0  0  0  0
   60.3217   34.3328   45.2770 H   0  0  0  0  0  0  0  0  0  0  0  0
   57.4746   35.3112   45.5295 H   0  0  0  0  0  0  0  0  0  0  0  0
   58.2992   34.5061   44.1362 H   0  0  0  0  0  0  0  0  0  0  0  0
   56.8582   27.2566   46.1111 H   0  0  0  0  0  0  0  0  0  0  0  0
   57.4973   27.4383   44.3907 H   0  0  0  0  0  0  0  0  0  0  0  0
   58.4258   29.4414   46.2898 H   0  0  0  0  0  0  0  0  0  0  0  0
   58.9350   27.7417   47.8655 H   0  0  0  0  0  0  0  0  0  0  0  0
   58.5744   26.4477   46.6729 H   0  0  0  0  0  0  0  0  0  0  0  0
   60.1835   27.2461   46.6729 H   0  0  0  0  0  0  0  0  0  0  0  0
   60.6286   28.6384   45.2238 H   0  0  0  0  0  0  0  0  0  0  0  0
   59.5992   27.6376   44.1441 H   0  0  0  0  0  0  0  0  0  0  0  0
   59.4281   29.4257   44.1441 H   0  0  0  0  0  0  0  0  0  0  0  0
   56.3500   29.4460   42.5240 H   0  0  0  0  0  0  0  0  0  0  0  0
  1  2  1  0
  2  3  2  0
  3  4  1  0
  4  5  1  0
  5  6  1  0
  6  7  1  0
  7  8  1  0
  8  9  1  0
  9 10  1  0
 10 11  1  0
  5 12  2  0
 12 13  1  0
 13 14  2  0
 14 15  1  0
 15 16  1  0
 16 17  1  0
 16 18  1  0
 13 19  1  0
 19  3  1  0
 11  6  1  0
  1 20  1  0
  1 21  1  0
  1 22  1  0
  4 23  1  0
  7 24  1  0
  7 25  1  0
  8 26  1  0
  8 27  1  0
  9 28  1  0
  9 29  1  0
 10 30  1  0
 10 31  1  0
 11 32  1  0
 11 33  1  0
 15 34  1  0
 15 35  1  0
 16 36  1  0
 17 37  1  0
 17 38  1  0
 17 39  1  0
 18 40  1  0
 18 41  1  0
 18 42  1  0
 19 43  1  0
M  END
>  <smiles>  (30) 
CN=c1[nH]c(N2CCCCC2)nc(=NCC(C)C)[nH]1

>  <score_type>  (30) 
oracle

>  <origin>  (30) 
adg

>  <m_score__min__energy>  (30) 
-6.9800000000000004

>  <m_primary>  (30) 
energy

$$$$
30:0
     RDKit          3D

 50 53  0  0  0  0  0  0  0  0999 V2000
   56.0620   29.7120   42.9800 C   0  0  0  0  0  0  0  0  0  0  0  0
   56.5600   29.8750   44.4200 C   0  0  1  0  0  0  0  0  0  0  0  0
   57.3890   28.6790   44.8450 C   0  0  0  0  0  0  0  0  0  0  0  0
   57.5740   27.7240   44.0420 O   0  0  0  0  0  0  0  0  0  0  0  0
   57.9060   28.5590   46.1780 N   0  0  0  0  0  0  0  0  0  0  0  0
   59.0160   29.2900   46.7160 C   0  0  0  0  0  0  0  0  0  0  0  0
   60.0890   29.6230   45.8810 C   0  0  0  0  0  0  0  0  0  0  0  0
   61.1600   30.3790   46.3720 C   0  0  0  0  0  0  0  0  0  0  0  0
   61.1620   30.8230   47.7040 C   0  0  0  0  0  0  0  0  0  0  0  0
   62.2490   31.6250   48.1980 N   0  0  0  0  0  0  0  0  0  0  0  0
   62.5840   31.5690   49.6270 C   0  0  0  0  0  0  0  0  0  0  0  0
   63.9730   32.1610   49.8760 C   0  0  0  0  0  0  0  0  0  0  0  0
   64.0750   33.4340   49.2770 O   0  0  0  0  0  0  0  0  0  0  0  0
   64.0730   33.2810   47.8710 C   0  0  0  0  0  0  0  0  0  0  0  0
   62.7270   32.7380   47.3660 C   0  0  0  0  0  0  0  0  0  0  0  0
   60.0740   30.5070   48.5340 C   0  0  0  0  0  0  0  0  0  0  0  0
   59.0010   29.7600   48.0380 C   0  0  0  0  0  0  0  0  0  0  0  0
   57.3140   31.1830   44.5780 C   0  0  0  0  0  0  0  0  0  0  0  0
   57.7650   31.8680   43.4360 C   0  0  0  0  0  0  0  0  0  0  0  0
   58.4530   33.0780   43.5570 C   0  0  0  0  0  0  0  0  0  0  0  0
   58.7130   33.6210   44.8230 C   0  0  0  0  0  0  0  0  0  0  0  0
   59.3970   34.8400   44.9530 C   0  0  0  0  0  0  0  0  0  0  0  0
   59.6590   35.3660   46.2210 C   0  0  0  0  0  0  0  0  0  0  0  0
   59.2410   34.6840   47.3670 C   0  0  0  0  0  0  0  0  0  0  0  0
   58.5570   33.4710   47.2510 C   0  0  0  0  0  0  0  0  0  0  0  0
   58.2860   32.9300   45.9810 C   0  0  0  0  0  0  0  0  0  0  0  0
   57.6000   31.7140   45.8520 C   0  0  0  0  0  0  0  0  0  0  0  0
   55.0166   29.3698   42.9901 H   0  0  0  0  0  0  0  0  0  0  0  0
   56.1266   30.6782   42.4581 H   0  0  0  0  0  0  0  0  0  0  0  0
   56.6853   28.9710   42.4581 H   0  0  0  0  0  0  0  0  0  0  0  0
   55.6902   29.9157   45.0922 H   0  0  0  0  0  0  0  0  0  0  0  0
   60.0906   29.2887   44.8330 H   0  0  0  0  0  0  0  0  0  0  0  0
   62.0039   30.6263   45.7112 H   0  0  0  0  0  0  0  0  0  0  0  0
   61.8384   32.1435   50.1963 H   0  0  0  0  0  0  0  0  0  0  0  0
   62.5820   30.5180   49.9517 H   0  0  0  0  0  0  0  0  0  0  0  0
   64.1390   32.2549   50.9593 H   0  0  0  0  0  0  0  0  0  0  0  0
   64.7306   31.4958   49.4360 H   0  0  0  0  0  0  0  0  0  0  0  0
   64.2615   34.2592   47.4046 H   0  0  0  0  0  0  0  0  0  0  0  0
   64.8592   32.5607   47.6009 H   0  0  0  0  0  0  0  0  0  0  0  0
   61.9830   33.5478   47.3906 H   0  0  0  0  0  0  0  0  0  0  0  0
   62.8677   32.3665   46.3402 H   0  0  0  0  0  0  0  0  0  0  0  0
   60.0659   30.8488   49.5795 H   0  0  0  0  0  0  0  0  0  0  0  0
   58.1409   29.5397   48.6874 H   0  0  0  0  0  0  0  0  0  0  0  0
   57.5744   31.4472   42.4377 H   0  0  0  0  0  0  0  0  0  0  0  0
   58.7923   33.6072   42.6543 H   0  0  0  0  0  0  0  0  0  0  0  0
   59.7275   35.3824   44.0549 H   0  0  0  0  0  0  0  0  0  0  0  0
   60.1965   36.3209   46.3174 H   0  0  0  0  0  0  0  0  0  0  0  0
   59.4508   35.1029   48.3622 H   0  0  0  0  0  0  0  0  0  0  0  0
   58.2295   32.9375   48.1555 H   0  0  0  0  0  0  0  0  0  0  0  0
   57.2821   31.1694   46.7533 H   0  0  0  0  0  0  0  0  0  0  0  0
  1  2  1  0
  2  3  1  0
  3  4  2  0
  3  5  1  0
  5  6  1  0
  6  7  2  0
  7  8  1  0
  8  9  2  0
  9 10  1  0
 10 11  1  0
 11 12  1  0
 12 13  1  0
 13 14  1  0
 14 15  1  0
  9 16  1  0
 16 17  2  0
  2 18  1  0
 18 19  2  0
 19 20  1  0
 20 21  2  0
 21 22  1  0
 22 23  2  0
 23 24  1  0
 24 25  2  0
 25 26  1  0
 26 27  2  0
 17  6  1  0
 27 18  1  0
 15 10  1  0
 26 21  1  0
  1 28  1  0
  1 29  1  0
  1 30  1  0
  2 31  1  1
  7 32  1  0
  8 33  1  0
 11 34  1  0
 11 35  1  0
 12 36  1  0
 12 37  1  0
 14 38  1  0
 14 39  1  0
 15 40  1  0
 15 41  1  0
 16 42  1  0
 17 43  1  0
 19 44  1  0
 20 45  1  0
 22 46  1  0
 23 47  1  0
 24 48  1  0
 25 49  1  0
 27 50  1  0
M  CHG  1   5  -1
M  END
>  <UniqueID>  (31) 
26

>  <SMILES>  (31) 
C[C@@H](C(=O)[N-]c1ccc(N2CCOCC2)cc1)c1ccc2ccccc2c1

>  <Energy>  (31) 
66.2941347500898

>  <Genealogy>  (31) 
CC(C(=O)[N-]c1ccc(N2CCOCC2)cc1)c1ccc2ccccc2c1 (protonated)
C[C@@H](C(=O)[N-]c1ccc(N2CCOCC2)cc1)c1ccc2ccccc2c1 (chirality)
C[C@@H](C(=O)[N-]c1ccc(N2CCOCC2)cc1)c1ccc2ccccc2c1 (3D coordinates assigned)
C[C@@H](C(=O)[N-]c1ccc(N2CCOCC2)cc1)c1ccc2ccccc2c1 (nonaromatic ring conformer: 66.2941347500898 kcal/mol)

>  <smiles>  (31) 
CC(C(=O)Nc1ccc(N2CCOCC2)cc1)c1ccc2ccccc2c1

>  <score_type>  (31) 
oracle

>  <origin>  (31) 
adg

>  <m_score__min__energy>  (31) 
-10.630000000000001

>  <m_primary>  (31) 
energy

$$$$
31:0
     RDKit          3D

 72 77  0  0  0  0  0  0  0  0999 V2000
   60.7422   32.2576   52.8739 H   0  0  0  0  0  0  0  0  0  0  0  0
   60.8250   32.5880   51.8280 C   0  0  0  0  0  0  0  0  0  0  0  0
   61.2980   33.8210   51.5890 C   0  0  0  0  0  0  0  0  0  0  0  0
   60.9066   34.6595   52.1838 H   0  0  0  0  0  0  0  0  0  0  0  0
   62.3500   34.1080   50.5330 C   0  0  2  0  0  0  0  0  0  0  0  0
   62.6589   35.1543   50.6736 H   0  0  0  0  0  0  0  0  0  0  0  0
   61.8280   34.1040   49.0430 C   0  0  2  0  0  0  0  0  0  0  0  0
   62.4400   34.8720   48.5474 H   0  0  0  0  0  0  0  0  0  0  0  0
   60.3480   34.5850   48.8830 C   0  0  0  0  0  0  0  0  0  0  0  0
   60.3488   35.6789   48.7671 H   0  0  0  0  0  0  0  0  0  0  0  0
   59.8047   34.2589   49.7822 H   0  0  0  0  0  0  0  0  0  0  0  0
   59.6270   33.9700   47.6750 C   0  0  0  0  0  0  0  0  0  0  0  0
   58.7762   34.6107   47.4000 H   0  0  0  0  0  0  0  0  0  0  0  0
   59.2796   32.9634   47.9507 H   0  0  0  0  0  0  0  0  0  0  0  0
   60.5650   33.8480   46.4800 C   0  0  0  0  0  0  0  0  0  0  0  0
   60.9629   34.8444   46.2372 H   0  0  0  0  0  0  0  0  0  0  0  0
   59.9915   33.4336   45.6377 H   0  0  0  0  0  0  0  0  0  0  0  0
   61.7420   32.8990   46.7680 C   0  0  0  0  0  0  0  0  0  0  0  0
   62.6231   33.2690   46.2233 H   0  0  0  0  0  0  0  0  0  0  0  0
   61.4243   31.8978   46.4415 H   0  0  0  0  0  0  0  0  0  0  0  0
   62.1170   32.7760   48.2730 C   0  0  1  0  0  0  0  0  0  0  0  0
   61.4744   32.0202   48.7482 H   0  0  0  0  0  0  0  0  0  0  0  0
   63.5900   32.2720   48.4180 C   0  0  0  0  0  0  0  0  0  0  0  0
   64.0877   32.3614   47.4411 H   0  0  0  0  0  0  0  0  0  0  0  0
   63.5457   31.2293   48.7657 H   0  0  0  0  0  0  0  0  0  0  0  0
   64.4030   33.0650   49.4550 C   0  0  2  0  0  0  0  0  0  0  0  0
   64.6050   34.0624   49.0374 H   0  0  0  0  0  0  0  0  0  0  0  0
   65.7640   32.4170   49.7490 C   0  0  0  0  0  0  0  0  0  0  0  0
   65.5997   31.4528   50.2523 H   0  0  0  0  0  0  0  0  0  0  0  0
   66.2925   32.2751   48.7947 H   0  0  0  0  0  0  0  0  0  0  0  0
   66.6400   33.3220   50.6630 C   0  0  2  0  0  0  0  0  0  0  0  0
   67.2446   33.9641   50.0056 H   0  0  0  0  0  0  0  0  0  0  0  0
   67.5390   32.4950   51.4960 N   0  0  0  0  0  0  0  0  0  0  0  0
   67.4550   32.7890   52.4970 H   0  0  0  0  0  0  0  0  0  0  0  0
   67.1580   31.0790   51.4620 C   0  0  0  0  0  0  0  0  0  0  0  0
   67.0565   30.7018   52.4903 H   0  0  0  0  0  0  0  0  0  0  0  0
   66.1986   30.9700   50.9351 H   0  0  0  0  0  0  0  0  0  0  0  0
   67.9332   30.5033   50.9351 H   0  0  0  0  0  0  0  0  0  0  0  0
   65.7790   34.2570   51.5600 C   0  0  0  0  0  0  0  0  0  0  0  0
   66.3514   34.5006   52.4672 H   0  0  0  0  0  0  0  0  0  0  0  0
   65.5450   35.1587   50.9750 H   0  0  0  0  0  0  0  0  0  0  0  0
   64.4500   33.6130   51.9750 C   0  0  0  0  0  0  0  0  0  0  0  0
   64.6655   32.7231   52.5845 H   0  0  0  0  0  0  0  0  0  0  0  0
   63.8789   34.3647   52.5397 H   0  0  0  0  0  0  0  0  0  0  0  0
   63.5830   33.1830   50.7550 C   0  0  1  0  0  0  0  0  0  0  0  0
   63.2081   32.1810   51.0106 H   0  0  0  0  0  0  0  0  0  0  0  0
   60.4090   31.6490   50.7650 C   0  0  0  0  0  0  0  0  0  0  0  0
   61.2170   30.5930   50.4890 N   0  0  0  0  0  0  0  0  0  0  0  0
   60.8930   29.6820   49.5380 C   0  0  0  0  0  0  0  0  0  0  0  0
   61.5722   28.8424   49.3290 H   0  0  0  0  0  0  0  0  0  0  0  0
   59.6960   29.8070   48.8210 C   0  0  0  0  0  0  0  0  0  0  0  0
   59.3160   28.8200   47.7790 C   0  0  0  0  0  0  0  0  0  0  0  0
   59.3620   27.4420   48.0530 C   0  0  0  0  0  0  0  0  0  0  0  0
   59.6825   27.0952   49.0465 H   0  0  0  0  0  0  0  0  0  0  0  0
   59.0050   26.5080   47.0770 C   0  0  0  0  0  0  0  0  0  0  0  0
   59.0459   25.4329   47.3063 H   0  0  0  0  0  0  0  0  0  0  0  0
   58.5950   26.9360   45.8070 C   0  0  0  0  0  0  0  0  0  0  0  0
   58.2330   26.0060   44.8200 C   0  0  0  0  0  0  0  0  0  0  0  0
   58.2744   24.9288   45.0392 H   0  0  0  0  0  0  0  0  0  0  0  0
   57.8200   26.4460   43.5590 C   0  0  0  0  0  0  0  0  0  0  0  0
   57.5359   25.7139   42.7887 H   0  0  0  0  0  0  0  0  0  0  0  0
   57.7670   27.8130   43.2740 C   0  0  0  0  0  0  0  0  0  0  0  0
   57.4417   28.1535   42.2799 H   0  0  0  0  0  0  0  0  0  0  0  0
   58.1260   28.7490   44.2480 C   0  0  0  0  0  0  0  0  0  0  0  0
   58.0826   29.8239   44.0186 H   0  0  0  0  0  0  0  0  0  0  0  0
   58.5420   28.3200   45.5190 C   0  0  0  0  0  0  0  0  0  0  0  0
   58.9020   29.2510   46.5050 C   0  0  0  0  0  0  0  0  0  0  0  0
   58.8603   30.3270   46.2802 H   0  0  0  0  0  0  0  0  0  0  0  0
   58.8670   30.8940   49.1310 C   0  0  0  0  0  0  0  0  0  0  0  0
   57.9164   31.0263   48.5935 H   0  0  0  0  0  0  0  0  0  0  0  0
   59.2290   31.7860   50.0910 N   0  0  0  0  0  0  0  0  0  0  0  0
   58.5660   32.5600   50.3100 H   0  0  0  0  0  0  0  0  0  0  0  0
  1  2  1  0
  2  3  2  0
  3  4  1  0
  3  5  1  0
  5  6  1  1
  5  7  1  0
  7  8  1  6
  7  9  1  0
  9 10  1  0
  9 11  1  0
  9 12  1  0
 12 13  1  0
 12 14  1  0
 12 15  1  0
 15 16  1  0
 15 17  1  0
 15 18  1  0
 18 19  1  0
 18 20  1  0
 18 21  1  0
 21 22  1  1
 21 23  1  0
 23 24  1  0
 23 25  1  0
 23 26  1  0
 26 27  1  6
 26 28  1  0
 28 29  1  0
 28 30  1  0
 28 31  1  0
 31 32  1  6
 31 33  1  0
 33 34  1  0
 33 35  1  0
 35 36  1  0
 35 37  1  0
 35 38  1  0
 31 39  1  0
 39 40  1  0
 39 41  1  0
 39 42  1  0
 42 43  1  0
 42 44  1  0
 42 45  1  0
 45 46  1  1
  2 47  1  0
 47 48  2  0
 48 49  1  0
 49 50  1  0
 49 51  2  0
 51 52  1  0
 52 53  2  0
 53 54  1  0
 53 55  1  0
 55 56  1  0
 55 57  2  0
 57 58  1  0
 58 59  1  0
 58 60  2  0
 60 61  1  0
 60 62  1  0
 62 63  1  0
 62 64  2  0
 64 65  1  0
 64 66  1  0
 66 67  2  0
 67 68  1  0
 51 69  1  0
 69 70  1  0
 69 71  2  0
 71 72  1  0
 45  5  1  0
 71 47  1  0
 21  7  1  0
 45 26  1  0
 67 52  1  0
 66 57  1  0
M  CHG  1  71   1
M  END
>  <UniqueID>  (32) 
27

>  <SMILES>  (32) 
CN[C@@H]1CC[C@@H]2C(CC3CCCCC3C2/C=C/c2ncc(-c3ccc4ccccc4c3)c[nH+]2)C1

>  <Energy>  (32) 
108.90559023065313

>  <Genealogy>  (32) 
CNC1CCC2C(C1)CC1CCCCC1C2C=Cc1ncc(-c2ccc3ccccc3c2)c[nH+]1 (protonated)
CN[C@@H]1CC[C@@H]2C(CC3CCCCC3C2C=Cc2ncc(-c3ccc4ccccc4c3)c[nH+]2)C1 (chirality)
CN[C@@H]1CC[C@@H]2C(CC3CCCCC3C2/C=C/c2ncc(-c3ccc4ccccc4c3)c[nH+]2)C1 (cis-trans isomerization)
CN[C@@H]1CC[C@@H]2C(CC3CCCCC3C2/C=C/c2ncc(-c3ccc4ccccc4c3)c[nH+]2)C1 (3D coordinates assigned)
CN[C@@H]1CC[C@@H]2C(CC3CCCCC3C2/C=C/c2ncc(-c3ccc4ccccc4c3)c[nH+]2)C1 (nonaromatic ring conformer: 108.90559023065313 kcal/mol)

>  <smiles>  (32) 
CNC1CCC2C(C1)CC1CCCCC1C2C=Cc1ncc(-c2ccc3ccccc3c2)cn1

>  <score_type>  (32) 
oracle

>  <origin>  (32) 
adg

>  <m_score__min__energy>  (32) 
-9.3399999999999999

>  <m_primary>  (32) 
energy

$$$$
32:0
     RDKit          3D

 45 48  0  0  0  0  0  0  0  0999 V2000
   56.6040   30.0520   43.6790 C   0  0  0  0  0  0  0  0  0  0  0  0
   56.6460   30.8290   44.8710 O   0  0  0  0  0  0  0  0  0  0  0  0
   57.4760   31.9400   45.0630 C   0  0  0  0  0  0  0  0  0  0  0  0
   58.0000   32.6830   43.9890 C   0  0  0  0  0  0  0  0  0  0  0  0
   58.7990   33.8010   44.2340 C   0  0  0  0  0  0  0  0  0  0  0  0
   59.0840   34.1870   45.5450 C   0  0  0  0  0  0  0  0  0  0  0  0
   58.5810   33.4460   46.6270 C   0  0  0  0  0  0  0  0  0  0  0  0
   58.9190   33.8420   48.0450 C   0  0  0  0  0  0  0  0  0  0  0  0
   59.6930   32.7940   48.7250 N   0  0  0  0  0  0  0  0  0  0  0  0
   61.0490   32.7730   48.2210 C   0  0  0  0  0  0  0  0  0  0  0  0
   61.9080   33.8420   48.5440 C   0  0  0  0  0  0  0  0  0  0  0  0
   63.2510   33.8230   48.1670 C   0  0  0  0  0  0  0  0  0  0  0  0
   63.7660   32.7270   47.4800 C   0  0  0  0  0  0  0  0  0  0  0  0
   62.9420   31.6490   47.1610 C   0  0  0  0  0  0  0  0  0  0  0  0
   61.5790   31.6570   47.5120 C   0  0  0  0  0  0  0  0  0  0  0  0
   60.7550   30.4890   47.1270 C   0  0  0  0  0  0  0  0  0  0  0  0
   60.7660   29.8690   45.8840 C   0  0  0  0  0  0  0  0  0  0  0  0
   59.8120   28.9310   45.9060 N   0  0  0  0  0  0  0  0  0  0  0  0
   59.4020   28.0760   44.9340 C   0  0  0  0  0  0  0  0  0  0  0  0
   58.3340   27.2150   45.2200 C   0  0  0  0  0  0  0  0  0  0  0  0
   57.7350   27.2520   46.4940 C   0  0  0  0  0  0  0  0  0  0  0  0
   58.1930   28.1540   47.4680 C   0  0  0  0  0  0  0  0  0  0  0  0
   59.2470   28.9960   47.1210 C   0  0  0  0  0  0  0  0  0  0  0  0
   59.7860   29.9490   47.9070 N   0  0  0  0  0  0  0  0  0  0  0  0
   57.7850   32.3210   46.3740 C   0  0  0  0  0  0  0  0  0  0  0  0
   56.5463   28.9847   43.9389 H   0  0  0  0  0  0  0  0  0  0  0  0
   55.7198   30.3339   43.0885 H   0  0  0  0  0  0  0  0  0  0  0  0
   57.5135   30.2370   43.0885 H   0  0  0  0  0  0  0  0  0  0  0  0
   57.7795   32.3821   42.9542 H   0  0  0  0  0  0  0  0  0  0  0  0
   59.2054   34.3797   43.3914 H   0  0  0  0  0  0  0  0  0  0  0  0
   59.7053   35.0754   45.7314 H   0  0  0  0  0  0  0  0  0  0  0  0
   59.5111   34.7688   48.0262 H   0  0  0  0  0  0  0  0  0  0  0  0
   57.9787   33.9903   48.5962 H   0  0  0  0  0  0  0  0  0  0  0  0
   59.6780   32.9370   49.7560 H   0  0  0  0  0  0  0  0  0  0  0  0
   59.2440   31.8650   48.5550 H   0  0  0  0  0  0  0  0  0  0  0  0
   61.5139   34.7044   49.1017 H   0  0  0  0  0  0  0  0  0  0  0  0
   63.9032   34.6741   48.4126 H   0  0  0  0  0  0  0  0  0  0  0  0
   64.8264   32.7118   47.1881 H   0  0  0  0  0  0  0  0  0  0  0  0
   63.3616   30.7824   46.6290 H   0  0  0  0  0  0  0  0  0  0  0  0
   61.4326   30.1045   45.0413 H   0  0  0  0  0  0  0  0  0  0  0  0
   59.8941   28.0597   43.9503 H   0  0  0  0  0  0  0  0  0  0  0  0
   57.9662   26.5154   44.4550 H   0  0  0  0  0  0  0  0  0  0  0  0
   56.9037   26.5705   46.7275 H   0  0  0  0  0  0  0  0  0  0  0  0
   57.7363   28.1941   48.4679 H   0  0  0  0  0  0  0  0  0  0  0  0
   57.3978   31.7294   47.2167 H   0  0  0  0  0  0  0  0  0  0  0  0
  1  2  1  0
  2  3  1  0
  3  4  2  0
  4  5  1  0
  5  6  2  0
  6  7  1  0
  7  8  1  0
  8  9  1  0
  9 10  1  0
 10 11  2  0
 11 12  1  0
 12 13  2  0
 13 14  1  0
 14 15  2  0
 15 16  1  0
 16 17  2  0
 17 18  1  0
 18 19  1  0
 19 20  2  0
 20 21  1  0
 21 22  2  0
 22 23  1  0
 23 24  2  0
  7 25  2  0
 25  3  1  0
 15 10  1  0
 24 16  1  0
 23 18  1  0
  1 26  1  0
  1 27  1  0
  1 28  1  0
  4 29  1  0
  5 30  1  0
  6 31  1  0
  8 32  1  0
  8 33  1  0
  9 34  1  0
  9 35  1  0
 11 36  1  0
 12 37  1  0
 13 38  1  0
 14 39  1  0
 17 40  1  0
 19 41  1  0
 20 42  1  0
 21 43  1  0
 22 44  1  0
 25 45  1  0
M  CHG  1   9   1
M  END
>  <UniqueID>  (33) 
28

>  <SMILES>  (33) 
COc1cccc(C[NH2+]c2ccccc2-c2cn3ccccc3n2)c1

>  <Energy>  (33) 
90.79082288005995

>  <Genealogy>  (33) 
COc1cccc(C[NH2+]c2ccccc2-c2cn3ccccc3n2)c1 (protonated)
COc1cccc(C[NH2+]c2ccccc2-c2cn3ccccc3n2)c1 (3D coordinates assigned)
COc1cccc(C[NH2+]c2ccccc2-c2cn3ccccc3n2)c1 (optimized conformer: 90.79082288005995 kcal/mol)

>  <smiles>  (33) 
COc1cccc(CNc2ccccc2-c2cn3ccccc3n2)c1

>  <score_type>  (33) 
oracle

>  <origin>  (33) 
adg

>  <m_score__min__energy>  (33) 
-6.0700000000000003

>  <m_primary>  (33) 
energy

$$$$
33:0
     RDKit          3D

 54 56  0  0  0  0  0  0  0  0999 V2000
   58.8210   31.0970   50.2270 C   0  0  0  0  0  0  0  0  0  0  0  0
   59.8340   29.9560   50.1780 C   0  0  0  0  0  0  0  0  0  0  0  0
   60.3920   29.8100   48.8210 N   0  0  0  0  0  0  0  0  0  0  0  0
   61.5240   30.6820   48.4620 C   0  0  0  0  0  0  0  0  0  0  0  0
   61.2700   31.3780   47.1240 C   0  0  0  0  0  0  0  0  0  0  0  0
   59.8570   28.8290   47.8810 C   0  0  0  0  0  0  0  0  0  0  0  0
   58.4680   28.5750   47.8020 C   0  0  0  0  0  0  0  0  0  0  0  0
   57.9590   27.6310   46.9040 C   0  0  0  0  0  0  0  0  0  0  0  0
   58.8180   26.9000   46.0750 C   0  0  0  0  0  0  0  0  0  0  0  0
   58.2590   25.8790   45.1130 C   0  0  0  0  0  0  0  0  0  0  0  0
   57.4050   26.5080   44.0810 N   0  0  0  0  0  0  0  0  0  0  0  0
   58.1000   27.5740   43.3360 C   0  0  0  0  0  0  0  0  0  0  0  0
   57.8390   28.9300   43.9330 C   0  0  0  0  0  0  0  0  0  0  0  0
   56.6000   29.5550   44.0210 C   0  0  0  0  0  0  0  0  0  0  0  0
   56.6290   30.8050   44.5550 N   0  0  0  0  0  0  0  0  0  0  0  0
   57.8820   31.1850   44.8930 C   0  0  0  0  0  0  0  0  0  0  0  0
   58.1890   32.4710   45.4710 N   0  0  0  0  0  0  0  0  0  0  0  0
   57.9940   32.6790   46.9110 C   0  0  0  0  0  0  0  0  0  0  0  0
   58.8990   33.8090   47.4090 C   0  0  0  0  0  0  0  0  0  0  0  0
   58.7340   34.9690   46.6160 O   0  0  0  0  0  0  0  0  0  0  0  0
   59.1910   34.7120   45.3020 C   0  0  0  0  0  0  0  0  0  0  0  0
   58.3120   33.6600   44.6160 C   0  0  0  0  0  0  0  0  0  0  0  0
   59.0080   29.9760   44.5400 S   0  0  0  0  0  0  0  0  0  0  0  0
   60.1970   27.1460   46.1330 C   0  0  0  0  0  0  0  0  0  0  0  0
   60.7110   28.0970   47.0210 C   0  0  0  0  0  0  0  0  0  0  0  0
   58.5998   31.3462   51.2753 H   0  0  0  0  0  0  0  0  0  0  0  0
   59.2383   31.9798   49.7205 H   0  0  0  0  0  0  0  0  0  0  0  0
   57.8950   30.7872   49.7205 H   0  0  0  0  0  0  0  0  0  0  0  0
   60.6511   30.1685   50.8831 H   0  0  0  0  0  0  0  0  0  0  0  0
   59.3251   29.0203   50.4528 H   0  0  0  0  0  0  0  0  0  0  0  0
   61.6555   31.4431   49.2452 H   0  0  0  0  0  0  0  0  0  0  0  0
   62.4300   30.0647   48.3721 H   0  0  0  0  0  0  0  0  0  0  0  0
   60.8981   32.3972   47.3056 H   0  0  0  0  0  0  0  0  0  0  0  0
   62.2083   31.4266   46.5520 H   0  0  0  0  0  0  0  0  0  0  0  0
   60.5209   30.8108   46.5520 H   0  0  0  0  0  0  0  0  0  0  0  0
   57.7779   29.1278   48.4563 H   0  0  0  0  0  0  0  0  0  0  0  0
   56.8735   27.4615   46.8487 H   0  0  0  0  0  0  0  0  0  0  0  0
   59.0939   25.3616   44.6177 H   0  0  0  0  0  0  0  0  0  0  0  0
   57.6403   25.1721   45.6852 H   0  0  0  0  0  0  0  0  0  0  0  0
   56.5430   26.9160   44.5160 H   0  0  0  0  0  0  0  0  0  0  0  0
   57.0780   25.7750   43.4080 H   0  0  0  0  0  0  0  0  0  0  0  0
   59.1820   27.3770   43.3577 H   0  0  0  0  0  0  0  0  0  0  0  0
   57.7205   27.5747   42.3035 H   0  0  0  0  0  0  0  0  0  0  0  0
   55.6689   29.0754   43.6848 H   0  0  0  0  0  0  0  0  0  0  0  0
   56.9435   32.9443   47.1009 H   0  0  0  0  0  0  0  0  0  0  0  0
   58.2497   31.7522   47.4455 H   0  0  0  0  0  0  0  0  0  0  0  0
   58.6410   34.0450   48.4519 H   0  0  0  0  0  0  0  0  0  0  0  0
   59.9462   33.4796   47.3397 H   0  0  0  0  0  0  0  0  0  0  0  0
   59.1580   35.6447   44.7198 H   0  0  0  0  0  0  0  0  0  0  0  0
   60.2212   34.3302   45.3553 H   0  0  0  0  0  0  0  0  0  0  0  0
   57.3128   34.0828   44.4344 H   0  0  0  0  0  0  0  0  0  0  0  0
   58.7747   33.3709   43.6608 H   0  0  0  0  0  0  0  0  0  0  0  0
   60.8796   26.5874   45.4757 H   0  0  0  0  0  0  0  0  0  0  0  0
   61.7954   28.2789   47.0516 H   0  0  0  0  0  0  0  0  0  0  0  0
  1  2  1  0
  2  3  1  0
  3  4  1  0
  4  5  1  0
  3  6  1  0
  6  7  2  0
  7  8  1  0
  8  9  2  0
  9 10  1  0
 10 11  1  0
 11 12  1  0
 12 13  1  0
 13 14  2  0
 14 15  1  0
 15 16  2  0
 16 17  1  0
 17 18  1  0
 18 19  1  0
 19 20  1  0
 20 21  1  0
 21 22  1  0
 16 23  1  0
  9 24  1  0
 24 25  2  0
 25  6  1  0
 23 13  1  0
 22 17  1  0
  1 26  1  0
  1 27  1  0
  1 28  1  0
  2 29  1  0
  2 30  1  0
  4 31  1  0
  4 32  1  0
  5 33  1  0
  5 34  1  0
  5 35  1  0
  7 36  1  0
  8 37  1  0
 10 38  1  0
 10 39  1  0
 11 40  1  0
 11 41  1  0
 12 42  1  0
 12 43  1  0
 14 44  1  0
 18 45  1  0
 18 46  1  0
 19 47  1  0
 19 48  1  0
 21 49  1  0
 21 50  1  0
 22 51  1  0
 22 52  1  0
 24 53  1  0
 25 54  1  0
M  CHG  1  11   1
M  END
>  <UniqueID>  (34) 
29

>  <SMILES>  (34) 
CCN(CC)c1ccc(C[NH2+]Cc2cnc(N3CCOCC3)s2)cc1

>  <Energy>  (34) 
86.39373199215092

>  <Genealogy>  (34) 
CCN(CC)c1ccc(C[NH2+]Cc2cnc(N3CCOCC3)s2)cc1 (protonated)
CCN(CC)c1ccc(C[NH2+]Cc2cnc(N3CCOCC3)s2)cc1 (3D coordinates assigned)
CCN(CC)c1ccc(C[NH2+]Cc2cnc(N3CCOCC3)s2)cc1 (nonaromatic ring conformer: 86.39373199215092 kcal/mol)

>  <smiles>  (34) 
CCN(CC)c1ccc(CNCc2cnc(N3CCOCC3)s2)cc1

>  <score_type>  (34) 
oracle

>  <origin>  (34) 
adg

>  <m_score__min__energy>  (34) 
-5.5999999999999996

>  <m_primary>  (34) 
energy

$$$$
34:0
     RDKit          3D

 50 51  0  0  0  0  0  0  0  0999 V2000
   57.9220   26.6200   44.7670 C   0  0  0  0  0  0  0  0  0  0  0  0
   58.4640   27.8980   44.1330 C   0  0  0  0  0  0  0  0  0  0  0  0
   58.1130   29.0700   44.9430 N   0  0  0  0  0  0  0  0  0  0  0  0
   58.8790   29.4130   46.1110 C   0  0  0  0  0  0  0  0  0  0  0  0
   58.4310   29.0520   47.3870 C   0  0  0  0  0  0  0  0  0  0  0  0
   59.1710   29.3990   48.5190 C   0  0  0  0  0  0  0  0  0  0  0  0
   60.3780   30.1160   48.4010 C   0  0  0  0  0  0  0  0  0  0  0  0
   61.1470   30.4590   49.6290 C   0  0  0  0  0  0  0  0  0  0  0  0
   62.0790   29.6910   49.9970 O   0  0  0  0  0  0  0  0  0  0  0  0
   60.8590   31.6730   50.4320 C   0  0  0  0  0  0  0  0  0  0  0  0
   60.8710   32.9270   49.9480 C   0  0  0  0  0  0  0  0  0  0  0  0
   60.2810   33.3440   48.6570 C   0  0  0  0  0  0  0  0  0  0  0  0
   58.9010   33.1860   48.4720 C   0  0  0  0  0  0  0  0  0  0  0  0
   58.3010   33.5600   47.2710 C   0  0  0  0  0  0  0  0  0  0  0  0
   59.0680   34.0800   46.2240 C   0  0  0  0  0  0  0  0  0  0  0  0
   58.4130   34.4460   45.0380 O   0  0  0  0  0  0  0  0  0  0  0  0
   57.0020   34.3810   44.8410 C   0  0  0  0  0  0  0  0  0  0  0  0
   60.4600   34.2130   46.3890 C   0  0  0  0  0  0  0  0  0  0  0  0
   61.0780   33.8330   47.5980 C   0  0  0  0  0  0  0  0  0  0  0  0
   62.4700   33.9150   47.7740 O   0  0  0  0  0  0  0  0  0  0  0  0
   63.4200   33.0660   47.1370 C   0  0  0  0  0  0  0  0  0  0  0  0
   60.8210   30.4780   47.1140 C   0  0  0  0  0  0  0  0  0  0  0  0
   60.0760   30.1310   45.9840 C   0  0  0  0  0  0  0  0  0  0  0  0
   56.7340   30.0350   44.4970 S   0  0  0  0  0  0  0  0  0  0  0  0
   56.7130   30.2860   42.7350 C   0  0  0  0  0  0  0  0  0  0  0  0
   55.4740   29.3410   44.9310 O   0  0  0  0  0  0  0  0  0  0  0  0
   56.8090   31.3810   45.1610 O   0  0  0  0  0  0  0  0  0  0  0  0
   57.9600   26.7096   45.8627 H   0  0  0  0  0  0  0  0  0  0  0  0
   56.8808   26.4653   44.4476 H   0  0  0  0  0  0  0  0  0  0  0  0
   58.5345   25.7639   44.4476 H   0  0  0  0  0  0  0  0  0  0  0  0
   59.5591   27.8267   44.0571 H   0  0  0  0  0  0  0  0  0  0  0  0
   58.0180   28.0130   43.1341 H   0  0  0  0  0  0  0  0  0  0  0  0
   57.4909   28.4919   47.4985 H   0  0  0  0  0  0  0  0  0  0  0  0
   58.8070   29.1089   49.5156 H   0  0  0  0  0  0  0  0  0  0  0  0
   60.6191   31.5375   51.4969 H   0  0  0  0  0  0  0  0  0  0  0  0
   61.3567   33.7025   50.5586 H   0  0  0  0  0  0  0  0  0  0  0  0
   58.2867   32.7636   49.2808 H   0  0  0  0  0  0  0  0  0  0  0  0
   57.2142   33.4451   47.1457 H   0  0  0  0  0  0  0  0  0  0  0  0
   56.4961   34.3577   45.8175 H   0  0  0  0  0  0  0  0  0  0  0  0
   56.6695   35.2648   44.2768 H   0  0  0  0  0  0  0  0  0  0  0  0
   56.7521   33.4704   44.2768 H   0  0  0  0  0  0  0  0  0  0  0  0
   61.0704   34.6167   45.5678 H   0  0  0  0  0  0  0  0  0  0  0  0
   64.0103   32.5384   47.9006 H   0  0  0  0  0  0  0  0  0  0  0  0
   62.8931   32.3323   46.5092 H   0  0  0  0  0  0  0  0  0  0  0  0
   64.0901   33.6717   46.5092 H   0  0  0  0  0  0  0  0  0  0  0  0
   61.7605   31.0381   46.9976 H   0  0  0  0  0  0  0  0  0  0  0  0
   60.4323   30.4241   44.9854 H   0  0  0  0  0  0  0  0  0  0  0  0
   56.6231   31.3608   42.5188 H   0  0  0  0  0  0  0  0  0  0  0  0
   57.6465   29.9010   42.2986 H   0  0  0  0  0  0  0  0  0  0  0  0
   55.8565   29.7513   42.2986 H   0  0  0  0  0  0  0  0  0  0  0  0
  1  2  1  0
  2  3  1  0
  3  4  1  0
  4  5  2  0
  5  6  1  0
  6  7  2  0
  7  8  1  0
  8  9  2  0
  8 10  1  0
 10 11  2  3
 11 12  1  0
 12 13  2  0
 13 14  1  0
 14 15  2  0
 15 16  1  0
 16 17  1  0
 15 18  1  0
 18 19  2  0
 19 20  1  0
 20 21  1  0
  7 22  1  0
 22 23  2  0
  3 24  1  0
 24 25  1  0
 24 26  2  0
 24 27  2  0
 23  4  1  0
 19 12  1  0
  1 28  1  0
  1 29  1  0
  1 30  1  0
  2 31  1  0
  2 32  1  0
  5 33  1  0
  6 34  1  0
 10 35  1  0
 11 36  1  0
 13 37  1  0
 14 38  1  0
 17 39  1  0
 17 40  1  0
 17 41  1  0
 18 42  1  0
 21 43  1  0
 21 44  1  0
 21 45  1  0
 22 46  1  0
 23 47  1  0
 25 48  1  0
 25 49  1  0
 25 50  1  0
M  END
>  <UniqueID>  (35) 
30

>  <SMILES>  (35) 
CCN(c1ccc(C(=O)C=Cc2ccc(OC)cc2OC)cc1)S(C)(=O)=O

>  <Energy>  (35) 
58.37985226424179

>  <Genealogy>  (35) 
CCN(c1ccc(C(=O)C=Cc2ccc(OC)cc2OC)cc1)S(C)(=O)=O (3D coordinates assigned)
CCN(c1ccc(C(=O)C=Cc2ccc(OC)cc2OC)cc1)S(C)(=O)=O (optimized conformer: 58.37985226424179 kcal/mol)

>  <smiles>  (35) 
CCN(c1ccc(C(=O)C=Cc2ccc(OC)cc2OC)cc1)S(C)(=O)=O

>  <score_type>  (35) 
oracle

>  <origin>  (35) 
adg

>  <m_score__min__energy>  (35) 
-8.0500000000000007

>  <m_primary>  (35) 
energy

$$$$
35:0
     RDKit          3D

 49 51  0  0  0  0  0  0  0  0999 V2000
   64.7820   32.2940   49.7550 C   0  0  0  0  0  0  0  0  0  0  0  0
   64.0360   33.5040   49.1970 C   0  0  0  0  0  0  0  0  0  0  0  0
   62.5900   33.5170   49.6390 C   0  0  0  0  0  0  0  0  0  0  0  0
   62.3690   33.4710   50.9760 N   0  0  0  0  0  0  0  0  0  0  0  0
   61.1250   33.5030   51.5020 C   0  0  0  0  0  0  0  0  0  0  0  0
   60.9450   33.4500   52.9860 C   0  0  0  0  0  0  0  0  0  0  0  0
   60.0490   33.6190   50.6850 N   0  0  0  0  0  0  0  0  0  0  0  0
   60.1820   33.7020   49.3280 C   0  0  0  0  0  0  0  0  0  0  0  0
   61.4850   33.6100   48.7450 C   0  0  0  0  0  0  0  0  0  0  0  0
   61.7210   33.7240   47.2390 C   0  0  0  0  0  0  0  0  0  0  0  0
   60.9250   32.7230   46.3920 C   0  0  0  0  0  0  0  0  0  0  0  0
   59.5350   33.1680   46.1660 N   0  0  0  0  0  0  0  0  0  0  0  0
   58.6050   32.0180   46.1940 C   0  0  0  0  0  0  0  0  0  0  0  0
   58.0220   31.7830   44.8210 C   0  0  0  0  0  0  0  0  0  0  0  0
   58.3040   32.6790   43.7770 C   0  0  0  0  0  0  0  0  0  0  0  0
   57.7800   32.4650   42.5010 C   0  0  0  0  0  0  0  0  0  0  0  0
   56.9690   31.3560   42.2550 C   0  0  0  0  0  0  0  0  0  0  0  0
   56.6800   30.4560   43.2850 C   0  0  0  0  0  0  0  0  0  0  0  0
   57.2030   30.6600   44.5770 C   0  0  0  0  0  0  0  0  0  0  0  0
   56.9340   29.7740   45.6340 O   0  0  0  0  0  0  0  0  0  0  0  0
   57.7210   28.6300   45.9500 C   0  0  0  0  0  0  0  0  0  0  0  0
   59.1020   34.2610   47.0690 C   0  0  0  0  0  0  0  0  0  0  0  0
   58.8980   33.8060   48.5220 C   0  0  0  0  0  0  0  0  0  0  0  0
   64.7622   32.3260   50.8544 H   0  0  0  0  0  0  0  0  0  0  0  0
   64.2960   31.3708   49.4063 H   0  0  0  0  0  0  0  0  0  0  0  0
   65.8251   32.3135   49.4063 H   0  0  0  0  0  0  0  0  0  0  0  0
   64.5267   34.4217   49.5533 H   0  0  0  0  0  0  0  0  0  0  0  0
   64.0602   33.4475   48.0987 H   0  0  0  0  0  0  0  0  0  0  0  0
   61.8879   33.7276   53.4799 H   0  0  0  0  0  0  0  0  0  0  0  0
   60.1537   34.1533   53.2847 H   0  0  0  0  0  0  0  0  0  0  0  0
   60.6610   32.4301   53.2847 H   0  0  0  0  0  0  0  0  0  0  0  0
   59.0980   33.6480   51.1170 H   0  0  0  0  0  0  0  0  0  0  0  0
   61.4410   34.7399   46.9234 H   0  0  0  0  0  0  0  0  0  0  0  0
   62.7846   33.4989   47.0714 H   0  0  0  0  0  0  0  0  0  0  0  0
   61.4232   32.6074   45.4181 H   0  0  0  0  0  0  0  0  0  0  0  0
   60.8906   31.7690   46.9385 H   0  0  0  0  0  0  0  0  0  0  0  0
   59.1498   31.1183   46.5159 H   0  0  0  0  0  0  0  0  0  0  0  0
   57.7879   32.2352   46.8977 H   0  0  0  0  0  0  0  0  0  0  0  0
   58.9419   33.5550   43.9660 H   0  0  0  0  0  0  0  0  0  0  0  0
   58.0065   33.1711   41.6885 H   0  0  0  0  0  0  0  0  0  0  0  0
   56.5565   31.1898   41.2489 H   0  0  0  0  0  0  0  0  0  0  0  0
   56.0405   29.5835   43.0854 H   0  0  0  0  0  0  0  0  0  0  0  0
   57.7932   28.5250   47.0426 H   0  0  0  0  0  0  0  0  0  0  0  0
   57.2489   27.7316   45.5257 H   0  0  0  0  0  0  0  0  0  0  0  0
   58.7288   28.7497   45.5257 H   0  0  0  0  0  0  0  0  0  0  0  0
   59.8687   35.0496   47.0548 H   0  0  0  0  0  0  0  0  0  0  0  0
   58.1296   34.6205   46.7013 H   0  0  0  0  0  0  0  0  0  0  0  0
   58.2355   34.5291   49.0202 H   0  0  0  0  0  0  0  0  0  0  0  0
   58.4687   32.7941   48.4792 H   0  0  0  0  0  0  0  0  0  0  0  0
  1  2  1  0
  2  3  1  0
  3  4  2  0
  4  5  1  0
  5  6  1  0
  5  7  2  0
  7  8  1  0
  8  9  2  0
  9 10  1  0
 10 11  1  0
 11 12  1  0
 12 13  1  0
 13 14  1  0
 14 15  2  0
 15 16  1  0
 16 17  2  0
 17 18  1  0
 18 19  2  0
 19 20  1  0
 20 21  1  0
 12 22  1  0
 22 23  1  0
  9  3  1  0
 19 14  1  0
 23  8  1  0
  1 24  1  0
  1 25  1  0
  1 26  1  0
  2 27  1  0
  2 28  1  0
  6 29  1  0
  6 30  1  0
  6 31  1  0
  7 32  1  0
 10 33  1  0
 10 34  1  0
 11 35  1  0
 11 36  1  0
 13 37  1  0
 13 38  1  0
 15 39  1  0
 16 40  1  0
 17 41  1  0
 18 42  1  0
 21 43  1  0
 21 44  1  0
 21 45  1  0
 22 46  1  0
 22 47  1  0
 23 48  1  0
 23 49  1  0
M  CHG  1   7   1
M  END
>  <UniqueID>  (36) 
31

>  <SMILES>  (36) 
CCc1nc(C)[nH+]c2c1CCN(Cc1ccccc1OC)CC2

>  <Energy>  (36) 
62.27443681401229

>  <Genealogy>  (36) 
CCc1nc(C)[nH+]c2c1CCN(Cc1ccccc1OC)CC2 (protonated)
CCc1nc(C)[nH+]c2c1CCN(Cc1ccccc1OC)CC2 (3D coordinates assigned)
CCc1nc(C)[nH+]c2c1CCN(Cc1ccccc1OC)CC2 (nonaromatic ring conformer: 62.27443681401229 kcal/mol)

>  <smiles>  (36) 
CCc1nc(C)nc2c1CCN(Cc1ccccc1OC)CC2

>  <score_type>  (36) 
oracle

>  <origin>  (36) 
adg

>  <m_score__min__energy>  (36) 
-4.4199999999999999

>  <m_primary>  (36) 
energy

$$$$
36:0
     RDKit          3D

 32 33  0  0  0  0  0  0  0  0999 V2000
   59.0290   33.8310   47.8730 C   0  0  0  0  0  0  0  0  0  0  0  0
   58.6500   33.3890   46.4900 C   0  0  0  0  0  0  0  0  0  0  0  0
   58.8270   34.2550   45.4010 C   0  0  0  0  0  0  0  0  0  0  0  0
   58.5120   33.8290   44.1090 C   0  0  0  0  0  0  0  0  0  0  0  0
   58.0290   32.5370   43.8930 C   0  0  0  0  0  0  0  0  0  0  0  0
   57.8540   31.6500   44.9710 C   0  0  0  0  0  0  0  0  0  0  0  0
   57.3560   30.2700   44.7490 C   0  0  0  0  0  0  0  0  0  0  0  0
   56.1890   29.9640   45.1200 O   0  0  0  0  0  0  0  0  0  0  0  0
   58.1680   29.2910   44.0830 N   0  0  0  0  0  0  0  0  0  0  0  0
   57.8850   27.8810   44.1160 C   0  0  0  0  0  0  0  0  0  0  0  0
   58.0290   27.1280   42.9470 C   0  0  0  0  0  0  0  0  0  0  0  0
   57.7740   25.7610   42.9610 C   0  0  0  0  0  0  0  0  0  0  0  0
   57.3840   25.1470   44.1510 C   0  0  0  0  0  0  0  0  0  0  0  0
   57.2560   25.8750   45.3020 N   0  0  0  0  0  0  0  0  0  0  0  0
   56.8820   25.1920   46.5470 C   0  0  0  0  0  0  0  0  0  0  0  0
   57.5230   27.2220   45.3100 C   0  0  0  0  0  0  0  0  0  0  0  0
   57.4700   27.8700   46.3910 O   0  0  0  0  0  0  0  0  0  0  0  0
   58.1820   32.0850   46.2680 C   0  0  0  0  0  0  0  0  0  0  0  0
   58.4994   33.2134   48.6133 H   0  0  0  0  0  0  0  0  0  0  0  0
   60.1145   33.7172   48.0097 H   0  0  0  0  0  0  0  0  0  0  0  0
   58.7509   34.8864   48.0097 H   0  0  0  0  0  0  0  0  0  0  0  0
   59.2145   35.2713   45.5649 H   0  0  0  0  0  0  0  0  0  0  0  0
   58.6449   34.5138   43.2585 H   0  0  0  0  0  0  0  0  0  0  0  0
   57.7833   32.2099   42.8719 H   0  0  0  0  0  0  0  0  0  0  0  0
   58.8830   29.6270   43.3980 H   0  0  0  0  0  0  0  0  0  0  0  0
   58.3447   27.6179   42.0141 H   0  0  0  0  0  0  0  0  0  0  0  0
   57.8791   25.1683   42.0403 H   0  0  0  0  0  0  0  0  0  0  0  0
   57.1773   24.0667   44.1641 H   0  0  0  0  0  0  0  0  0  0  0  0
   57.2109   25.7927   47.4078 H   0  0  0  0  0  0  0  0  0  0  0  0
   55.7897   25.0672   46.5829 H   0  0  0  0  0  0  0  0  0  0  0  0
   57.3652   24.2045   46.5829 H   0  0  0  0  0  0  0  0  0  0  0  0
   58.0703   31.3952   47.1175 H   0  0  0  0  0  0  0  0  0  0  0  0
  1  2  1  0
  2  3  2  0
  3  4  1  0
  4  5  2  0
  5  6  1  0
  6  7  1  0
  7  8  2  0
  7  9  1  0
  9 10  1  0
 10 11  2  0
 11 12  1  0
 12 13  2  0
 13 14  1  0
 14 15  1  0
 14 16  1  0
 16 17  2  0
  6 18  2  0
 18  2  1  0
 16 10  1  0
  1 19  1  0
  1 20  1  0
  1 21  1  0
  3 22  1  0
  4 23  1  0
  5 24  1  0
  9 25  1  0
 11 26  1  0
 12 27  1  0
 13 28  1  0
 15 29  1  0
 15 30  1  0
 15 31  1  0
 18 32  1  0
M  END
>  <UniqueID>  (37) 
32

>  <SMILES>  (37) 
Cc1cccc(C(=O)Nc2cccn(C)c2=O)c1

>  <Energy>  (37) 
40.9439287839592

>  <Genealogy>  (37) 
Cc1cccc(C(=O)Nc2cccn(C)c2=O)c1 (3D coordinates assigned)
Cc1cccc(C(=O)Nc2cccn(C)c2=O)c1 (optimized conformer: 40.9439287839592 kcal/mol)

>  <smiles>  (37) 
Cc1cccc(C(=O)Nc2cccn(C)c2=O)c1

>  <score_type>  (37) 
oracle

>  <origin>  (37) 
adg

>  <m_score__min__energy>  (37) 
-6.8300000000000001

>  <m_primary>  (37) 
energy

$$$$
37:0
     RDKit          3D

 43 46  0  0  0  0  0  0  0  0999 V2000
   55.7460   29.7270   43.6700 C   0  0  0  0  0  0  0  0  0  0  0  0
   55.7910   28.9710   44.8740 O   0  0  0  0  0  0  0  0  0  0  0  0
   56.9420   28.8630   45.6620 C   0  0  0  0  0  0  0  0  0  0  0  0
   57.7070   29.9670   45.8940 N   0  0  0  0  0  0  0  0  0  0  0  0
   58.8370   29.9390   46.6540 C   0  0  0  0  0  0  0  0  0  0  0  0
   59.6060   31.1480   46.8360 N   0  0  0  0  0  0  0  0  0  0  0  0
   59.0190   32.4500   46.4940 C   0  0  0  0  0  0  0  0  0  0  0  0
   60.1240   33.3920   46.0060 C   0  0  0  0  0  0  0  0  0  0  0  0
   61.1820   33.5980   47.0260 N   0  0  0  0  0  0  0  0  0  0  0  0
   62.4590   33.9450   46.3830 C   0  0  0  0  0  0  0  0  0  0  0  0
   61.3480   32.4790   47.9880 C   0  0  0  0  0  0  0  0  0  0  0  0
   60.9630   31.1120   47.4000 C   0  0  0  0  0  0  0  0  0  0  0  0
   59.2380   28.7230   47.2250 C   0  0  0  0  0  0  0  0  0  0  0  0
   58.4790   27.5740   47.0080 C   0  0  0  0  0  0  0  0  0  0  0  0
   57.3180   27.6220   46.2170 C   0  0  0  0  0  0  0  0  0  0  0  0
   56.5360   26.3820   45.9840 C   0  0  0  0  0  0  0  0  0  0  0  0
   57.1220   25.1790   45.7320 N   0  0  0  0  0  0  0  0  0  0  0  0
   56.0710   24.3640   45.5730 C   0  0  0  0  0  0  0  0  0  0  0  0
   56.0770   23.0020   45.2900 C   0  0  0  0  0  0  0  0  0  0  0  0
   54.8250   22.3720   45.1640 C   0  0  0  0  0  0  0  0  0  0  0  0
   53.6680   23.0930   45.3180 N   0  0  0  0  0  0  0  0  0  0  0  0
   53.6820   24.4310   45.5970 C   0  0  0  0  0  0  0  0  0  0  0  0
   54.9160   25.0570   45.7230 C   0  0  0  0  0  0  0  0  0  0  0  0
   55.1740   26.3450   45.9850 N   0  0  0  0  0  0  0  0  0  0  0  0
   55.6822   30.7982   43.9118 H   0  0  0  0  0  0  0  0  0  0  0  0
   56.6570   29.5371   43.0835 H   0  0  0  0  0  0  0  0  0  0  0  0
   54.8639   29.4304   43.0835 H   0  0  0  0  0  0  0  0  0  0  0  0
   58.2709   32.3180   45.6984 H   0  0  0  0  0  0  0  0  0  0  0  0
   58.5344   32.8802   47.3829 H   0  0  0  0  0  0  0  0  0  0  0  0
   60.5823   32.9615   45.1034 H   0  0  0  0  0  0  0  0  0  0  0  0
   59.6641   34.3692   45.7972 H   0  0  0  0  0  0  0  0  0  0  0  0
   63.2146   34.1503   47.1556 H   0  0  0  0  0  0  0  0  0  0  0  0
   62.7941   33.1053   45.7563 H   0  0  0  0  0  0  0  0  0  0  0  0
   62.3230   34.8388   45.7563 H   0  0  0  0  0  0  0  0  0  0  0  0
   62.4018   32.4406   48.3009 H   0  0  0  0  0  0  0  0  0  0  0  0
   60.6722   32.6727   48.8340 H   0  0  0  0  0  0  0  0  0  0  0  0
   61.6765   30.8476   46.6056 H   0  0  0  0  0  0  0  0  0  0  0  0
   60.9898   30.3626   48.2048 H   0  0  0  0  0  0  0  0  0  0  0  0
   60.1477   28.6757   47.8416 H   0  0  0  0  0  0  0  0  0  0  0  0
   58.7915   26.6210   47.4599 H   0  0  0  0  0  0  0  0  0  0  0  0
   57.0170   22.4433   45.1702 H   0  0  0  0  0  0  0  0  0  0  0  0
   54.7737   21.2961   44.9409 H   0  0  0  0  0  0  0  0  0  0  0  0
   52.7452   24.9948   45.7180 H   0  0  0  0  0  0  0  0  0  0  0  0
  1  2  1  0
  2  3  1  0
  3  4  2  0
  4  5  1  0
  5  6  1  0
  6  7  1  0
  7  8  1  0
  8  9  1  0
  9 10  1  0
  9 11  1  0
 11 12  1  0
  5 13  2  0
 13 14  1  0
 14 15  2  0
 15 16  1  0
 16 17  2  0
 17 18  1  0
 18 19  2  0
 19 20  1  0
 20 21  2  0
 21 22  1  0
 22 23  2  0
 23 24  1  0
 15  3  1  0
 24 16  1  0
 12  6  1  0
 23 18  1  0
  1 25  1  0
  1 26  1  0
  1 27  1  0
  7 28  1  0
  7 29  1  0
  8 30  1  0
  8 31  1  0
 10 32  1  0
 10 33  1  0
 10 34  1  0
 11 35  1  0
 11 36  1  0
 12 37  1  0
 12 38  1  0
 13 39  1  0
 14 40  1  0
 19 41  1  0
 20 42  1  0
 22 43  1  0
M  CHG  1  24  -1
M  END
>  <UniqueID>  (38) 
33

>  <SMILES>  (38) 
COc1nc(N2CCN(C)CC2)ccc1-c1nc2ccncc2[n-]1

>  <Energy>  (38) 
91.44019436051917

>  <Genealogy>  (38) 
COc1nc(N2CCN(C)CC2)ccc1-c1nc2ccncc2[n-]1 (protonated)
COc1nc(N2CCN(C)CC2)ccc1-c1nc2ccncc2[n-]1 (3D coordinates assigned)
COc1nc(N2CCN(C)CC2)ccc1-c1nc2ccncc2[n-]1 (nonaromatic ring conformer: 91.44019436051917 kcal/mol)

>  <smiles>  (38) 
COc1nc(N2CCN(C)CC2)ccc1-c1nc2ccncc2[nH]1

>  <score_type>  (38) 
oracle

>  <origin>  (38) 
adg

>  <m_score__min__energy>  (38) 
-9.1699999999999999

>  <m_primary>  (38) 
energy

$$$$
38:0
     RDKit          3D

 44 47  0  0  0  0  0  0  0  0999 V2000
   59.9570   34.5010   46.5410 C   0  0  0  0  0  0  0  0  0  0  0  0
   58.4750   34.1920   46.3540 C   0  0  0  0  0  0  0  0  0  0  0  0
   58.1060   34.3470   44.9950 O   0  0  0  0  0  0  0  0  0  0  0  0
   57.4310   33.2010   44.5090 C   0  0  0  0  0  0  0  0  0  0  0  0
   58.4400   32.1610   44.0160 C   0  0  0  0  0  0  0  0  0  0  0  0
   58.0140   30.8180   44.4100 N   0  0  0  0  0  0  0  0  0  0  0  0
   56.7290   30.4080   44.5260 C   0  0  0  0  0  0  0  0  0  0  0  0
   56.7200   29.1070   44.9820 C   0  0  0  0  0  0  0  0  0  0  0  0
   58.0300   28.7050   45.1620 C   0  0  0  0  0  0  0  0  0  0  0  0
   58.8040   29.7880   44.8050 C   0  0  0  0  0  0  0  0  0  0  0  0
   60.1960   29.8210   44.8600 O   0  0  0  0  0  0  0  0  0  0  0  0
   58.4300   27.3380   45.6840 C   0  0  1  0  0  0  0  0  0  0  0  0
   59.2060   27.4680   46.9750 C   0  0  0  0  0  0  0  0  0  0  0  0
   58.8640   28.4520   47.9150 C   0  0  0  0  0  0  0  0  0  0  0  0
   59.5880   28.5680   49.1030 C   0  0  0  0  0  0  0  0  0  0  0  0
   60.6530   27.6980   49.3420 C   0  0  0  0  0  0  0  0  0  0  0  0
   60.9770   26.7490   48.4260 N   0  0  0  0  0  0  0  0  0  0  0  0
   60.2870   26.6150   47.2610 C   0  0  0  0  0  0  0  0  0  0  0  0
   57.1720   26.5180   45.8980 C   0  0  0  0  0  0  0  0  0  0  0  0
   55.8950   26.9890   45.6960 C   0  0  0  0  0  0  0  0  0  0  0  0
   54.9870   26.0460   45.9920 N   0  0  0  0  0  0  0  0  0  0  0  0
   55.6540   24.9650   46.3830 N   0  0  0  0  0  0  0  0  0  0  0  0
   56.9820   25.2210   46.3250 C   0  0  0  0  0  0  0  0  0  0  0  0
   58.0420   24.2620   46.7500 C   0  0  0  0  0  0  0  0  0  0  0  0
   55.6210   28.2840   45.2430 O   0  0  0  0  0  0  0  0  0  0  0  0
   60.1888   34.5493   47.6152 H   0  0  0  0  0  0  0  0  0  0  0  0
   60.5588   33.7090   46.0713 H   0  0  0  0  0  0  0  0  0  0  0  0
   60.1922   35.4675   46.0713 H   0  0  0  0  0  0  0  0  0  0  0  0
   58.2784   33.1560   46.6671 H   0  0  0  0  0  0  0  0  0  0  0  0
   57.8849   34.8901   46.9659 H   0  0  0  0  0  0  0  0  0  0  0  0
   56.8264   32.7653   45.3181 H   0  0  0  0  0  0  0  0  0  0  0  0
   56.7819   33.4958   43.6713 H   0  0  0  0  0  0  0  0  0  0  0  0
   58.5093   32.2132   42.9194 H   0  0  0  0  0  0  0  0  0  0  0  0
   59.4219   32.3724   44.4646 H   0  0  0  0  0  0  0  0  0  0  0  0
   55.8396   31.0126   44.2948 H   0  0  0  0  0  0  0  0  0  0  0  0
   60.7150   29.3190   45.5700 H   0  0  0  0  0  0  0  0  0  0  0  0
   59.0812   26.8365   44.9529 H   0  0  0  0  0  0  0  0  0  0  0  0
   58.0238   29.1333   47.7155 H   0  0  0  0  0  0  0  0  0  0  0  0
   59.3219   29.3371   49.8431 H   0  0  0  0  0  0  0  0  0  0  0  0
   61.2311   27.7811   50.2741 H   0  0  0  0  0  0  0  0  0  0  0  0
   60.5759   25.8362   46.5398 H   0  0  0  0  0  0  0  0  0  0  0  0
   58.0835   24.2245   47.8486 H   0  0  0  0  0  0  0  0  0  0  0  0
   57.8097   23.2610   46.3575 H   0  0  0  0  0  0  0  0  0  0  0  0
   59.0148   24.5931   46.3575 H   0  0  0  0  0  0  0  0  0  0  0  0
  1  2  1  0
  2  3  1  0
  3  4  1  0
  4  5  1  0
  5  6  1  0
  6  7  1  0
  7  8  2  0
  8  9  1  0
  9 10  2  0
 10 11  1  0
  9 12  1  0
 12 13  1  0
 13 14  2  0
 14 15  1  0
 15 16  2  0
 16 17  1  0
 17 18  2  0
 12 19  1  0
 19 20  1  0
 20 21  2  0
 21 22  1  0
 22 23  1  0
 23 24  1  0
 20 25  1  0
 10  6  1  0
 18 13  1  0
 23 19  2  0
 25  8  1  0
  1 26  1  0
  1 27  1  0
  1 28  1  0
  2 29  1  0
  2 30  1  0
  4 31  1  0
  4 32  1  0
  5 33  1  0
  5 34  1  0
  7 35  1  0
 11 36  1  0
 12 37  1  6
 14 38  1  0
 15 39  1  0
 16 40  1  0
 18 41  1  0
 24 42  1  0
 24 43  1  0
 24 44  1  0
M  CHG  1  22  -1
M  END
>  <UniqueID>  (39) 
34

>  <SMILES>  (39) 
CCOCCn1cc2c(c1O)[C@@H](c1cccnc1)c1c(n[n-]c1C)O2

>  <Energy>  (39) 
110.45167764778327

>  <Genealogy>  (39) 
CCOCCn1cc2c(c1O)C(c1cccnc1)c1c(n[n-]c1C)O2 (protonated)
CCOCCn1cc2c(c1O)[C@@H](c1cccnc1)c1c(n[n-]c1C)O2 (chirality)
CCOCCn1cc2c(c1O)[C@@H](c1cccnc1)c1c(n[n-]c1C)O2 (3D coordinates assigned)
CCOCCn1cc2c(c1O)[C@@H](c1cccnc1)c1c(n[n-]c1C)O2 (nonaromatic ring conformer: 110.45167764778327 kcal/mol)

>  <smiles>  (39) 
CCOCCn1cc2c(c1O)C(c1cccnc1)c1c(n[nH]c1C)O2

>  <score_type>  (39) 
oracle

>  <origin>  (39) 
adg

>  <m_score__min__energy>  (39) 
-8.4700000000000006

>  <m_primary>  (39) 
energy

$$$$
39:0
     RDKit          3D

 29 30  0  0  0  0  0  0  0  0999 V2000
   57.8625   30.1521   42.7251 H   0  0  0  0  0  0  0  0  0  0  0  0
   57.5730   30.6580   43.6580 C   0  0  0  0  0  0  0  0  0  0  0  0
   57.0450   29.8140   44.7560 C   0  0  0  0  0  0  0  0  0  0  0  0
   55.8980   30.0480   45.2230 O   0  0  0  0  0  0  0  0  0  0  0  0
   57.8790   28.7350   45.3500 C   0  0  0  0  0  0  0  0  0  0  0  0
   58.0200   27.5090   44.6710 C   0  0  0  0  0  0  0  0  0  0  0  0
   57.5229   27.3642   43.7005 H   0  0  0  0  0  0  0  0  0  0  0  0
   58.7830   26.4770   45.2160 C   0  0  0  0  0  0  0  0  0  0  0  0
   58.8872   25.5261   44.6729 H   0  0  0  0  0  0  0  0  0  0  0  0
   59.4140   26.6470   46.4470 C   0  0  0  0  0  0  0  0  0  0  0  0
   60.0128   25.8295   46.8750 H   0  0  0  0  0  0  0  0  0  0  0  0
   59.2870   27.8530   47.1370 C   0  0  0  0  0  0  0  0  0  0  0  0
   59.7878   27.9812   48.1080 H   0  0  0  0  0  0  0  0  0  0  0  0
   58.5220   28.9090   46.6000 C   0  0  0  0  0  0  0  0  0  0  0  0
   58.3980   30.1370   47.2730 O   0  0  0  0  0  0  0  0  0  0  0  0
   59.1510   30.5120   48.4220 C   0  0  0  0  0  0  0  0  0  0  0  0
   58.5958   30.2355   49.3305 H   0  0  0  0  0  0  0  0  0  0  0  0
   60.1198   29.9911   48.4115 H   0  0  0  0  0  0  0  0  0  0  0  0
   59.3190   31.5990   48.4115 H   0  0  0  0  0  0  0  0  0  0  0  0
   57.7260   31.9890   43.7110 C   0  0  0  0  0  0  0  0  0  0  0  0
   57.6260   32.5480   42.7689 H   0  0  0  0  0  0  0  0  0  0  0  0
   58.0180   32.7640   44.9330 C   0  0  0  0  0  0  0  0  0  0  0  0
   58.6890   33.9820   44.8900 C   0  0  0  0  0  0  0  0  0  0  0  0
   59.1041   34.4632   43.9922 H   0  0  0  0  0  0  0  0  0  0  0  0
   58.7510   34.5860   46.4590 S   0  0  0  0  0  0  0  0  0  0  0  0
   57.9080   33.2950   47.1280 C   0  0  0  0  0  0  0  0  0  0  0  0
   57.6630   33.1907   48.1953 H   0  0  0  0  0  0  0  0  0  0  0  0
   57.5740   32.4040   46.1700 N   0  0  0  0  0  0  0  0  0  0  0  0
   57.0060   31.5510   46.3670 H   0  0  0  0  0  0  0  0  0  0  0  0
  1  2  1  0
  2  3  1  0
  3  4  2  0
  3  5  1  0
  5  6  2  0
  6  7  1  0
  6  8  1  0
  8  9  1  0
  8 10  2  0
 10 11  1  0
 10 12  1  0
 12 13  1  0
 12 14  2  0
 14 15  1  0
 15 16  1  0
 16 17  1  0
 16 18  1  0
 16 19  1  0
  2 20  2  0
 20 21  1  0
 20 22  1  0
 22 23  2  0
 23 24  1  0
 23 25  1  0
 25 26  1  0
 26 27  1  0
 26 28  2  0
 28 29  1  0
 14  5  1  0
 28 22  1  0
M  CHG  1  28   1
M  END
>  <UniqueID>  (40) 
35

>  <SMILES>  (40) 
COc1ccccc1C(=O)/C=C\c1csc[nH+]1

>  <Energy>  (40) 
68.17224540897334

>  <Genealogy>  (40) 
COc1ccccc1C(=O)C=Cc1csc[nH+]1 (protonated)
COc1ccccc1C(=O)/C=C\c1csc[nH+]1 (cis-trans isomerization)
COc1ccccc1C(=O)/C=C\c1csc[nH+]1 (3D coordinates assigned)
COc1ccccc1C(=O)/C=C\c1csc[nH+]1 (optimized conformer: 68.17224540897334 kcal/mol)

>  <smiles>  (40) 
COc1ccccc1C(=O)C=Cc1cscn1

>  <score_type>  (40) 
oracle

>  <origin>  (40) 
adg

>  <m_score__min__energy>  (40) 
-5.5700000000000003

>  <m_primary>  (40) 
energy

$$$$
40:0
     RDKit          3D

 42 43  0  0  0  0  0  0  0  0999 V2000
   60.7540   34.5270   46.3710 C   0  0  0  0  0  0  0  0  0  0  0  0
   59.4680   35.2480   45.9740 C   0  0  0  0  0  0  0  0  0  0  0  0
   58.6810   34.5200   44.8730 C   0  0  0  0  0  0  0  0  0  0  0  0
   57.2130   34.2250   45.2490 C   0  0  0  0  0  0  0  0  0  0  0  0
   57.0530   33.1630   46.3530 C   0  0  0  0  0  0  0  0  0  0  0  0
   58.0530   32.0810   46.2240 N   0  0  0  0  0  0  0  0  0  0  0  0
   59.0550   31.9450   47.1700 C   0  0  0  0  0  0  0  0  0  0  0  0
   59.1290   32.7700   48.1250 O   0  0  0  0  0  0  0  0  0  0  0  0
   59.9800   30.9260   47.0800 N   0  0  0  0  0  0  0  0  0  0  0  0
   61.0610   30.7780   48.0700 C   0  0  0  0  0  0  0  0  0  0  0  0
   62.3930   31.2480   47.4750 C   0  0  0  0  0  0  0  0  0  0  0  0
   62.8520   32.5620   48.1170 C   0  0  0  0  0  0  0  0  0  0  0  0
   63.7240   33.3670   47.1590 C   0  0  0  0  0  0  0  0  0  0  0  0
   59.8890   30.0930   46.0080 C   0  0  0  0  0  0  0  0  0  0  0  0
   60.6810   29.0260   45.6260 C   0  0  0  0  0  0  0  0  0  0  0  0
   60.1620   28.5500   44.4660 N   0  0  0  0  0  0  0  0  0  0  0  0
   59.1070   29.3020   44.1730 N   0  0  0  0  0  0  0  0  0  0  0  0
   58.9390   30.2340   45.0950 N   0  0  0  0  0  0  0  0  0  0  0  0
   58.0080   31.2070   45.1640 C   0  0  0  0  0  0  0  0  0  0  0  0
   57.1260   31.3050   44.2660 O   0  0  0  0  0  0  0  0  0  0  0  0
   60.8276   34.4857   47.4678 H   0  0  0  0  0  0  0  0  0  0  0  0
   60.7412   33.5045   45.9656 H   0  0  0  0  0  0  0  0  0  0  0  0
   61.6197   35.0713   45.9656 H   0  0  0  0  0  0  0  0  0  0  0  0
   58.8266   35.3341   46.8635 H   0  0  0  0  0  0  0  0  0  0  0  0
   59.7549   36.2320   45.5746 H   0  0  0  0  0  0  0  0  0  0  0  0
   58.6884   35.1467   43.9690 H   0  0  0  0  0  0  0  0  0  0  0  0
   59.1732   33.5489   44.7156 H   0  0  0  0  0  0  0  0  0  0  0  0
   56.7503   35.1599   45.5980 H   0  0  0  0  0  0  0  0  0  0  0  0
   56.7268   33.8241   44.3474 H   0  0  0  0  0  0  0  0  0  0  0  0
   57.1766   33.6469   47.3331 H   0  0  0  0  0  0  0  0  0  0  0  0
   56.0523   32.7168   46.2555 H   0  0  0  0  0  0  0  0  0  0  0  0
   60.8259   31.3836   48.9577 H   0  0  0  0  0  0  0  0  0  0  0  0
   61.1478   29.7179   48.3503 H   0  0  0  0  0  0  0  0  0  0  0  0
   63.1570   30.4764   47.6507 H   0  0  0  0  0  0  0  0  0  0  0  0
   62.2537   31.4162   46.3969 H   0  0  0  0  0  0  0  0  0  0  0  0
   61.9677   33.1587   48.3852 H   0  0  0  0  0  0  0  0  0  0  0  0
   63.4448   32.3244   49.0126 H   0  0  0  0  0  0  0  0  0  0  0  0
   64.4123   34.0024   47.7357 H   0  0  0  0  0  0  0  0  0  0  0  0
   64.3035   32.6797   46.5252 H   0  0  0  0  0  0  0  0  0  0  0  0
   63.0851   33.9995   46.5252 H   0  0  0  0  0  0  0  0  0  0  0  0
   61.5614   28.6380   46.1592 H   0  0  0  0  0  0  0  0  0  0  0  0
   58.5060   29.1740   43.3290 H   0  0  0  0  0  0  0  0  0  0  0  0
  1  2  1  0
  2  3  1  0
  3  4  1  0
  4  5  1  0
  5  6  1  0
  6  7  1  0
  7  8  2  0
  7  9  1  0
  9 10  1  0
 10 11  1  0
 11 12  1  0
 12 13  1  0
  9 14  1  0
 14 15  2  0
 15 16  1  0
 16 17  2  0
 17 18  1  0
 18 19  1  0
 19 20  2  0
 19  6  1  0
 18 14  1  0
  1 21  1  0
  1 22  1  0
  1 23  1  0
  2 24  1  0
  2 25  1  0
  3 26  1  0
  3 27  1  0
  4 28  1  0
  4 29  1  0
  5 30  1  0
  5 31  1  0
 10 32  1  0
 10 33  1  0
 11 34  1  0
 11 35  1  0
 12 36  1  0
 12 37  1  0
 13 38  1  0
 13 39  1  0
 13 40  1  0
 15 41  1  0
 17 42  1  0
M  CHG  1  17   1
M  END
>  <UniqueID>  (41) 
36

>  <SMILES>  (41) 
CCCCCn1c(=O)n(CCCC)c2cn[nH+]n2c1=O

>  <Energy>  (41) 
79.1464551045188

>  <Genealogy>  (41) 
CCCCCn1c(=O)n(CCCC)c2cn[nH+]n2c1=O (protonated)
CCCCCn1c(=O)n(CCCC)c2cn[nH+]n2c1=O (3D coordinates assigned)
CCCCCn1c(=O)n(CCCC)c2cn[nH+]n2c1=O (optimized conformer: 79.1464551045188 kcal/mol)

>  <smiles>  (41) 
CCCCCn1c(=O)n(CCCC)c2cnnn2c1=O

>  <score_type>  (41) 
oracle

>  <origin>  (41) 
adg

>  <m_score__min__energy>  (41) 
-4.9900000000000002

>  <m_primary>  (41) 
energy

$$$$
41:0
     RDKit          3D

 41 43  0  0  0  0  0  0  0  0999 V2000
   56.1175   28.7297   43.3593 H   0  0  0  0  0  0  0  0  0  0  0  0
   57.0910   28.8040   43.8660 C   0  0  0  0  0  0  0  0  0  0  0  0
   57.8520   27.7070   43.9450 C   0  0  0  0  0  0  0  0  0  0  0  0
   58.8062   27.6732   43.3988 H   0  0  0  0  0  0  0  0  0  0  0  0
   57.4310   26.5200   44.7640 C   0  0  0  0  0  0  0  0  0  0  0  0
   58.3223   25.9242   45.0101 H   0  0  0  0  0  0  0  0  0  0  0  0
   56.7129   25.9351   44.1705 H   0  0  0  0  0  0  0  0  0  0  0  0
   56.7390   26.9380   46.0680 C   0  0  0  0  0  0  0  0  0  0  0  0
   56.8576   28.0226   46.2080 H   0  0  0  0  0  0  0  0  0  0  0  0
   57.2009   26.3921   46.9039 H   0  0  0  0  0  0  0  0  0  0  0  0
   55.3150   26.6130   46.0250 N   0  0  0  0  0  0  0  0  0  0  0  0
   55.1360   25.8780   46.7460 H   0  0  0  0  0  0  0  0  0  0  0  0
   54.7780   27.4600   46.3230 H   0  0  0  0  0  0  0  0  0  0  0  0
   57.4930   30.1090   44.4250 C   0  0  0  0  0  0  0  0  0  0  0  0
   58.2320   30.2540   45.5980 C   0  0  0  0  0  0  0  0  0  0  0  0
   58.6064   29.4558   46.2559 H   0  0  0  0  0  0  0  0  0  0  0  0
   58.3920   31.6130   45.7550 C   0  0  0  0  0  0  0  0  0  0  0  0
   59.0460   32.3440   46.7380 C   0  0  0  0  0  0  0  0  0  0  0  0
   59.5541   31.8477   47.5779 H   0  0  0  0  0  0  0  0  0  0  0  0
   59.0320   33.7510   46.6150 C   0  0  0  0  0  0  0  0  0  0  0  0
   59.7580   34.5990   47.6220 C   0  0  0  0  0  0  0  0  0  0  0  0
   59.7788   35.6418   47.2724 H   0  0  0  0  0  0  0  0  0  0  0  0
   59.2350   34.5391   48.5879 H   0  0  0  0  0  0  0  0  0  0  0  0
   61.1680   34.1030   47.7930 C   0  0  0  0  0  0  0  0  0  0  0  0
   61.9710   33.8520   46.6680 C   0  0  0  0  0  0  0  0  0  0  0  0
   61.5585   33.9918   45.6579 H   0  0  0  0  0  0  0  0  0  0  0  0
   63.2930   33.4250   46.8280 C   0  0  0  0  0  0  0  0  0  0  0  0
   63.9158   33.2227   45.9441 H   0  0  0  0  0  0  0  0  0  0  0  0
   63.8240   33.2550   48.1100 C   0  0  0  0  0  0  0  0  0  0  0  0
   64.8635   32.9174   48.2344 H   0  0  0  0  0  0  0  0  0  0  0  0
   63.0340   33.5140   49.2340 C   0  0  0  0  0  0  0  0  0  0  0  0
   63.4530   33.3814   50.2424 H   0  0  0  0  0  0  0  0  0  0  0  0
   61.7130   33.9410   49.0780 C   0  0  0  0  0  0  0  0  0  0  0  0
   61.0970   34.1513   49.9647 H   0  0  0  0  0  0  0  0  0  0  0  0
   58.4030   34.3420   45.5430 N   0  0  0  0  0  0  0  0  0  0  0  0
   58.4110   35.3830   45.4470 H   0  0  0  0  0  0  0  0  0  0  0  0
   57.7640   33.6060   44.5840 C   0  0  0  0  0  0  0  0  0  0  0  0
   57.2619   34.0972   43.7374 H   0  0  0  0  0  0  0  0  0  0  0  0
   57.7650   32.2220   44.7060 C   0  0  0  0  0  0  0  0  0  0  0  0
   57.2090   31.3200   43.8800 N   0  0  0  0  0  0  0  0  0  0  0  0
   56.6790   31.5300   43.0060 H   0  0  0  0  0  0  0  0  0  0  0  0
  1  2  1  0
  2  3  2  0
  3  4  1  0
  3  5  1  0
  5  6  1  0
  5  7  1  0
  5  8  1  0
  8  9  1  0
  8 10  1  0
  8 11  1  0
 11 12  1  0
 11 13  1  0
  2 14  1  0
 14 15  2  0
 15 16  1  0
 15 17  1  0
 17 18  2  0
 18 19  1  0
 18 20  1  0
 20 21  1  0
 21 22  1  0
 21 23  1  0
 21 24  1  0
 24 25  2  0
 25 26  1  0
 25 27  1  0
 27 28  1  0
 27 29  2  0
 29 30  1  0
 29 31  1  0
 31 32  1  0
 31 33  2  0
 33 34  1  0
 20 35  2  0
 35 36  1  0
 35 37  1  0
 37 38  1  0
 37 39  2  0
 39 40  1  0
 40 41  1  0
 40 14  1  0
 39 17  1  0
 33 24  1  0
M  CHG  1  35   1
M  END
>  <UniqueID>  (42) 
37

>  <SMILES>  (42) 
NCC/C=C/c1cc2cc(Cc3ccccc3)[nH+]cc2[nH]1

>  <Energy>  (42) 
68.8641872005488

>  <Genealogy>  (42) 
NCCC=Cc1cc2cc(Cc3ccccc3)[nH+]cc2[nH]1 (protonated)
NCC/C=C/c1cc2cc(Cc3ccccc3)[nH+]cc2[nH]1 (cis-trans isomerization)
NCC/C=C/c1cc2cc(Cc3ccccc3)[nH+]cc2[nH]1 (3D coordinates assigned)
NCC/C=C/c1cc2cc(Cc3ccccc3)[nH+]cc2[nH]1 (optimized conformer: 68.8641872005488 kcal/mol)

>  <smiles>  (42) 
NCCC=Cc1cc2cc(Cc3ccccc3)ncc2[nH]1

>  <score_type>  (42) 
oracle

>  <origin>  (42) 
adg

>  <m_score__min__energy>  (42) 
-6.5599999999999996

>  <m_primary>  (42) 
energy

$$$$
42:0
     RDKit          3D

 43 45  0  0  0  0  0  0  0  0999 V2000
   58.4396   35.0506   43.9892 H   0  0  0  0  0  0  0  0  0  0  0  0
   58.8020   34.5740   44.9120 C   0  0  0  0  0  0  0  0  0  0  0  0
   59.6360   35.3400   46.1530 S   0  0  0  0  0  0  0  0  0  0  0  0
   59.7930   33.9330   47.0690 C   0  0  0  0  0  0  0  0  0  0  0  0
   60.3740   33.8430   48.2330 N   0  0  0  0  0  0  0  0  0  0  0  0
   61.7760   33.6470   48.4770 C   0  0  0  0  0  0  0  0  0  0  0  0
   62.6730   33.5180   47.4030 C   0  0  0  0  0  0  0  0  0  0  0  0
   62.3057   33.6200   46.3711 H   0  0  0  0  0  0  0  0  0  0  0  0
   64.0240   33.2620   47.6330 C   0  0  0  0  0  0  0  0  0  0  0  0
   64.7211   33.1862   46.7855 H   0  0  0  0  0  0  0  0  0  0  0  0
   64.4920   33.1020   48.9360 C   0  0  0  0  0  0  0  0  0  0  0  0
   65.5594   32.9039   49.1134 H   0  0  0  0  0  0  0  0  0  0  0  0
   63.6120   33.1920   50.0190 C   0  0  0  0  0  0  0  0  0  0  0  0
   64.2590   32.9300   51.6370 Cl  0  0  0  0  0  0  0  0  0  0  0  0
   62.2450   33.4700   49.8010 C   0  0  0  0  0  0  0  0  0  0  0  0
   61.2950   33.5380   50.9720 C   0  0  0  0  0  0  0  0  0  0  0  0
   61.8667   33.4971   51.9108 H   0  0  0  0  0  0  0  0  0  0  0  0
   60.7271   34.4791   50.9293 H   0  0  0  0  0  0  0  0  0  0  0  0
   60.5988   32.6874   50.9293 H   0  0  0  0  0  0  0  0  0  0  0  0
   59.1940   32.8760   46.4610 N   0  0  0  0  0  0  0  0  0  0  0  0
   59.2620   31.4990   46.9780 C   0  0  0  0  0  0  0  0  0  0  0  0
   58.3846   30.9375   46.6245 H   0  0  0  0  0  0  0  0  0  0  0  0
   59.2762   31.5359   48.0773 H   0  0  0  0  0  0  0  0  0  0  0  0
   60.5360   30.7970   46.4940 C   0  0  0  0  0  0  0  0  0  0  0  0
   60.9987   31.4003   45.6991 H   0  0  0  0  0  0  0  0  0  0  0  0
   60.2635   29.8011   46.1146 H   0  0  0  0  0  0  0  0  0  0  0  0
   61.4630   30.6370   47.5520 O   0  0  0  0  0  0  0  0  0  0  0  0
   60.8000   30.2340   48.7310 C   0  0  0  0  0  0  0  0  0  0  0  0
   61.3681   30.5793   49.6074 H   0  0  0  0  0  0  0  0  0  0  0  0
   59.7911   30.6718   48.7522 H   0  0  0  0  0  0  0  0  0  0  0  0
   60.7241   29.1368   48.7522 H   0  0  0  0  0  0  0  0  0  0  0  0
   58.6480   33.2310   45.2520 C   0  0  0  0  0  0  0  0  0  0  0  0
   57.9650   32.2860   44.3490 C   0  0  0  0  0  0  0  0  0  0  0  0
   57.1820   31.2430   44.8690 C   0  0  0  0  0  0  0  0  0  0  0  0
   57.0867   31.1193   45.9579 H   0  0  0  0  0  0  0  0  0  0  0  0
   56.5230   30.3610   44.0070 C   0  0  0  0  0  0  0  0  0  0  0  0
   55.9188   29.5388   44.4180 H   0  0  0  0  0  0  0  0  0  0  0  0
   56.6320   30.5240   42.6230 C   0  0  0  0  0  0  0  0  0  0  0  0
   56.1161   29.8277   41.9455 H   0  0  0  0  0  0  0  0  0  0  0  0
   57.3960   31.5710   42.0990 C   0  0  0  0  0  0  0  0  0  0  0  0
   57.4779   31.7002   41.0097 H   0  0  0  0  0  0  0  0  0  0  0  0
   58.0560   32.4540   42.9590 C   0  0  0  0  0  0  0  0  0  0  0  0
   58.6484   33.2830   42.5445 H   0  0  0  0  0  0  0  0  0  0  0  0
  1  2  1  0
  2  3  1  0
  3  4  1  0
  4  5  2  0
  5  6  1  0
  6  7  2  0
  7  8  1  0
  7  9  1  0
  9 10  1  0
  9 11  2  0
 11 12  1  0
 11 13  1  0
 13 14  1  0
 13 15  2  0
 15 16  1  0
 16 17  1  0
 16 18  1  0
 16 19  1  0
  4 20  1  0
 20 21  1  0
 21 22  1  0
 21 23  1  0
 21 24  1  0
 24 25  1  0
 24 26  1  0
 24 27  1  0
 27 28  1  0
 28 29  1  0
 28 30  1  0
 28 31  1  0
 20 32  1  0
 32 33  1  0
 33 34  2  0
 34 35  1  0
 34 36  1  0
 36 37  1  0
 36 38  2  0
 38 39  1  0
 38 40  1  0
 40 41  1  0
 40 42  2  0
 42 43  1  0
 32  2  2  0
 42 33  1  0
 15  6  1  0
M  END
>  <UniqueID>  (43) 
38

>  <SMILES>  (43) 
COCCn1c(-c2ccccc2)cs/c1=N\c1cccc(Cl)c1C

>  <Energy>  (43) 
90.70668718219795

>  <Genealogy>  (43) 
COCCn1c(-c2ccccc2)cs/c1=N\c1cccc(Cl)c1C (cis-trans isomerization)
COCCn1c(-c2ccccc2)cs/c1=N\c1cccc(Cl)c1C (3D coordinates assigned)
COCCn1c(-c2ccccc2)cs/c1=N\c1cccc(Cl)c1C (optimized conformer: 90.70668718219795 kcal/mol)

>  <smiles>  (43) 
COCCn1c(-c2ccccc2)csc1=Nc1cccc(Cl)c1C

>  <score_type>  (43) 
oracle

>  <origin>  (43) 
adg

>  <m_score__min__energy>  (43) 
-7.4400000000000004

>  <m_primary>  (43) 
energy

$$$$
43:0
     RDKit          3D

 22 23  0  0  0  0  0  0  0  0999 V2000
   55.7630   26.4330   54.5100 C   0  0  0  0  0  0  0  0  0  0  0  0
   55.9990   27.8360   54.5530 O   0  0  0  0  0  0  0  0  0  0  0  0
   55.3090   28.7810   53.7780 C   0  0  0  0  0  0  0  0  0  0  0  0
   55.9410   29.5350   52.7710 C   0  0  0  0  0  0  0  0  0  0  0  0
   55.2150   30.4660   52.0230 C   0  0  0  0  0  0  0  0  0  0  0  0
   53.8480   30.6590   52.2690 C   0  0  0  0  0  0  0  0  0  0  0  0
   53.1110   31.5920   51.5240 C   0  0  0  0  0  0  0  0  0  0  0  0
   51.7470   31.7740   51.7790 C   0  0  0  0  0  0  0  0  0  0  0  0
   51.0200   32.6980   51.0390 O   0  0  0  0  0  0  0  0  0  0  0  0
   51.1140   31.0290   52.7790 C   0  0  0  0  0  0  0  0  0  0  0  0
   51.8380   30.0960   53.5280 C   0  0  0  0  0  0  0  0  0  0  0  0
   53.2060   29.9040   53.2810 C   0  0  0  0  0  0  0  0  0  0  0  0
   53.9450   28.9720   54.0260 C   0  0  0  0  0  0  0  0  0  0  0  0
   55.6970   26.0407   55.5355 H   0  0  0  0  0  0  0  0  0  0  0  0
   54.8191   26.2360   53.9806 H   0  0  0  0  0  0  0  0  0  0  0  0
   56.5905   25.9380   53.9806 H   0  0  0  0  0  0  0  0  0  0  0  0
   57.0131   29.3905   52.5716 H   0  0  0  0  0  0  0  0  0  0  0  0
   55.7180   31.0498   51.2380 H   0  0  0  0  0  0  0  0  0  0  0  0
   53.6061   32.1814   50.7382 H   0  0  0  0  0  0  0  0  0  0  0  0
   50.0422   31.1775   52.9772 H   0  0  0  0  0  0  0  0  0  0  0  0
   51.3343   29.5116   54.3121 H   0  0  0  0  0  0  0  0  0  0  0  0
   53.4472   28.3859   54.8126 H   0  0  0  0  0  0  0  0  0  0  0  0
  1  2  1  0
  2  3  1  0
  3  4  2  0
  4  5  1  0
  5  6  2  0
  6  7  1  0
  7  8  2  0
  8  9  1  0
  8 10  1  0
 10 11  2  0
 11 12  1  0
 12 13  2  0
 13  3  1  0
 12  6  1  0
  1 14  1  0
  1 15  1  0
  1 16  1  0
  4 17  1  0
  5 18  1  0
  7 19  1  0
 10 20  1  0
 11 21  1  0
 13 22  1  0
M  CHG  1   9  -1
M  END
>  <UniqueID>  (44) 
39

>  <SMILES>  (44) 
COc1ccc2cc([O-])ccc2c1

>  <Energy>  (44) 
25.075949679835254

>  <Genealogy>  (44) 
COc1ccc2cc([O-])ccc2c1 (protonated)
COc1ccc2cc([O-])ccc2c1 (3D coordinates assigned)
COc1ccc2cc([O-])ccc2c1 (optimized conformer: 25.075949679835254 kcal/mol)

>  <smiles>  (44) 
COc1ccc2cc(O)ccc2c1

>  <score_type>  (44) 
oracle

>  <origin>  (44) 
adg

>  <m_score__min__energy>  (44) 
-8.8200000000000003

>  <m_primary>  (44) 
energy

$$$$
44:0
     RDKit          3D

 32 33  0  0  0  0  0  0  0  0999 V2000
   56.6650   30.4230   43.3850 C   0  0  0  0  0  0  0  0  0  0  0  0
   56.5750   30.9160   44.7170 O   0  0  0  0  0  0  0  0  0  0  0  0
   57.3980   31.9200   45.2470 C   0  0  0  0  0  0  0  0  0  0  0  0
   58.1580   31.6250   46.3850 C   0  0  0  0  0  0  0  0  0  0  0  0
   58.9940   32.5910   46.9520 C   0  0  0  0  0  0  0  0  0  0  0  0
   59.0770   33.8770   46.3920 C   0  0  0  0  0  0  0  0  0  0  0  0
   59.9620   34.8650   46.9570 N   0  0  0  0  0  0  0  0  0  0  0  0
   61.0930   34.2090   47.5630 C   0  0  0  0  0  0  0  0  0  0  0  0
   62.1360   33.7070   46.7700 C   0  0  0  0  0  0  0  0  0  0  0  0
   63.2380   33.1020   47.3770 C   0  0  0  0  0  0  0  0  0  0  0  0
   63.3200   33.0130   48.7390 N   0  0  0  0  0  0  0  0  0  0  0  0
   64.4660   32.3420   49.3540 C   0  0  0  0  0  0  0  0  0  0  0  0
   62.3080   33.4850   49.5270 C   0  0  0  0  0  0  0  0  0  0  0  0
   61.1900   34.0970   48.9570 C   0  0  0  0  0  0  0  0  0  0  0  0
   58.3180   34.1730   45.2450 C   0  0  0  0  0  0  0  0  0  0  0  0
   57.4830   33.2050   44.6790 C   0  0  0  0  0  0  0  0  0  0  0  0
   56.8625   29.3411   43.4070 H   0  0  0  0  0  0  0  0  0  0  0  0
   55.7175   30.6121   42.8592 H   0  0  0  0  0  0  0  0  0  0  0  0
   57.4846   30.9347   42.8592 H   0  0  0  0  0  0  0  0  0  0  0  0
   58.0967   30.6240   46.8370 H   0  0  0  0  0  0  0  0  0  0  0  0
   59.5907   32.3429   47.8422 H   0  0  0  0  0  0  0  0  0  0  0  0
   60.2860   35.5260   46.2120 H   0  0  0  0  0  0  0  0  0  0  0  0
   59.4530   35.4380   47.6700 H   0  0  0  0  0  0  0  0  0  0  0  0
   62.0856   33.7898   45.6743 H   0  0  0  0  0  0  0  0  0  0  0  0
   64.0474   32.6933   46.7542 H   0  0  0  0  0  0  0  0  0  0  0  0
   64.3770   32.3941   50.4492 H   0  0  0  0  0  0  0  0  0  0  0  0
   64.4874   31.2887   49.0375 H   0  0  0  0  0  0  0  0  0  0  0  0
   65.3950   32.8388   49.0375 H   0  0  0  0  0  0  0  0  0  0  0  0
   62.3749   33.3818   50.6201 H   0  0  0  0  0  0  0  0  0  0  0  0
   60.3882   34.4899   49.5994 H   0  0  0  0  0  0  0  0  0  0  0  0
   58.3820   35.1727   44.7905 H   0  0  0  0  0  0  0  0  0  0  0  0
   56.8896   33.4488   43.7855 H   0  0  0  0  0  0  0  0  0  0  0  0
  1  2  1  0
  2  3  1  0
  3  4  2  0
  4  5  1  0
  5  6  2  0
  6  7  1  0
  7  8  1  0
  8  9  2  0
  9 10  1  0
 10 11  2  0
 11 12  1  0
 11 13  1  0
 13 14  2  0
  6 15  1  0
 15 16  2  0
 16  3  1  0
 14  8  1  0
  1 17  1  0
  1 18  1  0
  1 19  1  0
  4 20  1  0
  5 21  1  0
  7 22  1  0
  7 23  1  0
  9 24  1  0
 10 25  1  0
 12 26  1  0
 12 27  1  0
 12 28  1  0
 13 29  1  0
 14 30  1  0
 15 31  1  0
 16 32  1  0
M  CHG  2   7   1  11   1
M  END
>  <UniqueID>  (45) 
40

>  <SMILES>  (45) 
COc1ccc([NH2+]c2cc[n+](C)cc2)cc1

>  <Energy>  (45) 
33.662741149571346

>  <Genealogy>  (45) 
COc1ccc([NH2+]c2cc[n+](C)cc2)cc1 (protonated)
COc1ccc([NH2+]c2cc[n+](C)cc2)cc1 (3D coordinates assigned)
COc1ccc([NH2+]c2cc[n+](C)cc2)cc1 (optimized conformer: 33.662741149571346 kcal/mol)

>  <smiles>  (45) 
COc1ccc(Nc2cc[n+](C)cc2)cc1

>  <score_type>  (45) 
oracle

>  <origin>  (45) 
adg

>  <m_score__min__energy>  (45) 
-3.1400000000000001

>  <m_primary>  (45) 
energy

$$$$
45:0
     RDKit          3D

 55 58  0  0  0  0  0  0  0  0999 V2000
   58.5580   32.5900   47.8250 C   0  0  0  0  0  0  0  0  0  0  0  0
   58.6140   33.0720   46.4400 N   0  0  0  0  0  0  0  0  0  0  0  0
   59.2100   34.3820   46.1470 C   0  0  0  0  0  0  0  0  0  0  0  0
   58.0980   32.2510   45.3650 C   0  0  0  0  0  0  0  0  0  0  0  0
   58.0410   32.6700   44.0320 C   0  0  0  0  0  0  0  0  0  0  0  0
   57.3800   31.4300   43.1080 S   0  0  0  0  0  0  0  0  0  0  0  0
   57.1460   30.3590   44.3810 C   0  0  0  0  0  0  0  0  0  0  0  0
   56.6210   28.9630   44.2460 C   0  0  0  0  0  0  0  0  0  0  0  0
   56.4090   28.3640   45.5770 N   0  0  0  0  0  0  0  0  0  0  0  0
   57.1320   27.0850   45.8230 C   0  0  2  0  0  0  0  0  0  0  0  0
   56.2110   25.8800   45.6240 C   0  0  0  0  0  0  0  0  0  0  0  0
   54.9800   25.9780   45.8890 O   0  0  0  0  0  0  0  0  0  0  0  0
   56.7360   24.6120   45.1960 N   0  0  0  0  0  0  0  0  0  0  0  0
   55.8660   23.4500   44.9820 C   0  0  0  0  0  0  0  0  0  0  0  0
   55.3380   23.4200   43.5490 C   0  0  0  0  0  0  0  0  0  0  0  0
   56.3290   22.5750   42.7720 C   0  0  0  0  0  0  0  0  0  0  0  0
   56.8430   21.5440   43.7660 C   0  0  0  0  0  0  0  0  0  0  0  0
   56.6580   22.1480   45.1590 C   0  0  0  0  0  0  0  0  0  0  0  0
   57.6100   27.1010   47.3080 C   0  0  0  0  0  0  0  0  0  0  0  0
   58.5130   28.3170   47.6280 C   0  0  0  0  0  0  0  0  0  0  0  0
   59.4970   28.5590   46.5220 C   0  0  0  0  0  0  0  0  0  0  0  0
   60.5280   29.4160   46.5570 N   0  0  0  0  0  0  0  0  0  0  0  0
   61.0460   29.3320   45.3090 C   0  0  0  0  0  0  0  0  0  0  0  0
   60.3850   28.4760   44.4940 N   0  0  0  0  0  0  0  0  0  0  0  0
   59.3940   28.0170   45.2720 C   0  0  0  0  0  0  0  0  0  0  0  0
   58.3960   26.9640   44.9050 C   0  0  0  0  0  0  0  0  0  0  0  0
   57.6010   30.9440   45.5530 C   0  0  0  0  0  0  0  0  0  0  0  0
   58.6570   33.4418   48.5140 H   0  0  0  0  0  0  0  0  0  0  0  0
   57.5954   32.0871   47.9996 H   0  0  0  0  0  0  0  0  0  0  0  0
   59.3797   31.8798   47.9996 H   0  0  0  0  0  0  0  0  0  0  0  0
   59.4445   34.8974   47.0901 H   0  0  0  0  0  0  0  0  0  0  0  0
   60.1335   34.2429   45.5657 H   0  0  0  0  0  0  0  0  0  0  0  0
   58.4984   34.9868   45.5657 H   0  0  0  0  0  0  0  0  0  0  0  0
   58.3730   33.6472   43.6515 H   0  0  0  0  0  0  0  0  0  0  0  0
   55.6651   28.9860   43.7022 H   0  0  0  0  0  0  0  0  0  0  0  0
   57.3546   28.3570   43.6941 H   0  0  0  0  0  0  0  0  0  0  0  0
   55.3840   28.2170   45.7410 H   0  0  0  0  0  0  0  0  0  0  0  0
   57.7680   24.4980   45.0790 H   0  0  0  0  0  0  0  0  0  0  0  0
   55.0452   23.5321   45.7097 H   0  0  0  0  0  0  0  0  0  0  0  0
   54.3368   22.9656   43.5173 H   0  0  0  0  0  0  0  0  0  0  0  0
   55.2434   24.4313   43.1267 H   0  0  0  0  0  0  0  0  0  0  0  0
   55.8320   22.0794   41.9250 H   0  0  0  0  0  0  0  0  0  0  0  0
   57.1445   23.1817   42.3516 H   0  0  0  0  0  0  0  0  0  0  0  0
   56.2666   20.6113   43.6773 H   0  0  0  0  0  0  0  0  0  0  0  0
   57.8992   21.3026   43.5759 H   0  0  0  0  0  0  0  0  0  0  0  0
   56.1003   21.4511   45.8019 H   0  0  0  0  0  0  0  0  0  0  0  0
   57.6305   22.3418   45.6351 H   0  0  0  0  0  0  0  0  0  0  0  0
   56.7265   27.1360   47.9624 H   0  0  0  0  0  0  0  0  0  0  0  0
   58.2036   26.1906   47.4775 H   0  0  0  0  0  0  0  0  0  0  0  0
   57.8834   29.2105   47.7517 H   0  0  0  0  0  0  0  0  0  0  0  0
   59.0692   28.1077   48.5536 H   0  0  0  0  0  0  0  0  0  0  0  0
   61.9257   29.9079   44.9857 H   0  0  0  0  0  0  0  0  0  0  0  0
   58.0977   27.0945   43.8543 H   0  0  0  0  0  0  0  0  0  0  0  0
   58.8496   25.9713   45.0419 H   0  0  0  0  0  0  0  0  0  0  0  0
   57.5769   30.4400   46.5305 H   0  0  0  0  0  0  0  0  0  0  0  0
  1  2  1  0
  2  3  1  0
  2  4  1  0
  4  5  2  0
  5  6  1  0
  6  7  1  0
  7  8  1  0
  8  9  1  0
 10  9  1  6
 10 11  1  0
 11 12  2  0
 11 13  1  0
 13 14  1  0
 14 15  1  0
 15 16  1  0
 16 17  1  0
 17 18  1  0
 10 19  1  0
 19 20  1  0
 20 21  1  0
 21 22  1  0
 22 23  2  0
 23 24  1  0
 24 25  1  0
 25 26  1  0
  7 27  2  0
 27  4  1  0
 26 10  1  0
 18 14  1  0
 25 21  2  0
  1 28  1  0
  1 29  1  0
  1 30  1  0
  3 31  1  0
  3 32  1  0
  3 33  1  0
  5 34  1  0
  8 35  1  0
  8 36  1  0
  9 37  1  0
 13 38  1  0
 14 39  1  0
 15 40  1  0
 15 41  1  0
 16 42  1  0
 16 43  1  0
 17 44  1  0
 17 45  1  0
 18 46  1  0
 18 47  1  0
 19 48  1  0
 19 49  1  0
 20 50  1  0
 20 51  1  0
 23 52  1  0
 26 53  1  0
 26 54  1  0
 27 55  1  0
M  CHG  1  24  -1
M  END
>  <UniqueID>  (46) 
41

>  <SMILES>  (46) 
CN(C)c1csc(CN[C@]2(C(=O)NC3CCCC3)CCc3nc[n-]c3C2)c1

>  <Energy>  (46) 
114.95234314851466

>  <Genealogy>  (46) 
CN(C)c1csc(CNC2(C(=O)NC3CCCC3)CCc3nc[n-]c3C2)c1 (protonated)
CN(C)c1csc(CN[C@]2(C(=O)NC3CCCC3)CCc3nc[n-]c3C2)c1 (chirality)
CN(C)c1csc(CN[C@]2(C(=O)NC3CCCC3)CCc3nc[n-]c3C2)c1 (3D coordinates assigned)
CN(C)c1csc(CN[C@]2(C(=O)NC3CCCC3)CCc3nc[n-]c3C2)c1 (nonaromatic ring conformer: 114.95234314851466 kcal/mol)

>  <smiles>  (46) 
CN(C)c1csc(CNC2(C(=O)NC3CCCC3)CCc3nc[nH]c3C2)c1

>  <score_type>  (46) 
oracle

>  <origin>  (46) 
adg

>  <m_score__min__energy>  (46) 
-9.1400000000000006

>  <m_primary>  (46) 
energy

$$$$
46:0
     RDKit          3D

 25 27  0  0  0  0  0  0  0  0999 V2000
   55.9740   30.8500   44.5000 O   0  0  0  0  0  0  0  0  0  0  0  0
   57.2240   30.9240   44.6590 C   0  0  0  0  0  0  0  0  0  0  0  0
   57.8300   32.1890   45.0990 C   0  0  0  0  0  0  0  0  0  0  0  0
   57.4040   33.4230   44.5860 C   0  0  0  0  0  0  0  0  0  0  0  0
   58.1280   34.5850   44.8780 C   0  0  0  0  0  0  0  0  0  0  0  0
   59.2800   34.5140   45.6710 C   0  0  0  0  0  0  0  0  0  0  0  0
   59.9820   35.6410   45.9480 F   0  0  0  0  0  0  0  0  0  0  0  0
   59.6930   33.2860   46.1970 C   0  0  0  0  0  0  0  0  0  0  0  0
   58.9580   32.1270   45.9220 C   0  0  0  0  0  0  0  0  0  0  0  0
   59.3300   30.5920   46.7710 S   0  0  0  0  0  0  0  0  0  0  0  0
   59.0820   29.5300   45.3250 C   0  0  0  0  0  0  0  0  0  0  0  0
   59.7920   28.3980   45.2540 C   0  0  0  0  0  0  0  0  0  0  0  0
   59.4750   27.4220   44.3000 O   0  0  0  0  0  0  0  0  0  0  0  0
   58.3800   27.5590   43.3900 C   0  0  0  0  0  0  0  0  0  0  0  0
   57.3750   28.6030   43.9010 C   0  0  0  0  0  0  0  0  0  0  0  0
   58.1020   29.8300   44.2910 N   0  0  1  0  0  0  0  0  0  0  0  0
   56.5038   33.4775   43.9562 H   0  0  0  0  0  0  0  0  0  0  0  0
   57.7915   35.5553   44.4839 H   0  0  0  0  0  0  0  0  0  0  0  0
   60.5939   33.2309   46.8258 H   0  0  0  0  0  0  0  0  0  0  0  0
   60.6290   28.2328   45.9483 H   0  0  0  0  0  0  0  0  0  0  0  0
   58.7634   27.8770   42.4093 H   0  0  0  0  0  0  0  0  0  0  0  0
   57.8686   26.5889   43.3042 H   0  0  0  0  0  0  0  0  0  0  0  0
   56.6544   28.8402   43.1045 H   0  0  0  0  0  0  0  0  0  0  0  0
   56.8362   28.2010   44.7717 H   0  0  0  0  0  0  0  0  0  0  0  0
   58.6360   30.1600   43.4510 H   0  0  0  0  0  0  0  0  0  0  0  0
  1  2  2  0
  2  3  1  0
  3  4  2  0
  4  5  1  0
  5  6  2  0
  6  7  1  0
  6  8  1  0
  8  9  2  0
  9 10  1  0
 10 11  1  0
 11 12  2  0
 12 13  1  0
 13 14  1  0
 14 15  1  0
 15 16  1  0
 16  2  1  0
  9  3  1  0
 16 11  1  0
  4 17  1  0
  5 18  1  0
  8 19  1  0
 12 20  1  0
 14 21  1  0
 14 22  1  0
 15 23  1  0
 15 24  1  0
 16 25  1  6
M  CHG  1  16   1
M  END
>  <UniqueID>  (47) 
42

>  <SMILES>  (47) 
O=C1c2ccc(F)cc2SC2=COCC[N@@H+]12

>  <Energy>  (47) 
52.74003865256208

>  <Genealogy>  (47) 
O=C1c2ccc(F)cc2SC2=COCC[NH+]12 (protonated)
O=C1c2ccc(F)cc2SC2=COCC[N@@H+]12 (chirality)
O=C1c2ccc(F)cc2SC2=COCC[N@@H+]12 (3D coordinates assigned)
O=C1c2ccc(F)cc2SC2=COCC[N@@H+]12 (nonaromatic ring conformer: 52.74003865256208 kcal/mol)

>  <smiles>  (47) 
O=C1c2ccc(F)cc2SC2=COCCN12

>  <score_type>  (47) 
oracle

>  <origin>  (47) 
adg

>  <m_score__min__energy>  (47) 
-5.1900000000000004

>  <m_primary>  (47) 
energy

$$$$
47:0
     RDKit          3D

 18 19  0  0  0  0  0  0  0  0999 V2000
   55.5050   29.7160   43.3600 C   0  0  0  0  0  0  0  0  0  0  0  0
   56.7830   29.2580   43.8920 N   0  0  0  0  0  0  0  0  0  0  0  0
   57.3920   28.1290   43.5450 N   0  0  0  0  0  0  0  0  0  0  0  0
   58.5980   28.0600   44.1620 C   0  0  0  0  0  0  0  0  0  0  0  0
   58.7460   29.2070   44.9160 C   0  0  0  0  0  0  0  0  0  0  0  0
   59.7690   29.6870   45.7240 C   0  0  0  0  0  0  0  0  0  0  0  0
   59.5730   30.9440   46.3270 C   0  0  0  0  0  0  0  0  0  0  0  0
   58.3740   31.6600   46.0910 C   0  0  0  0  0  0  0  0  0  0  0  0
   57.4000   31.1410   45.2830 N   0  0  0  0  0  0  0  0  0  0  0  0
   57.6050   29.9260   44.7170 C   0  0  0  0  0  0  0  0  0  0  0  0
   54.8274   29.9588   44.1918 H   0  0  0  0  0  0  0  0  0  0  0  0
   55.6647   30.6128   42.7434 H   0  0  0  0  0  0  0  0  0  0  0  0
   55.0587   28.9219   42.7434 H   0  0  0  0  0  0  0  0  0  0  0  0
   57.0000   27.4190   42.8870 H   0  0  0  0  0  0  0  0  0  0  0  0
   59.3257   27.2395   44.0771 H   0  0  0  0  0  0  0  0  0  0  0  0
   60.6917   29.1103   45.8856 H   0  0  0  0  0  0  0  0  0  0  0  0
   60.3494   31.3691   46.9800 H   0  0  0  0  0  0  0  0  0  0  0  0
   58.2247   32.6428   46.5620 H   0  0  0  0  0  0  0  0  0  0  0  0
  1  2  1  0
  2  3  1  0
  3  4  2  0
  4  5  1  0
  5  6  2  0
  6  7  1  0
  7  8  2  0
  8  9  1  0
  9 10  2  0
 10  2  1  0
 10  5  1  0
  1 11  1  0
  1 12  1  0
  1 13  1  0
  3 14  1  0
  4 15  1  0
  6 16  1  0
  7 17  1  0
  8 18  1  0
M  CHG  1   3   1
M  END
>  <UniqueID>  (48) 
43

>  <SMILES>  (48) 
Cn1[nH+]cc2cccnc21

>  <Energy>  (48) 
59.268972321961286

>  <Genealogy>  (48) 
Cn1[nH+]cc2cccnc21 (protonated)
Cn1[nH+]cc2cccnc21 (3D coordinates assigned)
Cn1[nH+]cc2cccnc21 (optimized conformer: 59.268972321961286 kcal/mol)

>  <smiles>  (48) 
Cn1ncc2cccnc21

>  <score_type>  (48) 
oracle

>  <origin>  (48) 
adg

>  <m_score__min__energy>  (48) 
-3.2200000000000002

>  <m_primary>  (48) 
energy

$$$$
