0:0
     RDKit          3D

 75 78  0  0  0  0  0  0  0  0999 V2000
   60.7700   33.2880   50.2420 C   0  0  0  0  0  0  0  0  0  0  0  0
   61.9690   33.3840   49.2810 C   0  0  0  0  0  0  0  0  0  0  0  0
   61.7020   34.1510   48.0350 N   0  0  0  0  0  0  0  0  0  0  0  0
   62.1770   33.4990   46.7940 C   0  0  0  0  0  0  0  0  0  0  0  0
   63.6500   33.0930   46.8850 C   0  0  0  0  0  0  0  0  0  0  0  0
   60.2890   34.5870   47.9300 C   0  0  0  0  0  0  0  0  0  0  0  0
   59.8840   34.7710   46.4640 C   0  0  0  0  0  0  0  0  0  0  0  0
   58.4780   34.6000   46.2970 O   0  0  0  0  0  0  0  0  0  0  0  0
   57.8990   33.6560   45.4370 C   0  0  0  0  0  0  0  0  0  0  0  0
   57.0850   34.0190   44.5420 O   0  0  0  0  0  0  0  0  0  0  0  0
   58.1790   32.2190   45.6570 C   0  0  0  0  0  0  0  0  0  0  0  0
   58.9250   31.8790   46.7930 C   0  0  0  0  0  0  0  0  0  0  0  0
   59.1820   30.5460   47.1250 C   0  0  0  0  0  0  0  0  0  0  0  0
   59.9940   30.2390   48.3540 C   0  0  0  0  0  0  0  0  0  0  0  0
   58.7050   29.5130   46.2950 C   0  0  0  0  0  0  0  0  0  0  0  0
   58.9680   28.1420   46.6440 N   0  0  0  0  0  0  0  0  0  0  0  0
   60.0550   27.4150   45.9810 C   0  0  0  0  0  0  0  0  0  0  0  0
   60.1780   25.9940   46.5520 C   0  0  0  0  0  0  0  0  0  0  0  0
   58.8720   25.2940   46.5890 N   0  0  0  0  0  0  0  0  0  0  0  0
   58.5090   24.7630   45.2560 C   0  0  0  0  0  0  0  0  0  0  0  0
   57.1140   24.1870   45.2560 C   0  0  0  0  0  0  0  0  0  0  0  0
   56.2750   24.3620   44.1440 C   0  0  0  0  0  0  0  0  0  0  0  0
   54.9830   23.8270   44.1430 C   0  0  0  0  0  0  0  0  0  0  0  0
   54.5080   23.1110   45.2590 C   0  0  0  0  0  0  0  0  0  0  0  0
   53.2240   22.5450   45.3030 O   0  0  0  0  0  0  0  0  0  0  0  0
   52.0270   23.2920   45.4830 C   0  0  0  0  0  0  0  0  0  0  0  0
   55.3450   22.9470   46.3690 C   0  0  0  0  0  0  0  0  0  0  0  0
   56.6380   23.4800   46.3700 C   0  0  0  0  0  0  0  0  0  0  0  0
   57.7680   26.0800   47.2150 C   0  0  0  0  0  0  0  0  0  0  0  0
   58.1790   27.4840   47.6870 C   0  0  0  0  0  0  0  0  0  0  0  0
   57.9950   29.8320   45.1130 C   0  0  0  0  0  0  0  0  0  0  0  0
   57.5670   28.8150   44.2320 C   0  0  0  0  0  0  0  0  0  0  0  0
   56.9080   29.1310   43.0450 C   0  0  0  0  0  0  0  0  0  0  0  0
   56.6680   30.4610   42.7120 C   0  0  0  0  0  0  0  0  0  0  0  0
   57.0780   31.4850   43.5650 C   0  0  0  0  0  0  0  0  0  0  0  0
   57.7330   31.1930   44.7830 C   0  0  0  0  0  0  0  0  0  0  0  0
   61.1297   33.3168   51.2811 H   0  0  0  0  0  0  0  0  0  0  0  0
   60.0901   34.1346   50.0657 H   0  0  0  0  0  0  0  0  0  0  0  0
   60.2335   32.3440   50.0657 H   0  0  0  0  0  0  0  0  0  0  0  0
   62.7980   33.8725   49.8140 H   0  0  0  0  0  0  0  0  0  0  0  0
   62.2036   32.3552   48.9704 H   0  0  0  0  0  0  0  0  0  0  0  0
   61.5715   32.5989   46.6120 H   0  0  0  0  0  0  0  0  0  0  0  0
   62.0748   34.2216   45.9710 H   0  0  0  0  0  0  0  0  0  0  0  0
   63.9434   33.0121   47.9421 H   0  0  0  0  0  0  0  0  0  0  0  0
   63.7939   32.1217   46.3892 H   0  0  0  0  0  0  0  0  0  0  0  0
   64.2712   33.8534   46.3892 H   0  0  0  0  0  0  0  0  0  0  0  0
   59.6416   33.8260   48.3902 H   0  0  0  0  0  0  0  0  0  0  0  0
   60.1775   35.5498   48.4501 H   0  0  0  0  0  0  0  0  0  0  0  0
   60.1646   35.7833   46.1376 H   0  0  0  0  0  0  0  0  0  0  0  0
   60.4035   34.0133   45.8591 H   0  0  0  0  0  0  0  0  0  0  0  0
   59.3172   32.6791   47.4380 H   0  0  0  0  0  0  0  0  0  0  0  0
   59.3995   30.4638   49.2518 H   0  0  0  0  0  0  0  0  0  0  0  0
   60.2704   29.1743   48.3543 H   0  0  0  0  0  0  0  0  0  0  0  0
   60.9057   30.8545   48.3543 H   0  0  0  0  0  0  0  0  0  0  0  0
   59.8457   27.3551   44.9028 H   0  0  0  0  0  0  0  0  0  0  0  0
   60.9996   27.9513   46.1544 H   0  0  0  0  0  0  0  0  0  0  0  0
   60.8719   25.4175   45.9226 H   0  0  0  0  0  0  0  0  0  0  0  0
   60.5491   26.0743   47.5844 H   0  0  0  0  0  0  0  0  0  0  0  0
   58.5599   25.5785   44.5195 H   0  0  0  0  0  0  0  0  0  0  0  0
   59.2157   23.9606   44.9979 H   0  0  0  0  0  0  0  0  0  0  0  0
   56.6358   24.9228   43.2691 H   0  0  0  0  0  0  0  0  0  0  0  0
   54.3341   23.9661   43.2658 H   0  0  0  0  0  0  0  0  0  0  0  0
   51.8298   23.4151   46.5582 H   0  0  0  0  0  0  0  0  0  0  0  0
   52.1383   24.2813   45.0150 H   0  0  0  0  0  0  0  0  0  0  0  0
   51.1873   22.7574   45.0150 H   0  0  0  0  0  0  0  0  0  0  0  0
   54.9826   22.3941   47.2481 H   0  0  0  0  0  0  0  0  0  0  0  0
   57.2851   23.3440   47.2491 H   0  0  0  0  0  0  0  0  0  0  0  0
   56.9602   26.1878   46.4762 H   0  0  0  0  0  0  0  0  0  0  0  0
   57.4561   25.5251   48.1121 H   0  0  0  0  0  0  0  0  0  0  0  0
   57.2773   28.0791   47.8940 H   0  0  0  0  0  0  0  0  0  0  0  0
   58.7827   27.3991   48.6026 H   0  0  0  0  0  0  0  0  0  0  0  0
   57.7558   27.7613   44.4852 H   0  0  0  0  0  0  0  0  0  0  0  0
   56.5770   28.3278   42.3702 H   0  0  0  0  0  0  0  0  0  0  0  0
   56.1525   30.7054   41.7715 H   0  0  0  0  0  0  0  0  0  0  0  0
   56.8895   32.5324   43.2867 H   0  0  0  0  0  0  0  0  0  0  0  0
  1  2  1  0
  2  3  1  0
  3  4  1  0
  4  5  1  0
  3  6  1  0
  6  7  1  0
  7  8  1  0
  8  9  1  0
  9 10  2  0
  9 11  1  0
 11 12  2  0
 12 13  1  0
 13 14  1  0
 13 15  2  0
 15 16  1  0
 16 17  1  0
 17 18  1  0
 18 19  1  0
 19 20  1  0
 20 21  1  0
 21 22  2  0
 22 23  1  0
 23 24  2  0
 24 25  1  0
 25 26  1  0
 24 27  1  0
 27 28  2  0
 19 29  1  0
 29 30  1  0
 15 31  1  0
 31 32  2  0
 32 33  1  0
 33 34  2  0
 34 35  1  0
 35 36  2  0
 36 11  1  0
 30 16  1  0
 36 31  1  0
 28 21  1  0
  1 37  1  0
  1 38  1  0
  1 39  1  0
  2 40  1  0
  2 41  1  0
  4 42  1  0
  4 43  1  0
  5 44  1  0
  5 45  1  0
  5 46  1  0
  6 47  1  0
  6 48  1  0
  7 49  1  0
  7 50  1  0
 12 51  1  0
 14 52  1  0
 14 53  1  0
 14 54  1  0
 17 55  1  0
 17 56  1  0
 18 57  1  0
 18 58  1  0
 20 59  1  0
 20 60  1  0
 22 61  1  0
 23 62  1  0
 26 63  1  0
 26 64  1  0
 26 65  1  0
 27 66  1  0
 28 67  1  0
 29 68  1  0
 29 69  1  0
 30 70  1  0
 30 71  1  0
 32 72  1  0
 33 73  1  0
 34 74  1  0
 35 75  1  0
M  END
>  <UniqueID>  (1) 
1

>  <SMILES>  (1) 
CCN(CC)CCOC(=O)c1cc(C)c(N2CCN(Cc3ccc(OC)cc3)CC2)c2ccccc12

>  <Energy>  (1) 
100.26733121243565

>  <Genealogy>  (1) 
CCN(CC)CCOC(=O)c1cc(C)c(N2CCN(Cc3ccc(OC)cc3)CC2)c2ccccc12 (3D coordinates assigned)
CCN(CC)CCOC(=O)c1cc(C)c(N2CCN(Cc3ccc(OC)cc3)CC2)c2ccccc12 (nonaromatic ring conformer: 100.26733121243565 kcal/mol)

>  <smiles>  (1) 
CCN(CC)CCOC(=O)c1cc(C)c(N2CCN(Cc3ccc(OC)cc3)CC2)c2ccccc12

>  <score_type>  (1) 
oracle

>  <origin>  (1) 
adg

>  <m_score__min__energy>  (1) 
-8.9900000000000002

>  <m_primary>  (1) 
energy

$$$$
1:0
     RDKit          3D

 36 37  0  0  0  0  0  0  0  0999 V2000
   57.1150   31.1750   43.6060 C   0  0  0  0  0  0  0  0  0  0  0  0
   56.4140   30.1890   44.4470 N   0  0  0  0  0  0  0  0  0  0  0  0
   55.1980   29.7260   43.7600 C   0  0  0  0  0  0  0  0  0  0  0  0
   57.2990   29.0490   44.7780 C   0  0  0  0  0  0  0  0  0  0  0  0
   58.2180   29.4050   45.9540 C   0  0  0  0  0  0  0  0  0  0  0  0
   58.0040   30.7890   46.3820 N   0  0  0  0  0  0  0  0  0  0  0  0
   59.0570   31.7130   46.6910 C   0  0  0  0  0  0  0  0  0  0  0  0
   60.1410   31.3730   47.3460 O   0  0  0  0  0  0  0  0  0  0  0  0
   60.8900   32.4530   47.4480 C   0  0  0  0  0  0  0  0  0  0  0  0
   62.1950   32.4710   48.1500 C   0  0  0  0  0  0  0  0  0  0  0  0
   62.4250   31.5790   49.2110 C   0  0  0  0  0  0  0  0  0  0  0  0
   63.6390   31.5950   49.9020 C   0  0  0  0  0  0  0  0  0  0  0  0
   64.6400   32.5000   49.5410 C   0  0  0  0  0  0  0  0  0  0  0  0
   66.2970   32.5230   50.4880 Br  0  0  0  0  0  0  0  0  0  0  0  0
   64.4270   33.3870   48.4820 C   0  0  0  0  0  0  0  0  0  0  0  0
   63.2140   33.3740   47.7870 C   0  0  0  0  0  0  0  0  0  0  0  0
   60.3120   33.5190   46.8480 N   0  0  0  0  0  0  0  0  0  0  0  0
   59.1490   33.0530   46.3670 C   0  0  0  0  0  0  0  0  0  0  0  0
   58.2460   33.8400   45.5660 C   0  0  0  0  0  0  0  0  0  0  0  0
   57.5230   34.4710   44.9160 N   0  0  0  0  0  0  0  0  0  0  0  0
   57.6325   31.9028   44.2483 H   0  0  0  0  0  0  0  0  0  0  0  0
   57.8500   30.6587   42.9709 H   0  0  0  0  0  0  0  0  0  0  0  0
   56.3859   31.6996   42.9709 H   0  0  0  0  0  0  0  0  0  0  0  0
   54.4425   29.4383   44.5059 H   0  0  0  0  0  0  0  0  0  0  0  0
   54.8017   30.5361   43.1302 H   0  0  0  0  0  0  0  0  0  0  0  0
   55.4408   28.8574   43.1302 H   0  0  0  0  0  0  0  0  0  0  0  0
   56.6826   28.1797   45.0507 H   0  0  0  0  0  0  0  0  0  0  0  0
   57.9194   28.8142   43.9005 H   0  0  0  0  0  0  0  0  0  0  0  0
   58.0039   28.7302   46.7959 H   0  0  0  0  0  0  0  0  0  0  0  0
   59.2634   29.2942   45.6301 H   0  0  0  0  0  0  0  0  0  0  0  0
   57.0400   31.1780   46.2840 H   0  0  0  0  0  0  0  0  0  0  0  0
   61.6425   30.8620   49.5000 H   0  0  0  0  0  0  0  0  0  0  0  0
   63.8071   30.8933   50.7323 H   0  0  0  0  0  0  0  0  0  0  0  0
   65.2161   34.0974   48.1945 H   0  0  0  0  0  0  0  0  0  0  0  0
   63.0542   34.0724   46.9523 H   0  0  0  0  0  0  0  0  0  0  0  0
   60.6760   34.4920   46.7550 H   0  0  0  0  0  0  0  0  0  0  0  0
  1  2  1  0
  2  3  1  0
  2  4  1  0
  4  5  1  0
  5  6  1  0
  6  7  1  0
  7  8  1  0
  8  9  1  0
  9 10  1  0
 10 11  2  0
 11 12  1  0
 12 13  2  0
 13 14  1  0
 13 15  1  0
 15 16  2  0
  9 17  2  0
 17 18  1  0
 18 19  1  0
 19 20  3  0
 18  7  2  0
 16 10  1  0
  1 21  1  0
  1 22  1  0
  1 23  1  0
  3 24  1  0
  3 25  1  0
  3 26  1  0
  4 27  1  0
  4 28  1  0
  5 29  1  0
  5 30  1  0
  6 31  1  0
 11 32  1  0
 12 33  1  0
 15 34  1  0
 16 35  1  0
 17 36  1  0
M  CHG  1  17   1
M  END
>  <UniqueID>  (2) 
2

>  <SMILES>  (2) 
CN(C)CCNc1oc(-c2ccc(Br)cc2)[nH+]c1C#N

>  <Energy>  (2) 
68.2520981531719

>  <Genealogy>  (2) 
CN(C)CCNc1oc(-c2ccc(Br)cc2)[nH+]c1C#N (protonated)
CN(C)CCNc1oc(-c2ccc(Br)cc2)[nH+]c1C#N (3D coordinates assigned)
CN(C)CCNc1oc(-c2ccc(Br)cc2)[nH+]c1C#N (optimized conformer: 68.2520981531719 kcal/mol)

>  <smiles>  (2) 
CN(C)CCNc1oc(-c2ccc(Br)cc2)nc1C#N

>  <score_type>  (2) 
oracle

>  <origin>  (2) 
adg

>  <m_score__min__energy>  (2) 
-4.7300000000000004

>  <m_primary>  (2) 
energy

$$$$
2:0
     RDKit          3D

 35 37  0  0  0  0  0  0  0  0999 V2000
   57.0760   20.7490   46.3810 C   0  0  0  0  0  0  0  0  0  0  0  0
   57.4140   21.9210   47.1160 O   0  0  0  0  0  0  0  0  0  0  0  0
   57.3900   23.2230   46.5920 C   0  0  0  0  0  0  0  0  0  0  0  0
   56.3120   24.0990   46.8190 C   0  0  0  0  0  0  0  0  0  0  0  0
   56.3230   25.3870   46.2810 C   0  0  0  0  0  0  0  0  0  0  0  0
   57.4080   25.8250   45.5080 C   0  0  0  0  0  0  0  0  0  0  0  0
   57.4240   27.1860   44.9360 C   0  0  0  0  0  0  0  0  0  0  0  0
   58.2730   27.6000   43.9710 N   0  0  0  0  0  0  0  0  0  0  0  0
   57.9630   28.8650   43.7450 N   0  0  0  0  0  0  0  0  0  0  0  0
   56.9500   29.1800   44.5660 C   0  0  0  0  0  0  0  0  0  0  0  0
   56.3350   30.4750   44.6110 N   0  0  0  0  0  0  0  0  0  0  0  0
   56.9620   31.6140   44.5770 C   0  0  0  0  0  0  0  0  0  0  0  0
   57.8730   31.8930   43.6030 N   0  0  0  0  0  0  0  0  0  0  0  0
   58.5260   33.0830   43.5720 C   0  0  0  0  0  0  0  0  0  0  0  0
   58.2660   34.0430   44.5480 C   0  0  0  0  0  0  0  0  0  0  0  0
   57.3320   33.7460   45.5390 C   0  0  0  0  0  0  0  0  0  0  0  0
   56.6990   32.5420   45.5360 N   0  0  0  0  0  0  0  0  0  0  0  0
   56.6090   28.1520   45.3040 O   0  0  0  0  0  0  0  0  0  0  0  0
   58.4840   24.9520   45.2790 C   0  0  0  0  0  0  0  0  0  0  0  0
   58.4800   23.6500   45.8190 C   0  0  0  0  0  0  0  0  0  0  0  0
   59.5410   22.7550   45.6090 O   0  0  0  0  0  0  0  0  0  0  0  0
   59.6720   21.9090   44.4710 C   0  0  0  0  0  0  0  0  0  0  0  0
   56.8407   19.9329   47.0800 H   0  0  0  0  0  0  0  0  0  0  0  0
   56.2002   20.9533   45.7476 H   0  0  0  0  0  0  0  0  0  0  0  0
   57.9261   20.4555   45.7476 H   0  0  0  0  0  0  0  0  0  0  0  0
   55.4556   23.7666   47.4241 H   0  0  0  0  0  0  0  0  0  0  0  0
   55.4749   26.0630   46.4646 H   0  0  0  0  0  0  0  0  0  0  0  0
   58.4350   29.4850   43.0500 H   0  0  0  0  0  0  0  0  0  0  0  0
   59.2589   33.2889   42.7780 H   0  0  0  0  0  0  0  0  0  0  0  0
   58.7857   35.0124   44.5366 H   0  0  0  0  0  0  0  0  0  0  0  0
   57.1070   34.4844   46.3227 H   0  0  0  0  0  0  0  0  0  0  0  0
   59.3381   25.2875   44.6724 H   0  0  0  0  0  0  0  0  0  0  0  0
   59.8326   20.8722   44.8014 H   0  0  0  0  0  0  0  0  0  0  0  0
   58.7548   21.9632   43.8663 H   0  0  0  0  0  0  0  0  0  0  0  0
   60.5299   22.2381   43.8663 H   0  0  0  0  0  0  0  0  0  0  0  0
  1  2  1  0
  2  3  1  0
  3  4  2  0
  4  5  1  0
  5  6  2  0
  6  7  1  0
  7  8  2  0
  8  9  1  0
  9 10  2  0
 10 11  1  0
 11 12  2  3
 12 13  1  0
 13 14  2  0
 14 15  1  0
 15 16  2  0
 16 17  1  0
 10 18  1  0
  6 19  1  0
 19 20  2  0
 20 21  1  0
 21 22  1  0
 20  3  1  0
 18  7  1  0
 17 12  1  0
  1 23  1  0
  1 24  1  0
  1 25  1  0
  4 26  1  0
  5 27  1  0
  9 28  1  0
 14 29  1  0
 15 30  1  0
 16 31  1  0
 19 32  1  0
 22 33  1  0
 22 34  1  0
 22 35  1  0
M  CHG  2   9   1  17  -1
M  END
>  <UniqueID>  (3) 
3

>  <SMILES>  (3) 
COc1ccc(-c2n[nH+]c(N=c3nccc[n-]3)o2)cc1OC

>  <Energy>  (3) 
74.90185556235666

>  <Genealogy>  (3) 
COc1ccc(-c2n[nH+]c(N=c3nccc[n-]3)o2)cc1OC (protonated)
COc1ccc(-c2n[nH+]c(N=c3nccc[n-]3)o2)cc1OC (3D coordinates assigned)
COc1ccc(-c2n[nH+]c(N=c3nccc[n-]3)o2)cc1OC (optimized conformer: 74.90185556235666 kcal/mol)

>  <smiles>  (3) 
COc1ccc(-c2nnc(N=c3nccc[nH]3)o2)cc1OC

>  <score_type>  (3) 
oracle

>  <origin>  (3) 
adg

>  <m_score__min__energy>  (3) 
-7.54

>  <m_primary>  (3) 
energy

$$$$
3:0
     RDKit          3D

 35 36  0  0  0  0  0  0  0  0999 V2000
   60.3050   27.8600   48.7810 C   0  0  0  0  0  0  0  0  0  0  0  0
   60.3580   26.5590   48.2370 O   0  0  0  0  0  0  0  0  0  0  0  0
   60.2960   26.6160   46.8260 C   0  0  0  0  0  0  0  0  0  0  0  0
   59.0010   27.2350   46.3850 C   0  0  0  0  0  0  0  0  0  0  0  0
   57.8050   26.5090   46.4200 C   0  0  0  0  0  0  0  0  0  0  0  0
   56.6260   27.1050   45.9690 C   0  0  0  0  0  0  0  0  0  0  0  0
   55.5490   26.4520   45.9860 O   0  0  0  0  0  0  0  0  0  0  0  0
   56.6440   28.4180   45.4790 C   0  0  0  0  0  0  0  0  0  0  0  0
   55.4580   28.9700   44.9790 O   0  0  0  0  0  0  0  0  0  0  0  0
   55.4100   29.7400   43.7810 C   0  0  0  0  0  0  0  0  0  0  0  0
   57.8610   29.1360   45.5010 C   0  0  0  0  0  0  0  0  0  0  0  0
   57.9180   30.5220   45.1340 N   0  0  0  0  0  0  0  0  0  0  0  0
   58.1040   31.5260   46.1860 C   0  0  0  0  0  0  0  0  0  0  0  0
   57.6880   32.9090   45.6710 C   0  0  0  0  0  0  0  0  0  0  0  0
   58.3230   33.2040   44.4420 O   0  0  0  0  0  0  0  0  0  0  0  0
   57.8800   32.3000   43.4480 C   0  0  0  0  0  0  0  0  0  0  0  0
   58.3310   30.8740   43.7730 C   0  0  0  0  0  0  0  0  0  0  0  0
   58.9940   28.5190   45.9360 N   0  0  0  0  0  0  0  0  0  0  0  0
   60.3075   27.7986   49.8793 H   0  0  0  0  0  0  0  0  0  0  0  0
   61.1805   28.4343   48.4439 H   0  0  0  0  0  0  0  0  0  0  0  0
   59.3857   28.3612   48.4439 H   0  0  0  0  0  0  0  0  0  0  0  0
   61.1340   27.2215   46.4503 H   0  0  0  0  0  0  0  0  0  0  0  0
   60.3589   25.5941   46.4239 H   0  0  0  0  0  0  0  0  0  0  0  0
   57.7941   25.4768   46.7999 H   0  0  0  0  0  0  0  0  0  0  0  0
   55.3434   30.8084   44.0342 H   0  0  0  0  0  0  0  0  0  0  0  0
   56.3212   29.5589   43.1920 H   0  0  0  0  0  0  0  0  0  0  0  0
   54.5284   29.4471   43.1920 H   0  0  0  0  0  0  0  0  0  0  0  0
   57.4859   31.2604   47.0563 H   0  0  0  0  0  0  0  0  0  0  0  0
   59.1648   31.5529   46.4758 H   0  0  0  0  0  0  0  0  0  0  0  0
   56.5978   32.9259   45.5258 H   0  0  0  0  0  0  0  0  0  0  0  0
   57.9897   33.6642   46.4117 H   0  0  0  0  0  0  0  0  0  0  0  0
   56.7815   32.3286   43.3978 H   0  0  0  0  0  0  0  0  0  0  0  0
   58.3144   32.5965   42.4818 H   0  0  0  0  0  0  0  0  0  0  0  0
   57.8720   30.1740   43.0593 H   0  0  0  0  0  0  0  0  0  0  0  0
   59.4268   30.8132   43.6983 H   0  0  0  0  0  0  0  0  0  0  0  0
  1  2  1  0
  2  3  1  0
  3  4  1  0
  4  5  2  0
  5  6  1  0
  6  7  2  0
  6  8  1  0
  8  9  1  0
  9 10  1  0
  8 11  2  0
 11 12  1  0
 12 13  1  0
 13 14  1  0
 14 15  1  0
 15 16  1  0
 16 17  1  0
 11 18  1  0
 18  4  1  0
 17 12  1  0
  1 19  1  0
  1 20  1  0
  1 21  1  0
  3 22  1  0
  3 23  1  0
  5 24  1  0
 10 25  1  0
 10 26  1  0
 10 27  1  0
 13 28  1  0
 13 29  1  0
 14 30  1  0
 14 31  1  0
 16 32  1  0
 16 33  1  0
 17 34  1  0
 17 35  1  0
M  CHG  1  18  -1
M  END
>  <UniqueID>  (4) 
4

>  <SMILES>  (4) 
COCc1cc(=O)c(OC)c(N2CCOCC2)[n-]1

>  <Energy>  (4) 
45.92470008994973

>  <Genealogy>  (4) 
COCc1cc(=O)c(OC)c(N2CCOCC2)[n-]1 (protonated)
COCc1cc(=O)c(OC)c(N2CCOCC2)[n-]1 (3D coordinates assigned)
COCc1cc(=O)c(OC)c(N2CCOCC2)[n-]1 (nonaromatic ring conformer: 45.92470008994973 kcal/mol)

>  <smiles>  (4) 
COCc1cc(=O)c(OC)c(N2CCOCC2)[nH]1

>  <score_type>  (4) 
oracle

>  <origin>  (4) 
adg

>  <m_score__min__energy>  (4) 
-6.9400000000000004

>  <m_primary>  (4) 
energy

$$$$
4:0
     RDKit          3D

 59 61  0  0  0  0  0  0  0  0999 V2000
   54.5810   29.0000   52.9460 C   0  0  0  0  0  0  0  0  0  0  0  0
   56.1010   28.9860   52.8200 C   0  0  0  0  0  0  0  0  0  0  0  0
   56.5550   30.0980   51.9500 N   0  0  0  0  0  0  0  0  0  0  0  0
   55.6070   31.2300   52.0220 C   0  0  0  0  0  0  0  0  0  0  0  0
   57.9280   30.5170   52.3080 C   0  0  0  0  0  0  0  0  0  0  0  0
   58.2570   31.9190   51.7660 C   0  0  0  0  0  0  0  0  0  0  0  0
   58.0830   32.0190   50.2390 C   0  0  0  0  0  0  0  0  0  0  0  0
   59.3820   31.9460   49.5310 N   0  0  0  0  0  0  0  0  0  0  0  0
   59.8390   30.7650   48.9840 C   0  0  0  0  0  0  0  0  0  0  0  0
   58.9190   29.2180   49.1050 S   0  0  0  0  0  0  0  0  0  0  0  0
   59.4030   28.6140   47.4520 C   0  0  0  0  0  0  0  0  0  0  0  0
   58.4910   29.1660   46.3530 C   0  0  0  0  0  0  0  0  0  0  0  0
   59.1410   30.2200   45.6320 O   0  0  0  0  0  0  0  0  0  0  0  0
   58.7600   31.5740   45.6200 C   0  0  0  0  0  0  0  0  0  0  0  0
   59.6360   32.6150   45.9970 C   0  0  0  0  0  0  0  0  0  0  0  0
   59.2060   33.9470   45.9730 C   0  0  0  0  0  0  0  0  0  0  0  0
   57.9020   34.2560   45.5760 C   0  0  0  0  0  0  0  0  0  0  0  0
   57.0280   33.2340   45.1940 C   0  0  0  0  0  0  0  0  0  0  0  0
   57.4550   31.8890   45.1980 C   0  0  0  0  0  0  0  0  0  0  0  0
   56.6100   30.8400   44.8000 O   0  0  0  0  0  0  0  0  0  0  0  0
   56.6640   30.1910   43.5370 C   0  0  0  0  0  0  0  0  0  0  0  0
   61.0180   30.7320   48.3120 N   0  0  0  0  0  0  0  0  0  0  0  0
   61.7890   31.8330   48.1710 C   0  0  0  0  0  0  0  0  0  0  0  0
   63.0090   31.7480   47.4890 C   0  0  0  0  0  0  0  0  0  0  0  0
   63.8050   32.8870   47.3380 C   0  0  0  0  0  0  0  0  0  0  0  0
   63.3820   34.1120   47.8640 C   0  0  0  0  0  0  0  0  0  0  0  0
   62.1640   34.2030   48.5470 C   0  0  0  0  0  0  0  0  0  0  0  0
   61.3600   33.0580   48.7110 C   0  0  0  0  0  0  0  0  0  0  0  0
   60.1330   33.0910   49.3950 C   0  0  0  0  0  0  0  0  0  0  0  0
   59.7220   34.1840   49.8820 O   0  0  0  0  0  0  0  0  0  0  0  0
   54.3013   29.0026   54.0098 H   0  0  0  0  0  0  0  0  0  0  0  0
   54.1810   29.9019   52.4595 H   0  0  0  0  0  0  0  0  0  0  0  0
   54.1645   28.1057   52.4595 H   0  0  0  0  0  0  0  0  0  0  0  0
   56.5490   29.0999   53.8181 H   0  0  0  0  0  0  0  0  0  0  0  0
   56.4145   28.0309   52.3733 H   0  0  0  0  0  0  0  0  0  0  0  0
   55.4043   31.4720   53.0757 H   0  0  0  0  0  0  0  0  0  0  0  0
   56.0442   32.1068   51.5219 H   0  0  0  0  0  0  0  0  0  0  0  0
   54.6671   30.9535   51.5219 H   0  0  0  0  0  0  0  0  0  0  0  0
   58.0227   30.5276   53.4039 H   0  0  0  0  0  0  0  0  0  0  0  0
   58.6322   29.8022   51.8573 H   0  0  0  0  0  0  0  0  0  0  0  0
   57.5874   32.6482   52.2455 H   0  0  0  0  0  0  0  0  0  0  0  0
   59.3127   32.1258   51.9955 H   0  0  0  0  0  0  0  0  0  0  0  0
   57.4449   31.1903   49.8984 H   0  0  0  0  0  0  0  0  0  0  0  0
   57.6234   32.9919   50.0104 H   0  0  0  0  0  0  0  0  0  0  0  0
   60.4371   28.9283   47.2472 H   0  0  0  0  0  0  0  0  0  0  0  0
   59.3141   27.5176   47.4501 H   0  0  0  0  0  0  0  0  0  0  0  0
   58.2369   28.3551   45.6546 H   0  0  0  0  0  0  0  0  0  0  0  0
   57.5806   29.5690   46.8207 H   0  0  0  0  0  0  0  0  0  0  0  0
   60.6630   32.3779   46.3116 H   0  0  0  0  0  0  0  0  0  0  0  0
   59.8956   34.7519   46.2671 H   0  0  0  0  0  0  0  0  0  0  0  0
   57.5637   35.3026   45.5641 H   0  0  0  0  0  0  0  0  0  0  0  0
   56.0004   33.4799   44.8882 H   0  0  0  0  0  0  0  0  0  0  0  0
   56.7544   29.1049   43.6864 H   0  0  0  0  0  0  0  0  0  0  0  0
   55.7447   30.4084   42.9735 H   0  0  0  0  0  0  0  0  0  0  0  0
   57.5348   30.5573   42.9735 H   0  0  0  0  0  0  0  0  0  0  0  0
   63.3407   30.7855   47.0724 H   0  0  0  0  0  0  0  0  0  0  0  0
   64.7649   32.8199   46.8050 H   0  0  0  0  0  0  0  0  0  0  0  0
   64.0091   35.0072   47.7403 H   0  0  0  0  0  0  0  0  0  0  0  0
   61.8342   35.1694   48.9561 H   0  0  0  0  0  0  0  0  0  0  0  0
  1  2  1  0
  2  3  1  0
  3  4  1  0
  3  5  1  0
  5  6  1  0
  6  7  1  0
  7  8  1  0
  8  9  1  0
  9 10  1  0
 10 11  1  0
 11 12  1  0
 12 13  1  0
 13 14  1  0
 14 15  2  0
 15 16  1  0
 16 17  2  0
 17 18  1  0
 18 19  2  0
 19 20  1  0
 20 21  1  0
  9 22  2  0
 22 23  1  0
 23 24  2  0
 24 25  1  0
 25 26  2  0
 26 27  1  0
 27 28  2  0
 28 29  1  0
 29 30  2  0
 29  8  1  0
 19 14  1  0
 28 23  1  0
  1 31  1  0
  1 32  1  0
  1 33  1  0
  2 34  1  0
  2 35  1  0
  4 36  1  0
  4 37  1  0
  4 38  1  0
  5 39  1  0
  5 40  1  0
  6 41  1  0
  6 42  1  0
  7 43  1  0
  7 44  1  0
 11 45  1  0
 11 46  1  0
 12 47  1  0
 12 48  1  0
 15 49  1  0
 16 50  1  0
 17 51  1  0
 18 52  1  0
 21 53  1  0
 21 54  1  0
 21 55  1  0
 24 56  1  0
 25 57  1  0
 26 58  1  0
 27 59  1  0
M  END
>  <UniqueID>  (5) 
5

>  <SMILES>  (5) 
CCN(C)CCCn1c(SCCOc2ccccc2OC)nc2ccccc2c1=O

>  <Energy>  (5) 
64.12765935933399

>  <Genealogy>  (5) 
CCN(C)CCCn1c(SCCOc2ccccc2OC)nc2ccccc2c1=O (3D coordinates assigned)
CCN(C)CCCn1c(SCCOc2ccccc2OC)nc2ccccc2c1=O (optimized conformer: 64.12765935933399 kcal/mol)

>  <smiles>  (5) 
CCN(C)CCCn1c(SCCOc2ccccc2OC)nc2ccccc2c1=O

>  <score_type>  (5) 
oracle

>  <origin>  (5) 
adg

>  <m_score__min__energy>  (5) 
-7.79

>  <m_primary>  (5) 
energy

$$$$
5:0
     RDKit          3D

 44 46  0  0  0  0  0  0  0  0999 V2000
   66.5950   32.0020   50.5000 C   0  0  0  0  0  0  0  0  0  0  0  0
   65.4070   32.9100   50.1730 C   0  0  0  0  0  0  0  0  0  0  0  0
   64.1650   32.1520   49.9490 N   0  0  0  0  0  0  0  0  0  0  0  0
   63.4510   32.6320   48.7890 C   0  0  0  0  0  0  0  0  0  0  0  0
   64.0760   33.4970   47.8750 C   0  0  0  0  0  0  0  0  0  0  0  0
   63.3960   33.9300   46.7340 C   0  0  0  0  0  0  0  0  0  0  0  0
   62.0900   33.5020   46.4910 C   0  0  0  0  0  0  0  0  0  0  0  0
   61.4500   32.6400   47.3930 C   0  0  0  0  0  0  0  0  0  0  0  0
   60.1150   32.1800   47.1320 N   0  0  0  0  0  0  0  0  0  0  0  0
   59.3070   32.8550   46.1080 C   0  0  0  0  0  0  0  0  0  0  0  0
   57.9430   32.1770   45.9220 C   0  0  0  0  0  0  0  0  0  0  0  0
   58.0860   30.7120   45.8830 N   0  0  0  0  0  0  0  0  0  0  0  0
   57.2230   29.9300   45.0320 C   0  0  0  0  0  0  0  0  0  0  0  0
   56.2160   30.4630   44.4910 O   0  0  0  0  0  0  0  0  0  0  0  0
   57.4640   28.4610   44.8190 C   0  0  0  0  0  0  0  0  0  0  0  0
   57.7700   28.0620   43.3810 C   0  0  0  0  0  0  0  0  0  0  0  0
   58.8860   28.1060   44.4090 C   0  0  0  0  0  0  0  0  0  0  0  0
   58.9780   30.0310   46.8380 C   0  0  0  0  0  0  0  0  0  0  0  0
   59.5830   31.0130   47.8420 C   0  0  0  0  0  0  0  0  0  0  0  0
   62.1320   32.2090   48.5420 C   0  0  0  0  0  0  0  0  0  0  0  0
   66.7036   31.9190   51.5915 H   0  0  0  0  0  0  0  0  0  0  0  0
   66.4222   31.0036   50.0718 H   0  0  0  0  0  0  0  0  0  0  0  0
   67.5130   32.4308   50.0718 H   0  0  0  0  0  0  0  0  0  0  0  0
   65.2509   33.6033   51.0126 H   0  0  0  0  0  0  0  0  0  0  0  0
   65.6430   33.4486   49.2434 H   0  0  0  0  0  0  0  0  0  0  0  0
   63.5590   32.2000   50.8030 H   0  0  0  0  0  0  0  0  0  0  0  0
   64.4070   31.1440   49.8050 H   0  0  0  0  0  0  0  0  0  0  0  0
   65.1065   33.8351   48.0589 H   0  0  0  0  0  0  0  0  0  0  0  0
   63.8912   34.6100   46.0253 H   0  0  0  0  0  0  0  0  0  0  0  0
   61.5608   33.8421   45.5886 H   0  0  0  0  0  0  0  0  0  0  0  0
   59.1470   33.9000   46.4120 H   0  0  0  0  0  0  0  0  0  0  0  0
   59.8496   32.8006   45.1527 H   0  0  0  0  0  0  0  0  0  0  0  0
   57.2864   32.4527   46.7604 H   0  0  0  0  0  0  0  0  0  0  0  0
   57.5101   32.5136   44.9685 H   0  0  0  0  0  0  0  0  0  0  0  0
   56.7616   28.1140   45.5911 H   0  0  0  0  0  0  0  0  0  0  0  0
   57.4185   27.0950   42.9920 H   0  0  0  0  0  0  0  0  0  0  0  0
   57.6029   28.5197   42.3948 H   0  0  0  0  0  0  0  0  0  0  0  0
   59.3431   27.1707   44.7643 H   0  0  0  0  0  0  0  0  0  0  0  0
   59.8621   28.6089   44.4750 H   0  0  0  0  0  0  0  0  0  0  0  0
   58.4013   29.2708   47.3854 H   0  0  0  0  0  0  0  0  0  0  0  0
   59.7996   29.5684   46.2715 H   0  0  0  0  0  0  0  0  0  0  0  0
   58.8058   31.3382   48.5493 H   0  0  0  0  0  0  0  0  0  0  0  0
   60.3976   30.5177   48.3907 H   0  0  0  0  0  0  0  0  0  0  0  0
   61.6318   31.5360   49.2540 H   0  0  0  0  0  0  0  0  0  0  0  0
  1  2  1  0
  2  3  1  0
  3  4  1  0
  4  5  2  0
  5  6  1  0
  6  7  2  0
  7  8  1  0
  8  9  1  0
  9 10  1  0
 10 11  1  0
 11 12  1  0
 12 13  1  0
 13 14  2  0
 13 15  1  0
 15 16  1  0
 16 17  1  0
 12 18  1  0
 18 19  1  0
  8 20  2  0
 20  4  1  0
 19  9  1  0
 17 15  1  0
  1 21  1  0
  1 22  1  0
  1 23  1  0
  2 24  1  0
  2 25  1  0
  3 26  1  0
  3 27  1  0
  5 28  1  0
  6 29  1  0
  7 30  1  0
 10 31  1  0
 10 32  1  0
 11 33  1  0
 11 34  1  0
 15 35  1  0
 16 36  1  0
 16 37  1  0
 17 38  1  0
 17 39  1  0
 18 40  1  0
 18 41  1  0
 19 42  1  0
 19 43  1  0
 20 44  1  0
M  CHG  1   3   1
M  END
>  <UniqueID>  (6) 
6

>  <SMILES>  (6) 
CC[NH2+]c1cccc(N2CCN(C(=O)C3CC3)CC2)c1

>  <Energy>  (6) 
310.2664122234707

>  <Genealogy>  (6) 
CC[NH2+]c1cccc(N2CCN(C(=O)C3CC3)CC2)c1 (protonated)
CC[NH2+]c1cccc(N2CCN(C(=O)C3CC3)CC2)c1 (3D coordinates assigned)
CC[NH2+]c1cccc(N2CCN(C(=O)C3CC3)CC2)c1 (nonaromatic ring conformer: 310.2664122234707 kcal/mol)

>  <smiles>  (6) 
CCNc1cccc(N2CCN(C(=O)C3CC3)CC2)c1

>  <score_type>  (6) 
oracle

>  <origin>  (6) 
adg

>  <m_score__min__energy>  (6) 
-5.6600000000000001

>  <m_primary>  (6) 
energy

$$$$
6:0
     RDKit          3D

 55 57  0  0  0  0  0  0  0  0999 V2000
   57.7940   25.6670   44.2460 C   0  0  0  0  0  0  0  0  0  0  0  0
   58.2340   26.8490   43.3680 C   0  0  0  0  0  0  0  0  0  0  0  0
   58.4480   28.1030   44.1250 N   0  0  0  0  0  0  0  0  0  0  0  0
   59.4740   27.9660   45.1800 C   0  0  0  0  0  0  0  0  0  0  0  0
   60.6160   28.9560   44.9630 C   0  0  0  0  0  0  0  0  0  0  0  0
   57.1860   28.7140   44.6030 C   0  0  0  0  0  0  0  0  0  0  0  0
   56.8260   29.8980   43.7130 C   0  0  0  0  0  0  0  0  0  0  0  0
   56.4820   31.0180   44.5230 O   0  0  0  0  0  0  0  0  0  0  0  0
   57.4110   31.8310   45.1890 C   0  0  0  0  0  0  0  0  0  0  0  0
   57.5480   33.2020   44.9100 C   0  0  0  0  0  0  0  0  0  0  0  0
   58.4920   33.9690   45.5950 C   0  0  0  0  0  0  0  0  0  0  0  0
   59.3240   33.3850   46.5650 C   0  0  0  0  0  0  0  0  0  0  0  0
   59.1720   32.0150   46.8660 C   0  0  0  0  0  0  0  0  0  0  0  0
   58.2240   31.2490   46.1650 C   0  0  0  0  0  0  0  0  0  0  0  0
   59.9870   31.3780   47.9570 C   0  0  0  0  0  0  0  0  0  0  0  0
   61.4720   31.2720   47.5870 C   0  0  0  0  0  0  0  0  0  0  0  0
   62.0570   32.4970   46.8420 C   0  0  0  0  0  0  0  0  0  0  0  0
   61.7290   33.8150   47.4440 N   0  0  2  0  0  0  0  0  0  0  0  0
   62.1400   33.9040   48.8700 C   0  0  0  0  0  0  0  0  0  0  0  0
   63.6740   33.8340   49.0310 C   0  0  0  0  0  0  0  0  0  0  0  0
   64.2400   32.4530   49.3230 C   0  0  0  0  0  0  0  0  0  0  0  0
   64.1610   33.4920   50.4320 C   0  0  0  0  0  0  0  0  0  0  0  0
   60.3480   34.2330   47.2390 C   0  0  0  0  0  0  0  0  0  0  0  0
   60.0140   35.4090   47.5530 O   0  0  0  0  0  0  0  0  0  0  0  0
   57.8957   25.9403   45.3066 H   0  0  0  0  0  0  0  0  0  0  0  0
   56.7439   25.4207   44.0299 H   0  0  0  0  0  0  0  0  0  0  0  0
   58.4274   24.7940   44.0299 H   0  0  0  0  0  0  0  0  0  0  0  0
   59.1763   26.5793   42.8687 H   0  0  0  0  0  0  0  0  0  0  0  0
   57.4205   27.0393   42.6525 H   0  0  0  0  0  0  0  0  0  0  0  0
   59.0114   28.1591   46.1592 H   0  0  0  0  0  0  0  0  0  0  0  0
   59.8824   26.9453   45.1419 H   0  0  0  0  0  0  0  0  0  0  0  0
   61.0016   29.2903   45.9375 H   0  0  0  0  0  0  0  0  0  0  0  0
   61.4229   28.4668   44.3976 H   0  0  0  0  0  0  0  0  0  0  0  0
   60.2462   29.8241   44.3976 H   0  0  0  0  0  0  0  0  0  0  0  0
   56.3792   27.9673   44.5640 H   0  0  0  0  0  0  0  0  0  0  0  0
   57.3154   29.0600   45.6391 H   0  0  0  0  0  0  0  0  0  0  0  0
   57.6879   30.1552   43.0797 H   0  0  0  0  0  0  0  0  0  0  0  0
   55.9690   29.6299   43.0777 H   0  0  0  0  0  0  0  0  0  0  0  0
   56.9085   33.6724   44.1486 H   0  0  0  0  0  0  0  0  0  0  0  0
   58.5855   35.0423   45.3730 H   0  0  0  0  0  0  0  0  0  0  0  0
   58.1210   30.1768   46.3880 H   0  0  0  0  0  0  0  0  0  0  0  0
   59.8921   31.9846   48.8697 H   0  0  0  0  0  0  0  0  0  0  0  0
   59.6047   30.3582   48.1114 H   0  0  0  0  0  0  0  0  0  0  0  0
   62.0447   31.1337   48.5159 H   0  0  0  0  0  0  0  0  0  0  0  0
   61.5522   30.4249   46.8898 H   0  0  0  0  0  0  0  0  0  0  0  0
   63.1520   32.3937   46.8232 H   0  0  0  0  0  0  0  0  0  0  0  0
   61.6001   32.4945   45.8414 H   0  0  0  0  0  0  0  0  0  0  0  0
   62.3100   34.5000   46.9040 H   0  0  0  0  0  0  0  0  0  0  0  0
   61.7818   34.8578   49.2848 H   0  0  0  0  0  0  0  0  0  0  0  0
   61.7010   33.0495   49.4059 H   0  0  0  0  0  0  0  0  0  0  0  0
   63.8931   34.6245   48.2981 H   0  0  0  0  0  0  0  0  0  0  0  0
   63.5736   31.5781   49.3407 H   0  0  0  0  0  0  0  0  0  0  0  0
   65.0413   31.8342   48.8929 H   0  0  0  0  0  0  0  0  0  0  0  0
   63.4373   33.3684   51.2511 H   0  0  0  0  0  0  0  0  0  0  0  0
   64.8811   33.9356   51.1354 H   0  0  0  0  0  0  0  0  0  0  0  0
  1  2  1  0
  2  3  1  0
  3  4  1  0
  4  5  1  0
  3  6  1  0
  6  7  1  0
  7  8  1  0
  8  9  1  0
  9 10  2  0
 10 11  1  0
 11 12  2  0
 12 13  1  0
 13 14  2  0
 13 15  1  0
 15 16  1  0
 16 17  1  0
 17 18  1  0
 18 19  1  0
 19 20  1  0
 20 21  1  0
 21 22  1  0
 18 23  1  0
 23 24  2  0
 14  9  1  0
 22 20  1  0
 23 12  1  0
  1 25  1  0
  1 26  1  0
  1 27  1  0
  2 28  1  0
  2 29  1  0
  4 30  1  0
  4 31  1  0
  5 32  1  0
  5 33  1  0
  5 34  1  0
  6 35  1  0
  6 36  1  0
  7 37  1  0
  7 38  1  0
 10 39  1  0
 11 40  1  0
 14 41  1  0
 15 42  1  0
 15 43  1  0
 16 44  1  0
 16 45  1  0
 17 46  1  0
 17 47  1  0
 18 48  1  6
 19 49  1  0
 19 50  1  0
 20 51  1  0
 21 52  1  0
 21 53  1  0
 22 54  1  0
 22 55  1  0
M  CHG  1  18   1
M  END
>  <UniqueID>  (7) 
7

>  <SMILES>  (7) 
CCN(CC)CCOc1ccc2c(c1)CCC[N@H+](CC1CC1)C2=O

>  <Energy>  (7) 
334.9025234651658

>  <Genealogy>  (7) 
CCN(CC)CCOc1ccc2c(c1)CCC[NH+](CC1CC1)C2=O (protonated)
CCN(CC)CCOc1ccc2c(c1)CCC[N@H+](CC1CC1)C2=O (chirality)
CCN(CC)CCOc1ccc2c(c1)CCC[N@H+](CC1CC1)C2=O (3D coordinates assigned)
CCN(CC)CCOc1ccc2c(c1)CCC[N@H+](CC1CC1)C2=O (nonaromatic ring conformer: 334.9025234651658 kcal/mol)

>  <smiles>  (7) 
CCN(CC)CCOc1ccc2c(c1)CCCN(CC1CC1)C2=O

>  <score_type>  (7) 
oracle

>  <origin>  (7) 
adg

>  <m_score__min__energy>  (7) 
-4.1600000000000001

>  <m_primary>  (7) 
energy

$$$$
7:0
     RDKit          3D

 41 43  0  0  0  0  0  0  0  0999 V2000
   65.1930   33.4870   50.6850 C   0  0  0  0  0  0  0  0  0  0  0  0
   64.8890   33.3040   49.3070 O   0  0  0  0  0  0  0  0  0  0  0  0
   63.6480   32.8720   48.8120 C   0  0  0  0  0  0  0  0  0  0  0  0
   62.9250   33.6090   47.8600 C   0  0  0  0  0  0  0  0  0  0  0  0
   61.6880   33.1600   47.3650 C   0  0  0  0  0  0  0  0  0  0  0  0
   61.1350   31.9530   47.8880 C   0  0  0  0  0  0  0  0  0  0  0  0
   61.8820   31.2160   48.8250 C   0  0  0  0  0  0  0  0  0  0  0  0
   63.1270   31.6680   49.2920 C   0  0  0  0  0  0  0  0  0  0  0  0
   63.8780   30.9470   50.2350 O   0  0  0  0  0  0  0  0  0  0  0  0
   63.3760   30.4790   51.4820 C   0  0  0  0  0  0  0  0  0  0  0  0
   59.8250   31.3380   47.4220 C   0  0  0  0  0  0  0  0  0  0  0  0
   58.6070   32.2480   47.5920 C   0  0  0  0  0  0  0  0  0  0  0  0
   58.6290   33.3510   46.6250 N   0  0  0  0  0  0  0  0  0  0  0  0
   57.5880   33.4450   45.6390 C   0  0  0  0  0  0  0  0  0  0  0  0
   56.8350   34.4560   45.6210 O   0  0  0  0  0  0  0  0  0  0  0  0
   57.3980   32.3910   44.6300 C   0  0  0  0  0  0  0  0  0  0  0  0
   57.8140   32.4340   43.3120 C   0  0  0  0  0  0  0  0  0  0  0  0
   57.4050   31.2410   42.7550 C   0  0  0  0  0  0  0  0  0  0  0  0
   56.7650   30.5470   43.7620 C   0  0  0  0  0  0  0  0  0  0  0  0
   56.7740   31.2600   44.8650 O   0  0  0  0  0  0  0  0  0  0  0  0
   59.5600   34.4730   46.7960 C   0  0  0  0  0  0  0  0  0  0  0  0
   60.9780   34.0700   46.3750 C   0  0  0  0  0  0  0  0  0  0  0  0
   64.4109   33.0162   51.2987 H   0  0  0  0  0  0  0  0  0  0  0  0
   66.1648   33.0237   50.9108 H   0  0  0  0  0  0  0  0  0  0  0  0
   65.2384   34.5626   50.9108 H   0  0  0  0  0  0  0  0  0  0  0  0
   63.3365   34.5607   47.4927 H   0  0  0  0  0  0  0  0  0  0  0  0
   61.4814   30.2630   49.2008 H   0  0  0  0  0  0  0  0  0  0  0  0
   63.9113   30.9780   52.3033 H   0  0  0  0  0  0  0  0  0  0  0  0
   62.3020   30.7056   51.5532 H   0  0  0  0  0  0  0  0  0  0  0  0
   63.5268   29.3917   51.5532 H   0  0  0  0  0  0  0  0  0  0  0  0
   59.9220   31.0879   46.3552 H   0  0  0  0  0  0  0  0  0  0  0  0
   59.6492   30.4548   48.0537 H   0  0  0  0  0  0  0  0  0  0  0  0
   57.6927   31.6557   47.4397 H   0  0  0  0  0  0  0  0  0  0  0  0
   58.6294   32.6737   48.6061 H   0  0  0  0  0  0  0  0  0  0  0  0
   58.3576   33.2495   42.8124 H   0  0  0  0  0  0  0  0  0  0  0  0
   57.5579   30.9092   41.7174 H   0  0  0  0  0  0  0  0  0  0  0  0
   56.3157   29.5485   43.6567 H   0  0  0  0  0  0  0  0  0  0  0  0
   59.2255   35.3175   46.1756 H   0  0  0  0  0  0  0  0  0  0  0  0
   59.5749   34.7614   47.8574 H   0  0  0  0  0  0  0  0  0  0  0  0
   60.9155   33.5469   45.4094 H   0  0  0  0  0  0  0  0  0  0  0  0
   61.5668   34.9976   46.3203 H   0  0  0  0  0  0  0  0  0  0  0  0
  1  2  1  0
  2  3  1  0
  3  4  2  0
  4  5  1  0
  5  6  2  0
  6  7  1  0
  7  8  2  0
  8  9  1  0
  9 10  1  0
  6 11  1  0
 11 12  1  0
 12 13  1  0
 13 14  1  0
 14 15  2  0
 14 16  1  0
 16 17  2  0
 17 18  1  0
 18 19  2  0
 19 20  1  0
 13 21  1  0
 21 22  1  0
  8  3  1  0
 20 16  1  0
 22  5  1  0
  1 23  1  0
  1 24  1  0
  1 25  1  0
  4 26  1  0
  7 27  1  0
 10 28  1  0
 10 29  1  0
 10 30  1  0
 11 31  1  0
 11 32  1  0
 12 33  1  0
 12 34  1  0
 17 35  1  0
 18 36  1  0
 19 37  1  0
 21 38  1  0
 21 39  1  0
 22 40  1  0
 22 41  1  0
M  END
>  <UniqueID>  (8) 
8

>  <SMILES>  (8) 
COc1cc2c(cc1OC)CCN(C(=O)c1ccco1)CC2

>  <Energy>  (8) 
79.36231880379103

>  <Genealogy>  (8) 
COc1cc2c(cc1OC)CCN(C(=O)c1ccco1)CC2 (3D coordinates assigned)
COc1cc2c(cc1OC)CCN(C(=O)c1ccco1)CC2 (nonaromatic ring conformer: 79.36231880379103 kcal/mol)

>  <smiles>  (8) 
COc1cc2c(cc1OC)CCN(C(=O)c1ccco1)CC2

>  <score_type>  (8) 
oracle

>  <origin>  (8) 
adg

>  <m_score__min__energy>  (8) 
-4.96

>  <m_primary>  (8) 
energy

$$$$
8:0
     RDKit          3D

 42 45  0  0  0  0  0  0  0  0999 V2000
   61.1304   26.0702   46.6570 H   0  0  0  0  0  0  0  0  0  0  0  0
   60.3860   26.8560   46.4610 C   0  0  0  0  0  0  0  0  0  0  0  0
   60.7360   28.2110   46.6400 C   0  0  0  0  0  0  0  0  0  0  0  0
   61.7486   28.4716   46.9818 H   0  0  0  0  0  0  0  0  0  0  0  0
   59.8040   29.2300   46.3860 C   0  0  0  0  0  0  0  0  0  0  0  0
   60.0686   30.2884   46.5262 H   0  0  0  0  0  0  0  0  0  0  0  0
   58.5310   28.8580   45.9500 C   0  0  0  0  0  0  0  0  0  0  0  0
   57.4130   29.5940   45.6100 C   0  0  0  0  0  0  0  0  0  0  0  0
   57.2320   31.0120   45.6160 N   0  0  0  0  0  0  0  0  0  0  0  0
   56.7830   31.6420   44.6070 N   0  0  0  0  0  0  0  0  0  0  0  0
   57.6260   32.4510   43.7810 C   0  0  0  0  0  0  0  0  0  0  0  0
   57.9370   32.0330   42.6350 O   0  0  0  0  0  0  0  0  0  0  0  0
   58.1240   33.7990   44.2280 C   0  0  0  0  0  0  0  0  0  0  0  0
   59.1760   33.9140   43.9278 H   0  0  0  0  0  0  0  0  0  0  0  0
   57.5078   34.5796   43.7579 H   0  0  0  0  0  0  0  0  0  0  0  0
   58.0240   33.9240   45.6470 O   0  0  0  0  0  0  0  0  0  0  0  0
   59.0380   33.6020   46.5630 C   0  0  0  0  0  0  0  0  0  0  0  0
   58.7670   33.1120   47.8550 C   0  0  0  0  0  0  0  0  0  0  0  0
   57.7249   32.9714   48.1778 H   0  0  0  0  0  0  0  0  0  0  0  0
   59.8110   32.8030   48.7300 C   0  0  0  0  0  0  0  0  0  0  0  0
   59.5871   32.4185   49.7360 H   0  0  0  0  0  0  0  0  0  0  0  0
   61.1430   32.9810   48.3310 C   0  0  0  0  0  0  0  0  0  0  0  0
   62.1990   32.6740   49.2030 C   0  0  0  0  0  0  0  0  0  0  0  0
   61.9848   32.2897   50.2112 H   0  0  0  0  0  0  0  0  0  0  0  0
   63.5230   32.8560   48.7920 C   0  0  0  0  0  0  0  0  0  0  0  0
   64.3483   32.6128   49.4774 H   0  0  0  0  0  0  0  0  0  0  0  0
   63.8010   33.3460   47.5130 C   0  0  0  0  0  0  0  0  0  0  0  0
   64.8446   33.4888   47.1959 H   0  0  0  0  0  0  0  0  0  0  0  0
   62.7590   33.6550   46.6360 C   0  0  0  0  0  0  0  0  0  0  0  0
   62.9842   34.0395   45.6303 H   0  0  0  0  0  0  0  0  0  0  0  0
   61.4240   33.4760   47.0350 C   0  0  0  0  0  0  0  0  0  0  0  0
   60.3690   33.7820   46.1640 C   0  0  0  0  0  0  0  0  0  0  0  0
   60.5883   34.1673   45.1573 H   0  0  0  0  0  0  0  0  0  0  0  0
   56.4520   28.6690   45.2480 C   0  0  0  0  0  0  0  0  0  0  0  0
   55.1640   28.9830   44.8340 O   0  0  0  0  0  0  0  0  0  0  0  0
   56.9100   27.3990   45.3430 N   0  0  0  0  0  0  0  0  0  0  0  0
   58.1840   27.5350   45.7750 C   0  0  0  0  0  0  0  0  0  0  0  0
   59.0900   26.5000   46.0330 C   0  0  0  0  0  0  0  0  0  0  0  0
   58.7150   25.0640   45.8090 C   0  0  0  0  0  0  0  0  0  0  0  0
   58.5843   24.5635   46.7798 H   0  0  0  0  0  0  0  0  0  0  0  0
   57.7739   25.0150   45.2415 H   0  0  0  0  0  0  0  0  0  0  0  0
   59.5119   24.5611   45.2415 H   0  0  0  0  0  0  0  0  0  0  0  0
  1  2  1  0
  2  3  2  0
  3  4  1  0
  3  5  1  0
  5  6  1  0
  5  7  2  0
  7  8  1  0
  8  9  1  0
  9 10  2  0
 10 11  1  0
 11 12  2  0
 11 13  1  0
 13 14  1  0
 13 15  1  0
 13 16  1  0
 16 17  1  0
 17 18  2  0
 18 19  1  0
 18 20  1  0
 20 21  1  0
 20 22  2  0
 22 23  1  0
 23 24  1  0
 23 25  2  0
 25 26  1  0
 25 27  1  0
 27 28  1  0
 27 29  2  0
 29 30  1  0
 29 31  1  0
 31 32  2  0
 32 33  1  0
  8 34  2  0
 34 35  1  0
 34 36  1  0
 36 37  1  0
 37 38  2  0
 38 39  1  0
 39 40  1  0
 39 41  1  0
 39 42  1  0
 38  2  1  0
 37  7  1  0
 32 17  1  0
 31 22  1  0
M  CHG  2  35  -1  36  -1
M  END
>  <UniqueID>  (9) 
9

>  <SMILES>  (9) 
Cc1cccc2c(/N=N/C(=O)COc3ccc4ccccc4c3)c([O-])[n-]c12

>  <Energy>  (9) 
82.5511497553075

>  <Genealogy>  (9) 
Cc1cccc2c(N=NC(=O)COc3ccc4ccccc4c3)c([O-])[n-]c12 (protonated)
Cc1cccc2c(/N=N/C(=O)COc3ccc4ccccc4c3)c([O-])[n-]c12 (cis-trans isomerization)
Cc1cccc2c(/N=N/C(=O)COc3ccc4ccccc4c3)c([O-])[n-]c12 (3D coordinates assigned)
Cc1cccc2c(/N=N/C(=O)COc3ccc4ccccc4c3)c([O-])[n-]c12 (optimized conformer: 82.5511497553075 kcal/mol)

>  <smiles>  (9) 
Cc1cccc2c(N=NC(=O)COc3ccc4ccccc4c3)c(O)[nH]c12

>  <score_type>  (9) 
oracle

>  <origin>  (9) 
adg

>  <m_score__min__energy>  (9) 
-14.630000000000001

>  <m_primary>  (9) 
energy

$$$$
9:0
     RDKit          3D

 42 44  0  0  0  0  0  0  0  0999 V2000
   57.0950   25.6930   45.1730 C   0  0  0  0  0  0  0  0  0  0  0  0
   56.4710   26.8920   45.6180 O   0  0  0  0  0  0  0  0  0  0  0  0
   57.1310   28.1210   45.7860 C   0  0  0  0  0  0  0  0  0  0  0  0
   56.7800   29.2620   45.0440 C   0  0  0  0  0  0  0  0  0  0  0  0
   57.4610   30.4730   45.2330 C   0  0  0  0  0  0  0  0  0  0  0  0
   57.0760   31.6080   44.5070 C   0  0  0  0  0  0  0  0  0  0  0  0
   57.7300   32.8220   44.6950 C   0  0  0  0  0  0  0  0  0  0  0  0
   58.8000   32.9270   45.5990 C   0  0  0  0  0  0  0  0  0  0  0  0
   59.2090   31.7900   46.3260 C   0  0  0  0  0  0  0  0  0  0  0  0
   58.5260   30.5560   46.1620 C   0  0  0  0  0  0  0  0  0  0  0  0
   58.8510   29.4100   46.9190 C   0  0  0  0  0  0  0  0  0  0  0  0
   58.1640   28.1970   46.7290 C   0  0  0  0  0  0  0  0  0  0  0  0
   58.4750   27.0400   47.4630 O   0  0  0  0  0  0  0  0  0  0  0  0
   59.7710   26.7160   47.9530 C   0  0  0  0  0  0  0  0  0  0  0  0
   60.3420   31.9240   47.2010 N   0  0  0  0  0  0  0  0  0  0  0  0
   60.6890   33.2260   47.7840 C   0  0  0  0  0  0  0  0  0  0  0  0
   62.1780   33.2350   48.1770 C   0  0  0  0  0  0  0  0  0  0  0  0
   59.8250   33.4610   49.0320 C   0  0  0  0  0  0  0  0  0  0  0  0
   60.4300   34.3360   46.7870 C   0  0  0  0  0  0  0  0  0  0  0  0
   59.5340   34.2130   45.7910 C   0  0  0  0  0  0  0  0  0  0  0  0
   59.2730   35.3920   44.8870 C   0  0  0  0  0  0  0  0  0  0  0  0
   57.4055   25.0964   46.0434 H   0  0  0  0  0  0  0  0  0  0  0  0
   56.3842   25.1133   44.5658 H   0  0  0  0  0  0  0  0  0  0  0  0
   57.9776   25.9425   44.5658 H   0  0  0  0  0  0  0  0  0  0  0  0
   55.9640   29.2044   44.3086 H   0  0  0  0  0  0  0  0  0  0  0  0
   56.2507   31.5389   43.7831 H   0  0  0  0  0  0  0  0  0  0  0  0
   57.4057   33.7083   44.1299 H   0  0  0  0  0  0  0  0  0  0  0  0
   59.6537   29.4661   47.6690 H   0  0  0  0  0  0  0  0  0  0  0  0
   59.7585   26.7191   49.0529 H   0  0  0  0  0  0  0  0  0  0  0  0
   60.0604   25.7179   47.5924 H   0  0  0  0  0  0  0  0  0  0  0  0
   60.4960   27.4605   47.5924 H   0  0  0  0  0  0  0  0  0  0  0  0
   60.9620   31.1040   47.3860 H   0  0  0  0  0  0  0  0  0  0  0  0
   62.2679   33.2355   49.2733 H   0  0  0  0  0  0  0  0  0  0  0  0
   62.6703   32.3398   47.7692 H   0  0  0  0  0  0  0  0  0  0  0  0
   62.6594   34.1361   47.7692 H   0  0  0  0  0  0  0  0  0  0  0  0
   60.4319   33.2959   49.9345 H   0  0  0  0  0  0  0  0  0  0  0  0
   59.4479   34.4943   49.0276 H   0  0  0  0  0  0  0  0  0  0  0  0
   58.9765   32.7610   49.0276 H   0  0  0  0  0  0  0  0  0  0  0  0
   60.9942   35.2757   46.8804 H   0  0  0  0  0  0  0  0  0  0  0  0
   59.0752   36.2854   45.4975 H   0  0  0  0  0  0  0  0  0  0  0  0
   60.1536   35.5693   44.2521 H   0  0  0  0  0  0  0  0  0  0  0  0
   58.3998   35.1810   44.2521 H   0  0  0  0  0  0  0  0  0  0  0  0
  1  2  1  0
  2  3  1  0
  3  4  2  0
  4  5  1  0
  5  6  2  0
  6  7  1  0
  7  8  2  0
  8  9  1  0
  9 10  2  0
 10 11  1  0
 11 12  2  0
 12 13  1  0
 13 14  1  0
  9 15  1  0
 15 16  1  0
 16 17  1  0
 16 18  1  0
 16 19  1  0
 19 20  2  0
 20 21  1  0
 12  3  1  0
 10  5  1  0
 20  8  1  0
  1 22  1  0
  1 23  1  0
  1 24  1  0
  4 25  1  0
  6 26  1  0
  7 27  1  0
 11 28  1  0
 14 29  1  0
 14 30  1  0
 14 31  1  0
 15 32  1  0
 17 33  1  0
 17 34  1  0
 17 35  1  0
 18 36  1  0
 18 37  1  0
 18 38  1  0
 19 39  1  0
 21 40  1  0
 21 41  1  0
 21 42  1  0
M  END
>  <UniqueID>  (10) 
10

>  <SMILES>  (10) 
COc1cc2ccc3c(c2cc1OC)NC(C)(C)C=C3C

>  <Energy>  (10) 
48.819482452714645

>  <Genealogy>  (10) 
COc1cc2ccc3c(c2cc1OC)NC(C)(C)C=C3C (3D coordinates assigned)
COc1cc2ccc3c(c2cc1OC)NC(C)(C)C=C3C (nonaromatic ring conformer: 48.819482452714645 kcal/mol)

>  <smiles>  (10) 
COc1cc2ccc3c(c2cc1OC)NC(C)(C)C=C3C

>  <score_type>  (10) 
oracle

>  <origin>  (10) 
adg

>  <m_score__min__energy>  (10) 
-6.79

>  <m_primary>  (10) 
energy

$$$$
10:0
     RDKit          3D

 38 41  0  0  0  0  0  0  0  0999 V2000
   59.2851   30.3380   47.6614 H   0  0  0  0  0  0  0  0  0  0  0  0
   58.8830   31.0820   46.9580 C   0  0  0  0  0  0  0  0  0  0  0  0
   57.8620   30.7440   46.1280 N   0  0  0  0  0  0  0  0  0  0  0  0
   57.3250   31.6200   45.2370 C   0  0  0  0  0  0  0  0  0  0  0  0
   56.3480   31.2150   44.4770 N   0  0  0  0  0  0  0  0  0  0  0  0
   56.2820   29.9420   43.7660 C   0  0  0  0  0  0  0  0  0  0  0  0
   56.2393   29.1177   44.4931 H   0  0  0  0  0  0  0  0  0  0  0  0
   55.3816   29.9210   43.1345 H   0  0  0  0  0  0  0  0  0  0  0  0
   57.1754   29.8280   43.1345 H   0  0  0  0  0  0  0  0  0  0  0  0
   57.8420   32.9290   45.1690 C   0  0  0  0  0  0  0  0  0  0  0  0
   57.4231   33.6539   44.4555 H   0  0  0  0  0  0  0  0  0  0  0  0
   58.8900   33.2990   46.0140 C   0  0  0  0  0  0  0  0  0  0  0  0
   59.2961   34.3202   45.9667 H   0  0  0  0  0  0  0  0  0  0  0  0
   59.4280   32.3760   46.9230 C   0  0  0  0  0  0  0  0  0  0  0  0
   60.5410   32.7630   47.8250 C   0  0  0  0  0  0  0  0  0  0  0  0
   60.3040   33.6400   48.9200 C   0  0  0  0  0  0  0  0  0  0  0  0
   59.2930   34.0365   49.0951 H   0  0  0  0  0  0  0  0  0  0  0  0
   61.3560   34.0020   49.7790 C   0  0  0  0  0  0  0  0  0  0  0  0
   61.1925   34.6787   50.6306 H   0  0  0  0  0  0  0  0  0  0  0  0
   62.6090   33.4710   49.5090 C   0  0  0  0  0  0  0  0  0  0  0  0
   63.8320   33.6060   50.1240 C   0  0  0  0  0  0  0  0  0  0  0  0
   64.2310   34.3220   51.2480 C   0  0  0  0  0  0  0  0  0  0  0  0
   63.5146   34.9311   51.8188 H   0  0  0  0  0  0  0  0  0  0  0  0
   65.5820   34.2400   51.6290 C   0  0  0  0  0  0  0  0  0  0  0  0
   65.9274   34.7828   52.5213 H   0  0  0  0  0  0  0  0  0  0  0  0
   66.5080   33.4660   50.8780 C   0  0  0  0  0  0  0  0  0  0  0  0
   67.9410   33.3510   51.3300 C   0  0  0  0  0  0  0  0  0  0  0  0
   68.1150   34.0930   52.4820 F   0  0  0  0  0  0  0  0  0  0  0  0
   68.8000   33.8260   50.3530 F   0  0  0  0  0  0  0  0  0  0  0  0
   68.2700   32.0310   51.5890 F   0  0  0  0  0  0  0  0  0  0  0  0
   66.0560   32.7340   49.7530 C   0  0  0  0  0  0  0  0  0  0  0  0
   66.7484   32.1045   49.1748 H   0  0  0  0  0  0  0  0  0  0  0  0
   64.7130   32.8310   49.3970 C   0  0  0  0  0  0  0  0  0  0  0  0
   64.0980   32.2190   48.3600 N   0  0  0  0  0  0  0  0  0  0  0  0
   64.5210   31.5780   47.6520 H   0  0  0  0  0  0  0  0  0  0  0  0
   62.8120   32.6240   48.4470 C   0  0  0  0  0  0  0  0  0  0  0  0
   61.8050   32.2660   47.6110 N   0  0  0  0  0  0  0  0  0  0  0  0
   62.0080   31.6360   46.8030 H   0  0  0  0  0  0  0  0  0  0  0  0
  1  2  1  0
  2  3  1  0
  3  4  1  0
  4  5  2  0
  5  6  1  0
  6  7  1  0
  6  8  1  0
  6  9  1  0
  4 10  1  0
 10 11  1  0
 10 12  2  0
 12 13  1  0
 12 14  1  0
 14 15  1  0
 15 16  2  0
 16 17  1  0
 16 18  1  0
 18 19  1  0
 18 20  2  0
 20 21  1  0
 21 22  2  0
 22 23  1  0
 22 24  1  0
 24 25  1  0
 24 26  2  0
 26 27  1  0
 27 28  1  0
 27 29  1  0
 27 30  1  0
 26 31  1  0
 31 32  1  0
 31 33  2  0
 33 34  1  0
 34 35  1  0
 34 36  1  0
 36 37  2  0
 37 38  1  0
 14  2  2  0
 37 15  1  0
 36 20  1  0
 33 21  1  0
M  CHG  2   3  -1  37   1
M  END
>  <UniqueID>  (11) 
11

>  <SMILES>  (11) 
C/N=c1\ccc(-c2ccc3c([nH]c4cc(C(F)(F)F)ccc43)[nH+]2)c[n-]1

>  <Energy>  (11) 
91.07754230666124

>  <Genealogy>  (11) 
CN=c1ccc(-c2ccc3c([nH]c4cc(C(F)(F)F)ccc43)[nH+]2)c[n-]1 (protonated)
C/N=c1\ccc(-c2ccc3c([nH]c4cc(C(F)(F)F)ccc43)[nH+]2)c[n-]1 (cis-trans isomerization)
C/N=c1\ccc(-c2ccc3c([nH]c4cc(C(F)(F)F)ccc43)[nH+]2)c[n-]1 (3D coordinates assigned)
C/N=c1\ccc(-c2ccc3c([nH]c4cc(C(F)(F)F)ccc43)[nH+]2)c[n-]1 (optimized conformer: 91.07754230666124 kcal/mol)

>  <smiles>  (11) 
CN=c1ccc(-c2ccc3c(n2)[nH]c2cc(C(F)(F)F)ccc23)c[nH]1

>  <score_type>  (11) 
oracle

>  <origin>  (11) 
adg

>  <m_score__min__energy>  (11) 
-7.4100000000000001

>  <m_primary>  (11) 
energy

$$$$
11:0
     RDKit          3D

 60 63  0  0  0  0  0  0  0  0999 V2000
   58.1810   27.3420   43.3950 C   0  0  0  0  0  0  0  0  0  0  0  0
   58.0510   26.7780   44.8060 C   0  0  0  0  0  0  0  0  0  0  0  0
   57.8130   27.8230   45.7490 O   0  0  0  0  0  0  0  0  0  0  0  0
   58.8020   28.6160   46.3550 C   0  0  0  0  0  0  0  0  0  0  0  0
   59.7640   29.2110   45.5330 C   0  0  0  0  0  0  0  0  0  0  0  0
   60.7630   30.0210   46.0780 C   0  0  0  0  0  0  0  0  0  0  0  0
   60.8190   30.2570   47.4640 C   0  0  0  0  0  0  0  0  0  0  0  0
   61.8220   31.1360   48.0270 N   0  0  0  0  0  0  0  0  0  0  0  0
   62.6240   32.0050   47.1470 C   0  0  0  0  0  0  0  0  0  0  0  0
   63.5080   33.0020   47.9260 C   0  0  0  0  0  0  0  0  0  0  0  0
   62.7350   34.0200   48.7880 C   0  0  0  0  0  0  0  0  0  0  0  0
   61.4800   33.4940   49.3650 N   0  0  0  0  0  0  0  0  0  0  0  0
   60.2320   34.0520   48.9240 C   0  0  0  0  0  0  0  0  0  0  0  0
   59.6520   34.9310   49.6170 O   0  0  0  0  0  0  0  0  0  0  0  0
   59.5870   33.5520   47.7030 C   0  0  0  0  0  0  0  0  0  0  0  0
   58.5170   32.6620   47.7930 C   0  0  0  0  0  0  0  0  0  0  0  0
   57.9490   32.1350   46.6350 C   0  0  0  0  0  0  0  0  0  0  0  0
   58.4630   32.5000   45.3770 C   0  0  0  0  0  0  0  0  0  0  0  0
   57.9050   31.9420   44.1650 N   0  0  0  0  0  0  0  0  0  0  0  0
   56.9720   30.8270   44.1380 C   0  0  0  0  0  0  0  0  0  0  0  0
   56.7970   30.4660   42.6700 C   0  0  0  0  0  0  0  0  0  0  0  0
   57.3010   31.6710   41.8840 C   0  0  0  0  0  0  0  0  0  0  0  0
   58.2190   32.4300   42.8320 C   0  0  0  0  0  0  0  0  0  0  0  0
   59.5040   33.3890   45.3190 N   0  0  0  0  0  0  0  0  0  0  0  0
   60.0640   33.9150   46.4410 C   0  0  0  0  0  0  0  0  0  0  0  0
   61.4480   32.2880   50.2030 C   0  0  0  0  0  0  0  0  0  0  0  0
   62.1070   31.1120   49.4730 C   0  0  0  0  0  0  0  0  0  0  0  0
   59.8670   29.6330   48.2920 C   0  0  0  0  0  0  0  0  0  0  0  0
   58.8650   28.8270   47.7450 C   0  0  0  0  0  0  0  0  0  0  0  0
   58.4278   28.4126   43.4494 H   0  0  0  0  0  0  0  0  0  0  0  0
   58.9797   26.8084   42.8590 H   0  0  0  0  0  0  0  0  0  0  0  0
   57.2293   27.2118   42.8590 H   0  0  0  0  0  0  0  0  0  0  0  0
   57.2113   26.0680   44.8348 H   0  0  0  0  0  0  0  0  0  0  0  0
   58.9903   26.2706   45.0711 H   0  0  0  0  0  0  0  0  0  0  0  0
   59.7338   29.0396   44.4469 H   0  0  0  0  0  0  0  0  0  0  0  0
   61.5135   30.4790   45.4170 H   0  0  0  0  0  0  0  0  0  0  0  0
   63.2742   31.3709   46.5264 H   0  0  0  0  0  0  0  0  0  0  0  0
   61.9222   32.5939   46.5383 H   0  0  0  0  0  0  0  0  0  0  0  0
   64.1698   32.4257   48.5892 H   0  0  0  0  0  0  0  0  0  0  0  0
   64.0513   33.5880   47.1701 H   0  0  0  0  0  0  0  0  0  0  0  0
   63.3877   34.3390   49.6140 H   0  0  0  0  0  0  0  0  0  0  0  0
   62.4543   34.8498   48.1227 H   0  0  0  0  0  0  0  0  0  0  0  0
   58.1213   32.3760   48.7787 H   0  0  0  0  0  0  0  0  0  0  0  0
   57.1021   31.4364   46.7039 H   0  0  0  0  0  0  0  0  0  0  0  0
   57.3811   29.9720   44.6963 H   0  0  0  0  0  0  0  0  0  0  0  0
   56.0125   31.0915   44.6063 H   0  0  0  0  0  0  0  0  0  0  0  0
   57.3883   29.5722   42.4221 H   0  0  0  0  0  0  0  0  0  0  0  0
   55.7480   30.2365   42.4314 H   0  0  0  0  0  0  0  0  0  0  0  0
   57.8570   31.3423   40.9936 H   0  0  0  0  0  0  0  0  0  0  0  0
   56.4708   32.3015   41.5330 H   0  0  0  0  0  0  0  0  0  0  0  0
   59.2725   32.2277   42.5886 H   0  0  0  0  0  0  0  0  0  0  0  0
   58.0709   33.5172   42.7542 H   0  0  0  0  0  0  0  0  0  0  0  0
   59.9060   33.6750   44.4000 H   0  0  0  0  0  0  0  0  0  0  0  0
   60.8961   34.6293   46.3546 H   0  0  0  0  0  0  0  0  0  0  0  0
   61.9907   32.4831   51.1397 H   0  0  0  0  0  0  0  0  0  0  0  0
   60.4004   32.0316   50.4193 H   0  0  0  0  0  0  0  0  0  0  0  0
   63.1955   31.1652   49.6222 H   0  0  0  0  0  0  0  0  0  0  0  0
   61.6962   30.1793   49.8869 H   0  0  0  0  0  0  0  0  0  0  0  0
   59.9122   29.7813   49.3810 H   0  0  0  0  0  0  0  0  0  0  0  0
   58.1217   28.3550   48.4043 H   0  0  0  0  0  0  0  0  0  0  0  0
  1  2  1  0
  2  3  1  0
  3  4  1  0
  4  5  2  0
  5  6  1  0
  6  7  2  0
  7  8  1  0
  8  9  1  0
  9 10  1  0
 10 11  1  0
 11 12  1  0
 12 13  1  0
 13 14  2  0
 13 15  1  0
 15 16  2  0
 16 17  1  0
 17 18  2  0
 18 19  1  0
 19 20  1  0
 20 21  1  0
 21 22  1  0
 22 23  1  0
 18 24  1  0
 24 25  2  0
 12 26  1  0
 26 27  1  0
  7 28  1  0
 28 29  2  0
 29  4  1  0
 27  8  1  0
 25 15  1  0
 23 19  1  0
  1 30  1  0
  1 31  1  0
  1 32  1  0
  2 33  1  0
  2 34  1  0
  5 35  1  0
  6 36  1  0
  9 37  1  0
  9 38  1  0
 10 39  1  0
 10 40  1  0
 11 41  1  0
 11 42  1  0
 16 43  1  0
 17 44  1  0
 20 45  1  0
 20 46  1  0
 21 47  1  0
 21 48  1  0
 22 49  1  0
 22 50  1  0
 23 51  1  0
 23 52  1  0
 24 53  1  0
 25 54  1  0
 26 55  1  0
 26 56  1  0
 27 57  1  0
 27 58  1  0
 28 59  1  0
 29 60  1  0
M  CHG  1  24   1
M  END
>  <UniqueID>  (12) 
12

>  <SMILES>  (12) 
CCOc1ccc(N2CCCN(C(=O)c3ccc(N4CCCC4)[nH+]c3)CC2)cc1

>  <Energy>  (12) 
75.205207332916

>  <Genealogy>  (12) 
CCOc1ccc(N2CCCN(C(=O)c3ccc(N4CCCC4)[nH+]c3)CC2)cc1 (protonated)
CCOc1ccc(N2CCCN(C(=O)c3ccc(N4CCCC4)[nH+]c3)CC2)cc1 (3D coordinates assigned)
CCOc1ccc(N2CCCN(C(=O)c3ccc(N4CCCC4)[nH+]c3)CC2)cc1 (nonaromatic ring conformer: 75.205207332916 kcal/mol)

>  <smiles>  (12) 
CCOc1ccc(N2CCCN(C(=O)c3ccc(N4CCCC4)nc3)CC2)cc1

>  <score_type>  (12) 
oracle

>  <origin>  (12) 
adg

>  <m_score__min__energy>  (12) 
-4.3300000000000001

>  <m_primary>  (12) 
energy

$$$$
12:0
     RDKit          3D

 52 54  0  0  0  0  0  0  0  0999 V2000
   58.1630   33.5850   52.3740 C   0  0  0  0  0  0  0  0  0  0  0  0
   59.5870   33.4830   51.8450 C   0  0  0  0  0  0  0  0  0  0  0  0
   59.5740   32.8980   50.4800 N   0  0  0  0  0  0  0  0  0  0  0  0
   58.4410   31.9620   50.2970 C   0  0  0  0  0  0  0  0  0  0  0  0
   58.9420   30.5340   50.0810 C   0  0  0  0  0  0  0  0  0  0  0  0
   59.5770   33.9470   49.4320 C   0  0  0  0  0  0  0  0  0  0  0  0
   60.9560   34.0580   48.7560 C   0  0  0  0  0  0  0  0  0  0  0  0
   60.8610   34.2630   47.3040 N   0  0  0  0  0  0  0  0  0  0  0  0
   59.8130   33.7240   46.4610 C   0  0  0  0  0  0  0  0  0  0  0  0
   58.9370   34.6160   45.8030 C   0  0  0  0  0  0  0  0  0  0  0  0
   57.7710   34.1680   45.1920 C   0  0  0  0  0  0  0  0  0  0  0  0
   57.4280   32.8260   45.2460 C   0  0  0  0  0  0  0  0  0  0  0  0
   58.2840   31.9050   45.8490 C   0  0  0  0  0  0  0  0  0  0  0  0
   57.8980   30.6040   45.8930 N   0  0  0  0  0  0  0  0  0  0  0  0
   58.6660   29.6270   46.4340 C   0  0  0  0  0  0  0  0  0  0  0  0
   58.1550   28.2320   46.4610 C   0  0  0  0  0  0  0  0  0  0  0  0
   57.0790   27.8290   45.6440 C   0  0  0  0  0  0  0  0  0  0  0  0
   56.6200   26.5090   45.6780 C   0  0  0  0  0  0  0  0  0  0  0  0
   57.2280   25.5750   46.5190 C   0  0  0  0  0  0  0  0  0  0  0  0
   58.3030   25.9580   47.3240 C   0  0  0  0  0  0  0  0  0  0  0  0
   58.7680   27.2770   47.2940 C   0  0  0  0  0  0  0  0  0  0  0  0
   59.9450   29.9510   46.8960 C   0  0  0  0  0  0  0  0  0  0  0  0
   60.4120   31.2740   46.8380 C   0  0  0  0  0  0  0  0  0  0  0  0
   61.8770   31.4700   47.1340 C   0  0  0  0  0  0  0  0  0  0  0  0
   59.5310   32.3150   46.4020 C   0  0  0  0  0  0  0  0  0  0  0  0
   58.1795   33.5838   53.4739 H   0  0  0  0  0  0  0  0  0  0  0  0
   57.7045   34.5183   52.0152 H   0  0  0  0  0  0  0  0  0  0  0  0
   57.5762   32.7266   52.0152 H   0  0  0  0  0  0  0  0  0  0  0  0
   60.0360   34.4865   51.8083 H   0  0  0  0  0  0  0  0  0  0  0  0
   60.1777   32.8377   52.5119 H   0  0  0  0  0  0  0  0  0  0  0  0
   57.8038   31.9883   51.1933 H   0  0  0  0  0  0  0  0  0  0  0  0
   57.8693   32.2717   49.4097 H   0  0  0  0  0  0  0  0  0  0  0  0
   59.1107   30.0532   51.0559 H   0  0  0  0  0  0  0  0  0  0  0  0
   58.1904   29.9633   49.5158 H   0  0  0  0  0  0  0  0  0  0  0  0
   59.8854   30.5580   49.5158 H   0  0  0  0  0  0  0  0  0  0  0  0
   58.8239   33.6952   48.6708 H   0  0  0  0  0  0  0  0  0  0  0  0
   59.3437   34.9120   49.9057 H   0  0  0  0  0  0  0  0  0  0  0  0
   61.4966   34.9085   49.1969 H   0  0  0  0  0  0  0  0  0  0  0  0
   61.4855   33.1085   48.9235 H   0  0  0  0  0  0  0  0  0  0  0  0
   61.7580   34.5420   46.8570 H   0  0  0  0  0  0  0  0  0  0  0  0
   59.1826   35.6878   45.7734 H   0  0  0  0  0  0  0  0  0  0  0  0
   57.1193   34.8802   44.6646 H   0  0  0  0  0  0  0  0  0  0  0  0
   56.4764   32.4861   44.8113 H   0  0  0  0  0  0  0  0  0  0  0  0
   56.5976   28.5579   44.9755 H   0  0  0  0  0  0  0  0  0  0  0  0
   55.7770   26.2052   45.0400 H   0  0  0  0  0  0  0  0  0  0  0  0
   56.8607   24.5385   46.5475 H   0  0  0  0  0  0  0  0  0  0  0  0
   58.7851   25.2209   47.9830 H   0  0  0  0  0  0  0  0  0  0  0  0
   59.6191   27.5702   47.9261 H   0  0  0  0  0  0  0  0  0  0  0  0
   60.5914   29.1624   47.3087 H   0  0  0  0  0  0  0  0  0  0  0  0
   62.0315   31.4907   48.2229 H   0  0  0  0  0  0  0  0  0  0  0  0
   62.4534   30.6410   46.6975 H   0  0  0  0  0  0  0  0  0  0  0  0
   62.2152   32.4214   46.6975 H   0  0  0  0  0  0  0  0  0  0  0  0
  1  2  1  0
  2  3  1  0
  3  4  1  0
  4  5  1  0
  3  6  1  0
  6  7  1  0
  7  8  1  0
  8  9  1  0
  9 10  2  0
 10 11  1  0
 11 12  2  0
 12 13  1  0
 13 14  2  0
 14 15  1  0
 15 16  1  0
 16 17  2  0
 17 18  1  0
 18 19  2  0
 19 20  1  0
 20 21  2  0
 15 22  2  0
 22 23  1  0
 23 24  1  0
 23 25  2  0
 25  9  1  0
 25 13  1  0
 21 16  1  0
  1 26  1  0
  1 27  1  0
  1 28  1  0
  2 29  1  0
  2 30  1  0
  4 31  1  0
  4 32  1  0
  5 33  1  0
  5 34  1  0
  5 35  1  0
  6 36  1  0
  6 37  1  0
  7 38  1  0
  7 39  1  0
  8 40  1  0
 10 41  1  0
 11 42  1  0
 12 43  1  0
 17 44  1  0
 18 45  1  0
 19 46  1  0
 20 47  1  0
 21 48  1  0
 22 49  1  0
 24 50  1  0
 24 51  1  0
 24 52  1  0
M  END
>  <UniqueID>  (13) 
13

>  <SMILES>  (13) 
CCN(CC)CCNc1cccc2nc(-c3ccccc3)cc(C)c12

>  <Energy>  (13) 
74.20148024817352

>  <Genealogy>  (13) 
CCN(CC)CCNc1cccc2nc(-c3ccccc3)cc(C)c12 (3D coordinates assigned)
CCN(CC)CCNc1cccc2nc(-c3ccccc3)cc(C)c12 (optimized conformer: 74.20148024817352 kcal/mol)

>  <smiles>  (13) 
CCN(CC)CCNc1cccc2nc(-c3ccccc3)cc(C)c12

>  <score_type>  (13) 
oracle

>  <origin>  (13) 
adg

>  <m_score__min__energy>  (13) 
-7.3399999999999999

>  <m_primary>  (13) 
energy

$$$$
13:0
     RDKit          3D

 33 35  0  0  0  0  0  0  0  0999 V2000
   56.4560   29.3740   42.3890 N   0  0  0  0  0  0  0  0  0  0  0  0
   56.2650   29.6620   43.7770 C   0  0  0  0  0  0  0  0  0  0  0  0
   55.1400   29.4370   44.2930 O   0  0  0  0  0  0  0  0  0  0  0  0
   57.3720   30.2040   44.6030 C   0  0  0  0  0  0  0  0  0  0  0  0
   57.4010   31.4780   45.1440 C   0  0  0  0  0  0  0  0  0  0  0  0
   58.5840   31.5840   45.8570 C   0  0  0  0  0  0  0  0  0  0  0  0
   59.0580   32.7650   46.6250 C   0  0  0  0  0  0  0  0  0  0  0  0
   59.3800   32.6520   47.9900 C   0  0  0  0  0  0  0  0  0  0  0  0
   59.8240   33.7750   48.6930 C   0  0  0  0  0  0  0  0  0  0  0  0
   59.9450   34.9720   48.0640 N   0  0  0  0  0  0  0  0  0  0  0  0
   59.6430   35.1150   46.7460 C   0  0  0  0  0  0  0  0  0  0  0  0
   59.1950   34.0200   46.0050 C   0  0  0  0  0  0  0  0  0  0  0  0
   59.2310   30.3680   45.7220 C   0  0  0  0  0  0  0  0  0  0  0  0
   58.5010   29.5360   44.9520 N   0  0  0  0  0  0  0  0  0  0  0  0
   58.8610   28.1450   44.6700 C   0  0  0  0  0  0  0  0  0  0  0  0
   58.0150   27.2140   45.4810 C   0  0  0  0  0  0  0  0  0  0  0  0
   58.4750   26.1390   46.2130 C   0  0  0  0  0  0  0  0  0  0  0  0
   57.3570   25.5820   46.7950 C   0  0  0  0  0  0  0  0  0  0  0  0
   56.2870   26.3490   46.3800 C   0  0  0  0  0  0  0  0  0  0  0  0
   56.7110   27.3140   45.5970 O   0  0  0  0  0  0  0  0  0  0  0  0
   55.6780   28.9580   41.8320 H   0  0  0  0  0  0  0  0  0  0  0  0
   57.3430   29.6150   41.8960 H   0  0  0  0  0  0  0  0  0  0  0  0
   56.6324   32.2565   45.0297 H   0  0  0  0  0  0  0  0  0  0  0  0
   59.2826   31.6832   48.5018 H   0  0  0  0  0  0  0  0  0  0  0  0
   60.0765   33.6889   49.7602 H   0  0  0  0  0  0  0  0  0  0  0  0
   59.7521   36.0968   46.2620 H   0  0  0  0  0  0  0  0  0  0  0  0
   58.9498   34.1384   44.9392 H   0  0  0  0  0  0  0  0  0  0  0  0
   60.2004   30.1167   46.1770 H   0  0  0  0  0  0  0  0  0  0  0  0
   58.7041   27.9393   43.6008 H   0  0  0  0  0  0  0  0  0  0  0  0
   59.9176   27.9888   44.9331 H   0  0  0  0  0  0  0  0  0  0  0  0
   59.5161   25.7979   46.3115 H   0  0  0  0  0  0  0  0  0  0  0  0
   57.3239   24.7038   47.4565 H   0  0  0  0  0  0  0  0  0  0  0  0
   55.2378   26.1777   46.6625 H   0  0  0  0  0  0  0  0  0  0  0  0
  1  2  1  0
  2  3  2  0
  2  4  1  0
  4  5  2  0
  5  6  1  0
  6  7  1  0
  7  8  2  0
  8  9  1  0
  9 10  2  0
 10 11  1  0
 11 12  2  0
  6 13  2  0
 13 14  1  0
 14 15  1  0
 15 16  1  0
 16 17  2  0
 17 18  1  0
 18 19  2  0
 19 20  1  0
 14  4  1  0
 20 16  1  0
 12  7  1  0
  1 21  1  0
  1 22  1  0
  5 23  1  0
  8 24  1  0
  9 25  1  0
 11 26  1  0
 12 27  1  0
 13 28  1  0
 15 29  1  0
 15 30  1  0
 17 31  1  0
 18 32  1  0
 19 33  1  0
M  END
>  <UniqueID>  (14) 
14

>  <SMILES>  (14) 
NC(=O)c1cc(-c2ccncc2)cn1Cc1ccco1

>  <Energy>  (14) 
89.57594193202469

>  <Genealogy>  (14) 
NC(=O)c1cc(-c2ccncc2)cn1Cc1ccco1 (3D coordinates assigned)
NC(=O)c1cc(-c2ccncc2)cn1Cc1ccco1 (optimized conformer: 89.57594193202469 kcal/mol)

>  <smiles>  (14) 
NC(=O)c1cc(-c2ccncc2)cn1Cc1ccco1

>  <score_type>  (14) 
oracle

>  <origin>  (14) 
adg

>  <m_score__min__energy>  (14) 
-6.9299999999999997

>  <m_primary>  (14) 
energy

$$$$
14:0
     RDKit          3D

 48 51  0  0  0  0  0  0  0  0999 V2000
   59.0450   29.9480   49.4080 C   0  0  0  0  0  0  0  0  0  0  0  0
   58.4720   29.8830   50.8230 C   0  0  0  0  0  0  0  0  0  0  0  0
   57.7830   31.1490   51.1620 N   0  0  0  0  0  0  0  0  0  0  0  0
   56.4220   30.8700   51.6670 C   0  0  0  0  0  0  0  0  0  0  0  0
   58.5700   31.9160   52.1580 C   0  0  0  0  0  0  0  0  0  0  0  0
   58.5130   33.4340   51.9040 C   0  0  0  0  0  0  0  0  0  0  0  0
   59.6870   33.9060   51.1720 N   0  0  0  0  0  0  0  0  0  0  0  0
   59.9150   33.5690   49.7970 C   0  0  0  0  0  0  0  0  0  0  0  0
   58.9480   33.1630   48.9440 N   0  0  0  0  0  0  0  0  0  0  0  0
   59.5970   32.9410   47.7740 C   0  0  0  0  0  0  0  0  0  0  0  0
   58.9030   32.5200   46.5370 C   0  0  0  0  0  0  0  0  0  0  0  0
   58.4260   31.2480   46.4500 N   0  0  0  0  0  0  0  0  0  0  0  0
   57.8060   30.7910   45.3310 C   0  0  0  0  0  0  0  0  0  0  0  0
   57.3220   29.4800   45.2680 C   0  0  0  0  0  0  0  0  0  0  0  0
   56.6870   29.0290   44.1050 C   0  0  0  0  0  0  0  0  0  0  0  0
   56.5360   29.8850   43.0080 C   0  0  0  0  0  0  0  0  0  0  0  0
   57.0190   31.1970   43.0670 C   0  0  0  0  0  0  0  0  0  0  0  0
   57.6550   31.6520   44.2290 C   0  0  0  0  0  0  0  0  0  0  0  0
   58.1280   32.9220   44.3080 N   0  0  0  0  0  0  0  0  0  0  0  0
   58.7500   33.3810   45.4270 C   0  0  0  0  0  0  0  0  0  0  0  0
   59.2820   35.0570   45.4490 Cl  0  0  0  0  0  0  0  0  0  0  0  0
   60.9230   33.2030   47.8730 N   0  0  0  0  0  0  0  0  0  0  0  0
   61.9340   33.0820   46.9700 C   0  0  0  0  0  0  0  0  0  0  0  0
   63.2360   33.4080   47.3780 C   0  0  0  0  0  0  0  0  0  0  0  0
   63.4630   33.8340   48.7000 C   0  0  0  0  0  0  0  0  0  0  0  0
   62.3970   33.9290   49.6060 C   0  0  0  0  0  0  0  0  0  0  0  0
   61.1240   33.5970   49.1410 C   0  0  0  0  0  0  0  0  0  0  0  0
   60.1368   30.0719   49.4599 H   0  0  0  0  0  0  0  0  0  0  0  0
   58.8066   29.0171   48.8727 H   0  0  0  0  0  0  0  0  0  0  0  0
   58.6041   30.8019   48.8727 H   0  0  0  0  0  0  0  0  0  0  0  0
   57.7538   29.0521   50.8849 H   0  0  0  0  0  0  0  0  0  0  0  0
   59.2965   29.7252   51.5339 H   0  0  0  0  0  0  0  0  0  0  0  0
   56.4315   30.8719   52.7670 H   0  0  0  0  0  0  0  0  0  0  0  0
   55.7305   31.6451   51.3049 H   0  0  0  0  0  0  0  0  0  0  0  0
   56.0912   29.8854   51.3049 H   0  0  0  0  0  0  0  0  0  0  0  0
   58.1683   31.7098   53.1610 H   0  0  0  0  0  0  0  0  0  0  0  0
   59.6201   31.5997   52.0731 H   0  0  0  0  0  0  0  0  0  0  0  0
   57.6114   33.6633   51.3170 H   0  0  0  0  0  0  0  0  0  0  0  0
   58.4900   33.9433   52.8787 H   0  0  0  0  0  0  0  0  0  0  0  0
   60.3340   34.5740   51.6460 H   0  0  0  0  0  0  0  0  0  0  0  0
   57.4400   28.8060   46.1293 H   0  0  0  0  0  0  0  0  0  0  0  0
   56.3055   27.9986   44.0530 H   0  0  0  0  0  0  0  0  0  0  0  0
   56.0361   29.5253   42.0966 H   0  0  0  0  0  0  0  0  0  0  0  0
   56.8996   31.8685   42.2040 H   0  0  0  0  0  0  0  0  0  0  0  0
   61.7350   32.7368   45.9447 H   0  0  0  0  0  0  0  0  0  0  0  0
   64.0739   33.3312   46.6694 H   0  0  0  0  0  0  0  0  0  0  0  0
   64.4816   34.0937   49.0241 H   0  0  0  0  0  0  0  0  0  0  0  0
   62.5583   34.2532   50.6447 H   0  0  0  0  0  0  0  0  0  0  0  0
  1  2  1  0
  2  3  1  0
  3  4  1  0
  3  5  1  0
  5  6  1  0
  6  7  1  0
  7  8  1  0
  8  9  1  0
  9 10  2  0
 10 11  1  0
 11 12  2  0
 12 13  1  0
 13 14  2  0
 14 15  1  0
 15 16  2  0
 16 17  1  0
 17 18  2  0
 18 19  1  0
 19 20  2  0
 20 21  1  0
 10 22  1  0
 22 23  1  0
 23 24  2  0
 24 25  1  0
 25 26  2  0
 26 27  1  0
 27  8  2  0
 20 11  1  0
 27 22  1  0
 18 13  1  0
  1 28  1  0
  1 29  1  0
  1 30  1  0
  2 31  1  0
  2 32  1  0
  4 33  1  0
  4 34  1  0
  4 35  1  0
  5 36  1  0
  5 37  1  0
  6 38  1  0
  6 39  1  0
  7 40  1  0
 14 41  1  0
 15 42  1  0
 16 43  1  0
 17 44  1  0
 23 45  1  0
 24 46  1  0
 25 47  1  0
 26 48  1  0
M  END
>  <UniqueID>  (15) 
15

>  <SMILES>  (15) 
CCN(C)CCNc1nc(-c2nc3ccccc3nc2Cl)n2ccccc12

>  <Energy>  (15) 
95.26666617561942

>  <Genealogy>  (15) 
CCN(C)CCNc1nc(-c2nc3ccccc3nc2Cl)n2ccccc12 (3D coordinates assigned)
CCN(C)CCNc1nc(-c2nc3ccccc3nc2Cl)n2ccccc12 (optimized conformer: 95.26666617561942 kcal/mol)

>  <smiles>  (15) 
CCN(C)CCNc1nc(-c2nc3ccccc3nc2Cl)n2ccccc12

>  <score_type>  (15) 
oracle

>  <origin>  (15) 
adg

>  <m_score__min__energy>  (15) 
-8.0899999999999999

>  <m_primary>  (15) 
energy

$$$$
15:0
     RDKit          3D

 41 42  0  0  0  0  0  0  0  0999 V2000
   60.4680   28.8920   49.2860 C   0  0  0  0  0  0  0  0  0  0  0  0
   60.6630   30.2550   49.6450 O   0  0  0  0  0  0  0  0  0  0  0  0
   61.5550   31.1290   49.0050 C   0  0  0  0  0  0  0  0  0  0  0  0
   62.7760   31.5130   49.5960 C   0  0  0  0  0  0  0  0  0  0  0  0
   63.6370   32.3950   48.9330 C   0  0  0  0  0  0  0  0  0  0  0  0
   64.8830   32.7820   49.5430 C   0  0  0  0  0  0  0  0  0  0  0  0
   65.8840   33.0920   50.0330 N   0  0  0  0  0  0  0  0  0  0  0  0
   63.2890   32.8980   47.6770 C   0  0  0  0  0  0  0  0  0  0  0  0
   62.0830   32.5230   47.0830 C   0  0  0  0  0  0  0  0  0  0  0  0
   61.2110   31.6410   47.7400 C   0  0  0  0  0  0  0  0  0  0  0  0
   59.9840   31.2440   47.1020 N   0  0  0  0  0  0  0  0  0  0  0  0
   58.7380   31.9580   47.4120 C   0  0  0  0  0  0  0  0  0  0  0  0
   59.0000   33.4510   47.6690 C   0  0  0  0  0  0  0  0  0  0  0  0
   58.9610   34.2980   46.3920 C   0  0  0  0  0  0  0  0  0  0  0  0
   59.8690   33.7880   45.4820 F   0  0  0  0  0  0  0  0  0  0  0  0
   57.6980   34.2590   45.8290 F   0  0  0  0  0  0  0  0  0  0  0  0
   59.2980   35.6100   46.6660 F   0  0  0  0  0  0  0  0  0  0  0  0
   60.0330   30.2860   45.9920 C   0  0  0  0  0  0  0  0  0  0  0  0
   58.7390   30.3170   45.2270 C   0  0  0  0  0  0  0  0  0  0  0  0
   58.5080   31.3180   44.2670 C   0  0  0  0  0  0  0  0  0  0  0  0
   57.2830   31.3780   43.5940 C   0  0  0  0  0  0  0  0  0  0  0  0
   56.2800   30.4480   43.8800 C   0  0  0  0  0  0  0  0  0  0  0  0
   56.4980   29.4580   44.8430 C   0  0  0  0  0  0  0  0  0  0  0  0
   55.5200   28.5620   45.1260 F   0  0  0  0  0  0  0  0  0  0  0  0
   57.7210   29.3950   45.5190 C   0  0  0  0  0  0  0  0  0  0  0  0
   60.3807   28.2818   50.1970 H   0  0  0  0  0  0  0  0  0  0  0  0
   59.5472   28.7975   48.6917 H   0  0  0  0  0  0  0  0  0  0  0  0
   61.3254   28.5431   48.6917 H   0  0  0  0  0  0  0  0  0  0  0  0
   63.0536   31.1171   50.5840 H   0  0  0  0  0  0  0  0  0  0  0  0
   63.9663   33.5904   47.1556 H   0  0  0  0  0  0  0  0  0  0  0  0
   61.8142   32.9213   46.0935 H   0  0  0  0  0  0  0  0  0  0  0  0
   58.0459   31.8564   46.5631 H   0  0  0  0  0  0  0  0  0  0  0  0
   58.3034   31.5196   48.3224 H   0  0  0  0  0  0  0  0  0  0  0  0
   58.2325   33.8267   48.3616 H   0  0  0  0  0  0  0  0  0  0  0  0
   60.0129   33.5382   48.0890 H   0  0  0  0  0  0  0  0  0  0  0  0
   60.8608   30.5517   45.3181 H   0  0  0  0  0  0  0  0  0  0  0  0
   60.1894   29.2746   46.3952 H   0  0  0  0  0  0  0  0  0  0  0  0
   59.2927   32.0560   44.0445 H   0  0  0  0  0  0  0  0  0  0  0  0
   57.1091   32.1584   42.8386 H   0  0  0  0  0  0  0  0  0  0  0  0
   55.3187   30.4948   43.3474 H   0  0  0  0  0  0  0  0  0  0  0  0
   57.8859   28.6202   46.2822 H   0  0  0  0  0  0  0  0  0  0  0  0
  1  2  1  0
  2  3  1  0
  3  4  2  0
  4  5  1  0
  5  6  1  0
  6  7  3  0
  5  8  2  0
  8  9  1  0
  9 10  2  0
 10 11  1  0
 11 12  1  0
 12 13  1  0
 13 14  1  0
 14 15  1  0
 14 16  1  0
 14 17  1  0
 11 18  1  0
 18 19  1  0
 19 20  2  0
 20 21  1  0
 21 22  2  0
 22 23  1  0
 23 24  1  0
 23 25  2  0
 10  3  1  0
 25 19  1  0
  1 26  1  0
  1 27  1  0
  1 28  1  0
  4 29  1  0
  8 30  1  0
  9 31  1  0
 12 32  1  0
 12 33  1  0
 13 34  1  0
 13 35  1  0
 18 36  1  0
 18 37  1  0
 20 38  1  0
 21 39  1  0
 22 40  1  0
 25 41  1  0
M  END
>  <UniqueID>  (16) 
16

>  <SMILES>  (16) 
COc1cc(C#N)ccc1N(CCC(F)(F)F)Cc1cccc(F)c1

>  <Energy>  (16) 
37.70704198909205

>  <Genealogy>  (16) 
COc1cc(C#N)ccc1N(CCC(F)(F)F)Cc1cccc(F)c1 (3D coordinates assigned)
COc1cc(C#N)ccc1N(CCC(F)(F)F)Cc1cccc(F)c1 (optimized conformer: 37.70704198909205 kcal/mol)

>  <smiles>  (16) 
COc1cc(C#N)ccc1N(CCC(F)(F)F)Cc1cccc(F)c1

>  <score_type>  (16) 
oracle

>  <origin>  (16) 
adg

>  <m_score__min__energy>  (16) 
-5.8399999999999999

>  <m_primary>  (16) 
energy

$$$$
16:0
     RDKit          3D

 41 41  0  0  0  0  0  0  0  0999 V2000
   60.6010   28.7880   44.8940 C   0  0  0  0  0  0  0  0  0  0  0  0
   59.7900   28.0330   45.9430 C   0  0  0  0  0  0  0  0  0  0  0  0
   59.2630   26.7730   45.3730 N   0  0  0  0  0  0  0  0  0  0  0  0
   59.3310   25.6680   46.3570 C   0  0  0  0  0  0  0  0  0  0  0  0
   58.5300   24.4700   45.8580 C   0  0  0  0  0  0  0  0  0  0  0  0
   57.8850   26.9490   44.8590 C   0  0  0  0  0  0  0  0  0  0  0  0
   57.0300   27.6900   45.8850 C   0  0  0  0  0  0  0  0  0  0  0  0
   55.9350   28.3240   45.2270 O   0  0  0  0  0  0  0  0  0  0  0  0
   56.0410   29.5070   44.4840 C   0  0  0  0  0  0  0  0  0  0  0  0
   55.2080   30.4270   44.6940 O   0  0  0  0  0  0  0  0  0  0  0  0
   57.1470   29.7400   43.4910 C   0  0  0  0  0  0  0  0  0  0  0  0
   57.2130   31.2210   43.1040 C   0  0  0  0  0  0  0  0  0  0  0  0
   57.8350   32.0280   44.2110 C   0  0  0  0  0  0  0  0  0  0  0  0
   57.7550   33.4300   44.1940 C   0  0  0  0  0  0  0  0  0  0  0  0
   58.2990   34.1790   45.2420 C   0  0  0  0  0  0  0  0  0  0  0  0
   58.9200   33.5350   46.3160 C   0  0  0  0  0  0  0  0  0  0  0  0
   59.6610   34.5600   47.7470 Br  0  0  0  0  0  0  0  0  0  0  0  0
   58.9950   32.1390   46.3440 C   0  0  0  0  0  0  0  0  0  0  0  0
   58.4490   31.3860   45.2990 C   0  0  0  0  0  0  0  0  0  0  0  0
   61.3177   29.4553   45.3950 H   0  0  0  0  0  0  0  0  0  0  0  0
   61.1469   28.0691   44.2654 H   0  0  0  0  0  0  0  0  0  0  0  0
   59.9230   29.3839   44.2654 H   0  0  0  0  0  0  0  0  0  0  0  0
   60.4353   27.8007   46.8030 H   0  0  0  0  0  0  0  0  0  0  0  0
   58.9465   28.6614   46.2649 H   0  0  0  0  0  0  0  0  0  0  0  0
   60.3806   25.3705   46.4976 H   0  0  0  0  0  0  0  0  0  0  0  0
   58.9073   26.0109   47.3124 H   0  0  0  0  0  0  0  0  0  0  0  0
   58.1488   23.8999   46.7180 H   0  0  0  0  0  0  0  0  0  0  0  0
   57.6851   24.8222   45.2480 H   0  0  0  0  0  0  0  0  0  0  0  0
   59.1783   23.8238   45.2480 H   0  0  0  0  0  0  0  0  0  0  0  0
   57.9169   27.5297   43.9253 H   0  0  0  0  0  0  0  0  0  0  0  0
   57.4429   25.9594   44.6710 H   0  0  0  0  0  0  0  0  0  0  0  0
   56.6465   26.9744   46.6271 H   0  0  0  0  0  0  0  0  0  0  0  0
   57.6430   28.4511   46.3899 H   0  0  0  0  0  0  0  0  0  0  0  0
   58.1056   29.4392   43.9388 H   0  0  0  0  0  0  0  0  0  0  0  0
   56.9481   29.1435   42.5884 H   0  0  0  0  0  0  0  0  0  0  0  0
   57.8186   31.3302   42.1922 H   0  0  0  0  0  0  0  0  0  0  0  0
   56.1913   31.5882   42.9271 H   0  0  0  0  0  0  0  0  0  0  0  0
   57.2627   33.9407   43.3533 H   0  0  0  0  0  0  0  0  0  0  0  0
   58.2381   35.2771   45.2212 H   0  0  0  0  0  0  0  0  0  0  0  0
   59.4840   31.6321   47.1889 H   0  0  0  0  0  0  0  0  0  0  0  0
   58.5007   30.2876   45.3295 H   0  0  0  0  0  0  0  0  0  0  0  0
  1  2  1  0
  2  3  1  0
  3  4  1  0
  4  5  1  0
  3  6  1  0
  6  7  1  0
  7  8  1  0
  8  9  1  0
  9 10  2  0
  9 11  1  0
 11 12  1  0
 12 13  1  0
 13 14  2  0
 14 15  1  0
 15 16  2  0
 16 17  1  0
 16 18  1  0
 18 19  2  0
 19 13  1  0
  1 20  1  0
  1 21  1  0
  1 22  1  0
  2 23  1  0
  2 24  1  0
  4 25  1  0
  4 26  1  0
  5 27  1  0
  5 28  1  0
  5 29  1  0
  6 30  1  0
  6 31  1  0
  7 32  1  0
  7 33  1  0
 11 34  1  0
 11 35  1  0
 12 36  1  0
 12 37  1  0
 14 38  1  0
 15 39  1  0
 18 40  1  0
 19 41  1  0
M  END
>  <UniqueID>  (17) 
17

>  <SMILES>  (17) 
CCN(CC)CCOC(=O)CCc1ccc(Br)cc1

>  <Energy>  (17) 
29.51822733821713

>  <Genealogy>  (17) 
CCN(CC)CCOC(=O)CCc1ccc(Br)cc1 (3D coordinates assigned)
CCN(CC)CCOC(=O)CCc1ccc(Br)cc1 (optimized conformer: 29.51822733821713 kcal/mol)

>  <smiles>  (17) 
CCN(CC)CCOC(=O)CCc1ccc(Br)cc1

>  <score_type>  (17) 
oracle

>  <origin>  (17) 
adg

>  <m_score__min__energy>  (17) 
-6.5800000000000001

>  <m_primary>  (17) 
energy

$$$$
17:0
     RDKit          3D

 37 38  0  0  0  0  0  0  0  0999 V2000
   60.3210   28.0050   47.6090 C   0  0  0  0  0  0  0  0  0  0  0  0
   59.1600   27.5100   46.7870 C   0  0  0  0  0  0  0  0  0  0  0  0
   59.1250   26.1580   46.4030 C   0  0  0  0  0  0  0  0  0  0  0  0
   58.0770   25.6680   45.6280 C   0  0  0  0  0  0  0  0  0  0  0  0
   57.0420   26.5130   45.2360 C   0  0  0  0  0  0  0  0  0  0  0  0
   57.0420   27.8580   45.6190 C   0  0  0  0  0  0  0  0  0  0  0  0
   55.9200   28.6680   45.2450 N   0  0  0  0  0  0  0  0  0  0  0  0
   55.9030   29.5380   44.1040 C   0  0  0  0  0  0  0  0  0  0  0  0
   54.8130   29.7330   43.5060 O   0  0  0  0  0  0  0  0  0  0  0  0
   57.1480   30.2030   43.5930 C   0  0  0  0  0  0  0  0  0  0  0  0
   57.5090   31.2820   44.4480 O   0  0  0  0  0  0  0  0  0  0  0  0
   57.7440   32.5760   43.9780 C   0  0  0  0  0  0  0  0  0  0  0  0
   58.2670   32.7630   42.8460 O   0  0  0  0  0  0  0  0  0  0  0  0
   57.3810   33.7450   44.8350 C   0  0  0  0  0  0  0  0  0  0  0  0
   58.3500   33.8740   45.9710 C   0  0  0  0  0  0  0  0  0  0  0  0
   58.1660   33.2480   47.2150 C   0  0  0  0  0  0  0  0  0  0  0  0
   59.1620   33.5430   48.1350 C   0  0  0  0  0  0  0  0  0  0  0  0
   60.2570   34.5860   47.4030 S   0  0  0  0  0  0  0  0  0  0  0  0
   59.4860   34.6750   45.9130 C   0  0  0  0  0  0  0  0  0  0  0  0
   58.1240   28.3840   46.3660 C   0  0  0  0  0  0  0  0  0  0  0  0
   58.1800   29.8530   46.7180 C   0  0  0  0  0  0  0  0  0  0  0  0
   60.0830   27.9035   48.6781 H   0  0  0  0  0  0  0  0  0  0  0  0
   61.2162   27.4103   47.3746 H   0  0  0  0  0  0  0  0  0  0  0  0
   60.5117   29.0627   47.3746 H   0  0  0  0  0  0  0  0  0  0  0  0
   59.9329   25.4810   46.7177 H   0  0  0  0  0  0  0  0  0  0  0  0
   58.0667   24.6107   45.3247 H   0  0  0  0  0  0  0  0  0  0  0  0
   56.2190   26.1200   44.6210 H   0  0  0  0  0  0  0  0  0  0  0  0
   57.9676   29.4699   43.5656 H   0  0  0  0  0  0  0  0  0  0  0  0
   56.9609   30.5911   42.5809 H   0  0  0  0  0  0  0  0  0  0  0  0
   57.4076   34.6624   44.2286 H   0  0  0  0  0  0  0  0  0  0  0  0
   56.3700   33.5926   45.2408 H   0  0  0  0  0  0  0  0  0  0  0  0
   57.3148   32.5879   47.4382 H   0  0  0  0  0  0  0  0  0  0  0  0
   59.2239   33.1605   49.1645 H   0  0  0  0  0  0  0  0  0  0  0  0
   59.8202   35.2626   45.0452 H   0  0  0  0  0  0  0  0  0  0  0  0
   58.1844   29.9680   47.8120 H   0  0  0  0  0  0  0  0  0  0  0  0
   59.0957   30.2958   46.2991 H   0  0  0  0  0  0  0  0  0  0  0  0
   57.3007   30.3642   46.2991 H   0  0  0  0  0  0  0  0  0  0  0  0
  1  2  1  0
  2  3  2  0
  3  4  1  0
  4  5  2  0
  5  6  1  0
  6  7  1  0
  7  8  1  0
  8  9  2  0
  8 10  1  0
 10 11  1  0
 11 12  1  0
 12 13  2  0
 12 14  1  0
 14 15  1  0
 15 16  1  0
 16 17  2  0
 17 18  1  0
 18 19  1  0
  6 20  2  0
 20 21  1  0
 20  2  1  0
 19 15  2  0
  1 22  1  0
  1 23  1  0
  1 24  1  0
  3 25  1  0
  4 26  1  0
  5 27  1  0
 10 28  1  0
 10 29  1  0
 14 30  1  0
 14 31  1  0
 16 32  1  0
 17 33  1  0
 19 34  1  0
 21 35  1  0
 21 36  1  0
 21 37  1  0
M  CHG  1   7  -1
M  END
>  <UniqueID>  (18) 
18

>  <SMILES>  (18) 
Cc1cccc([N-]C(=O)COC(=O)Cc2ccsc2)c1C

>  <Energy>  (18) 
63.913712843311274

>  <Genealogy>  (18) 
Cc1cccc([N-]C(=O)COC(=O)Cc2ccsc2)c1C (protonated)
Cc1cccc([N-]C(=O)COC(=O)Cc2ccsc2)c1C (3D coordinates assigned)
Cc1cccc([N-]C(=O)COC(=O)Cc2ccsc2)c1C (optimized conformer: 63.913712843311274 kcal/mol)

>  <smiles>  (18) 
Cc1cccc(NC(=O)COC(=O)Cc2ccsc2)c1C

>  <score_type>  (18) 
oracle

>  <origin>  (18) 
adg

>  <m_score__min__energy>  (18) 
-9.1500000000000004

>  <m_primary>  (18) 
energy

$$$$
18:0
     RDKit          3D

 31 32  0  0  0  0  0  0  0  0999 V2000
   56.2660   29.7280   42.8080 C   0  0  0  0  0  0  0  0  0  0  0  0
   56.6710   28.9930   44.0020 N   0  0  0  0  0  0  0  0  0  0  0  0
   57.4980   29.5480   45.0380 C   0  0  0  0  0  0  0  0  0  0  0  0
   57.7500   30.9270   45.1290 C   0  0  0  0  0  0  0  0  0  0  0  0
   58.5670   31.4200   46.1550 C   0  0  0  0  0  0  0  0  0  0  0  0
   58.8330   32.8290   46.2500 N   0  0  0  0  0  0  0  0  0  0  0  0
   58.9570   33.6990   45.0930 C   0  0  0  0  0  0  0  0  0  0  0  0
   59.4900   35.0220   45.6330 C   0  0  0  0  0  0  0  0  0  0  0  0
   59.2810   34.9760   47.1450 C   0  0  0  0  0  0  0  0  0  0  0  0
   59.1210   33.5040   47.5030 C   0  0  0  0  0  0  0  0  0  0  0  0
   59.1190   30.5240   47.0830 C   0  0  0  0  0  0  0  0  0  0  0  0
   59.8760   30.9830   48.1130 F   0  0  0  0  0  0  0  0  0  0  0  0
   58.8500   29.1520   46.9650 C   0  0  0  0  0  0  0  0  0  0  0  0
   59.4200   28.1700   47.9490 C   0  0  0  0  0  0  0  0  0  0  0  0
   60.7670   27.9860   47.7000 F   0  0  0  0  0  0  0  0  0  0  0  0
   59.2540   28.6520   49.2350 F   0  0  0  0  0  0  0  0  0  0  0  0
   58.7770   26.9490   47.8450 F   0  0  0  0  0  0  0  0  0  0  0  0
   58.0530   28.7090   45.9540 N   0  0  0  0  0  0  0  0  0  0  0  0
   55.7548   30.6558   43.1044 H   0  0  0  0  0  0  0  0  0  0  0  0
   57.1556   29.9745   42.2098 H   0  0  0  0  0  0  0  0  0  0  0  0
   55.5824   29.1076   42.2098 H   0  0  0  0  0  0  0  0  0  0  0  0
   56.3370   28.0090   44.1090 H   0  0  0  0  0  0  0  0  0  0  0  0
   57.3071   31.6180   44.3967 H   0  0  0  0  0  0  0  0  0  0  0  0
   59.6599   33.2705   44.3634 H   0  0  0  0  0  0  0  0  0  0  0  0
   57.9955   33.8277   44.5744 H   0  0  0  0  0  0  0  0  0  0  0  0
   60.5595   35.1272   45.3983 H   0  0  0  0  0  0  0  0  0  0  0  0
   58.9703   35.8796   45.1809 H   0  0  0  0  0  0  0  0  0  0  0  0
   60.1517   35.4030   47.6642 H   0  0  0  0  0  0  0  0  0  0  0  0
   58.4006   35.5619   47.4477 H   0  0  0  0  0  0  0  0  0  0  0  0
   60.0489   33.1130   47.9458 H   0  0  0  0  0  0  0  0  0  0  0  0
   58.3223   33.3486   48.2432 H   0  0  0  0  0  0  0  0  0  0  0  0
  1  2  1  0
  2  3  1  0
  3  4  2  0
  4  5  1  0
  5  6  1  0
  6  7  1  0
  7  8  1  0
  8  9  1  0
  9 10  1  0
  5 11  2  0
 11 12  1  0
 11 13  1  0
 13 14  1  0
 14 15  1  0
 14 16  1  0
 14 17  1  0
 13 18  2  0
 18  3  1  0
 10  6  1  0
  1 19  1  0
  1 20  1  0
  1 21  1  0
  2 22  1  0
  4 23  1  0
  7 24  1  0
  7 25  1  0
  8 26  1  0
  8 27  1  0
  9 28  1  0
  9 29  1  0
 10 30  1  0
 10 31  1  0
M  END
>  <UniqueID>  (19) 
19

>  <SMILES>  (19) 
CNc1cc(N2CCCC2)c(F)c(C(F)(F)F)n1

>  <Energy>  (19) 
33.612830312279094

>  <Genealogy>  (19) 
CNc1cc(N2CCCC2)c(F)c(C(F)(F)F)n1 (3D coordinates assigned)
CNc1cc(N2CCCC2)c(F)c(C(F)(F)F)n1 (nonaromatic ring conformer: 33.612830312279094 kcal/mol)

>  <smiles>  (19) 
CNc1cc(N2CCCC2)c(F)c(C(F)(F)F)n1

>  <score_type>  (19) 
oracle

>  <origin>  (19) 
adg

>  <m_score__min__energy>  (19) 
-4.9199999999999999

>  <m_primary>  (19) 
energy

$$$$
19:0
     RDKit          3D

 61 65  0  0  0  0  0  0  0  0999 V2000
   57.8820   31.7510   44.7160 C   0  0  0  0  0  0  0  0  0  0  0  0
   58.3750   33.1940   44.6470 C   0  0  0  0  0  0  0  0  0  0  0  0
   58.2330   33.8600   45.9600 N   0  0  0  0  0  0  0  0  0  0  0  0
   57.7790   32.9280   47.0090 C   0  0  0  0  0  0  0  0  0  0  0  0
   59.4490   34.6040   46.3580 C   0  0  0  0  0  0  0  0  0  0  0  0
   60.0110   34.2040   47.7330 C   0  0  0  0  0  0  0  0  0  0  0  0
   61.3940   34.4880   47.7580 O   0  0  0  0  0  0  0  0  0  0  0  0
   62.0500   33.8760   46.6630 C   0  0  0  0  0  0  0  0  0  0  0  0
   63.2350   33.0480   47.1530 C   0  0  0  0  0  0  0  0  0  0  0  0
   62.8030   32.1760   48.1940 O   0  0  0  0  0  0  0  0  0  0  0  0
   61.7340   31.2640   48.1310 C   0  0  0  0  0  0  0  0  0  0  0  0
   61.5140   30.6460   46.8920 C   0  0  0  0  0  0  0  0  0  0  0  0
   60.4730   29.7300   46.7150 C   0  0  0  0  0  0  0  0  0  0  0  0
   60.2700   29.1230   45.5020 N   0  0  0  0  0  0  0  0  0  0  0  0
   59.2390   28.2530   45.3710 C   0  0  0  0  0  0  0  0  0  0  0  0
   58.4140   27.9730   46.4390 C   0  0  0  0  0  0  0  0  0  0  0  0
   58.6040   28.5230   47.6600 N   0  0  0  0  0  0  0  0  0  0  0  0
   59.6220   29.4200   47.8150 C   0  0  0  0  0  0  0  0  0  0  0  0
   59.8390   30.0240   49.0530 C   0  0  0  0  0  0  0  0  0  0  0  0
   60.8910   30.9490   49.2310 C   0  0  0  0  0  0  0  0  0  0  0  0
   61.1120   31.5530   50.4790 O   0  0  0  0  0  0  0  0  0  0  0  0
   61.2690   32.9520   50.6930 C   0  0  0  0  0  0  0  0  0  0  0  0
   57.5040   26.9500   46.0030 C   0  0  0  0  0  0  0  0  0  0  0  0
   56.7300   25.9900   46.6380 C   0  0  0  0  0  0  0  0  0  0  0  0
   56.5210   25.0390   45.6400 C   0  0  0  0  0  0  0  0  0  0  0  0
   55.9010   23.7930   45.7030 C   0  0  0  0  0  0  0  0  0  0  0  0
   55.9590   22.9710   44.5630 C   0  0  0  0  0  0  0  0  0  0  0  0
   56.6520   23.3930   43.4040 C   0  0  0  0  0  0  0  0  0  0  0  0
   57.2910   24.6450   43.3710 C   0  0  0  0  0  0  0  0  0  0  0  0
   57.1860   25.4520   44.5010 C   0  0  0  0  0  0  0  0  0  0  0  0
   57.7580   26.6400   44.7320 N   0  0  0  0  0  0  0  0  0  0  0  0
   58.8880   27.3880   44.1820 C   0  0  0  0  0  0  0  0  0  0  0  0
   57.7787   31.4487   45.7686 H   0  0  0  0  0  0  0  0  0  0  0  0
   56.9061   31.6726   44.2146 H   0  0  0  0  0  0  0  0  0  0  0  0
   58.6059   31.0918   44.2146 H   0  0  0  0  0  0  0  0  0  0  0  0
   59.4348   33.1995   44.3524 H   0  0  0  0  0  0  0  0  0  0  0  0
   57.7697   33.7388   43.9076 H   0  0  0  0  0  0  0  0  0  0  0  0
   57.9892   33.3594   47.9988 H   0  0  0  0  0  0  0  0  0  0  0  0
   56.6972   32.7580   46.9053 H   0  0  0  0  0  0  0  0  0  0  0  0
   58.3120   31.9714   46.9053 H   0  0  0  0  0  0  0  0  0  0  0  0
   60.2269   34.4235   45.6015 H   0  0  0  0  0  0  0  0  0  0  0  0
   59.1621   35.6635   46.4298 H   0  0  0  0  0  0  0  0  0  0  0  0
   59.5014   34.7768   48.5218 H   0  0  0  0  0  0  0  0  0  0  0  0
   59.8461   33.1304   47.9069 H   0  0  0  0  0  0  0  0  0  0  0  0
   61.3417   33.2199   46.1359 H   0  0  0  0  0  0  0  0  0  0  0  0
   62.4164   34.6582   45.9818 H   0  0  0  0  0  0  0  0  0  0  0  0
   63.6375   32.4537   46.3195 H   0  0  0  0  0  0  0  0  0  0  0  0
   64.0190   33.7180   47.5357 H   0  0  0  0  0  0  0  0  0  0  0  0
   62.1723   30.8862   46.0441 H   0  0  0  0  0  0  0  0  0  0  0  0
   60.8980   29.3120   44.6890 H   0  0  0  0  0  0  0  0  0  0  0  0
   59.1831   29.7770   49.9008 H   0  0  0  0  0  0  0  0  0  0  0  0
   61.2920   33.1573   51.7734 H   0  0  0  0  0  0  0  0  0  0  0  0
   62.2107   33.2895   50.2354 H   0  0  0  0  0  0  0  0  0  0  0  0
   60.4256   33.4899   50.2354 H   0  0  0  0  0  0  0  0  0  0  0  0
   56.3687   25.9811   47.6769 H   0  0  0  0  0  0  0  0  0  0  0  0
   55.3826   23.4625   46.6152 H   0  0  0  0  0  0  0  0  0  0  0  0
   55.4606   21.9904   44.5727 H   0  0  0  0  0  0  0  0  0  0  0  0
   56.6912   22.7367   42.5221 H   0  0  0  0  0  0  0  0  0  0  0  0
   57.8533   24.9750   42.4850 H   0  0  0  0  0  0  0  0  0  0  0  0
   59.7188   26.7238   43.9018 H   0  0  0  0  0  0  0  0  0  0  0  0
   58.6691   27.9414   43.2569 H   0  0  0  0  0  0  0  0  0  0  0  0
  1  2  1  0
  2  3  1  0
  3  4  1  0
  3  5  1  0
  5  6  1  0
  6  7  1  0
  7  8  1  0
  8  9  1  0
  9 10  1  0
 10 11  1  0
 11 12  2  0
 12 13  1  0
 13 14  2  0
 14 15  1  0
 15 16  2  0
 16 17  1  0
 17 18  2  0
 18 19  1  0
 19 20  2  0
 20 21  1  0
 21 22  1  0
 16 23  1  0
 23 24  2  0
 24 25  1  0
 25 26  2  0
 26 27  1  0
 27 28  2  0
 28 29  1  0
 29 30  2  0
 30 31  1  0
 31 32  1  0
 20 11  1  0
 31 23  1  0
 18 13  1  0
 30 25  1  0
 32 15  1  0
  1 33  1  0
  1 34  1  0
  1 35  1  0
  2 36  1  0
  2 37  1  0
  4 38  1  0
  4 39  1  0
  4 40  1  0
  5 41  1  0
  5 42  1  0
  6 43  1  0
  6 44  1  0
  8 45  1  0
  8 46  1  0
  9 47  1  0
  9 48  1  0
 12 49  1  0
 14 50  1  0
 19 51  1  0
 22 52  1  0
 22 53  1  0
 22 54  1  0
 24 55  1  0
 26 56  1  0
 27 57  1  0
 28 58  1  0
 29 59  1  0
 32 60  1  0
 32 61  1  0
M  CHG  1  14   1
M  END
>  <UniqueID>  (20) 
20

>  <SMILES>  (20) 
CCN(C)CCOCCOc1cc2[nH+]c3c(nc2cc1OC)-c1cc2ccccc2n1C3

>  <Energy>  (20) 
148.24358577324915

>  <Genealogy>  (20) 
CCN(C)CCOCCOc1cc2[nH+]c3c(nc2cc1OC)-c1cc2ccccc2n1C3 (protonated)
CCN(C)CCOCCOc1cc2[nH+]c3c(nc2cc1OC)-c1cc2ccccc2n1C3 (3D coordinates assigned)
CCN(C)CCOCCOc1cc2[nH+]c3c(nc2cc1OC)-c1cc2ccccc2n1C3 (nonaromatic ring conformer: 148.24358577324915 kcal/mol)

>  <smiles>  (20) 
CCN(C)CCOCCOc1cc2nc3c(nc2cc1OC)-c1cc2ccccc2n1C3

>  <score_type>  (20) 
oracle

>  <origin>  (20) 
adg

>  <m_score__min__energy>  (20) 
-5.71

>  <m_primary>  (20) 
energy

$$$$
20:0
     RDKit          3D

 31 32  0  0  0  0  0  0  0  0999 V2000
   57.8890   27.9220   43.8410 C   0  0  0  0  0  0  0  0  0  0  0  0
   57.1860   27.8470   45.1930 C   0  0  0  0  0  0  0  0  0  0  0  0
   56.1130   28.7830   45.2550 O   0  0  0  0  0  0  0  0  0  0  0  0
   55.8250   29.6990   44.2340 C   0  0  0  0  0  0  0  0  0  0  0  0
   54.8020   29.5440   43.5140 O   0  0  0  0  0  0  0  0  0  0  0  0
   56.7210   30.8550   44.0060 C   0  0  0  0  0  0  0  0  0  0  0  0
   57.0290   31.2570   42.6990 C   0  0  0  0  0  0  0  0  0  0  0  0
   57.8720   32.3470   42.4950 C   0  0  0  0  0  0  0  0  0  0  0  0
   58.4030   33.0300   43.5870 C   0  0  0  0  0  0  0  0  0  0  0  0
   58.0840   32.6140   44.8900 C   0  0  0  0  0  0  0  0  0  0  0  0
   58.6330   33.3220   46.0730 C   0  0  0  0  0  0  0  0  0  0  0  0
   59.2940   34.5430   46.0880 C   0  0  0  0  0  0  0  0  0  0  0  0
   59.6090   34.7540   47.4130 C   0  0  0  0  0  0  0  0  0  0  0  0
   59.1420   33.7150   48.1290 N   0  0  0  0  0  0  0  0  0  0  0  0
   59.3250   33.5150   49.5600 C   0  0  0  0  0  0  0  0  0  0  0  0
   58.5630   32.8350   47.3300 N   0  0  0  0  0  0  0  0  0  0  0  0
   57.2530   31.5400   45.0640 N   0  0  0  0  0  0  0  0  0  0  0  0
   58.9718   28.0375   43.9967 H   0  0  0  0  0  0  0  0  0  0  0  0
   57.6963   26.9982   43.2758 H   0  0  0  0  0  0  0  0  0  0  0  0
   57.5058   28.7844   43.2758 H   0  0  0  0  0  0  0  0  0  0  0  0
   56.7883   26.8316   45.3375 H   0  0  0  0  0  0  0  0  0  0  0  0
   57.9121   28.0883   45.9833 H   0  0  0  0  0  0  0  0  0  0  0  0
   56.6075   30.7150   41.8396 H   0  0  0  0  0  0  0  0  0  0  0  0
   58.1183   32.6683   41.4722 H   0  0  0  0  0  0  0  0  0  0  0  0
   59.0690   33.8911   43.4294 H   0  0  0  0  0  0  0  0  0  0  0  0
   59.5168   35.1969   45.2320 H   0  0  0  0  0  0  0  0  0  0  0  0
   60.1496   35.6230   47.8161 H   0  0  0  0  0  0  0  0  0  0  0  0
   58.6832   34.2164   50.1133 H   0  0  0  0  0  0  0  0  0  0  0  0
   59.0524   32.4825   49.8237 H   0  0  0  0  0  0  0  0  0  0  0  0
   60.3776   33.6951   49.8237 H   0  0  0  0  0  0  0  0  0  0  0  0
   57.0190   31.2350   46.0350 H   0  0  0  0  0  0  0  0  0  0  0  0
  1  2  1  0
  2  3  1  0
  3  4  1  0
  4  5  2  0
  4  6  1  0
  6  7  2  0
  7  8  1  0
  8  9  2  0
  9 10  1  0
 10 11  1  0
 11 12  1  0
 12 13  2  0
 13 14  1  0
 14 15  1  0
 14 16  1  0
 10 17  2  0
 17  6  1  0
 16 11  2  0
  1 18  1  0
  1 19  1  0
  1 20  1  0
  2 21  1  0
  2 22  1  0
  7 23  1  0
  8 24  1  0
  9 25  1  0
 12 26  1  0
 13 27  1  0
 15 28  1  0
 15 29  1  0
 15 30  1  0
 17 31  1  0
M  CHG  1  17   1
M  END
>  <UniqueID>  (21) 
21

>  <SMILES>  (21) 
CCOC(=O)c1cccc(-c2ccn(C)n2)[nH+]1

>  <Energy>  (21) 
57.267864020476836

>  <Genealogy>  (21) 
CCOC(=O)c1cccc(-c2ccn(C)n2)[nH+]1 (protonated)
CCOC(=O)c1cccc(-c2ccn(C)n2)[nH+]1 (3D coordinates assigned)
CCOC(=O)c1cccc(-c2ccn(C)n2)[nH+]1 (optimized conformer: 57.267864020476836 kcal/mol)

>  <smiles>  (21) 
CCOC(=O)c1cccc(-c2ccn(C)n2)n1

>  <score_type>  (21) 
oracle

>  <origin>  (21) 
adg

>  <m_score__min__energy>  (21) 
-4.7400000000000002

>  <m_primary>  (21) 
energy

$$$$
21:0
     RDKit          3D

 47 50  0  0  1  0  0  0  0  0999 V2000
   57.8080   31.9990   42.4490 C   0  0  0  0  0  0  0  0  0  0  0  0
   57.2000   30.8340   43.2020 C   0  0  0  0  0  0  0  0  0  0  0  0
   56.6250   31.3220   44.4550 N   0  0  0  0  0  0  0  0  0  0  0  0
   57.3120   32.1020   45.2490 C   0  0  0  0  0  0  0  0  0  0  0  0
   57.4780   33.3870   45.3200 N   0  0  0  0  0  0  0  0  0  0  0  0
   58.2580   33.8070   46.2730 N   0  0  0  0  0  0  0  0  0  0  0  0
   58.8280   33.2220   47.0680 C   0  0  0  0  0  0  0  0  0  0  0  0
   59.7590   33.3870   48.2440 C   0  0  0  0  0  0  0  0  0  0  0  0
   59.2870   33.3520   49.4980 N   0  0  0  0  0  0  0  0  0  0  0  0
   60.0800   33.4930   50.5750 C   0  0  0  0  0  0  0  0  0  0  0  0
   59.5450   33.4520   51.8950 N   0  0  0  0  0  0  0  0  0  0  0  0
   59.9650   34.2150   52.9030 N   0  0  0  0  0  0  0  0  0  0  0  0
   59.2520   33.9190   53.9870 C   0  0  0  0  0  0  0  0  0  0  0  0
   59.3280   34.4880   55.3690 C   0  0  0  0  0  0  0  0  0  0  0  0
   58.3480   32.9330   53.6540 C   0  0  0  0  0  0  0  0  0  0  0  0
   58.5520   32.6450   52.3030 C   0  0  0  0  0  0  0  0  0  0  0  0
   57.8560   31.6680   51.4440 C   0  0  0  0  0  0  0  0  0  0  0  0
   61.4290   33.6800   50.3310 C   0  0  0  0  0  0  0  0  0  0  0  0
   61.9430   33.7200   49.0400 C   0  0  0  0  0  0  0  0  0  0  0  0
   61.0930   33.5710   47.9730 C   0  0  0  0  0  0  0  0  0  0  0  0
   61.5120   33.5940   46.5580 C   0  0  0  0  0  0  0  0  0  0  0  0
   62.9780   33.8470   46.3610 C   0  0  0  0  0  0  0  0  0  0  0  0
   63.7690   33.2150   47.5020 C   0  0  0  0  0  0  0  0  0  0  0  0
   63.3880   33.9200   48.7600 C   0  0  0  0  0  0  0  0  0  0  0  0
   58.3270   31.4450   46.6240 S   0  0  0  0  0  0  0  0  0  0  0  0
   58.1937   32.7381   43.1665 H   0  0  0  0  0  0  0  0  0  0  0  0
   58.6321   31.6369   41.8168 H   0  0  0  0  0  0  0  0  0  0  0  0
   57.0397   32.4680   41.8168 H   0  0  0  0  0  0  0  0  0  0  0  0
   56.4114   30.3713   42.5904 H   0  0  0  0  0  0  0  0  0  0  0  0
   57.9771   30.0858   43.4174 H   0  0  0  0  0  0  0  0  0  0  0  0
   57.0120   34.0780   44.6450 H   0  0  0  0  0  0  0  0  0  0  0  0
   59.2198   33.6781   56.1054 H   0  0  0  0  0  0  0  0  0  0  0  0
   60.3003   34.9832   55.5087 H   0  0  0  0  0  0  0  0  0  0  0  0
   58.5198   35.2210   55.5087 H   0  0  0  0  0  0  0  0  0  0  0  0
   57.6102   32.4646   54.3220 H   0  0  0  0  0  0  0  0  0  0  0  0
   57.3327   30.9334   52.0737 H   0  0  0  0  0  0  0  0  0  0  0  0
   57.1267   32.1922   50.8089 H   0  0  0  0  0  0  0  0  0  0  0  0
   58.5897   31.1500   50.8089 H   0  0  0  0  0  0  0  0  0  0  0  0
   62.1144   33.8005   51.1829 H   0  0  0  0  0  0  0  0  0  0  0  0
   61.2651   32.6211   46.1080 H   0  0  0  0  0  0  0  0  0  0  0  0
   60.9774   34.4285   46.0807 H   0  0  0  0  0  0  0  0  0  0  0  0
   63.2995   33.4064   45.4058 H   0  0  0  0  0  0  0  0  0  0  0  0
   63.1611   34.9316   46.3490 H   0  0  0  0  0  0  0  0  0  0  0  0
   63.5228   32.1459   47.5819 H   0  0  0  0  0  0  0  0  0  0  0  0
   64.8499   33.3070   47.3199 H   0  0  0  0  0  0  0  0  0  0  0  0
   63.9795   33.5180   49.5957 H   0  0  0  0  0  0  0  0  0  0  0  0
   63.5866   34.9957   48.6440 H   0  0  0  0  0  0  0  0  0  0  0  0
  1  2  1  0
  2  3  1  0
  3  4  2  0
  4  5  1  0
  5  6  1  0
  6  7  2  0
  7  8  1  0
  8  9  2  0
  9 10  1  0
 10 11  1  0
 11 12  1  0
 12 13  2  0
 13 14  1  0
 13 15  1  0
 15 16  2  0
 16 17  1  0
 10 18  2  0
 18 19  1  0
 19 20  2  0
 20 21  1  0
 21 22  1  0
 22 23  1  0
 23 24  1  0
  7 25  1  0
 25  4  1  0
 20  8  1  0
 16 11  1  0
 24 19  1  0
  1 26  1  0
  1 27  1  0
  1 28  1  0
  2 29  1  0
  2 30  1  0
  5 31  1  0
 14 32  1  0
 14 33  1  0
 14 34  1  0
 15 35  1  0
 17 36  1  0
 17 37  1  0
 17 38  1  0
 18 39  1  0
 21 40  1  0
 21 41  1  0
 22 42  1  0
 22 43  1  0
 23 44  1  0
 23 45  1  0
 24 46  1  0
 24 47  1  0
M  END
>  <smiles>  (22) 
CCN=c1[nH]nc(-c2nc(-n3nc(C)cc3C)cc3c2CCCC3)s1

>  <score_type>  (22) 
oracle

>  <origin>  (22) 
adg

>  <m_score__min__energy>  (22) 
-8.0999999999999996

>  <m_primary>  (22) 
energy

$$$$
22:0
     RDKit          3D

 40 42  0  0  0  0  0  0  0  0999 V2000
   57.4150   28.4680   43.7010 C   0  0  0  0  0  0  0  0  0  0  0  0
   56.7270   29.5680   44.4540 C   0  0  0  0  0  0  0  0  0  0  0  0
   55.5400   29.3810   44.8350 O   0  0  0  0  0  0  0  0  0  0  0  0
   57.4070   30.8560   44.7590 C   0  0  0  0  0  0  0  0  0  0  0  0
   58.0650   31.0320   45.9910 C   0  0  0  0  0  0  0  0  0  0  0  0
   58.7070   32.2350   46.2900 C   0  0  0  0  0  0  0  0  0  0  0  0
   58.7100   33.2900   45.3720 C   0  0  0  0  0  0  0  0  0  0  0  0
   59.3780   34.4750   45.7220 O   0  0  0  0  0  0  0  0  0  0  0  0
   59.6650   34.8910   47.0600 C   0  0  0  0  0  0  0  0  0  0  0  0
   60.9130   34.2160   47.6090 C   0  0  0  0  0  0  0  0  0  0  0  0
   61.9330   33.8870   46.7150 C   0  0  0  0  0  0  0  0  0  0  0  0
   63.1160   33.3470   47.1910 C   0  0  0  0  0  0  0  0  0  0  0  0
   64.0220   33.0530   46.3630 O   0  0  0  0  0  0  0  0  0  0  0  0
   63.2980   33.1610   48.5360 N   0  0  0  0  0  0  0  0  0  0  0  0
   64.5030   32.6910   48.9990 C   0  0  0  0  0  0  0  0  0  0  0  0
   64.7350   32.5290   50.3620 C   0  0  0  0  0  0  0  0  0  0  0  0
   63.7390   32.8580   51.2680 C   0  0  0  0  0  0  0  0  0  0  0  0
   62.5130   33.3250   50.8090 C   0  0  0  0  0  0  0  0  0  0  0  0
   62.2720   33.4560   49.4180 C   0  0  0  0  0  0  0  0  0  0  0  0
   61.0450   33.8860   48.9400 N   0  0  0  0  0  0  0  0  0  0  0  0
   59.8810   33.9910   49.8450 C   0  0  0  0  0  0  0  0  0  0  0  0
   58.0500   33.1250   44.1400 C   0  0  0  0  0  0  0  0  0  0  0  0
   57.4070   31.9210   43.8370 C   0  0  0  0  0  0  0  0  0  0  0  0
   57.8592   27.7578   44.4139 H   0  0  0  0  0  0  0  0  0  0  0  0
   56.6837   27.9435   43.0685 H   0  0  0  0  0  0  0  0  0  0  0  0
   58.2066   28.8961   43.0685 H   0  0  0  0  0  0  0  0  0  0  0  0
   58.0734   30.2132   46.7256 H   0  0  0  0  0  0  0  0  0  0  0  0
   59.2159   32.3544   47.2579 H   0  0  0  0  0  0  0  0  0  0  0  0
   59.8169   35.9804   47.0688 H   0  0  0  0  0  0  0  0  0  0  0  0
   58.8146   34.6039   47.6959 H   0  0  0  0  0  0  0  0  0  0  0  0
   61.7977   34.0560   45.6365 H   0  0  0  0  0  0  0  0  0  0  0  0
   65.2973   32.4386   48.2811 H   0  0  0  0  0  0  0  0  0  0  0  0
   65.7017   32.1427   50.7174 H   0  0  0  0  0  0  0  0  0  0  0  0
   63.9184   32.7498   52.3479 H   0  0  0  0  0  0  0  0  0  0  0  0
   61.7258   33.5943   51.5285 H   0  0  0  0  0  0  0  0  0  0  0  0
   60.2247   33.9600   50.8895 H   0  0  0  0  0  0  0  0  0  0  0  0
   59.3568   34.9401   49.6595 H   0  0  0  0  0  0  0  0  0  0  0  0
   59.1954   33.1511   49.6595 H   0  0  0  0  0  0  0  0  0  0  0  0
   58.0399   33.9485   43.4108 H   0  0  0  0  0  0  0  0  0  0  0  0
   56.8964   31.8043   42.8697 H   0  0  0  0  0  0  0  0  0  0  0  0
  1  2  1  0
  2  3  2  0
  2  4  1  0
  4  5  2  0
  5  6  1  0
  6  7  2  0
  7  8  1  0
  8  9  1  0
  9 10  1  0
 10 11  2  0
 11 12  1  0
 12 13  2  0
 12 14  1  0
 14 15  1  0
 15 16  2  0
 16 17  1  0
 17 18  2  0
 18 19  1  0
 19 20  2  0
 20 21  1  0
  7 22  1  0
 22 23  2  0
 23  4  1  0
 20 10  1  0
 19 14  1  0
  1 24  1  0
  1 25  1  0
  1 26  1  0
  5 27  1  0
  6 28  1  0
  9 29  1  0
  9 30  1  0
 11 31  1  0
 15 32  1  0
 16 33  1  0
 17 34  1  0
 18 35  1  0
 21 36  1  0
 21 37  1  0
 21 38  1  0
 22 39  1  0
 23 40  1  0
M  CHG  1  20   1
M  END
>  <UniqueID>  (23) 
22

>  <SMILES>  (23) 
CC(=O)c1ccc(OCc2cc(=O)n3ccccc3[n+]2C)cc1

>  <Energy>  (23) 
59.043295214474846

>  <Genealogy>  (23) 
CC(=O)c1ccc(OCc2cc(=O)n3ccccc3[n+]2C)cc1 (3D coordinates assigned)
CC(=O)c1ccc(OCc2cc(=O)n3ccccc3[n+]2C)cc1 (optimized conformer: 59.043295214474846 kcal/mol)

>  <smiles>  (23) 
CC(=O)c1ccc(OCc2cc(=O)n3ccccc3[n+]2C)cc1

>  <score_type>  (23) 
oracle

>  <origin>  (23) 
adg

>  <m_score__min__energy>  (23) 
-6.6500000000000004

>  <m_primary>  (23) 
energy

$$$$
23:0
     RDKit          3D

 64 66  0  0  0  0  0  0  0  0999 V2000
   60.3720   27.6740   48.9970 C   0  0  0  0  0  0  0  0  0  0  0  0
   59.9510   29.0290   49.1000 O   0  0  0  0  0  0  0  0  0  0  0  0
   60.8320   30.1000   48.9320 C   0  0  0  0  0  0  0  0  0  0  0  0
   61.4290   30.7500   49.9670 N   0  0  0  0  0  0  0  0  0  0  0  0
   62.1800   31.6760   49.3410 C   0  0  0  0  0  0  0  0  0  0  0  0
   63.0200   32.6230   49.9240 C   0  0  0  0  0  0  0  0  0  0  0  0
   63.7230   33.4910   49.0670 C   0  0  0  0  0  0  0  0  0  0  0  0
   63.5740   33.3900   47.6660 C   0  0  0  0  0  0  0  0  0  0  0  0
   62.7180   32.4220   47.1070 C   0  0  0  0  0  0  0  0  0  0  0  0
   62.0340   31.5810   47.9870 C   0  0  0  0  0  0  0  0  0  0  0  0
   61.1720   30.5860   47.7130 N   0  0  0  0  0  0  0  0  0  0  0  0
   60.7670   30.0730   46.4050 C   0  0  0  0  0  0  0  0  0  0  0  0
   59.4250   30.6750   45.9900 C   0  0  0  0  0  0  0  0  0  0  0  0
   58.3240   30.0320   46.7330 N   0  0  0  0  0  0  0  0  0  0  0  0
   58.0500   28.6510   46.3020 C   0  0  0  0  0  0  0  0  0  0  0  0
   57.2080   28.6290   45.0230 C   0  0  0  0  0  0  0  0  0  0  0  0
   55.9670   29.2740   45.2440 O   0  0  0  0  0  0  0  0  0  0  0  0
   55.6170   30.0860   44.1430 C   0  0  0  0  0  0  0  0  0  0  0  0
   56.6130   29.8590   43.0090 C   0  0  0  0  0  0  0  0  0  0  0  0
   57.4070   31.0170   42.8230 O   0  0  0  0  0  0  0  0  0  0  0  0
   57.3090   31.8740   43.9440 C   0  0  0  0  0  0  0  0  0  0  0  0
   58.2900   33.0430   43.7620 C   0  0  0  0  0  0  0  0  0  0  0  0
   58.3300   33.9800   44.9070 N   0  0  0  0  0  0  0  0  0  0  0  0
   59.6960   34.3180   45.3560 C   0  0  0  0  0  0  0  0  0  0  0  0
   59.6370   35.1900   46.6170 C   0  0  0  0  0  0  0  0  0  0  0  0
   58.9200   34.5280   47.7380 N   0  0  0  0  0  0  0  0  0  0  0  0
   59.8450   34.1260   48.8080 C   0  0  0  0  0  0  0  0  0  0  0  0
   58.0860   33.3770   47.3260 C   0  0  0  0  0  0  0  0  0  0  0  0
   57.3760   33.6550   45.9950 C   0  0  0  0  0  0  0  0  0  0  0  0
   60.5028   27.2531   50.0048 H   0  0  0  0  0  0  0  0  0  0  0  0
   59.6117   27.0941   48.4533 H   0  0  0  0  0  0  0  0  0  0  0  0
   61.3271   27.6271   48.4533 H   0  0  0  0  0  0  0  0  0  0  0  0
   63.1300   32.6900   51.0164 H   0  0  0  0  0  0  0  0  0  0  0  0
   64.3930   34.2532   49.4914 H   0  0  0  0  0  0  0  0  0  0  0  0
   64.1307   34.0725   47.0070 H   0  0  0  0  0  0  0  0  0  0  0  0
   62.5928   32.3317   46.0179 H   0  0  0  0  0  0  0  0  0  0  0  0
   61.5301   30.3393   45.6589 H   0  0  0  0  0  0  0  0  0  0  0  0
   60.6644   28.9795   46.4663 H   0  0  0  0  0  0  0  0  0  0  0  0
   59.4282   31.7533   46.2072 H   0  0  0  0  0  0  0  0  0  0  0  0
   59.2755   30.5081   44.9131 H   0  0  0  0  0  0  0  0  0  0  0  0
   58.5860   30.0030   47.7460 H   0  0  0  0  0  0  0  0  0  0  0  0
   59.0043   28.1378   46.1126 H   0  0  0  0  0  0  0  0  0  0  0  0
   57.4882   28.1415   47.0987 H   0  0  0  0  0  0  0  0  0  0  0  0
   57.7511   29.1508   44.2213 H   0  0  0  0  0  0  0  0  0  0  0  0
   57.0231   27.5842   44.7327 H   0  0  0  0  0  0  0  0  0  0  0  0
   54.6050   29.8239   43.8006 H   0  0  0  0  0  0  0  0  0  0  0  0
   55.6385   31.1436   44.4448 H   0  0  0  0  0  0  0  0  0  0  0  0
   57.2631   29.0079   43.2600 H   0  0  0  0  0  0  0  0  0  0  0  0
   56.0617   29.6462   42.0812 H   0  0  0  0  0  0  0  0  0  0  0  0
   56.2828   32.2618   44.0241 H   0  0  0  0  0  0  0  0  0  0  0  0
   57.5556   31.3189   44.8611 H   0  0  0  0  0  0  0  0  0  0  0  0
   59.2989   32.6287   43.6189 H   0  0  0  0  0  0  0  0  0  0  0  0
   57.9408   33.6186   42.8921 H   0  0  0  0  0  0  0  0  0  0  0  0
   60.2449   33.3914   45.5800 H   0  0  0  0  0  0  0  0  0  0  0  0
   60.2095   34.8742   44.5579 H   0  0  0  0  0  0  0  0  0  0  0  0
   60.6648   35.4130   46.9393 H   0  0  0  0  0  0  0  0  0  0  0  0
   59.0833   36.1058   46.3626 H   0  0  0  0  0  0  0  0  0  0  0  0
   59.3835   34.3266   49.7862 H   0  0  0  0  0  0  0  0  0  0  0  0
   60.0637   33.0516   48.7191 H   0  0  0  0  0  0  0  0  0  0  0  0
   60.7797   34.6991   48.7191 H   0  0  0  0  0  0  0  0  0  0  0  0
   58.7281   32.4912   47.2120 H   0  0  0  0  0  0  0  0  0  0  0  0
   57.3224   33.2056   48.0990 H   0  0  0  0  0  0  0  0  0  0  0  0
   56.8014   32.7623   45.7071 H   0  0  0  0  0  0  0  0  0  0  0  0
   56.7191   34.5256   46.1387 H   0  0  0  0  0  0  0  0  0  0  0  0
  1  2  1  0
  2  3  1  0
  3  4  2  0
  4  5  1  0
  5  6  2  0
  6  7  1  0
  7  8  2  0
  8  9  1  0
  9 10  2  0
 10 11  1  0
 11 12  1  0
 12 13  1  0
 13 14  1  0
 14 15  1  0
 15 16  1  0
 16 17  1  0
 17 18  1  0
 18 19  1  0
 19 20  1  0
 20 21  1  0
 21 22  1  0
 22 23  1  0
 23 24  1  0
 24 25  1  0
 25 26  1  0
 26 27  1  0
 26 28  1  0
 28 29  1  0
 11  3  1  0
 29 23  1  0
 10  5  1  0
  1 30  1  0
  1 31  1  0
  1 32  1  0
  6 33  1  0
  7 34  1  0
  8 35  1  0
  9 36  1  0
 12 37  1  0
 12 38  1  0
 13 39  1  0
 13 40  1  0
 14 41  1  0
 15 42  1  0
 15 43  1  0
 16 44  1  0
 16 45  1  0
 18 46  1  0
 18 47  1  0
 19 48  1  0
 19 49  1  0
 21 50  1  0
 21 51  1  0
 22 52  1  0
 22 53  1  0
 24 54  1  0
 24 55  1  0
 25 56  1  0
 25 57  1  0
 27 58  1  0
 27 59  1  0
 27 60  1  0
 28 61  1  0
 28 62  1  0
 29 63  1  0
 29 64  1  0
M  END
>  <UniqueID>  (24) 
23

>  <SMILES>  (24) 
COc1nc2ccccc2n1CCNCCOCCOCCN1CCN(C)CC1

>  <Energy>  (24) 
110.56927470016879

>  <Genealogy>  (24) 
COc1nc2ccccc2n1CCNCCOCCOCCN1CCN(C)CC1 (3D coordinates assigned)
COc1nc2ccccc2n1CCNCCOCCOCCN1CCN(C)CC1 (nonaromatic ring conformer: 110.56927470016879 kcal/mol)

>  <smiles>  (24) 
COc1nc2ccccc2n1CCNCCOCCOCCN1CCN(C)CC1

>  <score_type>  (24) 
oracle

>  <origin>  (24) 
adg

>  <m_score__min__energy>  (24) 
-7.2300000000000004

>  <m_primary>  (24) 
energy

$$$$
24:0
     RDKit          3D

 36 38  0  0  0  0  0  0  0  0999 V2000
   60.9836   32.8753   45.3448 H   0  0  0  0  0  0  0  0  0  0  0  0
   60.6170   33.1420   46.3470 C   0  0  0  0  0  0  0  0  0  0  0  0
   61.5260   33.4580   47.3600 C   0  0  0  0  0  0  0  0  0  0  0  0
   63.3980   33.4720   46.9890 Br  0  0  0  0  0  0  0  0  0  0  0  0
   61.0630   33.7600   48.6440 C   0  0  0  0  0  0  0  0  0  0  0  0
   61.7817   34.0115   49.4378 H   0  0  0  0  0  0  0  0  0  0  0  0
   59.6920   33.7450   48.9280 C   0  0  0  0  0  0  0  0  0  0  0  0
   59.2800   34.0410   50.2350 O   0  0  0  0  0  0  0  0  0  0  0  0
   59.1920   33.0850   51.2870 C   0  0  0  0  0  0  0  0  0  0  0  0
   59.2396   33.6017   52.2569 H   0  0  0  0  0  0  0  0  0  0  0  0
   58.2399   32.5398   51.2083 H   0  0  0  0  0  0  0  0  0  0  0  0
   60.0286   32.3751   51.2083 H   0  0  0  0  0  0  0  0  0  0  0  0
   58.7800   33.4310   47.9010 C   0  0  0  0  0  0  0  0  0  0  0  0
   57.7024   33.3955   48.1192 H   0  0  0  0  0  0  0  0  0  0  0  0
   59.2360   33.1640   46.6050 C   0  0  0  0  0  0  0  0  0  0  0  0
   58.2910   32.8100   45.5850 N   0  0  0  0  0  0  0  0  0  0  0  0
   57.9500   31.6320   45.1260 C   0  0  0  0  0  0  0  0  0  0  0  0
   57.3070   31.6140   43.8840 C   0  0  0  0  0  0  0  0  0  0  0  0
   57.2686   32.5302   43.2764 H   0  0  0  0  0  0  0  0  0  0  0  0
   56.7160   30.4480   43.4110 C   0  0  0  0  0  0  0  0  0  0  0  0
   56.1953   30.4528   42.4421 H   0  0  0  0  0  0  0  0  0  0  0  0
   56.7780   29.3040   44.1380 N   0  0  0  0  0  0  0  0  0  0  0  0
   56.3040   28.4530   43.7600 H   0  0  0  0  0  0  0  0  0  0  0  0
   57.4810   29.2380   45.3050 C   0  0  0  0  0  0  0  0  0  0  0  0
   57.5920   28.0120   45.9770 C   0  0  0  0  0  0  0  0  0  0  0  0
   57.0433   27.1344   45.6045 H   0  0  0  0  0  0  0  0  0  0  0  0
   58.3910   27.8960   47.1120 C   0  0  0  0  0  0  0  0  0  0  0  0
   58.4514   26.9341   47.6423 H   0  0  0  0  0  0  0  0  0  0  0  0
   59.1180   28.9970   47.5820 C   0  0  0  0  0  0  0  0  0  0  0  0
   60.0730   28.8480   48.7400 C   0  0  0  0  0  0  0  0  0  0  0  0
   59.4140   29.0530   49.9400 F   0  0  0  0  0  0  0  0  0  0  0  0
   60.6280   27.5800   48.7630 F   0  0  0  0  0  0  0  0  0  0  0  0
   61.0880   29.7810   48.6170 F   0  0  0  0  0  0  0  0  0  0  0  0
   59.0310   30.2200   46.8950 C   0  0  0  0  0  0  0  0  0  0  0  0
   59.6696   31.0599   47.2062 H   0  0  0  0  0  0  0  0  0  0  0  0
   58.1390   30.3920   45.8120 C   0  0  0  0  0  0  0  0  0  0  0  0
  1  2  1  0
  2  3  2  0
  3  4  1  0
  3  5  1  0
  5  6  1  0
  5  7  2  0
  7  8  1  0
  8  9  1  0
  9 10  1  0
  9 11  1  0
  9 12  1  0
  7 13  1  0
 13 14  1  0
 13 15  2  0
 15 16  1  0
 16 17  2  0
 17 18  1  0
 18 19  1  0
 18 20  2  0
 20 21  1  0
 20 22  1  0
 22 23  1  0
 22 24  1  0
 24 25  2  0
 25 26  1  0
 25 27  1  0
 27 28  1  0
 27 29  2  0
 29 30  1  0
 30 31  1  0
 30 32  1  0
 30 33  1  0
 29 34  1  0
 34 35  1  0
 34 36  2  0
 15  2  1  0
 36 17  1  0
 36 24  1  0
M  END
>  <UniqueID>  (25) 
24

>  <SMILES>  (25) 
COc1cc(Br)cc(/N=c2/cc[nH]c3ccc(C(F)(F)F)cc23)c1

>  <Energy>  (25) 
60.899984247366945

>  <Genealogy>  (25) 
COc1cc(Br)cc(/N=c2/cc[nH]c3ccc(C(F)(F)F)cc23)c1 (cis-trans isomerization)
COc1cc(Br)cc(/N=c2/cc[nH]c3ccc(C(F)(F)F)cc23)c1 (3D coordinates assigned)
COc1cc(Br)cc(/N=c2/cc[nH]c3ccc(C(F)(F)F)cc23)c1 (optimized conformer: 60.899984247366945 kcal/mol)

>  <smiles>  (25) 
COc1cc(Br)cc(N=c2cc[nH]c3ccc(C(F)(F)F)cc23)c1

>  <score_type>  (25) 
oracle

>  <origin>  (25) 
adg

>  <m_score__min__energy>  (25) 
-6.96

>  <m_primary>  (25) 
energy

$$$$
25:0
     RDKit          3D

 59 61  0  0  0  0  0  0  0  0999 V2000
   57.5200   25.9540   44.9840 C   0  0  0  0  0  0  0  0  0  0  0  0
   56.4600   26.4280   45.9680 C   0  0  0  0  0  0  0  0  0  0  0  0
   55.9860   27.7270   45.6120 O   0  0  0  0  0  0  0  0  0  0  0  0
   56.7790   28.7910   45.1400 C   0  0  0  0  0  0  0  0  0  0  0  0
   56.4960   29.4760   43.9430 C   0  0  0  0  0  0  0  0  0  0  0  0
   57.3260   30.5190   43.5010 C   0  0  0  0  0  0  0  0  0  0  0  0
   56.9900   31.2680   42.2380 C   0  0  0  0  0  0  0  0  0  0  0  0
   58.0510   32.3240   41.9390 C   0  0  0  0  0  0  0  0  0  0  0  0
   58.4410   30.8830   44.2680 C   0  0  0  0  0  0  0  0  0  0  0  0
   58.7300   30.2080   45.4540 C   0  0  0  0  0  0  0  0  0  0  0  0
   57.9040   29.1610   45.8970 C   0  0  0  0  0  0  0  0  0  0  0  0
   58.1560   28.5120   47.1110 O   0  0  0  0  0  0  0  0  0  0  0  0
   59.2130   28.8840   47.9930 C   0  0  0  0  0  0  0  0  0  0  0  0
   58.6380   29.6380   49.1910 C   0  0  0  0  0  0  0  0  0  0  0  0
   59.7320   29.9850   50.1280 N   0  0  0  0  0  0  0  0  0  0  0  0
   59.4000   31.1570   50.9750 C   0  0  0  0  0  0  0  0  0  0  0  0
   59.8470   32.4970   50.3490 C   0  0  0  0  0  0  0  0  0  0  0  0
   59.9860   32.3540   48.8890 N   0  0  0  0  0  0  0  0  0  0  0  0
   60.2090   33.6610   48.2380 C   0  0  0  0  0  0  0  0  0  0  0  0
   59.2790   33.8290   47.0610 C   0  0  0  0  0  0  0  0  0  0  0  0
   59.7340   34.4930   45.9070 C   0  0  0  0  0  0  0  0  0  0  0  0
   58.8880   34.6560   44.8060 C   0  0  0  0  0  0  0  0  0  0  0  0
   57.5790   34.1710   44.8530 C   0  0  0  0  0  0  0  0  0  0  0  0
   57.1150   33.5140   45.9950 C   0  0  0  0  0  0  0  0  0  0  0  0
   57.9590   33.3390   47.0990 C   0  0  0  0  0  0  0  0  0  0  0  0
   57.4820   32.7020   48.1970 F   0  0  0  0  0  0  0  0  0  0  0  0
   61.0850   31.4220   48.5720 C   0  0  0  0  0  0  0  0  0  0  0  0
   61.0350   30.1530   49.4540 C   0  0  0  0  0  0  0  0  0  0  0  0
   58.3874   25.5661   45.5382 H   0  0  0  0  0  0  0  0  0  0  0  0
   57.1027   25.1568   44.3513 H   0  0  0  0  0  0  0  0  0  0  0  0
   57.8360   26.7966   44.3513 H   0  0  0  0  0  0  0  0  0  0  0  0
   55.6172   25.7211   45.9592 H   0  0  0  0  0  0  0  0  0  0  0  0
   56.9063   26.4772   46.9722 H   0  0  0  0  0  0  0  0  0  0  0  0
   55.6158   29.1913   43.3479 H   0  0  0  0  0  0  0  0  0  0  0  0
   56.9407   30.5580   41.3993 H   0  0  0  0  0  0  0  0  0  0  0  0
   56.0198   31.7690   42.3712 H   0  0  0  0  0  0  0  0  0  0  0  0
   58.4498   32.7209   42.8842 H   0  0  0  0  0  0  0  0  0  0  0  0
   58.8674   31.8694   41.3587 H   0  0  0  0  0  0  0  0  0  0  0  0
   57.6003   33.1426   41.3587 H   0  0  0  0  0  0  0  0  0  0  0  0
   59.0912   31.7047   43.9333 H   0  0  0  0  0  0  0  0  0  0  0  0
   59.6105   30.4972   46.0465 H   0  0  0  0  0  0  0  0  0  0  0  0
   59.7324   27.9801   48.3440 H   0  0  0  0  0  0  0  0  0  0  0  0
   59.9235   29.5325   47.4594 H   0  0  0  0  0  0  0  0  0  0  0  0
   58.1472   30.5590   48.8433 H   0  0  0  0  0  0  0  0  0  0  0  0
   57.9025   29.0022   49.7056 H   0  0  0  0  0  0  0  0  0  0  0  0
   58.3105   31.1852   51.1238 H   0  0  0  0  0  0  0  0  0  0  0  0
   59.9401   31.0405   51.9262 H   0  0  0  0  0  0  0  0  0  0  0  0
   59.0954   33.2696   50.5687 H   0  0  0  0  0  0  0  0  0  0  0  0
   60.8185   32.7868   50.7759 H   0  0  0  0  0  0  0  0  0  0  0  0
   60.0217   34.4647   48.9653 H   0  0  0  0  0  0  0  0  0  0  0  0
   61.2483   33.7086   47.8808 H   0  0  0  0  0  0  0  0  0  0  0  0
   60.7608   34.8859   45.8709 H   0  0  0  0  0  0  0  0  0  0  0  0
   59.2533   35.1663   43.9026 H   0  0  0  0  0  0  0  0  0  0  0  0
   56.9121   34.3067   43.9888 H   0  0  0  0  0  0  0  0  0  0  0  0
   56.0836   33.1329   46.0274 H   0  0  0  0  0  0  0  0  0  0  0  0
   61.0061   31.1247   47.5159 H   0  0  0  0  0  0  0  0  0  0  0  0
   62.0370   31.9370   48.7681 H   0  0  0  0  0  0  0  0  0  0  0  0
   61.2197   29.2742   48.8188 H   0  0  0  0  0  0  0  0  0  0  0  0
   61.8041   30.2567   50.2335 H   0  0  0  0  0  0  0  0  0  0  0  0
  1  2  1  0
  2  3  1  0
  3  4  1  0
  4  5  2  0
  5  6  1  0
  6  7  1  0
  7  8  1  0
  6  9  2  0
  9 10  1  0
 10 11  2  0
 11 12  1  0
 12 13  1  0
 13 14  1  0
 14 15  1  0
 15 16  1  0
 16 17  1  0
 17 18  1  0
 18 19  1  0
 19 20  1  0
 20 21  2  0
 21 22  1  0
 22 23  2  0
 23 24  1  0
 24 25  2  0
 25 26  1  0
 18 27  1  0
 27 28  1  0
 11  4  1  0
 28 15  1  0
 25 20  1  0
  1 29  1  0
  1 30  1  0
  1 31  1  0
  2 32  1  0
  2 33  1  0
  5 34  1  0
  7 35  1  0
  7 36  1  0
  8 37  1  0
  8 38  1  0
  8 39  1  0
  9 40  1  0
 10 41  1  0
 13 42  1  0
 13 43  1  0
 14 44  1  0
 14 45  1  0
 16 46  1  0
 16 47  1  0
 17 48  1  0
 17 49  1  0
 19 50  1  0
 19 51  1  0
 21 52  1  0
 22 53  1  0
 23 54  1  0
 24 55  1  0
 27 56  1  0
 27 57  1  0
 28 58  1  0
 28 59  1  0
M  END
>  <UniqueID>  (26) 
25

>  <SMILES>  (26) 
CCOc1cc(CC)ccc1OCCN1CCN(Cc2ccccc2F)CC1

>  <Energy>  (26) 
69.72040223213462

>  <Genealogy>  (26) 
CCOc1cc(CC)ccc1OCCN1CCN(Cc2ccccc2F)CC1 (3D coordinates assigned)
CCOc1cc(CC)ccc1OCCN1CCN(Cc2ccccc2F)CC1 (nonaromatic ring conformer: 69.72040223213462 kcal/mol)

>  <smiles>  (26) 
CCOc1cc(CC)ccc1OCCN1CCN(Cc2ccccc2F)CC1

>  <score_type>  (26) 
oracle

>  <origin>  (26) 
adg

>  <m_score__min__energy>  (26) 
-7.8499999999999996

>  <m_primary>  (26) 
energy

$$$$
26:0
     RDKit          3D

 51 53  0  0  0  0  0  0  0  0999 V2000
   59.7090   33.8480   49.6130 C   0  0  0  0  0  0  0  0  0  0  0  0
   60.0820   32.5390   50.3030 C   0  0  0  0  0  0  0  0  0  0  0  0
   59.1000   31.4820   49.9660 N   0  0  0  0  0  0  0  0  0  0  0  0
   57.8350   31.6690   50.7120 C   0  0  0  0  0  0  0  0  0  0  0  0
   57.6680   30.5650   51.7530 C   0  0  0  0  0  0  0  0  0  0  0  0
   59.6650   30.1330   50.1990 C   0  0  0  0  0  0  0  0  0  0  0  0
   59.2890   29.1990   49.0440 C   0  0  0  0  0  0  0  0  0  0  0  0
   60.1280   29.4570   47.8740 N   0  0  0  0  0  0  0  0  0  0  0  0
   59.9550   30.6350   47.0680 C   0  0  0  0  0  0  0  0  0  0  0  0
   60.8980   31.6740   47.1310 C   0  0  0  0  0  0  0  0  0  0  0  0
   62.0660   31.5430   47.9100 C   0  0  0  0  0  0  0  0  0  0  0  0
   63.0170   32.5600   47.9430 C   0  0  0  0  0  0  0  0  0  0  0  0
   62.8270   33.7140   47.1920 C   0  0  0  0  0  0  0  0  0  0  0  0
   61.6730   33.8710   46.4260 C   0  0  0  0  0  0  0  0  0  0  0  0
   60.6670   32.8720   46.4040 C   0  0  0  0  0  0  0  0  0  0  0  0
   59.4930   33.0350   45.6910 N   0  0  0  0  0  0  0  0  0  0  0  0
   59.1150   34.3720   45.1840 C   0  0  0  0  0  0  0  0  0  0  0  0
   58.6640   31.9500   45.4690 C   0  0  0  0  0  0  0  0  0  0  0  0
   57.6090   31.9990   44.5230 C   0  0  0  0  0  0  0  0  0  0  0  0
   56.7650   30.9070   44.3270 C   0  0  0  0  0  0  0  0  0  0  0  0
   56.9560   29.7280   45.0460 C   0  0  0  0  0  0  0  0  0  0  0  0
   56.0930   28.6070   44.8330 N   0  0  0  0  0  0  0  0  0  0  0  0
   58.0120   29.6410   45.9580 C   0  0  0  0  0  0  0  0  0  0  0  0
   58.8720   30.7370   46.1780 C   0  0  0  0  0  0  0  0  0  0  0  0
   59.4909   34.6135   50.3722 H   0  0  0  0  0  0  0  0  0  0  0  0
   60.5474   34.1832   48.9847 H   0  0  0  0  0  0  0  0  0  0  0  0
   58.8199   33.6909   48.9847 H   0  0  0  0  0  0  0  0  0  0  0  0
   61.0820   32.2250   49.9692 H   0  0  0  0  0  0  0  0  0  0  0  0
   60.0799   32.6953   51.3918 H   0  0  0  0  0  0  0  0  0  0  0  0
   57.8526   32.6456   51.2179 H   0  0  0  0  0  0  0  0  0  0  0  0
   56.9926   31.6266   50.0059 H   0  0  0  0  0  0  0  0  0  0  0  0
   57.7337   30.9991   52.7616 H   0  0  0  0  0  0  0  0  0  0  0  0
   56.6870   30.0845   51.6238 H   0  0  0  0  0  0  0  0  0  0  0  0
   58.4630   29.8159   51.6238 H   0  0  0  0  0  0  0  0  0  0  0  0
   60.7605   30.2041   50.2677 H   0  0  0  0  0  0  0  0  0  0  0  0
   59.2571   29.7285   51.1371 H   0  0  0  0  0  0  0  0  0  0  0  0
   59.4273   28.1557   49.3641 H   0  0  0  0  0  0  0  0  0  0  0  0
   58.2386   29.3797   48.7717 H   0  0  0  0  0  0  0  0  0  0  0  0
   60.9060   28.7990   47.6480 H   0  0  0  0  0  0  0  0  0  0  0  0
   62.2278   30.6276   48.4981 H   0  0  0  0  0  0  0  0  0  0  0  0
   63.9186   32.4499   48.5635 H   0  0  0  0  0  0  0  0  0  0  0  0
   63.5900   34.5063   47.2021 H   0  0  0  0  0  0  0  0  0  0  0  0
   61.5406   34.7851   45.8286 H   0  0  0  0  0  0  0  0  0  0  0  0
   58.9246   35.0456   46.0326 H   0  0  0  0  0  0  0  0  0  0  0  0
   59.9339   34.7768   44.5712 H   0  0  0  0  0  0  0  0  0  0  0  0
   58.2054   34.2881   44.5712 H   0  0  0  0  0  0  0  0  0  0  0  0
   57.4538   32.9146   43.9335 H   0  0  0  0  0  0  0  0  0  0  0  0
   55.9425   30.9761   43.5999 H   0  0  0  0  0  0  0  0  0  0  0  0
   56.3980   27.8010   44.2430 H   0  0  0  0  0  0  0  0  0  0  0  0
   55.1410   28.5760   45.2620 H   0  0  0  0  0  0  0  0  0  0  0  0
   58.1744   28.7046   46.5118 H   0  0  0  0  0  0  0  0  0  0  0  0
  1  2  1  0
  2  3  1  0
  3  4  1  0
  4  5  1  0
  3  6  1  0
  6  7  1  0
  7  8  1  0
  8  9  1  0
  9 10  2  0
 10 11  1  0
 11 12  2  0
 12 13  1  0
 13 14  2  0
 14 15  1  0
 15 16  2  0
 16 17  1  0
 16 18  1  0
 18 19  2  0
 19 20  1  0
 20 21  2  0
 21 22  1  0
 21 23  1  0
 23 24  2  0
 24  9  1  0
 15 10  1  0
 24 18  1  0
  1 25  1  0
  1 26  1  0
  1 27  1  0
  2 28  1  0
  2 29  1  0
  4 30  1  0
  4 31  1  0
  5 32  1  0
  5 33  1  0
  5 34  1  0
  6 35  1  0
  6 36  1  0
  7 37  1  0
  7 38  1  0
  8 39  1  0
 11 40  1  0
 12 41  1  0
 13 42  1  0
 14 43  1  0
 17 44  1  0
 17 45  1  0
 17 46  1  0
 19 47  1  0
 20 48  1  0
 22 49  1  0
 22 50  1  0
 23 51  1  0
M  CHG  1  16   1
M  END
>  <UniqueID>  (27) 
26

>  <SMILES>  (27) 
CCN(CC)CCNc1c2ccccc2[n+](C)c2ccc(N)cc12

>  <Energy>  (27) 
74.11760760552346

>  <Genealogy>  (27) 
CCN(CC)CCNc1c2ccccc2[n+](C)c2ccc(N)cc12 (3D coordinates assigned)
CCN(CC)CCNc1c2ccccc2[n+](C)c2ccc(N)cc12 (optimized conformer: 74.11760760552346 kcal/mol)

>  <smiles>  (27) 
CCN(CC)CCNc1c2ccccc2[n+](C)c2ccc(N)cc12

>  <score_type>  (27) 
oracle

>  <origin>  (27) 
adg

>  <m_score__min__energy>  (27) 
-5.8099999999999996

>  <m_primary>  (27) 
energy

$$$$
27:0
     RDKit          3D

 61 63  0  0  0  0  0  0  0  0999 V2000
   65.2250   32.6050   49.8400 C   0  0  0  0  0  0  0  0  0  0  0  0
   63.7170   32.4520   50.0680 C   0  0  0  0  0  0  0  0  0  0  0  0
   62.8880   33.2830   49.1710 N   0  0  0  0  0  0  0  0  0  0  0  0
   61.9000   34.1660   49.8380 C   0  0  0  0  0  0  0  0  0  0  0  0
   61.1100   33.4940   50.9700 C   0  0  0  0  0  0  0  0  0  0  0  0
   63.5900   33.8330   47.9910 C   0  0  0  0  0  0  0  0  0  0  0  0
   63.2950   32.9840   46.7500 C   0  0  0  0  0  0  0  0  0  0  0  0
   62.6820   31.6200   47.1300 C   0  0  0  0  0  0  0  0  0  0  0  0
   61.4040   31.7710   47.8490 N   0  0  0  0  0  0  0  0  0  0  0  0
   60.3450   30.9430   47.2760 C   0  0  0  0  0  0  0  0  0  0  0  0
   60.2570   29.5680   47.6030 C   0  0  0  0  0  0  0  0  0  0  0  0
   60.7060   29.0660   48.8460 C   0  0  0  0  0  0  0  0  0  0  0  0
   60.6200   27.7080   49.1440 C   0  0  0  0  0  0  0  0  0  0  0  0
   60.0670   26.8260   48.2280 C   0  0  0  0  0  0  0  0  0  0  0  0
   59.5820   27.2980   47.0120 C   0  0  0  0  0  0  0  0  0  0  0  0
   59.6780   28.6700   46.6700 C   0  0  0  0  0  0  0  0  0  0  0  0
   59.2180   29.1430   45.4610 N   0  0  0  0  0  0  0  0  0  0  0  0
   58.9680   28.2020   44.3470 C   0  0  0  0  0  0  0  0  0  0  0  0
   58.9680   30.4920   45.3050 C   0  0  0  0  0  0  0  0  0  0  0  0
   58.1860   30.9690   44.2250 C   0  0  0  0  0  0  0  0  0  0  0  0
   57.9340   32.3240   44.0620 C   0  0  0  0  0  0  0  0  0  0  0  0
   58.3940   33.2370   44.9990 C   0  0  0  0  0  0  0  0  0  0  0  0
   59.1400   32.8120   46.1060 C   0  0  0  0  0  0  0  0  0  0  0  0
   59.3860   33.7710   47.1510 N   0  0  0  0  0  0  0  0  0  0  0  0
   58.8970   33.4740   48.4990 C   0  0  0  0  0  0  0  0  0  0  0  0
   59.6550   35.1680   46.8070 C   0  0  0  0  0  0  0  0  0  0  0  0
   59.4890   31.4310   46.2460 C   0  0  0  0  0  0  0  0  0  0  0  0
   65.7392   32.6572   50.8110 H   0  0  0  0  0  0  0  0  0  0  0  0
   65.5997   31.7403   49.2727 H   0  0  0  0  0  0  0  0  0  0  0  0
   65.4183   33.5274   49.2727 H   0  0  0  0  0  0  0  0  0  0  0  0
   63.4481   31.3972   49.9095 H   0  0  0  0  0  0  0  0  0  0  0  0
   63.5137   32.7903   51.0947 H   0  0  0  0  0  0  0  0  0  0  0  0
   62.4383   35.0280   50.2590 H   0  0  0  0  0  0  0  0  0  0  0  0
   61.1660   34.4516   49.0701 H   0  0  0  0  0  0  0  0  0  0  0  0
   61.5038   33.8290   51.9409 H   0  0  0  0  0  0  0  0  0  0  0  0
   60.0482   33.7699   50.8901 H   0  0  0  0  0  0  0  0  0  0  0  0
   61.2120   32.4017   50.8901 H   0  0  0  0  0  0  0  0  0  0  0  0
   63.2490   34.8638   47.8143 H   0  0  0  0  0  0  0  0  0  0  0  0
   64.6731   33.8206   48.1825 H   0  0  0  0  0  0  0  0  0  0  0  0
   62.5876   33.5266   46.1057 H   0  0  0  0  0  0  0  0  0  0  0  0
   64.2435   32.8013   46.2237 H   0  0  0  0  0  0  0  0  0  0  0  0
   62.5066   31.0410   46.2113 H   0  0  0  0  0  0  0  0  0  0  0  0
   63.3883   31.1035   47.7965 H   0  0  0  0  0  0  0  0  0  0  0  0
   61.1220   32.7740   47.8800 H   0  0  0  0  0  0  0  0  0  0  0  0
   61.6050   31.5310   48.8410 H   0  0  0  0  0  0  0  0  0  0  0  0
   61.1295   29.7580   49.5888 H   0  0  0  0  0  0  0  0  0  0  0  0
   60.9920   27.3340   50.1093 H   0  0  0  0  0  0  0  0  0  0  0  0
   60.0117   25.7527   48.4626 H   0  0  0  0  0  0  0  0  0  0  0  0
   59.1168   26.5952   46.3052 H   0  0  0  0  0  0  0  0  0  0  0  0
   58.7055   27.2141   44.7534 H   0  0  0  0  0  0  0  0  0  0  0  0
   58.1383   28.5768   43.7297 H   0  0  0  0  0  0  0  0  0  0  0  0
   59.8743   28.1155   43.7297 H   0  0  0  0  0  0  0  0  0  0  0  0
   57.7705   30.2520   43.5016 H   0  0  0  0  0  0  0  0  0  0  0  0
   57.3676   32.6749   43.1868 H   0  0  0  0  0  0  0  0  0  0  0  0
   58.1707   34.3065   44.8716 H   0  0  0  0  0  0  0  0  0  0  0  0
   59.5905   33.8952   49.2417 H   0  0  0  0  0  0  0  0  0  0  0  0
   57.9003   33.9195   48.6339 H   0  0  0  0  0  0  0  0  0  0  0  0
   58.8328   32.3842   48.6339 H   0  0  0  0  0  0  0  0  0  0  0  0
   59.7685   35.7573   47.7289 H   0  0  0  0  0  0  0  0  0  0  0  0
   60.5813   35.2285   46.2168 H   0  0  0  0  0  0  0  0  0  0  0  0
   58.8174   35.5681   46.2168 H   0  0  0  0  0  0  0  0  0  0  0  0
  1  2  1  0
  2  3  1  0
  3  4  1  0
  4  5  1  0
  3  6  1  0
  6  7  1  0
  7  8  1  0
  8  9  1  0
  9 10  1  0
 10 11  2  0
 11 12  1  0
 12 13  2  0
 13 14  1  0
 14 15  2  0
 15 16  1  0
 16 17  2  0
 17 18  1  0
 17 19  1  0
 19 20  2  0
 20 21  1  0
 21 22  2  0
 22 23  1  0
 23 24  1  0
 24 25  1  0
 24 26  1  0
 23 27  2  0
 27 10  1  0
 16 11  1  0
 27 19  1  0
  1 28  1  0
  1 29  1  0
  1 30  1  0
  2 31  1  0
  2 32  1  0
  4 33  1  0
  4 34  1  0
  5 35  1  0
  5 36  1  0
  5 37  1  0
  6 38  1  0
  6 39  1  0
  7 40  1  0
  7 41  1  0
  8 42  1  0
  8 43  1  0
  9 44  1  0
  9 45  1  0
 12 46  1  0
 13 47  1  0
 14 48  1  0
 15 49  1  0
 18 50  1  0
 18 51  1  0
 18 52  1  0
 20 53  1  0
 21 54  1  0
 22 55  1  0
 25 56  1  0
 25 57  1  0
 25 58  1  0
 26 59  1  0
 26 60  1  0
 26 61  1  0
M  CHG  2   9   1  17   1
M  END
>  <UniqueID>  (28) 
27

>  <SMILES>  (28) 
CCN(CC)CCC[NH2+]c1c2ccccc2[n+](C)c2cccc(N(C)C)c12

>  <Energy>  (28) 
108.28313290304276

>  <Genealogy>  (28) 
CCN(CC)CCC[NH2+]c1c2ccccc2[n+](C)c2cccc(N(C)C)c12 (protonated)
CCN(CC)CCC[NH2+]c1c2ccccc2[n+](C)c2cccc(N(C)C)c12 (3D coordinates assigned)
CCN(CC)CCC[NH2+]c1c2ccccc2[n+](C)c2cccc(N(C)C)c12 (optimized conformer: 108.28313290304276 kcal/mol)

>  <smiles>  (28) 
CCN(CC)CCCNc1c2ccccc2[n+](C)c2cccc(N(C)C)c12

>  <score_type>  (28) 
oracle

>  <origin>  (28) 
adg

>  <m_score__min__energy>  (28) 
-4.5099999999999998

>  <m_primary>  (28) 
energy

$$$$
28:0
     RDKit          3D

 41 43  0  0  0  0  0  0  0  0999 V2000
   56.6900   20.7230   43.0460 C   0  0  0  0  0  0  0  0  0  0  0  0
   55.9110   21.8360   43.4730 O   0  0  0  0  0  0  0  0  0  0  0  0
   56.4470   23.0260   43.9890 C   0  0  0  0  0  0  0  0  0  0  0  0
   56.5800   23.2570   45.3710 C   0  0  0  0  0  0  0  0  0  0  0  0
   57.1200   24.4590   45.8360 C   0  0  0  0  0  0  0  0  0  0  0  0
   57.5370   25.4520   44.9330 C   0  0  0  0  0  0  0  0  0  0  0  0
   58.1120   26.7310   45.4280 C   0  0  0  0  0  0  0  0  0  0  0  0
   59.2420   26.7270   46.2570 C   0  0  0  0  0  0  0  0  0  0  0  0
   59.7910   27.9260   46.7140 C   0  0  0  0  0  0  0  0  0  0  0  0
   59.2220   29.1630   46.3510 C   0  0  0  0  0  0  0  0  0  0  0  0
   59.7820   30.3870   46.7730 C   0  0  0  0  0  0  0  0  0  0  0  0
   61.0060   30.4300   47.5260 N   0  0  0  0  0  0  0  0  0  0  0  0
   61.0620   29.9090   48.6590 O   0  0  0  0  0  0  0  0  0  0  0  0
   62.1690   30.8540   46.9260 O   0  0  0  0  0  0  0  0  0  0  0  0
   59.1470   31.5900   46.4160 C   0  0  0  0  0  0  0  0  0  0  0  0
   59.6740   32.6850   46.7610 O   0  0  0  0  0  0  0  0  0  0  0  0
   57.9860   31.5850   45.6860 N   0  0  0  0  0  0  0  0  0  0  0  0
   57.3810   32.8680   45.2900 C   0  0  0  0  0  0  0  0  0  0  0  0
   57.4360   30.4050   45.2500 C   0  0  0  0  0  0  0  0  0  0  0  0
   56.2590   30.4210   44.4920 O   0  0  0  0  0  0  0  0  0  0  0  0
   56.2650   30.1000   43.1050 C   0  0  0  0  0  0  0  0  0  0  0  0
   58.0520   29.1740   45.5580 C   0  0  0  0  0  0  0  0  0  0  0  0
   57.5250   27.9580   45.0810 C   0  0  0  0  0  0  0  0  0  0  0  0
   57.4020   25.2160   43.5530 C   0  0  0  0  0  0  0  0  0  0  0  0
   56.8620   24.0130   43.0900 C   0  0  0  0  0  0  0  0  0  0  0  0
   57.0689   20.1817   43.9254 H   0  0  0  0  0  0  0  0  0  0  0  0
   56.0656   20.0488   42.4414 H   0  0  0  0  0  0  0  0  0  0  0  0
   57.5372   21.0788   42.4414 H   0  0  0  0  0  0  0  0  0  0  0  0
   56.2574   22.4879   46.0882 H   0  0  0  0  0  0  0  0  0  0  0  0
   57.2196   24.6295   46.9181 H   0  0  0  0  0  0  0  0  0  0  0  0
   59.7001   25.7708   46.5499 H   0  0  0  0  0  0  0  0  0  0  0  0
   60.6776   27.9052   47.3647 H   0  0  0  0  0  0  0  0  0  0  0  0
   57.1114   33.4397   46.1903 H   0  0  0  0  0  0  0  0  0  0  0  0
   58.1022   33.4444   44.6920 H   0  0  0  0  0  0  0  0  0  0  0  0
   56.4775   32.6783   44.6920 H   0  0  0  0  0  0  0  0  0  0  0  0
   56.2854   29.0071   42.9817 H   0  0  0  0  0  0  0  0  0  0  0  0
   55.3591   30.5056   42.6308 H   0  0  0  0  0  0  0  0  0  0  0  0
   57.1551   30.5392   42.6308 H   0  0  0  0  0  0  0  0  0  0  0  0
   56.6406   27.9700   44.4270 H   0  0  0  0  0  0  0  0  0  0  0  0
   57.7236   25.9833   42.8334 H   0  0  0  0  0  0  0  0  0  0  0  0
   56.7626   23.8411   42.0081 H   0  0  0  0  0  0  0  0  0  0  0  0
  1  2  1  0
  2  3  1  0
  3  4  2  0
  4  5  1  0
  5  6  2  0
  6  7  1  0
  7  8  1  0
  8  9  2  0
  9 10  1  0
 10 11  2  0
 11 12  1  0
 12 13  2  0
 12 14  1  0
 11 15  1  0
 15 16  2  0
 15 17  1  0
 17 18  1  0
 17 19  1  0
 19 20  1  0
 20 21  1  0
 19 22  2  0
 22 23  1  0
  6 24  1  0
 24 25  2  0
 25  3  1  0
 23  7  2  0
 22 10  1  0
  1 26  1  0
  1 27  1  0
  1 28  1  0
  4 29  1  0
  5 30  1  0
  8 31  1  0
  9 32  1  0
 18 33  1  0
 18 34  1  0
 18 35  1  0
 21 36  1  0
 21 37  1  0
 21 38  1  0
 23 39  1  0
 24 40  1  0
 25 41  1  0
M  CHG  2  12   1  14  -1
M  END
>  <UniqueID>  (29) 
28

>  <SMILES>  (29) 
COc1ccc(-c2ccc3c([N+](=O)[O-])c(=O)n(C)c(OC)c3c2)cc1

>  <Energy>  (29) 
70.08351357028045

>  <Genealogy>  (29) 
COc1ccc(-c2ccc3c([N+](=O)[O-])c(=O)n(C)c(OC)c3c2)cc1 (3D coordinates assigned)
COc1ccc(-c2ccc3c([N+](=O)[O-])c(=O)n(C)c(OC)c3c2)cc1 (optimized conformer: 70.08351357028045 kcal/mol)

>  <smiles>  (29) 
COc1ccc(-c2ccc3c([N+](=O)[O-])c(=O)n(C)c(OC)c3c2)cc1

>  <score_type>  (29) 
oracle

>  <origin>  (29) 
adg

>  <m_score__min__energy>  (29) 
-7.2599999999999998

>  <m_primary>  (29) 
energy

$$$$
29:0
     RDKit          3D

 28 29  0  0  0  0  0  0  0  0999 V2000
   57.8280   33.9950   45.3740 C   0  0  0  0  0  0  0  0  0  0  0  0
   57.7480   33.1470   44.5210 C   0  0  0  0  0  0  0  0  0  0  0  0
   57.6500   32.1130   43.4850 C   0  0  0  0  0  0  0  0  0  0  0  0
   56.8500   30.9860   43.9660 N   0  0  0  0  0  0  0  0  0  0  0  0
   57.3950   29.7800   44.5440 C   0  0  0  0  0  0  0  0  0  0  0  0
   58.7830   29.5860   44.6570 C   0  0  0  0  0  0  0  0  0  0  0  0
   59.3130   28.4250   45.2340 C   0  0  0  0  0  0  0  0  0  0  0  0
   60.7380   28.3380   45.3880 N   0  0  0  0  0  0  0  0  0  0  0  0
   61.5780   28.9160   44.4940 O   0  0  0  0  0  0  0  0  0  0  0  0
   58.4420   27.3940   45.6610 C   0  0  0  0  0  0  0  0  0  0  0  0
   58.9260   26.1600   46.1450 C   0  0  0  0  0  0  0  0  0  0  0  0
   58.0440   25.1670   46.5710 C   0  0  0  0  0  0  0  0  0  0  0  0
   56.6680   25.3750   46.5100 C   0  0  0  0  0  0  0  0  0  0  0  0
   56.1640   26.5730   46.0020 C   0  0  0  0  0  0  0  0  0  0  0  0
   57.0360   27.5860   45.5620 C   0  0  0  0  0  0  0  0  0  0  0  0
   56.5260   28.7770   45.0100 C   0  0  0  0  0  0  0  0  0  0  0  0
   55.1480   28.9660   44.9190 O   0  0  0  0  0  0  0  0  0  0  0  0
   57.9010   34.7688   46.1524 H   0  0  0  0  0  0  0  0  0  0  0  0
   57.1740   32.5401   42.5900 H   0  0  0  0  0  0  0  0  0  0  0  0
   58.6609   31.7553   43.2399 H   0  0  0  0  0  0  0  0  0  0  0  0
   55.8160   31.0700   43.8470 H   0  0  0  0  0  0  0  0  0  0  0  0
   59.4672   30.3625   44.2843 H   0  0  0  0  0  0  0  0  0  0  0  0
   61.1380   27.6580   46.0730 H   0  0  0  0  0  0  0  0  0  0  0  0
   61.9110   28.1670   43.9370 H   0  0  0  0  0  0  0  0  0  0  0  0
   60.0103   25.9793   46.1868 H   0  0  0  0  0  0  0  0  0  0  0  0
   58.4370   24.2149   46.9571 H   0  0  0  0  0  0  0  0  0  0  0  0
   55.9781   24.5942   46.8626 H   0  0  0  0  0  0  0  0  0  0  0  0
   55.0763   26.7267   45.9450 H   0  0  0  0  0  0  0  0  0  0  0  0
  1  2  3  0
  2  3  1  0
  3  4  1  0
  4  5  1  0
  5  6  2  0
  6  7  1  0
  7  8  1  0
  8  9  1  0
  7 10  2  0
 10 11  1  0
 11 12  2  0
 12 13  1  0
 13 14  2  0
 14 15  1  0
 15 16  2  0
 16 17  1  0
 16  5  1  0
 15 10  1  0
  1 18  1  0
  3 19  1  0
  3 20  1  0
  4 21  1  0
  6 22  1  0
  8 23  1  0
  9 24  1  0
 11 25  1  0
 12 26  1  0
 13 27  1  0
 14 28  1  0
M  CHG  1  17  -1
M  END
>  <UniqueID>  (30) 
29

>  <SMILES>  (30) 
C#CCNc1cc(NO)c2ccccc2c1[O-]

>  <Energy>  (30) 
35.9080464991088

>  <Genealogy>  (30) 
C#CCNc1cc(NO)c2ccccc2c1[O-] (protonated)
C#CCNc1cc(NO)c2ccccc2c1[O-] (3D coordinates assigned)
C#CCNc1cc(NO)c2ccccc2c1[O-] (optimized conformer: 35.9080464991088 kcal/mol)

>  <smiles>  (30) 
C#CCNc1cc(NO)c2ccccc2c1O

>  <score_type>  (30) 
oracle

>  <origin>  (30) 
adg

>  <m_score__min__energy>  (30) 
-9.3399999999999999

>  <m_primary>  (30) 
energy

$$$$
30:0
     RDKit          3D

 51 52  0  0  0  0  0  0  0  0999 V2000
   59.4480   28.6190   44.6800 C   0  0  0  0  0  0  0  0  0  0  0  0
   57.9400   28.3570   44.6410 C   0  0  0  0  0  0  0  0  0  0  0  0
   57.3540   28.6360   43.3180 N   0  0  0  0  0  0  0  0  0  0  0  0
   56.4260   29.7810   43.3540 C   0  0  0  0  0  0  0  0  0  0  0  0
   57.0230   31.0310   42.6800 C   0  0  0  0  0  0  0  0  0  0  0  0
   57.9260   31.8970   43.5830 C   0  0  0  0  0  0  0  0  0  0  0  0
   57.2580   32.4650   44.8570 C   0  0  0  0  0  0  0  0  0  0  0  0
   57.9340   32.0770   46.1080 N   0  0  0  0  0  0  0  0  0  0  0  0
   59.3990   32.2900   46.0740 C   0  0  2  0  0  0  0  0  0  0  0  0
   60.1850   31.2000   46.8590 C   0  0  0  0  0  0  0  0  0  0  0  0
   60.9890   32.0200   47.8990 C   0  0  1  0  0  0  0  0  0  0  0  0
   62.0910   32.7650   47.1070 C   0  0  0  0  0  0  0  0  0  0  0  0
   61.2990   33.8650   46.3710 C   0  0  0  0  0  0  0  0  0  0  0  0
   59.8360   33.5950   46.8270 C   0  0  1  0  0  0  0  0  0  0  0  0
   58.9270   34.8170   46.6170 C   0  0  0  0  0  0  0  0  0  0  0  0
   60.0190   33.1430   48.2970 C   0  0  0  0  0  0  0  0  0  0  0  0
   60.6500   34.2060   49.2520 C   0  0  0  0  0  0  0  0  0  0  0  0
   58.7350   32.6410   49.0240 C   0  0  0  0  0  0  0  0  0  0  0  0
   59.7831   28.6772   45.7261 H   0  0  0  0  0  0  0  0  0  0  0  0
   59.9759   27.7991   44.1710 H   0  0  0  0  0  0  0  0  0  0  0  0
   59.6684   29.5689   44.1710 H   0  0  0  0  0  0  0  0  0  0  0  0
   57.7585   27.3015   44.8920 H   0  0  0  0  0  0  0  0  0  0  0  0
   57.4640   29.0324   45.3672 H   0  0  0  0  0  0  0  0  0  0  0  0
   58.1130   28.8070   42.6160 H   0  0  0  0  0  0  0  0  0  0  0  0
   56.8250   27.7830   43.0240 H   0  0  0  0  0  0  0  0  0  0  0  0
   55.4996   29.5035   42.8299 H   0  0  0  0  0  0  0  0  0  0  0  0
   56.2296   30.0254   44.4084 H   0  0  0  0  0  0  0  0  0  0  0  0
   57.6210   30.6999   41.8182 H   0  0  0  0  0  0  0  0  0  0  0  0
   56.1684   31.6663   42.4042 H   0  0  0  0  0  0  0  0  0  0  0  0
   58.7808   31.2798   43.8967 H   0  0  0  0  0  0  0  0  0  0  0  0
   58.2041   32.7715   42.9764 H   0  0  0  0  0  0  0  0  0  0  0  0
   57.2589   33.5629   44.7887 H   0  0  0  0  0  0  0  0  0  0  0  0
   56.2418   32.0459   44.8993 H   0  0  0  0  0  0  0  0  0  0  0  0
   57.6870   31.0900   46.3380 H   0  0  0  0  0  0  0  0  0  0  0  0
   59.6191   32.3032   44.9963 H   0  0  0  0  0  0  0  0  0  0  0  0
   59.4976   30.4994   47.3557 H   0  0  0  0  0  0  0  0  0  0  0  0
   60.8237   30.5803   46.2125 H   0  0  0  0  0  0  0  0  0  0  0  0
   61.3812   31.4091   48.7254 H   0  0  0  0  0  0  0  0  0  0  0  0
   62.8393   33.2018   47.7847 H   0  0  0  0  0  0  0  0  0  0  0  0
   62.6586   32.1100   46.4296 H   0  0  0  0  0  0  0  0  0  0  0  0
   61.6320   34.8672   46.6788 H   0  0  0  0  0  0  0  0  0  0  0  0
   61.4279   33.8397   45.2789 H   0  0  0  0  0  0  0  0  0  0  0  0
   58.6257   35.2221   47.5943 H   0  0  0  0  0  0  0  0  0  0  0  0
   59.4731   35.5877   46.0532 H   0  0  0  0  0  0  0  0  0  0  0  0
   58.0318   34.5156   46.0532 H   0  0  0  0  0  0  0  0  0  0  0  0
   60.4745   33.9103   50.2969 H   0  0  0  0  0  0  0  0  0  0  0  0
   61.7323   34.2697   49.0658 H   0  0  0  0  0  0  0  0  0  0  0  0
   60.1876   35.1866   49.0658 H   0  0  0  0  0  0  0  0  0  0  0  0
   58.8835   32.6990   50.1124 H   0  0  0  0  0  0  0  0  0  0  0  0
   57.8806   33.2713   48.7364 H   0  0  0  0  0  0  0  0  0  0  0  0
   58.5347   31.5983   48.7364 H   0  0  0  0  0  0  0  0  0  0  0  0
  1  2  1  0
  2  3  1  0
  3  4  1  0
  4  5  1  0
  5  6  1  0
  6  7  1  0
  7  8  1  0
  8  9  1  0
  9 10  1  0
 10 11  1  0
 11 12  1  0
 12 13  1  0
 13 14  1  0
 14 15  1  1
 14 16  1  0
 16 17  1  0
 16 18  1  0
 14  9  1  0
 16 11  1  0
  1 19  1  0
  1 20  1  0
  1 21  1  0
  2 22  1  0
  2 23  1  0
  3 24  1  0
  3 25  1  0
  4 26  1  0
  4 27  1  0
  5 28  1  0
  5 29  1  0
  6 30  1  0
  6 31  1  0
  7 32  1  0
  7 33  1  0
  8 34  1  0
  9 35  1  6
 10 36  1  0
 10 37  1  0
 11 38  1  1
 12 39  1  0
 12 40  1  0
 13 41  1  0
 13 42  1  0
 15 43  1  0
 15 44  1  0
 15 45  1  0
 17 46  1  0
 17 47  1  0
 17 48  1  0
 18 49  1  0
 18 50  1  0
 18 51  1  0
M  CHG  1   3   1
M  END
>  <UniqueID>  (31) 
30

>  <SMILES>  (31) 
CC[NH2+]CCCCN[C@@H]1C[C@H]2CCC1(C)C2(C)C

>  <Energy>  (31) 
83.91849263155318

>  <Genealogy>  (31) 
CC[NH2+]CCCCNC1CC2CCC1(C)C2(C)C (protonated)
CC[NH2+]CCCCN[C@@H]1C[C@H]2CCC1(C)C2(C)C (chirality)
CC[NH2+]CCCCN[C@@H]1C[C@H]2CCC1(C)C2(C)C (3D coordinates assigned)
CC[NH2+]CCCCN[C@@H]1C[C@H]2CCC1(C)C2(C)C (nonaromatic ring conformer: 83.91849263155318 kcal/mol)

>  <smiles>  (31) 
CCNCCCCNC1CC2CCC1(C)C2(C)C

>  <score_type>  (31) 
oracle

>  <origin>  (31) 
adg

>  <m_score__min__energy>  (31) 
-5.2999999999999998

>  <m_primary>  (31) 
energy

$$$$
31:0
     RDKit          3D

 59 61  0  0  0  0  0  0  0  0999 V2000
   61.8280   29.4330   52.0040 C   0  0  0  0  0  0  0  0  0  0  0  0
   60.4780   29.9840   52.4760 C   0  0  0  0  0  0  0  0  0  0  0  0
   59.7780   30.7440   51.4080 N   0  0  0  0  0  0  0  0  0  0  0  0
   59.1030   31.9630   51.9290 C   0  0  0  0  0  0  0  0  0  0  0  0
   59.5890   33.2820   51.3170 C   0  0  0  0  0  0  0  0  0  0  0  0
   58.9140   29.9320   50.5000 C   0  0  0  0  0  0  0  0  0  0  0  0
   58.9430   30.3310   49.0060 C   0  0  0  0  0  0  0  0  0  0  0  0
   59.7110   31.5190   48.8260 O   0  0  0  0  0  0  0  0  0  0  0  0
   61.1110   31.5400   48.8090 C   0  0  0  0  0  0  0  0  0  0  0  0
   61.7730   30.5010   49.0840 O   0  0  0  0  0  0  0  0  0  0  0  0
   61.8150   32.8390   48.5320 C   0  0  1  0  0  0  0  0  0  0  0  0
   63.3220   32.6280   48.3850 C   0  0  0  0  0  0  0  0  0  0  0  0
   63.7510   33.5460   47.2460 C   0  0  0  0  0  0  0  0  0  0  0  0
   62.4990   33.7830   46.4130 C   0  0  0  0  0  0  0  0  0  0  0  0
   61.3800   33.4310   47.2750 N   0  0  0  0  0  0  0  0  0  0  0  0
   60.0410   33.9150   47.0550 C   0  0  0  0  0  0  0  0  0  0  0  0
   59.6260   34.9170   47.7010 O   0  0  0  0  0  0  0  0  0  0  0  0
   59.1360   33.2560   46.0900 C   0  0  0  0  0  0  0  0  0  0  0  0
   58.5790   33.9830   45.0290 C   0  0  0  0  0  0  0  0  0  0  0  0
   57.7500   33.3520   44.1020 C   0  0  0  0  0  0  0  0  0  0  0  0
   57.4680   31.9890   44.2260 C   0  0  0  0  0  0  0  0  0  0  0  0
   58.0130   31.2410   45.2830 C   0  0  0  0  0  0  0  0  0  0  0  0
   57.7230   29.8330   45.3990 N   0  0  0  0  0  0  0  0  0  0  0  0
   58.6960   28.7910   45.7060 C   0  0  0  0  0  0  0  0  0  0  0  0
   57.8810   27.4840   45.8500 C   0  0  0  0  0  0  0  0  0  0  0  0
   56.5120   27.8080   45.4700 N   0  0  0  0  0  0  0  0  0  0  0  0
   56.4700   29.1960   45.2230 C   0  0  0  0  0  0  0  0  0  0  0  0
   55.4320   29.7820   44.8200 O   0  0  0  0  0  0  0  0  0  0  0  0
   58.8670   31.8810   46.1990 C   0  0  0  0  0  0  0  0  0  0  0  0
   62.4467   29.1805   52.8778 H   0  0  0  0  0  0  0  0  0  0  0  0
   61.6637   28.5300   51.3977 H   0  0  0  0  0  0  0  0  0  0  0  0
   62.3425   30.1931   51.3977 H   0  0  0  0  0  0  0  0  0  0  0  0
   59.8414   29.1428   52.7877 H   0  0  0  0  0  0  0  0  0  0  0  0
   60.6680   30.6732   53.3120 H   0  0  0  0  0  0  0  0  0  0  0  0
   60.5330   31.1310   50.7930 H   0  0  0  0  0  0  0  0  0  0  0  0
   58.0257   31.8694   51.7276 H   0  0  0  0  0  0  0  0  0  0  0  0
   59.3429   32.0138   53.0013 H   0  0  0  0  0  0  0  0  0  0  0  0
   59.8484   33.9859   52.1215 H   0  0  0  0  0  0  0  0  0  0  0  0
   60.4764   33.0927   50.6952 H   0  0  0  0  0  0  0  0  0  0  0  0
   58.7909   33.7138   50.6952 H   0  0  0  0  0  0  0  0  0  0  0  0
   59.2376   28.8834   50.5753 H   0  0  0  0  0  0  0  0  0  0  0  0
   57.8812   30.1077   50.8354 H   0  0  0  0  0  0  0  0  0  0  0  0
   59.3936   29.5155   48.4213 H   0  0  0  0  0  0  0  0  0  0  0  0
   57.9136   30.5151   48.6647 H   0  0  0  0  0  0  0  0  0  0  0  0
   61.5749   33.4930   49.3833 H   0  0  0  0  0  0  0  0  0  0  0  0
   63.8413   32.9010   49.3155 H   0  0  0  0  0  0  0  0  0  0  0  0
   63.5692   31.5764   48.1776 H   0  0  0  0  0  0  0  0  0  0  0  0
   64.1327   34.4979   47.6438 H   0  0  0  0  0  0  0  0  0  0  0  0
   64.5582   33.0992   46.6470 H   0  0  0  0  0  0  0  0  0  0  0  0
   62.4333   34.8387   46.1111 H   0  0  0  0  0  0  0  0  0  0  0  0
   62.5054   33.1835   45.4908 H   0  0  0  0  0  0  0  0  0  0  0  0
   58.7968   35.0564   44.9270 H   0  0  0  0  0  0  0  0  0  0  0  0
   57.3171   33.9286   43.2712 H   0  0  0  0  0  0  0  0  0  0  0  0
   56.8142   31.4979   43.4903 H   0  0  0  0  0  0  0  0  0  0  0  0
   59.4283   28.6981   44.8904 H   0  0  0  0  0  0  0  0  0  0  0  0
   59.2597   29.0202   46.6224 H   0  0  0  0  0  0  0  0  0  0  0  0
   58.2867   26.7076   45.1848 H   0  0  0  0  0  0  0  0  0  0  0  0
   57.9280   27.0964   46.8784 H   0  0  0  0  0  0  0  0  0  0  0  0
   59.3295   31.2989   47.0097 H   0  0  0  0  0  0  0  0  0  0  0  0
  1  2  1  0
  2  3  1  0
  3  4  1  0
  4  5  1  0
  3  6  1  0
  6  7  1  0
  7  8  1  0
  8  9  1  0
  9 10  2  0
  9 11  1  0
 11 12  1  0
 12 13  1  0
 13 14  1  0
 14 15  1  0
 15 16  1  0
 16 17  2  0
 16 18  1  0
 18 19  2  0
 19 20  1  0
 20 21  2  0
 21 22  1  0
 22 23  1  0
 23 24  1  0
 24 25  1  0
 25 26  1  0
 26 27  1  0
 27 28  2  0
 22 29  2  0
 15 11  1  0
 29 18  1  0
 27 23  1  0
  1 30  1  0
  1 31  1  0
  1 32  1  0
  2 33  1  0
  2 34  1  0
  3 35  1  0
  4 36  1  0
  4 37  1  0
  5 38  1  0
  5 39  1  0
  5 40  1  0
  6 41  1  0
  6 42  1  0
  7 43  1  0
  7 44  1  0
 11 45  1  1
 12 46  1  0
 12 47  1  0
 13 48  1  0
 13 49  1  0
 14 50  1  0
 14 51  1  0
 19 52  1  0
 20 53  1  0
 21 54  1  0
 24 55  1  0
 24 56  1  0
 25 57  1  0
 25 58  1  0
 29 59  1  0
M  CHG  2   3   1  26  -1
M  END
>  <UniqueID>  (32) 
31

>  <SMILES>  (32) 
CC[NH+](CC)CCOC(=O)[C@H]1CCCN1C(=O)c1cccc(N2CC[N-]C2=O)c1

>  <Energy>  (32) 
85.61802329825925

>  <Genealogy>  (32) 
CC[NH+](CC)CCOC(=O)C1CCCN1C(=O)c1cccc(N2CC[N-]C2=O)c1 (protonated)
CC[NH+](CC)CCOC(=O)[C@H]1CCCN1C(=O)c1cccc(N2CC[N-]C2=O)c1 (chirality)
CC[NH+](CC)CCOC(=O)[C@H]1CCCN1C(=O)c1cccc(N2CC[N-]C2=O)c1 (3D coordinates assigned)
CC[NH+](CC)CCOC(=O)[C@H]1CCCN1C(=O)c1cccc(N2CC[N-]C2=O)c1 (nonaromatic ring conformer: 85.61802329825925 kcal/mol)

>  <smiles>  (32) 
CCN(CC)CCOC(=O)C1CCCN1C(=O)c1cccc(N2CCNC2=O)c1

>  <score_type>  (32) 
oracle

>  <origin>  (32) 
adg

>  <m_score__min__energy>  (32) 
-8.6899999999999995

>  <m_primary>  (32) 
energy

$$$$
32:0
     RDKit          3D

 44 47  0  0  0  0  0  0  0  0999 V2000
   57.8750   34.1620   46.1930 C   0  0  0  0  0  0  0  0  0  0  0  0
   58.5770   33.6450   47.3180 O   0  0  0  0  0  0  0  0  0  0  0  0
   59.9620   33.4180   47.3550 C   0  0  0  0  0  0  0  0  0  0  0  0
   60.8510   34.0700   46.4770 C   0  0  0  0  0  0  0  0  0  0  0  0
   62.2250   33.8360   46.5600 C   0  0  0  0  0  0  0  0  0  0  0  0
   62.7300   32.9590   47.5210 C   0  0  0  0  0  0  0  0  0  0  0  0
   61.8600   32.3050   48.3950 C   0  0  0  0  0  0  0  0  0  0  0  0
   60.4750   32.5140   48.3070 C   0  0  0  0  0  0  0  0  0  0  0  0
   59.5880   31.8250   49.2110 N   0  0  0  0  0  0  0  0  0  0  0  0
   59.2410   30.5000   48.9890 C   0  0  0  0  0  0  0  0  0  0  0  0
   59.9350   29.5560   47.6170 S   0  0  0  0  0  0  0  0  0  0  0  0
   58.7050   28.2100   47.7070 C   0  0  0  0  0  0  0  0  0  0  0  0
   57.9860   28.0520   46.3960 C   0  0  0  0  0  0  0  0  0  0  0  0
   58.1600   26.9940   45.7360 O   0  0  0  0  0  0  0  0  0  0  0  0
   57.0190   29.0020   45.9270 N   0  0  0  0  0  0  0  0  0  0  0  0
   57.1610   29.9030   44.8220 C   0  0  0  0  0  0  0  0  0  0  0  0
   57.9980   31.0300   44.8950 C   0  0  0  0  0  0  0  0  0  0  0  0
   58.1210   31.8840   43.7950 C   0  0  0  0  0  0  0  0  0  0  0  0
   57.4320   31.6060   42.6110 C   0  0  0  0  0  0  0  0  0  0  0  0
   57.5500   32.4380   41.5460 F   0  0  0  0  0  0  0  0  0  0  0  0
   56.6350   30.4610   42.5190 C   0  0  0  0  0  0  0  0  0  0  0  0
   56.5130   29.6050   43.6170 C   0  0  0  0  0  0  0  0  0  0  0  0
   58.3620   29.8630   49.8220 N   0  0  0  0  0  0  0  0  0  0  0  0
   57.8580   30.5440   50.8740 C   0  0  0  0  0  0  0  0  0  0  0  0
   57.0120   30.0740   51.8040 N   0  0  0  0  0  0  0  0  0  0  0  0
   56.7960   31.0720   52.6580 N   0  0  0  0  0  0  0  0  0  0  0  0
   57.5030   32.1610   52.2670 C   0  0  0  0  0  0  0  0  0  0  0  0
   58.1880   31.8290   51.1240 C   0  0  0  0  0  0  0  0  0  0  0  0
   59.0620   32.5030   50.2890 C   0  0  0  0  0  0  0  0  0  0  0  0
   59.3580   33.7090   50.5160 O   0  0  0  0  0  0  0  0  0  0  0  0
   57.0341   34.7813   46.5385 H   0  0  0  0  0  0  0  0  0  0  0  0
   58.5568   34.7753   45.5855 H   0  0  0  0  0  0  0  0  0  0  0  0
   57.4916   33.3289   45.5855 H   0  0  0  0  0  0  0  0  0  0  0  0
   60.4600   34.7675   45.7217 H   0  0  0  0  0  0  0  0  0  0  0  0
   62.9110   34.3441   45.8663 H   0  0  0  0  0  0  0  0  0  0  0  0
   63.8137   32.7831   47.5897 H   0  0  0  0  0  0  0  0  0  0  0  0
   62.2624   31.6217   49.1573 H   0  0  0  0  0  0  0  0  0  0  0  0
   59.2185   27.2686   47.9519 H   0  0  0  0  0  0  0  0  0  0  0  0
   57.9678   28.4589   48.4845 H   0  0  0  0  0  0  0  0  0  0  0  0
   58.5569   31.2402   45.8188 H   0  0  0  0  0  0  0  0  0  0  0  0
   58.7610   32.7762   43.8613 H   0  0  0  0  0  0  0  0  0  0  0  0
   56.1041   30.2340   41.5827 H   0  0  0  0  0  0  0  0  0  0  0  0
   55.9047   28.6923   43.5342 H   0  0  0  0  0  0  0  0  0  0  0  0
   57.5241   33.1365   52.7749 H   0  0  0  0  0  0  0  0  0  0  0  0
  1  2  1  0
  2  3  1  0
  3  4  2  0
  4  5  1  0
  5  6  2  0
  6  7  1  0
  7  8  2  0
  8  9  1  0
  9 10  1  0
 10 11  1  0
 11 12  1  0
 12 13  1  0
 13 14  2  0
 13 15  1  0
 15 16  1  0
 16 17  2  0
 17 18  1  0
 18 19  2  0
 19 20  1  0
 19 21  1  0
 21 22  2  0
 10 23  2  0
 23 24  1  0
 24 25  1  0
 25 26  1  0
 26 27  2  0
 27 28  1  0
 28 29  1  0
 29 30  2  0
  8  3  1  0
 29  9  1  0
 22 16  1  0
 28 24  2  0
  1 31  1  0
  1 32  1  0
  1 33  1  0
  4 34  1  0
  5 35  1  0
  6 36  1  0
  7 37  1  0
 12 38  1  0
 12 39  1  0
 17 40  1  0
 18 41  1  0
 21 42  1  0
 22 43  1  0
 27 44  1  0
M  CHG  2  15  -1  25  -1
M  END
>  <UniqueID>  (33) 
32

>  <SMILES>  (33) 
COc1ccccc1-n1c(SCC(=O)[N-]c2ccc(F)cc2)nc2[n-]ncc2c1=O

>  <Energy>  (33) 
95.5436389610348

>  <Genealogy>  (33) 
COc1ccccc1-n1c(SCC(=O)[N-]c2ccc(F)cc2)nc2[n-]ncc2c1=O (protonated)
COc1ccccc1-n1c(SCC(=O)[N-]c2ccc(F)cc2)nc2[n-]ncc2c1=O (3D coordinates assigned)
COc1ccccc1-n1c(SCC(=O)[N-]c2ccc(F)cc2)nc2[n-]ncc2c1=O (optimized conformer: 95.5436389610348 kcal/mol)

>  <smiles>  (33) 
COc1ccccc1-n1c(SCC(=O)Nc2ccc(F)cc2)nc2[nH]ncc2c1=O

>  <score_type>  (33) 
oracle

>  <origin>  (33) 
adg

>  <m_score__min__energy>  (33) 
-10.43

>  <m_primary>  (33) 
energy

$$$$
33:0
     RDKit          3D

 29 30  0  0  1  0  0  0  0  0999 V2000
   59.2870   28.3820   44.7190 C   0  0  0  0  0  0  0  0  0  0  0  0
   58.0900   28.4300   44.9390 C   0  0  0  0  0  0  0  0  0  0  0  0
   56.6570   28.5080   45.2180 C   0  0  0  0  0  0  0  0  0  0  0  0
   55.9860   29.5140   44.4340 N   0  0  0  0  0  0  0  0  0  0  0  0
   56.6320   30.5750   44.1050 C   0  0  0  0  0  0  0  0  0  0  0  0
   56.7230   30.8620   42.7940 N   0  0  0  0  0  0  0  0  0  0  0  0
   57.3960   31.9720   42.4110 C   0  0  0  0  0  0  0  0  0  0  0  0
   57.5240   32.3330   40.9550 C   0  0  0  0  0  0  0  0  0  0  0  0
   57.9770   32.7850   43.3930 C   0  0  0  0  0  0  0  0  0  0  0  0
   57.8820   32.4890   44.7350 C   0  0  0  0  0  0  0  0  0  0  0  0
   58.4890   33.3410   45.7440 C   0  0  0  0  0  0  0  0  0  0  0  0
   58.5190   33.0080   47.0940 C   0  0  0  0  0  0  0  0  0  0  0  0
   59.0990   33.8260   48.0440 C   0  0  0  0  0  0  0  0  0  0  0  0
   59.6580   34.9790   47.6940 N   0  0  0  0  0  0  0  0  0  0  0  0
   59.6560   35.3520   46.3880 C   0  0  0  0  0  0  0  0  0  0  0  0
   59.0740   34.5400   45.4070 C   0  0  0  0  0  0  0  0  0  0  0  0
   57.1990   31.3710   45.0550 N   0  0  0  0  0  0  0  0  0  0  0  0
   60.3680   28.3386   44.5203 H   0  0  0  0  0  0  0  0  0  0  0  0
   56.2030   27.5307   44.9974 H   0  0  0  0  0  0  0  0  0  0  0  0
   56.5418   28.7839   46.2766 H   0  0  0  0  0  0  0  0  0  0  0  0
   57.8903   33.3662   40.8642 H   0  0  0  0  0  0  0  0  0  0  0  0
   58.2341   31.6481   40.4685 H   0  0  0  0  0  0  0  0  0  0  0  0
   56.5411   32.2484   40.4685 H   0  0  0  0  0  0  0  0  0  0  0  0
   58.5255   33.6867   43.0831 H   0  0  0  0  0  0  0  0  0  0  0  0
   58.0647   32.0596   47.4167 H   0  0  0  0  0  0  0  0  0  0  0  0
   59.0979   33.5197   49.1005 H   0  0  0  0  0  0  0  0  0  0  0  0
   60.1186   36.3065   46.0966 H   0  0  0  0  0  0  0  0  0  0  0  0
   59.0845   34.8640   44.3558 H   0  0  0  0  0  0  0  0  0  0  0  0
   57.0730   31.0660   46.0270 H   0  0  0  0  0  0  0  0  0  0  0  0
  1  2  3  0
  2  3  1  0
  3  4  1  0
  4  5  2  0
  5  6  1  0
  6  7  2  0
  7  8  1  0
  7  9  1  0
  9 10  2  0
 10 11  1  0
 11 12  2  0
 12 13  1  0
 13 14  2  0
 14 15  1  0
 15 16  2  0
 10 17  1  0
 17  5  1  0
 16 11  1  0
  1 18  1  0
  3 19  1  0
  3 20  1  0
  8 21  1  0
  8 22  1  0
  8 23  1  0
  9 24  1  0
 12 25  1  0
 13 26  1  0
 15 27  1  0
 16 28  1  0
 17 29  1  0
M  END
>  <smiles>  (34) 
C#CCN=c1nc(C)cc(-c2ccncc2)[nH]1

>  <score_type>  (34) 
oracle

>  <origin>  (34) 
adg

>  <m_score__min__energy>  (34) 
-6.1299999999999999

>  <m_primary>  (34) 
energy

$$$$
34:0
     RDKit          3D

 47 50  0  0  0  0  0  0  0  0999 V2000
   59.5090   29.7850   46.3090 C   0  0  0  0  0  0  0  0  0  0  0  0
   58.5770   30.2150   45.2230 C   0  0  0  0  0  0  0  0  0  0  0  0
   57.8600   29.3440   44.4840 N   0  0  0  0  0  0  0  0  0  0  0  0
   57.1420   30.0500   43.6250 N   0  0  0  0  0  0  0  0  0  0  0  0
   56.1880   29.4690   42.6920 C   0  0  0  0  0  0  0  0  0  0  0  0
   57.3650   31.3650   43.8030 C   0  0  0  0  0  0  0  0  0  0  0  0
   58.2940   31.5150   44.8160 C   0  0  0  0  0  0  0  0  0  0  0  0
   58.8350   32.7910   45.3330 C   0  0  0  0  0  0  0  0  0  0  0  0
   59.2440   33.9040   44.6050 C   0  0  0  0  0  0  0  0  0  0  0  0
   59.6550   34.8880   45.4450 N   0  0  0  0  0  0  0  0  0  0  0  0
   59.4850   34.3460   46.6680 C   0  0  0  0  0  0  0  0  0  0  0  0
   59.7710   34.9480   47.8860 C   0  0  0  0  0  0  0  0  0  0  0  0
   59.5280   34.1990   49.0480 C   0  0  0  0  0  0  0  0  0  0  0  0
   59.0170   32.8800   48.9480 C   0  0  0  0  0  0  0  0  0  0  0  0
   58.7510   32.0840   50.1230 N   0  0  0  0  0  0  0  0  0  0  0  0
   58.8180   32.7170   51.4520 C   0  0  0  0  0  0  0  0  0  0  0  0
   57.4700   32.6490   52.2010 C   0  0  0  0  0  0  0  0  0  0  0  0
   57.2290   31.3400   52.9740 C   0  0  0  0  0  0  0  0  0  0  0  0
   57.2120   30.1420   52.1040 N   0  0  0  0  0  0  0  0  0  0  0  0
   56.8130   28.9590   52.8850 C   0  0  0  0  0  0  0  0  0  0  0  0
   58.4620   29.8860   51.3420 C   0  0  0  0  0  0  0  0  0  0  0  0
   58.5530   30.6280   49.9890 C   0  0  0  0  0  0  0  0  0  0  0  0
   58.7670   32.3640   47.7080 N   0  0  0  0  0  0  0  0  0  0  0  0
   58.9980   33.1030   46.6260 N   0  0  0  0  0  0  0  0  0  0  0  0
   59.0533   29.9952   47.2878 H   0  0  0  0  0  0  0  0  0  0  0  0
   59.7036   28.7061   46.2193 H   0  0  0  0  0  0  0  0  0  0  0  0
   60.4562   30.3371   46.2193 H   0  0  0  0  0  0  0  0  0  0  0  0
   55.3798   28.9768   43.2529 H   0  0  0  0  0  0  0  0  0  0  0  0
   55.7644   30.2626   42.0590 H   0  0  0  0  0  0  0  0  0  0  0  0
   56.6987   28.7284   42.0590 H   0  0  0  0  0  0  0  0  0  0  0  0
   56.8896   32.1810   43.2391 H   0  0  0  0  0  0  0  0  0  0  0  0
   59.2355   33.9761   43.5074 H   0  0  0  0  0  0  0  0  0  0  0  0
   60.1720   35.9710   47.9383 H   0  0  0  0  0  0  0  0  0  0  0  0
   59.7340   34.6353   50.0365 H   0  0  0  0  0  0  0  0  0  0  0  0
   59.5824   32.2011   52.0516 H   0  0  0  0  0  0  0  0  0  0  0  0
   59.0699   33.7780   51.3075 H   0  0  0  0  0  0  0  0  0  0  0  0
   57.4342   33.4821   52.9184 H   0  0  0  0  0  0  0  0  0  0  0  0
   56.6846   32.7053   51.4329 H   0  0  0  0  0  0  0  0  0  0  0  0
   58.0309   31.2206   53.7174 H   0  0  0  0  0  0  0  0  0  0  0  0
   56.2372   31.4163   53.4437 H   0  0  0  0  0  0  0  0  0  0  0  0
   56.8894   29.1856   53.9587 H   0  0  0  0  0  0  0  0  0  0  0  0
   55.7747   28.6909   52.6398 H   0  0  0  0  0  0  0  0  0  0  0  0
   57.4768   28.1168   52.6398 H   0  0  0  0  0  0  0  0  0  0  0  0
   59.3134   30.2000   51.9637 H   0  0  0  0  0  0  0  0  0  0  0  0
   58.4714   28.8108   51.1097 H   0  0  0  0  0  0  0  0  0  0  0  0
   59.3993   30.2132   49.4217 H   0  0  0  0  0  0  0  0  0  0  0  0
   57.5912   30.4803   49.4761 H   0  0  0  0  0  0  0  0  0  0  0  0
  1  2  1  0
  2  3  2  0
  3  4  1  0
  4  5  1  0
  4  6  1  0
  6  7  2  0
  7  8  1  0
  8  9  2  0
  9 10  1  0
 10 11  2  0
 11 12  1  0
 12 13  2  0
 13 14  1  0
 14 15  1  0
 15 16  1  0
 16 17  1  0
 17 18  1  0
 18 19  1  0
 19 20  1  0
 19 21  1  0
 21 22  1  0
 14 23  2  0
 23 24  1  0
  7  2  1  0
 24  8  1  0
 24 11  1  0
 22 15  1  0
  1 25  1  0
  1 26  1  0
  1 27  1  0
  5 28  1  0
  5 29  1  0
  5 30  1  0
  6 31  1  0
  9 32  1  0
 12 33  1  0
 13 34  1  0
 16 35  1  0
 16 36  1  0
 17 37  1  0
 17 38  1  0
 18 39  1  0
 18 40  1  0
 20 41  1  0
 20 42  1  0
 20 43  1  0
 21 44  1  0
 21 45  1  0
 22 46  1  0
 22 47  1  0
M  END
>  <UniqueID>  (35) 
33

>  <SMILES>  (35) 
Cc1nn(C)cc1-c1cnc2ccc(N3CCCN(C)CC3)nn12

>  <Energy>  (35) 
129.19573444881667

>  <Genealogy>  (35) 
Cc1nn(C)cc1-c1cnc2ccc(N3CCCN(C)CC3)nn12 (3D coordinates assigned)
Cc1nn(C)cc1-c1cnc2ccc(N3CCCN(C)CC3)nn12 (nonaromatic ring conformer: 129.19573444881667 kcal/mol)

>  <smiles>  (35) 
Cc1nn(C)cc1-c1cnc2ccc(N3CCCN(C)CC3)nn12

>  <score_type>  (35) 
oracle

>  <origin>  (35) 
adg

>  <m_score__min__energy>  (35) 
-5.8099999999999996

>  <m_primary>  (35) 
energy

$$$$
35:0
     RDKit          3D

 51 53  0  0  0  0  0  0  0  0999 V2000
   60.7490   30.5000   49.0140 C   0  0  0  0  0  0  0  0  0  0  0  0
   59.2630   30.8300   48.9290 C   0  0  0  0  0  0  0  0  0  0  0  0
   58.8600   30.9590   47.5670 O   0  0  0  0  0  0  0  0  0  0  0  0
   59.5180   30.3280   46.5050 C   0  0  0  0  0  0  0  0  0  0  0  0
   60.5390   30.8660   45.9950 O   0  0  0  0  0  0  0  0  0  0  0  0
   59.0260   29.0290   45.9770 C   0  0  0  0  0  0  0  0  0  0  0  0
   59.8160   27.8740   46.1400 C   0  0  0  0  0  0  0  0  0  0  0  0
   59.3560   26.6290   45.7050 C   0  0  0  0  0  0  0  0  0  0  0  0
   58.1000   26.5130   45.1160 C   0  0  0  0  0  0  0  0  0  0  0  0
   57.2980   27.6450   44.9500 C   0  0  0  0  0  0  0  0  0  0  0  0
   57.7510   28.9110   45.3730 C   0  0  0  0  0  0  0  0  0  0  0  0
   56.9520   30.0570   45.2190 O   0  0  0  0  0  0  0  0  0  0  0  0
   56.6430   30.6840   43.9740 C   0  0  0  0  0  0  0  0  0  0  0  0
   57.3960   31.9830   43.8340 C   0  0  0  0  0  0  0  0  0  0  0  0
   57.4220   32.5390   42.7440 O   0  0  0  0  0  0  0  0  0  0  0  0
   58.1050   32.5540   44.9640 N   0  0  0  0  0  0  0  0  0  0  0  0
   57.1570   33.1940   45.8960 C   0  0  0  0  0  0  0  0  0  0  0  0
   57.8740   33.5510   47.2040 C   0  0  0  0  0  0  0  0  0  0  0  0
   59.2450   34.0060   46.9430 N   0  0  0  0  0  0  0  0  0  0  0  0
   60.1260   34.2280   48.0570 C   0  0  0  0  0  0  0  0  0  0  0  0
   59.6580   34.6740   49.1390 O   0  0  0  0  0  0  0  0  0  0  0  0
   61.5590   33.8950   47.9750 C   0  0  0  0  0  0  0  0  0  0  0  0
   62.4320   33.8110   49.0430 C   0  0  0  0  0  0  0  0  0  0  0  0
   63.6480   33.4460   48.5020 C   0  0  0  0  0  0  0  0  0  0  0  0
   63.4430   33.3280   47.1440 C   0  0  0  0  0  0  0  0  0  0  0  0
   62.1900   33.6030   46.8600 O   0  0  0  0  0  0  0  0  0  0  0  0
   59.5920   34.4970   45.6000 C   0  0  0  0  0  0  0  0  0  0  0  0
   59.1500   33.5010   44.5030 C   0  0  0  0  0  0  0  0  0  0  0  0
   61.0499   30.4332   50.0699 H   0  0  0  0  0  0  0  0  0  0  0  0
   60.9399   29.5376   48.5167 H   0  0  0  0  0  0  0  0  0  0  0  0
   61.3293   31.2912   48.5167 H   0  0  0  0  0  0  0  0  0  0  0  0
   58.6848   30.0234   49.4033 H   0  0  0  0  0  0  0  0  0  0  0  0
   59.0785   31.7823   49.4477 H   0  0  0  0  0  0  0  0  0  0  0  0
   60.8051   27.9535   46.6147 H   0  0  0  0  0  0  0  0  0  0  0  0
   59.9882   25.7373   45.8282 H   0  0  0  0  0  0  0  0  0  0  0  0
   57.7387   25.5295   44.7811 H   0  0  0  0  0  0  0  0  0  0  0  0
   56.3056   27.5475   44.4857 H   0  0  0  0  0  0  0  0  0  0  0  0
   56.9254   30.0116   43.1505 H   0  0  0  0  0  0  0  0  0  0  0  0
   55.5637   30.8937   43.9402 H   0  0  0  0  0  0  0  0  0  0  0  0
   58.5880   31.7780   45.4770 H   0  0  0  0  0  0  0  0  0  0  0  0
   56.7566   34.1102   45.4374 H   0  0  0  0  0  0  0  0  0  0  0  0
   56.3340   32.4969   46.1120 H   0  0  0  0  0  0  0  0  0  0  0  0
   57.3187   34.3536   47.7115 H   0  0  0  0  0  0  0  0  0  0  0  0
   57.9166   32.6529   47.8377 H   0  0  0  0  0  0  0  0  0  0  0  0
   62.2050   33.9964   50.1032 H   0  0  0  0  0  0  0  0  0  0  0  0
   64.5906   33.2823   49.0449 H   0  0  0  0  0  0  0  0  0  0  0  0
   64.2118   33.0463   46.4095 H   0  0  0  0  0  0  0  0  0  0  0  0
   59.0904   35.4613   45.4309 H   0  0  0  0  0  0  0  0  0  0  0  0
   60.6848   34.6101   45.5446 H   0  0  0  0  0  0  0  0  0  0  0  0
   58.7535   34.0722   43.6506 H   0  0  0  0  0  0  0  0  0  0  0  0
   60.0325   32.9060   44.2251 H   0  0  0  0  0  0  0  0  0  0  0  0
  1  2  1  0
  2  3  1  0
  3  4  1  0
  4  5  2  0
  4  6  1  0
  6  7  2  0
  7  8  1  0
  8  9  2  0
  9 10  1  0
 10 11  2  0
 11 12  1  0
 12 13  1  0
 13 14  1  0
 14 15  2  0
 14 16  1  0
 16 17  1  0
 17 18  1  0
 18 19  1  0
 19 20  1  0
 20 21  2  0
 20 22  1  0
 22 23  2  0
 23 24  1  0
 24 25  2  0
 25 26  1  0
 19 27  1  0
 27 28  1  0
 11  6  1  0
 28 16  1  0
 26 22  1  0
  1 29  1  0
  1 30  1  0
  1 31  1  0
  2 32  1  0
  2 33  1  0
  7 34  1  0
  8 35  1  0
  9 36  1  0
 10 37  1  0
 13 38  1  0
 13 39  1  0
 16 40  1  0
 17 41  1  0
 17 42  1  0
 18 43  1  0
 18 44  1  0
 23 45  1  0
 24 46  1  0
 25 47  1  0
 27 48  1  0
 27 49  1  0
 28 50  1  0
 28 51  1  0
M  CHG  1  16   1
M  END
>  <UniqueID>  (36) 
34

>  <SMILES>  (36) 
CCOC(=O)c1ccccc1OCC(=O)[NH+]1CCN(C(=O)c2ccco2)CC1

>  <Energy>  (36) 
80.60418118534447

>  <Genealogy>  (36) 
CCOC(=O)c1ccccc1OCC(=O)[NH+]1CCN(C(=O)c2ccco2)CC1 (protonated)
CCOC(=O)c1ccccc1OCC(=O)[NH+]1CCN(C(=O)c2ccco2)CC1 (3D coordinates assigned)
CCOC(=O)c1ccccc1OCC(=O)[NH+]1CCN(C(=O)c2ccco2)CC1 (nonaromatic ring conformer: 80.60418118534447 kcal/mol)

>  <smiles>  (36) 
CCOC(=O)c1ccccc1OCC(=O)N1CCN(C(=O)c2ccco2)CC1

>  <score_type>  (36) 
oracle

>  <origin>  (36) 
adg

>  <m_score__min__energy>  (36) 
-5.7599999999999998

>  <m_primary>  (36) 
energy

$$$$
36:0
     RDKit          3D

 37 39  0  0  0  0  0  0  0  0999 V2000
   55.9880   29.5790   44.2440 C   0  0  0  0  0  0  0  0  0  0  0  0
   55.8970   28.5700   45.2430 O   0  0  0  0  0  0  0  0  0  0  0  0
   56.9480   27.7130   45.6110 C   0  0  0  0  0  0  0  0  0  0  0  0
   56.9900   26.3630   45.2080 C   0  0  0  0  0  0  0  0  0  0  0  0
   58.0570   25.5310   45.5900 C   0  0  0  0  0  0  0  0  0  0  0  0
   58.1170   24.1080   45.1730 C   0  0  0  0  0  0  0  0  0  0  0  0
   59.0190   23.1480   45.5980 C   0  0  0  0  0  0  0  0  0  0  0  0
   58.7240   21.9960   44.9800 N   0  0  0  0  0  0  0  0  0  0  0  0
   57.6620   22.2650   44.2000 C   0  0  0  0  0  0  0  0  0  0  0  0
   57.2610   23.5500   44.2910 N   0  0  0  0  0  0  0  0  0  0  0  0
   59.0820   26.0670   46.3860 C   0  0  0  0  0  0  0  0  0  0  0  0
   59.0460   27.4020   46.7890 C   0  0  0  0  0  0  0  0  0  0  0  0
   57.9810   28.2360   46.4020 C   0  0  0  0  0  0  0  0  0  0  0  0
   57.9090   29.5880   46.7820 O   0  0  0  0  0  0  0  0  0  0  0  0
   58.9900   30.5200   46.7330 C   0  0  0  0  0  0  0  0  0  0  0  0
   58.5480   31.8200   46.1160 C   0  0  0  0  0  0  0  0  0  0  0  0
   58.1870   31.8810   44.7590 C   0  0  0  0  0  0  0  0  0  0  0  0
   57.7860   33.0940   44.1910 C   0  0  0  0  0  0  0  0  0  0  0  0
   57.7520   34.2550   44.9690 C   0  0  0  0  0  0  0  0  0  0  0  0
   58.1210   34.2050   46.3150 C   0  0  0  0  0  0  0  0  0  0  0  0
   58.5230   32.9940   46.8870 C   0  0  0  0  0  0  0  0  0  0  0  0
   56.0769   30.5643   44.7250 H   0  0  0  0  0  0  0  0  0  0  0  0
   56.8733   29.3957   43.6173 H   0  0  0  0  0  0  0  0  0  0  0  0
   55.0842   29.5571   43.6173 H   0  0  0  0  0  0  0  0  0  0  0  0
   56.1784   25.9556   44.5873 H   0  0  0  0  0  0  0  0  0  0  0  0
   59.8360   23.3036   46.3179 H   0  0  0  0  0  0  0  0  0  0  0  0
   59.2150   21.0810   45.0830 H   0  0  0  0  0  0  0  0  0  0  0  0
   57.1731   21.5181   43.5573 H   0  0  0  0  0  0  0  0  0  0  0  0
   59.9221   25.4276   46.6950 H   0  0  0  0  0  0  0  0  0  0  0  0
   59.8562   27.8057   47.4140 H   0  0  0  0  0  0  0  0  0  0  0  0
   59.3491   30.7098   47.7553 H   0  0  0  0  0  0  0  0  0  0  0  0
   59.7954   30.0934   46.1171 H   0  0  0  0  0  0  0  0  0  0  0  0
   58.2201   30.9712   44.1417 H   0  0  0  0  0  0  0  0  0  0  0  0
   57.4969   33.1349   43.1305 H   0  0  0  0  0  0  0  0  0  0  0  0
   57.4345   35.2081   44.5209 H   0  0  0  0  0  0  0  0  0  0  0  0
   58.0954   35.1194   46.9260 H   0  0  0  0  0  0  0  0  0  0  0  0
   58.8210   32.9605   47.9453 H   0  0  0  0  0  0  0  0  0  0  0  0
  1  2  1  0
  2  3  1  0
  3  4  2  0
  4  5  1  0
  5  6  1  0
  6  7  2  0
  7  8  1  0
  8  9  1  0
  9 10  2  0
  5 11  2  0
 11 12  1  0
 12 13  2  0
 13 14  1  0
 14 15  1  0
 15 16  1  0
 16 17  2  0
 17 18  1  0
 18 19  2  0
 19 20  1  0
 20 21  2  0
 13  3  1  0
 21 16  1  0
 10  6  1  0
  1 22  1  0
  1 23  1  0
  1 24  1  0
  4 25  1  0
  7 26  1  0
  8 27  1  0
  9 28  1  0
 11 29  1  0
 12 30  1  0
 15 31  1  0
 15 32  1  0
 17 33  1  0
 18 34  1  0
 19 35  1  0
 20 36  1  0
 21 37  1  0
M  END
>  <UniqueID>  (37) 
35

>  <SMILES>  (37) 
COc1cc(-c2c[nH]cn2)ccc1OCc1ccccc1

>  <Energy>  (37) 
68.8978709344717

>  <Genealogy>  (37) 
COc1cc(-c2c[nH]cn2)ccc1OCc1ccccc1 (3D coordinates assigned)
COc1cc(-c2c[nH]cn2)ccc1OCc1ccccc1 (optimized conformer: 68.8978709344717 kcal/mol)

>  <smiles>  (37) 
COc1cc(-c2c[nH]cn2)ccc1OCc1ccccc1

>  <score_type>  (37) 
oracle

>  <origin>  (37) 
adg

>  <m_score__min__energy>  (37) 
-6.9299999999999997

>  <m_primary>  (37) 
energy

$$$$
37:0
     RDKit          3D

 40 41  0  0  0  0  0  0  0  0999 V2000
   58.2040   33.5080   44.6940 C   0  0  0  0  0  0  0  0  0  0  0  0
   57.0650   32.6970   45.3070 C   0  0  0  0  0  0  0  0  0  0  0  0
   57.2910   31.2470   45.1080 N   0  0  0  0  0  0  0  0  0  0  0  0
   56.7340   30.7890   43.8140 C   0  0  0  0  0  0  0  0  0  0  0  0
   55.5410   29.8640   44.0450 C   0  0  0  0  0  0  0  0  0  0  0  0
   58.7280   30.8930   45.2410 C   0  0  0  0  0  0  0  0  0  0  0  0
   59.0180   29.5660   44.5330 C   0  0  0  0  0  0  0  0  0  0  0  0
   59.1950   28.4370   45.5050 C   0  0  0  0  0  0  0  0  0  0  0  0
   60.3860   28.0340   46.0990 C   0  0  0  0  0  0  0  0  0  0  0  0
   60.1870   26.9320   46.8570 N   0  0  0  0  0  0  0  0  0  0  0  0
   58.8810   26.6340   46.7420 C   0  0  0  0  0  0  0  0  0  0  0  0
   58.2050   25.5650   47.3250 C   0  0  0  0  0  0  0  0  0  0  0  0
   56.8330   25.4260   47.0490 C   0  0  0  0  0  0  0  0  0  0  0  0
   56.1640   26.3410   46.2030 C   0  0  0  0  0  0  0  0  0  0  0  0
   54.7970   26.1450   45.9630 O   0  0  0  0  0  0  0  0  0  0  0  0
   54.2150   24.8910   45.6200 C   0  0  0  0  0  0  0  0  0  0  0  0
   56.8840   27.4160   45.6270 C   0  0  0  0  0  0  0  0  0  0  0  0
   58.2420   27.5290   45.9250 C   0  0  0  0  0  0  0  0  0  0  0  0
   58.8168   33.9443   45.4966 H   0  0  0  0  0  0  0  0  0  0  0  0
   58.8289   32.8504   44.0719 H   0  0  0  0  0  0  0  0  0  0  0  0
   57.7870   34.3136   44.0719 H   0  0  0  0  0  0  0  0  0  0  0  0
   57.0093   32.9095   46.3848 H   0  0  0  0  0  0  0  0  0  0  0  0
   56.1232   32.9798   44.8140 H   0  0  0  0  0  0  0  0  0  0  0  0
   56.4076   31.6625   43.2305 H   0  0  0  0  0  0  0  0  0  0  0  0
   57.5121   30.2374   43.2660 H   0  0  0  0  0  0  0  0  0  0  0  0
   55.3785   29.7380   45.1256 H   0  0  0  0  0  0  0  0  0  0  0  0
   54.6422   30.3036   43.5879 H   0  0  0  0  0  0  0  0  0  0  0  0
   55.7429   28.8841   43.5879 H   0  0  0  0  0  0  0  0  0  0  0  0
   59.3404   31.6868   44.7884 H   0  0  0  0  0  0  0  0  0  0  0  0
   58.9730   30.7893   46.3084 H   0  0  0  0  0  0  0  0  0  0  0  0
   58.1778   29.3297   43.8635 H   0  0  0  0  0  0  0  0  0  0  0  0
   59.9560   29.6795   43.9698 H   0  0  0  0  0  0  0  0  0  0  0  0
   61.3540   28.5405   45.9703 H   0  0  0  0  0  0  0  0  0  0  0  0
   60.9070   26.4110   47.4050 H   0  0  0  0  0  0  0  0  0  0  0  0
   58.7273   24.8524   47.9802 H   0  0  0  0  0  0  0  0  0  0  0  0
   56.2718   24.5932   47.4978 H   0  0  0  0  0  0  0  0  0  0  0  0
   53.9600   24.3417   46.5383 H   0  0  0  0  0  0  0  0  0  0  0  0
   53.3031   25.0596   45.0284 H   0  0  0  0  0  0  0  0  0  0  0  0
   54.9324   24.3034   45.0284 H   0  0  0  0  0  0  0  0  0  0  0  0
   56.3872   28.1401   44.9645 H   0  0  0  0  0  0  0  0  0  0  0  0
  1  2  1  0
  2  3  1  0
  3  4  1  0
  4  5  1  0
  3  6  1  0
  6  7  1  0
  7  8  1  0
  8  9  2  0
  9 10  1  0
 10 11  1  0
 11 12  2  0
 12 13  1  0
 13 14  2  0
 14 15  1  0
 15 16  1  0
 14 17  1  0
 17 18  2  0
 18  8  1  0
 18 11  1  0
  1 19  1  0
  1 20  1  0
  1 21  1  0
  2 22  1  0
  2 23  1  0
  4 24  1  0
  4 25  1  0
  5 26  1  0
  5 27  1  0
  5 28  1  0
  6 29  1  0
  6 30  1  0
  7 31  1  0
  7 32  1  0
  9 33  1  0
 10 34  1  0
 12 35  1  0
 13 36  1  0
 16 37  1  0
 16 38  1  0
 16 39  1  0
 17 40  1  0
M  END
>  <UniqueID>  (38) 
36

>  <SMILES>  (38) 
CCN(CC)CCc1c[nH]c2ccc(OC)cc12

>  <Energy>  (38) 
67.24962888657942

>  <Genealogy>  (38) 
CCN(CC)CCc1c[nH]c2ccc(OC)cc12 (3D coordinates assigned)
CCN(CC)CCc1c[nH]c2ccc(OC)cc12 (optimized conformer: 67.24962888657942 kcal/mol)

>  <smiles>  (38) 
CCN(CC)CCc1c[nH]c2ccc(OC)cc12

>  <score_type>  (38) 
oracle

>  <origin>  (38) 
adg

>  <m_score__min__energy>  (38) 
-6.5099999999999998

>  <m_primary>  (38) 
energy

$$$$
38:0
     RDKit          3D

 64 67  0  0  0  0  0  0  0  0999 V2000
   58.7181   35.4570   46.8761 H   0  0  0  0  0  0  0  0  0  0  0  0
   58.5450   34.4490   46.4710 C   0  0  0  0  0  0  0  0  0  0  0  0
   57.2080   33.9660   45.5670 S   0  0  0  0  0  0  0  0  0  0  0  0
   57.7570   32.3910   45.4140 C   0  0  0  0  0  0  0  0  0  0  0  0
   57.1270   31.4730   44.7440 N   0  0  0  0  0  0  0  0  0  0  0  0
   57.3800   30.0590   44.7880 C   0  0  0  0  0  0  0  0  0  0  0  0
   58.6450   29.5200   44.4860 C   0  0  0  0  0  0  0  0  0  0  0  0
   59.4644   30.1844   44.1745 H   0  0  0  0  0  0  0  0  0  0  0  0
   58.8620   28.1430   44.5810 C   0  0  0  0  0  0  0  0  0  0  0  0
   59.8469   27.7244   44.3267 H   0  0  0  0  0  0  0  0  0  0  0  0
   57.8320   27.2960   44.9980 C   0  0  0  0  0  0  0  0  0  0  0  0
   58.0071   26.2117   45.0587 H   0  0  0  0  0  0  0  0  0  0  0  0
   56.5790   27.8180   45.3390 C   0  0  0  0  0  0  0  0  0  0  0  0
   55.5860   26.9310   45.7850 O   0  0  0  0  0  0  0  0  0  0  0  0
   55.7340   25.5150   45.8240 C   0  0  0  0  0  0  0  0  0  0  0  0
   55.7692   25.1787   46.8707 H   0  0  0  0  0  0  0  0  0  0  0  0
   54.8803   25.0430   45.3157 H   0  0  0  0  0  0  0  0  0  0  0  0
   56.6669   25.2297   45.3157 H   0  0  0  0  0  0  0  0  0  0  0  0
   56.3600   29.2060   45.2340 C   0  0  0  0  0  0  0  0  0  0  0  0
   55.3794   29.6246   45.5045 H   0  0  0  0  0  0  0  0  0  0  0  0
   58.9500   32.2090   46.0210 N   0  0  0  0  0  0  0  0  0  0  0  0
   59.3990   33.3480   46.6190 C   0  0  0  0  0  0  0  0  0  0  0  0
   60.6920   33.3880   47.3550 C   0  0  0  0  0  0  0  0  0  0  0  0
   61.7950   32.6300   46.9170 C   0  0  0  0  0  0  0  0  0  0  0  0
   61.6998   32.0009   46.0197 H   0  0  0  0  0  0  0  0  0  0  0  0
   63.0090   32.6670   47.6080 C   0  0  0  0  0  0  0  0  0  0  0  0
   63.8605   32.0695   47.2502 H   0  0  0  0  0  0  0  0  0  0  0  0
   63.1480   33.4630   48.7570 C   0  0  0  0  0  0  0  0  0  0  0  0
   64.3460   33.5430   49.4860 O   0  0  0  0  0  0  0  0  0  0  0  0
   64.4520   33.8310   50.8810 C   0  0  0  0  0  0  0  0  0  0  0  0
   63.9084   34.7627   51.0963 H   0  0  0  0  0  0  0  0  0  0  0  0
   65.5178   33.9335   51.1332 H   0  0  0  0  0  0  0  0  0  0  0  0
   63.8610   32.7000   51.7330 C   0  0  0  0  0  0  0  0  0  0  0  0
   62.7967   32.9089   51.9165 H   0  0  0  0  0  0  0  0  0  0  0  0
   64.4186   32.6526   52.6800 H   0  0  0  0  0  0  0  0  0  0  0  0
   63.9900   31.3330   51.0240 C   0  0  0  0  0  0  0  0  0  0  0  0
   64.5901   30.6689   51.6634 H   0  0  0  0  0  0  0  0  0  0  0  0
   64.4597   31.5279   50.0486 H   0  0  0  0  0  0  0  0  0  0  0  0
   62.7000   30.6660   50.7460 N   0  0  0  0  0  0  0  0  0  0  0  0
   61.5290   31.5340   50.9860 C   0  0  0  0  0  0  0  0  0  0  0  0
   61.4753   32.2888   50.1876 H   0  0  0  0  0  0  0  0  0  0  0  0
   61.6508   32.0090   51.9706 H   0  0  0  0  0  0  0  0  0  0  0  0
   60.2120   30.7270   51.0010 C   0  0  0  0  0  0  0  0  0  0  0  0
   59.4091   31.3516   50.5825 H   0  0  0  0  0  0  0  0  0  0  0  0
   59.9996   30.4470   52.0433 H   0  0  0  0  0  0  0  0  0  0  0  0
   60.3100   29.4800   50.2060 N   0  0  0  0  0  0  0  0  0  0  0  0
   59.3930   28.9870   50.3300 H   0  0  0  0  0  0  0  0  0  0  0  0
   60.4840   29.7720   48.7560 C   0  0  0  0  0  0  0  0  0  0  0  0
   61.0684   28.9601   48.2984 H   0  0  0  0  0  0  0  0  0  0  0  0
   61.0027   30.7378   48.6650 H   0  0  0  0  0  0  0  0  0  0  0  0
   59.1410   29.8870   48.0250 C   0  0  0  0  0  0  0  0  0  0  0  0
   58.3273   29.9567   48.7619 H   0  0  0  0  0  0  0  0  0  0  0  0
   59.1428   30.7883   47.3944 H   0  0  0  0  0  0  0  0  0  0  0  0
   58.9895   28.9985   47.3944 H   0  0  0  0  0  0  0  0  0  0  0  0
   61.3770   28.5830   50.7360 C   0  0  0  0  0  0  0  0  0  0  0  0
   61.7665   27.9757   49.9056 H   0  0  0  0  0  0  0  0  0  0  0  0
   60.9209   27.9656   51.5239 H   0  0  0  0  0  0  0  0  0  0  0  0
   62.5550   29.3460   51.3790 C   0  0  0  0  0  0  0  0  0  0  0  0
   63.4821   28.7706   51.2396 H   0  0  0  0  0  0  0  0  0  0  0  0
   62.3583   29.4785   52.4531 H   0  0  0  0  0  0  0  0  0  0  0  0
   62.0530   34.2030   49.2070 C   0  0  0  0  0  0  0  0  0  0  0  0
   62.1482   34.8158   50.1155 H   0  0  0  0  0  0  0  0  0  0  0  0
   60.8360   34.1750   48.5170 C   0  0  0  0  0  0  0  0  0  0  0  0
   59.8130   34.9340   48.9840 F   0  0  0  0  0  0  0  0  0  0  0  0
  1  2  1  0
  2  3  1  0
  3  4  1  0
  4  5  2  0
  5  6  1  0
  6  7  2  0
  7  8  1  0
  7  9  1  0
  9 10  1  0
  9 11  2  0
 11 12  1  0
 11 13  1  0
 13 14  1  0
 14 15  1  0
 15 16  1  0
 15 17  1  0
 15 18  1  0
 13 19  2  0
 19 20  1  0
  4 21  1  0
 21 22  1  0
 22 23  1  0
 23 24  2  0
 24 25  1  0
 24 26  1  0
 26 27  1  0
 26 28  2  0
 28 29  1  0
 29 30  1  0
 30 31  1  0
 30 32  1  0
 30 33  1  0
 33 34  1  0
 33 35  1  0
 33 36  1  0
 36 37  1  0
 36 38  1  0
 36 39  1  0
 39 40  1  0
 40 41  1  0
 40 42  1  0
 40 43  1  0
 43 44  1  0
 43 45  1  0
 43 46  1  0
 46 47  1  0
 46 48  1  0
 48 49  1  0
 48 50  1  0
 48 51  1  0
 51 52  1  0
 51 53  1  0
 51 54  1  0
 46 55  1  0
 55 56  1  0
 55 57  1  0
 55 58  1  0
 58 59  1  0
 58 60  1  0
 28 61  1  0
 61 62  1  0
 61 63  2  0
 63 64  1  0
 22  2  2  0
 63 23  1  0
 19  6  1  0
 58 39  1  0
M  CHG  2  21  -1  46   1
M  END
>  <UniqueID>  (39) 
37

>  <SMILES>  (39) 
CC[NH+]1CCN(CCCOc2ccc(-c3cs/c(=N/c4cccc(OC)c4)[n-]3)c(F)c2)CC1

>  <Energy>  (39) 
115.97152395388122

>  <Genealogy>  (39) 
CC[NH+]1CCN(CCCOc2ccc(-c3csc(=Nc4cccc(OC)c4)[n-]3)c(F)c2)CC1 (protonated)
CC[NH+]1CCN(CCCOc2ccc(-c3cs/c(=N/c4cccc(OC)c4)[n-]3)c(F)c2)CC1 (cis-trans isomerization)
CC[NH+]1CCN(CCCOc2ccc(-c3cs/c(=N/c4cccc(OC)c4)[n-]3)c(F)c2)CC1 (3D coordinates assigned)
CC[NH+]1CCN(CCCOc2ccc(-c3cs/c(=N/c4cccc(OC)c4)[n-]3)c(F)c2)CC1 (nonaromatic ring conformer: 115.97152395388122 kcal/mol)

>  <smiles>  (39) 
CCN1CCN(CCCOc2ccc(-c3csc(=Nc4cccc(OC)c4)[nH]3)c(F)c2)CC1

>  <score_type>  (39) 
oracle

>  <origin>  (39) 
adg

>  <m_score__min__energy>  (39) 
-10

>  <m_primary>  (39) 
energy

$$$$
39:0
     RDKit          3D

 68 71  0  0  0  0  0  0  0  0999 V2000
   58.3570   32.6110   41.6320 C   0  0  0  0  0  0  0  0  0  0  0  0
   57.3320   31.6290   42.2250 C   0  0  0  0  0  0  0  0  0  0  0  0
   57.1330   31.7530   43.6920 N   0  0  0  0  0  0  0  0  0  0  0  0
   57.9360   32.8120   44.3420 C   0  0  0  0  0  0  0  0  0  0  0  0
   58.2100   32.4610   45.8120 C   0  0  0  0  0  0  0  0  0  0  0  0
   58.1780   33.6860   46.6460 N   0  0  0  0  0  0  0  0  0  0  0  0
   58.6260   33.4650   48.0420 C   0  0  0  0  0  0  0  0  0  0  0  0
   60.1210   33.7670   48.2590 C   0  0  0  0  0  0  0  0  0  0  0  0
   60.8660   33.6240   46.9970 N   0  0  0  0  0  0  0  0  0  0  0  0
   62.3210   33.7240   47.2490 C   0  0  0  0  0  0  0  0  0  0  0  0
   62.9680   32.3410   47.4260 C   0  0  0  0  0  0  0  0  0  0  0  0
   61.9570   31.2950   47.8220 C   0  0  0  0  0  0  0  0  0  0  0  0
   61.1710   30.6640   46.8410 C   0  0  0  0  0  0  0  0  0  0  0  0
   60.2380   29.6850   47.2030 C   0  0  0  0  0  0  0  0  0  0  0  0
   60.0790   29.3350   48.5480 C   0  0  0  0  0  0  0  0  0  0  0  0
   60.8550   29.9600   49.5300 C   0  0  0  0  0  0  0  0  0  0  0  0
   61.7960   30.9300   49.1700 C   0  0  0  0  0  0  0  0  0  0  0  0
   60.4150   34.6440   46.0210 C   0  0  0  0  0  0  0  0  0  0  0  0
   58.8810   34.8250   46.0250 C   0  0  0  0  0  0  0  0  0  0  0  0
   57.0280   30.4900   44.4740 C   0  0  1  0  0  0  0  0  0  0  0  0
   55.7340   29.7410   44.1220 C   0  0  0  0  0  0  0  0  0  0  0  0
   55.6000   28.5740   44.9320 O   0  0  0  0  0  0  0  0  0  0  0  0
   56.6990   27.7890   45.3030 C   0  0  0  0  0  0  0  0  0  0  0  0
   58.0120   28.2390   45.0500 C   0  0  0  0  0  0  0  0  0  0  0  0
   59.1030   27.4330   45.4020 C   0  0  0  0  0  0  0  0  0  0  0  0
   58.8930   26.2090   46.0380 C   0  0  0  0  0  0  0  0  0  0  0  0
   57.5940   25.7760   46.3200 C   0  0  0  0  0  0  0  0  0  0  0  0
   56.4860   26.5660   45.9550 C   0  0  0  0  0  0  0  0  0  0  0  0
   55.1650   26.1700   46.2210 O   0  0  0  0  0  0  0  0  0  0  0  0
   54.5280   25.0420   45.6250 C   0  0  0  0  0  0  0  0  0  0  0  0
   58.2410   29.5410   44.3240 C   0  0  0  0  0  0  0  0  0  0  0  0
   58.8900   33.1216   42.4476 H   0  0  0  0  0  0  0  0  0  0  0  0
   59.0783   32.0582   41.0122 H   0  0  0  0  0  0  0  0  0  0  0  0
   57.8356   33.3553   41.0122 H   0  0  0  0  0  0  0  0  0  0  0  0
   56.3645   31.8036   41.7316 H   0  0  0  0  0  0  0  0  0  0  0  0
   57.7303   30.6189   42.0489 H   0  0  0  0  0  0  0  0  0  0  0  0
   58.8938   32.9160   43.8111 H   0  0  0  0  0  0  0  0  0  0  0  0
   57.3733   33.7564   44.3030 H   0  0  0  0  0  0  0  0  0  0  0  0
   57.4409   31.7594   46.1674 H   0  0  0  0  0  0  0  0  0  0  0  0
   59.2053   31.9992   45.8910 H   0  0  0  0  0  0  0  0  0  0  0  0
   58.0385   34.1178   48.7044 H   0  0  0  0  0  0  0  0  0  0  0  0
   58.4736   32.3992   48.2674 H   0  0  0  0  0  0  0  0  0  0  0  0
   60.2319   34.7966   48.6298 H   0  0  0  0  0  0  0  0  0  0  0  0
   60.5246   33.0534   48.9924 H   0  0  0  0  0  0  0  0  0  0  0  0
   62.7955   34.2322   46.3966 H   0  0  0  0  0  0  0  0  0  0  0  0
   62.4677   34.2909   48.1802 H   0  0  0  0  0  0  0  0  0  0  0  0
   63.4353   32.0426   46.4759 H   0  0  0  0  0  0  0  0  0  0  0  0
   63.7159   32.4143   48.2293 H   0  0  0  0  0  0  0  0  0  0  0  0
   61.2901   30.9413   45.7832 H   0  0  0  0  0  0  0  0  0  0  0  0
   59.6304   29.1913   46.4303 H   0  0  0  0  0  0  0  0  0  0  0  0
   59.3437   28.5683   48.8335 H   0  0  0  0  0  0  0  0  0  0  0  0
   60.7247   29.6879   50.5878 H   0  0  0  0  0  0  0  0  0  0  0  0
   62.4126   31.4092   49.9447 H   0  0  0  0  0  0  0  0  0  0  0  0
   60.8849   35.6061   46.2729 H   0  0  0  0  0  0  0  0  0  0  0  0
   60.7098   34.3019   45.0180 H   0  0  0  0  0  0  0  0  0  0  0  0
   58.6353   35.7390   46.5856 H   0  0  0  0  0  0  0  0  0  0  0  0
   58.5500   34.8907   44.9780 H   0  0  0  0  0  0  0  0  0  0  0  0
   57.0132   30.8031   45.5284 H   0  0  0  0  0  0  0  0  0  0  0  0
   54.8730   30.4034   44.2951 H   0  0  0  0  0  0  0  0  0  0  0  0
   55.7719   29.4397   43.0647 H   0  0  0  0  0  0  0  0  0  0  0  0
   60.1269   27.7659   45.1765 H   0  0  0  0  0  0  0  0  0  0  0  0
   59.7526   25.5825   46.3185 H   0  0  0  0  0  0  0  0  0  0  0  0
   57.4362   24.8139   46.8293 H   0  0  0  0  0  0  0  0  0  0  0  0
   54.1511   24.3745   46.4139 H   0  0  0  0  0  0  0  0  0  0  0  0
   53.6887   25.3823   45.0007 H   0  0  0  0  0  0  0  0  0  0  0  0
   55.2528   24.4990   45.0007 H   0  0  0  0  0  0  0  0  0  0  0  0
   59.1331   30.0314   44.7407 H   0  0  0  0  0  0  0  0  0  0  0  0
   58.3803   29.3223   43.2550 H   0  0  0  0  0  0  0  0  0  0  0  0
  1  2  1  0
  2  3  1  0
  3  4  1  0
  4  5  1  0
  5  6  1  0
  6  7  1  0
  7  8  1  0
  8  9  1  0
  9 10  1  0
 10 11  1  0
 11 12  1  0
 12 13  2  0
 13 14  1  0
 14 15  2  0
 15 16  1  0
 16 17  2  0
  9 18  1  0
 18 19  1  0
  3 20  1  0
 20 21  1  0
 21 22  1  0
 22 23  1  0
 23 24  2  0
 24 25  1  0
 25 26  2  0
 26 27  1  0
 27 28  2  0
 28 29  1  0
 29 30  1  0
 24 31  1  0
 19  6  1  0
 31 20  1  0
 17 12  1  0
 28 23  1  0
  1 32  1  0
  1 33  1  0
  1 34  1  0
  2 35  1  0
  2 36  1  0
  4 37  1  0
  4 38  1  0
  5 39  1  0
  5 40  1  0
  7 41  1  0
  7 42  1  0
  8 43  1  0
  8 44  1  0
 10 45  1  0
 10 46  1  0
 11 47  1  0
 11 48  1  0
 13 49  1  0
 14 50  1  0
 15 51  1  0
 16 52  1  0
 17 53  1  0
 18 54  1  0
 18 55  1  0
 19 56  1  0
 19 57  1  0
 20 58  1  1
 21 59  1  0
 21 60  1  0
 25 61  1  0
 26 62  1  0
 27 63  1  0
 30 64  1  0
 30 65  1  0
 30 66  1  0
 31 67  1  0
 31 68  1  0
M  END
>  <UniqueID>  (40) 
38

>  <SMILES>  (40) 
CCN(CCN1CCN(CCc2ccccc2)CC1)[C@H]1COc2c(cccc2OC)C1

>  <Energy>  (40) 
86.40674743509788

>  <Genealogy>  (40) 
CCN(CCN1CCN(CCc2ccccc2)CC1)[C@H]1COc2c(cccc2OC)C1 (chirality)
CCN(CCN1CCN(CCc2ccccc2)CC1)[C@H]1COc2c(cccc2OC)C1 (3D coordinates assigned)
CCN(CCN1CCN(CCc2ccccc2)CC1)[C@H]1COc2c(cccc2OC)C1 (nonaromatic ring conformer: 86.40674743509788 kcal/mol)

>  <smiles>  (40) 
CCN(CCN1CCN(CCc2ccccc2)CC1)C1COc2c(cccc2OC)C1

>  <score_type>  (40) 
oracle

>  <origin>  (40) 
adg

>  <m_score__min__energy>  (40) 
-10.84

>  <m_primary>  (40) 
energy

$$$$
40:0
     RDKit          3D

 33 35  0  0  0  0  0  0  0  0999 V2000
   54.2880   26.3000   45.3380 H   0  0  0  0  0  0  0  0  0  0  0  0
   55.1470   26.1840   45.9220 N   0  0  0  0  0  0  0  0  0  0  0  0
   56.0650   27.0940   45.9610 C   0  0  0  0  0  0  0  0  0  0  0  0
   57.2050   26.8910   46.6970 N   0  0  0  0  0  0  0  0  0  0  0  0
   58.1920   27.8320   46.7540 C   0  0  0  0  0  0  0  0  0  0  0  0
   59.2240   27.6310   47.4460 O   0  0  0  0  0  0  0  0  0  0  0  0
   58.0120   29.0120   46.0380 C   0  0  0  0  0  0  0  0  0  0  0  0
   58.7790   30.1470   45.8660 C   0  0  0  0  0  0  0  0  0  0  0  0
   60.4110   30.4680   46.5430 S   0  0  0  0  0  0  0  0  0  0  0  0
   59.7540   31.1480   48.0680 C   0  0  0  0  0  0  0  0  0  0  0  0
   59.9750   32.4910   48.3950 C   0  0  0  0  0  0  0  0  0  0  0  0
   60.5605   33.1319   47.7193 H   0  0  0  0  0  0  0  0  0  0  0  0
   59.4530   33.0180   49.5780 C   0  0  0  0  0  0  0  0  0  0  0  0
   59.6237   34.0749   49.8304 H   0  0  0  0  0  0  0  0  0  0  0  0
   58.7140   32.2050   50.4420 C   0  0  0  0  0  0  0  0  0  0  0  0
   58.3024   32.6269   51.3707 H   0  0  0  0  0  0  0  0  0  0  0  0
   58.4940   30.8560   50.1330 C   0  0  0  0  0  0  0  0  0  0  0  0
   57.7450   30.0810   51.0310 O   0  0  0  0  0  0  0  0  0  0  0  0
   57.0400   30.6070   52.1510 C   0  0  0  0  0  0  0  0  0  0  0  0
   57.5122   30.2547   53.0799 H   0  0  0  0  0  0  0  0  0  0  0  0
   57.0687   31.7062   52.1191 H   0  0  0  0  0  0  0  0  0  0  0  0
   55.9945   30.2664   52.1191 H   0  0  0  0  0  0  0  0  0  0  0  0
   59.0270   30.3290   48.9410 C   0  0  0  0  0  0  0  0  0  0  0  0
   58.8715   29.2684   48.6942 H   0  0  0  0  0  0  0  0  0  0  0  0
   58.0200   30.9860   45.0460 C   0  0  0  0  0  0  0  0  0  0  0  0
   58.4380   32.3240   44.5270 C   0  0  0  0  0  0  0  0  0  0  0  0
   58.6479   32.9959   45.3723 H   0  0  0  0  0  0  0  0  0  0  0  0
   59.3441   32.2125   43.9134 H   0  0  0  0  0  0  0  0  0  0  0  0
   57.6296   32.7482   43.9134 H   0  0  0  0  0  0  0  0  0  0  0  0
   56.8530   30.3890   44.7040 N   0  0  0  0  0  0  0  0  0  0  0  0
   56.1010   30.7710   44.0860 H   0  0  0  0  0  0  0  0  0  0  0  0
   56.8670   29.1960   45.3200 C   0  0  0  0  0  0  0  0  0  0  0  0
   55.8910   28.2580   45.2660 N   0  0  0  0  0  0  0  0  0  0  0  0
  1  2  1  0
  2  3  2  0
  3  4  1  0
  4  5  1  0
  5  6  2  0
  5  7  1  0
  7  8  1  0
  8  9  1  0
  9 10  1  0
 10 11  2  0
 11 12  1  0
 11 13  1  0
 13 14  1  0
 13 15  2  0
 15 16  1  0
 15 17  1  0
 17 18  1  0
 18 19  1  0
 19 20  1  0
 19 21  1  0
 19 22  1  0
 17 23  2  0
 23 24  1  0
  8 25  2  0
 25 26  1  0
 26 27  1  0
 26 28  1  0
 26 29  1  0
 25 30  1  0
 30 31  1  0
 30 32  1  0
 32 33  1  0
 33  3  1  0
 32  7  2  0
 23 10  1  0
M  CHG  2   4  -1  33  -1
M  END
>  <UniqueID>  (41) 
39

>  <SMILES>  (41) 
[H]/N=c1\[n-]c(=O)c2c(Sc3cccc(OC)c3)c(C)[nH]c2[n-]1

>  <Energy>  (41) 
65.21352225259653

>  <Genealogy>  (41) 
COc1cccc(Sc2c(C)[nH]c3[n-]c(=N)[n-]c(=O)c23)c1 (protonated)
[H]/N=c1\[n-]c(=O)c2c(Sc3cccc(OC)c3)c(C)[nH]c2[n-]1 (cis-trans isomerization)
[H]/N=c1\[n-]c(=O)c2c(Sc3cccc(OC)c3)c(C)[nH]c2[n-]1 (3D coordinates assigned)
[H]/N=c1\[n-]c(=O)c2c(Sc3cccc(OC)c3)c(C)[nH]c2[n-]1 (optimized conformer: 65.21352225259653 kcal/mol)

>  <smiles>  (41) 
COc1cccc(Sc2c(C)[nH]c3[nH]c(=N)[nH]c(=O)c23)c1

>  <score_type>  (41) 
oracle

>  <origin>  (41) 
adg

>  <m_score__min__energy>  (41) 
-10.369999999999999

>  <m_primary>  (41) 
energy

$$$$
41:0
     RDKit          3D

 50 51  0  0  0  0  0  0  0  0999 V2000
   60.7600   27.2610   49.5630 C   0  0  0  0  0  0  0  0  0  0  0  0
   60.7480   27.0850   48.0490 C   0  0  0  0  0  0  0  0  0  0  0  0
   59.4270   27.4840   47.5150 N   0  0  0  0  0  0  0  0  0  0  0  0
   58.9350   28.7560   48.1000 C   0  0  0  0  0  0  0  0  0  0  0  0
   59.7870   29.9850   47.7470 C   0  0  0  0  0  0  0  0  0  0  0  0
   58.4510   26.3700   47.5280 C   0  0  0  0  0  0  0  0  0  0  0  0
   58.5470   25.5060   46.2690 C   0  0  0  0  0  0  0  0  0  0  0  0
   57.8710   26.1490   45.1930 O   0  0  0  0  0  0  0  0  0  0  0  0
   56.8750   27.1110   45.3880 C   0  0  0  0  0  0  0  0  0  0  0  0
   55.7880   26.7930   45.9450 O   0  0  0  0  0  0  0  0  0  0  0  0
   57.1050   28.5030   44.9430 C   0  0  0  0  0  0  0  0  0  0  0  0
   56.0250   29.3410   44.6180 C   0  0  0  0  0  0  0  0  0  0  0  0
   56.2490   30.6580   44.2050 C   0  0  0  0  0  0  0  0  0  0  0  0
   57.5540   31.1660   44.1110 C   0  0  0  0  0  0  0  0  0  0  0  0
   57.7480   32.5300   43.6900 N   0  0  0  0  0  0  0  0  0  0  0  0
   57.4570   33.7010   44.5190 C   0  0  0  0  0  0  0  0  0  0  0  0
   58.3480   33.7310   45.7340 C   0  0  0  0  0  0  0  0  0  0  0  0
   57.9430   33.1220   46.9330 C   0  0  0  0  0  0  0  0  0  0  0  0
   58.7760   33.1500   48.0550 C   0  0  0  0  0  0  0  0  0  0  0  0
   60.0230   33.7800   47.9880 C   0  0  0  0  0  0  0  0  0  0  0  0
   61.1590   33.8190   49.5220 Br  0  0  0  0  0  0  0  0  0  0  0  0
   60.4380   34.3780   46.7930 C   0  0  0  0  0  0  0  0  0  0  0  0
   59.6080   34.3510   45.6690 C   0  0  0  0  0  0  0  0  0  0  0  0
   58.6350   30.3240   44.4280 C   0  0  0  0  0  0  0  0  0  0  0  0
   58.4120   29.0080   44.8420 C   0  0  0  0  0  0  0  0  0  0  0  0
   60.6928   26.2756   50.0472 H   0  0  0  0  0  0  0  0  0  0  0  0
   61.6940   27.7561   49.8672 H   0  0  0  0  0  0  0  0  0  0  0  0
   59.9018   27.8783   49.8672 H   0  0  0  0  0  0  0  0  0  0  0  0
   61.5300   27.7154   47.6007 H   0  0  0  0  0  0  0  0  0  0  0  0
   60.9395   26.0304   47.8016 H   0  0  0  0  0  0  0  0  0  0  0  0
   57.9118   28.9299   47.7356 H   0  0  0  0  0  0  0  0  0  0  0  0
   58.9855   28.6407   49.1928 H   0  0  0  0  0  0  0  0  0  0  0  0
   60.1261   30.4741   48.6721 H   0  0  0  0  0  0  0  0  0  0  0  0
   60.6606   29.6687   47.1581 H   0  0  0  0  0  0  0  0  0  0  0  0
   59.1843   30.6921   47.1581 H   0  0  0  0  0  0  0  0  0  0  0  0
   58.6454   25.7384   48.4073 H   0  0  0  0  0  0  0  0  0  0  0  0
   57.4412   26.8048   47.5643 H   0  0  0  0  0  0  0  0  0  0  0  0
   59.6048   25.3634   46.0032 H   0  0  0  0  0  0  0  0  0  0  0  0
   58.0795   24.5290   46.4611 H   0  0  0  0  0  0  0  0  0  0  0  0
   54.9961   28.9583   44.6890 H   0  0  0  0  0  0  0  0  0  0  0  0
   55.3942   31.3021   43.9513 H   0  0  0  0  0  0  0  0  0  0  0  0
   58.0760   32.7090   42.7140 H   0  0  0  0  0  0  0  0  0  0  0  0
   57.6240   34.6127   43.9267 H   0  0  0  0  0  0  0  0  0  0  0  0
   56.4097   33.6467   44.8509 H   0  0  0  0  0  0  0  0  0  0  0  0
   56.9655   32.6206   46.9893 H   0  0  0  0  0  0  0  0  0  0  0  0
   58.4503   32.6757   48.9925 H   0  0  0  0  0  0  0  0  0  0  0  0
   61.4200   34.8706   46.7381 H   0  0  0  0  0  0  0  0  0  0  0  0
   59.9418   34.8166   44.7300 H   0  0  0  0  0  0  0  0  0  0  0  0
   59.6642   30.7043   44.3494 H   0  0  0  0  0  0  0  0  0  0  0  0
   59.2670   28.3622   45.0908 H   0  0  0  0  0  0  0  0  0  0  0  0
  1  2  1  0
  2  3  1  0
  3  4  1  0
  4  5  1  0
  3  6  1  0
  6  7  1  0
  7  8  1  0
  8  9  1  0
  9 10  2  0
  9 11  1  0
 11 12  2  0
 12 13  1  0
 13 14  2  0
 14 15  1  0
 15 16  1  0
 16 17  1  0
 17 18  2  0
 18 19  1  0
 19 20  2  0
 20 21  1  0
 20 22  1  0
 22 23  2  0
 14 24  1  0
 24 25  2  0
 25 11  1  0
 23 17  1  0
  1 26  1  0
  1 27  1  0
  1 28  1  0
  2 29  1  0
  2 30  1  0
  4 31  1  0
  4 32  1  0
  5 33  1  0
  5 34  1  0
  5 35  1  0
  6 36  1  0
  6 37  1  0
  7 38  1  0
  7 39  1  0
 12 40  1  0
 13 41  1  0
 15 42  1  0
 16 43  1  0
 16 44  1  0
 18 45  1  0
 19 46  1  0
 22 47  1  0
 23 48  1  0
 24 49  1  0
 25 50  1  0
M  END
>  <UniqueID>  (42) 
40

>  <SMILES>  (42) 
CCN(CC)CCOC(=O)c1ccc(NCc2ccc(Br)cc2)cc1

>  <Energy>  (42) 
47.8236472128343

>  <Genealogy>  (42) 
CCN(CC)CCOC(=O)c1ccc(NCc2ccc(Br)cc2)cc1 (3D coordinates assigned)
CCN(CC)CCOC(=O)c1ccc(NCc2ccc(Br)cc2)cc1 (optimized conformer: 47.8236472128343 kcal/mol)

>  <smiles>  (42) 
CCN(CC)CCOC(=O)c1ccc(NCc2ccc(Br)cc2)cc1

>  <score_type>  (42) 
oracle

>  <origin>  (42) 
adg

>  <m_score__min__energy>  (42) 
-7.2000000000000002

>  <m_primary>  (42) 
energy

$$$$
42:0
     RDKit          3D

 39 38  0  0  0  0  0  0  0  0999 V2000
   59.4110   34.8930   46.7110 C   0  0  0  0  0  0  0  0  0  0  0  0
   59.2310   34.5760   45.2280 C   0  0  0  0  0  0  0  0  0  0  0  0
   57.7820   34.2120   44.8650 C   0  0  0  0  0  0  0  0  0  0  0  0
   57.3310   32.8430   45.4150 C   0  0  0  0  0  0  0  0  0  0  0  0
   57.9550   31.6440   44.6650 C   0  0  0  0  0  0  0  0  0  0  0  0
   57.4710   31.4900   43.2100 C   0  0  0  0  0  0  0  0  0  0  0  0
   56.6620   30.2050   42.9490 C   0  0  0  0  0  0  0  0  0  0  0  0
   56.4410   29.3650   44.1870 C   0  0  0  0  0  0  0  0  0  0  0  0
   55.3970   29.5580   44.8690 O   0  0  0  0  0  0  0  0  0  0  0  0
   57.4220   28.4050   44.6470 N   0  0  0  0  0  0  0  0  0  0  0  0
   58.8020   28.3910   44.1370 C   0  0  0  0  0  0  0  0  0  0  0  0
   59.8010   28.6840   45.2530 C   0  0  0  0  0  0  0  0  0  0  0  0
   57.0560   27.4450   45.7000 C   0  0  0  0  0  0  0  0  0  0  0  0
   57.4030   26.0210   45.2770 C   0  0  0  0  0  0  0  0  0  0  0  0
   58.9569   34.0933   47.3146 H   0  0  0  0  0  0  0  0  0  0  0  0
   60.4839   34.9635   46.9433 H   0  0  0  0  0  0  0  0  0  0  0  0
   58.9218   35.8505   46.9433 H   0  0  0  0  0  0  0  0  0  0  0  0
   59.5285   35.4581   44.6420 H   0  0  0  0  0  0  0  0  0  0  0  0
   59.8580   33.7016   44.9991 H   0  0  0  0  0  0  0  0  0  0  0  0
   57.1164   34.9868   45.2733 H   0  0  0  0  0  0  0  0  0  0  0  0
   57.7307   34.1508   43.7679 H   0  0  0  0  0  0  0  0  0  0  0  0
   57.6204   32.7804   46.4744 H   0  0  0  0  0  0  0  0  0  0  0  0
   56.2415   32.7807   45.2771 H   0  0  0  0  0  0  0  0  0  0  0  0
   59.0472   31.7744   44.6536 H   0  0  0  0  0  0  0  0  0  0  0  0
   57.6406   30.7365   45.2012 H   0  0  0  0  0  0  0  0  0  0  0  0
   56.8361   32.3539   42.9638 H   0  0  0  0  0  0  0  0  0  0  0  0
   58.3713   31.4314   42.5807 H   0  0  0  0  0  0  0  0  0  0  0  0
   55.6803   30.4891   42.5420 H   0  0  0  0  0  0  0  0  0  0  0  0
   57.2465   29.5939   42.2455 H   0  0  0  0  0  0  0  0  0  0  0  0
   59.0182   27.3998   43.7118 H   0  0  0  0  0  0  0  0  0  0  0  0
   58.8987   29.1704   43.3668 H   0  0  0  0  0  0  0  0  0  0  0  0
   59.3133   28.5410   46.2285 H   0  0  0  0  0  0  0  0  0  0  0  0
   60.6576   27.9993   45.1674 H   0  0  0  0  0  0  0  0  0  0  0  0
   60.1521   29.7229   45.1674 H   0  0  0  0  0  0  0  0  0  0  0  0
   57.6053   27.6921   46.6204 H   0  0  0  0  0  0  0  0  0  0  0  0
   55.9716   27.5076   45.8737 H   0  0  0  0  0  0  0  0  0  0  0  0
   57.5545   25.3993   46.1718 H   0  0  0  0  0  0  0  0  0  0  0  0
   56.5798   25.6058   44.6771 H   0  0  0  0  0  0  0  0  0  0  0  0
   58.3250   26.0311   44.6771 H   0  0  0  0  0  0  0  0  0  0  0  0
  1  2  1  0
  2  3  1  0
  3  4  1  0
  4  5  1  0
  5  6  1  0
  6  7  1  0
  7  8  1  0
  8  9  2  0
  8 10  1  0
 10 11  1  0
 11 12  1  0
 10 13  1  0
 13 14  1  0
  1 15  1  0
  1 16  1  0
  1 17  1  0
  2 18  1  0
  2 19  1  0
  3 20  1  0
  3 21  1  0
  4 22  1  0
  4 23  1  0
  5 24  1  0
  5 25  1  0
  6 26  1  0
  6 27  1  0
  7 28  1  0
  7 29  1  0
 11 30  1  0
 11 31  1  0
 12 32  1  0
 12 33  1  0
 12 34  1  0
 13 35  1  0
 13 36  1  0
 14 37  1  0
 14 38  1  0
 14 39  1  0
M  END
>  <UniqueID>  (43) 
41

>  <SMILES>  (43) 
CCCCCCCC(=O)N(CC)CC

>  <Energy>  (43) 
22.376784366742186

>  <Genealogy>  (43) 
CCCCCCCC(=O)N(CC)CC (3D coordinates assigned)
CCCCCCCC(=O)N(CC)CC (optimized conformer: 22.376784366742186 kcal/mol)

>  <smiles>  (43) 
CCCCCCCC(=O)N(CC)CC

>  <score_type>  (43) 
oracle

>  <origin>  (43) 
adg

>  <m_score__min__energy>  (43) 
-5.5

>  <m_primary>  (43) 
energy

$$$$
43:0
     RDKit          3D

 42 44  0  0  0  0  0  0  0  0999 V2000
   60.5650   34.2490   48.6740 C   0  0  0  0  0  0  0  0  0  0  0  0
   60.7240   34.6570   47.3310 O   0  0  0  0  0  0  0  0  0  0  0  0
   59.8650   33.9160   46.4820 C   0  0  0  0  0  0  0  0  0  0  0  0
   59.3530   34.8070   45.3300 C   0  0  0  0  0  0  0  0  0  0  0  0
   57.9150   34.4810   44.8710 C   0  0  0  0  0  0  0  0  0  0  0  0
   57.5230   33.0730   45.0960 N   0  0  0  0  0  0  0  0  0  0  0  0
   57.7470   32.1470   43.9640 C   0  0  0  0  0  0  0  0  0  0  0  0
   57.6710   30.6890   44.3530 C   0  0  0  0  0  0  0  0  0  0  0  0
   58.8270   29.9380   44.5940 C   0  0  0  0  0  0  0  0  0  0  0  0
   58.7300   28.6230   44.9190 N   0  0  0  0  0  0  0  0  0  0  0  0
   57.5220   28.0070   45.0320 C   0  0  0  0  0  0  0  0  0  0  0  0
   57.4350   26.5600   45.3740 C   0  0  0  0  0  0  0  0  0  0  0  0
   58.5730   25.7390   45.2410 C   0  0  0  0  0  0  0  0  0  0  0  0
   58.5130   24.3790   45.5600 C   0  0  0  0  0  0  0  0  0  0  0  0
   57.3180   23.8180   46.0160 C   0  0  0  0  0  0  0  0  0  0  0  0
   57.2470   22.1110   46.4150 Cl  0  0  0  0  0  0  0  0  0  0  0  0
   56.1830   24.6180   46.1550 C   0  0  0  0  0  0  0  0  0  0  0  0
   56.2330   25.9800   45.8390 C   0  0  0  0  0  0  0  0  0  0  0  0
   55.1040   26.7180   45.9930 F   0  0  0  0  0  0  0  0  0  0  0  0
   56.3880   28.7320   44.8340 N   0  0  0  0  0  0  0  0  0  0  0  0
   56.4360   30.0500   44.5090 C   0  0  0  0  0  0  0  0  0  0  0  0
   57.7750   32.5170   46.4470 C   0  0  0  0  0  0  0  0  0  0  0  0
   58.6890   33.3990   47.3100 C   0  0  0  0  0  0  0  0  0  0  0  0
   60.8818   35.0618   49.3441 H   0  0  0  0  0  0  0  0  0  0  0  0
   59.5079   34.0099   48.8619 H   0  0  0  0  0  0  0  0  0  0  0  0
   61.1816   33.3576   48.8619 H   0  0  0  0  0  0  0  0  0  0  0  0
   60.4146   33.0699   46.0437 H   0  0  0  0  0  0  0  0  0  0  0  0
   59.3793   35.8542   45.6656 H   0  0  0  0  0  0  0  0  0  0  0  0
   60.0107   34.6199   44.4684 H   0  0  0  0  0  0  0  0  0  0  0  0
   57.2188   35.1279   45.4249 H   0  0  0  0  0  0  0  0  0  0  0  0
   57.8772   34.6552   43.7855 H   0  0  0  0  0  0  0  0  0  0  0  0
   56.9827   32.3430   43.1975 H   0  0  0  0  0  0  0  0  0  0  0  0
   58.7665   32.3300   43.5936 H   0  0  0  0  0  0  0  0  0  0  0  0
   59.8161   30.4137   44.5201 H   0  0  0  0  0  0  0  0  0  0  0  0
   59.5182   26.1728   44.8825 H   0  0  0  0  0  0  0  0  0  0  0  0
   59.4087   23.7497   45.4516 H   0  0  0  0  0  0  0  0  0  0  0  0
   55.2429   24.1748   46.5154 H   0  0  0  0  0  0  0  0  0  0  0  0
   55.5031   30.6156   44.3683 H   0  0  0  0  0  0  0  0  0  0  0  0
   56.8102   32.4050   46.9633 H   0  0  0  0  0  0  0  0  0  0  0  0
   58.2885   31.5538   46.3106 H   0  0  0  0  0  0  0  0  0  0  0  0
   58.1119   34.2534   47.6933 H   0  0  0  0  0  0  0  0  0  0  0  0
   59.0772   32.7999   48.1469 H   0  0  0  0  0  0  0  0  0  0  0  0
  1  2  1  0
  2  3  1  0
  3  4  1  0
  4  5  1  0
  5  6  1  0
  6  7  1  0
  7  8  1  0
  8  9  2  0
  9 10  1  0
 10 11  2  0
 11 12  1  0
 12 13  2  0
 13 14  1  0
 14 15  2  0
 15 16  1  0
 15 17  1  0
 17 18  2  0
 18 19  1  0
 11 20  1  0
 20 21  2  0
  6 22  1  0
 22 23  1  0
 23  3  1  0
 21  8  1  0
 18 12  1  0
  1 24  1  0
  1 25  1  0
  1 26  1  0
  3 27  1  0
  4 28  1  0
  4 29  1  0
  5 30  1  0
  5 31  1  0
  7 32  1  0
  7 33  1  0
  9 34  1  0
 13 35  1  0
 14 36  1  0
 17 37  1  0
 21 38  1  0
 22 39  1  0
 22 40  1  0
 23 41  1  0
 23 42  1  0
M  END
>  <UniqueID>  (44) 
42

>  <SMILES>  (44) 
COC1CCN(Cc2cnc(-c3ccc(Cl)cc3F)nc2)CC1

>  <Energy>  (44) 
60.857471042963006

>  <Genealogy>  (44) 
COC1CCN(Cc2cnc(-c3ccc(Cl)cc3F)nc2)CC1 (3D coordinates assigned)
COC1CCN(Cc2cnc(-c3ccc(Cl)cc3F)nc2)CC1 (nonaromatic ring conformer: 60.857471042963006 kcal/mol)

>  <smiles>  (44) 
COC1CCN(Cc2cnc(-c3ccc(Cl)cc3F)nc2)CC1

>  <score_type>  (44) 
oracle

>  <origin>  (44) 
adg

>  <m_score__min__energy>  (44) 
-7.4100000000000001

>  <m_primary>  (44) 
energy

$$$$
44:0
     RDKit          3D

 56 59  0  0  0  0  0  0  0  0999 V2000
   58.0620   31.5140   43.1380 C   0  0  0  0  0  0  0  0  0  0  0  0
   58.3230   31.2840   44.5190 O   0  0  0  0  0  0  0  0  0  0  0  0
   58.4290   32.2910   45.4900 C   0  0  0  0  0  0  0  0  0  0  0  0
   57.9860   33.6080   45.2520 C   0  0  0  0  0  0  0  0  0  0  0  0
   58.1350   34.5910   46.2350 C   0  0  0  0  0  0  0  0  0  0  0  0
   58.7270   34.2750   47.4590 C   0  0  0  0  0  0  0  0  0  0  0  0
   59.1660   32.9720   47.7070 C   0  0  0  0  0  0  0  0  0  0  0  0
   59.0110   31.9750   46.7320 C   0  0  0  0  0  0  0  0  0  0  0  0
   59.4680   30.6420   46.9980 N   0  0  0  0  0  0  0  0  0  0  0  0
   59.0940   29.9660   48.2470 C   0  0  0  0  0  0  0  0  0  0  0  0
   58.5190   28.5800   47.9370 C   0  0  0  0  0  0  0  0  0  0  0  0
   59.2950   27.9020   46.8900 N   0  0  0  0  0  0  0  0  0  0  0  0
   58.8370   26.6450   46.3750 C   0  0  0  0  0  0  0  0  0  0  0  0
   59.7100   25.5510   46.3440 C   0  0  0  0  0  0  0  0  0  0  0  0
   59.2820   24.3230   45.8360 C   0  0  0  0  0  0  0  0  0  0  0  0
   57.9710   24.1680   45.3540 C   0  0  0  0  0  0  0  0  0  0  0  0
   57.5110   22.8560   44.8320 C   0  0  0  0  0  0  0  0  0  0  0  0
   57.4980   21.7180   45.6570 C   0  0  0  0  0  0  0  0  0  0  0  0
   57.0590   20.4960   45.1470 C   0  0  0  0  0  0  0  0  0  0  0  0
   56.6450   20.4020   43.8550 N   0  0  0  0  0  0  0  0  0  0  0  0
   56.6460   21.4840   43.0310 C   0  0  0  0  0  0  0  0  0  0  0  0
   57.0790   22.7270   43.5010 C   0  0  0  0  0  0  0  0  0  0  0  0
   57.1020   25.2730   45.3770 C   0  0  0  0  0  0  0  0  0  0  0  0
   57.5360   26.5200   45.8580 C   0  0  0  0  0  0  0  0  0  0  0  0
   56.6590   27.6560   45.8760 N   0  0  0  0  0  0  0  0  0  0  0  0
   56.5410   28.6610   44.8610 C   0  0  0  0  0  0  0  0  0  0  0  0
   57.3680   28.6290   43.6120 C   0  0  0  0  0  0  0  0  0  0  0  0
   55.7440   29.6170   45.0410 O   0  0  0  0  0  0  0  0  0  0  0  0
   60.5370   28.4900   46.3790 C   0  0  0  0  0  0  0  0  0  0  0  0
   60.2930   29.9530   45.9950 C   0  0  0  0  0  0  0  0  0  0  0  0
   57.2403   32.2381   43.0358 H   0  0  0  0  0  0  0  0  0  0  0  0
   58.9659   31.9146   42.6558 H   0  0  0  0  0  0  0  0  0  0  0  0
   57.7783   30.5669   42.6558 H   0  0  0  0  0  0  0  0  0  0  0  0
   57.5209   33.8634   44.2884 H   0  0  0  0  0  0  0  0  0  0  0  0
   57.7848   35.6160   46.0434 H   0  0  0  0  0  0  0  0  0  0  0  0
   58.8479   35.0519   48.2283 H   0  0  0  0  0  0  0  0  0  0  0  0
   59.6353   32.7266   48.6711 H   0  0  0  0  0  0  0  0  0  0  0  0
   59.9843   29.8576   48.8839 H   0  0  0  0  0  0  0  0  0  0  0  0
   58.3339   30.5651   48.7699 H   0  0  0  0  0  0  0  0  0  0  0  0
   58.5420   27.9697   48.8519 H   0  0  0  0  0  0  0  0  0  0  0  0
   57.4867   28.7048   47.5781 H   0  0  0  0  0  0  0  0  0  0  0  0
   60.7375   25.6594   46.7215 H   0  0  0  0  0  0  0  0  0  0  0  0
   59.9763   23.4701   45.8128 H   0  0  0  0  0  0  0  0  0  0  0  0
   57.8332   21.7908   46.7022 H   0  0  0  0  0  0  0  0  0  0  0  0
   57.0477   19.6052   45.7923 H   0  0  0  0  0  0  0  0  0  0  0  0
   56.3190   19.4800   43.4870 H   0  0  0  0  0  0  0  0  0  0  0  0
   56.3046   21.3804   41.9904 H   0  0  0  0  0  0  0  0  0  0  0  0
   57.0816   23.6003   42.8321 H   0  0  0  0  0  0  0  0  0  0  0  0
   56.0698   25.1600   45.0140 H   0  0  0  0  0  0  0  0  0  0  0  0
   58.4343   28.5877   43.8792 H   0  0  0  0  0  0  0  0  0  0  0  0
   57.1037   27.7404   43.0199 H   0  0  0  0  0  0  0  0  0  0  0  0
   57.1732   29.5354   43.0199 H   0  0  0  0  0  0  0  0  0  0  0  0
   61.3129   28.4403   47.1572 H   0  0  0  0  0  0  0  0  0  0  0  0
   60.8685   27.9299   45.4922 H   0  0  0  0  0  0  0  0  0  0  0  0
   61.2617   30.4678   45.9140 H   0  0  0  0  0  0  0  0  0  0  0  0
   59.7577   29.9734   45.0342 H   0  0  0  0  0  0  0  0  0  0  0  0
  1  2  1  0
  2  3  1  0
  3  4  2  0
  4  5  1  0
  5  6  2  0
  6  7  1  0
  7  8  2  0
  8  9  1  0
  9 10  1  0
 10 11  1  0
 11 12  1  0
 12 13  1  0
 13 14  2  0
 14 15  1  0
 15 16  2  0
 16 17  1  0
 17 18  2  0
 18 19  1  0
 19 20  2  0
 20 21  1  0
 21 22  2  0
 16 23  1  0
 23 24  2  0
 24 25  1  0
 25 26  1  0
 26 27  1  0
 26 28  2  0
 12 29  1  0
 29 30  1  0
  8  3  1  0
 30  9  1  0
 24 13  1  0
 22 17  1  0
  1 31  1  0
  1 32  1  0
  1 33  1  0
  4 34  1  0
  5 35  1  0
  6 36  1  0
  7 37  1  0
 10 38  1  0
 10 39  1  0
 11 40  1  0
 11 41  1  0
 14 42  1  0
 15 43  1  0
 18 44  1  0
 19 45  1  0
 20 46  1  0
 21 47  1  0
 22 48  1  0
 23 49  1  0
 27 50  1  0
 27 51  1  0
 27 52  1  0
 29 53  1  0
 29 54  1  0
 30 55  1  0
 30 56  1  0
M  CHG  2  20   1  25  -1
M  END
>  <UniqueID>  (45) 
43

>  <SMILES>  (45) 
COc1ccccc1N1CCN(c2ccc(-c3cc[nH+]cc3)cc2[N-]C(C)=O)CC1

>  <Energy>  (45) 
76.57850121344978

>  <Genealogy>  (45) 
COc1ccccc1N1CCN(c2ccc(-c3cc[nH+]cc3)cc2[N-]C(C)=O)CC1 (protonated)
COc1ccccc1N1CCN(c2ccc(-c3cc[nH+]cc3)cc2[N-]C(C)=O)CC1 (3D coordinates assigned)
COc1ccccc1N1CCN(c2ccc(-c3cc[nH+]cc3)cc2[N-]C(C)=O)CC1 (nonaromatic ring conformer: 76.57850121344978 kcal/mol)

>  <smiles>  (45) 
COc1ccccc1N1CCN(c2ccc(-c3ccncc3)cc2NC(C)=O)CC1

>  <score_type>  (45) 
oracle

>  <origin>  (45) 
adg

>  <m_score__min__energy>  (45) 
-9.8300000000000001

>  <m_primary>  (45) 
energy

$$$$
