0:0
     RDKit          3D

 72 75  0  0  0  0  0  0  0  0999 V2000
   57.7650   26.6590   46.4370 C   0  0  0  0  0  0  0  0  0  0  0  0
   57.0260   27.6780   45.5680 C   0  0  0  0  0  0  0  0  0  0  0  0
   57.7040   27.9800   44.2850 N   0  0  0  0  0  0  0  0  0  0  0  0
   57.0850   29.0790   43.4990 C   0  0  0  0  0  0  0  0  0  0  0  0
   55.8580   29.7370   44.1510 C   0  0  0  0  0  0  0  0  0  0  0  0
   59.1820   27.9650   44.3690 C   0  0  0  0  0  0  0  0  0  0  0  0
   59.7400   29.3170   44.8360 C   0  0  0  0  0  0  0  0  0  0  0  0
   58.7540   30.0660   45.6170 N   0  0  0  0  0  0  0  0  0  0  0  0
   59.1640   31.0660   46.5710 C   0  0  0  0  0  0  0  0  0  0  0  0
   58.9990   32.3760   46.2120 C   0  0  0  0  0  0  0  0  0  0  0  0
   58.0830   32.6700   45.1660 C   0  0  0  0  0  0  0  0  0  0  0  0
   58.0200   33.9280   44.5760 C   0  0  0  0  0  0  0  0  0  0  0  0
   58.8930   34.9250   44.9750 C   0  0  0  0  0  0  0  0  0  0  0  0
   59.7990   34.6840   46.0000 C   0  0  0  0  0  0  0  0  0  0  0  0
   59.8320   33.4390   46.6800 C   0  0  0  0  0  0  0  0  0  0  0  0
   60.6740   33.2680   47.6660 N   0  0  0  0  0  0  0  0  0  0  0  0
   61.9800   33.9530   47.6880 C   0  0  0  0  0  0  0  0  0  0  0  0
   60.1960   32.7410   48.9130 C   0  0  0  0  0  0  0  0  0  0  0  0
   60.2380   33.5700   50.0430 C   0  0  0  0  0  0  0  0  0  0  0  0
   60.0500   33.0560   51.3150 C   0  0  0  0  0  0  0  0  0  0  0  0
   59.8540   31.6830   51.5120 C   0  0  0  0  0  0  0  0  0  0  0  0
   59.7520   31.1900   52.8690 N   0  0  0  0  0  0  0  0  0  0  0  0
   58.8390   32.0380   53.6520 C   0  0  0  0  0  0  0  0  0  0  0  0
   57.4110   31.4690   53.6680 C   0  0  0  0  0  0  0  0  0  0  0  0
   57.2270   30.4180   52.6400 N   0  0  0  0  0  0  0  0  0  0  0  0
   56.2480   30.8630   51.6340 C   0  0  0  0  0  0  0  0  0  0  0  0
   56.7650   29.1570   53.2470 C   0  0  0  0  0  0  0  0  0  0  0  0
   59.7990   30.8280   50.3730 C   0  0  0  0  0  0  0  0  0  0  0  0
   59.7080   29.4310   50.5190 C   0  0  0  0  0  0  0  0  0  0  0  0
   59.6410   28.6110   49.4060 C   0  0  0  0  0  0  0  0  0  0  0  0
   59.5760   29.1590   48.1340 C   0  0  0  0  0  0  0  0  0  0  0  0
   59.6200   30.5570   47.9220 C   0  0  0  0  0  0  0  0  0  0  0  0
   59.8570   31.3850   49.0530 C   0  0  0  0  0  0  0  0  0  0  0  0
   57.5962   26.8917   47.4988 H   0  0  0  0  0  0  0  0  0  0  0  0
   57.3880   25.6490   46.2186 H   0  0  0  0  0  0  0  0  0  0  0  0
   58.8422   26.7035   46.2186 H   0  0  0  0  0  0  0  0  0  0  0  0
   56.0247   27.2810   45.3451 H   0  0  0  0  0  0  0  0  0  0  0  0
   56.9915   28.6177   46.1388 H   0  0  0  0  0  0  0  0  0  0  0  0
   57.8466   29.8573   43.3435 H   0  0  0  0  0  0  0  0  0  0  0  0
   56.7271   28.6228   42.5643 H   0  0  0  0  0  0  0  0  0  0  0  0
   55.9530   29.6861   45.2457 H   0  0  0  0  0  0  0  0  0  0  0  0
   55.7960   30.7894   43.8369 H   0  0  0  0  0  0  0  0  0  0  0  0
   54.9471   29.2063   43.8369 H   0  0  0  0  0  0  0  0  0  0  0  0
   59.4902   27.1868   45.0827 H   0  0  0  0  0  0  0  0  0  0  0  0
   59.5796   27.7595   43.3642 H   0  0  0  0  0  0  0  0  0  0  0  0
   60.6292   29.1403   45.4589 H   0  0  0  0  0  0  0  0  0  0  0  0
   59.9958   29.9098   43.9454 H   0  0  0  0  0  0  0  0  0  0  0  0
   57.7720   29.7110   45.6600 H   0  0  0  0  0  0  0  0  0  0  0  0
   57.4042   31.8798   44.8127 H   0  0  0  0  0  0  0  0  0  0  0  0
   57.2758   34.1306   43.7917 H   0  0  0  0  0  0  0  0  0  0  0  0
   58.8695   35.9075   44.4808 H   0  0  0  0  0  0  0  0  0  0  0  0
   60.5059   35.4751   46.2907 H   0  0  0  0  0  0  0  0  0  0  0  0
   62.2910   34.1161   48.7304 H   0  0  0  0  0  0  0  0  0  0  0  0
   62.7287   33.3315   47.1750 H   0  0  0  0  0  0  0  0  0  0  0  0
   61.8944   34.9223   47.1750 H   0  0  0  0  0  0  0  0  0  0  0  0
   60.4234   34.6469   49.9170 H   0  0  0  0  0  0  0  0  0  0  0  0
   60.0546   33.7340   52.1812 H   0  0  0  0  0  0  0  0  0  0  0  0
   60.6950   31.1320   53.3160 H   0  0  0  0  0  0  0  0  0  0  0  0
   59.3800   30.2090   52.8580 H   0  0  0  0  0  0  0  0  0  0  0  0
   59.2094   32.1015   54.6858 H   0  0  0  0  0  0  0  0  0  0  0  0
   58.8074   33.0329   53.1838 H   0  0  0  0  0  0  0  0  0  0  0  0
   57.2109   31.0365   54.6594 H   0  0  0  0  0  0  0  0  0  0  0  0
   56.7129   32.2899   53.4471 H   0  0  0  0  0  0  0  0  0  0  0  0
   55.3593   31.2670   52.1409 H   0  0  0  0  0  0  0  0  0  0  0  0
   56.6984   31.6449   51.0048 H   0  0  0  0  0  0  0  0  0  0  0  0
   55.9551   30.0096   51.0048 H   0  0  0  0  0  0  0  0  0  0  0  0
   56.7970   29.2443   54.3431 H   0  0  0  0  0  0  0  0  0  0  0  0
   55.7333   28.9517   52.9255 H   0  0  0  0  0  0  0  0  0  0  0  0
   57.4199   28.3338   52.9255 H   0  0  0  0  0  0  0  0  0  0  0  0
   59.6900   28.9875   51.5255 H   0  0  0  0  0  0  0  0  0  0  0  0
   59.6393   27.5182   49.5313 H   0  0  0  0  0  0  0  0  0  0  0  0
   59.4878   28.4886   47.2663 H   0  0  0  0  0  0  0  0  0  0  0  0
  1  2  1  0
  2  3  1  0
  3  4  1  0
  4  5  1  0
  3  6  1  0
  6  7  1  0
  7  8  1  0
  8  9  1  0
  9 10  2  0
 10 11  1  0
 11 12  2  0
 12 13  1  0
 13 14  2  0
 14 15  1  0
 15 16  2  0
 16 17  1  0
 16 18  1  0
 18 19  2  0
 19 20  1  0
 20 21  2  0
 21 22  1  0
 22 23  1  0
 23 24  1  0
 24 25  1  0
 25 26  1  0
 25 27  1  0
 21 28  1  0
 28 29  2  0
 29 30  1  0
 30 31  2  0
 31 32  1  0
 32 33  2  0
 32  9  1  0
 15 10  1  0
 33 18  1  0
 33 28  1  0
  1 34  1  0
  1 35  1  0
  1 36  1  0
  2 37  1  0
  2 38  1  0
  4 39  1  0
  4 40  1  0
  5 41  1  0
  5 42  1  0
  5 43  1  0
  6 44  1  0
  6 45  1  0
  7 46  1  0
  7 47  1  0
  8 48  1  0
 11 49  1  0
 12 50  1  0
 13 51  1  0
 14 52  1  0
 17 53  1  0
 17 54  1  0
 17 55  1  0
 19 56  1  0
 20 57  1  0
 22 58  1  0
 22 59  1  0
 23 60  1  0
 23 61  1  0
 24 62  1  0
 24 63  1  0
 26 64  1  0
 26 65  1  0
 26 66  1  0
 27 67  1  0
 27 68  1  0
 27 69  1  0
 29 70  1  0
 30 71  1  0
 31 72  1  0
M  CHG  2  16   1  22   1
M  END
>  <UniqueID>  (1) 
1

>  <SMILES>  (1) 
CCN(CC)CCNC1=c2ccccc2=[N+](C)c2ccc([NH2+]CCN(C)C)c3cccc1c23

>  <Energy>  (1) 
149.29434767217307

>  <Genealogy>  (1) 
CCN(CC)CCNC1=c2ccccc2=[N+](C)c2ccc([NH2+]CCN(C)C)c3cccc1c23 (protonated)
CCN(CC)CCNC1=c2ccccc2=[N+](C)c2ccc([NH2+]CCN(C)C)c3cccc1c23 (3D coordinates assigned)
CCN(CC)CCNC1=c2ccccc2=[N+](C)c2ccc([NH2+]CCN(C)C)c3cccc1c23 (nonaromatic ring conformer: 149.29434767217307 kcal/mol)

>  <smiles>  (1) 
CCN(CC)CCNC1=c2ccccc2=[N+](C)c2ccc(NCCN(C)C)c3cccc1c23

>  <score_type>  (1) 
oracle

>  <origin>  (1) 
adg

>  <m_score__min__energy>  (1) 
-5.5

>  <m_primary>  (1) 
energy

$$$$
1:0
     RDKit          3D

 66 69  0  0  0  0  0  0  0  0999 V2000
   57.0870   25.5760   46.4730 C   0  0  0  0  0  0  0  0  0  0  0  0
   57.7860   25.6460   45.1180 C   0  0  0  0  0  0  0  0  0  0  0  0
   58.0380   27.0560   44.7450 N   0  0  0  0  0  0  0  0  0  0  0  0
   58.1610   27.1920   43.2820 C   0  0  0  0  0  0  0  0  0  0  0  0
   56.9680   27.9470   45.2400 C   0  0  0  0  0  0  0  0  0  0  0  0
   57.4640   29.3600   45.3520 C   0  0  0  0  0  0  0  0  0  0  0  0
   56.7440   30.4330   44.9260 N   0  0  0  0  0  0  0  0  0  0  0  0
   57.5560   31.4560   45.2480 C   0  0  0  0  0  0  0  0  0  0  0  0
   57.3650   33.1200   45.0530 S   0  0  0  0  0  0  0  0  0  0  0  0
   58.8790   33.3870   45.7960 C   0  0  0  0  0  0  0  0  0  0  0  0
   59.5030   34.6080   46.0390 C   0  0  0  0  0  0  0  0  0  0  0  0
   60.7520   34.6010   46.6790 C   0  0  0  0  0  0  0  0  0  0  0  0
   61.3480   33.3850   47.0680 C   0  0  0  0  0  0  0  0  0  0  0  0
   60.7080   32.1590   46.8200 C   0  0  0  0  0  0  0  0  0  0  0  0
   59.4680   32.1730   46.1700 C   0  0  0  0  0  0  0  0  0  0  0  0
   58.6940   31.1100   45.8350 N   0  0  0  0  0  0  0  0  0  0  0  0
   58.6850   29.7670   45.9030 C   0  0  0  0  0  0  0  0  0  0  0  0
   59.7320   28.8890   46.5230 C   0  0  0  0  0  0  0  0  0  0  0  0
   59.2850   28.4500   47.8510 N   0  0  0  0  0  0  0  0  0  0  0  0
   60.4120   27.9920   48.6770 C   0  0  0  0  0  0  0  0  0  0  0  0
   60.3320   28.6100   50.0780 C   0  0  0  0  0  0  0  0  0  0  0  0
   60.2460   30.1410   50.0160 C   0  0  0  0  0  0  0  0  0  0  0  0
   58.8310   30.5810   50.0630 N   0  0  0  0  0  0  0  0  0  0  0  0
   58.3340   30.8490   51.4370 C   0  0  0  0  0  0  0  0  0  0  0  0
   58.0060   32.3330   51.7020 C   0  0  0  0  0  0  0  0  0  0  0  0
   58.9810   33.2460   51.0710 N   0  0  0  0  0  0  0  0  0  0  0  0
   60.2880   33.2740   51.7690 C   0  0  0  0  0  0  0  0  0  0  0  0
   61.4290   33.4720   50.7730 C   0  0  0  0  0  0  0  0  0  0  0  0
   59.0960   33.0330   49.6050 C   0  0  0  0  0  0  0  0  0  0  0  0
   58.5320   31.6800   49.1240 C   0  0  0  0  0  0  0  0  0  0  0  0
   57.8352   25.6509   47.2759 H   0  0  0  0  0  0  0  0  0  0  0  0
   56.3715   26.4070   46.5599 H   0  0  0  0  0  0  0  0  0  0  0  0
   56.5505   24.6196   46.5599 H   0  0  0  0  0  0  0  0  0  0  0  0
   58.7440   25.1085   45.1752 H   0  0  0  0  0  0  0  0  0  0  0  0
   57.1406   25.1833   44.3569 H   0  0  0  0  0  0  0  0  0  0  0  0
   58.8818   27.9890   43.0472 H   0  0  0  0  0  0  0  0  0  0  0  0
   58.5126   26.2418   42.8537 H   0  0  0  0  0  0  0  0  0  0  0  0
   57.1803   27.4467   42.8537 H   0  0  0  0  0  0  0  0  0  0  0  0
   56.1199   27.9163   44.5402 H   0  0  0  0  0  0  0  0  0  0  0  0
   56.6532   27.6025   46.2361 H   0  0  0  0  0  0  0  0  0  0  0  0
   59.0291   35.5537   45.7371 H   0  0  0  0  0  0  0  0  0  0  0  0
   61.2691   35.5512   46.8783 H   0  0  0  0  0  0  0  0  0  0  0  0
   62.3258   33.3956   47.5718 H   0  0  0  0  0  0  0  0  0  0  0  0
   61.1705   31.2101   47.1294 H   0  0  0  0  0  0  0  0  0  0  0  0
   59.8975   28.0095   45.8834 H   0  0  0  0  0  0  0  0  0  0  0  0
   60.6702   29.4545   46.6224 H   0  0  0  0  0  0  0  0  0  0  0  0
   58.8450   29.2700   48.3310 H   0  0  0  0  0  0  0  0  0  0  0  0
   60.3777   26.8958   48.7616 H   0  0  0  0  0  0  0  0  0  0  0  0
   61.3536   28.3045   48.2018 H   0  0  0  0  0  0  0  0  0  0  0  0
   59.4380   28.2226   50.5885 H   0  0  0  0  0  0  0  0  0  0  0  0
   61.2461   28.3387   50.6265 H   0  0  0  0  0  0  0  0  0  0  0  0
   60.7875   30.5695   50.8722 H   0  0  0  0  0  0  0  0  0  0  0  0
   60.6960   30.4860   49.0734 H   0  0  0  0  0  0  0  0  0  0  0  0
   57.4201   30.2579   51.5967 H   0  0  0  0  0  0  0  0  0  0  0  0
   59.1418   30.5707   52.1299 H   0  0  0  0  0  0  0  0  0  0  0  0
   57.0058   32.5512   51.2995 H   0  0  0  0  0  0  0  0  0  0  0  0
   58.0473   32.4970   52.7889 H   0  0  0  0  0  0  0  0  0  0  0  0
   60.2929   34.1023   52.4928 H   0  0  0  0  0  0  0  0  0  0  0  0
   60.4330   32.3139   52.2859 H   0  0  0  0  0  0  0  0  0  0  0  0
   62.3692   33.6352   51.3202 H   0  0  0  0  0  0  0  0  0  0  0  0
   61.5233   32.5768   50.1408 H   0  0  0  0  0  0  0  0  0  0  0  0
   61.2162   34.3466   50.1408 H   0  0  0  0  0  0  0  0  0  0  0  0
   58.5478   33.8382   49.0939 H   0  0  0  0  0  0  0  0  0  0  0  0
   60.1695   33.0349   49.3652 H   0  0  0  0  0  0  0  0  0  0  0  0
   57.4405   31.7689   49.0200 H   0  0  0  0  0  0  0  0  0  0  0  0
   59.0097   31.4397   48.1627 H   0  0  0  0  0  0  0  0  0  0  0  0
  1  2  1  0
  2  3  1  0
  3  4  1  0
  3  5  1  0
  5  6  1  0
  6  7  1  0
  7  8  2  0
  8  9  1  0
  9 10  1  0
 10 11  2  0
 11 12  1  0
 12 13  2  0
 13 14  1  0
 14 15  2  0
 15 16  1  0
 16 17  1  0
 17 18  1  0
 18 19  1  0
 19 20  1  0
 20 21  1  0
 21 22  1  0
 22 23  1  0
 23 24  1  0
 24 25  1  0
 25 26  1  0
 26 27  1  0
 27 28  1  0
 26 29  1  0
 29 30  1  0
 17  6  2  0
 30 23  1  0
 16  8  1  0
 15 10  1  0
  1 31  1  0
  1 32  1  0
  1 33  1  0
  2 34  1  0
  2 35  1  0
  4 36  1  0
  4 37  1  0
  4 38  1  0
  5 39  1  0
  5 40  1  0
 11 41  1  0
 12 42  1  0
 13 43  1  0
 14 44  1  0
 18 45  1  0
 18 46  1  0
 19 47  1  0
 20 48  1  0
 20 49  1  0
 21 50  1  0
 21 51  1  0
 22 52  1  0
 22 53  1  0
 24 54  1  0
 24 55  1  0
 25 56  1  0
 25 57  1  0
 27 58  1  0
 27 59  1  0
 28 60  1  0
 28 61  1  0
 28 62  1  0
 29 63  1  0
 29 64  1  0
 30 65  1  0
 30 66  1  0
M  END
>  <UniqueID>  (2) 
2

>  <SMILES>  (2) 
CCN(C)Cc1nc2sc3ccccc3n2c1CNCCCN1CCN(CC)CC1

>  <Energy>  (2) 
159.13491483957117

>  <Genealogy>  (2) 
CCN(C)Cc1nc2sc3ccccc3n2c1CNCCCN1CCN(CC)CC1 (3D coordinates assigned)
CCN(C)Cc1nc2sc3ccccc3n2c1CNCCCN1CCN(CC)CC1 (nonaromatic ring conformer: 159.13491483957117 kcal/mol)

>  <smiles>  (2) 
CCN(C)Cc1nc2sc3ccccc3n2c1CNCCCN1CCN(CC)CC1

>  <score_type>  (2) 
oracle

>  <origin>  (2) 
adg

>  <m_score__min__energy>  (2) 
-7.5899999999999999

>  <m_primary>  (2) 
energy

$$$$
2:0
     RDKit          3D

 39 40  0  0  0  0  0  0  0  0999 V2000
   54.5710   23.9920   45.0300 C   0  0  0  0  0  0  0  0  0  0  0  0
   53.8300   25.1880   45.6200 C   0  0  0  0  0  0  0  0  0  0  0  0
   54.7710   26.2440   45.9760 N   0  0  0  0  0  0  0  0  0  0  0  0
   56.1230   26.0440   46.4070 C   0  0  0  0  0  0  0  0  0  0  0  0
   56.3470   25.2100   47.3250 O   0  0  0  0  0  0  0  0  0  0  0  0
   57.2590   26.8580   45.8570 C   0  0  0  0  0  0  0  0  0  0  0  0
   58.0780   27.3370   46.9190 O   0  0  0  0  0  0  0  0  0  0  0  0
   59.3190   27.9430   46.7010 C   0  0  0  0  0  0  0  0  0  0  0  0
   60.2340   27.8700   47.5680 O   0  0  0  0  0  0  0  0  0  0  0  0
   59.5580   28.6990   45.4340 C   0  0  0  0  0  0  0  0  0  0  0  0
   58.7480   29.9160   45.4140 N   0  0  0  0  0  0  0  0  0  0  0  0
   57.5360   30.0660   44.8230 C   0  0  0  0  0  0  0  0  0  0  0  0
   57.0600   31.3360   44.8890 N   0  0  0  0  0  0  0  0  0  0  0  0
   58.0380   31.9880   45.5510 C   0  0  0  0  0  0  0  0  0  0  0  0
   59.0520   31.1480   45.8620 C   0  0  0  0  0  0  0  0  0  0  0  0
   60.1860   31.6270   46.5070 C   0  0  0  0  0  0  0  0  0  0  0  0
   61.1440   30.8520   46.7820 O   0  0  0  0  0  0  0  0  0  0  0  0
   60.2380   32.9640   46.8300 N   0  0  0  0  0  0  0  0  0  0  0  0
   61.4380   33.5200   47.4800 C   0  0  0  0  0  0  0  0  0  0  0  0
   59.1980   33.8080   46.4750 C   0  0  0  0  0  0  0  0  0  0  0  0
   59.2870   35.0470   46.7150 O   0  0  0  0  0  0  0  0  0  0  0  0
   58.0720   33.3150   45.8520 N   0  0  0  0  0  0  0  0  0  0  0  0
   56.9780   34.2040   45.4390 C   0  0  0  0  0  0  0  0  0  0  0  0
   54.9603   23.3636   45.8446 H   0  0  0  0  0  0  0  0  0  0  0  0
   53.8800   23.4020   44.4100 H   0  0  0  0  0  0  0  0  0  0  0  0
   55.4070   24.3481   44.4100 H   0  0  0  0  0  0  0  0  0  0  0  0
   53.1158   25.5740   44.8777 H   0  0  0  0  0  0  0  0  0  0  0  0
   53.2962   24.8654   46.5261 H   0  0  0  0  0  0  0  0  0  0  0  0
   57.8640   26.2310   45.1856 H   0  0  0  0  0  0  0  0  0  0  0  0
   56.8512   27.7159   45.3023 H   0  0  0  0  0  0  0  0  0  0  0  0
   60.6222   28.9692   45.3669 H   0  0  0  0  0  0  0  0  0  0  0  0
   59.2776   28.0661   44.5791 H   0  0  0  0  0  0  0  0  0  0  0  0
   56.9931   29.2410   44.3386 H   0  0  0  0  0  0  0  0  0  0  0  0
   61.3215   33.4660   48.5725 H   0  0  0  0  0  0  0  0  0  0  0  0
   62.3217   32.9396   47.1764 H   0  0  0  0  0  0  0  0  0  0  0  0
   61.5665   34.5694   47.1764 H   0  0  0  0  0  0  0  0  0  0  0  0
   56.4786   34.6098   46.3312 H   0  0  0  0  0  0  0  0  0  0  0  0
   57.3845   35.0310   44.8383 H   0  0  0  0  0  0  0  0  0  0  0  0
   56.2517   33.6369   44.8383 H   0  0  0  0  0  0  0  0  0  0  0  0
  1  2  1  0
  2  3  1  0
  3  4  1  0
  4  5  2  0
  4  6  1  0
  6  7  1  0
  7  8  1  0
  8  9  2  0
  8 10  1  0
 10 11  1  0
 11 12  1  0
 12 13  2  0
 13 14  1  0
 14 15  2  0
 15 16  1  0
 16 17  2  0
 16 18  1  0
 18 19  1  0
 18 20  1  0
 20 21  2  0
 20 22  1  0
 22 23  1  0
 15 11  1  0
 22 14  1  0
  1 24  1  0
  1 25  1  0
  1 26  1  0
  2 27  1  0
  2 28  1  0
  6 29  1  0
  6 30  1  0
 10 31  1  0
 10 32  1  0
 12 33  1  0
 19 34  1  0
 19 35  1  0
 19 36  1  0
 23 37  1  0
 23 38  1  0
 23 39  1  0
M  CHG  1   3  -1
M  END
>  <UniqueID>  (3) 
3

>  <SMILES>  (3) 
CC[N-]C(=O)COC(=O)Cn1cnc2c1c(=O)n(C)c(=O)n2C

>  <Energy>  (3) 
76.21852462885326

>  <Genealogy>  (3) 
CC[N-]C(=O)COC(=O)Cn1cnc2c1c(=O)n(C)c(=O)n2C (protonated)
CC[N-]C(=O)COC(=O)Cn1cnc2c1c(=O)n(C)c(=O)n2C (3D coordinates assigned)
CC[N-]C(=O)COC(=O)Cn1cnc2c1c(=O)n(C)c(=O)n2C (optimized conformer: 76.21852462885326 kcal/mol)

>  <smiles>  (3) 
CCNC(=O)COC(=O)Cn1cnc2c1c(=O)n(C)c(=O)n2C

>  <score_type>  (3) 
oracle

>  <origin>  (3) 
adg

>  <m_score__min__energy>  (3) 
-9.1799999999999997

>  <m_primary>  (3) 
energy

$$$$
3:0
     RDKit          3D

 69 72  0  0  0  0  0  0  0  0999 V2000
   59.4630   34.8460   47.9180 C   0  0  0  0  0  0  0  0  0  0  0  0
   59.6690   34.5600   46.4300 C   0  0  0  0  0  0  0  0  0  0  0  0
   59.2870   33.1210   46.0390 C   0  0  0  0  0  0  0  0  0  0  0  0
   57.8550   32.7400   46.4440 C   0  0  0  0  0  0  0  0  0  0  0  0
   57.1150   32.2230   45.2870 N   0  0  0  0  0  0  0  0  0  0  0  0
   57.7510   32.6460   44.0340 C   0  0  0  0  0  0  0  0  0  0  0  0
   57.4960   31.6040   42.9380 C   0  0  0  0  0  0  0  0  0  0  0  0
   56.5200   30.6560   43.3300 O   0  0  0  0  0  0  0  0  0  0  0  0
   57.0030   29.3300   43.1930 C   0  0  0  0  0  0  0  0  0  0  0  0
   57.3760   28.7680   44.5720 C   0  0  0  0  0  0  0  0  0  0  0  0
   58.4310   29.5430   45.2480 N   0  0  0  0  0  0  0  0  0  0  0  0
   58.2330   29.6150   46.7010 C   0  0  0  0  0  0  0  0  0  0  0  0
   59.4010   28.9580   47.4360 C   0  0  0  0  0  0  0  0  0  0  0  0
   60.5940   29.8050   47.3920 N   0  0  0  0  0  0  0  0  0  0  0  0
   60.7980   30.8670   48.3370 C   0  0  0  0  0  0  0  0  0  0  0  0
   59.9470   30.9850   49.4310 C   0  0  0  0  0  0  0  0  0  0  0  0
   60.0870   32.0220   50.3350 C   0  0  0  0  0  0  0  0  0  0  0  0
   61.1320   32.9080   50.2660 N   0  0  0  0  0  0  0  0  0  0  0  0
   61.4240   33.7890   51.4100 C   0  0  0  0  0  0  0  0  0  0  0  0
   61.9460   32.8860   49.1440 C   0  0  0  0  0  0  0  0  0  0  0  0
   62.9120   33.8930   48.9070 C   0  0  0  0  0  0  0  0  0  0  0  0
   63.7830   33.8110   47.8210 C   0  0  0  0  0  0  0  0  0  0  0  0
   63.7170   32.7320   46.9480 C   0  0  0  0  0  0  0  0  0  0  0  0
   62.7490   31.7450   47.1250 C   0  0  0  0  0  0  0  0  0  0  0  0
   61.8230   31.8290   48.1840 C   0  0  0  0  0  0  0  0  0  0  0  0
   58.9910   31.9140   51.3080 C   0  0  0  0  0  0  0  0  0  0  0  0
   58.5360   32.7930   52.3030 C   0  0  0  0  0  0  0  0  0  0  0  0
   57.3990   32.4410   53.0460 C   0  0  0  0  0  0  0  0  0  0  0  0
   56.7040   31.2520   52.7650 C   0  0  0  0  0  0  0  0  0  0  0  0
   57.1270   30.4190   51.7200 C   0  0  0  0  0  0  0  0  0  0  0  0
   58.2660   30.7730   50.9980 C   0  0  0  0  0  0  0  0  0  0  0  0
   58.8030   30.0830   49.7880 C   0  0  0  0  0  0  0  0  0  0  0  0
   60.0034   34.0957   48.5138 H   0  0  0  0  0  0  0  0  0  0  0  0
   59.8475   35.8489   48.1553 H   0  0  0  0  0  0  0  0  0  0  0  0
   58.3899   34.7991   48.1553 H   0  0  0  0  0  0  0  0  0  0  0  0
   59.0485   35.2582   45.8490 H   0  0  0  0  0  0  0  0  0  0  0  0
   60.7400   34.6879   46.2141 H   0  0  0  0  0  0  0  0  0  0  0  0
   59.3796   33.0197   44.9476 H   0  0  0  0  0  0  0  0  0  0  0  0
   59.9680   32.4458   46.5778 H   0  0  0  0  0  0  0  0  0  0  0  0
   57.8932   31.9661   47.2248 H   0  0  0  0  0  0  0  0  0  0  0  0
   57.3419   33.6359   46.8236 H   0  0  0  0  0  0  0  0  0  0  0  0
   57.1440   31.1760   45.3320 H   0  0  0  0  0  0  0  0  0  0  0  0
   57.3316   33.6136   43.7213 H   0  0  0  0  0  0  0  0  0  0  0  0
   58.8349   32.7433   44.1943 H   0  0  0  0  0  0  0  0  0  0  0  0
   57.1474   32.1195   42.0309 H   0  0  0  0  0  0  0  0  0  0  0  0
   58.4378   31.0674   42.7509 H   0  0  0  0  0  0  0  0  0  0  0  0
   56.2213   28.7013   42.7416 H   0  0  0  0  0  0  0  0  0  0  0  0
   57.8943   29.3326   42.5484 H   0  0  0  0  0  0  0  0  0  0  0  0
   56.4774   28.7731   45.2064 H   0  0  0  0  0  0  0  0  0  0  0  0
   57.7658   27.7512   44.4163 H   0  0  0  0  0  0  0  0  0  0  0  0
   58.4510   30.5140   44.8560 H   0  0  0  0  0  0  0  0  0  0  0  0
   58.1623   30.6700   47.0044 H   0  0  0  0  0  0  0  0  0  0  0  0
   57.3062   29.0819   46.9596 H   0  0  0  0  0  0  0  0  0  0  0  0
   59.1171   28.7914   48.4856 H   0  0  0  0  0  0  0  0  0  0  0  0
   59.6320   28.0027   46.9420 H   0  0  0  0  0  0  0  0  0  0  0  0
   61.4370   29.4120   46.9130 H   0  0  0  0  0  0  0  0  0  0  0  0
   61.2433   33.2438   52.3481 H   0  0  0  0  0  0  0  0  0  0  0  0
   62.4759   34.1080   51.3680 H   0  0  0  0  0  0  0  0  0  0  0  0
   60.7708   34.6731   51.3680 H   0  0  0  0  0  0  0  0  0  0  0  0
   62.9767   34.7531   49.5896 H   0  0  0  0  0  0  0  0  0  0  0  0
   64.5262   34.6047   47.6546 H   0  0  0  0  0  0  0  0  0  0  0  0
   64.4310   32.6566   46.1146 H   0  0  0  0  0  0  0  0  0  0  0  0
   62.7074   30.8922   46.4314 H   0  0  0  0  0  0  0  0  0  0  0  0
   59.0609   33.7401   52.4967 H   0  0  0  0  0  0  0  0  0  0  0  0
   57.0491   33.1002   53.8541 H   0  0  0  0  0  0  0  0  0  0  0  0
   55.8259   30.9745   53.3667 H   0  0  0  0  0  0  0  0  0  0  0  0
   56.5704   29.5026   51.4740 H   0  0  0  0  0  0  0  0  0  0  0  0
   59.1485   29.0654   50.0228 H   0  0  0  0  0  0  0  0  0  0  0  0
   58.0678   29.9410   48.9822 H   0  0  0  0  0  0  0  0  0  0  0  0
  1  2  1  0
  2  3  1  0
  3  4  1  0
  4  5  1  0
  5  6  1  0
  6  7  1  0
  7  8  1  0
  8  9  1  0
  9 10  1  0
 10 11  1  0
 11 12  1  0
 12 13  1  0
 13 14  1  0
 14 15  1  0
 15 16  2  0
 16 17  1  0
 17 18  2  0
 18 19  1  0
 18 20  1  0
 20 21  2  0
 21 22  1  0
 22 23  2  0
 23 24  1  0
 24 25  2  0
 17 26  1  0
 26 27  2  0
 27 28  1  0
 28 29  2  0
 29 30  1  0
 30 31  2  0
 31 32  1  0
 25 15  1  0
 31 26  1  0
 32 16  1  0
 25 20  1  0
  1 33  1  0
  1 34  1  0
  1 35  1  0
  2 36  1  0
  2 37  1  0
  3 38  1  0
  3 39  1  0
  4 40  1  0
  4 41  1  0
  5 42  1  0
  6 43  1  0
  6 44  1  0
  7 45  1  0
  7 46  1  0
  9 47  1  0
  9 48  1  0
 10 49  1  0
 10 50  1  0
 11 51  1  0
 12 52  1  0
 12 53  1  0
 13 54  1  0
 13 55  1  0
 14 56  1  0
 19 57  1  0
 19 58  1  0
 19 59  1  0
 21 60  1  0
 22 61  1  0
 23 62  1  0
 24 63  1  0
 27 64  1  0
 28 65  1  0
 29 66  1  0
 30 67  1  0
 32 68  1  0
 32 69  1  0
M  CHG  1  18   1
M  END
>  <UniqueID>  (4) 
4

>  <SMILES>  (4) 
CCCCNCCOCCNCCNc1c2c([n+](C)c3ccccc13)-c1ccccc1C2

>  <Energy>  (4) 
104.9378517044359

>  <Genealogy>  (4) 
CCCCNCCOCCNCCNc1c2c([n+](C)c3ccccc13)-c1ccccc1C2 (3D coordinates assigned)
CCCCNCCOCCNCCNc1c2c([n+](C)c3ccccc13)-c1ccccc1C2 (nonaromatic ring conformer: 104.9378517044359 kcal/mol)

>  <smiles>  (4) 
CCCCNCCOCCNCCNc1c2c([n+](C)c3ccccc13)-c1ccccc1C2

>  <score_type>  (4) 
oracle

>  <origin>  (4) 
adg

>  <m_score__min__energy>  (4) 
-5.5300000000000002

>  <m_primary>  (4) 
energy

$$$$
4:0
     RDKit          3D

 47 49  0  0  0  0  0  0  0  0999 V2000
   62.0730   33.8560   46.4390 C   0  0  0  0  0  0  0  0  0  0  0  0
   63.5650   33.5540   46.5620 C   0  0  0  0  0  0  0  0  0  0  0  0
   63.7970   32.3330   47.3510 N   0  0  0  0  0  0  0  0  0  0  0  0
   62.5720   31.9030   48.0670 C   0  0  0  0  0  0  0  0  0  0  0  0
   61.8320   30.7520   47.3570 C   0  0  0  0  0  0  0  0  0  0  0  0
   60.8340   30.0060   48.2550 C   0  0  0  0  0  0  0  0  0  0  0  0
   59.4640   30.4820   48.0500 N   0  0  0  0  0  0  0  0  0  0  0  0
   58.8510   30.5320   46.7470 C   0  0  0  0  0  0  0  0  0  0  0  0
   58.5640   29.3460   46.0440 C   0  0  0  0  0  0  0  0  0  0  0  0
   58.7560   28.0810   46.6440 C   0  0  0  0  0  0  0  0  0  0  0  0
   58.5670   26.9110   45.9150 C   0  0  0  0  0  0  0  0  0  0  0  0
   58.1800   26.9760   44.5830 C   0  0  0  0  0  0  0  0  0  0  0  0
   57.9280   28.2100   43.9860 C   0  0  0  0  0  0  0  0  0  0  0  0
   58.0580   29.4190   44.7190 C   0  0  0  0  0  0  0  0  0  0  0  0
   57.7120   30.6410   44.1720 N   0  0  0  0  0  0  0  0  0  0  0  0
   56.9230   30.6940   42.9200 C   0  0  0  0  0  0  0  0  0  0  0  0
   58.0610   31.8130   44.8180 C   0  0  0  0  0  0  0  0  0  0  0  0
   57.9330   33.0770   44.1850 C   0  0  0  0  0  0  0  0  0  0  0  0
   58.2390   34.2570   44.8630 C   0  0  0  0  0  0  0  0  0  0  0  0
   58.6930   34.2130   46.1740 C   0  0  0  0  0  0  0  0  0  0  0  0
   58.9900   35.3640   46.8270 F   0  0  0  0  0  0  0  0  0  0  0  0
   58.8750   32.9860   46.8070 C   0  0  0  0  0  0  0  0  0  0  0  0
   58.5880   31.7750   46.1380 C   0  0  0  0  0  0  0  0  0  0  0  0
   61.6329   33.9451   47.4432 H   0  0  0  0  0  0  0  0  0  0  0  0
   61.9339   34.8005   45.8926 H   0  0  0  0  0  0  0  0  0  0  0  0
   61.5775   33.0399   45.8926 H   0  0  0  0  0  0  0  0  0  0  0  0
   63.9876   33.4168   45.5557 H   0  0  0  0  0  0  0  0  0  0  0  0
   64.0504   34.3977   47.0744 H   0  0  0  0  0  0  0  0  0  0  0  0
   64.5430   32.5370   48.0570 H   0  0  0  0  0  0  0  0  0  0  0  0
   64.1600   31.5760   46.7270 H   0  0  0  0  0  0  0  0  0  0  0  0
   62.8550   31.5682   49.0759 H   0  0  0  0  0  0  0  0  0  0  0  0
   61.8888   32.7646   48.0968 H   0  0  0  0  0  0  0  0  0  0  0  0
   61.2822   31.1698   46.5008 H   0  0  0  0  0  0  0  0  0  0  0  0
   62.5957   30.0212   47.0526 H   0  0  0  0  0  0  0  0  0  0  0  0
   60.8774   28.9319   48.0216 H   0  0  0  0  0  0  0  0  0  0  0  0
   61.1094   30.1915   49.3037 H   0  0  0  0  0  0  0  0  0  0  0  0
   58.9940   30.9710   48.8440 H   0  0  0  0  0  0  0  0  0  0  0  0
   59.0585   28.0206   47.6999 H   0  0  0  0  0  0  0  0  0  0  0  0
   58.7243   25.9335   46.3944 H   0  0  0  0  0  0  0  0  0  0  0  0
   58.0720   26.0511   43.9974 H   0  0  0  0  0  0  0  0  0  0  0  0
   57.6234   28.2478   42.9297 H   0  0  0  0  0  0  0  0  0  0  0  0
   55.8528   30.7659   43.1638 H   0  0  0  0  0  0  0  0  0  0  0  0
   57.2253   31.5739   42.3331 H   0  0  0  0  0  0  0  0  0  0  0  0
   57.1049   29.7816   42.3331 H   0  0  0  0  0  0  0  0  0  0  0  0
   57.5866   33.1269   43.1421 H   0  0  0  0  0  0  0  0  0  0  0  0
   58.1201   35.2263   44.3567 H   0  0  0  0  0  0  0  0  0  0  0  0
   59.2472   32.9592   47.8418 H   0  0  0  0  0  0  0  0  0  0  0  0
  1  2  1  0
  2  3  1  0
  3  4  1  0
  4  5  1  0
  5  6  1  0
  6  7  1  0
  7  8  1  0
  8  9  2  0
  9 10  1  0
 10 11  2  0
 11 12  1  0
 12 13  2  0
 13 14  1  0
 14 15  2  0
 15 16  1  0
 15 17  1  0
 17 18  2  0
 18 19  1  0
 19 20  2  0
 20 21  1  0
 20 22  1  0
 22 23  2  0
 23  8  1  0
 14  9  1  0
 23 17  1  0
  1 24  1  0
  1 25  1  0
  1 26  1  0
  2 27  1  0
  2 28  1  0
  3 29  1  0
  3 30  1  0
  4 31  1  0
  4 32  1  0
  5 33  1  0
  5 34  1  0
  6 35  1  0
  6 36  1  0
  7 37  1  0
 10 38  1  0
 11 39  1  0
 12 40  1  0
 13 41  1  0
 16 42  1  0
 16 43  1  0
 16 44  1  0
 18 45  1  0
 19 46  1  0
 22 47  1  0
M  CHG  2   3   1  15   1
M  END
>  <UniqueID>  (5) 
5

>  <SMILES>  (5) 
CC[NH2+]CCCNc1c2ccccc2[n+](C)c2ccc(F)cc12

>  <Energy>  (5) 
70.50564198099396

>  <Genealogy>  (5) 
CC[NH2+]CCCNc1c2ccccc2[n+](C)c2ccc(F)cc12 (protonated)
CC[NH2+]CCCNc1c2ccccc2[n+](C)c2ccc(F)cc12 (3D coordinates assigned)
CC[NH2+]CCCNc1c2ccccc2[n+](C)c2ccc(F)cc12 (optimized conformer: 70.50564198099396 kcal/mol)

>  <smiles>  (5) 
CCNCCCNc1c2ccccc2[n+](C)c2ccc(F)cc12

>  <score_type>  (5) 
oracle

>  <origin>  (5) 
adg

>  <m_score__min__energy>  (5) 
-4.3899999999999997

>  <m_primary>  (5) 
energy

$$$$
5:0
     RDKit          3D

 44 45  0  0  0  0  0  0  0  0999 V2000
   55.4560   23.6780   45.7330 C   0  0  0  0  0  0  0  0  0  0  0  0
   54.5330   24.8860   45.6320 C   0  0  0  0  0  0  0  0  0  0  0  0
   55.2730   26.1130   45.9500 N   0  0  0  0  0  0  0  0  0  0  0  0
   56.5250   25.7870   46.6450 C   0  0  0  0  0  0  0  0  0  0  0  0
   57.7320   26.0750   45.7460 C   0  0  0  0  0  0  0  0  0  0  0  0
   57.4200   25.8060   44.3320 N   0  0  0  0  0  0  0  0  0  0  0  0
   58.1250   26.7110   43.4070 C   0  0  0  0  0  0  0  0  0  0  0  0
   58.2410   28.1140   43.9590 C   0  0  0  0  0  0  0  0  0  0  0  0
   57.1840   29.0190   43.8120 C   0  0  0  0  0  0  0  0  0  0  0  0
   57.2800   30.3130   44.3290 C   0  0  0  0  0  0  0  0  0  0  0  0
   58.4410   30.7430   45.0160 C   0  0  0  0  0  0  0  0  0  0  0  0
   58.5430   32.0950   45.5600 N   0  0  0  0  0  0  0  0  0  0  0  0
   58.3240   33.2530   44.6670 C   0  0  0  0  0  0  0  0  0  0  0  0
   58.5400   34.6060   45.3530 C   0  0  0  0  0  0  0  0  0  0  0  0
   58.0580   34.5850   46.6740 O   0  0  0  0  0  0  0  0  0  0  0  0
   58.8870   33.7410   47.4350 C   0  0  0  0  0  0  0  0  0  0  0  0
   58.7150   32.2780   47.0180 C   0  0  0  0  0  0  0  0  0  0  0  0
   59.5020   29.8150   45.1460 C   0  0  0  0  0  0  0  0  0  0  0  0
   59.4010   28.5230   44.6270 C   0  0  0  0  0  0  0  0  0  0  0  0
   55.6364   23.4419   46.7921 H   0  0  0  0  0  0  0  0  0  0  0  0
   54.9853   22.8147   45.2399 H   0  0  0  0  0  0  0  0  0  0  0  0
   56.4127   23.9053   45.2399 H   0  0  0  0  0  0  0  0  0  0  0  0
   54.1353   24.9556   44.6088 H   0  0  0  0  0  0  0  0  0  0  0  0
   53.7058   24.7683   46.3474 H   0  0  0  0  0  0  0  0  0  0  0  0
   55.5210   26.5770   45.0450 H   0  0  0  0  0  0  0  0  0  0  0  0
   56.6008   26.3960   47.5579 H   0  0  0  0  0  0  0  0  0  0  0  0
   56.5205   24.7171   46.9004 H   0  0  0  0  0  0  0  0  0  0  0  0
   58.0169   27.1318   45.8557 H   0  0  0  0  0  0  0  0  0  0  0  0
   58.5584   25.4164   46.0514 H   0  0  0  0  0  0  0  0  0  0  0  0
   56.3880   25.9000   44.1880 H   0  0  0  0  0  0  0  0  0  0  0  0
   59.1359   26.3164   43.2268 H   0  0  0  0  0  0  0  0  0  0  0  0
   57.5433   26.7616   42.4748 H   0  0  0  0  0  0  0  0  0  0  0  0
   56.2697   28.7088   43.2848 H   0  0  0  0  0  0  0  0  0  0  0  0
   56.4390   31.0102   44.2002 H   0  0  0  0  0  0  0  0  0  0  0  0
   59.0227   33.1766   43.8208 H   0  0  0  0  0  0  0  0  0  0  0  0
   57.2725   33.2184   44.3458 H   0  0  0  0  0  0  0  0  0  0  0  0
   59.6159   34.8346   45.3664 H   0  0  0  0  0  0  0  0  0  0  0  0
   57.9891   35.3750   44.7916 H   0  0  0  0  0  0  0  0  0  0  0  0
   59.9358   34.0366   47.2845 H   0  0  0  0  0  0  0  0  0  0  0  0
   58.6064   33.8378   48.4942 H   0  0  0  0  0  0  0  0  0  0  0  0
   59.6070   31.7184   47.3361 H   0  0  0  0  0  0  0  0  0  0  0  0
   57.7972   31.9105   47.5002 H   0  0  0  0  0  0  0  0  0  0  0  0
   60.4231   30.1175   45.6656 H   0  0  0  0  0  0  0  0  0  0  0  0
   60.2396   27.8209   44.7439 H   0  0  0  0  0  0  0  0  0  0  0  0
  1  2  1  0
  2  3  1  0
  3  4  1  0
  4  5  1  0
  5  6  1  0
  6  7  1  0
  7  8  1  0
  8  9  2  0
  9 10  1  0
 10 11  2  0
 11 12  1  0
 12 13  1  0
 13 14  1  0
 14 15  1  0
 15 16  1  0
 16 17  1  0
 11 18  1  0
 18 19  2  0
 19  8  1  0
 17 12  1  0
  1 20  1  0
  1 21  1  0
  1 22  1  0
  2 23  1  0
  2 24  1  0
  3 25  1  0
  4 26  1  0
  4 27  1  0
  5 28  1  0
  5 29  1  0
  6 30  1  0
  7 31  1  0
  7 32  1  0
  9 33  1  0
 10 34  1  0
 13 35  1  0
 13 36  1  0
 14 37  1  0
 14 38  1  0
 16 39  1  0
 16 40  1  0
 17 41  1  0
 17 42  1  0
 18 43  1  0
 19 44  1  0
M  END
>  <UniqueID>  (6) 
6

>  <SMILES>  (6) 
CCNCCNCc1ccc(N2CCOCC2)cc1

>  <Energy>  (6) 
45.208173646502146

>  <Genealogy>  (6) 
CCNCCNCc1ccc(N2CCOCC2)cc1 (3D coordinates assigned)
CCNCCNCc1ccc(N2CCOCC2)cc1 (nonaromatic ring conformer: 45.208173646502146 kcal/mol)

>  <smiles>  (6) 
CCNCCNCc1ccc(N2CCOCC2)cc1

>  <score_type>  (6) 
oracle

>  <origin>  (6) 
adg

>  <m_score__min__energy>  (6) 
-6.25

>  <m_primary>  (6) 
energy

$$$$
6:0
     RDKit          3D

 50 52  0  0  0  0  0  0  0  0999 V2000
   55.5320   29.7850   44.0910 C   0  0  0  0  0  0  0  0  0  0  0  0
   56.9040   29.8890   43.4300 C   0  0  0  0  0  0  0  0  0  0  0  0
   57.7260   30.9140   44.1140 N   0  0  0  0  0  0  0  0  0  0  0  0
   58.1390   32.0030   43.1930 C   0  0  0  0  0  0  0  0  0  0  0  0
   57.4620   31.9550   41.8160 C   0  0  0  0  0  0  0  0  0  0  0  0
   58.8470   30.3000   44.8620 C   0  0  0  0  0  0  0  0  0  0  0  0
   58.3530   29.5110   46.0870 C   0  0  0  0  0  0  0  0  0  0  0  0
   59.2750   29.7030   47.2910 C   0  0  0  0  0  0  0  0  0  0  0  0
   58.5790   30.3880   48.3270 O   0  0  0  0  0  0  0  0  0  0  0  0
   58.9200   31.6750   48.7500 C   0  0  0  0  0  0  0  0  0  0  0  0
   58.6210   32.0650   49.9120 O   0  0  0  0  0  0  0  0  0  0  0  0
   59.6080   32.5930   47.8140 C   0  0  0  0  0  0  0  0  0  0  0  0
   58.8640   33.3000   46.8530 C   0  0  0  0  0  0  0  0  0  0  0  0
   59.4880   34.0810   45.9190 C   0  0  0  0  0  0  0  0  0  0  0  0
   60.8360   34.2120   45.8850 N   0  0  0  0  0  0  0  0  0  0  0  0
   61.6150   33.5750   46.8020 C   0  0  0  0  0  0  0  0  0  0  0  0
   63.0040   33.7390   46.7560 C   0  0  0  0  0  0  0  0  0  0  0  0
   63.8170   33.1140   47.7040 C   0  0  0  0  0  0  0  0  0  0  0  0
   63.2470   32.3350   48.7120 C   0  0  0  0  0  0  0  0  0  0  0  0
   61.8620   32.1600   48.7730 C   0  0  0  0  0  0  0  0  0  0  0  0
   61.0220   32.7540   47.8060 C   0  0  0  0  0  0  0  0  0  0  0  0
   58.5520   34.7060   44.9630 C   0  0  0  0  0  0  0  0  0  0  0  0
   57.1780   34.1520   45.3820 C   0  0  0  0  0  0  0  0  0  0  0  0
   57.3920   33.2850   46.6390 C   0  0  0  0  0  0  0  0  0  0  0  0
   55.6502   29.7940   45.1846 H   0  0  0  0  0  0  0  0  0  0  0  0
   54.9107   30.6386   43.7824 H   0  0  0  0  0  0  0  0  0  0  0  0
   55.0464   28.8475   43.7824 H   0  0  0  0  0  0  0  0  0  0  0  0
   57.4119   28.9153   43.4923 H   0  0  0  0  0  0  0  0  0  0  0  0
   56.7735   30.1783   42.3768 H   0  0  0  0  0  0  0  0  0  0  0  0
   57.8926   32.9656   43.6649 H   0  0  0  0  0  0  0  0  0  0  0  0
   59.2178   31.8767   43.0188 H   0  0  0  0  0  0  0  0  0  0  0  0
   56.3724   31.8777   41.9456 H   0  0  0  0  0  0  0  0  0  0  0  0
   57.7007   32.8723   41.2579 H   0  0  0  0  0  0  0  0  0  0  0  0
   57.8278   31.0805   41.2579 H   0  0  0  0  0  0  0  0  0  0  0  0
   59.3890   29.6157   44.1927 H   0  0  0  0  0  0  0  0  0  0  0  0
   59.5034   31.1078   45.2178 H   0  0  0  0  0  0  0  0  0  0  0  0
   57.3435   29.8585   46.3518 H   0  0  0  0  0  0  0  0  0  0  0  0
   58.3457   28.4422   45.8270 H   0  0  0  0  0  0  0  0  0  0  0  0
   59.6036   28.7201   47.6598 H   0  0  0  0  0  0  0  0  0  0  0  0
   60.1500   30.2964   46.9874 H   0  0  0  0  0  0  0  0  0  0  0  0
   63.4568   34.3621   45.9707 H   0  0  0  0  0  0  0  0  0  0  0  0
   64.9092   33.2360   47.6561 H   0  0  0  0  0  0  0  0  0  0  0  0
   63.8921   31.8558   49.4632 H   0  0  0  0  0  0  0  0  0  0  0  0
   61.4230   31.5552   49.5801 H   0  0  0  0  0  0  0  0  0  0  0  0
   58.5761   35.8023   45.0503 H   0  0  0  0  0  0  0  0  0  0  0  0
   58.8003   34.4820   43.9151 H   0  0  0  0  0  0  0  0  0  0  0  0
   56.4922   34.9813   45.6100 H   0  0  0  0  0  0  0  0  0  0  0  0
   56.7367   33.5553   44.5701 H   0  0  0  0  0  0  0  0  0  0  0  0
   56.8685   33.7180   47.5042 H   0  0  0  0  0  0  0  0  0  0  0  0
   56.9965   32.2658   46.5175 H   0  0  0  0  0  0  0  0  0  0  0  0
  1  2  1  0
  2  3  1  0
  3  4  1  0
  4  5  1  0
  3  6  1  0
  6  7  1  0
  7  8  1  0
  8  9  1  0
  9 10  1  0
 10 11  2  0
 10 12  1  0
 12 13  2  0
 13 14  1  0
 14 15  2  0
 15 16  1  0
 16 17  2  0
 17 18  1  0
 18 19  2  0
 19 20  1  0
 20 21  2  0
 14 22  1  0
 22 23  1  0
 23 24  1  0
 21 12  1  0
 24 13  1  0
 21 16  1  0
  1 25  1  0
  1 26  1  0
  1 27  1  0
  2 28  1  0
  2 29  1  0
  4 30  1  0
  4 31  1  0
  5 32  1  0
  5 33  1  0
  5 34  1  0
  6 35  1  0
  6 36  1  0
  7 37  1  0
  7 38  1  0
  8 39  1  0
  8 40  1  0
 17 41  1  0
 18 42  1  0
 19 43  1  0
 20 44  1  0
 22 45  1  0
 22 46  1  0
 23 47  1  0
 23 48  1  0
 24 49  1  0
 24 50  1  0
M  END
>  <UniqueID>  (7) 
7

>  <SMILES>  (7) 
CCN(CC)CCCOC(=O)c1c2c(nc3ccccc13)CCC2

>  <Energy>  (7) 
63.665395429067644

>  <Genealogy>  (7) 
CCN(CC)CCCOC(=O)c1c2c(nc3ccccc13)CCC2 (3D coordinates assigned)
CCN(CC)CCCOC(=O)c1c2c(nc3ccccc13)CCC2 (nonaromatic ring conformer: 63.665395429067644 kcal/mol)

>  <smiles>  (7) 
CCN(CC)CCCOC(=O)c1c2c(nc3ccccc13)CCC2

>  <score_type>  (7) 
oracle

>  <origin>  (7) 
adg

>  <m_score__min__energy>  (7) 
-7.5800000000000001

>  <m_primary>  (7) 
energy

$$$$
7:0
     RDKit          3D

 41 43  0  0  0  0  0  0  0  0999 V2000
   56.6530   30.4020   42.6300 C   0  0  0  0  0  0  0  0  0  0  0  0
   55.6570   30.1160   43.7480 C   0  0  0  0  0  0  0  0  0  0  0  0
   56.3160   29.5550   44.8840 O   0  0  0  0  0  0  0  0  0  0  0  0
   57.4000   30.1280   45.5720 C   0  0  0  0  0  0  0  0  0  0  0  0
   58.1310   29.3090   46.4350 C   0  0  0  0  0  0  0  0  0  0  0  0
   59.2180   29.8170   47.1460 C   0  0  0  0  0  0  0  0  0  0  0  0
   59.5900   31.1560   47.0040 C   0  0  0  0  0  0  0  0  0  0  0  0
   60.6490   31.6280   47.7080 N   0  0  0  0  0  0  0  0  0  0  0  0
   61.0610   32.9190   47.6250 C   0  0  0  0  0  0  0  0  0  0  0  0
   62.2050   33.3490   48.3880 N   0  0  0  0  0  0  0  0  0  0  0  0
   61.9950   34.1450   49.6030 C   0  0  0  0  0  0  0  0  0  0  0  0
   63.3150   34.3370   50.3630 C   0  0  0  0  0  0  0  0  0  0  0  0
   64.0980   33.0950   50.3510 N   0  0  0  0  0  0  0  0  0  0  0  0
   64.5190   32.7020   48.9900 C   0  0  0  0  0  0  0  0  0  0  0  0
   63.5710   33.1900   47.8750 C   0  0  0  0  0  0  0  0  0  0  0  0
   60.3960   33.8000   46.7630 C   0  0  0  0  0  0  0  0  0  0  0  0
   59.2870   33.3650   46.0100 C   0  0  0  0  0  0  0  0  0  0  0  0
   58.5790   34.3430   45.0900 C   0  0  0  0  0  0  0  0  0  0  0  0
   59.2410   35.5560   45.0130 F   0  0  0  0  0  0  0  0  0  0  0  0
   58.5070   33.8140   43.8140 F   0  0  0  0  0  0  0  0  0  0  0  0
   57.3000   34.5850   45.5610 F   0  0  0  0  0  0  0  0  0  0  0  0
   58.8710   32.0100   46.1330 C   0  0  0  0  0  0  0  0  0  0  0  0
   57.7750   31.4780   45.4170 C   0  0  0  0  0  0  0  0  0  0  0  0
   57.6236   30.6807   43.0661 H   0  0  0  0  0  0  0  0  0  0  0  0
   56.7749   29.5026   42.0086 H   0  0  0  0  0  0  0  0  0  0  0  0
   56.2792   31.2291   42.0086 H   0  0  0  0  0  0  0  0  0  0  0  0
   55.1668   31.0555   44.0431 H   0  0  0  0  0  0  0  0  0  0  0  0
   54.9126   29.3943   43.3805 H   0  0  0  0  0  0  0  0  0  0  0  0
   57.8468   28.2532   46.5552 H   0  0  0  0  0  0  0  0  0  0  0  0
   59.7852   29.1601   47.8219 H   0  0  0  0  0  0  0  0  0  0  0  0
   61.5928   35.1301   49.3239 H   0  0  0  0  0  0  0  0  0  0  0  0
   61.2864   33.6133   50.2551 H   0  0  0  0  0  0  0  0  0  0  0  0
   63.8970   35.1370   49.8821 H   0  0  0  0  0  0  0  0  0  0  0  0
   63.0905   34.6071   51.4054 H   0  0  0  0  0  0  0  0  0  0  0  0
   63.5100   32.3290   50.7570 H   0  0  0  0  0  0  0  0  0  0  0  0
   65.5185   33.1213   48.8024 H   0  0  0  0  0  0  0  0  0  0  0  0
   64.5084   31.6025   48.9584 H   0  0  0  0  0  0  0  0  0  0  0  0
   63.9289   34.1582   47.4949 H   0  0  0  0  0  0  0  0  0  0  0  0
   63.5608   32.4431   47.0675 H   0  0  0  0  0  0  0  0  0  0  0  0
   60.7422   34.8402   46.6729 H   0  0  0  0  0  0  0  0  0  0  0  0
   57.2081   32.1246   44.7310 H   0  0  0  0  0  0  0  0  0  0  0  0
  1  2  1  0
  2  3  1  0
  3  4  1  0
  4  5  2  0
  5  6  1  0
  6  7  2  0
  7  8  1  0
  8  9  2  0
  9 10  1  0
 10 11  1  0
 11 12  1  0
 12 13  1  0
 13 14  1  0
 14 15  1  0
  9 16  1  0
 16 17  2  0
 17 18  1  0
 18 19  1  0
 18 20  1  0
 18 21  1  0
 17 22  1  0
 22 23  2  0
 23  4  1  0
 22  7  1  0
 15 10  1  0
  1 24  1  0
  1 25  1  0
  1 26  1  0
  2 27  1  0
  2 28  1  0
  5 29  1  0
  6 30  1  0
 11 31  1  0
 11 32  1  0
 12 33  1  0
 12 34  1  0
 13 35  1  0
 14 36  1  0
 14 37  1  0
 15 38  1  0
 15 39  1  0
 16 40  1  0
 23 41  1  0
M  END
>  <UniqueID>  (8) 
8

>  <SMILES>  (8) 
CCOc1ccc2nc(N3CCNCC3)cc(C(F)(F)F)c2c1

>  <Energy>  (8) 
54.33852100301387

>  <Genealogy>  (8) 
CCOc1ccc2nc(N3CCNCC3)cc(C(F)(F)F)c2c1 (3D coordinates assigned)
CCOc1ccc2nc(N3CCNCC3)cc(C(F)(F)F)c2c1 (nonaromatic ring conformer: 54.33852100301387 kcal/mol)

>  <smiles>  (8) 
CCOc1ccc2nc(N3CCNCC3)cc(C(F)(F)F)c2c1

>  <score_type>  (8) 
oracle

>  <origin>  (8) 
adg

>  <m_score__min__energy>  (8) 
-6.29

>  <m_primary>  (8) 
energy

$$$$
8:0
     RDKit          3D

 41 43  0  0  0  0  0  0  0  0999 V2000
   55.5110   29.3990   44.4950 C   0  0  0  0  0  0  0  0  0  0  0  0
   56.4310   30.4570   43.9930 C   0  0  0  0  0  0  0  0  0  0  0  0
   56.7170   30.6390   42.6850 N   0  0  0  0  0  0  0  0  0  0  0  0
   57.5110   31.7270   42.7190 C   0  0  0  0  0  0  0  0  0  0  0  0
   58.1070   32.3480   41.4970 C   0  0  0  0  0  0  0  0  0  0  0  0
   57.6990   32.1650   43.9800 N   0  0  0  0  0  0  0  0  0  0  0  0
   58.4300   33.3640   44.4000 C   0  0  0  0  0  0  0  0  0  0  0  0
   58.3270   33.6060   45.9220 C   0  0  2  0  0  0  0  0  0  0  0  0
   59.1260   34.8050   46.4040 C   0  0  0  0  0  0  0  0  0  0  0  0
   59.2800   34.5610   47.8980 C   0  0  0  0  0  0  0  0  0  0  0  0
   58.9540   33.0800   48.1140 C   0  0  0  0  0  0  0  0  0  0  0  0
   58.6920   32.4740   46.7980 N   0  0  0  0  0  0  0  0  0  0  0  0
   59.7770   31.5610   46.3430 C   0  0  0  0  0  0  0  0  0  0  0  0
   59.3650   30.1220   46.1010 C   0  0  0  0  0  0  0  0  0  0  0  0
   59.6880   29.4800   44.8940 C   0  0  0  0  0  0  0  0  0  0  0  0
   59.2570   28.1710   44.6710 C   0  0  0  0  0  0  0  0  0  0  0  0
   58.4840   27.5210   45.6340 C   0  0  0  0  0  0  0  0  0  0  0  0
   58.1450   28.2000   46.8050 C   0  0  0  0  0  0  0  0  0  0  0  0
   58.5790   29.4730   47.0040 N   0  0  0  0  0  0  0  0  0  0  0  0
   56.9960   31.3880   44.7870 N   0  0  0  0  0  0  0  0  0  0  0  0
   55.5139   29.4023   45.5950 H   0  0  0  0  0  0  0  0  0  0  0  0
   54.4920   29.5959   44.1304 H   0  0  0  0  0  0  0  0  0  0  0  0
   55.8475   28.4173   44.1304 H   0  0  0  0  0  0  0  0  0  0  0  0
   58.8403   33.1121   41.7944 H   0  0  0  0  0  0  0  0  0  0  0  0
   58.6076   31.5726   40.8986 H   0  0  0  0  0  0  0  0  0  0  0  0
   57.3117   32.8164   40.8986 H   0  0  0  0  0  0  0  0  0  0  0  0
   59.4900   33.2452   44.1310 H   0  0  0  0  0  0  0  0  0  0  0  0
   57.9822   34.2292   43.8891 H   0  0  0  0  0  0  0  0  0  0  0  0
   57.2449   33.7785   46.0188 H   0  0  0  0  0  0  0  0  0  0  0  0
   60.1081   34.8457   45.9102 H   0  0  0  0  0  0  0  0  0  0  0  0
   58.6346   35.7628   46.1776 H   0  0  0  0  0  0  0  0  0  0  0  0
   60.3102   34.7771   48.2174 H   0  0  0  0  0  0  0  0  0  0  0  0
   58.6158   35.2119   48.4854 H   0  0  0  0  0  0  0  0  0  0  0  0
   59.8063   32.5765   48.5936 H   0  0  0  0  0  0  0  0  0  0  0  0
   58.0737   32.9740   48.7650 H   0  0  0  0  0  0  0  0  0  0  0  0
   60.1820   31.9599   45.4012 H   0  0  0  0  0  0  0  0  0  0  0  0
   60.5080   31.5302   47.1644 H   0  0  0  0  0  0  0  0  0  0  0  0
   60.2775   30.0059   44.1285 H   0  0  0  0  0  0  0  0  0  0  0  0
   59.5261   27.6532   43.7385 H   0  0  0  0  0  0  0  0  0  0  0  0
   58.1463   26.4867   45.4721 H   0  0  0  0  0  0  0  0  0  0  0  0
   57.5261   27.7049   47.5678 H   0  0  0  0  0  0  0  0  0  0  0  0
  1  2  1  0
  2  3  1  0
  3  4  2  0
  4  5  1  0
  4  6  1  0
  6  7  1  0
  7  8  1  0
  8  9  1  0
  9 10  1  0
 10 11  1  0
 11 12  1  0
 12 13  1  0
 13 14  1  0
 14 15  2  0
 15 16  1  0
 16 17  2  0
 17 18  1  0
 18 19  2  0
  6 20  1  0
 20  2  2  0
 12  8  1  0
 19 14  1  0
  1 21  1  0
  1 22  1  0
  1 23  1  0
  5 24  1  0
  5 25  1  0
  5 26  1  0
  7 27  1  0
  7 28  1  0
  8 29  1  6
  9 30  1  0
  9 31  1  0
 10 32  1  0
 10 33  1  0
 11 34  1  0
 11 35  1  0
 13 36  1  0
 13 37  1  0
 15 38  1  0
 16 39  1  0
 17 40  1  0
 18 41  1  0
M  END
>  <UniqueID>  (9) 
9

>  <SMILES>  (9) 
Cc1nc(C)n(C[C@@H]2CCCN2Cc2ccccn2)n1

>  <Energy>  (9) 
83.4526706400939

>  <Genealogy>  (9) 
Cc1nc(C)n(C[C@@H]2CCCN2Cc2ccccn2)n1 (chirality)
Cc1nc(C)n(C[C@@H]2CCCN2Cc2ccccn2)n1 (3D coordinates assigned)
Cc1nc(C)n(C[C@@H]2CCCN2Cc2ccccn2)n1 (nonaromatic ring conformer: 83.4526706400939 kcal/mol)

>  <smiles>  (9) 
Cc1nc(C)n(CC2CCCN2Cc2ccccn2)n1

>  <score_type>  (9) 
oracle

>  <origin>  (9) 
adg

>  <m_score__min__energy>  (9) 
-7.0700000000000003

>  <m_primary>  (9) 
energy

$$$$
9:0
     RDKit          3D

 32 33  0  0  0  0  0  0  0  0999 V2000
   63.5140   33.3530   46.7620 C   0  0  0  0  0  0  0  0  0  0  0  0
   62.5280   32.9850   47.8630 C   0  0  0  0  0  0  0  0  0  0  0  0
   61.9800   34.2010   48.4700 N   0  0  0  0  0  0  0  0  0  0  0  0
   61.2360   33.8780   49.6930 C   0  0  0  0  0  0  0  0  0  0  0  0
   59.7280   33.9700   49.4500 C   0  0  0  0  0  0  0  0  0  0  0  0
   59.4460   34.6780   48.2400 O   0  0  0  0  0  0  0  0  0  0  0  0
   59.0590   34.1060   47.0170 C   0  0  0  0  0  0  0  0  0  0  0  0
   59.5570   34.6800   45.8390 C   0  0  0  0  0  0  0  0  0  0  0  0
   59.2200   34.1550   44.5880 C   0  0  0  0  0  0  0  0  0  0  0  0
   58.3690   33.0450   44.5040 C   0  0  0  0  0  0  0  0  0  0  0  0
   58.0120   32.4880   43.2720 C   0  0  0  0  0  0  0  0  0  0  0  0
   57.1590   31.3850   43.2420 C   0  0  0  0  0  0  0  0  0  0  0  0
   56.6810   30.8650   44.4500 C   0  0  0  0  0  0  0  0  0  0  0  0
   55.9110   29.8690   44.4430 O   0  0  0  0  0  0  0  0  0  0  0  0
   57.0380   31.4150   45.6080 O   0  0  0  0  0  0  0  0  0  0  0  0
   57.8500   32.4660   45.6810 C   0  0  0  0  0  0  0  0  0  0  0  0
   58.1900   33.0000   46.9290 C   0  0  0  0  0  0  0  0  0  0  0  0
   64.4537   33.7037   47.2136 H   0  0  0  0  0  0  0  0  0  0  0  0
   63.7142   32.4691   46.1386 H   0  0  0  0  0  0  0  0  0  0  0  0
   63.0861   34.1520   46.1386 H   0  0  0  0  0  0  0  0  0  0  0  0
   61.7080   32.3902   47.4342 H   0  0  0  0  0  0  0  0  0  0  0  0
   63.0492   32.3990   48.6343 H   0  0  0  0  0  0  0  0  0  0  0  0
   61.3030   34.6230   47.7900 H   0  0  0  0  0  0  0  0  0  0  0  0
   61.4888   32.8554   50.0098 H   0  0  0  0  0  0  0  0  0  0  0  0
   61.5124   34.5998   50.4757 H   0  0  0  0  0  0  0  0  0  0  0  0
   59.3127   32.9540   49.3774 H   0  0  0  0  0  0  0  0  0  0  0  0
   59.2704   34.5144   50.2892 H   0  0  0  0  0  0  0  0  0  0  0  0
   60.2214   35.5546   45.8998 H   0  0  0  0  0  0  0  0  0  0  0  0
   59.6219   34.6122   43.6718 H   0  0  0  0  0  0  0  0  0  0  0  0
   58.4001   32.9156   42.3358 H   0  0  0  0  0  0  0  0  0  0  0  0
   56.8665   30.9309   42.2837 H   0  0  0  0  0  0  0  0  0  0  0  0
   57.7769   32.5543   47.8459 H   0  0  0  0  0  0  0  0  0  0  0  0
  1  2  1  0
  2  3  1  0
  3  4  1  0
  4  5  1  0
  5  6  1  0
  6  7  1  0
  7  8  2  0
  8  9  1  0
  9 10  2  0
 10 11  1  0
 11 12  2  0
 12 13  1  0
 13 14  2  0
 13 15  1  0
 15 16  1  0
 16 17  2  0
 17  7  1  0
 16 10  1  0
  1 18  1  0
  1 19  1  0
  1 20  1  0
  2 21  1  0
  2 22  1  0
  3 23  1  0
  4 24  1  0
  4 25  1  0
  5 26  1  0
  5 27  1  0
  8 28  1  0
  9 29  1  0
 11 30  1  0
 12 31  1  0
 17 32  1  0
M  END
>  <UniqueID>  (10) 
10

>  <SMILES>  (10) 
CCNCCOc1ccc2ccc(=O)oc2c1

>  <Energy>  (10) 
30.925193416803914

>  <Genealogy>  (10) 
CCNCCOc1ccc2ccc(=O)oc2c1 (3D coordinates assigned)
CCNCCOc1ccc2ccc(=O)oc2c1 (optimized conformer: 30.925193416803914 kcal/mol)

>  <smiles>  (10) 
CCNCCOc1ccc2ccc(=O)oc2c1

>  <score_type>  (10) 
oracle

>  <origin>  (10) 
adg

>  <m_score__min__energy>  (10) 
-6.0899999999999999

>  <m_primary>  (10) 
energy

$$$$
10:0
     RDKit          3D

 51 54  0  0  0  0  0  0  0  0999 V2000
   59.9430   28.6970   48.6890 C   0  0  0  0  0  0  0  0  0  0  0  0
   59.3690   29.1060   47.4030 N   0  0  0  0  0  0  0  0  0  0  0  0
   58.9410   28.2840   46.4110 C   0  0  0  0  0  0  0  0  0  0  0  0
   58.9690   26.8810   46.3890 C   0  0  0  0  0  0  0  0  0  0  0  0
   58.5480   26.2230   45.2230 C   0  0  0  0  0  0  0  0  0  0  0  0
   58.1370   26.9570   44.0970 C   0  0  0  0  0  0  0  0  0  0  0  0
   58.1260   28.3610   44.1270 C   0  0  0  0  0  0  0  0  0  0  0  0
   58.5000   29.0050   45.3150 C   0  0  0  0  0  0  0  0  0  0  0  0
   58.6540   30.3470   45.6540 C   0  0  0  0  0  0  0  0  0  0  0  0
   59.2280   30.3690   46.9130 C   0  0  0  0  0  0  0  0  0  0  0  0
   59.6030   31.5870   47.5000 C   0  0  0  0  0  0  0  0  0  0  0  0
   60.1890   31.6350   48.8070 N   0  0  0  0  0  0  0  0  0  0  0  0
   61.6060   31.9650   48.9710 C   0  0  0  0  0  0  0  0  0  0  0  0
   62.4310   31.6610   47.6980 C   0  0  0  0  0  0  0  0  0  0  0  0
   63.6190   32.5260   47.4800 N   0  0  0  0  0  0  0  0  0  0  0  0
   63.3890   33.5800   46.4780 C   0  0  0  0  0  0  0  0  0  0  0  0
   64.1550   33.0950   48.7300 C   0  0  0  0  0  0  0  0  0  0  0  0
   59.4420   32.7660   46.7310 C   0  0  0  0  0  0  0  0  0  0  0  0
   59.9220   34.0050   47.2010 C   0  0  0  0  0  0  0  0  0  0  0  0
   59.7920   35.1590   46.4310 C   0  0  0  0  0  0  0  0  0  0  0  0
   59.2030   35.0970   45.1740 C   0  0  0  0  0  0  0  0  0  0  0  0
   58.7270   33.8850   44.6770 C   0  0  0  0  0  0  0  0  0  0  0  0
   58.8120   32.6980   45.4450 C   0  0  0  0  0  0  0  0  0  0  0  0
   58.3310   31.4900   44.9670 N   0  0  0  0  0  0  0  0  0  0  0  0
   57.4300   31.4310   43.8040 C   0  0  0  0  0  0  0  0  0  0  0  0
   59.3459   29.1225   49.5090 H   0  0  0  0  0  0  0  0  0  0  0  0
   59.9357   27.5994   48.7613 H   0  0  0  0  0  0  0  0  0  0  0  0
   60.9780   29.0623   48.7613 H   0  0  0  0  0  0  0  0  0  0  0  0
   59.3127   26.3108   47.2646 H   0  0  0  0  0  0  0  0  0  0  0  0
   58.5396   25.1235   45.1901 H   0  0  0  0  0  0  0  0  0  0  0  0
   57.8217   26.4279   43.1856 H   0  0  0  0  0  0  0  0  0  0  0  0
   57.8312   28.9413   43.2402 H   0  0  0  0  0  0  0  0  0  0  0  0
   59.5520   31.5850   49.6320 H   0  0  0  0  0  0  0  0  0  0  0  0
   61.6951   33.0366   49.2027 H   0  0  0  0  0  0  0  0  0  0  0  0
   62.0041   31.3431   49.7864 H   0  0  0  0  0  0  0  0  0  0  0  0
   62.7782   30.6191   47.7608 H   0  0  0  0  0  0  0  0  0  0  0  0
   61.7579   31.8558   46.8501 H   0  0  0  0  0  0  0  0  0  0  0  0
   64.3660   31.9030   47.0890 H   0  0  0  0  0  0  0  0  0  0  0  0
   63.1813   34.5320   46.9884 H   0  0  0  0  0  0  0  0  0  0  0  0
   64.2845   33.6892   45.8485 H   0  0  0  0  0  0  0  0  0  0  0  0
   62.5295   33.3062   45.8485 H   0  0  0  0  0  0  0  0  0  0  0  0
   63.6854   32.5965   49.5908 H   0  0  0  0  0  0  0  0  0  0  0  0
   65.2435   32.9407   48.7659 H   0  0  0  0  0  0  0  0  0  0  0  0
   63.9360   34.1724   48.7659 H   0  0  0  0  0  0  0  0  0  0  0  0
   60.4051   34.0617   48.1876 H   0  0  0  0  0  0  0  0  0  0  0  0
   60.1566   36.1215   46.8192 H   0  0  0  0  0  0  0  0  0  0  0  0
   59.1118   36.0101   44.5674 H   0  0  0  0  0  0  0  0  0  0  0  0
   58.2786   33.8498   43.6732 H   0  0  0  0  0  0  0  0  0  0  0  0
   56.3882   31.3628   44.1504 H   0  0  0  0  0  0  0  0  0  0  0  0
   57.5556   32.3393   43.1964 H   0  0  0  0  0  0  0  0  0  0  0  0
   57.6730   30.5468   43.1964 H   0  0  0  0  0  0  0  0  0  0  0  0
  1  2  1  0
  2  3  1  0
  3  4  2  0
  4  5  1  0
  5  6  2  0
  6  7  1  0
  7  8  2  0
  8  9  1  0
  9 10  2  0
 10 11  1  0
 11 12  1  0
 12 13  1  0
 13 14  1  0
 14 15  1  0
 15 16  1  0
 15 17  1  0
 11 18  2  0
 18 19  1  0
 19 20  2  0
 20 21  1  0
 21 22  2  0
 22 23  1  0
 23 24  2  0
 24 25  1  0
 10  2  1  0
 23 18  1  0
  8  3  1  0
 24  9  1  0
  1 26  1  0
  1 27  1  0
  1 28  1  0
  4 29  1  0
  5 30  1  0
  6 31  1  0
  7 32  1  0
 12 33  1  0
 13 34  1  0
 13 35  1  0
 14 36  1  0
 14 37  1  0
 15 38  1  0
 16 39  1  0
 16 40  1  0
 16 41  1  0
 17 42  1  0
 17 43  1  0
 17 44  1  0
 19 45  1  0
 20 46  1  0
 21 47  1  0
 22 48  1  0
 25 49  1  0
 25 50  1  0
 25 51  1  0
M  CHG  2  15   1  24   1
M  END
>  <UniqueID>  (11) 
11

>  <SMILES>  (11) 
Cn1c2ccccc2c2c1c(NCC[NH+](C)C)c1ccccc1[n+]2C

>  <Energy>  (11) 
122.75050976172213

>  <Genealogy>  (11) 
Cn1c2ccccc2c2c1c(NCC[NH+](C)C)c1ccccc1[n+]2C (protonated)
Cn1c2ccccc2c2c1c(NCC[NH+](C)C)c1ccccc1[n+]2C (3D coordinates assigned)
Cn1c2ccccc2c2c1c(NCC[NH+](C)C)c1ccccc1[n+]2C (optimized conformer: 122.75050976172213 kcal/mol)

>  <smiles>  (11) 
CN(C)CCNc1c2ccccc2[n+](C)c2c3ccccc3n(C)c12

>  <score_type>  (11) 
oracle

>  <origin>  (11) 
adg

>  <m_score__min__energy>  (11) 
-5.2199999999999998

>  <m_primary>  (11) 
energy

$$$$
11:0
     RDKit          3D

 41 42  0  0  0  0  0  0  0  0999 V2000
   59.7720   34.6480   46.6750 C   0  0  0  0  0  0  0  0  0  0  0  0
   59.5900   33.1370   46.4410 C   0  0  1  0  0  0  0  0  0  0  0  0
   58.8710   32.8860   45.0880 C   0  0  0  0  0  0  0  0  0  0  0  0
   57.9790   31.6700   45.1360 C   0  0  0  0  0  0  0  0  0  0  0  0
   58.2460   30.6230   46.0340 C   0  0  0  0  0  0  0  0  0  0  0  0
   57.4250   29.4920   46.0620 C   0  0  0  0  0  0  0  0  0  0  0  0
   56.3340   29.3960   45.1930 C   0  0  0  0  0  0  0  0  0  0  0  0
   55.5200   28.2710   45.2220 O   0  0  0  0  0  0  0  0  0  0  0  0
   56.0630   30.4320   44.2950 C   0  0  0  0  0  0  0  0  0  0  0  0
   56.8820   31.5650   44.2640 C   0  0  0  0  0  0  0  0  0  0  0  0
   60.9080   32.4590   46.4810 N   0  0  0  0  0  0  0  0  0  0  0  0
   61.4300   32.3250   47.8560 C   0  0  0  0  0  0  0  0  0  0  0  0
   62.9660   32.1750   47.8710 C   0  0  1  0  0  0  0  0  0  0  0  0
   63.5100   32.7180   46.6940 O   0  0  0  0  0  0  0  0  0  0  0  0
   63.5720   32.8780   49.0660 C   0  0  0  0  0  0  0  0  0  0  0  0
   62.7850   33.7090   49.8830 C   0  0  0  0  0  0  0  0  0  0  0  0
   63.3430   34.3310   51.0040 C   0  0  0  0  0  0  0  0  0  0  0  0
   64.6860   34.1240   51.3240 C   0  0  0  0  0  0  0  0  0  0  0  0
   65.4770   33.2920   50.5240 C   0  0  0  0  0  0  0  0  0  0  0  0
   67.1620   33.0270   50.9330 Cl  0  0  0  0  0  0  0  0  0  0  0  0
   64.9230   32.6700   49.4000 C   0  0  0  0  0  0  0  0  0  0  0  0
   59.7965   34.8513   47.7558 H   0  0  0  0  0  0  0  0  0  0  0  0
   60.7165   34.9786   46.2182 H   0  0  0  0  0  0  0  0  0  0  0  0
   58.9331   35.1934   46.2182 H   0  0  0  0  0  0  0  0  0  0  0  0
   58.9616   32.7184   47.2409 H   0  0  0  0  0  0  0  0  0  0  0  0
   58.2580   33.7661   44.8435 H   0  0  0  0  0  0  0  0  0  0  0  0
   59.6413   32.7109   44.3225 H   0  0  0  0  0  0  0  0  0  0  0  0
   59.1047   30.6936   46.7179 H   0  0  0  0  0  0  0  0  0  0  0  0
   57.6376   28.6764   46.7688 H   0  0  0  0  0  0  0  0  0  0  0  0
   55.2043   30.3561   43.6117 H   0  0  0  0  0  0  0  0  0  0  0  0
   56.6667   32.3773   43.5542 H   0  0  0  0  0  0  0  0  0  0  0  0
   61.6050   33.0190   45.9340 H   0  0  0  0  0  0  0  0  0  0  0  0
   60.8310   31.5160   46.0340 H   0  0  0  0  0  0  0  0  0  0  0  0
   61.1536   33.2210   48.4312 H   0  0  0  0  0  0  0  0  0  0  0  0
   60.9925   31.4198   48.3023 H   0  0  0  0  0  0  0  0  0  0  0  0
   63.2010   31.1024   47.9357 H   0  0  0  0  0  0  0  0  0  0  0  0
   64.4930   32.5880   46.7430 H   0  0  0  0  0  0  0  0  0  0  0  0
   61.7247   33.8706   49.6388 H   0  0  0  0  0  0  0  0  0  0  0  0
   62.7227   34.9846   51.6349 H   0  0  0  0  0  0  0  0  0  0  0  0
   65.1228   34.6154   52.2059 H   0  0  0  0  0  0  0  0  0  0  0  0
   65.5468   32.0149   48.7741 H   0  0  0  0  0  0  0  0  0  0  0  0
  1  2  1  0
  2  3  1  0
  3  4  1  0
  4  5  2  0
  5  6  1  0
  6  7  2  0
  7  8  1  0
  7  9  1  0
  9 10  2  0
  2 11  1  0
 11 12  1  0
 12 13  1  0
 13 14  1  0
 13 15  1  0
 15 16  2  0
 16 17  1  0
 17 18  2  0
 18 19  1  0
 19 20  1  0
 19 21  2  0
 10  4  1  0
 21 15  1  0
  1 22  1  0
  1 23  1  0
  1 24  1  0
  2 25  1  1
  3 26  1  0
  3 27  1  0
  5 28  1  0
  6 29  1  0
  9 30  1  0
 10 31  1  0
 11 32  1  0
 11 33  1  0
 12 34  1  0
 12 35  1  0
 13 36  1  1
 14 37  1  0
 16 38  1  0
 17 39  1  0
 18 40  1  0
 21 41  1  0
M  CHG  2   8  -1  11   1
M  END
>  <UniqueID>  (12) 
12

>  <SMILES>  (12) 
C[C@@H](Cc1ccc([O-])cc1)[NH2+]C[C@@H](O)c1cccc(Cl)c1

>  <Energy>  (12) 
38.19915257282699

>  <Genealogy>  (12) 
CC(Cc1ccc([O-])cc1)[NH2+]CC(O)c1cccc(Cl)c1 (protonated)
C[C@@H](Cc1ccc([O-])cc1)[NH2+]C[C@@H](O)c1cccc(Cl)c1 (chirality)
C[C@@H](Cc1ccc([O-])cc1)[NH2+]C[C@@H](O)c1cccc(Cl)c1 (3D coordinates assigned)
C[C@@H](Cc1ccc([O-])cc1)[NH2+]C[C@@H](O)c1cccc(Cl)c1 (optimized conformer: 38.19915257282699 kcal/mol)

>  <smiles>  (12) 
CC(Cc1ccc(O)cc1)NCC(O)c1cccc(Cl)c1

>  <score_type>  (12) 
oracle

>  <origin>  (12) 
adg

>  <m_score__min__energy>  (12) 
-9.3499999999999996

>  <m_primary>  (12) 
energy

$$$$
12:0
     RDKit          3D

 41 44  0  0  0  0  0  0  0  0999 V2000
   64.5410   32.7030   49.2710 C   0  0  0  0  0  0  0  0  0  0  0  0
   63.3750   33.1200   48.4370 C   0  0  0  0  0  0  0  0  0  0  0  0
   63.3890   33.1230   47.0850 N   0  0  0  0  0  0  0  0  0  0  0  0
   62.1630   33.5820   46.7630 C   0  0  0  0  0  0  0  0  0  0  0  0
   61.4660   33.8380   47.9230 C   0  0  0  0  0  0  0  0  0  0  0  0
   60.0750   34.3710   48.0380 C   0  0  0  0  0  0  0  0  0  0  0  0
   59.3520   34.1390   46.7890 N   0  0  0  0  0  0  0  0  0  0  0  0
   59.2570   35.0220   45.8030 N   0  0  0  0  0  0  0  0  0  0  0  0
   58.5960   34.4600   44.7670 C   0  0  0  0  0  0  0  0  0  0  0  0
   58.2590   33.1700   45.1300 C   0  0  0  0  0  0  0  0  0  0  0  0
   58.7740   32.9910   46.3850 C   0  0  0  0  0  0  0  0  0  0  0  0
   58.6340   31.7090   47.1480 C   0  0  0  0  0  0  0  0  0  0  0  0
   58.2400   30.5710   46.1820 C   0  0  0  0  0  0  0  0  0  0  0  0
   57.1600   31.0060   45.2630 N   0  0  0  0  0  0  0  0  0  0  0  0
   56.5920   29.6420   44.3330 S   0  0  0  0  0  0  0  0  0  0  0  0
   56.6540   29.9610   42.8640 O   0  0  0  0  0  0  0  0  0  0  0  0
   55.1660   29.3390   44.7030 O   0  0  0  0  0  0  0  0  0  0  0  0
   57.6400   28.2200   44.6550 C   0  0  0  0  0  0  0  0  0  0  0  0
   59.0740   28.2980   44.1480 C   0  0  0  0  0  0  0  0  0  0  0  0
   58.0420   27.4750   43.3910 C   0  0  0  0  0  0  0  0  0  0  0  0
   57.6240   32.0710   44.3430 C   0  0  0  0  0  0  0  0  0  0  0  0
   62.2390   33.5490   48.9390 O   0  0  0  0  0  0  0  0  0  0  0  0
   64.2819   32.7957   50.3360 H   0  0  0  0  0  0  0  0  0  0  0  0
   64.7977   31.6574   49.0457 H   0  0  0  0  0  0  0  0  0  0  0  0
   65.4026   33.3487   49.0457 H   0  0  0  0  0  0  0  0  0  0  0  0
   61.7819   33.7281   45.7415 H   0  0  0  0  0  0  0  0  0  0  0  0
   59.5549   33.8600   48.8616 H   0  0  0  0  0  0  0  0  0  0  0  0
   60.1152   35.4516   48.2395 H   0  0  0  0  0  0  0  0  0  0  0  0
   59.6580   35.9870   45.8240 H   0  0  0  0  0  0  0  0  0  0  0  0
   58.3670   34.9434   43.8058 H   0  0  0  0  0  0  0  0  0  0  0  0
   59.5915   31.4641   47.6309 H   0  0  0  0  0  0  0  0  0  0  0  0
   57.8534   31.8238   47.9145 H   0  0  0  0  0  0  0  0  0  0  0  0
   59.1205   30.2799   45.5905 H   0  0  0  0  0  0  0  0  0  0  0  0
   57.8753   29.7185   46.7738 H   0  0  0  0  0  0  0  0  0  0  0  0
   57.1903   27.9645   45.6258 H   0  0  0  0  0  0  0  0  0  0  0  0
   59.4545   29.2353   43.7160 H   0  0  0  0  0  0  0  0  0  0  0  0
   60.0646   28.0958   44.5814 H   0  0  0  0  0  0  0  0  0  0  0  0
   57.6769   27.8173   42.4114 H   0  0  0  0  0  0  0  0  0  0  0  0
   57.9781   26.4310   43.0503 H   0  0  0  0  0  0  0  0  0  0  0  0
   58.3587   31.6526   43.6393 H   0  0  0  0  0  0  0  0  0  0  0  0
   56.7653   32.4707   43.7836 H   0  0  0  0  0  0  0  0  0  0  0  0
  1  2  1  0
  2  3  2  0
  3  4  1  0
  4  5  2  0
  5  6  1  0
  6  7  1  0
  7  8  1  0
  8  9  2  0
  9 10  1  0
 10 11  2  0
 11 12  1  0
 12 13  1  0
 13 14  1  0
 14 15  1  0
 15 16  2  0
 15 17  2  0
 15 18  1  0
 18 19  1  0
 19 20  1  0
 14 21  1  0
  5 22  1  0
 22  2  1  0
 11  7  1  0
 20 18  1  0
 21 10  1  0
  1 23  1  0
  1 24  1  0
  1 25  1  0
  4 26  1  0
  6 27  1  0
  6 28  1  0
  8 29  1  0
  9 30  1  0
 12 31  1  0
 12 32  1  0
 13 33  1  0
 13 34  1  0
 18 35  1  0
 19 36  1  0
 19 37  1  0
 20 38  1  0
 20 39  1  0
 21 40  1  0
 21 41  1  0
M  CHG  1   8   1
M  END
>  <UniqueID>  (13) 
13

>  <SMILES>  (13) 
Cc1ncc(Cn2[nH+]cc3c2CCN(S(=O)(=O)C2CC2)C3)o1

>  <Energy>  (13) 
363.54555311888527

>  <Genealogy>  (13) 
Cc1ncc(Cn2[nH+]cc3c2CCN(S(=O)(=O)C2CC2)C3)o1 (protonated)
Cc1ncc(Cn2[nH+]cc3c2CCN(S(=O)(=O)C2CC2)C3)o1 (3D coordinates assigned)
Cc1ncc(Cn2[nH+]cc3c2CCN(S(=O)(=O)C2CC2)C3)o1 (nonaromatic ring conformer: 363.54555311888527 kcal/mol)

>  <smiles>  (13) 
Cc1ncc(Cn2ncc3c2CCN(S(=O)(=O)C2CC2)C3)o1

>  <score_type>  (13) 
oracle

>  <origin>  (13) 
adg

>  <m_score__min__energy>  (13) 
-7.3399999999999999

>  <m_primary>  (13) 
energy

$$$$
13:0
     RDKit          3D

 55 58  0  0  0  0  0  0  0  0999 V2000
   64.5510   31.7520   50.4560 C   0  0  0  0  0  0  0  0  0  0  0  0
   63.4240   31.3340   49.7030 O   0  0  0  0  0  0  0  0  0  0  0  0
   62.6960   32.1130   48.7900 C   0  0  0  0  0  0  0  0  0  0  0  0
   63.3100   33.0460   47.9180 C   0  0  0  0  0  0  0  0  0  0  0  0
   64.6510   33.2510   47.9150 F   0  0  0  0  0  0  0  0  0  0  0  0
   62.5380   33.7770   47.0160 C   0  0  0  0  0  0  0  0  0  0  0  0
   61.1560   33.6030   46.9690 C   0  0  0  0  0  0  0  0  0  0  0  0
   60.5360   32.6950   47.8250 C   0  0  0  0  0  0  0  0  0  0  0  0
   61.2940   31.9500   48.7450 C   0  0  0  0  0  0  0  0  0  0  0  0
   60.6030   30.9240   49.6150 C   0  0  0  0  0  0  0  0  0  0  0  0
   61.4190   29.7010   49.7100 N   0  0  0  0  0  0  0  0  0  0  0  0
   60.6130   28.4770   49.5590 C   0  0  0  0  0  0  0  0  0  0  0  0
   59.9660   28.3870   48.1970 C   0  0  0  0  0  0  0  0  0  0  0  0
   60.3660   27.3720   47.2860 C   0  0  0  0  0  0  0  0  0  0  0  0
   59.7680   27.2690   46.0180 C   0  0  0  0  0  0  0  0  0  0  0  0
   58.7680   28.1870   45.6980 C   0  0  0  0  0  0  0  0  0  0  0  0
   58.3820   29.1690   46.5640 C   0  0  0  0  0  0  0  0  0  0  0  0
   58.9610   29.3080   47.8230 C   0  0  0  0  0  0  0  0  0  0  0  0
   57.4010   29.9160   46.0260 N   0  0  0  0  0  0  0  0  0  0  0  0
   57.2180   29.3430   44.8070 C   0  0  0  0  0  0  0  0  0  0  0  0
   55.9720   29.9210   43.6500 S   0  0  0  0  0  0  0  0  0  0  0  0
   57.0640   31.1280   42.8180 C   0  0  0  0  0  0  0  0  0  0  0  0
   57.3980   32.2210   43.7910 C   0  0  0  0  0  0  0  0  0  0  0  0
   58.5250   33.0330   43.5820 C   0  0  0  0  0  0  0  0  0  0  0  0
   58.8950   33.9860   44.5380 C   0  0  0  0  0  0  0  0  0  0  0  0
   58.1430   34.1330   45.7050 C   0  0  0  0  0  0  0  0  0  0  0  0
   58.5170   35.0400   46.6420 F   0  0  0  0  0  0  0  0  0  0  0  0
   57.0210   33.3320   45.9210 C   0  0  0  0  0  0  0  0  0  0  0  0
   56.6530   32.3740   44.9720 C   0  0  0  0  0  0  0  0  0  0  0  0
   58.0280   28.2750   44.5830 N   0  0  0  0  0  0  0  0  0  0  0  0
   58.1610   27.4740   43.3650 C   0  0  0  0  0  0  0  0  0  0  0  0
   64.3261   31.6686   51.5295 H   0  0  0  0  0  0  0  0  0  0  0  0
   65.4128   31.1137   50.2112 H   0  0  0  0  0  0  0  0  0  0  0  0
   64.7881   32.7979   50.2112 H   0  0  0  0  0  0  0  0  0  0  0  0
   63.0223   34.4950   46.3378 H   0  0  0  0  0  0  0  0  0  0  0  0
   60.5536   34.1835   46.2548 H   0  0  0  0  0  0  0  0  0  0  0  0
   59.4452   32.5602   47.7805 H   0  0  0  0  0  0  0  0  0  0  0  0
   60.4567   31.3417   50.6220 H   0  0  0  0  0  0  0  0  0  0  0  0
   59.6308   30.6714   49.1667 H   0  0  0  0  0  0  0  0  0  0  0  0
   61.8760   29.6720   50.6500 H   0  0  0  0  0  0  0  0  0  0  0  0
   62.1730   29.7230   48.9840 H   0  0  0  0  0  0  0  0  0  0  0  0
   61.2657   27.6029   49.7001 H   0  0  0  0  0  0  0  0  0  0  0  0
   59.8126   28.5034   50.3131 H   0  0  0  0  0  0  0  0  0  0  0  0
   61.1520   26.6593   47.5763 H   0  0  0  0  0  0  0  0  0  0  0  0
   60.0777   26.4920   45.3036 H   0  0  0  0  0  0  0  0  0  0  0  0
   58.6456   30.1105   48.5060 H   0  0  0  0  0  0  0  0  0  0  0  0
   57.9876   30.6282   42.4907 H   0  0  0  0  0  0  0  0  0  0  0  0
   56.5565   31.5501   41.9381 H   0  0  0  0  0  0  0  0  0  0  0  0
   59.1192   32.9194   42.6633 H   0  0  0  0  0  0  0  0  0  0  0  0
   59.7785   34.6193   44.3698 H   0  0  0  0  0  0  0  0  0  0  0  0
   56.4261   33.4545   46.8381 H   0  0  0  0  0  0  0  0  0  0  0  0
   55.7749   31.7362   45.1510 H   0  0  0  0  0  0  0  0  0  0  0  0
   58.3357   26.4221   43.6352 H   0  0  0  0  0  0  0  0  0  0  0  0
   57.2376   27.5519   42.7723 H   0  0  0  0  0  0  0  0  0  0  0  0
   59.0097   27.8461   42.7723 H   0  0  0  0  0  0  0  0  0  0  0  0
  1  2  1  0
  2  3  1  0
  3  4  2  0
  4  5  1  0
  4  6  1  0
  6  7  2  0
  7  8  1  0
  8  9  2  0
  9 10  1  0
 10 11  1  0
 11 12  1  0
 12 13  1  0
 13 14  2  0
 14 15  1  0
 15 16  2  0
 16 17  1  0
 17 18  2  0
 17 19  1  0
 19 20  2  0
 20 21  1  0
 21 22  1  0
 22 23  1  0
 23 24  2  0
 24 25  1  0
 25 26  2  0
 26 27  1  0
 26 28  1  0
 28 29  2  0
 20 30  1  0
 30 31  1  0
  9  3  1  0
 18 13  1  0
 29 23  1  0
 30 16  1  0
  1 32  1  0
  1 33  1  0
  1 34  1  0
  6 35  1  0
  7 36  1  0
  8 37  1  0
 10 38  1  0
 10 39  1  0
 11 40  1  0
 11 41  1  0
 12 42  1  0
 12 43  1  0
 14 44  1  0
 15 45  1  0
 18 46  1  0
 22 47  1  0
 22 48  1  0
 24 49  1  0
 25 50  1  0
 28 51  1  0
 29 52  1  0
 31 53  1  0
 31 54  1  0
 31 55  1  0
M  CHG  1  11   1
M  END
>  <UniqueID>  (14) 
14

>  <SMILES>  (14) 
COc1c(F)cccc1C[NH2+]Cc1ccc2c(c1)nc(SCc1ccc(F)cc1)n2C

>  <Energy>  (14) 
94.14058160828883

>  <Genealogy>  (14) 
COc1c(F)cccc1C[NH2+]Cc1ccc2c(c1)nc(SCc1ccc(F)cc1)n2C (protonated)
COc1c(F)cccc1C[NH2+]Cc1ccc2c(c1)nc(SCc1ccc(F)cc1)n2C (3D coordinates assigned)
COc1c(F)cccc1C[NH2+]Cc1ccc2c(c1)nc(SCc1ccc(F)cc1)n2C (optimized conformer: 94.14058160828883 kcal/mol)

>  <smiles>  (14) 
COc1c(F)cccc1CNCc1ccc2c(c1)nc(SCc1ccc(F)cc1)n2C

>  <score_type>  (14) 
oracle

>  <origin>  (14) 
adg

>  <m_score__min__energy>  (14) 
-6.9699999999999998

>  <m_primary>  (14) 
energy

$$$$
14:0
     RDKit          3D

 54 56  0  0  0  0  0  0  0  0999 V2000
   59.6380   33.8290   50.4710 C   0  0  0  0  0  0  0  0  0  0  0  0
   60.9940   33.1450   50.6300 C   0  0  0  0  0  0  0  0  0  0  0  0
   61.6260   32.9300   49.3110 N   0  0  0  0  0  0  0  0  0  0  0  0
   62.6030   33.9860   48.9540 C   0  0  0  0  0  0  0  0  0  0  0  0
   63.4030   33.7000   47.6730 C   0  0  0  0  0  0  0  0  0  0  0  0
   62.1600   31.5590   49.1320 C   0  0  0  0  0  0  0  0  0  0  0  0
   61.4050   30.8340   48.0100 C   0  0  0  0  0  0  0  0  0  0  0  0
   59.9520   31.0910   48.0800 N   0  0  0  0  0  0  0  0  0  0  0  0
   59.3990   31.3460   46.7610 C   0  0  0  0  0  0  0  0  0  0  0  0
   59.4030   32.6800   46.2500 C   0  0  0  0  0  0  0  0  0  0  0  0
   60.0290   33.7490   46.9460 C   0  0  0  0  0  0  0  0  0  0  0  0
   60.0090   35.0490   46.4490 C   0  0  0  0  0  0  0  0  0  0  0  0
   59.3520   35.3300   45.2630 C   0  0  0  0  0  0  0  0  0  0  0  0
   58.7220   34.3090   44.5590 C   0  0  0  0  0  0  0  0  0  0  0  0
   58.7520   32.9650   45.0190 C   0  0  0  0  0  0  0  0  0  0  0  0
   58.1250   31.9620   44.3190 N   0  0  0  0  0  0  0  0  0  0  0  0
   57.6800   32.2000   42.9250 C   0  0  0  0  0  0  0  0  0  0  0  0
   57.9350   30.7260   44.8960 C   0  0  0  0  0  0  0  0  0  0  0  0
   56.9630   29.8410   44.3790 C   0  0  0  0  0  0  0  0  0  0  0  0
   56.8220   28.5550   44.8710 C   0  0  0  0  0  0  0  0  0  0  0  0
   57.6980   28.0750   45.8440 C   0  0  0  0  0  0  0  0  0  0  0  0
   57.6440   26.7390   46.2780 O   0  0  0  0  0  0  0  0  0  0  0  0
   57.7080   25.6010   45.4230 C   0  0  0  0  0  0  0  0  0  0  0  0
   58.6640   28.9350   46.3990 C   0  0  0  0  0  0  0  0  0  0  0  0
   60.0210   28.0080   47.4200 Br  0  0  0  0  0  0  0  0  0  0  0  0
   58.6960   30.3270   46.0340 C   0  0  0  0  0  0  0  0  0  0  0  0
   59.2160   34.0419   51.4643 H   0  0  0  0  0  0  0  0  0  0  0  0
   59.7651   34.7708   49.9171 H   0  0  0  0  0  0  0  0  0  0  0  0
   58.9561   33.1670   49.9171 H   0  0  0  0  0  0  0  0  0  0  0  0
   61.6489   33.7792   51.2456 H   0  0  0  0  0  0  0  0  0  0  0  0
   60.8443   32.1690   51.1149 H   0  0  0  0  0  0  0  0  0  0  0  0
   62.0550   34.9295   48.8146 H   0  0  0  0  0  0  0  0  0  0  0  0
   63.3316   34.0326   49.7768 H   0  0  0  0  0  0  0  0  0  0  0  0
   64.4077   33.3408   47.9406 H   0  0  0  0  0  0  0  0  0  0  0  0
   62.8846   32.9315   47.0808 H   0  0  0  0  0  0  0  0  0  0  0  0
   63.4893   34.6230   47.0808 H   0  0  0  0  0  0  0  0  0  0  0  0
   63.2274   31.6166   48.8724 H   0  0  0  0  0  0  0  0  0  0  0  0
   62.0292   30.9995   50.0700 H   0  0  0  0  0  0  0  0  0  0  0  0
   61.7837   31.1861   47.0391 H   0  0  0  0  0  0  0  0  0  0  0  0
   61.5698   29.7527   48.1264 H   0  0  0  0  0  0  0  0  0  0  0  0
   59.7600   31.9040   48.7090 H   0  0  0  0  0  0  0  0  0  0  0  0
   59.4450   30.3230   48.5620 H   0  0  0  0  0  0  0  0  0  0  0  0
   60.5405   33.5448   47.8982 H   0  0  0  0  0  0  0  0  0  0  0  0
   60.5163   35.8549   46.9996 H   0  0  0  0  0  0  0  0  0  0  0  0
   59.3283   36.3601   44.8777 H   0  0  0  0  0  0  0  0  0  0  0  0
   58.1893   34.5471   43.6265 H   0  0  0  0  0  0  0  0  0  0  0  0
   56.7100   32.7188   42.9333 H   0  0  0  0  0  0  0  0  0  0  0  0
   58.4235   32.8209   42.4037 H   0  0  0  0  0  0  0  0  0  0  0  0
   57.5763   31.2369   42.4037 H   0  0  0  0  0  0  0  0  0  0  0  0
   56.3034   30.1815   43.5672 H   0  0  0  0  0  0  0  0  0  0  0  0
   56.0158   27.9091   44.4930 H   0  0  0  0  0  0  0  0  0  0  0  0
   57.7594   24.6868   46.0326 H   0  0  0  0  0  0  0  0  0  0  0  0
   56.8103   25.5684   44.7882 H   0  0  0  0  0  0  0  0  0  0  0  0
   58.6037   25.6692   44.7882 H   0  0  0  0  0  0  0  0  0  0  0  0
  1  2  1  0
  2  3  1  0
  3  4  1  0
  4  5  1  0
  3  6  1  0
  6  7  1  0
  7  8  1  0
  8  9  1  0
  9 10  2  0
 10 11  1  0
 11 12  2  0
 12 13  1  0
 13 14  2  0
 14 15  1  0
 15 16  2  0
 16 17  1  0
 16 18  1  0
 18 19  2  0
 19 20  1  0
 20 21  2  0
 21 22  1  0
 22 23  1  0
 21 24  1  0
 24 25  1  0
 24 26  2  0
 26  9  1  0
 15 10  1  0
 26 18  1  0
  1 27  1  0
  1 28  1  0
  1 29  1  0
  2 30  1  0
  2 31  1  0
  4 32  1  0
  4 33  1  0
  5 34  1  0
  5 35  1  0
  5 36  1  0
  6 37  1  0
  6 38  1  0
  7 39  1  0
  7 40  1  0
  8 41  1  0
  8 42  1  0
 11 43  1  0
 12 44  1  0
 13 45  1  0
 14 46  1  0
 17 47  1  0
 17 48  1  0
 17 49  1  0
 19 50  1  0
 20 51  1  0
 23 52  1  0
 23 53  1  0
 23 54  1  0
M  CHG  2   8   1  16   1
M  END
>  <UniqueID>  (15) 
15

>  <SMILES>  (15) 
CCN(CC)CC[NH2+]c1c2ccccc2[n+](C)c2ccc(OC)c(Br)c12

>  <Energy>  (15) 
97.61302738618099

>  <Genealogy>  (15) 
CCN(CC)CC[NH2+]c1c2ccccc2[n+](C)c2ccc(OC)c(Br)c12 (protonated)
CCN(CC)CC[NH2+]c1c2ccccc2[n+](C)c2ccc(OC)c(Br)c12 (3D coordinates assigned)
CCN(CC)CC[NH2+]c1c2ccccc2[n+](C)c2ccc(OC)c(Br)c12 (optimized conformer: 97.61302738618099 kcal/mol)

>  <smiles>  (15) 
CCN(CC)CCNc1c2ccccc2[n+](C)c2ccc(OC)c(Br)c12

>  <score_type>  (15) 
oracle

>  <origin>  (15) 
adg

>  <m_score__min__energy>  (15) 
-4.5499999999999998

>  <m_primary>  (15) 
energy

$$$$
15:0
     RDKit          3D

 34 35  0  0  0  0  0  0  0  0999 V2000
   56.3430   29.8090   43.2380 C   0  0  0  0  0  0  0  0  0  0  0  0
   56.2740   30.5290   44.4640 O   0  0  0  0  0  0  0  0  0  0  0  0
   57.3910   30.9370   45.2080 C   0  0  0  0  0  0  0  0  0  0  0  0
   58.3580   30.0270   45.6780 C   0  0  0  0  0  0  0  0  0  0  0  0
   59.4560   30.4780   46.4150 C   0  0  0  0  0  0  0  0  0  0  0  0
   59.6060   31.8440   46.6960 C   0  0  0  0  0  0  0  0  0  0  0  0
   60.7040   32.3050   47.4360 C   0  0  0  0  0  0  0  0  0  0  0  0
   60.8460   33.6730   47.7230 C   0  0  0  0  0  0  0  0  0  0  0  0
   62.0310   34.1680   48.5280 C   0  0  0  0  0  0  0  0  0  0  0  0
   63.3480   33.7850   47.9610 N   0  0  0  0  0  0  0  0  0  0  0  0
   63.8040   32.4690   48.4400 C   0  0  0  0  0  0  0  0  0  0  0  0
   63.3620   33.8370   46.4890 C   0  0  0  0  0  0  0  0  0  0  0  0
   59.8860   34.5790   47.2450 C   0  0  0  0  0  0  0  0  0  0  0  0
   58.7900   34.1290   46.5050 C   0  0  0  0  0  0  0  0  0  0  0  0
   58.6400   32.7630   46.2270 C   0  0  0  0  0  0  0  0  0  0  0  0
   57.5400   32.3010   45.4870 C   0  0  0  0  0  0  0  0  0  0  0  0
   56.4460   28.7344   43.4492 H   0  0  0  0  0  0  0  0  0  0  0  0
   55.4241   29.9824   42.6587 H   0  0  0  0  0  0  0  0  0  0  0  0
   57.2122   30.1538   42.6587 H   0  0  0  0  0  0  0  0  0  0  0  0
   58.2480   28.9538   45.4633 H   0  0  0  0  0  0  0  0  0  0  0  0
   60.2059   29.7589   46.7763 H   0  0  0  0  0  0  0  0  0  0  0  0
   61.4597   31.5905   47.7944 H   0  0  0  0  0  0  0  0  0  0  0  0
   61.9815   35.2658   48.5771 H   0  0  0  0  0  0  0  0  0  0  0  0
   61.9618   33.6962   49.5193 H   0  0  0  0  0  0  0  0  0  0  0  0
   64.0410   34.4930   48.3010 H   0  0  0  0  0  0  0  0  0  0  0  0
   63.8071   32.4601   49.5400 H   0  0  0  0  0  0  0  0  0  0  0  0
   63.1241   31.6880   48.0689 H   0  0  0  0  0  0  0  0  0  0  0  0
   64.8214   32.2761   48.0689 H   0  0  0  0  0  0  0  0  0  0  0  0
   63.6349   34.8507   46.1605 H   0  0  0  0  0  0  0  0  0  0  0  0
   64.0980   33.1161   46.1036 H   0  0  0  0  0  0  0  0  0  0  0  0
   62.3635   33.5830   46.1036 H   0  0  0  0  0  0  0  0  0  0  0  0
   59.9979   35.6529   47.4551 H   0  0  0  0  0  0  0  0  0  0  0  0
   58.0425   34.8484   46.1394 H   0  0  0  0  0  0  0  0  0  0  0  0
   56.7884   33.0170   45.1231 H   0  0  0  0  0  0  0  0  0  0  0  0
  1  2  1  0
  2  3  1  0
  3  4  2  0
  4  5  1  0
  5  6  2  0
  6  7  1  0
  7  8  2  0
  8  9  1  0
  9 10  1  0
 10 11  1  0
 10 12  1  0
  8 13  1  0
 13 14  2  0
 14 15  1  0
 15 16  2  0
 16  3  1  0
 15  6  1  0
  1 17  1  0
  1 18  1  0
  1 19  1  0
  4 20  1  0
  5 21  1  0
  7 22  1  0
  9 23  1  0
  9 24  1  0
 10 25  1  0
 11 26  1  0
 11 27  1  0
 11 28  1  0
 12 29  1  0
 12 30  1  0
 12 31  1  0
 13 32  1  0
 14 33  1  0
 16 34  1  0
M  CHG  1  10   1
M  END
>  <UniqueID>  (16) 
16

>  <SMILES>  (16) 
COc1ccc2cc(C[NH+](C)C)ccc2c1

>  <Energy>  (16) 
37.98555043236011

>  <Genealogy>  (16) 
COc1ccc2cc(C[NH+](C)C)ccc2c1 (protonated)
COc1ccc2cc(C[NH+](C)C)ccc2c1 (3D coordinates assigned)
COc1ccc2cc(C[NH+](C)C)ccc2c1 (optimized conformer: 37.98555043236011 kcal/mol)

>  <smiles>  (16) 
COc1ccc2cc(CN(C)C)ccc2c1

>  <score_type>  (16) 
oracle

>  <origin>  (16) 
adg

>  <m_score__min__energy>  (16) 
-4.5

>  <m_primary>  (16) 
energy

$$$$
16:0
     RDKit          3D

 38 39  0  0  0  0  0  0  0  0999 V2000
   60.4230   28.0740   49.0060 C   0  0  0  0  0  0  0  0  0  0  0  0
   60.8370   26.7120   48.4600 C   0  0  0  0  0  0  0  0  0  0  0  0
   60.5680   26.6250   47.0600 O   0  0  0  0  0  0  0  0  0  0  0  0
   59.6450   27.4150   46.3550 C   0  0  0  0  0  0  0  0  0  0  0  0
   58.2820   27.2240   46.6110 C   0  0  0  0  0  0  0  0  0  0  0  0
   57.3190   27.9850   45.9430 C   0  0  0  0  0  0  0  0  0  0  0  0
   57.7100   28.9460   45.0040 C   0  0  0  0  0  0  0  0  0  0  0  0
   56.4910   29.9150   44.1820 S   0  0  0  0  0  0  0  0  0  0  0  0
   56.7170   29.9070   42.6950 O   0  0  0  0  0  0  0  0  0  0  0  0
   55.1340   29.3380   44.4730 O   0  0  0  0  0  0  0  0  0  0  0  0
   56.5480   31.5500   44.7550 N   0  0  0  0  0  0  0  0  0  0  0  0
   57.6850   32.1690   45.3720 C   0  0  0  0  0  0  0  0  0  0  0  0
   58.1780   31.6270   46.5640 C   0  0  0  0  0  0  0  0  0  0  0  0
   59.2880   32.1930   47.1970 C   0  0  0  0  0  0  0  0  0  0  0  0
   59.9320   33.3160   46.6470 C   0  0  0  0  0  0  0  0  0  0  0  0
   61.1150   33.9050   47.3300 C   0  0  0  0  0  0  0  0  0  0  0  0
   62.5030   33.7580   46.7790 C   0  0  0  0  0  0  0  0  0  0  0  0
   60.9620   34.5510   48.4020 O   0  0  0  0  0  0  0  0  0  0  0  0
   59.4290   33.8620   45.4500 C   0  0  0  0  0  0  0  0  0  0  0  0
   58.3170   33.2960   44.8200 C   0  0  0  0  0  0  0  0  0  0  0  0
   59.0700   29.1360   44.7330 C   0  0  0  0  0  0  0  0  0  0  0  0
   60.0350   28.3770   45.4030 C   0  0  0  0  0  0  0  0  0  0  0  0
   60.4315   28.0462   50.1056 H   0  0  0  0  0  0  0  0  0  0  0  0
   61.1288   28.8404   48.6532 H   0  0  0  0  0  0  0  0  0  0  0  0
   59.4101   28.3180   48.6532 H   0  0  0  0  0  0  0  0  0  0  0  0
   61.9141   26.5672   48.6302 H   0  0  0  0  0  0  0  0  0  0  0  0
   60.2598   25.9330   48.9796 H   0  0  0  0  0  0  0  0  0  0  0  0
   57.9661   26.4679   47.3448 H   0  0  0  0  0  0  0  0  0  0  0  0
   56.2512   27.8283   46.1558 H   0  0  0  0  0  0  0  0  0  0  0  0
   57.6876   30.7476   47.0068 H   0  0  0  0  0  0  0  0  0  0  0  0
   59.6617   31.7559   48.1347 H   0  0  0  0  0  0  0  0  0  0  0  0
   63.2208   33.6820   47.6090 H   0  0  0  0  0  0  0  0  0  0  0  0
   62.5582   32.8490   46.1620 H   0  0  0  0  0  0  0  0  0  0  0  0
   62.7474   34.6353   46.1620 H   0  0  0  0  0  0  0  0  0  0  0  0
   59.9163   34.7428   45.0064 H   0  0  0  0  0  0  0  0  0  0  0  0
   57.9345   33.7353   43.8869 H   0  0  0  0  0  0  0  0  0  0  0  0
   59.3811   29.8852   43.9901 H   0  0  0  0  0  0  0  0  0  0  0  0
   61.1021   28.5319   45.1857 H   0  0  0  0  0  0  0  0  0  0  0  0
  1  2  1  0
  2  3  1  0
  3  4  1  0
  4  5  2  0
  5  6  1  0
  6  7  2  0
  7  8  1  0
  8  9  2  0
  8 10  2  0
  8 11  1  0
 11 12  1  0
 12 13  2  0
 13 14  1  0
 14 15  2  0
 15 16  1  0
 16 17  1  0
 16 18  2  0
 15 19  1  0
 19 20  2  0
  7 21  1  0
 21 22  2  0
 22  4  1  0
 20 12  1  0
  1 23  1  0
  1 24  1  0
  1 25  1  0
  2 26  1  0
  2 27  1  0
  5 28  1  0
  6 29  1  0
 13 30  1  0
 14 31  1  0
 17 32  1  0
 17 33  1  0
 17 34  1  0
 19 35  1  0
 20 36  1  0
 21 37  1  0
 22 38  1  0
M  CHG  1  11  -1
M  END
>  <UniqueID>  (17) 
17

>  <SMILES>  (17) 
CCOc1ccc(S(=O)(=O)[N-]c2ccc(C(C)=O)cc2)cc1

>  <Energy>  (17) 
39.466682047249826

>  <Genealogy>  (17) 
CCOc1ccc(S(=O)(=O)[N-]c2ccc(C(C)=O)cc2)cc1 (protonated)
CCOc1ccc(S(=O)(=O)[N-]c2ccc(C(C)=O)cc2)cc1 (3D coordinates assigned)
CCOc1ccc(S(=O)(=O)[N-]c2ccc(C(C)=O)cc2)cc1 (optimized conformer: 39.466682047249826 kcal/mol)

>  <smiles>  (17) 
CCOc1ccc(S(=O)(=O)Nc2ccc(C(C)=O)cc2)cc1

>  <score_type>  (17) 
oracle

>  <origin>  (17) 
adg

>  <m_score__min__energy>  (17) 
-8.6999999999999993

>  <m_primary>  (17) 
energy

$$$$
17:0
     RDKit          3D

 39 39  0  0  0  0  0  0  0  0999 V2000
   60.7240   30.5310   47.8780 C   0  0  0  0  0  0  0  0  0  0  0  0
   59.2000   30.4450   48.0160 C   0  0  0  0  0  0  0  0  0  0  0  0
   58.5150   30.5340   46.7150 N   0  0  0  0  0  0  0  0  0  0  0  0
   58.3860   29.2280   46.0490 C   0  0  0  0  0  0  0  0  0  0  0  0
   57.3270   29.2890   44.9440 C   0  0  0  0  0  0  0  0  0  0  0  0
   56.7720   30.5880   44.8530 O   0  0  0  0  0  0  0  0  0  0  0  0
   57.0310   31.1540   43.5840 C   0  0  0  0  0  0  0  0  0  0  0  0
   57.7950   32.4700   43.7770 C   0  0  0  0  0  0  0  0  0  0  0  0
   58.3470   32.6180   45.1390 N   0  0  0  0  0  0  0  0  0  0  0  0
   58.7730   33.9900   45.4780 C   0  0  0  0  0  0  0  0  0  0  0  0
   59.7790   34.0190   46.6040 C   0  0  0  0  0  0  0  0  0  0  0  0
   59.3580   34.2210   47.9300 C   0  0  0  0  0  0  0  0  0  0  0  0
   60.2890   34.2210   48.9730 C   0  0  0  0  0  0  0  0  0  0  0  0
   61.6460   34.0160   48.7020 C   0  0  0  0  0  0  0  0  0  0  0  0
   62.9150   34.0140   50.1290 Br  0  0  0  0  0  0  0  0  0  0  0  0
   62.0710   33.8110   47.3860 C   0  0  0  0  0  0  0  0  0  0  0  0
   61.1430   33.8100   46.3410 C   0  0  0  0  0  0  0  0  0  0  0  0
   61.1818   30.5568   48.8779 H   0  0  0  0  0  0  0  0  0  0  0  0
   61.0926   29.6522   47.3285 H   0  0  0  0  0  0  0  0  0  0  0  0
   60.9914   31.4457   47.3285 H   0  0  0  0  0  0  0  0  0  0  0  0
   58.9411   29.4854   48.4872 H   0  0  0  0  0  0  0  0  0  0  0  0
   58.8691   31.2960   48.6295 H   0  0  0  0  0  0  0  0  0  0  0  0
   57.5620   30.9490   46.8470 H   0  0  0  0  0  0  0  0  0  0  0  0
   59.3542   28.9503   45.6069 H   0  0  0  0  0  0  0  0  0  0  0  0
   58.0790   28.4788   46.7936 H   0  0  0  0  0  0  0  0  0  0  0  0
   57.7931   29.0275   43.9826 H   0  0  0  0  0  0  0  0  0  0  0  0
   56.5234   28.5776   45.1851 H   0  0  0  0  0  0  0  0  0  0  0  0
   57.6378   30.4584   42.9857 H   0  0  0  0  0  0  0  0  0  0  0  0
   56.0833   31.3452   43.0593 H   0  0  0  0  0  0  0  0  0  0  0  0
   58.6251   32.5033   43.0560 H   0  0  0  0  0  0  0  0  0  0  0  0
   57.0823   33.2926   43.6177 H   0  0  0  0  0  0  0  0  0  0  0  0
   59.1650   31.9750   45.2510 H   0  0  0  0  0  0  0  0  0  0  0  0
   57.6180   32.3120   45.8250 H   0  0  0  0  0  0  0  0  0  0  0  0
   59.2265   34.4493   44.5873 H   0  0  0  0  0  0  0  0  0  0  0  0
   57.8830   34.5453   45.8091 H   0  0  0  0  0  0  0  0  0  0  0  0
   58.2915   34.3797   48.1478 H   0  0  0  0  0  0  0  0  0  0  0  0
   59.9540   34.3824   50.0082 H   0  0  0  0  0  0  0  0  0  0  0  0
   63.1380   33.6502   47.1726 H   0  0  0  0  0  0  0  0  0  0  0  0
   61.4823   33.6448   45.3077 H   0  0  0  0  0  0  0  0  0  0  0  0
  1  2  1  0
  2  3  1  0
  3  4  1  0
  4  5  1  0
  5  6  1  0
  6  7  1  0
  7  8  1  0
  8  9  1  0
  9 10  1  0
 10 11  1  0
 11 12  2  0
 12 13  1  0
 13 14  2  0
 14 15  1  0
 14 16  1  0
 16 17  2  0
 17 11  1  0
  1 18  1  0
  1 19  1  0
  1 20  1  0
  2 21  1  0
  2 22  1  0
  3 23  1  0
  4 24  1  0
  4 25  1  0
  5 26  1  0
  5 27  1  0
  7 28  1  0
  7 29  1  0
  8 30  1  0
  8 31  1  0
  9 32  1  0
  9 33  1  0
 10 34  1  0
 10 35  1  0
 12 36  1  0
 13 37  1  0
 16 38  1  0
 17 39  1  0
M  CHG  1   9   1
M  END
>  <UniqueID>  (18) 
18

>  <SMILES>  (18) 
CCNCCOCC[NH2+]Cc1ccc(Br)cc1

>  <Energy>  (18) 
34.626768010536075

>  <Genealogy>  (18) 
CCNCCOCC[NH2+]Cc1ccc(Br)cc1 (protonated)
CCNCCOCC[NH2+]Cc1ccc(Br)cc1 (3D coordinates assigned)
CCNCCOCC[NH2+]Cc1ccc(Br)cc1 (optimized conformer: 34.626768010536075 kcal/mol)

>  <smiles>  (18) 
CCNCCOCCNCc1ccc(Br)cc1

>  <score_type>  (18) 
oracle

>  <origin>  (18) 
adg

>  <m_score__min__energy>  (18) 
-4.6399999999999997

>  <m_primary>  (18) 
energy

$$$$
18:0
     RDKit          3D

 57 59  0  0  0  0  0  0  0  0999 V2000
   56.2360   30.2050   43.4740 C   0  0  0  0  0  0  0  0  0  0  0  0
   57.1900   30.9090   44.4320 C   0  0  0  0  0  0  0  0  0  0  0  0
   57.4570   30.0670   45.6050 N   0  0  0  0  0  0  0  0  0  0  0  0
   56.9230   28.7090   45.4200 C   0  0  0  0  0  0  0  0  0  0  0  0
   58.0060   27.7580   44.8870 C   0  0  0  0  0  0  0  0  0  0  0  0
   59.1780   27.5430   45.8590 C   0  0  0  0  0  0  0  0  0  0  0  0
   59.0340   28.3840   47.0560 N   0  0  0  0  0  0  0  0  0  0  0  0
   60.0440   28.0330   48.0640 C   0  0  0  0  0  0  0  0  0  0  0  0
   60.0010   29.0190   49.2400 C   0  0  0  0  0  0  0  0  0  0  0  0
   59.0810   30.1450   48.9890 N   0  0  0  0  0  0  0  0  0  0  0  0
   59.6670   31.4080   49.4290 C   0  0  0  0  0  0  0  0  0  0  0  0
   59.1500   32.0810   50.5650 C   0  0  0  0  0  0  0  0  0  0  0  0
   57.7860   31.9930   50.9270 C   0  0  0  0  0  0  0  0  0  0  0  0
   57.2960   32.6640   52.0450 C   0  0  0  0  0  0  0  0  0  0  0  0
   58.1450   33.4550   52.8090 C   0  0  0  0  0  0  0  0  0  0  0  0
   59.4870   33.5790   52.4600 C   0  0  0  0  0  0  0  0  0  0  0  0
   60.0200   32.8880   51.3430 C   0  0  0  0  0  0  0  0  0  0  0  0
   61.3520   32.9860   51.0040 N   0  0  0  0  0  0  0  0  0  0  0  0
   62.3340   33.4860   51.9930 C   0  0  0  0  0  0  0  0  0  0  0  0
   61.7600   32.6330   49.7320 C   0  0  0  0  0  0  0  0  0  0  0  0
   63.0370   33.0040   49.2440 C   0  0  0  0  0  0  0  0  0  0  0  0
   63.4530   32.6370   47.9700 C   0  0  0  0  0  0  0  0  0  0  0  0
   62.5900   31.9610   47.1220 C   0  0  0  0  0  0  0  0  0  0  0  0
   61.2970   31.6240   47.5400 C   0  0  0  0  0  0  0  0  0  0  0  0
   60.3730   31.1750   46.5420 N   0  0  0  0  0  0  0  0  0  0  0  0
   59.2050   31.6120   46.5280 O   0  0  0  0  0  0  0  0  0  0  0  0
   60.6840   30.0700   45.7840 O   0  0  0  0  0  0  0  0  0  0  0  0
   60.8910   31.8890   48.8820 C   0  0  0  0  0  0  0  0  0  0  0  0
   55.4821   29.6486   44.0502 H   0  0  0  0  0  0  0  0  0  0  0  0
   55.7354   30.9518   42.8402 H   0  0  0  0  0  0  0  0  0  0  0  0
   56.8020   29.5065   42.8402 H   0  0  0  0  0  0  0  0  0  0  0  0
   58.1371   31.1162   43.9123 H   0  0  0  0  0  0  0  0  0  0  0  0
   56.7273   31.8489   44.7673 H   0  0  0  0  0  0  0  0  0  0  0  0
   58.4960   29.9870   45.6960 H   0  0  0  0  0  0  0  0  0  0  0  0
   56.5573   28.3318   46.3864 H   0  0  0  0  0  0  0  0  0  0  0  0
   56.1036   28.7520   44.6874 H   0  0  0  0  0  0  0  0  0  0  0  0
   57.5408   26.7821   44.6838 H   0  0  0  0  0  0  0  0  0  0  0  0
   58.4227   28.2233   43.9815 H   0  0  0  0  0  0  0  0  0  0  0  0
   59.2031   26.4862   46.1633 H   0  0  0  0  0  0  0  0  0  0  0  0
   60.1115   27.8203   45.3474 H   0  0  0  0  0  0  0  0  0  0  0  0
   59.2030   29.3780   46.7650 H   0  0  0  0  0  0  0  0  0  0  0  0
   59.8448   27.0174   48.4366 H   0  0  0  0  0  0  0  0  0  0  0  0
   61.0397   28.0799   47.5988 H   0  0  0  0  0  0  0  0  0  0  0  0
   59.6670   28.4824   50.1403 H   0  0  0  0  0  0  0  0  0  0  0  0
   61.0121   29.4316   49.3723 H   0  0  0  0  0  0  0  0  0  0  0  0
   58.2140   29.9280   49.5220 H   0  0  0  0  0  0  0  0  0  0  0  0
   58.7960   30.1780   47.9890 H   0  0  0  0  0  0  0  0  0  0  0  0
   57.1016   31.3856   50.3166 H   0  0  0  0  0  0  0  0  0  0  0  0
   56.2361   32.5675   52.3232 H   0  0  0  0  0  0  0  0  0  0  0  0
   57.7561   33.9843   53.6914 H   0  0  0  0  0  0  0  0  0  0  0  0
   60.1447   34.2240   53.0611 H   0  0  0  0  0  0  0  0  0  0  0  0
   61.9599   33.2955   53.0097 H   0  0  0  0  0  0  0  0  0  0  0  0
   63.2933   32.9666   51.8520 H   0  0  0  0  0  0  0  0  0  0  0  0
   62.4783   34.5673   51.8520 H   0  0  0  0  0  0  0  0  0  0  0  0
   63.7106   33.5925   49.8843 H   0  0  0  0  0  0  0  0  0  0  0  0
   64.4707   32.8838   47.6334 H   0  0  0  0  0  0  0  0  0  0  0  0
   62.9242   31.6865   46.1106 H   0  0  0  0  0  0  0  0  0  0  0  0
  1  2  1  0
  2  3  1  0
  3  4  1  0
  4  5  1  0
  5  6  1  0
  6  7  1  0
  7  8  1  0
  8  9  1  0
  9 10  1  0
 10 11  1  0
 11 12  2  0
 12 13  1  0
 13 14  2  0
 14 15  1  0
 15 16  2  0
 16 17  1  0
 17 18  2  0
 18 19  1  0
 18 20  1  0
 20 21  2  0
 21 22  1  0
 22 23  2  0
 23 24  1  0
 24 25  1  0
 25 26  2  0
 25 27  1  0
 24 28  2  0
 28 11  1  0
 17 12  1  0
 28 20  1  0
  1 29  1  0
  1 30  1  0
  1 31  1  0
  2 32  1  0
  2 33  1  0
  3 34  1  0
  4 35  1  0
  4 36  1  0
  5 37  1  0
  5 38  1  0
  6 39  1  0
  6 40  1  0
  7 41  1  0
  8 42  1  0
  8 43  1  0
  9 44  1  0
  9 45  1  0
 10 46  1  0
 10 47  1  0
 13 48  1  0
 14 49  1  0
 15 50  1  0
 16 51  1  0
 19 52  1  0
 19 53  1  0
 19 54  1  0
 21 55  1  0
 22 56  1  0
 23 57  1  0
M  CHG  4  10   1  18   1  25   1  27  -1
M  END
>  <UniqueID>  (19) 
19

>  <SMILES>  (19) 
CCNCCCNCC[NH2+]c1c2ccccc2[n+](C)c2cccc([N+](=O)[O-])c12

>  <Energy>  (19) 
95.92438462243092

>  <Genealogy>  (19) 
CCNCCCNCC[NH2+]c1c2ccccc2[n+](C)c2cccc([N+](=O)[O-])c12 (protonated)
CCNCCCNCC[NH2+]c1c2ccccc2[n+](C)c2cccc([N+](=O)[O-])c12 (3D coordinates assigned)
CCNCCCNCC[NH2+]c1c2ccccc2[n+](C)c2cccc([N+](=O)[O-])c12 (optimized conformer: 95.92438462243092 kcal/mol)

>  <smiles>  (19) 
CCNCCCNCCNc1c2ccccc2[n+](C)c2cccc([N+](=O)[O-])c12

>  <score_type>  (19) 
oracle

>  <origin>  (19) 
adg

>  <m_score__min__energy>  (19) 
-2.8500000000000001

>  <m_primary>  (19) 
energy

$$$$
19:0
     RDKit          3D

 44 46  0  0  0  0  0  0  0  0999 V2000
   58.3592   33.4181   43.0375 H   0  0  0  0  0  0  0  0  0  0  0  0
   58.1830   33.2250   44.1060 C   0  0  0  0  0  0  0  0  0  0  0  0
   58.3120   34.2510   44.9570 C   0  0  0  0  0  0  0  0  0  0  0  0
   58.0177   35.2574   44.6246 H   0  0  0  0  0  0  0  0  0  0  0  0
   58.8350   34.0770   46.3240 C   0  0  0  0  0  0  0  0  0  0  0  0
   58.1710   33.1290   47.5510 S   0  0  0  0  0  0  0  0  0  0  0  0
   59.3360   33.4800   48.7100 C   0  0  0  0  0  0  0  0  0  0  0  0
   59.3606   33.0898   49.7382 H   0  0  0  0  0  0  0  0  0  0  0  0
   60.2630   34.3480   48.1460 C   0  0  0  0  0  0  0  0  0  0  0  0
   61.1338   34.7371   48.6941 H   0  0  0  0  0  0  0  0  0  0  0  0
   59.9850   34.6810   46.8150 C   0  0  0  0  0  0  0  0  0  0  0  0
   60.6157   35.3550   46.2167 H   0  0  0  0  0  0  0  0  0  0  0  0
   57.8190   31.8490   44.5090 C   0  0  0  0  0  0  0  0  0  0  0  0
   58.6750   31.1860   45.2840 O   0  0  0  0  0  0  0  0  0  0  0  0
   58.4680   29.9440   45.7110 C   0  0  0  0  0  0  0  0  0  0  0  0
   59.4200   29.3090   46.5340 C   0  0  0  0  0  0  0  0  0  0  0  0
   60.6170   29.9840   46.9500 N   0  0  0  0  0  0  0  0  0  0  0  0
   61.4440   29.9470   46.3110 H   0  0  0  0  0  0  0  0  0  0  0  0
   60.8810   30.3210   48.3490 C   0  0  0  0  0  0  0  0  0  0  0  0
   61.0834   29.3971   48.9106 H   0  0  0  0  0  0  0  0  0  0  0  0
   59.9993   30.8337   48.7609 H   0  0  0  0  0  0  0  0  0  0  0  0
   62.0890   31.2530   48.4640 C   0  0  0  0  0  0  0  0  0  0  0  0
   62.8852   30.7476   49.0302 H   0  0  0  0  0  0  0  0  0  0  0  0
   61.7843   32.1731   48.9842 H   0  0  0  0  0  0  0  0  0  0  0  0
   62.5910   31.6020   47.1250 N   0  0  0  0  0  0  0  0  0  0  0  0
   61.8050   31.9730   46.5410 H   0  0  0  0  0  0  0  0  0  0  0  0
   63.6880   32.5820   47.1590 C   0  0  0  0  0  0  0  0  0  0  0  0
   64.5898   32.1195   46.7314 H   0  0  0  0  0  0  0  0  0  0  0  0
   63.8475   32.8748   48.2072 H   0  0  0  0  0  0  0  0  0  0  0  0
   63.3570   33.8470   46.3620 C   0  0  0  0  0  0  0  0  0  0  0  0
   63.1411   34.6721   47.0567 H   0  0  0  0  0  0  0  0  0  0  0  0
   64.2150   34.1162   45.7284 H   0  0  0  0  0  0  0  0  0  0  0  0
   62.4772   33.6614   45.7284 H   0  0  0  0  0  0  0  0  0  0  0  0
   59.2200   27.9760   46.9190 C   0  0  0  0  0  0  0  0  0  0  0  0
   59.9790   27.4647   47.5293 H   0  0  0  0  0  0  0  0  0  0  0  0
   58.0650   27.2920   46.5340 C   0  0  0  0  0  0  0  0  0  0  0  0
   57.9134   26.2506   46.8542 H   0  0  0  0  0  0  0  0  0  0  0  0
   57.1020   27.9230   45.7450 C   0  0  0  0  0  0  0  0  0  0  0  0
   56.1894   27.3823   45.4539 H   0  0  0  0  0  0  0  0  0  0  0  0
   57.2980   29.2500   45.3220 C   0  0  0  0  0  0  0  0  0  0  0  0
   56.3740   29.9130   44.5010 C   0  0  0  0  0  0  0  0  0  0  0  0
   55.3140   29.3420   44.1220 O   0  0  0  0  0  0  0  0  0  0  0  0
   56.6330   31.2200   44.0910 C   0  0  0  0  0  0  0  0  0  0  0  0
   55.9176   31.7532   43.4477 H   0  0  0  0  0  0  0  0  0  0  0  0
  1  2  1  0
  2  3  2  0
  3  4  1  0
  3  5  1  0
  5  6  1  0
  6  7  1  0
  7  8  1  0
  7  9  2  0
  9 10  1  0
  9 11  1  0
 11 12  1  0
  2 13  1  0
 13 14  1  0
 14 15  1  0
 15 16  2  0
 16 17  1  0
 17 18  1  0
 17 19  1  0
 19 20  1  0
 19 21  1  0
 19 22  1  0
 22 23  1  0
 22 24  1  0
 22 25  1  0
 25 26  1  0
 25 27  1  0
 27 28  1  0
 27 29  1  0
 27 30  1  0
 30 31  1  0
 30 32  1  0
 30 33  1  0
 16 34  1  0
 34 35  1  0
 34 36  2  0
 36 37  1  0
 36 38  1  0
 38 39  1  0
 38 40  2  0
 40 41  1  0
 41 42  2  0
 41 43  1  0
 43 44  1  0
 11  5  2  0
 43 13  2  0
 40 15  1  0
M  END
>  <UniqueID>  (20) 
20

>  <SMILES>  (20) 
CCNCCNc1cccc2c(=O)cc(/C=C/c3cccs3)oc12

>  <Energy>  (20) 
77.43137385957573

>  <Genealogy>  (20) 
CCNCCNc1cccc2c(=O)cc(/C=C/c3cccs3)oc12 (cis-trans isomerization)
CCNCCNc1cccc2c(=O)cc(/C=C/c3cccs3)oc12 (3D coordinates assigned)
CCNCCNc1cccc2c(=O)cc(/C=C/c3cccs3)oc12 (optimized conformer: 77.43137385957573 kcal/mol)

>  <smiles>  (20) 
CCNCCNc1cccc2c(=O)cc(C=Cc3cccs3)oc12

>  <score_type>  (20) 
oracle

>  <origin>  (20) 
adg

>  <m_score__min__energy>  (20) 
-7.6600000000000001

>  <m_primary>  (20) 
energy

$$$$
20:0
     RDKit          3D

 37 38  0  0  0  0  0  0  0  0999 V2000
   57.6930   28.5450   43.9820 C   0  0  0  0  0  0  0  0  0  0  0  0
   56.5280   28.8920   44.9010 C   0  0  0  0  0  0  0  0  0  0  0  0
   55.9010   30.1450   44.4630 N   0  0  0  0  0  0  0  0  0  0  0  0
   56.9000   31.1590   44.0960 C   0  0  0  0  0  0  0  0  0  0  0  0
   57.5310   31.8020   45.3090 C   0  0  0  0  0  0  0  0  0  0  0  0
   57.1530   33.0930   45.7000 C   0  0  0  0  0  0  0  0  0  0  0  0
   57.7120   33.6800   46.8380 C   0  0  0  0  0  0  0  0  0  0  0  0
   58.6560   32.9770   47.6110 C   0  0  0  0  0  0  0  0  0  0  0  0
   59.2380   33.5250   48.7670 O   0  0  0  0  0  0  0  0  0  0  0  0
   60.2020   34.5780   48.7880 C   0  0  0  0  0  0  0  0  0  0  0  0
   61.5700   34.0580   48.4360 C   0  0  0  0  0  0  0  0  0  0  0  0
   61.9120   33.8250   47.0940 C   0  0  0  0  0  0  0  0  0  0  0  0
   63.1840   33.3480   46.7630 C   0  0  0  0  0  0  0  0  0  0  0  0
   64.1260   33.1090   47.7670 C   0  0  0  0  0  0  0  0  0  0  0  0
   63.7980   33.3500   49.1030 C   0  0  0  0  0  0  0  0  0  0  0  0
   62.5260   33.8260   49.4400 C   0  0  0  0  0  0  0  0  0  0  0  0
   59.0340   31.6840   47.2160 C   0  0  0  0  0  0  0  0  0  0  0  0
   60.2050   30.7740   48.1580 Cl  0  0  0  0  0  0  0  0  0  0  0  0
   58.4730   31.1000   46.0760 C   0  0  0  0  0  0  0  0  0  0  0  0
   58.5727   28.2830   44.5882 H   0  0  0  0  0  0  0  0  0  0  0  0
   57.4172   27.6900   43.3472 H   0  0  0  0  0  0  0  0  0  0  0  0
   57.9300   29.4115   43.3472 H   0  0  0  0  0  0  0  0  0  0  0  0
   55.7847   28.0818   44.8691 H   0  0  0  0  0  0  0  0  0  0  0  0
   56.9016   29.0143   45.9284 H   0  0  0  0  0  0  0  0  0  0  0  0
   55.3030   30.5160   45.2380 H   0  0  0  0  0  0  0  0  0  0  0  0
   57.6890   30.6792   43.4983 H   0  0  0  0  0  0  0  0  0  0  0  0
   56.3880   31.9465   43.5235 H   0  0  0  0  0  0  0  0  0  0  0  0
   56.4112   33.6482   45.1072 H   0  0  0  0  0  0  0  0  0  0  0  0
   57.4130   34.6970   47.1318 H   0  0  0  0  0  0  0  0  0  0  0  0
   59.9105   35.3483   48.0589 H   0  0  0  0  0  0  0  0  0  0  0  0
   60.2369   35.0036   49.8017 H   0  0  0  0  0  0  0  0  0  0  0  0
   61.1760   34.0186   46.2998 H   0  0  0  0  0  0  0  0  0  0  0  0
   63.4435   33.1606   45.7106 H   0  0  0  0  0  0  0  0  0  0  0  0
   65.1254   32.7312   47.5052 H   0  0  0  0  0  0  0  0  0  0  0  0
   64.5415   33.1652   49.8924 H   0  0  0  0  0  0  0  0  0  0  0  0
   62.2736   34.0191   50.4931 H   0  0  0  0  0  0  0  0  0  0  0  0
   58.7721   30.0840   45.7788 H   0  0  0  0  0  0  0  0  0  0  0  0
  1  2  1  0
  2  3  1  0
  3  4  1  0
  4  5  1  0
  5  6  2  0
  6  7  1  0
  7  8  2  0
  8  9  1  0
  9 10  1  0
 10 11  1  0
 11 12  2  0
 12 13  1  0
 13 14  2  0
 14 15  1  0
 15 16  2  0
  8 17  1  0
 17 18  1  0
 17 19  2  0
 19  5  1  0
 16 11  1  0
  1 20  1  0
  1 21  1  0
  1 22  1  0
  2 23  1  0
  2 24  1  0
  3 25  1  0
  4 26  1  0
  4 27  1  0
  6 28  1  0
  7 29  1  0
 10 30  1  0
 10 31  1  0
 12 32  1  0
 13 33  1  0
 14 34  1  0
 15 35  1  0
 16 36  1  0
 19 37  1  0
M  END
>  <UniqueID>  (21) 
21

>  <SMILES>  (21) 
CCNCc1ccc(OCc2ccccc2)c(Cl)c1

>  <Energy>  (21) 
33.48368030492012

>  <Genealogy>  (21) 
CCNCc1ccc(OCc2ccccc2)c(Cl)c1 (3D coordinates assigned)
CCNCc1ccc(OCc2ccccc2)c(Cl)c1 (optimized conformer: 33.48368030492012 kcal/mol)

>  <smiles>  (21) 
CCNCc1ccc(OCc2ccccc2)c(Cl)c1

>  <score_type>  (21) 
oracle

>  <origin>  (21) 
adg

>  <m_score__min__energy>  (21) 
-6.8099999999999996

>  <m_primary>  (21) 
energy

$$$$
21:0
     RDKit          3D

 76 78  0  0  0  0  0  0  0  0999 V2000
   57.0975   34.1288   44.2314 H   0  0  0  0  0  0  0  0  0  0  0  0
   57.6850   33.9130   45.1360 C   0  0  0  0  0  0  0  0  0  0  0  0
   57.0470   33.5140   46.3040 C   0  0  0  0  0  0  0  0  0  0  0  0
   55.9520   33.4106   46.3202 H   0  0  0  0  0  0  0  0  0  0  0  0
   57.7870   33.2430   47.4590 C   0  0  0  0  0  0  0  0  0  0  0  0
   57.2605   32.9283   48.3721 H   0  0  0  0  0  0  0  0  0  0  0  0
   59.2000   33.3640   47.4820 C   0  0  0  0  0  0  0  0  0  0  0  0
   60.0480   33.1120   48.6220 C   0  0  0  0  0  0  0  0  0  0  0  0
   59.6400   32.7810   49.8260 N   0  0  0  0  0  0  0  0  0  0  0  0
   58.9040   33.4370   50.9020 C   0  0  0  0  0  0  0  0  0  0  0  0
   59.4801   34.3037   51.2583 H   0  0  0  0  0  0  0  0  0  0  0  0
   57.9267   33.7630   50.5165 H   0  0  0  0  0  0  0  0  0  0  0  0
   58.6770   32.4640   52.0730 C   0  0  0  0  0  0  0  0  0  0  0  0
   59.3367   32.7541   52.9040 H   0  0  0  0  0  0  0  0  0  0  0  0
   57.6154   32.5260   52.3543 H   0  0  0  0  0  0  0  0  0  0  0  0
   58.9600   31.0630   51.7140 N   0  0  0  0  0  0  0  0  0  0  0  0
   59.8960   31.0150   51.2530 H   0  0  0  0  0  0  0  0  0  0  0  0
   58.2610   30.7500   51.0020 H   0  0  0  0  0  0  0  0  0  0  0  0
   58.9220   30.1110   52.8440 C   0  0  0  0  0  0  0  0  0  0  0  0
   59.5627   30.5038   53.6473 H   0  0  0  0  0  0  0  0  0  0  0  0
   57.8678   30.0201   53.1445 H   0  0  0  0  0  0  0  0  0  0  0  0
   59.4050   28.6910   52.4920 C   0  0  0  0  0  0  0  0  0  0  0  0
   59.4264   28.0872   53.4112 H   0  0  0  0  0  0  0  0  0  0  0  0
   58.7070   28.2733   51.7515 H   0  0  0  0  0  0  0  0  0  0  0  0
   60.7720   28.6880   51.8830 C   0  0  0  0  0  0  0  0  0  0  0  0
   61.4440   27.6210   51.8530 O   0  0  0  0  0  0  0  0  0  0  0  0
   61.2800   29.8710   51.3370 O   0  0  0  0  0  0  0  0  0  0  0  0
   61.8700   29.9570   50.0420 C   0  0  0  0  0  0  0  0  0  0  0  0
   62.3845   30.9247   49.9479 H   0  0  0  0  0  0  0  0  0  0  0  0
   62.5781   29.1226   49.9308 H   0  0  0  0  0  0  0  0  0  0  0  0
   60.8150   29.8430   48.9300 C   0  0  0  0  0  0  0  0  0  0  0  0
   60.9643   30.6686   48.2186 H   0  0  0  0  0  0  0  0  0  0  0  0
   60.9450   28.8613   48.4510 H   0  0  0  0  0  0  0  0  0  0  0  0
   59.4880   29.9040   49.4210 O   0  0  0  0  0  0  0  0  0  0  0  0
   58.5590   30.0820   48.3700 C   0  0  0  0  0  0  0  0  0  0  0  0
   57.7460   29.3477   48.4692 H   0  0  0  0  0  0  0  0  0  0  0  0
   58.1389   31.0976   48.4161 H   0  0  0  0  0  0  0  0  0  0  0  0
   59.2710   29.8800   47.0290 C   0  0  0  0  0  0  0  0  0  0  0  0
   59.8032   30.8050   46.7622 H   0  0  0  0  0  0  0  0  0  0  0  0
   59.9770   29.0428   47.1316 H   0  0  0  0  0  0  0  0  0  0  0  0
   58.3050   29.5510   45.9550 N   0  0  0  0  0  0  0  0  0  0  0  0
   58.3830   28.1130   45.6090 C   0  0  0  0  0  0  0  0  0  0  0  0
   59.0738   27.6126   46.3035 H   0  0  0  0  0  0  0  0  0  0  0  0
   57.3759   27.6777   45.6880 H   0  0  0  0  0  0  0  0  0  0  0  0
   58.8860   27.9220   44.1790 C   0  0  0  0  0  0  0  0  0  0  0  0
   59.9142   27.5316   44.2010 H   0  0  0  0  0  0  0  0  0  0  0  0
   58.2342   27.2088   43.6532 H   0  0  0  0  0  0  0  0  0  0  0  0
   58.8718   28.8881   43.6532 H   0  0  0  0  0  0  0  0  0  0  0  0
   58.4910   30.4150   44.7600 C   0  0  0  0  0  0  0  0  0  0  0  0
   58.9763   31.3557   45.0593 H   0  0  0  0  0  0  0  0  0  0  0  0
   59.1231   29.8946   44.0254 H   0  0  0  0  0  0  0  0  0  0  0  0
   57.1330   30.7190   44.1380 C   0  0  0  0  0  0  0  0  0  0  0  0
   56.3934   30.8846   44.9352 H   0  0  0  0  0  0  0  0  0  0  0  0
   57.2090   31.6224   43.5150 H   0  0  0  0  0  0  0  0  0  0  0  0
   56.8166   29.8695   43.5150 H   0  0  0  0  0  0  0  0  0  0  0  0
   61.4570   33.2400   48.4610 C   0  0  0  0  0  0  0  0  0  0  0  0
   62.3590   32.9940   49.5260 C   0  0  0  0  0  0  0  0  0  0  0  0
   61.9666   32.7033   50.5116 H   0  0  0  0  0  0  0  0  0  0  0  0
   63.7510   33.1160   49.3420 C   0  0  0  0  0  0  0  0  0  0  0  0
   64.6800   32.8810   50.3690 O   0  0  0  0  0  0  0  0  0  0  0  0
   65.9350   32.2150   50.2230 C   0  0  0  0  0  0  0  0  0  0  0  0
   66.0006   31.7874   49.2116 H   0  0  0  0  0  0  0  0  0  0  0  0
   66.0020   31.4202   50.9805 H   0  0  0  0  0  0  0  0  0  0  0  0
   67.0930   33.1870   50.4310 C   0  0  0  0  0  0  0  0  0  0  0  0
   67.2630   33.3297   51.5084 H   0  0  0  0  0  0  0  0  0  0  0  0
   68.0028   32.7780   49.9673 H   0  0  0  0  0  0  0  0  0  0  0  0
   66.8479   34.1539   49.9673 H   0  0  0  0  0  0  0  0  0  0  0  0
   64.2420   33.4940   48.0910 C   0  0  0  0  0  0  0  0  0  0  0  0
   65.3268   33.5945   47.9389 H   0  0  0  0  0  0  0  0  0  0  0  0
   63.3710   33.7450   47.0340 C   0  0  0  0  0  0  0  0  0  0  0  0
   63.7715   34.0415   46.0534 H   0  0  0  0  0  0  0  0  0  0  0  0
   61.9900   33.6220   47.2130 C   0  0  0  0  0  0  0  0  0  0  0  0
   61.1680   33.8760   46.1730 N   0  0  0  0  0  0  0  0  0  0  0  0
   59.8230   33.7650   46.2620 C   0  0  0  0  0  0  0  0  0  0  0  0
   59.0670   34.0380   45.1160 C   0  0  0  0  0  0  0  0  0  0  0  0
   59.5726   34.3543   44.1917 H   0  0  0  0  0  0  0  0  0  0  0  0
  1  2  1  0
  2  3  2  0
  3  4  1  0
  3  5  1  0
  5  6  1  0
  5  7  2  0
  7  8  1  0
  8  9  2  0
  9 10  1  0
 10 11  1  0
 10 12  1  0
 10 13  1  0
 13 14  1  0
 13 15  1  0
 13 16  1  0
 16 17  1  0
 16 18  1  0
 16 19  1  0
 19 20  1  0
 19 21  1  0
 19 22  1  0
 22 23  1  0
 22 24  1  0
 22 25  1  0
 25 26  2  0
 25 27  1  0
 27 28  1  0
 28 29  1  0
 28 30  1  0
 28 31  1  0
 31 32  1  0
 31 33  1  0
 31 34  1  0
 34 35  1  0
 35 36  1  0
 35 37  1  0
 35 38  1  0
 38 39  1  0
 38 40  1  0
 38 41  1  0
 41 42  1  0
 42 43  1  0
 42 44  1  0
 42 45  1  0
 45 46  1  0
 45 47  1  0
 45 48  1  0
 41 49  1  0
 49 50  1  0
 49 51  1  0
 49 52  1  0
 52 53  1  0
 52 54  1  0
 52 55  1  0
  8 56  1  0
 56 57  2  0
 57 58  1  0
 57 59  1  0
 59 60  1  0
 60 61  1  0
 61 62  1  0
 61 63  1  0
 61 64  1  0
 64 65  1  0
 64 66  1  0
 64 67  1  0
 59 68  2  0
 68 69  1  0
 68 70  1  0
 70 71  1  0
 70 72  2  0
 72 73  1  0
 73 74  1  0
 74 75  2  0
 75 76  1  0
 75  2  1  0
 74  7  1  0
 72 56  1  0
M  CHG  2  16   1  73  -1
M  END
>  <UniqueID>  (22) 
22

>  <SMILES>  (22) 
CCOc1ccc2[n-]c3ccccc3/c(=N\CC[NH2+]CCC(=O)OCCOCCN(CC)CC)c2c1

>  <Energy>  (22) 
90.31805337765168

>  <Genealogy>  (22) 
CCOc1ccc2[n-]c3ccccc3c(=NCC[NH2+]CCC(=O)OCCOCCN(CC)CC)c2c1 (protonated)
CCOc1ccc2[n-]c3ccccc3/c(=N\CC[NH2+]CCC(=O)OCCOCCN(CC)CC)c2c1 (cis-trans isomerization)
CCOc1ccc2[n-]c3ccccc3/c(=N\CC[NH2+]CCC(=O)OCCOCCN(CC)CC)c2c1 (3D coordinates assigned)
CCOc1ccc2[n-]c3ccccc3/c(=N\CC[NH2+]CCC(=O)OCCOCCN(CC)CC)c2c1 (optimized conformer: 90.31805337765168 kcal/mol)

>  <smiles>  (22) 
CCOc1ccc2[nH]c3ccccc3c(=NCCNCCC(=O)OCCOCCN(CC)CC)c2c1

>  <score_type>  (22) 
oracle

>  <origin>  (22) 
adg

>  <m_score__min__energy>  (22) 
-6.5

>  <m_primary>  (22) 
energy

$$$$
22:0
     RDKit          3D

 55 58  0  0  0  0  0  0  0  0999 V2000
   66.8450   32.7510   50.2260 C   0  0  0  0  0  0  0  0  0  0  0  0
   65.3840   33.1840   50.2570 C   0  0  0  0  0  0  0  0  0  0  0  0
   64.6130   32.4050   49.2780 N   0  0  0  0  0  0  0  0  0  0  0  0
   63.9710   33.2720   48.2780 C   0  0  0  0  0  0  0  0  0  0  0  0
   62.7490   32.5960   47.6470 C   0  0  0  0  0  0  0  0  0  0  0  0
   62.5720   31.2390   48.1930 N   0  0  0  0  0  0  0  0  0  0  0  0
   61.4650   31.1890   49.1570 C   0  0  0  0  0  0  0  0  0  0  0  0
   60.2170   30.6140   48.4890 C   0  0  0  0  0  0  0  0  0  0  0  0
   60.4660   30.3480   47.0710 N   0  0  0  0  0  0  0  0  0  0  0  0
   59.4160   30.4530   46.1000 C   0  0  0  0  0  0  0  0  0  0  0  0
   58.9200   31.7080   45.6840 C   0  0  0  0  0  0  0  0  0  0  0  0
   59.3720   32.8950   46.2930 C   0  0  0  0  0  0  0  0  0  0  0  0
   58.8750   34.1330   45.8900 C   0  0  0  0  0  0  0  0  0  0  0  0
   57.9160   34.2100   44.8850 C   0  0  0  0  0  0  0  0  0  0  0  0
   57.4540   33.0510   44.2610 C   0  0  0  0  0  0  0  0  0  0  0  0
   57.9530   31.7770   44.6240 C   0  0  0  0  0  0  0  0  0  0  0  0
   57.5320   30.6210   43.9820 N   0  0  0  0  0  0  0  0  0  0  0  0
   56.6390   30.6750   42.8100 C   0  0  0  0  0  0  0  0  0  0  0  0
   57.9630   29.4140   44.4700 C   0  0  0  0  0  0  0  0  0  0  0  0
   57.5570   28.1860   44.0610 N   0  0  0  0  0  0  0  0  0  0  0  0
   58.2220   27.3160   44.8460 C   0  0  0  0  0  0  0  0  0  0  0  0
   58.1080   25.9260   44.8330 C   0  0  0  0  0  0  0  0  0  0  0  0
   58.8500   25.1950   45.7760 C   0  0  0  0  0  0  0  0  0  0  0  0
   59.6700   25.8590   46.7130 C   0  0  0  0  0  0  0  0  0  0  0  0
   59.7640   27.2620   46.7120 C   0  0  0  0  0  0  0  0  0  0  0  0
   59.0380   27.9660   45.7470 C   0  0  0  0  0  0  0  0  0  0  0  0
   58.8780   29.3190   45.5000 C   0  0  0  0  0  0  0  0  0  0  0  0
   67.2167   32.6408   51.2554 H   0  0  0  0  0  0  0  0  0  0  0  0
   66.9312   31.7887   49.7001 H   0  0  0  0  0  0  0  0  0  0  0  0
   67.4416   33.5109   49.7001 H   0  0  0  0  0  0  0  0  0  0  0  0
   64.9740   33.0139   51.2634 H   0  0  0  0  0  0  0  0  0  0  0  0
   65.3165   34.2526   50.0050 H   0  0  0  0  0  0  0  0  0  0  0  0
   63.8540   31.9060   49.8000 H   0  0  0  0  0  0  0  0  0  0  0  0
   63.6508   34.2041   48.7665 H   0  0  0  0  0  0  0  0  0  0  0  0
   64.7008   33.4770   47.4809 H   0  0  0  0  0  0  0  0  0  0  0  0
   61.8517   33.1939   47.8646 H   0  0  0  0  0  0  0  0  0  0  0  0
   62.9026   32.5254   46.5601 H   0  0  0  0  0  0  0  0  0  0  0  0
   63.4470   30.9700   48.7010 H   0  0  0  0  0  0  0  0  0  0  0  0
   61.7502   30.5512   50.0067 H   0  0  0  0  0  0  0  0  0  0  0  0
   61.2484   32.2075   49.5117 H   0  0  0  0  0  0  0  0  0  0  0  0
   59.9397   29.6745   48.9895 H   0  0  0  0  0  0  0  0  0  0  0  0
   59.4007   31.3465   48.5738 H   0  0  0  0  0  0  0  0  0  0  0  0
   61.3930   29.9670   46.7790 H   0  0  0  0  0  0  0  0  0  0  0  0
   60.1242   32.8443   47.0940 H   0  0  0  0  0  0  0  0  0  0  0  0
   59.2424   35.0529   46.3684 H   0  0  0  0  0  0  0  0  0  0  0  0
   57.5199   35.1901   44.5808 H   0  0  0  0  0  0  0  0  0  0  0  0
   56.6894   33.1284   43.4740 H   0  0  0  0  0  0  0  0  0  0  0  0
   55.5941   30.7382   43.1478 H   0  0  0  0  0  0  0  0  0  0  0  0
   56.8826   31.5601   42.2039 H   0  0  0  0  0  0  0  0  0  0  0  0
   56.7741   29.7670   42.2039 H   0  0  0  0  0  0  0  0  0  0  0  0
   56.8460   27.9330   43.3400 H   0  0  0  0  0  0  0  0  0  0  0  0
   57.4570   25.4175   44.1066 H   0  0  0  0  0  0  0  0  0  0  0  0
   58.7912   24.0966   45.7839 H   0  0  0  0  0  0  0  0  0  0  0  0
   60.2402   25.2744   47.4500 H   0  0  0  0  0  0  0  0  0  0  0  0
   60.3893   27.7891   47.4476 H   0  0  0  0  0  0  0  0  0  0  0  0
  1  2  1  0
  2  3  1  0
  3  4  1  0
  4  5  1  0
  5  6  1  0
  6  7  1  0
  7  8  1  0
  8  9  1  0
  9 10  1  0
 10 11  2  0
 11 12  1  0
 12 13  2  0
 13 14  1  0
 14 15  2  0
 15 16  1  0
 16 17  2  0
 17 18  1  0
 17 19  1  0
 19 20  1  0
 20 21  1  0
 21 22  2  0
 22 23  1  0
 23 24  2  0
 24 25  1  0
 25 26  2  0
 26 27  1  0
 27 10  1  0
 16 11  1  0
 27 19  2  0
 26 21  1  0
  1 28  1  0
  1 29  1  0
  1 30  1  0
  2 31  1  0
  2 32  1  0
  3 33  1  0
  4 34  1  0
  4 35  1  0
  5 36  1  0
  5 37  1  0
  6 38  1  0
  7 39  1  0
  7 40  1  0
  8 41  1  0
  8 42  1  0
  9 43  1  0
 12 44  1  0
 13 45  1  0
 14 46  1  0
 15 47  1  0
 18 48  1  0
 18 49  1  0
 18 50  1  0
 20 51  1  0
 22 52  1  0
 23 53  1  0
 24 54  1  0
 25 55  1  0
M  CHG  1  17   1
M  END
>  <UniqueID>  (23) 
23

>  <SMILES>  (23) 
CCNCCNCCNc1c2ccccc2[n+](C)c2[nH]c3ccccc3c12

>  <Energy>  (23) 
104.89642777644569

>  <Genealogy>  (23) 
CCNCCNCCNc1c2ccccc2[n+](C)c2[nH]c3ccccc3c12 (3D coordinates assigned)
CCNCCNCCNc1c2ccccc2[n+](C)c2[nH]c3ccccc3c12 (optimized conformer: 104.89642777644569 kcal/mol)

>  <smiles>  (23) 
CCNCCNCCNc1c2ccccc2[n+](C)c2[nH]c3ccccc3c12

>  <score_type>  (23) 
oracle

>  <origin>  (23) 
adg

>  <m_score__min__energy>  (23) 
-6.2000000000000002

>  <m_primary>  (23) 
energy

$$$$
