0:0
     RDKit          3D

 72 75  0  0  0  0  0  0  0  0999 V2000
   60.4480   31.7640   53.3640 C   0  0  0  0  0  0  0  0  0  0  0  0
   59.7170   32.4020   52.2580 N   0  0  0  0  0  0  0  0  0  0  0  0
   59.5320   33.8410   52.5040 C   0  0  0  0  0  0  0  0  0  0  0  0
   58.4510   31.7120   51.9210 C   0  0  0  0  0  0  0  0  0  0  0  0
   57.9420   31.9700   50.4840 C   0  0  0  0  0  0  0  0  0  0  0  0
   58.9340   32.7380   49.7080 N   0  0  0  0  0  0  0  0  0  0  0  0
   59.1840   32.1160   48.4130 C   0  0  0  0  0  0  0  0  0  0  0  0
   58.9950   32.8490   47.2190 C   0  0  0  0  0  0  0  0  0  0  0  0
   59.0980   34.2570   47.1930 C   0  0  0  0  0  0  0  0  0  0  0  0
   58.9220   34.9630   46.0040 C   0  0  0  0  0  0  0  0  0  0  0  0
   58.6540   34.2840   44.8220 C   0  0  0  0  0  0  0  0  0  0  0  0
   58.5420   32.8950   44.8240 C   0  0  0  0  0  0  0  0  0  0  0  0
   58.6860   32.1520   46.0230 C   0  0  0  0  0  0  0  0  0  0  0  0
   58.5190   30.7840   46.0510 N   0  0  0  0  0  0  0  0  0  0  0  0
   57.8180   30.1010   44.9420 C   0  0  0  0  0  0  0  0  0  0  0  0
   59.0200   30.0580   47.1140 C   0  0  0  0  0  0  0  0  0  0  0  0
   59.1450   28.6490   47.0460 C   0  0  0  0  0  0  0  0  0  0  0  0
   59.6750   27.9230   48.1050 C   0  0  0  0  0  0  0  0  0  0  0  0
   60.1760   28.5770   49.2210 C   0  0  0  0  0  0  0  0  0  0  0  0
   60.1250   29.9770   49.3140 C   0  0  0  0  0  0  0  0  0  0  0  0
   60.9280   30.6390   50.3150 N   0  0  0  0  0  0  0  0  0  0  0  0
   61.9250   29.9660   51.1530 C   0  0  0  0  0  0  0  0  0  0  0  0
   63.2470   30.7480   51.1670 C   0  0  0  0  0  0  0  0  0  0  0  0
   63.6920   31.3040   49.7850 C   0  0  0  0  0  0  0  0  0  0  0  0
   64.1560   32.7400   49.7170 N   0  0  0  0  0  0  0  0  0  0  0  0
   65.6330   32.8370   49.8500 C   0  0  0  0  0  0  0  0  0  0  0  0
   63.8060   33.3000   48.3760 C   0  0  0  0  0  0  0  0  0  0  0  0
   62.2740   33.3800   48.1550 C   0  0  0  0  0  0  0  0  0  0  0  0
   61.5310   33.3980   49.3620 O   0  0  0  0  0  0  0  0  0  0  0  0
   62.1710   34.2160   50.3140 C   0  0  0  0  0  0  0  0  0  0  0  0
   63.5020   33.5790   50.7750 C   0  0  0  0  0  0  0  0  0  0  0  0
   59.4460   30.7230   48.3000 C   0  0  0  0  0  0  0  0  0  0  0  0
   60.0428   32.1176   54.3236 H   0  0  0  0  0  0  0  0  0  0  0  0
   60.3333   30.6720   53.2977 H   0  0  0  0  0  0  0  0  0  0  0  0
   61.5144   32.0253   53.2977 H   0  0  0  0  0  0  0  0  0  0  0  0
   59.5080   34.0276   53.5878 H   0  0  0  0  0  0  0  0  0  0  0  0
   60.3657   34.4001   52.0540 H   0  0  0  0  0  0  0  0  0  0  0  0
   58.5840   34.1710   52.0540 H   0  0  0  0  0  0  0  0  0  0  0  0
   58.6073   30.6298   52.0408 H   0  0  0  0  0  0  0  0  0  0  0  0
   57.6854   32.1143   52.6006 H   0  0  0  0  0  0  0  0  0  0  0  0
   57.7626   31.0056   49.9862 H   0  0  0  0  0  0  0  0  0  0  0  0
   57.0098   32.5513   50.5387 H   0  0  0  0  0  0  0  0  0  0  0  0
   58.6240   33.7290   49.5850 H   0  0  0  0  0  0  0  0  0  0  0  0
   59.7900   32.7470   50.2950 H   0  0  0  0  0  0  0  0  0  0  0  0
   59.3197   34.8031   48.1218 H   0  0  0  0  0  0  0  0  0  0  0  0
   58.9955   36.0605   46.0016 H   0  0  0  0  0  0  0  0  0  0  0  0
   58.5300   34.8436   43.8831 H   0  0  0  0  0  0  0  0  0  0  0  0
   58.3387   32.3668   43.8808 H   0  0  0  0  0  0  0  0  0  0  0  0
   57.0873   29.3891   45.3533 H   0  0  0  0  0  0  0  0  0  0  0  0
   57.2959   30.8463   44.3240 H   0  0  0  0  0  0  0  0  0  0  0  0
   58.5495   29.5597   44.3240 H   0  0  0  0  0  0  0  0  0  0  0  0
   58.8167   28.1204   46.1389 H   0  0  0  0  0  0  0  0  0  0  0  0
   59.6975   26.8242   48.0584 H   0  0  0  0  0  0  0  0  0  0  0  0
   60.6178   27.9927   50.0416 H   0  0  0  0  0  0  0  0  0  0  0  0
   60.7880   31.6630   50.4680 H   0  0  0  0  0  0  0  0  0  0  0  0
   61.5401   29.8909   52.1807 H   0  0  0  0  0  0  0  0  0  0  0  0
   62.1135   28.9644   50.7392 H   0  0  0  0  0  0  0  0  0  0  0  0
   63.1346   31.5972   51.8571 H   0  0  0  0  0  0  0  0  0  0  0  0
   64.0246   30.0348   51.4781 H   0  0  0  0  0  0  0  0  0  0  0  0
   64.5215   30.6746   49.4303 H   0  0  0  0  0  0  0  0  0  0  0  0
   62.7796   31.2796   49.1711 H   0  0  0  0  0  0  0  0  0  0  0  0
   65.9048   32.8549   50.9157 H   0  0  0  0  0  0  0  0  0  0  0  0
   66.1026   31.9678   49.3663 H   0  0  0  0  0  0  0  0  0  0  0  0
   65.9849   33.7602   49.3663 H   0  0  0  0  0  0  0  0  0  0  0  0
   64.2288   34.3121   48.2937 H   0  0  0  0  0  0  0  0  0  0  0  0
   64.2223   32.6280   47.6110 H   0  0  0  0  0  0  0  0  0  0  0  0
   62.0502   34.2994   47.5941 H   0  0  0  0  0  0  0  0  0  0  0  0
   61.9777   32.4747   47.6049 H   0  0  0  0  0  0  0  0  0  0  0  0
   62.3774   35.1988   49.8652 H   0  0  0  0  0  0  0  0  0  0  0  0
   61.5106   34.3262   51.1868 H   0  0  0  0  0  0  0  0  0  0  0  0
   64.1947   34.3848   51.0594 H   0  0  0  0  0  0  0  0  0  0  0  0
   63.2697   32.9146   51.6204 H   0  0  0  0  0  0  0  0  0  0  0  0
  1  2  1  0
  2  3  1  0
  2  4  1  0
  4  5  1  0
  5  6  1  0
  6  7  1  0
  7  8  2  0
  8  9  1  0
  9 10  2  0
 10 11  1  0
 11 12  2  0
 12 13  1  0
 13 14  2  0
 14 15  1  0
 14 16  1  0
 16 17  2  0
 17 18  1  0
 18 19  2  0
 19 20  1  0
 20 21  1  0
 21 22  1  0
 22 23  1  0
 23 24  1  0
 24 25  1  0
 25 26  1  0
 25 27  1  0
 27 28  1  0
 28 29  1  0
 29 30  1  0
 30 31  1  0
 20 32  2  0
 32  7  1  0
 13  8  1  0
 32 16  1  0
 31 25  1  0
  1 33  1  0
  1 34  1  0
  1 35  1  0
  3 36  1  0
  3 37  1  0
  3 38  1  0
  4 39  1  0
  4 40  1  0
  5 41  1  0
  5 42  1  0
  6 43  1  0
  6 44  1  0
  9 45  1  0
 10 46  1  0
 11 47  1  0
 12 48  1  0
 15 49  1  0
 15 50  1  0
 15 51  1  0
 17 52  1  0
 18 53  1  0
 19 54  1  0
 21 55  1  0
 22 56  1  0
 22 57  1  0
 23 58  1  0
 23 59  1  0
 24 60  1  0
 24 61  1  0
 26 62  1  0
 26 63  1  0
 26 64  1  0
 27 65  1  0
 27 66  1  0
 28 67  1  0
 28 68  1  0
 30 69  1  0
 30 70  1  0
 31 71  1  0
 31 72  1  0
M  CHG  3   6   1  14   1  25   1
M  END
>  <UniqueID>  (1) 
1

>  <SMILES>  (1) 
CN(C)CC[NH2+]c1c2ccccc2[n+](C)c2cccc(NCCC[N+]3(C)CCOCC3)c12

>  <Energy>  (1) 
137.9852399734563

>  <Genealogy>  (1) 
CN(C)CC[NH2+]c1c2ccccc2[n+](C)c2cccc(NCCC[N+]3(C)CCOCC3)c12 (protonated)
CN(C)CC[NH2+]c1c2ccccc2[n+](C)c2cccc(NCCC[N+]3(C)CCOCC3)c12 (3D coordinates assigned)
CN(C)CC[NH2+]c1c2ccccc2[n+](C)c2cccc(NCCC[N+]3(C)CCOCC3)c12 (nonaromatic ring conformer: 137.9852399734563 kcal/mol)

>  <smiles>  (1) 
CN(C)CCNc1c2ccccc2[n+](C)c2cccc(NCCC[N+]3(C)CCOCC3)c12

>  <score_type>  (1) 
oracle

>  <origin>  (1) 
adg

>  <m_score__min__energy>  (1) 
-3.7599999999999998

>  <m_primary>  (1) 
energy

$$$$
1:0
     RDKit          3D

 24 25  0  0  0  0  0  0  0  0999 V2000
   59.7450   34.4830   48.8110 C   0  0  0  0  0  0  0  0  0  0  0  0
   59.4800   34.3680   47.3840 N   0  0  0  0  0  0  0  0  0  0  0  0
   59.6790   35.3310   46.4660 C   0  0  0  0  0  0  0  0  0  0  0  0
   59.2400   34.8650   45.2450 C   0  0  0  0  0  0  0  0  0  0  0  0
   58.7650   33.5860   45.5060 C   0  0  0  0  0  0  0  0  0  0  0  0
   58.1660   32.6380   44.5330 C   0  0  0  0  0  0  0  0  0  0  0  0
   58.1990   32.8950   43.1520 C   0  0  0  0  0  0  0  0  0  0  0  0
   57.6310   31.9920   42.2510 C   0  0  0  0  0  0  0  0  0  0  0  0
   57.0240   30.8240   42.7120 C   0  0  0  0  0  0  0  0  0  0  0  0
   56.9780   30.5420   44.0880 C   0  0  0  0  0  0  0  0  0  0  0  0
   56.3520   29.3360   44.5620 N   0  0  0  0  0  0  0  0  0  0  0  0
   55.1400   29.3220   44.8630 O   0  0  0  0  0  0  0  0  0  0  0  0
   57.0790   28.1750   44.6920 O   0  0  0  0  0  0  0  0  0  0  0  0
   57.5530   31.4570   44.9910 C   0  0  0  0  0  0  0  0  0  0  0  0
   58.9160   33.3130   46.8200 N   0  0  0  0  0  0  0  0  0  0  0  0
   58.8793   34.1073   49.3761 H   0  0  0  0  0  0  0  0  0  0  0  0
   60.6355   33.8904   49.0675 H   0  0  0  0  0  0  0  0  0  0  0  0
   59.9204   35.5382   49.0675 H   0  0  0  0  0  0  0  0  0  0  0  0
   60.1174   36.3216   46.6570 H   0  0  0  0  0  0  0  0  0  0  0  0
   59.2612   35.3897   44.2784 H   0  0  0  0  0  0  0  0  0  0  0  0
   58.6753   33.8134   42.7783 H   0  0  0  0  0  0  0  0  0  0  0  0
   57.6625   32.2030   41.1719 H   0  0  0  0  0  0  0  0  0  0  0  0
   56.5786   30.1193   41.9943 H   0  0  0  0  0  0  0  0  0  0  0  0
   57.5225   31.2455   46.0700 H   0  0  0  0  0  0  0  0  0  0  0  0
  1  2  1  0
  2  3  1  0
  3  4  2  0
  4  5  1  0
  5  6  1  0
  6  7  2  0
  7  8  1  0
  8  9  2  0
  9 10  1  0
 10 11  1  0
 11 12  2  0
 11 13  1  0
 10 14  2  0
  5 15  2  0
 15  2  1  0
 14  6  1  0
  1 16  1  0
  1 17  1  0
  1 18  1  0
  3 19  1  0
  4 20  1  0
  7 21  1  0
  8 22  1  0
  9 23  1  0
 14 24  1  0
M  CHG  2  11   1  13  -1
M  END
>  <UniqueID>  (2) 
2

>  <SMILES>  (2) 
Cn1ccc(-c2cccc([N+](=O)[O-])c2)n1

>  <Energy>  (2) 
55.54620897681037

>  <Genealogy>  (2) 
Cn1ccc(-c2cccc([N+](=O)[O-])c2)n1 (3D coordinates assigned)
Cn1ccc(-c2cccc([N+](=O)[O-])c2)n1 (optimized conformer: 55.54620897681037 kcal/mol)

>  <smiles>  (2) 
Cn1ccc(-c2cccc([N+](=O)[O-])c2)n1

>  <score_type>  (2) 
oracle

>  <origin>  (2) 
adg

>  <m_score__min__energy>  (2) 
-6.5800000000000001

>  <m_primary>  (2) 
energy

$$$$
2:0
     RDKit          3D

 42 45  0  0  0  0  0  0  0  0999 V2000
   57.4380   26.7880   45.2590 C   0  0  0  0  0  0  0  0  0  0  0  0
   57.9110   28.2080   45.1720 C   0  0  0  0  0  0  0  0  0  0  0  0
   58.7280   28.8800   46.0640 C   0  0  0  0  0  0  0  0  0  0  0  0
   59.3670   28.4220   47.2170 C   0  0  0  0  0  0  0  0  0  0  0  0
   60.1790   29.3220   47.9240 C   0  0  0  0  0  0  0  0  0  0  0  0
   60.3480   30.6410   47.4630 C   0  0  0  0  0  0  0  0  0  0  0  0
   59.6890   31.0850   46.3030 C   0  0  0  0  0  0  0  0  0  0  0  0
   58.8520   30.1860   45.6250 C   0  0  0  0  0  0  0  0  0  0  0  0
   58.1020   30.3680   44.5060 N   0  0  0  0  0  0  0  0  0  0  0  0
   57.8200   31.4590   43.7280 C   0  0  0  0  0  0  0  0  0  0  0  0
   58.3620   33.1280   44.1160 S   0  0  0  0  0  0  0  0  0  0  0  0
   57.0650   33.4380   45.3730 C   0  0  0  0  0  0  0  0  0  0  0  0
   57.6410   33.5240   46.7840 C   0  0  0  0  0  0  0  0  0  0  0  0
   58.6800   34.4990   46.8260 O   0  0  0  0  0  0  0  0  0  0  0  0
   59.9930   34.2430   47.2490 C   0  0  0  0  0  0  0  0  0  0  0  0
   60.2540   34.2160   48.6250 C   0  0  0  0  0  0  0  0  0  0  0  0
   61.5530   34.0020   49.0960 C   0  0  0  0  0  0  0  0  0  0  0  0
   62.6020   33.8100   48.1930 C   0  0  0  0  0  0  0  0  0  0  0  0
   62.3510   33.8240   46.8180 C   0  0  0  0  0  0  0  0  0  0  0  0
   61.0530   34.0360   46.3430 C   0  0  0  0  0  0  0  0  0  0  0  0
   57.0230   31.2850   42.6380 N   0  0  0  0  0  0  0  0  0  0  0  0
   56.4960   30.0930   42.3390 N   0  0  0  0  0  0  0  0  0  0  0  0
   56.7180   29.0060   43.1250 C   0  0  0  0  0  0  0  0  0  0  0  0
   57.5450   29.1650   44.2330 C   0  0  0  0  0  0  0  0  0  0  0  0
   57.3413   26.4978   46.3156 H   0  0  0  0  0  0  0  0  0  0  0  0
   56.4607   26.6960   44.7626 H   0  0  0  0  0  0  0  0  0  0  0  0
   58.1649   26.1283   44.7626 H   0  0  0  0  0  0  0  0  0  0  0  0
   59.2379   27.3854   47.5617 H   0  0  0  0  0  0  0  0  0  0  0  0
   60.6862   28.9948   48.8436 H   0  0  0  0  0  0  0  0  0  0  0  0
   61.0021   31.3314   48.0157 H   0  0  0  0  0  0  0  0  0  0  0  0
   59.8264   32.1128   45.9358 H   0  0  0  0  0  0  0  0  0  0  0  0
   56.5620   34.3873   45.1369 H   0  0  0  0  0  0  0  0  0  0  0  0
   56.3592   32.5947   45.3463 H   0  0  0  0  0  0  0  0  0  0  0  0
   56.8441   33.8099   47.4863 H   0  0  0  0  0  0  0  0  0  0  0  0
   58.0527   32.5440   47.0671 H   0  0  0  0  0  0  0  0  0  0  0  0
   59.4313   34.3642   49.3400 H   0  0  0  0  0  0  0  0  0  0  0  0
   61.7493   33.9848   50.1782 H   0  0  0  0  0  0  0  0  0  0  0  0
   63.6248   33.6479   48.5640 H   0  0  0  0  0  0  0  0  0  0  0  0
   63.1765   33.6679   46.1079 H   0  0  0  0  0  0  0  0  0  0  0  0
   60.8587   34.0413   45.2603 H   0  0  0  0  0  0  0  0  0  0  0  0
   55.8860   30.0020   41.4960 H   0  0  0  0  0  0  0  0  0  0  0  0
   56.2593   28.0335   42.8929 H   0  0  0  0  0  0  0  0  0  0  0  0
  1  2  1  0
  2  3  1  0
  3  4  2  0
  4  5  1  0
  5  6  2  0
  6  7  1  0
  7  8  2  0
  8  9  1  0
  9 10  1  0
 10 11  1  0
 11 12  1  0
 12 13  1  0
 13 14  1  0
 14 15  1  0
 15 16  2  0
 16 17  1  0
 17 18  2  0
 18 19  1  0
 19 20  2  0
 10 21  2  0
 21 22  1  0
 22 23  2  0
 23 24  1  0
 24  2  2  0
  8  3  1  0
 24  9  1  0
 20 15  1  0
  1 25  1  0
  1 26  1  0
  1 27  1  0
  4 28  1  0
  5 29  1  0
  6 30  1  0
  7 31  1  0
 12 32  1  0
 12 33  1  0
 13 34  1  0
 13 35  1  0
 16 36  1  0
 17 37  1  0
 18 38  1  0
 19 39  1  0
 20 40  1  0
 22 41  1  0
 23 42  1  0
M  CHG  1  22   1
M  END
>  <UniqueID>  (3) 
3

>  <SMILES>  (3) 
Cc1c2ccccc2n2c(SCCOc3ccccc3)n[nH+]cc12

>  <Energy>  (3) 
81.98560378031068

>  <Genealogy>  (3) 
Cc1c2ccccc2n2c(SCCOc3ccccc3)n[nH+]cc12 (protonated)
Cc1c2ccccc2n2c(SCCOc3ccccc3)n[nH+]cc12 (3D coordinates assigned)
Cc1c2ccccc2n2c(SCCOc3ccccc3)n[nH+]cc12 (optimized conformer: 81.98560378031068 kcal/mol)

>  <smiles>  (3) 
Cc1c2ccccc2n2c(SCCOc3ccccc3)nncc12

>  <score_type>  (3) 
oracle

>  <origin>  (3) 
adg

>  <m_score__min__energy>  (3) 
-6.8300000000000001

>  <m_primary>  (3) 
energy

$$$$
3:0
     RDKit          3D

 50 52  0  0  0  0  0  0  0  0999 V2000
   56.3700   30.9090   52.0330 C   0  0  0  0  0  0  0  0  0  0  0  0
   57.5530   31.0720   51.0850 C   0  0  0  0  0  0  0  0  0  0  0  0
   58.1130   29.7570   50.7510 N   0  0  0  0  0  0  0  0  0  0  0  0
   59.2670   29.4310   51.6030 C   0  0  0  0  0  0  0  0  0  0  0  0
   60.3580   28.7170   50.7970 C   0  0  0  0  0  0  0  0  0  0  0  0
   59.8100   28.1110   49.6400 O   0  0  0  0  0  0  0  0  0  0  0  0
   60.7450   28.0850   48.5770 C   0  0  0  0  0  0  0  0  0  0  0  0
   60.3690   29.1050   47.4970 C   0  0  0  0  0  0  0  0  0  0  0  0
   59.0210   29.6330   47.7110 N   0  0  0  0  0  0  0  0  0  0  0  0
   58.5910   30.8050   47.0070 C   0  0  0  0  0  0  0  0  0  0  0  0
   58.9270   32.0670   47.5320 C   0  0  0  0  0  0  0  0  0  0  0  0
   59.5590   32.1780   48.7910 C   0  0  0  0  0  0  0  0  0  0  0  0
   59.9430   33.4200   49.2890 C   0  0  0  0  0  0  0  0  0  0  0  0
   59.7190   34.5680   48.5400 C   0  0  0  0  0  0  0  0  0  0  0  0
   59.0880   34.4840   47.3010 C   0  0  0  0  0  0  0  0  0  0  0  0
   58.6470   33.2370   46.7840 C   0  0  0  0  0  0  0  0  0  0  0  0
   57.9920   33.1440   45.5720 N   0  0  0  0  0  0  0  0  0  0  0  0
   57.4680   34.3690   44.9240 C   0  0  0  0  0  0  0  0  0  0  0  0
   57.7890   31.9100   44.9840 C   0  0  0  0  0  0  0  0  0  0  0  0
   57.3970   31.8040   43.6270 C   0  0  0  0  0  0  0  0  0  0  0  0
   57.0960   30.5740   43.0580 C   0  0  0  0  0  0  0  0  0  0  0  0
   57.1530   29.4200   43.8240 C   0  0  0  0  0  0  0  0  0  0  0  0
   57.5800   29.4670   45.1530 C   0  0  0  0  0  0  0  0  0  0  0  0
   57.4110   27.8000   46.0990 Br  0  0  0  0  0  0  0  0  0  0  0  0
   57.9880   30.7090   45.7300 C   0  0  0  0  0  0  0  0  0  0  0  0
   56.7243   30.9578   53.0732 H   0  0  0  0  0  0  0  0  0  0  0  0
   55.6435   31.7155   51.8548 H   0  0  0  0  0  0  0  0  0  0  0  0
   55.8887   29.9361   51.8548 H   0  0  0  0  0  0  0  0  0  0  0  0
   57.2157   31.5691   50.1635 H   0  0  0  0  0  0  0  0  0  0  0  0
   58.3274   31.6806   51.5749 H   0  0  0  0  0  0  0  0  0  0  0  0
   58.4530   29.8010   49.7610 H   0  0  0  0  0  0  0  0  0  0  0  0
   59.6792   30.3607   52.0222 H   0  0  0  0  0  0  0  0  0  0  0  0
   58.9309   28.7620   52.4089 H   0  0  0  0  0  0  0  0  0  0  0  0
   61.1209   29.4493   50.4942 H   0  0  0  0  0  0  0  0  0  0  0  0
   60.8081   27.9351   51.4263 H   0  0  0  0  0  0  0  0  0  0  0  0
   61.7439   28.3266   48.9692 H   0  0  0  0  0  0  0  0  0  0  0  0
   60.7424   27.0802   48.1294 H   0  0  0  0  0  0  0  0  0  0  0  0
   61.0882   29.9369   47.5238 H   0  0  0  0  0  0  0  0  0  0  0  0
   60.3935   28.6010   46.5196 H   0  0  0  0  0  0  0  0  0  0  0  0
   58.4440   29.3050   48.5200 H   0  0  0  0  0  0  0  0  0  0  0  0
   59.7499   31.2719   49.3848 H   0  0  0  0  0  0  0  0  0  0  0  0
   60.4238   33.4922   50.2757 H   0  0  0  0  0  0  0  0  0  0  0  0
   60.0408   35.5464   48.9263 H   0  0  0  0  0  0  0  0  0  0  0  0
   58.9285   35.3997   46.7127 H   0  0  0  0  0  0  0  0  0  0  0  0
   57.1599   35.0892   45.6963 H   0  0  0  0  0  0  0  0  0  0  0  0
   58.2533   34.8169   44.2973 H   0  0  0  0  0  0  0  0  0  0  0  0
   56.6017   34.1104   44.2973 H   0  0  0  0  0  0  0  0  0  0  0  0
   57.3298   32.7137   43.0123 H   0  0  0  0  0  0  0  0  0  0  0  0
   56.8117   30.5150   41.9970 H   0  0  0  0  0  0  0  0  0  0  0  0
   56.8589   28.4573   43.3805 H   0  0  0  0  0  0  0  0  0  0  0  0
  1  2  1  0
  2  3  1  0
  3  4  1  0
  4  5  1  0
  5  6  1  0
  6  7  1  0
  7  8  1  0
  8  9  1  0
  9 10  1  0
 10 11  2  0
 11 12  1  0
 12 13  2  0
 13 14  1  0
 14 15  2  0
 15 16  1  0
 16 17  2  0
 17 18  1  0
 17 19  1  0
 19 20  2  0
 20 21  1  0
 21 22  2  0
 22 23  1  0
 23 24  1  0
 23 25  2  0
 25 10  1  0
 16 11  1  0
 25 19  1  0
  1 26  1  0
  1 27  1  0
  1 28  1  0
  2 29  1  0
  2 30  1  0
  3 31  1  0
  4 32  1  0
  4 33  1  0
  5 34  1  0
  5 35  1  0
  7 36  1  0
  7 37  1  0
  8 38  1  0
  8 39  1  0
  9 40  1  0
 12 41  1  0
 13 42  1  0
 14 43  1  0
 15 44  1  0
 18 45  1  0
 18 46  1  0
 18 47  1  0
 20 48  1  0
 21 49  1  0
 22 50  1  0
M  CHG  1  17   1
M  END
>  <UniqueID>  (4) 
4

>  <SMILES>  (4) 
CCNCCOCCNc1c2ccccc2[n+](C)c2cccc(Br)c12

>  <Energy>  (4) 
81.72595823750666

>  <Genealogy>  (4) 
CCNCCOCCNc1c2ccccc2[n+](C)c2cccc(Br)c12 (3D coordinates assigned)
CCNCCOCCNc1c2ccccc2[n+](C)c2cccc(Br)c12 (optimized conformer: 81.72595823750666 kcal/mol)

>  <smiles>  (4) 
CCNCCOCCNc1c2ccccc2[n+](C)c2cccc(Br)c12

>  <score_type>  (4) 
oracle

>  <origin>  (4) 
adg

>  <m_score__min__energy>  (4) 
-5.5899999999999999

>  <m_primary>  (4) 
energy

$$$$
4:0
     RDKit          3D

 67 70  0  0  0  0  0  0  0  0999 V2000
   57.0220   31.4710   41.9770 C   0  0  0  0  0  0  0  0  0  0  0  0
   56.2910   30.2830   42.5970 C   0  0  0  0  0  0  0  0  0  0  0  0
   56.7010   30.0400   44.0530 C   0  0  0  0  0  0  0  0  0  0  0  0
   58.1500   30.1660   44.2220 N   0  0  0  0  0  0  0  0  0  0  0  0
   58.7330   30.6730   45.4370 C   0  0  0  0  0  0  0  0  0  0  0  0
   58.7550   32.0610   45.6710 C   0  0  0  0  0  0  0  0  0  0  0  0
   58.5090   32.9860   44.6320 C   0  0  0  0  0  0  0  0  0  0  0  0
   58.5930   34.3550   44.8650 C   0  0  0  0  0  0  0  0  0  0  0  0
   58.9220   34.8290   46.1290 C   0  0  0  0  0  0  0  0  0  0  0  0
   59.1280   33.9350   47.1790 C   0  0  0  0  0  0  0  0  0  0  0  0
   59.0020   32.5370   46.9830 C   0  0  0  0  0  0  0  0  0  0  0  0
   59.0840   31.6450   48.0330 N   0  0  0  0  0  0  0  0  0  0  0  0
   58.9410   32.1300   49.4250 C   0  0  0  0  0  0  0  0  0  0  0  0
   59.2790   30.2980   47.7810 C   0  0  0  0  0  0  0  0  0  0  0  0
   59.5740   29.3910   48.8260 C   0  0  0  0  0  0  0  0  0  0  0  0
   59.7190   28.0330   48.5790 C   0  0  0  0  0  0  0  0  0  0  0  0
   59.7020   27.5540   47.2790 C   0  0  0  0  0  0  0  0  0  0  0  0
   59.5660   28.4320   46.1870 C   0  0  0  0  0  0  0  0  0  0  0  0
   59.8200   27.9520   44.8350 N   0  0  0  0  0  0  0  0  0  0  0  0
   58.6680   27.2530   44.2280 C   0  0  0  0  0  0  0  0  0  0  0  0
   57.9660   26.3000   45.2160 C   0  0  0  0  0  0  0  0  0  0  0  0
   58.4200   24.8090   45.2230 C   0  0  0  0  0  0  0  0  0  0  0  0
   57.4330   23.7530   44.7960 N   0  0  0  0  0  0  0  0  0  0  0  0
   56.3850   23.5700   45.8370 C   0  0  0  0  0  0  0  0  0  0  0  0
   58.1950   22.4700   44.6300 C   0  0  0  0  0  0  0  0  0  0  0  0
   57.5770   21.5040   43.5950 C   0  0  0  0  0  0  0  0  0  0  0  0
   56.1900   21.7110   43.4770 O   0  0  0  0  0  0  0  0  0  0  0  0
   55.9410   22.9770   42.8970 C   0  0  0  0  0  0  0  0  0  0  0  0
   56.8130   24.1150   43.4890 C   0  0  0  0  0  0  0  0  0  0  0  0
   59.1910   29.7940   46.4500 C   0  0  0  0  0  0  0  0  0  0  0  0
   57.4183   32.1151   42.7758 H   0  0  0  0  0  0  0  0  0  0  0  0
   57.8522   31.1063   41.3542 H   0  0  0  0  0  0  0  0  0  0  0  0
   56.3223   32.0477   41.3542 H   0  0  0  0  0  0  0  0  0  0  0  0
   55.2088   30.4770   42.5624 H   0  0  0  0  0  0  0  0  0  0  0  0
   56.5584   29.3860   42.0192 H   0  0  0  0  0  0  0  0  0  0  0  0
   56.1991   30.7785   44.6954 H   0  0  0  0  0  0  0  0  0  0  0  0
   56.4047   29.0183   44.3329 H   0  0  0  0  0  0  0  0  0  0  0  0
   58.7520   30.0180   43.3810 H   0  0  0  0  0  0  0  0  0  0  0  0
   58.2482   32.6199   43.6280 H   0  0  0  0  0  0  0  0  0  0  0  0
   58.3985   35.0638   44.0466 H   0  0  0  0  0  0  0  0  0  0  0  0
   59.0201   35.9109   46.3015 H   0  0  0  0  0  0  0  0  0  0  0  0
   59.3923   34.3206   48.1747 H   0  0  0  0  0  0  0  0  0  0  0  0
   59.1813   31.3151   50.1237 H   0  0  0  0  0  0  0  0  0  0  0  0
   59.6292   32.9716   49.5926 H   0  0  0  0  0  0  0  0  0  0  0  0
   57.9063   32.4636   49.5926 H   0  0  0  0  0  0  0  0  0  0  0  0
   59.6905   29.7689   49.8525 H   0  0  0  0  0  0  0  0  0  0  0  0
   59.8479   27.3342   49.4187 H   0  0  0  0  0  0  0  0  0  0  0  0
   59.7960   26.4731   47.0977 H   0  0  0  0  0  0  0  0  0  0  0  0
   60.0840   28.7680   44.2430 H   0  0  0  0  0  0  0  0  0  0  0  0
   60.5940   27.2530   44.8580 H   0  0  0  0  0  0  0  0  0  0  0  0
   57.9407   28.0038   43.8855 H   0  0  0  0  0  0  0  0  0  0  0  0
   59.0483   26.6465   43.3928 H   0  0  0  0  0  0  0  0  0  0  0  0
   58.1269   26.6982   46.2287 H   0  0  0  0  0  0  0  0  0  0  0  0
   56.9182   26.2724   44.8824 H   0  0  0  0  0  0  0  0  0  0  0  0
   59.2886   24.7312   44.5526 H   0  0  0  0  0  0  0  0  0  0  0  0
   58.6052   24.5897   46.2849 H   0  0  0  0  0  0  0  0  0  0  0  0
   56.8414   23.6497   46.8347 H   0  0  0  0  0  0  0  0  0  0  0  0
   55.6151   24.3473   45.7228 H   0  0  0  0  0  0  0  0  0  0  0  0
   55.9241   22.5778   45.7228 H   0  0  0  0  0  0  0  0  0  0  0  0
   59.2181   22.7141   44.3081 H   0  0  0  0  0  0  0  0  0  0  0  0
   58.1693   21.9555   45.6019 H   0  0  0  0  0  0  0  0  0  0  0  0
   58.0505   21.6739   42.6168 H   0  0  0  0  0  0  0  0  0  0  0  0
   57.7497   20.4714   43.9327 H   0  0  0  0  0  0  0  0  0  0  0  0
   56.1425   22.9104   41.8177 H   0  0  0  0  0  0  0  0  0  0  0  0
   54.8923   23.2294   43.1127 H   0  0  0  0  0  0  0  0  0  0  0  0
   57.6148   24.3506   42.7738 H   0  0  0  0  0  0  0  0  0  0  0  0
   56.1536   24.9777   43.6649 H   0  0  0  0  0  0  0  0  0  0  0  0
  1  2  1  0
  2  3  1  0
  3  4  1  0
  4  5  1  0
  5  6  2  0
  6  7  1  0
  7  8  2  0
  8  9  1  0
  9 10  2  0
 10 11  1  0
 11 12  2  0
 12 13  1  0
 12 14  1  0
 14 15  2  0
 15 16  1  0
 16 17  2  0
 17 18  1  0
 18 19  1  0
 19 20  1  0
 20 21  1  0
 21 22  1  0
 22 23  1  0
 23 24  1  0
 23 25  1  0
 25 26  1  0
 26 27  1  0
 27 28  1  0
 28 29  1  0
 18 30  2  0
 30  5  1  0
 11  6  1  0
 30 14  1  0
 29 23  1  0
  1 31  1  0
  1 32  1  0
  1 33  1  0
  2 34  1  0
  2 35  1  0
  3 36  1  0
  3 37  1  0
  4 38  1  0
  7 39  1  0
  8 40  1  0
  9 41  1  0
 10 42  1  0
 13 43  1  0
 13 44  1  0
 13 45  1  0
 15 46  1  0
 16 47  1  0
 17 48  1  0
 19 49  1  0
 19 50  1  0
 20 51  1  0
 20 52  1  0
 21 53  1  0
 21 54  1  0
 22 55  1  0
 22 56  1  0
 24 57  1  0
 24 58  1  0
 24 59  1  0
 25 60  1  0
 25 61  1  0
 26 62  1  0
 26 63  1  0
 28 64  1  0
 28 65  1  0
 29 66  1  0
 29 67  1  0
M  CHG  3  12   1  19   1  23   1
M  END
>  <UniqueID>  (5) 
5

>  <SMILES>  (5) 
CCCNc1c2ccccc2[n+](C)c2cccc([NH2+]CCC[N+]3(C)CCOCC3)c12

>  <Energy>  (5) 
129.53409704557373

>  <Genealogy>  (5) 
CCCNc1c2ccccc2[n+](C)c2cccc([NH2+]CCC[N+]3(C)CCOCC3)c12 (protonated)
CCCNc1c2ccccc2[n+](C)c2cccc([NH2+]CCC[N+]3(C)CCOCC3)c12 (3D coordinates assigned)
CCCNc1c2ccccc2[n+](C)c2cccc([NH2+]CCC[N+]3(C)CCOCC3)c12 (nonaromatic ring conformer: 129.53409704557373 kcal/mol)

>  <smiles>  (5) 
CCCNc1c2ccccc2[n+](C)c2cccc(NCCC[N+]3(C)CCOCC3)c12

>  <score_type>  (5) 
oracle

>  <origin>  (5) 
adg

>  <m_score__min__energy>  (5) 
-4.2300000000000004

>  <m_primary>  (5) 
energy

$$$$
5:0
     RDKit          3D

 34 35  0  0  0  0  0  0  0  0999 V2000
   59.6490   35.7150   46.2190 C   0  0  0  0  0  0  0  0  0  0  0  0
   59.4850   34.2910   45.8830 N   0  0  0  0  0  0  0  0  0  0  0  0
   58.9660   34.1580   44.5010 C   0  0  0  0  0  0  0  0  0  0  0  0
   58.1200   32.9280   44.3730 C   0  0  0  0  0  0  0  0  0  0  0  0
   57.3790   32.3140   45.3660 C   0  0  0  0  0  0  0  0  0  0  0  0
   56.7680   31.2290   44.8530 N   0  0  0  0  0  0  0  0  0  0  0  0
   57.1060   31.1470   43.5750 N   0  0  0  0  0  0  0  0  0  0  0  0
   56.6120   30.1220   42.6670 C   0  0  0  0  0  0  0  0  0  0  0  0
   57.9110   32.1710   43.2400 C   0  0  0  0  0  0  0  0  0  0  0  0
   60.7790   33.5910   46.0590 C   0  0  0  0  0  0  0  0  0  0  0  0
   61.2410   33.6590   47.4880 C   0  0  0  0  0  0  0  0  0  0  0  0
   60.4150   33.9420   48.5160 N   0  0  0  0  0  0  0  0  0  0  0  0
   61.1790   33.8760   49.6220 C   0  0  0  0  0  0  0  0  0  0  0  0
   62.4680   33.5540   49.2510 C   0  0  0  0  0  0  0  0  0  0  0  0
   62.5010   33.4180   47.9120 N   0  0  0  0  0  0  0  0  0  0  0  0
   63.6740   33.0930   47.1040 C   0  0  0  0  0  0  0  0  0  0  0  0
   59.6628   35.8345   47.3124 H   0  0  0  0  0  0  0  0  0  0  0  0
   60.5956   36.0845   45.7978 H   0  0  0  0  0  0  0  0  0  0  0  0
   58.8111   36.2900   45.7978 H   0  0  0  0  0  0  0  0  0  0  0  0
   58.3587   35.0419   44.2560 H   0  0  0  0  0  0  0  0  0  0  0  0
   59.8167   34.0777   43.8083 H   0  0  0  0  0  0  0  0  0  0  0  0
   57.3011   32.6569   46.4083 H   0  0  0  0  0  0  0  0  0  0  0  0
   56.2067   29.2811   43.2489 H   0  0  0  0  0  0  0  0  0  0  0  0
   55.8189   30.5451   42.0330 H   0  0  0  0  0  0  0  0  0  0  0  0
   57.4371   29.7653   42.0330 H   0  0  0  0  0  0  0  0  0  0  0  0
   58.3277   32.3689   42.2414 H   0  0  0  0  0  0  0  0  0  0  0  0
   60.6592   32.5364   45.7699 H   0  0  0  0  0  0  0  0  0  0  0  0
   61.5313   34.0826   45.4247 H   0  0  0  0  0  0  0  0  0  0  0  0
   59.3940   34.1540   48.4690 H   0  0  0  0  0  0  0  0  0  0  0  0
   60.8328   34.0500   50.6515 H   0  0  0  0  0  0  0  0  0  0  0  0
   63.3225   33.4297   49.9324 H   0  0  0  0  0  0  0  0  0  0  0  0
   64.5211   32.8583   47.7653 H   0  0  0  0  0  0  0  0  0  0  0  0
   63.4522   32.2225   46.4692 H   0  0  0  0  0  0  0  0  0  0  0  0
   63.9318   33.9535   46.4692 H   0  0  0  0  0  0  0  0  0  0  0  0
  1  2  1  0
  2  3  1  0
  3  4  1  0
  4  5  1  0
  5  6  2  0
  6  7  1  0
  7  8  1  0
  7  9  1  0
  2 10  1  0
 10 11  1  0
 11 12  2  0
 12 13  1  0
 13 14  2  0
 14 15  1  0
 15 16  1  0
  9  4  2  0
 15 11  1  0
  1 17  1  0
  1 18  1  0
  1 19  1  0
  3 20  1  0
  3 21  1  0
  5 22  1  0
  8 23  1  0
  8 24  1  0
  8 25  1  0
  9 26  1  0
 10 27  1  0
 10 28  1  0
 12 29  1  0
 13 30  1  0
 14 31  1  0
 16 32  1  0
 16 33  1  0
 16 34  1  0
M  CHG  1  12   1
M  END
>  <UniqueID>  (6) 
6

>  <SMILES>  (6) 
CN(Cc1cnn(C)c1)Cc1[nH+]ccn1C

>  <Energy>  (6) 
89.81820881713818

>  <Genealogy>  (6) 
CN(Cc1cnn(C)c1)Cc1[nH+]ccn1C (protonated)
CN(Cc1cnn(C)c1)Cc1[nH+]ccn1C (3D coordinates assigned)
CN(Cc1cnn(C)c1)Cc1[nH+]ccn1C (optimized conformer: 89.81820881713818 kcal/mol)

>  <smiles>  (6) 
CN(Cc1cnn(C)c1)Cc1nccn1C

>  <score_type>  (6) 
oracle

>  <origin>  (6) 
adg

>  <m_score__min__energy>  (6) 
-3.96

>  <m_primary>  (6) 
energy

$$$$
6:0
     RDKit          3D

 25 25  0  0  0  0  0  0  0  0999 V2000
   63.6560   33.4440   46.8000 C   0  0  0  0  0  0  0  0  0  0  0  0
   62.6050   32.8300   47.7210 C   0  0  0  0  0  0  0  0  0  0  0  0
   61.3010   33.4160   47.4740 N   0  0  0  0  0  0  0  0  0  0  0  0
   60.6540   33.2610   46.3790 C   0  0  0  0  0  0  0  0  0  0  0  0
   59.3250   33.9370   46.3740 C   0  0  0  0  0  0  0  0  0  0  0  0
   59.2690   34.9780   45.2440 C   0  0  0  0  0  0  0  0  0  0  0  0
   58.2080   32.8950   46.2080 C   0  0  0  0  0  0  0  0  0  0  0  0
   59.2820   34.6050   47.7710 C   0  0  0  0  0  0  0  0  0  0  0  0
   60.5890   34.1890   48.4550 C   0  0  0  0  0  0  0  0  0  0  0  0
   64.4488   33.9072   47.4058 H   0  0  0  0  0  0  0  0  0  0  0  0
   64.0914   32.6582   46.1652 H   0  0  0  0  0  0  0  0  0  0  0  0
   63.1853   34.2092   46.1652 H   0  0  0  0  0  0  0  0  0  0  0  0
   62.5542   31.7464   47.5389 H   0  0  0  0  0  0  0  0  0  0  0  0
   62.8900   33.0289   48.7647 H   0  0  0  0  0  0  0  0  0  0  0  0
   61.0413   32.6852   45.5255 H   0  0  0  0  0  0  0  0  0  0  0  0
   59.2147   35.9874   45.6777 H   0  0  0  0  0  0  0  0  0  0  0  0
   60.1730   34.8939   44.6229 H   0  0  0  0  0  0  0  0  0  0  0  0
   58.3793   34.7975   44.6229 H   0  0  0  0  0  0  0  0  0  0  0  0
   57.8595   32.5699   47.1994 H   0  0  0  0  0  0  0  0  0  0  0  0
   57.3698   33.3413   45.6529 H   0  0  0  0  0  0  0  0  0  0  0  0
   58.5951   32.0278   45.6529 H   0  0  0  0  0  0  0  0  0  0  0  0
   59.2287   35.6994   47.6739 H   0  0  0  0  0  0  0  0  0  0  0  0
   58.3986   34.2947   48.3484 H   0  0  0  0  0  0  0  0  0  0  0  0
   61.1720   35.0759   48.7439 H   0  0  0  0  0  0  0  0  0  0  0  0
   60.4057   33.6151   49.3753 H   0  0  0  0  0  0  0  0  0  0  0  0
  1  2  1  0
  2  3  1  0
  3  4  2  0
  4  5  1  0
  5  6  1  0
  5  7  1  0
  5  8  1  0
  8  9  1  0
  9  3  1  0
  1 10  1  0
  1 11  1  0
  1 12  1  0
  2 13  1  0
  2 14  1  0
  4 15  1  0
  6 16  1  0
  6 17  1  0
  6 18  1  0
  7 19  1  0
  7 20  1  0
  7 21  1  0
  8 22  1  0
  8 23  1  0
  9 24  1  0
  9 25  1  0
M  CHG  1   3   1
M  END
>  <UniqueID>  (7) 
7

>  <SMILES>  (7) 
CC[N+]1=CC(C)(C)CC1

>  <Energy>  (7) 
20.129212222204192

>  <Genealogy>  (7) 
CC[N+]1=CC(C)(C)CC1 (3D coordinates assigned)
CC[N+]1=CC(C)(C)CC1 (nonaromatic ring conformer: 20.129212222204192 kcal/mol)

>  <smiles>  (7) 
CC[N+]1=CC(C)(C)CC1

>  <score_type>  (7) 
oracle

>  <origin>  (7) 
adg

>  <m_score__min__energy>  (7) 
-2.7799999999999998

>  <m_primary>  (7) 
energy

$$$$
7:0
     RDKit          3D

 27 28  0  0  0  0  0  0  0  0999 V2000
   56.8100   24.8540   44.9120 C   0  0  0  0  0  0  0  0  0  0  0  0
   55.5410   25.3320   45.6090 C   0  0  0  0  0  0  0  0  0  0  0  0
   55.7110   26.6570   46.0810 O   0  0  0  0  0  0  0  0  0  0  0  0
   57.0150   27.1180   45.7980 C   0  0  0  0  0  0  0  0  0  0  0  0
   56.9550   28.5800   45.5090 C   0  0  0  0  0  0  0  0  0  0  0  0
   57.9200   29.4540   45.8510 N   0  0  0  0  0  0  0  0  0  0  0  0
   57.4220   30.6080   45.3560 C   0  0  0  0  0  0  0  0  0  0  0  0
   58.1070   31.9140   45.4650 C   0  0  0  0  0  0  0  0  0  0  0  0
   57.6230   33.0340   44.7650 C   0  0  0  0  0  0  0  0  0  0  0  0
   58.2720   34.2680   44.8700 C   0  0  0  0  0  0  0  0  0  0  0  0
   59.4080   34.3970   45.6720 C   0  0  0  0  0  0  0  0  0  0  0  0
   59.8980   33.2910   46.3720 C   0  0  0  0  0  0  0  0  0  0  0  0
   59.2520   32.0540   46.2700 C   0  0  0  0  0  0  0  0  0  0  0  0
   56.2300   30.4330   44.7480 N   0  0  0  0  0  0  0  0  0  0  0  0
   55.9790   29.1650   44.8620 O   0  0  0  0  0  0  0  0  0  0  0  0
   57.5588   24.5719   45.6668 H   0  0  0  0  0  0  0  0  0  0  0  0
   56.5768   23.9821   44.2832 H   0  0  0  0  0  0  0  0  0  0  0  0
   57.2099   25.6631   44.2832 H   0  0  0  0  0  0  0  0  0  0  0  0
   54.7031   25.3048   44.8968 H   0  0  0  0  0  0  0  0  0  0  0  0
   55.3301   24.6713   46.4628 H   0  0  0  0  0  0  0  0  0  0  0  0
   57.6670   26.9390   46.6657 H   0  0  0  0  0  0  0  0  0  0  0  0
   57.4210   26.5811   44.9280 H   0  0  0  0  0  0  0  0  0  0  0  0
   56.7289   32.9385   44.1314 H   0  0  0  0  0  0  0  0  0  0  0  0
   57.8869   35.1391   44.3197 H   0  0  0  0  0  0  0  0  0  0  0  0
   59.9170   35.3688   45.7527 H   0  0  0  0  0  0  0  0  0  0  0  0
   60.7926   33.3931   47.0039 H   0  0  0  0  0  0  0  0  0  0  0  0
   59.6417   31.1862   46.8224 H   0  0  0  0  0  0  0  0  0  0  0  0
  1  2  1  0
  2  3  1  0
  3  4  1  0
  4  5  1  0
  5  6  2  0
  6  7  1  0
  7  8  1  0
  8  9  2  0
  9 10  1  0
 10 11  2  0
 11 12  1  0
 12 13  2  0
  7 14  2  0
 14 15  1  0
 15  5  1  0
 13  8  1  0
  1 16  1  0
  1 17  1  0
  1 18  1  0
  2 19  1  0
  2 20  1  0
  4 21  1  0
  4 22  1  0
  9 23  1  0
 10 24  1  0
 11 25  1  0
 12 26  1  0
 13 27  1  0
M  END
>  <UniqueID>  (8) 
8

>  <SMILES>  (8) 
CCOCc1nc(-c2ccccc2)no1

>  <Energy>  (8) 
58.934046201287394

>  <Genealogy>  (8) 
CCOCc1nc(-c2ccccc2)no1 (3D coordinates assigned)
CCOCc1nc(-c2ccccc2)no1 (optimized conformer: 58.934046201287394 kcal/mol)

>  <smiles>  (8) 
CCOCc1nc(-c2ccccc2)no1

>  <score_type>  (8) 
oracle

>  <origin>  (8) 
adg

>  <m_score__min__energy>  (8) 
-6.54

>  <m_primary>  (8) 
energy

$$$$
8:0
     RDKit          3D

 76 78  0  0  0  0  0  0  0  0999 V2000
   63.8550   33.8190   50.7320 C   0  0  0  0  0  0  0  0  0  0  0  0
   64.6230   33.0490   49.6520 C   0  0  0  0  0  0  0  0  0  0  0  0
   63.7530   32.5300   48.5630 N   0  0  0  0  0  0  0  0  0  0  0  0
   63.0310   33.6600   47.9220 C   0  0  0  0  0  0  0  0  0  0  0  0
   63.3860   33.8370   46.4400 C   0  0  0  0  0  0  0  0  0  0  0  0
   62.8580   31.4080   48.9760 C   0  0  0  0  0  0  0  0  0  0  0  0
   61.4290   31.4170   48.3810 C   0  0  0  0  0  0  0  0  0  0  0  0
   61.4130   31.0620   46.9620 N   0  0  0  0  0  0  0  0  0  0  0  0
   60.1880   30.6480   46.3380 C   0  0  0  0  0  0  0  0  0  0  0  0
   59.2490   31.6120   45.9330 C   0  0  0  0  0  0  0  0  0  0  0  0
   59.4730   32.9870   46.1560 C   0  0  0  0  0  0  0  0  0  0  0  0
   58.5420   33.9350   45.7330 C   0  0  0  0  0  0  0  0  0  0  0  0
   57.3830   33.5310   45.0790 C   0  0  0  0  0  0  0  0  0  0  0  0
   57.1510   32.1770   44.8330 C   0  0  0  0  0  0  0  0  0  0  0  0
   58.0830   31.1930   45.2470 C   0  0  0  0  0  0  0  0  0  0  0  0
   57.8820   29.8560   44.9760 N   0  0  0  0  0  0  0  0  0  0  0  0
   57.0430   29.4950   43.8160 C   0  0  0  0  0  0  0  0  0  0  0  0
   58.6390   28.8960   45.6230 C   0  0  0  0  0  0  0  0  0  0  0  0
   58.2220   27.5280   45.7660 C   0  0  0  0  0  0  0  0  0  0  0  0
   56.7670   27.0770   45.7760 C   0  0  0  0  0  0  0  0  0  0  0  0
   56.6280   25.6140   45.3360 C   0  0  0  0  0  0  0  0  0  0  0  0
   57.3390   25.3840   44.0690 N   0  0  0  0  0  0  0  0  0  0  0  0
   56.9910   24.0830   43.4760 C   0  0  0  0  0  0  0  0  0  0  0  0
   56.8880   23.0030   44.5790 C   0  0  0  0  0  0  0  0  0  0  0  0
   57.7150   21.7770   44.3510 N   0  0  0  0  0  0  0  0  0  0  0  0
   57.4410   21.1780   43.0220 C   0  0  0  0  0  0  0  0  0  0  0  0
   57.3540   20.7830   45.3920 C   0  0  0  0  0  0  0  0  0  0  0  0
   59.1630   22.0740   44.4770 C   0  0  0  0  0  0  0  0  0  0  0  0
   59.1520   26.5770   46.2240 C   0  0  0  0  0  0  0  0  0  0  0  0
   60.4220   26.9560   46.6380 C   0  0  0  0  0  0  0  0  0  0  0  0
   60.7680   28.2980   46.6780 C   0  0  0  0  0  0  0  0  0  0  0  0
   59.8800   29.2820   46.2050 C   0  0  0  0  0  0  0  0  0  0  0  0
   64.1873   33.4858   51.7262 H   0  0  0  0  0  0  0  0  0  0  0  0
   64.0491   34.8962   50.6224 H   0  0  0  0  0  0  0  0  0  0  0  0
   62.7773   33.6277   50.6224 H   0  0  0  0  0  0  0  0  0  0  0  0
   65.3710   33.7229   49.2090 H   0  0  0  0  0  0  0  0  0  0  0  0
   65.0844   32.1783   50.1410 H   0  0  0  0  0  0  0  0  0  0  0  0
   64.4020   32.1380   47.8390 H   0  0  0  0  0  0  0  0  0  0  0  0
   61.9496   33.4759   48.0035 H   0  0  0  0  0  0  0  0  0  0  0  0
   63.3323   34.5803   48.4439 H   0  0  0  0  0  0  0  0  0  0  0  0
   64.3674   34.3263   46.3540 H   0  0  0  0  0  0  0  0  0  0  0  0
   63.4233   32.8520   45.9517 H   0  0  0  0  0  0  0  0  0  0  0  0
   62.6218   34.4596   45.9517 H   0  0  0  0  0  0  0  0  0  0  0  0
   63.3404   30.4662   48.6754 H   0  0  0  0  0  0  0  0  0  0  0  0
   62.7247   31.5231   50.0618 H   0  0  0  0  0  0  0  0  0  0  0  0
   60.8120   30.6929   48.9332 H   0  0  0  0  0  0  0  0  0  0  0  0
   61.0331   32.4389   48.4753 H   0  0  0  0  0  0  0  0  0  0  0  0
   62.3050   30.8580   46.4590 H   0  0  0  0  0  0  0  0  0  0  0  0
   60.3900   33.3140   46.6680 H   0  0  0  0  0  0  0  0  0  0  0  0
   58.7245   35.0041   45.9169 H   0  0  0  0  0  0  0  0  0  0  0  0
   56.6468   34.2811   44.7546 H   0  0  0  0  0  0  0  0  0  0  0  0
   56.2328   31.8696   44.3110 H   0  0  0  0  0  0  0  0  0  0  0  0
   56.0862   29.0833   44.1695 H   0  0  0  0  0  0  0  0  0  0  0  0
   56.8539   30.3914   43.2071 H   0  0  0  0  0  0  0  0  0  0  0  0
   57.5639   28.7414   43.2071 H   0  0  0  0  0  0  0  0  0  0  0  0
   56.3671   27.1831   46.7952 H   0  0  0  0  0  0  0  0  0  0  0  0
   56.2066   27.7048   45.0676 H   0  0  0  0  0  0  0  0  0  0  0  0
   57.0530   24.9611   46.1126 H   0  0  0  0  0  0  0  0  0  0  0  0
   55.5615   25.3877   45.1900 H   0  0  0  0  0  0  0  0  0  0  0  0
   57.0270   26.1220   43.3960 H   0  0  0  0  0  0  0  0  0  0  0  0
   56.0241   24.1668   42.9582 H   0  0  0  0  0  0  0  0  0  0  0  0
   57.7758   23.7928   42.7619 H   0  0  0  0  0  0  0  0  0  0  0  0
   57.2064   23.4561   45.5294 H   0  0  0  0  0  0  0  0  0  0  0  0
   55.8403   22.6679   44.5805 H   0  0  0  0  0  0  0  0  0  0  0  0
   56.9867   20.1849   43.1540 H   0  0  0  0  0  0  0  0  0  0  0  0
   56.7498   21.8260   42.4632 H   0  0  0  0  0  0  0  0  0  0  0  0
   58.3833   21.0788   42.4632 H   0  0  0  0  0  0  0  0  0  0  0  0
   57.5132   21.2212   46.3883 H   0  0  0  0  0  0  0  0  0  0  0  0
   56.2964   20.5021   45.2797 H   0  0  0  0  0  0  0  0  0  0  0  0
   57.9848   19.8889   45.2797 H   0  0  0  0  0  0  0  0  0  0  0  0
   59.4346   22.1297   45.5415 H   0  0  0  0  0  0  0  0  0  0  0  0
   59.7445   21.2764   43.9915 H   0  0  0  0  0  0  0  0  0  0  0  0
   59.3836   23.0361   43.9915 H   0  0  0  0  0  0  0  0  0  0  0  0
   58.8681   25.5147   46.2547 H   0  0  0  0  0  0  0  0  0  0  0  0
   61.1544   26.1907   46.9346 H   0  0  0  0  0  0  0  0  0  0  0  0
   61.7461   28.5965   47.0834 H   0  0  0  0  0  0  0  0  0  0  0  0
  1  2  1  0
  2  3  1  0
  3  4  1  0
  4  5  1  0
  3  6  1  0
  6  7  1  0
  7  8  1  0
  8  9  1  0
  9 10  2  0
 10 11  1  0
 11 12  2  0
 12 13  1  0
 13 14  2  0
 14 15  1  0
 15 16  2  0
 16 17  1  0
 16 18  1  0
 18 19  2  0
 19 20  1  0
 20 21  1  0
 21 22  1  0
 22 23  1  0
 23 24  1  0
 24 25  1  0
 25 26  1  0
 25 27  1  0
 25 28  1  0
 19 29  1  0
 29 30  2  0
 30 31  1  0
 31 32  2  0
 32  9  1  0
 15 10  1  0
 32 18  1  0
  1 33  1  0
  1 34  1  0
  1 35  1  0
  2 36  1  0
  2 37  1  0
  3 38  1  0
  4 39  1  0
  4 40  1  0
  5 41  1  0
  5 42  1  0
  5 43  1  0
  6 44  1  0
  6 45  1  0
  7 46  1  0
  7 47  1  0
  8 48  1  0
 11 49  1  0
 12 50  1  0
 13 51  1  0
 14 52  1  0
 17 53  1  0
 17 54  1  0
 17 55  1  0
 20 56  1  0
 20 57  1  0
 21 58  1  0
 21 59  1  0
 22 60  1  0
 23 61  1  0
 23 62  1  0
 24 63  1  0
 24 64  1  0
 26 65  1  0
 26 66  1  0
 26 67  1  0
 27 68  1  0
 27 69  1  0
 27 70  1  0
 28 71  1  0
 28 72  1  0
 28 73  1  0
 29 74  1  0
 30 75  1  0
 31 76  1  0
M  CHG  3   3   1  16   1  25   1
M  END
>  <UniqueID>  (9) 
9

>  <SMILES>  (9) 
CC[NH+](CC)CCNc1c2ccccc2[n+](C)c2c(CCNCC[N+](C)(C)C)cccc12

>  <Energy>  (9) 
123.37010653671068

>  <Genealogy>  (9) 
CC[NH+](CC)CCNc1c2ccccc2[n+](C)c2c(CCNCC[N+](C)(C)C)cccc12 (protonated)
CC[NH+](CC)CCNc1c2ccccc2[n+](C)c2c(CCNCC[N+](C)(C)C)cccc12 (3D coordinates assigned)
CC[NH+](CC)CCNc1c2ccccc2[n+](C)c2c(CCNCC[N+](C)(C)C)cccc12 (optimized conformer: 123.37010653671068 kcal/mol)

>  <smiles>  (9) 
CCN(CC)CCNc1c2ccccc2[n+](C)c2c(CCNCC[N+](C)(C)C)cccc12

>  <score_type>  (9) 
oracle

>  <origin>  (9) 
adg

>  <m_score__min__energy>  (9) 
-3.9900000000000002

>  <m_primary>  (9) 
energy

$$$$
9:0
     RDKit          3D

 56 58  0  0  0  0  0  0  0  0999 V2000
   58.5950   32.1140   49.7690 C   0  0  0  0  0  0  0  0  0  0  0  0
   59.6280   33.1510   50.2380 C   0  0  0  0  0  0  0  0  0  0  0  0
   61.0360   32.6770   50.1910 N   0  0  2  0  0  0  0  0  0  0  0  0
   61.2640   31.5610   51.1330 C   0  0  0  0  0  0  0  0  0  0  0  0
   61.9990   33.7870   50.4020 C   0  0  0  0  0  0  0  0  0  0  0  0
   62.7100   34.2010   49.1060 C   0  0  0  0  0  0  0  0  0  0  0  0
   61.8540   33.9440   48.0120 O   0  0  0  0  0  0  0  0  0  0  0  0
   62.5790   33.3980   46.9240 C   0  0  0  0  0  0  0  0  0  0  0  0
   62.7920   31.9010   47.1320 C   0  0  0  0  0  0  0  0  0  0  0  0
   61.7830   31.3840   47.9970 O   0  0  0  0  0  0  0  0  0  0  0  0
   60.7490   30.5270   47.5920 C   0  0  0  0  0  0  0  0  0  0  0  0
   60.4490   29.4260   48.4000 C   0  0  0  0  0  0  0  0  0  0  0  0
   59.4520   28.5220   48.0300 C   0  0  0  0  0  0  0  0  0  0  0  0
   58.7340   28.7090   46.8400 C   0  0  0  0  0  0  0  0  0  0  0  0
   57.7590   27.7790   46.4510 C   0  0  0  0  0  0  0  0  0  0  0  0
   57.0620   27.9500   45.2540 C   0  0  0  0  0  0  0  0  0  0  0  0
   57.3220   29.0550   44.4420 C   0  0  0  0  0  0  0  0  0  0  0  0
   58.2780   30.0090   44.8180 C   0  0  0  0  0  0  0  0  0  0  0  0
   58.5080   31.1450   43.9720 N   0  0  0  0  0  0  0  0  0  0  0  0
   57.6510   32.3260   44.0380 C   0  0  0  0  0  0  0  0  0  0  0  0
   58.2070   33.2960   45.0340 C   0  0  0  0  0  0  0  0  0  0  0  0
   59.2260   34.2090   44.7930 C   0  0  0  0  0  0  0  0  0  0  0  0
   59.6450   34.8800   45.9490 C   0  0  0  0  0  0  0  0  0  0  0  0
   58.9740   34.4840   47.0990 C   0  0  0  0  0  0  0  0  0  0  0  0
   57.8580   33.2970   46.6780 S   0  0  0  0  0  0  0  0  0  0  0  0
   59.0040   29.8350   46.0210 C   0  0  0  0  0  0  0  0  0  0  0  0
   60.0190   30.7330   46.4060 C   0  0  0  0  0  0  0  0  0  0  0  0
   58.1252   31.6424   50.6448 H   0  0  0  0  0  0  0  0  0  0  0  0
   57.8239   32.6126   49.1633 H   0  0  0  0  0  0  0  0  0  0  0  0
   59.0965   31.3449   49.1633 H   0  0  0  0  0  0  0  0  0  0  0  0
   59.5417   34.0386   49.5940 H   0  0  0  0  0  0  0  0  0  0  0  0
   59.4028   33.3646   51.2933 H   0  0  0  0  0  0  0  0  0  0  0  0
   61.1790   32.2970   49.2240 H   0  0  0  0  0  0  0  0  0  0  0  0
   61.1883   31.9317   52.1659 H   0  0  0  0  0  0  0  0  0  0  0  0
   60.5067   30.7806   50.9671 H   0  0  0  0  0  0  0  0  0  0  0  0
   62.2667   31.1402   50.9671 H   0  0  0  0  0  0  0  0  0  0  0  0
   61.4542   34.6563   50.7990 H   0  0  0  0  0  0  0  0  0  0  0  0
   62.7664   33.4350   51.1071 H   0  0  0  0  0  0  0  0  0  0  0  0
   62.9499   35.2739   49.1430 H   0  0  0  0  0  0  0  0  0  0  0  0
   63.6418   33.6275   48.9927 H   0  0  0  0  0  0  0  0  0  0  0  0
   62.0146   33.5591   45.9937 H   0  0  0  0  0  0  0  0  0  0  0  0
   63.5583   33.8947   46.8594 H   0  0  0  0  0  0  0  0  0  0  0  0
   62.7392   31.3865   46.1612 H   0  0  0  0  0  0  0  0  0  0  0  0
   63.7797   31.7349   47.5869 H   0  0  0  0  0  0  0  0  0  0  0  0
   61.0043   29.2707   49.3367 H   0  0  0  0  0  0  0  0  0  0  0  0
   59.2285   27.6591   48.6746 H   0  0  0  0  0  0  0  0  0  0  0  0
   57.5428   26.9114   47.0918 H   0  0  0  0  0  0  0  0  0  0  0  0
   56.3055   27.2117   44.9496 H   0  0  0  0  0  0  0  0  0  0  0  0
   56.7714   29.1786   43.4978 H   0  0  0  0  0  0  0  0  0  0  0  0
   59.1620   31.0510   43.1620 H   0  0  0  0  0  0  0  0  0  0  0  0
   57.6080   32.8027   43.0476 H   0  0  0  0  0  0  0  0  0  0  0  0
   56.6389   32.0257   44.3468 H   0  0  0  0  0  0  0  0  0  0  0  0
   59.6590   34.3866   43.7975 H   0  0  0  0  0  0  0  0  0  0  0  0
   60.4319   35.6487   45.9464 H   0  0  0  0  0  0  0  0  0  0  0  0
   59.1432   34.8788   48.1117 H   0  0  0  0  0  0  0  0  0  0  0  0
   60.2435   31.6043   45.7732 H   0  0  0  0  0  0  0  0  0  0  0  0
  1  2  1  0
  2  3  1  0
  3  4  1  0
  3  5  1  0
  5  6  1  0
  6  7  1  0
  7  8  1  0
  8  9  1  0
  9 10  1  0
 10 11  1  0
 11 12  2  0
 12 13  1  0
 13 14  2  0
 14 15  1  0
 15 16  2  0
 16 17  1  0
 17 18  2  0
 18 19  1  0
 19 20  1  0
 20 21  1  0
 21 22  2  0
 22 23  1  0
 23 24  2  0
 24 25  1  0
 18 26  1  0
 26 27  2  0
 27 11  1  0
 26 14  1  0
 25 21  1  0
  1 28  1  0
  1 29  1  0
  1 30  1  0
  2 31  1  0
  2 32  1  0
  3 33  1  6
  4 34  1  0
  4 35  1  0
  4 36  1  0
  5 37  1  0
  5 38  1  0
  6 39  1  0
  6 40  1  0
  8 41  1  0
  8 42  1  0
  9 43  1  0
  9 44  1  0
 12 45  1  0
 13 46  1  0
 15 47  1  0
 16 48  1  0
 17 49  1  0
 19 50  1  0
 20 51  1  0
 20 52  1  0
 22 53  1  0
 23 54  1  0
 24 55  1  0
 27 56  1  0
M  CHG  1   3   1
M  END
>  <UniqueID>  (10) 
10

>  <SMILES>  (10) 
CC[N@H+](C)CCOCCOc1ccc2cccc(NCc3cccs3)c2c1

>  <Energy>  (10) 
88.08127575487764

>  <Genealogy>  (10) 
CC[NH+](C)CCOCCOc1ccc2cccc(NCc3cccs3)c2c1 (protonated)
CC[N@H+](C)CCOCCOc1ccc2cccc(NCc3cccs3)c2c1 (chirality)
CC[N@H+](C)CCOCCOc1ccc2cccc(NCc3cccs3)c2c1 (3D coordinates assigned)
CC[N@H+](C)CCOCCOc1ccc2cccc(NCc3cccs3)c2c1 (optimized conformer: 88.08127575487764 kcal/mol)

>  <smiles>  (10) 
CCN(C)CCOCCOc1ccc2cccc(NCc3cccs3)c2c1

>  <score_type>  (10) 
oracle

>  <origin>  (10) 
adg

>  <m_score__min__energy>  (10) 
-5.4699999999999998

>  <m_primary>  (10) 
energy

$$$$
10:0
     RDKit          3D

 47 49  0  0  0  0  0  0  0  0999 V2000
   56.6050   30.1790   42.6030 C   0  0  0  0  0  0  0  0  0  0  0  0
   56.3390   30.2790   44.0740 C   0  0  0  0  0  0  0  0  0  0  0  0
   55.3070   29.7340   44.5480 O   0  0  0  0  0  0  0  0  0  0  0  0
   57.2480   30.9700   44.9470 N   0  0  0  0  0  0  0  0  0  0  0  0
   58.4810   30.3800   45.4310 C   0  0  0  0  0  0  0  0  0  0  0  0
   59.0200   31.3590   46.4650 C   0  0  0  0  0  0  0  0  0  0  0  0
   58.3450   32.7180   46.1590 C   0  0  2  0  0  0  0  0  0  0  0  0
   59.2040   33.5640   45.1810 C   0  0  0  0  0  0  0  0  0  0  0  0
   60.4270   34.1810   45.8610 C   0  0  0  0  0  0  0  0  0  0  0  0
   60.0180   34.9720   47.1090 C   0  0  0  0  0  0  0  0  0  0  0  0
   59.2290   34.1650   48.0620 N   0  0  0  0  0  0  0  0  0  0  0  0
   60.0420   33.2360   48.8770 C   0  0  0  0  0  0  0  0  0  0  0  0
   59.4080   33.0500   50.2290 C   0  0  0  0  0  0  0  0  0  0  0  0
   59.8610   33.7770   51.3380 C   0  0  0  0  0  0  0  0  0  0  0  0
   59.2380   33.6050   52.5750 C   0  0  0  0  0  0  0  0  0  0  0  0
   58.1990   32.7370   52.7050 N   0  0  0  0  0  0  0  0  0  0  0  0
   57.7420   32.0050   51.6470 C   0  0  0  0  0  0  0  0  0  0  0  0
   56.5670   31.0890   51.8150 C   0  0  0  0  0  0  0  0  0  0  0  0
   58.3330   32.1650   50.3860 C   0  0  0  0  0  0  0  0  0  0  0  0
   58.0370   33.5470   47.4410 C   0  0  0  0  0  0  0  0  0  0  0  0
   57.0240   32.3100   45.4650 C   0  0  0  0  0  0  0  0  0  0  0  0
   57.6232   29.7962   42.4397 H   0  0  0  0  0  0  0  0  0  0  0  0
   55.8775   29.4930   42.1446 H   0  0  0  0  0  0  0  0  0  0  0  0
   56.5096   31.1744   42.1446 H   0  0  0  0  0  0  0  0  0  0  0  0
   58.2837   29.4017   45.8936 H   0  0  0  0  0  0  0  0  0  0  0  0
   59.1999   30.2092   44.6161 H   0  0  0  0  0  0  0  0  0  0  0  0
   58.7611   31.0237   47.4801 H   0  0  0  0  0  0  0  0  0  0  0  0
   60.1164   31.4337   46.4158 H   0  0  0  0  0  0  0  0  0  0  0  0
   59.5458   32.9161   44.3604 H   0  0  0  0  0  0  0  0  0  0  0  0
   58.5760   34.3876   44.8105 H   0  0  0  0  0  0  0  0  0  0  0  0
   61.1193   33.3781   46.1543 H   0  0  0  0  0  0  0  0  0  0  0  0
   60.9135   34.8682   45.1531 H   0  0  0  0  0  0  0  0  0  0  0  0
   60.9282   35.3250   47.6159 H   0  0  0  0  0  0  0  0  0  0  0  0
   59.3854   35.8093   46.7792 H   0  0  0  0  0  0  0  0  0  0  0  0
   60.1051   32.2634   48.3670 H   0  0  0  0  0  0  0  0  0  0  0  0
   61.0508   33.6554   49.0052 H   0  0  0  0  0  0  0  0  0  0  0  0
   60.7019   34.4785   51.2343 H   0  0  0  0  0  0  0  0  0  0  0  0
   59.5888   34.1739   53.4486 H   0  0  0  0  0  0  0  0  0  0  0  0
   57.7460   32.6380   53.6410 H   0  0  0  0  0  0  0  0  0  0  0  0
   56.3713   30.9364   52.8866 H   0  0  0  0  0  0  0  0  0  0  0  0
   55.6816   31.5376   51.3408 H   0  0  0  0  0  0  0  0  0  0  0  0
   56.7860   30.1209   51.3408 H   0  0  0  0  0  0  0  0  0  0  0  0
   57.9543   31.5979   49.5229 H   0  0  0  0  0  0  0  0  0  0  0  0
   57.5695   32.8795   48.1799 H   0  0  0  0  0  0  0  0  0  0  0  0
   57.3760   34.3711   47.1344 H   0  0  0  0  0  0  0  0  0  0  0  0
   56.1956   32.3077   46.1887 H   0  0  0  0  0  0  0  0  0  0  0  0
   56.7521   33.0140   44.6647 H   0  0  0  0  0  0  0  0  0  0  0  0
  1  2  1  0
  2  3  2  0
  2  4  1  0
  4  5  1  0
  5  6  1  0
  7  6  1  1
  7  8  1  0
  8  9  1  0
  9 10  1  0
 10 11  1  0
 11 12  1  0
 12 13  1  0
 13 14  2  0
 14 15  1  0
 15 16  2  0
 16 17  1  0
 17 18  1  0
 17 19  2  0
 11 20  1  0
  7 21  1  0
 21  4  1  0
 20  7  1  0
 19 13  1  0
  1 22  1  0
  1 23  1  0
  1 24  1  0
  5 25  1  0
  5 26  1  0
  6 27  1  0
  6 28  1  0
  8 29  1  0
  8 30  1  0
  9 31  1  0
  9 32  1  0
 10 33  1  0
 10 34  1  0
 12 35  1  0
 12 36  1  0
 14 37  1  0
 15 38  1  0
 16 39  1  0
 18 40  1  0
 18 41  1  0
 18 42  1  0
 19 43  1  0
 20 44  1  0
 20 45  1  0
 21 46  1  0
 21 47  1  0
M  CHG  1  16   1
M  END
>  <UniqueID>  (11) 
11

>  <SMILES>  (11) 
CC(=O)N1CC[C@@]2(CCCN(Cc3cc[nH+]c(C)c3)C2)C1

>  <Energy>  (11) 
49.96658806613348

>  <Genealogy>  (11) 
CC(=O)N1CCC2(CCCN(Cc3cc[nH+]c(C)c3)C2)C1 (protonated)
CC(=O)N1CC[C@@]2(CCCN(Cc3cc[nH+]c(C)c3)C2)C1 (chirality)
CC(=O)N1CC[C@@]2(CCCN(Cc3cc[nH+]c(C)c3)C2)C1 (3D coordinates assigned)
CC(=O)N1CC[C@@]2(CCCN(Cc3cc[nH+]c(C)c3)C2)C1 (nonaromatic ring conformer: 49.96658806613348 kcal/mol)

>  <smiles>  (11) 
CC(=O)N1CCC2(CCCN(Cc3ccnc(C)c3)C2)C1

>  <score_type>  (11) 
oracle

>  <origin>  (11) 
adg

>  <m_score__min__energy>  (11) 
-6.2300000000000004

>  <m_primary>  (11) 
energy

$$$$
11:0
     RDKit          3D

 63 65  0  0  0  0  0  0  0  0999 V2000
   63.3040   33.8640   46.7060 C   0  0  0  0  0  0  0  0  0  0  0  0
   62.8950   32.4510   47.1240 C   0  0  0  0  0  0  0  0  0  0  0  0
   62.5990   32.3440   48.6320 C   0  0  0  0  0  0  0  0  0  0  0  0
   62.2400   30.9730   49.0500 N   0  0  0  0  0  0  0  0  0  0  0  0
   62.3740   30.7420   50.4970 C   0  0  0  0  0  0  0  0  0  0  0  0
   61.0410   30.3960   51.1960 C   0  0  0  0  0  0  0  0  0  0  0  0
   60.5660   31.4190   52.2450 C   0  0  0  0  0  0  0  0  0  0  0  0
   59.0660   31.7320   52.1460 C   0  0  0  0  0  0  0  0  0  0  0  0
   58.7960   32.7760   51.0560 C   0  0  0  0  0  0  0  0  0  0  0  0
   58.4460   32.0980   49.7110 C   0  0  0  0  0  0  0  0  0  0  0  0
   59.6020   31.6970   48.8640 N   0  0  0  0  0  0  0  0  0  0  0  0
   59.3790   31.6860   47.4240 C   0  0  0  0  0  0  0  0  0  0  0  0
   59.3170   32.9140   46.7170 C   0  0  0  0  0  0  0  0  0  0  0  0
   59.7470   34.1290   47.3030 C   0  0  0  0  0  0  0  0  0  0  0  0
   59.7150   35.3230   46.5870 C   0  0  0  0  0  0  0  0  0  0  0  0
   59.2690   35.3360   45.2740 C   0  0  0  0  0  0  0  0  0  0  0  0
   58.8310   34.1570   44.6750 C   0  0  0  0  0  0  0  0  0  0  0  0
   58.8180   32.9310   45.3890 C   0  0  0  0  0  0  0  0  0  0  0  0
   58.3350   31.7750   44.8200 N   0  0  0  0  0  0  0  0  0  0  0  0
   57.4870   31.8500   43.6080 C   0  0  0  0  0  0  0  0  0  0  0  0
   58.6380   30.5490   45.3800 C   0  0  0  0  0  0  0  0  0  0  0  0
   58.4440   29.3550   44.6460 C   0  0  0  0  0  0  0  0  0  0  0  0
   58.7140   28.1150   45.2020 C   0  0  0  0  0  0  0  0  0  0  0  0
   59.2250   28.0220   46.4830 C   0  0  0  0  0  0  0  0  0  0  0  0
   59.4930   29.1770   47.2390 C   0  0  0  0  0  0  0  0  0  0  0  0
   60.1180   29.0520   48.4910 O   0  0  0  0  0  0  0  0  0  0  0  0
   60.4980   27.8270   49.1100 C   0  0  0  0  0  0  0  0  0  0  0  0
   59.1710   30.4670   46.7040 C   0  0  0  0  0  0  0  0  0  0  0  0
   63.4809   34.4751   47.6034 H   0  0  0  0  0  0  0  0  0  0  0  0
   64.2254   33.8169   46.1070 H   0  0  0  0  0  0  0  0  0  0  0  0
   62.4999   34.3164   46.1070 H   0  0  0  0  0  0  0  0  0  0  0  0
   61.9909   32.1659   46.5660 H   0  0  0  0  0  0  0  0  0  0  0  0
   63.7371   31.7795   46.9003 H   0  0  0  0  0  0  0  0  0  0  0  0
   63.4942   32.6580   49.1889 H   0  0  0  0  0  0  0  0  0  0  0  0
   61.7363   32.9919   48.8466 H   0  0  0  0  0  0  0  0  0  0  0  0
   61.2990   30.6730   48.7120 H   0  0  0  0  0  0  0  0  0  0  0  0
   63.0743   29.9081   50.6523 H   0  0  0  0  0  0  0  0  0  0  0  0
   62.7355   31.6814   50.9406 H   0  0  0  0  0  0  0  0  0  0  0  0
   60.2625   30.3146   50.4231 H   0  0  0  0  0  0  0  0  0  0  0  0
   61.2173   29.4577   51.7424 H   0  0  0  0  0  0  0  0  0  0  0  0
   60.7738   31.0151   53.2468 H   0  0  0  0  0  0  0  0  0  0  0  0
   61.1095   32.3568   52.0577 H   0  0  0  0  0  0  0  0  0  0  0  0
   58.5206   30.8082   51.9030 H   0  0  0  0  0  0  0  0  0  0  0  0
   58.7266   32.1357   53.1113 H   0  0  0  0  0  0  0  0  0  0  0  0
   57.9541   33.4116   51.3678 H   0  0  0  0  0  0  0  0  0  0  0  0
   59.7051   33.3796   50.9171 H   0  0  0  0  0  0  0  0  0  0  0  0
   57.8606   31.1934   49.9321 H   0  0  0  0  0  0  0  0  0  0  0  0
   57.9001   32.8555   49.1295 H   0  0  0  0  0  0  0  0  0  0  0  0
   60.4440   32.2710   49.0950 H   0  0  0  0  0  0  0  0  0  0  0  0
   59.9260   30.7490   49.1650 H   0  0  0  0  0  0  0  0  0  0  0  0
   60.1123   34.1299   48.3406 H   0  0  0  0  0  0  0  0  0  0  0  0
   60.0442   36.2579   47.0640 H   0  0  0  0  0  0  0  0  0  0  0  0
   59.2611   36.2775   44.7053 H   0  0  0  0  0  0  0  0  0  0  0  0
   58.4891   34.1769   43.6297 H   0  0  0  0  0  0  0  0  0  0  0  0
   56.4317   31.9433   43.9041 H   0  0  0  0  0  0  0  0  0  0  0  0
   57.7789   32.7258   43.0099 H   0  0  0  0  0  0  0  0  0  0  0  0
   57.6206   30.9365   43.0099 H   0  0  0  0  0  0  0  0  0  0  0  0
   58.0712   29.4124   43.6127 H   0  0  0  0  0  0  0  0  0  0  0  0
   58.5209   27.2007   44.6216 H   0  0  0  0  0  0  0  0  0  0  0  0
   59.4247   27.0311   46.9169 H   0  0  0  0  0  0  0  0  0  0  0  0
   60.4623   27.9421   50.2034 H   0  0  0  0  0  0  0  0  0  0  0  0
   59.8048   27.0302   48.8024 H   0  0  0  0  0  0  0  0  0  0  0  0
   61.5204   27.5624   48.8024 H   0  0  0  0  0  0  0  0  0  0  0  0
  1  2  1  0
  2  3  1  0
  3  4  1  0
  4  5  1  0
  5  6  1  0
  6  7  1  0
  7  8  1  0
  8  9  1  0
  9 10  1  0
 10 11  1  0
 11 12  1  0
 12 13  2  0
 13 14  1  0
 14 15  2  0
 15 16  1  0
 16 17  2  0
 17 18  1  0
 18 19  2  0
 19 20  1  0
 19 21  1  0
 21 22  2  0
 22 23  1  0
 23 24  2  0
 24 25  1  0
 25 26  1  0
 26 27  1  0
 25 28  2  0
 28 12  1  0
 18 13  1  0
 28 21  1  0
  1 29  1  0
  1 30  1  0
  1 31  1  0
  2 32  1  0
  2 33  1  0
  3 34  1  0
  3 35  1  0
  4 36  1  0
  5 37  1  0
  5 38  1  0
  6 39  1  0
  6 40  1  0
  7 41  1  0
  7 42  1  0
  8 43  1  0
  8 44  1  0
  9 45  1  0
  9 46  1  0
 10 47  1  0
 10 48  1  0
 11 49  1  0
 11 50  1  0
 14 51  1  0
 15 52  1  0
 16 53  1  0
 17 54  1  0
 20 55  1  0
 20 56  1  0
 20 57  1  0
 22 58  1  0
 23 59  1  0
 24 60  1  0
 27 61  1  0
 27 62  1  0
 27 63  1  0
M  CHG  2  11   1  19   1
M  END
>  <UniqueID>  (12) 
12

>  <SMILES>  (12) 
CCCNCCCCCC[NH2+]c1c2ccccc2[n+](C)c2cccc(OC)c12

>  <Energy>  (12) 
94.7827871007209

>  <Genealogy>  (12) 
CCCNCCCCCC[NH2+]c1c2ccccc2[n+](C)c2cccc(OC)c12 (protonated)
CCCNCCCCCC[NH2+]c1c2ccccc2[n+](C)c2cccc(OC)c12 (3D coordinates assigned)
CCCNCCCCCC[NH2+]c1c2ccccc2[n+](C)c2cccc(OC)c12 (optimized conformer: 94.7827871007209 kcal/mol)

>  <smiles>  (12) 
CCCNCCCCCCNc1c2ccccc2[n+](C)c2cccc(OC)c12

>  <score_type>  (12) 
oracle

>  <origin>  (12) 
adg

>  <m_score__min__energy>  (12) 
-5.0899999999999999

>  <m_primary>  (12) 
energy

$$$$
12:0
     RDKit          3D

 54 54  0  0  0  0  0  0  0  0999 V2000
   58.1679   35.3598   45.0257 H   0  0  0  0  0  0  0  0  0  0  0  0
   58.4050   34.3560   45.4080 C   0  0  0  0  0  0  0  0  0  0  0  0
   57.7120   33.3200   44.9200 C   0  0  0  0  0  0  0  0  0  0  0  0
   56.7109   33.4902   44.4971 H   0  0  0  0  0  0  0  0  0  0  0  0
   58.2770   31.9320   44.9400 C   0  0  0  0  0  0  0  0  0  0  0  0
   59.2531   31.9439   45.4469 H   0  0  0  0  0  0  0  0  0  0  0  0
   58.3964   31.5773   43.9056 H   0  0  0  0  0  0  0  0  0  0  0  0
   57.4010   31.0590   45.6310 O   0  0  0  0  0  0  0  0  0  0  0  0
   57.8940   29.7310   45.6680 C   0  0  0  0  0  0  0  0  0  0  0  0
   58.0936   29.4543   46.7138 H   0  0  0  0  0  0  0  0  0  0  0  0
   58.8137   29.6909   45.0659 H   0  0  0  0  0  0  0  0  0  0  0  0
   56.8920   28.7350   45.0740 C   0  0  0  0  0  0  0  0  0  0  0  0
   56.7681   27.8888   45.7659 H   0  0  0  0  0  0  0  0  0  0  0  0
   57.2738   28.3781   44.1061 H   0  0  0  0  0  0  0  0  0  0  0  0
   55.5900   29.3840   44.8640 N   0  0  0  0  0  0  0  0  0  0  0  0
   55.4680   30.0940   45.6250 H   0  0  0  0  0  0  0  0  0  0  0  0
   55.5470   30.0950   43.5790 C   0  0  0  0  0  0  0  0  0  0  0  0
   55.7571   31.1615   43.7478 H   0  0  0  0  0  0  0  0  0  0  0  0
   54.5475   29.9718   43.1365 H   0  0  0  0  0  0  0  0  0  0  0  0
   56.5860   29.5240   42.6200 C   0  0  0  0  0  0  0  0  0  0  0  0
   57.4074   29.0726   43.1957 H   0  0  0  0  0  0  0  0  0  0  0  0
   56.1175   28.7567   41.9862 H   0  0  0  0  0  0  0  0  0  0  0  0
   56.9826   30.3309   41.9862 H   0  0  0  0  0  0  0  0  0  0  0  0
   59.4730   34.2370   46.4320 C   0  0  0  0  0  0  0  0  0  0  0  0
   60.7800   33.9490   46.0060 C   0  0  0  0  0  0  0  0  0  0  0  0
   60.9869   33.8190   44.9335 H   0  0  0  0  0  0  0  0  0  0  0  0
   61.8200   33.8260   46.9310 C   0  0  0  0  0  0  0  0  0  0  0  0
   62.8402   33.6060   46.5835 H   0  0  0  0  0  0  0  0  0  0  0  0
   61.5670   33.9820   48.2980 C   0  0  0  0  0  0  0  0  0  0  0  0
   62.6360   33.8400   49.2510 C   0  0  0  0  0  0  0  0  0  0  0  0
   63.5300   33.7260   50.0500 C   0  0  0  0  0  0  0  0  0  0  0  0
   64.6280   33.5860   51.0230 C   0  0  0  0  0  0  0  0  0  0  0  0
   65.4785   34.1975   50.6871 H   0  0  0  0  0  0  0  0  0  0  0  0
   64.2548   33.9205   52.0022 H   0  0  0  0  0  0  0  0  0  0  0  0
   65.0780   32.1800   51.1650 N   0  0  0  0  0  0  0  0  0  0  0  0
   65.1780   31.9960   52.1940 H   0  0  0  0  0  0  0  0  0  0  0  0
   66.4150   31.9330   50.5510 C   0  0  0  0  0  0  0  0  0  0  0  0
   66.8976   31.1128   51.1027 H   0  0  0  0  0  0  0  0  0  0  0  0
   66.2285   31.6973   49.4928 H   0  0  0  0  0  0  0  0  0  0  0  0
   67.3670   33.1390   50.5610 C   0  0  0  0  0  0  0  0  0  0  0  0
   67.5900   33.4215   51.6005 H   0  0  0  0  0  0  0  0  0  0  0  0
   68.3012   32.8730   50.0449 H   0  0  0  0  0  0  0  0  0  0  0  0
   66.8913   33.9859   50.0449 H   0  0  0  0  0  0  0  0  0  0  0  0
   64.0160   31.2680   50.6690 C   0  0  0  0  0  0  0  0  0  0  0  0
   63.0839   31.8423   50.5621 H   0  0  0  0  0  0  0  0  0  0  0  0
   64.3606   30.8569   49.7087 H   0  0  0  0  0  0  0  0  0  0  0  0
   63.7530   30.0820   51.6040 C   0  0  0  0  0  0  0  0  0  0  0  0
   63.8270   30.4159   52.6495 H   0  0  0  0  0  0  0  0  0  0  0  0
   62.7448   29.6840   51.4167 H   0  0  0  0  0  0  0  0  0  0  0  0
   64.4985   29.2951   51.4167 H   0  0  0  0  0  0  0  0  0  0  0  0
   60.2680   34.2600   48.7360 C   0  0  0  0  0  0  0  0  0  0  0  0
   60.0662   34.3815   49.8105 H   0  0  0  0  0  0  0  0  0  0  0  0
   59.2250   34.3840   47.8130 C   0  0  0  0  0  0  0  0  0  0  0  0
   58.2052   34.5974   48.1657 H   0  0  0  0  0  0  0  0  0  0  0  0
  1  2  1  0
  2  3  2  0
  3  4  1  0
  3  5  1  0
  5  6  1  0
  5  7  1  0
  5  8  1  0
  8  9  1  0
  9 10  1  0
  9 11  1  0
  9 12  1  0
 12 13  1  0
 12 14  1  0
 12 15  1  0
 15 16  1  0
 15 17  1  0
 17 18  1  0
 17 19  1  0
 17 20  1  0
 20 21  1  0
 20 22  1  0
 20 23  1  0
  2 24  1  0
 24 25  2  0
 25 26  1  0
 25 27  1  0
 27 28  1  0
 27 29  2  0
 29 30  1  0
 30 31  3  0
 31 32  1  0
 32 33  1  0
 32 34  1  0
 32 35  1  0
 35 36  1  0
 35 37  1  0
 37 38  1  0
 37 39  1  0
 37 40  1  0
 40 41  1  0
 40 42  1  0
 40 43  1  0
 35 44  1  0
 44 45  1  0
 44 46  1  0
 44 47  1  0
 47 48  1  0
 47 49  1  0
 47 50  1  0
 29 51  1  0
 51 52  1  0
 51 53  2  0
 53 54  1  0
 53 24  1  0
M  CHG  1  35   1
M  END
>  <UniqueID>  (13) 
13

>  <SMILES>  (13) 
CCNCCOC/C=C/c1ccc(C#CC[NH+](CC)CC)cc1

>  <Energy>  (13) 
46.40426501931623

>  <Genealogy>  (13) 
CCNCCOCC=Cc1ccc(C#CC[NH+](CC)CC)cc1 (protonated)
CCNCCOC/C=C/c1ccc(C#CC[NH+](CC)CC)cc1 (cis-trans isomerization)
CCNCCOC/C=C/c1ccc(C#CC[NH+](CC)CC)cc1 (3D coordinates assigned)
CCNCCOC/C=C/c1ccc(C#CC[NH+](CC)CC)cc1 (optimized conformer: 46.40426501931623 kcal/mol)

>  <smiles>  (13) 
CCNCCOCC=Cc1ccc(C#CCN(CC)CC)cc1

>  <score_type>  (13) 
oracle

>  <origin>  (13) 
adg

>  <m_score__min__energy>  (13) 
-5.5

>  <m_primary>  (13) 
energy

$$$$
13:0
     RDKit          3D

 45 47  0  0  0  0  0  0  0  0999 V2000
   58.3130   32.7460   43.3270 C   0  0  0  0  0  0  0  0  0  0  0  0
   58.3180   32.2030   44.7040 N   0  0  0  0  0  0  0  0  0  0  0  0
   58.7030   33.0060   45.7620 C   0  0  0  0  0  0  0  0  0  0  0  0
   58.8320   34.4130   45.6230 C   0  0  0  0  0  0  0  0  0  0  0  0
   59.3040   35.2000   46.6730 C   0  0  0  0  0  0  0  0  0  0  0  0
   59.6530   34.6150   47.8830 C   0  0  0  0  0  0  0  0  0  0  0  0
   59.4890   33.2450   48.0680 C   0  0  0  0  0  0  0  0  0  0  0  0
   58.9740   32.4330   47.0340 C   0  0  0  0  0  0  0  0  0  0  0  0
   58.7400   31.0610   47.2420 C   0  0  0  0  0  0  0  0  0  0  0  0
   58.9610   30.4750   48.5370 N   0  0  0  0  0  0  0  0  0  0  0  0
   60.2910   30.0300   48.9590 C   0  0  0  0  0  0  0  0  0  0  0  0
   60.7820   30.8080   50.1930 C   0  0  0  0  0  0  0  0  0  0  0  0
   60.1050   30.4030   51.4400 N   0  0  0  0  0  0  0  0  0  0  0  0
   59.2790   31.4880   51.9990 C   0  0  0  0  0  0  0  0  0  0  0  0
   57.7860   31.2390   51.7450 C   0  0  0  0  0  0  0  0  0  0  0  0
   57.5890   30.0220   51.0770 O   0  0  0  0  0  0  0  0  0  0  0  0
   58.2320   30.2780   46.1880 C   0  0  0  0  0  0  0  0  0  0  0  0
   57.9520   28.9080   46.3750 C   0  0  0  0  0  0  0  0  0  0  0  0
   57.3750   28.1510   45.3560 C   0  0  0  0  0  0  0  0  0  0  0  0
   57.0170   26.4540   45.6200 Cl  0  0  0  0  0  0  0  0  0  0  0  0
   57.0610   28.7480   44.1410 C   0  0  0  0  0  0  0  0  0  0  0  0
   57.3490   30.0950   43.9260 C   0  0  0  0  0  0  0  0  0  0  0  0
   57.9770   30.8810   44.9260 C   0  0  0  0  0  0  0  0  0  0  0  0
   58.3029   33.8452   43.3664 H   0  0  0  0  0  0  0  0  0  0  0  0
   59.2143   32.4064   42.7957 H   0  0  0  0  0  0  0  0  0  0  0  0
   57.4181   32.3899   42.7957 H   0  0  0  0  0  0  0  0  0  0  0  0
   58.5551   34.8902   44.6714 H   0  0  0  0  0  0  0  0  0  0  0  0
   59.4002   36.2880   46.5423 H   0  0  0  0  0  0  0  0  0  0  0  0
   60.0594   35.2346   48.6960 H   0  0  0  0  0  0  0  0  0  0  0  0
   59.7638   32.7898   49.0309 H   0  0  0  0  0  0  0  0  0  0  0  0
   58.2070   30.5550   49.2550 H   0  0  0  0  0  0  0  0  0  0  0  0
   60.2477   28.9589   49.2059 H   0  0  0  0  0  0  0  0  0  0  0  0
   60.9941   30.2139   48.1333 H   0  0  0  0  0  0  0  0  0  0  0  0
   61.8621   30.6349   50.3090 H   0  0  0  0  0  0  0  0  0  0  0  0
   60.5507   31.8701   50.0244 H   0  0  0  0  0  0  0  0  0  0  0  0
   60.8030   30.0850   52.1500 H   0  0  0  0  0  0  0  0  0  0  0  0
   59.4800   29.5920   51.2170 H   0  0  0  0  0  0  0  0  0  0  0  0
   59.4529   31.5485   53.0835 H   0  0  0  0  0  0  0  0  0  0  0  0
   59.5629   32.4297   51.5065 H   0  0  0  0  0  0  0  0  0  0  0  0
   57.2564   31.2109   52.7087 H   0  0  0  0  0  0  0  0  0  0  0  0
   57.3957   32.0527   51.1161 H   0  0  0  0  0  0  0  0  0  0  0  0
   56.6590   29.7350   51.2750 H   0  0  0  0  0  0  0  0  0  0  0  0
   58.1919   28.4310   47.3367 H   0  0  0  0  0  0  0  0  0  0  0  0
   56.5837   28.1558   43.3463 H   0  0  0  0  0  0  0  0  0  0  0  0
   57.0844   30.5567   42.9633 H   0  0  0  0  0  0  0  0  0  0  0  0
  1  2  1  0
  2  3  2  0
  3  4  1  0
  4  5  2  0
  5  6  1  0
  6  7  2  0
  7  8  1  0
  8  9  2  0
  9 10  1  0
 10 11  1  0
 11 12  1  0
 12 13  1  0
 13 14  1  0
 14 15  1  0
 15 16  1  0
  9 17  1  0
 17 18  2  0
 18 19  1  0
 19 20  1  0
 19 21  2  0
 21 22  1  0
 22 23  2  0
 23  2  1  0
  8  3  1  0
 23 17  1  0
  1 24  1  0
  1 25  1  0
  1 26  1  0
  4 27  1  0
  5 28  1  0
  6 29  1  0
  7 30  1  0
 10 31  1  0
 11 32  1  0
 11 33  1  0
 12 34  1  0
 12 35  1  0
 13 36  1  0
 13 37  1  0
 14 38  1  0
 14 39  1  0
 15 40  1  0
 15 41  1  0
 16 42  1  0
 18 43  1  0
 21 44  1  0
 22 45  1  0
M  CHG  2   2   1  13   1
M  END
>  <UniqueID>  (14) 
14

>  <SMILES>  (14) 
C[n+]1c2ccccc2c(NCC[NH2+]CCO)c2cc(Cl)ccc21

>  <Energy>  (14) 
70.11933610588603

>  <Genealogy>  (14) 
C[n+]1c2ccccc2c(NCC[NH2+]CCO)c2cc(Cl)ccc21 (protonated)
C[n+]1c2ccccc2c(NCC[NH2+]CCO)c2cc(Cl)ccc21 (3D coordinates assigned)
C[n+]1c2ccccc2c(NCC[NH2+]CCO)c2cc(Cl)ccc21 (optimized conformer: 70.11933610588603 kcal/mol)

>  <smiles>  (14) 
C[n+]1c2ccccc2c(NCCNCCO)c2cc(Cl)ccc21

>  <score_type>  (14) 
oracle

>  <origin>  (14) 
adg

>  <m_score__min__energy>  (14) 
-5

>  <m_primary>  (14) 
energy

$$$$
14:0
     RDKit          3D

 70 72  0  0  0  0  0  0  0  0999 V2000
   63.4330   34.2010   50.8160 C   0  0  0  0  0  0  0  0  0  0  0  0
   61.9720   33.8470   51.1350 C   0  0  0  0  0  0  0  0  0  0  0  0
   61.1200   33.6020   49.9380 N   0  0  0  0  0  0  0  0  0  0  0  0
   59.6790   33.8900   50.1680 C   0  0  0  0  0  0  0  0  0  0  0  0
   59.2070   33.5530   51.5880 C   0  0  0  0  0  0  0  0  0  0  0  0
   61.6410   34.3520   48.7630 C   0  0  0  0  0  0  0  0  0  0  0  0
   61.9680   33.4670   47.5480 C   0  0  0  0  0  0  0  0  0  0  0  0
   61.7480   32.1020   47.8500 O   0  0  0  0  0  0  0  0  0  0  0  0
   62.9210   31.4880   48.3600 C   0  0  0  0  0  0  0  0  0  0  0  0
   62.7300   30.9430   49.7820 C   0  0  0  0  0  0  0  0  0  0  0  0
   61.5440   30.1640   49.8430 O   0  0  0  0  0  0  0  0  0  0  0  0
   60.4540   30.9560   50.1100 N   0  0  0  0  0  0  0  0  0  0  0  0
   59.2520   30.1510   50.3650 C   0  0  0  0  0  0  0  0  0  0  0  0
   58.7580   29.4540   49.0880 C   0  0  0  0  0  0  0  0  0  0  0  0
   59.4580   29.9570   47.9100 N   0  0  0  0  0  0  0  0  0  0  0  0
   58.7710   30.1520   46.6630 C   0  0  0  0  0  0  0  0  0  0  0  0
   58.5140   31.4550   46.2050 C   0  0  0  0  0  0  0  0  0  0  0  0
   58.8530   32.5760   46.9920 C   0  0  0  0  0  0  0  0  0  0  0  0
   58.6570   33.8680   46.5110 C   0  0  0  0  0  0  0  0  0  0  0  0
   58.1330   34.0650   45.2390 C   0  0  0  0  0  0  0  0  0  0  0  0
   57.7700   32.9730   44.4520 C   0  0  0  0  0  0  0  0  0  0  0  0
   57.9180   31.6450   44.9300 C   0  0  0  0  0  0  0  0  0  0  0  0
   57.5230   30.5540   44.1800 N   0  0  0  0  0  0  0  0  0  0  0  0
   56.6580   30.7440   42.9940 C   0  0  0  0  0  0  0  0  0  0  0  0
   57.9210   29.2810   44.5470 C   0  0  0  0  0  0  0  0  0  0  0  0
   57.7890   28.1770   43.6700 C   0  0  0  0  0  0  0  0  0  0  0  0
   58.1740   26.8940   44.0570 C   0  0  0  0  0  0  0  0  0  0  0  0
   58.7130   26.6710   45.3290 C   0  0  0  0  0  0  0  0  0  0  0  0
   59.1120   25.3980   45.7650 O   0  0  0  0  0  0  0  0  0  0  0  0
   58.3990   24.1950   45.4990 C   0  0  0  0  0  0  0  0  0  0  0  0
   58.8760   27.7490   46.1970 C   0  0  0  0  0  0  0  0  0  0  0  0
   58.5130   29.0570   45.8180 C   0  0  0  0  0  0  0  0  0  0  0  0
   63.9908   34.3362   51.7544 H   0  0  0  0  0  0  0  0  0  0  0  0
   63.8885   33.3872   50.2326 H   0  0  0  0  0  0  0  0  0  0  0  0
   63.4655   35.1330   50.2326 H   0  0  0  0  0  0  0  0  0  0  0  0
   61.9661   32.9370   51.7529 H   0  0  0  0  0  0  0  0  0  0  0  0
   61.5441   34.7197   51.6501 H   0  0  0  0  0  0  0  0  0  0  0  0
   61.2050   32.5780   49.7330 H   0  0  0  0  0  0  0  0  0  0  0  0
   59.5050   34.9612   49.9882 H   0  0  0  0  0  0  0  0  0  0  0  0
   59.1073   33.2529   49.4772 H   0  0  0  0  0  0  0  0  0  0  0  0
   59.8756   34.0303   52.3196 H   0  0  0  0  0  0  0  0  0  0  0  0
   58.1816   33.9245   51.7314 H   0  0  0  0  0  0  0  0  0  0  0  0
   59.2254   32.4625   51.7314 H   0  0  0  0  0  0  0  0  0  0  0  0
   60.8828   35.0889   48.4596 H   0  0  0  0  0  0  0  0  0  0  0  0
   62.5854   34.8196   49.0783 H   0  0  0  0  0  0  0  0  0  0  0  0
   61.3243   33.7587   46.7051 H   0  0  0  0  0  0  0  0  0  0  0  0
   63.0271   33.6048   47.2848 H   0  0  0  0  0  0  0  0  0  0  0  0
   63.1993   30.6550   47.6977 H   0  0  0  0  0  0  0  0  0  0  0  0
   63.7087   32.2548   48.3996 H   0  0  0  0  0  0  0  0  0  0  0  0
   63.5928   30.3164   50.0520 H   0  0  0  0  0  0  0  0  0  0  0  0
   62.6486   31.7845   50.4858 H   0  0  0  0  0  0  0  0  0  0  0  0
   60.2740   31.6800   49.3740 H   0  0  0  0  0  0  0  0  0  0  0  0
   59.4874   29.3871   51.1206 H   0  0  0  0  0  0  0  0  0  0  0  0
   58.4567   30.8225   50.7206 H   0  0  0  0  0  0  0  0  0  0  0  0
   58.9365   28.3722   49.1772 H   0  0  0  0  0  0  0  0  0  0  0  0
   57.6839   29.6604   48.9706 H   0  0  0  0  0  0  0  0  0  0  0  0
   60.3830   30.4320   48.0290 H   0  0  0  0  0  0  0  0  0  0  0  0
   59.2766   32.4277   47.9963 H   0  0  0  0  0  0  0  0  0  0  0  0
   58.9171   34.7333   47.1383 H   0  0  0  0  0  0  0  0  0  0  0  0
   58.0042   35.0865   44.8517 H   0  0  0  0  0  0  0  0  0  0  0  0
   57.3624   33.1434   43.4446 H   0  0  0  0  0  0  0  0  0  0  0  0
   55.6321   30.9693   43.3207 H   0  0  0  0  0  0  0  0  0  0  0  0
   57.0422   31.5792   42.3899 H   0  0  0  0  0  0  0  0  0  0  0  0
   56.6569   29.8247   42.3899 H   0  0  0  0  0  0  0  0  0  0  0  0
   57.3745   28.3348   42.6634 H   0  0  0  0  0  0  0  0  0  0  0  0
   58.0534   26.0526   43.3587 H   0  0  0  0  0  0  0  0  0  0  0  0
   58.1165   23.7184   46.4493 H   0  0  0  0  0  0  0  0  0  0  0  0
   57.4921   24.4264   44.9211 H   0  0  0  0  0  0  0  0  0  0  0  0
   59.0374   23.5106   44.9211 H   0  0  0  0  0  0  0  0  0  0  0  0
   59.2966   27.5754   47.1985 H   0  0  0  0  0  0  0  0  0  0  0  0
  1  2  1  0
  2  3  1  0
  3  4  1  0
  4  5  1  0
  3  6  1  0
  6  7  1  0
  7  8  1  0
  8  9  1  0
  9 10  1  0
 10 11  1  0
 11 12  1  0
 12 13  1  0
 13 14  1  0
 14 15  1  0
 15 16  1  0
 16 17  2  0
 17 18  1  0
 18 19  2  0
 19 20  1  0
 20 21  2  0
 21 22  1  0
 22 23  2  0
 23 24  1  0
 23 25  1  0
 25 26  2  0
 26 27  1  0
 27 28  2  0
 28 29  1  0
 29 30  1  0
 28 31  1  0
 31 32  2  0
 32 16  1  0
 22 17  1  0
 32 25  1  0
  1 33  1  0
  1 34  1  0
  1 35  1  0
  2 36  1  0
  2 37  1  0
  3 38  1  0
  4 39  1  0
  4 40  1  0
  5 41  1  0
  5 42  1  0
  5 43  1  0
  6 44  1  0
  6 45  1  0
  7 46  1  0
  7 47  1  0
  9 48  1  0
  9 49  1  0
 10 50  1  0
 10 51  1  0
 12 52  1  0
 13 53  1  0
 13 54  1  0
 14 55  1  0
 14 56  1  0
 15 57  1  0
 18 58  1  0
 19 59  1  0
 20 60  1  0
 21 61  1  0
 24 62  1  0
 24 63  1  0
 24 64  1  0
 26 65  1  0
 27 66  1  0
 30 67  1  0
 30 68  1  0
 30 69  1  0
 31 70  1  0
M  CHG  2   3   1  23   1
M  END
>  <UniqueID>  (15) 
15

>  <SMILES>  (15) 
CC[NH+](CC)CCOCCONCCNc1c2ccccc2[n+](C)c2ccc(OC)cc12

>  <Energy>  (15) 
97.7994925779285

>  <Genealogy>  (15) 
CC[NH+](CC)CCOCCONCCNc1c2ccccc2[n+](C)c2ccc(OC)cc12 (protonated)
CC[NH+](CC)CCOCCONCCNc1c2ccccc2[n+](C)c2ccc(OC)cc12 (3D coordinates assigned)
CC[NH+](CC)CCOCCONCCNc1c2ccccc2[n+](C)c2ccc(OC)cc12 (optimized conformer: 97.7994925779285 kcal/mol)

>  <smiles>  (15) 
CCN(CC)CCOCCONCCNc1c2ccccc2[n+](C)c2ccc(OC)cc12

>  <score_type>  (15) 
oracle

>  <origin>  (15) 
adg

>  <m_score__min__energy>  (15) 
-3.46

>  <m_primary>  (15) 
energy

$$$$
15:0
     RDKit          3D

 42 43  0  0  0  0  0  0  0  0999 V2000
   56.5450   29.4180   42.6850 C   0  0  0  0  0  0  0  0  0  0  0  0
   56.2460   30.4200   43.7870 C   0  0  0  0  0  0  0  0  0  0  0  0
   55.9640   29.7220   44.9830 O   0  0  0  0  0  0  0  0  0  0  0  0
   56.6370   28.4770   44.9970 C   0  0  0  0  0  0  0  0  0  0  0  0
   57.8580   28.5550   45.8550 C   0  0  0  0  0  0  0  0  0  0  0  0
   58.5160   29.7050   46.1150 N   0  0  0  0  0  0  0  0  0  0  0  0
   59.5650   29.5080   46.9600 C   0  0  0  0  0  0  0  0  0  0  0  0
   60.4780   30.6330   47.3660 C   0  0  0  0  0  0  0  0  0  0  0  0
   60.0150   31.9490   46.8530 N   0  0  2  0  0  0  0  0  0  0  0  0
   61.1460   32.9150   46.9100 C   0  0  0  0  0  0  0  0  0  0  0  0
   60.7480   34.4130   46.7820 C   0  0  0  0  0  0  0  0  0  0  0  0
   59.5910   34.7350   45.8210 C   0  0  0  0  0  0  0  0  0  0  0  0
   58.1720   34.5890   46.4170 C   0  0  0  0  0  0  0  0  0  0  0  0
   57.7510   33.1550   46.8160 C   0  0  1  0  0  0  0  0  0  0  0  0
   57.4310   32.3670   45.6210 N   0  0  0  0  0  0  0  0  0  0  0  0
   58.8310   32.4070   47.6320 C   0  0  0  0  0  0  0  0  0  0  0  0
   59.7470   28.1920   47.3800 C   0  0  0  0  0  0  0  0  0  0  0  0
   58.5430   27.2550   46.6720 S   0  0  0  0  0  0  0  0  0  0  0  0
   56.8323   28.4553   43.1329 H   0  0  0  0  0  0  0  0  0  0  0  0
   55.6490   29.2798   42.0621 H   0  0  0  0  0  0  0  0  0  0  0  0
   57.3703   29.7934   42.0621 H   0  0  0  0  0  0  0  0  0  0  0  0
   57.1187   31.0724   43.9383 H   0  0  0  0  0  0  0  0  0  0  0  0
   55.3789   31.0347   43.5035 H   0  0  0  0  0  0  0  0  0  0  0  0
   55.9626   27.7048   45.3956 H   0  0  0  0  0  0  0  0  0  0  0  0
   56.9379   28.2223   43.9701 H   0  0  0  0  0  0  0  0  0  0  0  0
   60.5192   30.6762   48.4644 H   0  0  0  0  0  0  0  0  0  0  0  0
   61.4698   30.4337   46.9341 H   0  0  0  0  0  0  0  0  0  0  0  0
   59.7350   31.7890   45.8600 H   0  0  0  0  0  0  0  0  0  0  0  0
   61.6591   32.7809   47.8737 H   0  0  0  0  0  0  0  0  0  0  0  0
   61.7795   32.6932   46.0386 H   0  0  0  0  0  0  0  0  0  0  0  0
   60.4609   34.7693   47.7823 H   0  0  0  0  0  0  0  0  0  0  0  0
   61.6296   34.9134   46.3549 H   0  0  0  0  0  0  0  0  0  0  0  0
   59.7111   35.7745   45.4820 H   0  0  0  0  0  0  0  0  0  0  0  0
   59.6562   33.9945   45.0102 H   0  0  0  0  0  0  0  0  0  0  0  0
   58.1181   35.2188   47.3172 H   0  0  0  0  0  0  0  0  0  0  0  0
   57.4805   34.8903   45.6164 H   0  0  0  0  0  0  0  0  0  0  0  0
   56.8647   33.2656   47.4581 H   0  0  0  0  0  0  0  0  0  0  0  0
   57.1550   31.4020   45.9160 H   0  0  0  0  0  0  0  0  0  0  0  0
   56.6090   32.7900   45.1330 H   0  0  0  0  0  0  0  0  0  0  0  0
   59.1863   33.0821   48.4245 H   0  0  0  0  0  0  0  0  0  0  0  0
   58.3470   31.4957   48.0130 H   0  0  0  0  0  0  0  0  0  0  0  0
   60.5372   27.8304   48.0544 H   0  0  0  0  0  0  0  0  0  0  0  0
  1  2  1  0
  2  3  1  0
  3  4  1  0
  4  5  1  0
  5  6  2  0
  6  7  1  0
  7  8  1  0
  8  9  1  0
  9 10  1  0
 10 11  1  0
 11 12  1  0
 12 13  1  0
 13 14  1  0
 14 15  1  0
 14 16  1  0
  7 17  2  0
 17 18  1  0
 18  5  1  0
 16  9  1  0
  1 19  1  0
  1 20  1  0
  1 21  1  0
  2 22  1  0
  2 23  1  0
  4 24  1  0
  4 25  1  0
  8 26  1  0
  8 27  1  0
  9 28  1  6
 10 29  1  0
 10 30  1  0
 11 31  1  0
 11 32  1  0
 12 33  1  0
 12 34  1  0
 13 35  1  0
 13 36  1  0
 14 37  1  1
 15 38  1  0
 15 39  1  0
 16 40  1  0
 16 41  1  0
 17 42  1  0
M  CHG  1   9   1
M  END
>  <UniqueID>  (16) 
16

>  <SMILES>  (16) 
CCOCc1nc(C[N@@H+]2CCCC[C@@H](N)C2)cs1

>  <Energy>  (16) 
82.0444961132167

>  <Genealogy>  (16) 
CCOCc1nc(C[NH+]2CCCCC(N)C2)cs1 (protonated)
CCOCc1nc(C[N@@H+]2CCCC[C@@H](N)C2)cs1 (chirality)
CCOCc1nc(C[N@@H+]2CCCC[C@@H](N)C2)cs1 (3D coordinates assigned)
CCOCc1nc(C[N@@H+]2CCCC[C@@H](N)C2)cs1 (nonaromatic ring conformer: 82.0444961132167 kcal/mol)

>  <smiles>  (16) 
CCOCc1nc(CN2CCCCC(N)C2)cs1

>  <score_type>  (16) 
oracle

>  <origin>  (16) 
adg

>  <m_score__min__energy>  (16) 
-3.0099999999999998

>  <m_primary>  (16) 
energy

$$$$
