0:0
     RDKit          3D

 52 55  0  0  0  0  0  0  0  0999 V2000
   59.6390   35.2230   45.8050 C   0  0  0  0  0  0  0  0  0  0  0  0
   59.1770   33.9030   45.1910 C   0  0  0  0  0  0  0  0  0  0  0  0
   57.9630   33.4040   45.8790 N   0  0  0  0  0  0  0  0  0  0  0  0
   57.6070   32.0470   45.4010 C   0  0  0  0  0  0  0  0  0  0  0  0
   57.7530   31.9690   43.8830 C   0  0  0  0  0  0  0  0  0  0  0  0
   58.1340   33.4210   47.3500 C   0  0  0  0  0  0  0  0  0  0  0  0
   58.5040   32.0220   47.8590 C   0  0  0  0  0  0  0  0  0  0  0  0
   59.9060   31.7190   47.5530 N   0  0  0  0  0  0  0  0  0  0  0  0
   60.4360   30.6610   46.8680 C   0  0  0  0  0  0  0  0  0  0  0  0
   59.6760   29.5180   46.3150 C   0  0  0  0  0  0  0  0  0  0  0  0
   59.5100   29.2570   44.9530 C   0  0  0  0  0  0  0  0  0  0  0  0
   58.8110   28.0680   44.7100 C   0  0  0  0  0  0  0  0  0  0  0  0
   58.4870   27.5490   43.4550 C   0  0  0  0  0  0  0  0  0  0  0  0
   57.7860   26.3350   43.3830 C   0  0  0  0  0  0  0  0  0  0  0  0
   57.4160   25.6520   44.5580 C   0  0  0  0  0  0  0  0  0  0  0  0
   57.7410   26.1780   45.8240 C   0  0  0  0  0  0  0  0  0  0  0  0
   57.3640   25.4600   47.0870 C   0  0  0  0  0  0  0  0  0  0  0  0
   58.4420   27.3890   45.8630 C   0  0  0  0  0  0  0  0  0  0  0  0
   58.9810   28.2530   47.1980 S   0  0  0  0  0  0  0  0  0  0  0  0
   61.7850   30.7560   46.7430 N   0  0  0  0  0  0  0  0  0  0  0  0
   62.1050   31.8910   47.3840 C   0  0  0  0  0  0  0  0  0  0  0  0
   63.3700   32.4480   47.5640 C   0  0  0  0  0  0  0  0  0  0  0  0
   63.4520   33.6570   48.2810 C   0  0  0  0  0  0  0  0  0  0  0  0
   62.2840   34.2670   48.7920 C   0  0  0  0  0  0  0  0  0  0  0  0
   61.0230   33.6750   48.5920 C   0  0  0  0  0  0  0  0  0  0  0  0
   60.9760   32.4750   47.8760 C   0  0  0  0  0  0  0  0  0  0  0  0
   59.6122   35.1464   46.9020 H   0  0  0  0  0  0  0  0  0  0  0  0
   60.6665   35.4399   45.4776 H   0  0  0  0  0  0  0  0  0  0  0  0
   58.9711   36.0333   45.4776 H   0  0  0  0  0  0  0  0  0  0  0  0
   58.9504   34.0595   44.1260 H   0  0  0  0  0  0  0  0  0  0  0  0
   59.9796   33.1593   45.3042 H   0  0  0  0  0  0  0  0  0  0  0  0
   58.2757   31.3096   45.8690 H   0  0  0  0  0  0  0  0  0  0  0  0
   56.5631   31.8323   45.6733 H   0  0  0  0  0  0  0  0  0  0  0  0
   58.6974   31.4645   43.6309 H   0  0  0  0  0  0  0  0  0  0  0  0
   56.9102   31.4010   43.4623 H   0  0  0  0  0  0  0  0  0  0  0  0
   57.7566   32.9854   43.4623 H   0  0  0  0  0  0  0  0  0  0  0  0
   58.9352   34.1269   47.6141 H   0  0  0  0  0  0  0  0  0  0  0  0
   57.1880   33.7330   47.8167 H   0  0  0  0  0  0  0  0  0  0  0  0
   58.3541   31.9815   48.9480 H   0  0  0  0  0  0  0  0  0  0  0  0
   57.8624   31.2805   47.3604 H   0  0  0  0  0  0  0  0  0  0  0  0
   59.8878   29.9149   44.1565 H   0  0  0  0  0  0  0  0  0  0  0  0
   58.7763   28.0827   42.5377 H   0  0  0  0  0  0  0  0  0  0  0  0
   57.5236   25.9138   42.4013 H   0  0  0  0  0  0  0  0  0  0  0  0
   56.8689   24.7004   44.4866 H   0  0  0  0  0  0  0  0  0  0  0  0
   57.6776   26.0572   47.9559 H   0  0  0  0  0  0  0  0  0  0  0  0
   56.2739   25.3158   47.1154 H   0  0  0  0  0  0  0  0  0  0  0  0
   57.8642   24.4807   47.1154 H   0  0  0  0  0  0  0  0  0  0  0  0
   62.4380   30.0870   46.2790 H   0  0  0  0  0  0  0  0  0  0  0  0
   64.2704   31.9613   47.1610 H   0  0  0  0  0  0  0  0  0  0  0  0
   64.4316   34.1299   48.4445 H   0  0  0  0  0  0  0  0  0  0  0  0
   62.3611   35.2117   49.3503 H   0  0  0  0  0  0  0  0  0  0  0  0
   60.1068   34.1399   48.9851 H   0  0  0  0  0  0  0  0  0  0  0  0
  1  2  1  0
  2  3  1  0
  3  4  1  0
  4  5  1  0
  3  6  1  0
  6  7  1  0
  7  8  1  0
  8  9  1  0
  9 10  1  0
 10 11  2  0
 11 12  1  0
 12 13  2  0
 13 14  1  0
 14 15  2  0
 15 16  1  0
 16 17  1  0
 16 18  2  0
 18 19  1  0
  9 20  2  0
 20 21  1  0
 21 22  2  0
 22 23  1  0
 23 24  2  0
 24 25  1  0
 25 26  2  0
 26  8  1  0
 19 10  1  0
 26 21  1  0
 18 12  1  0
  1 27  1  0
  1 28  1  0
  1 29  1  0
  2 30  1  0
  2 31  1  0
  4 32  1  0
  4 33  1  0
  5 34  1  0
  5 35  1  0
  5 36  1  0
  6 37  1  0
  6 38  1  0
  7 39  1  0
  7 40  1  0
 11 41  1  0
 13 42  1  0
 14 43  1  0
 15 44  1  0
 17 45  1  0
 17 46  1  0
 17 47  1  0
 20 48  1  0
 22 49  1  0
 23 50  1  0
 24 51  1  0
 25 52  1  0
M  CHG  1  20   1
M  END
>  <UniqueID>  (1) 
1

>  <SMILES>  (1) 
CCN(CC)CCn1c(-c2cc3cccc(C)c3s2)[nH+]c2ccccc21

>  <Energy>  (1) 
123.15109220860548

>  <Genealogy>  (1) 
CCN(CC)CCn1c(-c2cc3cccc(C)c3s2)[nH+]c2ccccc21 (protonated)
CCN(CC)CCn1c(-c2cc3cccc(C)c3s2)[nH+]c2ccccc21 (3D coordinates assigned)
CCN(CC)CCn1c(-c2cc3cccc(C)c3s2)[nH+]c2ccccc21 (optimized conformer: 123.15109220860548 kcal/mol)

>  <smiles>  (1) 
CCN(CC)CCn1c(-c2cc3cccc(C)c3s2)nc2ccccc21

>  <score_type>  (1) 
oracle

>  <origin>  (1) 
adg

>  <m_score__min__energy>  (1) 
-6.4199999999999999

>  <m_primary>  (1) 
energy

$$$$
1:0
     RDKit          3D

 54 56  0  0  0  0  0  0  0  0999 V2000
   63.7410   33.4470   47.0670 C   0  0  0  0  0  0  0  0  0  0  0  0
   62.6280   32.4940   47.4930 C   0  0  0  0  0  0  0  0  0  0  0  0
   61.3610   33.2380   47.6810 N   0  0  0  0  0  0  0  0  0  0  0  0
   60.9240   33.8940   46.4270 C   0  0  0  0  0  0  0  0  0  0  0  0
   59.7000   34.7650   46.6960 C   0  0  0  0  0  0  0  0  0  0  0  0
   61.4600   34.2050   48.7980 C   0  0  0  0  0  0  0  0  0  0  0  0
   60.5830   33.7570   49.9710 C   0  0  0  0  0  0  0  0  0  0  0  0
   59.3130   33.3440   49.5000 O   0  0  0  0  0  0  0  0  0  0  0  0
   58.8490   32.2150   50.2120 C   0  0  0  0  0  0  0  0  0  0  0  0
   58.9900   30.9760   49.3230 C   0  0  0  0  0  0  0  0  0  0  0  0
   59.6380   31.2650   48.0310 N   0  0  0  0  0  0  0  0  0  0  0  0
   59.2870   30.2910   47.0120 C   0  0  0  0  0  0  0  0  0  0  0  0
   58.5520   30.6120   45.8270 C   0  0  0  0  0  0  0  0  0  0  0  0
   58.1110   31.9290   45.5550 C   0  0  0  0  0  0  0  0  0  0  0  0
   57.3860   32.2210   44.4020 C   0  0  0  0  0  0  0  0  0  0  0  0
   57.0730   31.2160   43.4970 C   0  0  0  0  0  0  0  0  0  0  0  0
   57.4830   29.9050   43.7310 C   0  0  0  0  0  0  0  0  0  0  0  0
   58.2310   29.5660   44.8860 C   0  0  0  0  0  0  0  0  0  0  0  0
   58.6330   28.2590   45.1180 N   0  0  0  0  0  0  0  0  0  0  0  0
   58.3240   27.1810   44.1590 C   0  0  0  0  0  0  0  0  0  0  0  0
   59.3140   27.9890   46.2740 C   0  0  0  0  0  0  0  0  0  0  0  0
   59.8000   26.7900   46.7740 C   0  0  0  0  0  0  0  0  0  0  0  0
   60.3930   27.0290   47.9270 O   0  0  0  0  0  0  0  0  0  0  0  0
   60.3170   28.3140   48.2050 C   0  0  0  0  0  0  0  0  0  0  0  0
   59.6390   28.9510   47.1830 C   0  0  0  0  0  0  0  0  0  0  0  0
   64.2284   33.8643   47.9605 H   0  0  0  0  0  0  0  0  0  0  0  0
   64.4826   32.8996   46.4667 H   0  0  0  0  0  0  0  0  0  0  0  0
   63.3143   34.2641   46.4667 H   0  0  0  0  0  0  0  0  0  0  0  0
   62.4878   31.7285   46.7156 H   0  0  0  0  0  0  0  0  0  0  0  0
   62.9084   32.0171   48.4437 H   0  0  0  0  0  0  0  0  0  0  0  0
   61.7403   34.5215   46.0399 H   0  0  0  0  0  0  0  0  0  0  0  0
   60.6645   33.1232   45.6863 H   0  0  0  0  0  0  0  0  0  0  0  0
   59.5549   34.8683   47.7815 H   0  0  0  0  0  0  0  0  0  0  0  0
   59.8522   35.7590   46.2502 H   0  0  0  0  0  0  0  0  0  0  0  0
   58.8107   34.2955   46.2502 H   0  0  0  0  0  0  0  0  0  0  0  0
   62.5064   34.2681   49.1312 H   0  0  0  0  0  0  0  0  0  0  0  0
   61.1144   35.1894   48.4495 H   0  0  0  0  0  0  0  0  0  0  0  0
   61.0695   32.9173   50.4889 H   0  0  0  0  0  0  0  0  0  0  0  0
   60.4524   34.6003   50.6651 H   0  0  0  0  0  0  0  0  0  0  0  0
   59.4466   32.0836   51.1261 H   0  0  0  0  0  0  0  0  0  0  0  0
   57.7940   32.3568   50.4893 H   0  0  0  0  0  0  0  0  0  0  0  0
   59.5930   30.2275   49.8579 H   0  0  0  0  0  0  0  0  0  0  0  0
   57.9759   30.6084   49.1076 H   0  0  0  0  0  0  0  0  0  0  0  0
   59.4520   32.2500   47.7390 H   0  0  0  0  0  0  0  0  0  0  0  0
   60.6740   31.2290   48.1790 H   0  0  0  0  0  0  0  0  0  0  0  0
   58.3446   32.7353   46.2658 H   0  0  0  0  0  0  0  0  0  0  0  0
   57.0598   33.2534   44.2076 H   0  0  0  0  0  0  0  0  0  0  0  0
   56.4982   31.4559   42.5903 H   0  0  0  0  0  0  0  0  0  0  0  0
   57.2215   29.1195   43.0067 H   0  0  0  0  0  0  0  0  0  0  0  0
   58.0615   26.2652   44.7089 H   0  0  0  0  0  0  0  0  0  0  0  0
   57.4767   27.4846   43.5266 H   0  0  0  0  0  0  0  0  0  0  0  0
   59.2035   26.9896   43.5266 H   0  0  0  0  0  0  0  0  0  0  0  0
   59.7065   25.8064   46.2905 H   0  0  0  0  0  0  0  0  0  0  0  0
   60.7259   28.8003   49.1029 H   0  0  0  0  0  0  0  0  0  0  0  0
  1  2  1  0
  2  3  1  0
  3  4  1  0
  4  5  1  0
  3  6  1  0
  6  7  1  0
  7  8  1  0
  8  9  1  0
  9 10  1  0
 10 11  1  0
 11 12  1  0
 12 13  2  0
 13 14  1  0
 14 15  2  0
 15 16  1  0
 16 17  2  0
 17 18  1  0
 18 19  2  0
 19 20  1  0
 19 21  1  0
 21 22  2  0
 22 23  1  0
 23 24  1  0
 24 25  2  0
 25 12  1  0
 18 13  1  0
 25 21  1  0
  1 26  1  0
  1 27  1  0
  1 28  1  0
  2 29  1  0
  2 30  1  0
  4 31  1  0
  4 32  1  0
  5 33  1  0
  5 34  1  0
  5 35  1  0
  6 36  1  0
  6 37  1  0
  7 38  1  0
  7 39  1  0
  9 40  1  0
  9 41  1  0
 10 42  1  0
 10 43  1  0
 11 44  1  0
 11 45  1  0
 14 46  1  0
 15 47  1  0
 16 48  1  0
 17 49  1  0
 20 50  1  0
 20 51  1  0
 20 52  1  0
 22 53  1  0
 24 54  1  0
M  CHG  2  11   1  19   1
M  END
>  <UniqueID>  (2) 
2

>  <SMILES>  (2) 
CCN(CC)CCOCC[NH2+]c1c2ccccc2[n+](C)c2cocc12

>  <Energy>  (2) 
97.41365455395997

>  <Genealogy>  (2) 
CCN(CC)CCOCC[NH2+]c1c2ccccc2[n+](C)c2cocc12 (protonated)
CCN(CC)CCOCC[NH2+]c1c2ccccc2[n+](C)c2cocc12 (3D coordinates assigned)
CCN(CC)CCOCC[NH2+]c1c2ccccc2[n+](C)c2cocc12 (optimized conformer: 97.41365455395997 kcal/mol)

>  <smiles>  (2) 
CCN(CC)CCOCCNc1c2ccccc2[n+](C)c2cocc12

>  <score_type>  (2) 
oracle

>  <origin>  (2) 
adg

>  <m_score__min__energy>  (2) 
-2.8700000000000001

>  <m_primary>  (2) 
energy

$$$$
2:0
     RDKit          3D

 60 62  0  0  0  0  0  0  0  0999 V2000
   63.2610   33.4740   46.7100 C   0  0  0  0  0  0  0  0  0  0  0  0
   62.9910   32.1920   47.5120 C   0  0  0  0  0  0  0  0  0  0  0  0
   62.9340   32.3710   48.9860 N   0  0  0  0  0  0  0  0  0  0  0  0
   63.4050   31.2430   49.8170 C   0  0  0  0  0  0  0  0  0  0  0  0
   62.2260   30.4560   50.3860 C   0  0  0  0  0  0  0  0  0  0  0  0
   63.3670   33.7020   49.4670 C   0  0  0  0  0  0  0  0  0  0  0  0
   62.2150   34.5740   49.9890 C   0  0  0  0  0  0  0  0  0  0  0  0
   61.2750   33.7430   50.7530 N   0  0  0  0  0  0  0  0  0  0  0  0
   59.8970   33.8950   50.2640 C   0  0  0  0  0  0  0  0  0  0  0  0
   59.0040   32.7820   50.8250 C   0  0  0  0  0  0  0  0  0  0  0  0
   58.9580   31.5760   49.8800 C   0  0  0  0  0  0  0  0  0  0  0  0
   59.9040   31.7440   48.7760 N   0  0  0  0  0  0  0  0  0  0  0  0
   59.4920   31.6330   47.4030 C   0  0  0  0  0  0  0  0  0  0  0  0
   59.3580   32.7870   46.6130 C   0  0  0  0  0  0  0  0  0  0  0  0
   59.7190   34.0540   47.1170 C   0  0  0  0  0  0  0  0  0  0  0  0
   59.6170   35.1920   46.3210 C   0  0  0  0  0  0  0  0  0  0  0  0
   59.1700   35.0860   45.0100 C   0  0  0  0  0  0  0  0  0  0  0  0
   58.7960   33.8450   44.4940 C   0  0  0  0  0  0  0  0  0  0  0  0
   58.8480   32.6740   45.2920 C   0  0  0  0  0  0  0  0  0  0  0  0
   58.4290   31.4460   44.8130 N   0  0  0  0  0  0  0  0  0  0  0  0
   57.6300   31.3700   43.5700 C   0  0  0  0  0  0  0  0  0  0  0  0
   58.7410   30.2920   45.5070 C   0  0  0  0  0  0  0  0  0  0  0  0
   58.5810   29.0060   44.9290 C   0  0  0  0  0  0  0  0  0  0  0  0
   58.8770   27.8500   45.6500 C   0  0  0  0  0  0  0  0  0  0  0  0
   59.3560   27.9410   46.9510 C   0  0  0  0  0  0  0  0  0  0  0  0
   59.5570   29.1890   47.5350 C   0  0  0  0  0  0  0  0  0  0  0  0
   59.2560   30.3720   46.8290 C   0  0  0  0  0  0  0  0  0  0  0  0
   63.4370   34.3098   47.4031 H   0  0  0  0  0  0  0  0  0  0  0  0
   64.1485   33.3300   46.0763 H   0  0  0  0  0  0  0  0  0  0  0  0
   62.3908   33.7002   46.0763 H   0  0  0  0  0  0  0  0  0  0  0  0
   62.0263   31.7799   47.1812 H   0  0  0  0  0  0  0  0  0  0  0  0
   63.8427   31.5237   47.3172 H   0  0  0  0  0  0  0  0  0  0  0  0
   64.0207   30.5729   49.1991 H   0  0  0  0  0  0  0  0  0  0  0  0
   63.9957   31.6451   50.6533 H   0  0  0  0  0  0  0  0  0  0  0  0
   62.2643   30.4816   51.4850 H   0  0  0  0  0  0  0  0  0  0  0  0
   61.2837   30.9068   50.0414 H   0  0  0  0  0  0  0  0  0  0  0  0
   62.2810   29.4128   50.0414 H   0  0  0  0  0  0  0  0  0  0  0  0
   64.0909   33.5581   50.2826 H   0  0  0  0  0  0  0  0  0  0  0  0
   63.8046   34.2286   48.6060 H   0  0  0  0  0  0  0  0  0  0  0  0
   62.6191   35.3629   50.6404 H   0  0  0  0  0  0  0  0  0  0  0  0
   61.6893   35.0323   49.1383 H   0  0  0  0  0  0  0  0  0  0  0  0
   61.5520   32.7420   50.6120 H   0  0  0  0  0  0  0  0  0  0  0  0
   59.5042   34.8710   50.5851 H   0  0  0  0  0  0  0  0  0  0  0  0
   59.8993   33.8307   49.1659 H   0  0  0  0  0  0  0  0  0  0  0  0
   59.4020   32.4596   51.7985 H   0  0  0  0  0  0  0  0  0  0  0  0
   57.9832   33.1772   50.9338 H   0  0  0  0  0  0  0  0  0  0  0  0
   59.2179   30.6671   50.4424 H   0  0  0  0  0  0  0  0  0  0  0  0
   57.9429   31.4923   49.4646 H   0  0  0  0  0  0  0  0  0  0  0  0
   60.8820   32.0440   48.9870 H   0  0  0  0  0  0  0  0  0  0  0  0
   60.0852   34.1441   48.1503 H   0  0  0  0  0  0  0  0  0  0  0  0
   59.8906   36.1756   46.7306 H   0  0  0  0  0  0  0  0  0  0  0  0
   59.1107   35.9835   44.3767 H   0  0  0  0  0  0  0  0  0  0  0  0
   58.4551   33.7737   43.4506 H   0  0  0  0  0  0  0  0  0  0  0  0
   56.5647   31.2687   43.8245 H   0  0  0  0  0  0  0  0  0  0  0  0
   57.7806   32.2865   42.9807 H   0  0  0  0  0  0  0  0  0  0  0  0
   57.9507   30.4983   42.9807 H   0  0  0  0  0  0  0  0  0  0  0  0
   58.2172   28.9197   43.8945 H   0  0  0  0  0  0  0  0  0  0  0  0
   58.7308   26.8628   45.1874 H   0  0  0  0  0  0  0  0  0  0  0  0
   59.5767   27.0261   47.5204 H   0  0  0  0  0  0  0  0  0  0  0  0
   59.9550   29.2528   48.5585 H   0  0  0  0  0  0  0  0  0  0  0  0
  1  2  1  0
  2  3  1  0
  3  4  1  0
  4  5  1  0
  3  6  1  0
  6  7  1  0
  7  8  1  0
  8  9  1  0
  9 10  1  0
 10 11  1  0
 11 12  1  0
 12 13  1  0
 13 14  2  0
 14 15  1  0
 15 16  2  0
 16 17  1  0
 17 18  2  0
 18 19  1  0
 19 20  2  0
 20 21  1  0
 20 22  1  0
 22 23  2  0
 23 24  1  0
 24 25  2  0
 25 26  1  0
 26 27  2  0
 27 13  1  0
 19 14  1  0
 27 22  1  0
  1 28  1  0
  1 29  1  0
  1 30  1  0
  2 31  1  0
  2 32  1  0
  4 33  1  0
  4 34  1  0
  5 35  1  0
  5 36  1  0
  5 37  1  0
  6 38  1  0
  6 39  1  0
  7 40  1  0
  7 41  1  0
  8 42  1  0
  9 43  1  0
  9 44  1  0
 10 45  1  0
 10 46  1  0
 11 47  1  0
 11 48  1  0
 12 49  1  0
 15 50  1  0
 16 51  1  0
 17 52  1  0
 18 53  1  0
 21 54  1  0
 21 55  1  0
 21 56  1  0
 23 57  1  0
 24 58  1  0
 25 59  1  0
 26 60  1  0
M  CHG  1  20   1
M  END
>  <UniqueID>  (3) 
3

>  <SMILES>  (3) 
CCN(CC)CCNCCCNc1c2ccccc2[n+](C)c2ccccc12

>  <Energy>  (3) 
86.31341752485459

>  <Genealogy>  (3) 
CCN(CC)CCNCCCNc1c2ccccc2[n+](C)c2ccccc12 (3D coordinates assigned)
CCN(CC)CCNCCCNc1c2ccccc2[n+](C)c2ccccc12 (optimized conformer: 86.31341752485459 kcal/mol)

>  <smiles>  (3) 
CCN(CC)CCNCCCNc1c2ccccc2[n+](C)c2ccccc12

>  <score_type>  (3) 
oracle

>  <origin>  (3) 
adg

>  <m_score__min__energy>  (3) 
-5.6500000000000004

>  <m_primary>  (3) 
energy

$$$$
3:0
     RDKit          3D

 59 62  0  0  0  0  0  0  0  0999 V2000
   58.5020   32.7140   48.7410 C   0  0  0  0  0  0  0  0  0  0  0  0
   58.1320   33.0540   47.3000 C   0  0  0  0  0  0  0  0  0  0  0  0
   59.3350   33.4830   46.5500 N   0  0  0  0  0  0  0  0  0  0  0  0
   58.9620   34.0990   45.2540 C   0  0  0  0  0  0  0  0  0  0  0  0
   57.4730   33.8990   44.9800 C   0  0  0  0  0  0  0  0  0  0  0  0
   60.1660   34.4040   47.3580 C   0  0  0  0  0  0  0  0  0  0  0  0
   61.6570   34.1260   47.1140 C   0  0  0  0  0  0  0  0  0  0  0  0
   61.9200   32.7250   46.7290 N   0  0  0  0  0  0  0  0  0  0  0  0
   61.9530   31.8420   47.8800 C   0  0  0  0  0  0  0  0  0  0  0  0
   62.8470   32.0910   48.9690 C   0  0  0  0  0  0  0  0  0  0  0  0
   63.7450   33.1880   48.9550 C   0  0  0  0  0  0  0  0  0  0  0  0
   64.5710   33.4590   50.0410 C   0  0  0  0  0  0  0  0  0  0  0  0
   64.5230   32.6590   51.1730 C   0  0  0  0  0  0  0  0  0  0  0  0
   63.6700   31.5600   51.2170 C   0  0  0  0  0  0  0  0  0  0  0  0
   62.8410   31.2280   50.1160 C   0  0  0  0  0  0  0  0  0  0  0  0
   62.0320   30.1070   50.1460 N   0  0  0  0  0  0  0  0  0  0  0  0
   62.1230   29.1220   51.2420 C   0  0  0  0  0  0  0  0  0  0  0  0
   61.1310   29.9200   49.1320 C   0  0  0  0  0  0  0  0  0  0  0  0
   60.1920   28.9480   49.0900 N   0  0  0  0  0  0  0  0  0  0  0  0
   59.5570   29.1110   47.9220 C   0  0  0  0  0  0  0  0  0  0  0  0
   58.5170   28.3170   47.4460 C   0  0  0  0  0  0  0  0  0  0  0  0
   57.9800   28.6110   46.1880 C   0  0  0  0  0  0  0  0  0  0  0  0
   58.4830   29.6830   45.4190 C   0  0  0  0  0  0  0  0  0  0  0  0
   57.9210   29.9300   44.1160 N   0  0  0  0  0  0  0  0  0  0  0  0
   56.5890   30.4890   43.9020 C   0  0  0  0  0  0  0  0  0  0  0  0
   59.5310   30.4810   45.9380 C   0  0  0  0  0  0  0  0  0  0  0  0
   60.0600   30.1800   47.2070 C   0  0  0  0  0  0  0  0  0  0  0  0
   61.0830   30.7310   48.0040 C   0  0  0  0  0  0  0  0  0  0  0  0
   57.8698   33.2949   49.4287 H   0  0  0  0  0  0  0  0  0  0  0  0
   58.3437   31.6397   48.9165 H   0  0  0  0  0  0  0  0  0  0  0  0
   59.5591   32.9623   48.9165 H   0  0  0  0  0  0  0  0  0  0  0  0
   57.7003   32.1653   46.8165 H   0  0  0  0  0  0  0  0  0  0  0  0
   57.3991   33.8743   47.3019 H   0  0  0  0  0  0  0  0  0  0  0  0
   59.1832   35.1760   45.2873 H   0  0  0  0  0  0  0  0  0  0  0  0
   59.5408   33.6196   44.4507 H   0  0  0  0  0  0  0  0  0  0  0  0
   56.9311   33.8262   45.9345 H   0  0  0  0  0  0  0  0  0  0  0  0
   57.0881   34.7535   44.4041 H   0  0  0  0  0  0  0  0  0  0  0  0
   57.3273   32.9732   44.4041 H   0  0  0  0  0  0  0  0  0  0  0  0
   59.9388   35.4421   47.0740 H   0  0  0  0  0  0  0  0  0  0  0  0
   59.9417   34.2483   48.4236 H   0  0  0  0  0  0  0  0  0  0  0  0
   62.0104   34.7849   46.3072 H   0  0  0  0  0  0  0  0  0  0  0  0
   62.1892   34.3167   48.0576 H   0  0  0  0  0  0  0  0  0  0  0  0
   62.7740   32.6460   46.1490 H   0  0  0  0  0  0  0  0  0  0  0  0
   61.1780   32.4080   46.0670 H   0  0  0  0  0  0  0  0  0  0  0  0
   63.7894   33.8374   48.0683 H   0  0  0  0  0  0  0  0  0  0  0  0
   65.2652   34.3114   50.0018 H   0  0  0  0  0  0  0  0  0  0  0  0
   65.1606   32.8936   52.0381 H   0  0  0  0  0  0  0  0  0  0  0  0
   63.6385   30.9373   52.1232 H   0  0  0  0  0  0  0  0  0  0  0  0
   62.0748   29.6440   52.2091 H   0  0  0  0  0  0  0  0  0  0  0  0
   61.2867   28.4114   51.1668 H   0  0  0  0  0  0  0  0  0  0  0  0
   63.0754   28.5767   51.1668 H   0  0  0  0  0  0  0  0  0  0  0  0
   59.9600   28.2250   49.8070 H   0  0  0  0  0  0  0  0  0  0  0  0
   58.1275   27.4798   48.0438 H   0  0  0  0  0  0  0  0  0  0  0  0
   57.1555   27.9993   45.7930 H   0  0  0  0  0  0  0  0  0  0  0  0
   58.5010   29.7280   43.2700 H   0  0  0  0  0  0  0  0  0  0  0  0
   56.1144   30.6882   44.8742 H   0  0  0  0  0  0  0  0  0  0  0  0
   56.6722   31.4281   43.3353 H   0  0  0  0  0  0  0  0  0  0  0  0
   55.9771   29.7718   43.3353 H   0  0  0  0  0  0  0  0  0  0  0  0
   59.9271   31.3264   45.3562 H   0  0  0  0  0  0  0  0  0  0  0  0
  1  2  1  0
  2  3  1  0
  3  4  1  0
  4  5  1  0
  3  6  1  0
  6  7  1  0
  7  8  1  0
  8  9  1  0
  9 10  2  0
 10 11  1  0
 11 12  2  0
 12 13  1  0
 13 14  2  0
 14 15  1  0
 15 16  2  0
 16 17  1  0
 16 18  1  0
 18 19  1  0
 19 20  1  0
 20 21  2  0
 21 22  1  0
 22 23  2  0
 23 24  1  0
 24 25  1  0
 23 26  1  0
 26 27  2  0
 27 28  1  0
 28  9  1  0
 15 10  1  0
 28 18  2  0
 27 20  1  0
  1 29  1  0
  1 30  1  0
  1 31  1  0
  2 32  1  0
  2 33  1  0
  4 34  1  0
  4 35  1  0
  5 36  1  0
  5 37  1  0
  5 38  1  0
  6 39  1  0
  6 40  1  0
  7 41  1  0
  7 42  1  0
  8 43  1  0
  8 44  1  0
 11 45  1  0
 12 46  1  0
 13 47  1  0
 14 48  1  0
 17 49  1  0
 17 50  1  0
 17 51  1  0
 19 52  1  0
 21 53  1  0
 22 54  1  0
 24 55  1  0
 25 56  1  0
 25 57  1  0
 25 58  1  0
 26 59  1  0
M  CHG  2   8   1  16   1
M  END
>  <UniqueID>  (4) 
4

>  <SMILES>  (4) 
CCN(CC)CC[NH2+]c1c2ccccc2[n+](C)c2[nH]c3ccc(NC)cc3c12

>  <Energy>  (4) 
119.10889235223266

>  <Genealogy>  (4) 
CCN(CC)CC[NH2+]c1c2ccccc2[n+](C)c2[nH]c3ccc(NC)cc3c12 (protonated)
CCN(CC)CC[NH2+]c1c2ccccc2[n+](C)c2[nH]c3ccc(NC)cc3c12 (3D coordinates assigned)
CCN(CC)CC[NH2+]c1c2ccccc2[n+](C)c2[nH]c3ccc(NC)cc3c12 (optimized conformer: 119.10889235223266 kcal/mol)

>  <smiles>  (4) 
CCN(CC)CCNc1c2ccccc2[n+](C)c2[nH]c3ccc(NC)cc3c12

>  <score_type>  (4) 
oracle

>  <origin>  (4) 
adg

>  <m_score__min__energy>  (4) 
-4.8899999999999997

>  <m_primary>  (4) 
energy

$$$$
4:0
     RDKit          3D

 36 37  0  0  0  0  0  0  0  0999 V2000
   59.2060   34.1850   44.4940 O   0  0  0  0  0  0  0  0  0  0  0  0
   58.4360   33.3990   45.1110 C   0  0  0  0  0  0  0  0  0  0  0  0
   58.2220   33.5570   46.5210 N   0  0  0  0  0  0  0  0  0  0  0  0
   58.8990   34.5860   47.3090 C   0  0  0  0  0  0  0  0  0  0  0  0
   59.8540   33.9460   48.3220 C   0  0  0  0  0  0  0  0  0  0  0  0
   61.2560   34.2750   47.9870 N   0  0  0  0  0  0  0  0  0  0  0  0
   62.2170   33.7650   49.0050 C   0  0  0  0  0  0  0  0  0  0  0  0
   62.9790   32.5160   48.5380 C   0  0  0  0  0  0  0  0  0  0  0  0
   63.7700   32.7970   47.2500 C   0  0  0  0  0  0  0  0  0  0  0  0
   63.0860   33.8400   46.3490 C   0  0  0  0  0  0  0  0  0  0  0  0
   61.5740   33.8720   46.5950 C   0  0  0  0  0  0  0  0  0  0  0  0
   57.7550   32.3230   44.3760 C   0  0  0  0  0  0  0  0  0  0  0  0
   57.8640   32.0720   43.0190 C   0  0  0  0  0  0  0  0  0  0  0  0
   57.0610   30.9780   42.7710 C   0  0  0  0  0  0  0  0  0  0  0  0
   56.5180   30.6390   43.9940 C   0  0  0  0  0  0  0  0  0  0  0  0
   55.6130   29.5570   44.2300 N   0  0  0  0  0  0  0  0  0  0  0  0
   55.7980   28.7880   45.1940 O   0  0  0  0  0  0  0  0  0  0  0  0
   54.5370   29.3560   43.3980 O   0  0  0  0  0  0  0  0  0  0  0  0
   56.9450   31.4510   44.9320 O   0  0  0  0  0  0  0  0  0  0  0  0
   57.5190   32.9510   47.0020 H   0  0  0  0  0  0  0  0  0  0  0  0
   59.4718   35.2396   46.6347 H   0  0  0  0  0  0  0  0  0  0  0  0
   58.1433   35.1710   47.8536 H   0  0  0  0  0  0  0  0  0  0  0  0
   59.6230   34.3258   49.3282 H   0  0  0  0  0  0  0  0  0  0  0  0
   59.7266   32.8538   48.2921 H   0  0  0  0  0  0  0  0  0  0  0  0
   62.9463   34.5580   49.2269 H   0  0  0  0  0  0  0  0  0  0  0  0
   61.6349   33.4820   49.8944 H   0  0  0  0  0  0  0  0  0  0  0  0
   63.6785   32.2060   49.3283 H   0  0  0  0  0  0  0  0  0  0  0  0
   62.2491   31.7193   48.3319 H   0  0  0  0  0  0  0  0  0  0  0  0
   64.7682   33.1692   47.5241 H   0  0  0  0  0  0  0  0  0  0  0  0
   63.8283   31.8558   46.6837 H   0  0  0  0  0  0  0  0  0  0  0  0
   63.5066   34.8331   46.5653 H   0  0  0  0  0  0  0  0  0  0  0  0
   63.2641   33.5661   45.2987 H   0  0  0  0  0  0  0  0  0  0  0  0
   61.1145   34.5914   45.9012 H   0  0  0  0  0  0  0  0  0  0  0  0
   61.1770   32.8594   46.4305 H   0  0  0  0  0  0  0  0  0  0  0  0
   58.4673   32.6305   42.2882 H   0  0  0  0  0  0  0  0  0  0  0  0
   56.8899   30.4815   41.8045 H   0  0  0  0  0  0  0  0  0  0  0  0
  1  2  2  0
  2  3  1  0
  3  4  1  0
  4  5  1  0
  5  6  1  0
  6  7  1  0
  7  8  1  0
  8  9  1  0
  9 10  1  0
 10 11  1  0
  2 12  1  0
 12 13  2  0
 13 14  1  0
 14 15  2  0
 15 16  1  0
 16 17  2  0
 16 18  1  0
 15 19  1  0
 11  6  1  0
 19 12  1  0
  3 20  1  0
  4 21  1  0
  4 22  1  0
  5 23  1  0
  5 24  1  0
  7 25  1  0
  7 26  1  0
  8 27  1  0
  8 28  1  0
  9 29  1  0
  9 30  1  0
 10 31  1  0
 10 32  1  0
 11 33  1  0
 11 34  1  0
 13 35  1  0
 14 36  1  0
M  CHG  2  16   1  18  -1
M  END
>  <UniqueID>  (5) 
5

>  <SMILES>  (5) 
O=C(NCCN1CCCCC1)c1ccc([N+](=O)[O-])o1

>  <Energy>  (5) 
63.51184707023539

>  <Genealogy>  (5) 
O=C(NCCN1CCCCC1)c1ccc([N+](=O)[O-])o1 (3D coordinates assigned)
O=C(NCCN1CCCCC1)c1ccc([N+](=O)[O-])o1 (nonaromatic ring conformer: 63.51184707023539 kcal/mol)

>  <smiles>  (5) 
O=C(NCCN1CCCCC1)c1ccc([N+](=O)[O-])o1

>  <score_type>  (5) 
oracle

>  <origin>  (5) 
adg

>  <m_score__min__energy>  (5) 
-8.1300000000000008

>  <m_primary>  (5) 
energy

$$$$
5:0
     RDKit          3D

 32 33  0  0  0  0  0  0  0  0999 V2000
   56.2670   29.3530   42.5850 C   0  0  0  0  0  0  0  0  0  0  0  0
   56.5340   29.8240   43.9810 C   0  0  0  0  0  0  0  0  0  0  0  0
   55.5890   30.3260   44.6470 O   0  0  0  0  0  0  0  0  0  0  0  0
   57.8610   29.6400   44.6100 C   0  0  0  0  0  0  0  0  0  0  0  0
   58.6230   28.5070   44.2750 C   0  0  0  0  0  0  0  0  0  0  0  0
   59.8330   28.2470   44.9200 C   0  0  0  0  0  0  0  0  0  0  0  0
   60.2960   29.1120   45.9110 C   0  0  0  0  0  0  0  0  0  0  0  0
   59.5620   30.2500   46.2450 C   0  0  0  0  0  0  0  0  0  0  0  0
   58.3600   30.5450   45.5840 C   0  0  0  0  0  0  0  0  0  0  0  0
   57.6900   31.7770   45.9070 N   0  0  0  0  0  0  0  0  0  0  0  0
   58.3540   33.0390   46.1060 C   0  0  0  0  0  0  0  0  0  0  0  0
   58.5480   33.8700   44.9920 C   0  0  0  0  0  0  0  0  0  0  0  0
   59.2270   35.0830   45.1170 C   0  0  0  0  0  0  0  0  0  0  0  0
   59.7080   35.4880   46.3610 C   0  0  0  0  0  0  0  0  0  0  0  0
   59.4910   34.6930   47.4890 C   0  0  0  0  0  0  0  0  0  0  0  0
   58.7910   33.4790   47.3850 C   0  0  0  0  0  0  0  0  0  0  0  0
   58.5180   32.6930   48.6400 C   0  0  0  0  0  0  0  0  0  0  0  0
   55.7248   28.3965   42.6181 H   0  0  0  0  0  0  0  0  0  0  0  0
   55.6587   30.1012   42.0556 H   0  0  0  0  0  0  0  0  0  0  0  0
   57.2214   29.2153   42.0556 H   0  0  0  0  0  0  0  0  0  0  0  0
   58.2619   27.8186   43.4967 H   0  0  0  0  0  0  0  0  0  0  0  0
   60.4219   27.3591   44.6465 H   0  0  0  0  0  0  0  0  0  0  0  0
   61.2416   28.8965   46.4301 H   0  0  0  0  0  0  0  0  0  0  0  0
   59.9290   30.9227   47.0342 H   0  0  0  0  0  0  0  0  0  0  0  0
   56.6500   31.7540   46.0030 H   0  0  0  0  0  0  0  0  0  0  0  0
   58.1607   33.5621   44.0096 H   0  0  0  0  0  0  0  0  0  0  0  0
   59.3826   35.7196   44.2335 H   0  0  0  0  0  0  0  0  0  0  0  0
   60.2594   36.4352   46.4547 H   0  0  0  0  0  0  0  0  0  0  0  0
   59.8716   35.0204   48.4677 H   0  0  0  0  0  0  0  0  0  0  0  0
   58.7351   33.3181   49.5187 H   0  0  0  0  0  0  0  0  0  0  0  0
   57.4613   32.3880   48.6591 H   0  0  0  0  0  0  0  0  0  0  0  0
   59.1581   31.7987   48.6591 H   0  0  0  0  0  0  0  0  0  0  0  0
  1  2  1  0
  2  3  2  0
  2  4  1  0
  4  5  2  0
  5  6  1  0
  6  7  2  0
  7  8  1  0
  8  9  2  0
  9 10  1  0
 10 11  1  0
 11 12  2  0
 12 13  1  0
 13 14  2  0
 14 15  1  0
 15 16  2  0
 16 17  1  0
  9  4  1  0
 16 11  1  0
  1 18  1  0
  1 19  1  0
  1 20  1  0
  5 21  1  0
  6 22  1  0
  7 23  1  0
  8 24  1  0
 10 25  1  0
 12 26  1  0
 13 27  1  0
 14 28  1  0
 15 29  1  0
 17 30  1  0
 17 31  1  0
 17 32  1  0
M  END
>  <UniqueID>  (6) 
6

>  <SMILES>  (6) 
CC(=O)c1ccccc1Nc1ccccc1C

>  <Energy>  (6) 
44.355413455756626

>  <Genealogy>  (6) 
CC(=O)c1ccccc1Nc1ccccc1C (3D coordinates assigned)
CC(=O)c1ccccc1Nc1ccccc1C (optimized conformer: 44.355413455756626 kcal/mol)

>  <smiles>  (6) 
CC(=O)c1ccccc1Nc1ccccc1C

>  <score_type>  (6) 
oracle

>  <origin>  (6) 
adg

>  <m_score__min__energy>  (6) 
-7.0899999999999999

>  <m_primary>  (6) 
energy

$$$$
6:0
     RDKit          3D

 53 55  0  0  0  0  0  0  0  0999 V2000
   57.8330   31.9850   42.7560 C   0  0  0  0  0  0  0  0  0  0  0  0
   57.4780   31.1110   43.9610 C   0  0  0  0  0  0  0  0  0  0  0  0
   58.2150   29.8190   44.0360 N   0  0  0  0  0  0  0  0  0  0  0  0
   57.3910   28.6150   43.7430 C   0  0  0  0  0  0  0  0  0  0  0  0
   58.2250   27.3730   43.4010 C   0  0  0  0  0  0  0  0  0  0  0  0
   59.0890   29.7210   45.2530 C   0  0  0  0  0  0  0  0  0  0  0  0
   58.4250   29.3320   46.6020 C   0  0  0  0  0  0  0  0  0  0  0  0
   59.4000   29.2650   47.7830 C   0  0  0  0  0  0  0  0  0  0  0  0
   59.3760   30.5110   48.5520 N   0  0  0  0  0  0  0  0  0  0  0  0
   60.2560   31.5990   48.2320 C   0  0  0  0  0  0  0  0  0  0  0  0
   59.8190   32.5890   47.3330 C   0  0  0  0  0  0  0  0  0  0  0  0
   58.4660   32.6620   46.9390 C   0  0  0  0  0  0  0  0  0  0  0  0
   58.0280   33.6640   46.0770 C   0  0  0  0  0  0  0  0  0  0  0  0
   58.9240   34.6180   45.6080 C   0  0  0  0  0  0  0  0  0  0  0  0
   60.2660   34.5620   45.9810 C   0  0  0  0  0  0  0  0  0  0  0  0
   60.7480   33.5310   46.8270 C   0  0  0  0  0  0  0  0  0  0  0  0
   62.0820   33.4310   47.1650 N   0  0  0  0  0  0  0  0  0  0  0  0
   63.0960   34.1790   46.3870 C   0  0  0  0  0  0  0  0  0  0  0  0
   62.4700   32.6240   48.2190 C   0  0  0  0  0  0  0  0  0  0  0  0
   63.7690   32.7270   48.7740 C   0  0  0  0  0  0  0  0  0  0  0  0
   64.1790   31.8980   49.8090 C   0  0  0  0  0  0  0  0  0  0  0  0
   63.3030   30.9710   50.3490 C   0  0  0  0  0  0  0  0  0  0  0  0
   61.9970   30.8600   49.8690 C   0  0  0  0  0  0  0  0  0  0  0  0
   60.9660   29.7550   50.7800 Cl  0  0  0  0  0  0  0  0  0  0  0  0
   61.5590   31.6780   48.7810 C   0  0  0  0  0  0  0  0  0  0  0  0
   58.2254   32.9510   43.1066 H   0  0  0  0  0  0  0  0  0  0  0  0
   58.5965   31.4781   42.1476 H   0  0  0  0  0  0  0  0  0  0  0  0
   56.9323   32.1541   42.1476 H   0  0  0  0  0  0  0  0  0  0  0  0
   57.6970   31.6831   44.8747 H   0  0  0  0  0  0  0  0  0  0  0  0
   56.4139   30.8539   43.8535 H   0  0  0  0  0  0  0  0  0  0  0  0
   58.8870   29.8740   43.2320 H   0  0  0  0  0  0  0  0  0  0  0  0
   56.7766   28.3896   44.6271 H   0  0  0  0  0  0  0  0  0  0  0  0
   56.7790   28.8481   42.8592 H   0  0  0  0  0  0  0  0  0  0  0  0
   58.5531   26.8844   44.3303 H   0  0  0  0  0  0  0  0  0  0  0  0
   57.6142   26.6715   42.8138 H   0  0  0  0  0  0  0  0  0  0  0  0
   59.1055   27.6729   42.8138 H   0  0  0  0  0  0  0  0  0  0  0  0
   59.8617   28.9676   45.0402 H   0  0  0  0  0  0  0  0  0  0  0  0
   59.4513   30.7473   45.4126 H   0  0  0  0  0  0  0  0  0  0  0  0
   57.6516   30.0789   46.8344 H   0  0  0  0  0  0  0  0  0  0  0  0
   58.0132   28.3202   46.4728 H   0  0  0  0  0  0  0  0  0  0  0  0
   59.1130   28.4307   48.4400 H   0  0  0  0  0  0  0  0  0  0  0  0
   60.4166   29.1134   47.3912 H   0  0  0  0  0  0  0  0  0  0  0  0
   58.5640   30.6990   49.1810 H   0  0  0  0  0  0  0  0  0  0  0  0
   57.7489   31.9186   47.3173 H   0  0  0  0  0  0  0  0  0  0  0  0
   56.9732   33.7007   45.7671 H   0  0  0  0  0  0  0  0  0  0  0  0
   58.5730   35.4191   44.9409 H   0  0  0  0  0  0  0  0  0  0  0  0
   60.9624   35.3300   45.6131 H   0  0  0  0  0  0  0  0  0  0  0  0
   63.7855   34.6876   47.0768 H   0  0  0  0  0  0  0  0  0  0  0  0
   63.6610   33.4797   45.7531 H   0  0  0  0  0  0  0  0  0  0  0  0
   62.5947   34.9253   45.7531 H   0  0  0  0  0  0  0  0  0  0  0  0
   64.4668   33.4789   48.3769 H   0  0  0  0  0  0  0  0  0  0  0  0
   65.2034   31.9775   50.2018 H   0  0  0  0  0  0  0  0  0  0  0  0
   63.6402   30.3150   51.1651 H   0  0  0  0  0  0  0  0  0  0  0  0
  1  2  1  0
  2  3  1  0
  3  4  1  0
  4  5  1  0
  3  6  1  0
  6  7  1  0
  7  8  1  0
  8  9  1  0
  9 10  1  0
 10 11  2  0
 11 12  1  0
 12 13  2  0
 13 14  1  0
 14 15  2  0
 15 16  1  0
 16 17  2  0
 17 18  1  0
 17 19  1  0
 19 20  2  0
 20 21  1  0
 21 22  2  0
 22 23  1  0
 23 24  1  0
 23 25  2  0
 25 10  1  0
 16 11  1  0
 25 19  1  0
  1 26  1  0
  1 27  1  0
  1 28  1  0
  2 29  1  0
  2 30  1  0
  3 31  1  0
  4 32  1  0
  4 33  1  0
  5 34  1  0
  5 35  1  0
  5 36  1  0
  6 37  1  0
  6 38  1  0
  7 39  1  0
  7 40  1  0
  8 41  1  0
  8 42  1  0
  9 43  1  0
 12 44  1  0
 13 45  1  0
 14 46  1  0
 15 47  1  0
 18 48  1  0
 18 49  1  0
 18 50  1  0
 20 51  1  0
 21 52  1  0
 22 53  1  0
M  CHG  2   3   1  17   1
M  END
>  <UniqueID>  (7) 
7

>  <SMILES>  (7) 
CC[NH+](CC)CCCNc1c2ccccc2[n+](C)c2cccc(Cl)c12

>  <Energy>  (7) 
98.25633075104612

>  <Genealogy>  (7) 
CC[NH+](CC)CCCNc1c2ccccc2[n+](C)c2cccc(Cl)c12 (protonated)
CC[NH+](CC)CCCNc1c2ccccc2[n+](C)c2cccc(Cl)c12 (3D coordinates assigned)
CC[NH+](CC)CCCNc1c2ccccc2[n+](C)c2cccc(Cl)c12 (optimized conformer: 98.25633075104612 kcal/mol)

>  <smiles>  (7) 
CCN(CC)CCCNc1c2ccccc2[n+](C)c2cccc(Cl)c12

>  <score_type>  (7) 
oracle

>  <origin>  (7) 
adg

>  <m_score__min__energy>  (7) 
-4.9500000000000002

>  <m_primary>  (7) 
energy

$$$$
7:0
     RDKit          3D

 54 58  0  0  0  0  0  0  0  0999 V2000
   57.7530   26.6840   45.3060 C   0  0  0  0  0  0  0  0  0  0  0  0
   56.6590   27.6920   45.6370 C   0  0  0  0  0  0  0  0  0  0  0  0
   56.9110   28.9520   44.9440 N   0  0  0  0  0  0  0  0  0  0  0  0
   56.6970   29.1840   43.6270 C   0  0  0  0  0  0  0  0  0  0  0  0
   57.1200   30.4670   43.3730 C   0  0  0  0  0  0  0  0  0  0  0  0
   57.1240   31.2320   42.2110 C   0  0  0  0  0  0  0  0  0  0  0  0
   57.6260   32.5430   42.2970 C   0  0  0  0  0  0  0  0  0  0  0  0
   58.1080   33.0480   43.5270 C   0  0  0  0  0  0  0  0  0  0  0  0
   58.0980   32.2430   44.6870 C   0  0  0  0  0  0  0  0  0  0  0  0
   58.5830   32.7450   45.9410 N   0  0  0  0  0  0  0  0  0  0  0  0
   59.0360   31.8100   46.9760 C   0  0  0  0  0  0  0  0  0  0  0  0
   59.0430   32.4940   48.3510 C   0  0  0  0  0  0  0  0  0  0  0  0
   59.8070   33.7720   48.3700 N   0  0  0  0  0  0  0  0  0  0  0  0
   61.1360   33.6410   49.0100 C   0  0  0  0  0  0  0  0  0  0  0  0
   62.0090   32.5950   48.2880 C   0  0  1  0  0  0  0  0  0  0  0  0
   63.1470   33.2470   47.4730 C   0  0  0  0  0  0  0  0  0  0  0  0
   64.2300   33.6340   48.3230 O   0  0  0  0  0  0  0  0  0  0  0  0
   64.6290   32.8290   49.3920 C   0  0  0  0  0  0  0  0  0  0  0  0
   65.8510   33.0510   50.0350 C   0  0  0  0  0  0  0  0  0  0  0  0
   66.2400   32.2220   51.0930 C   0  0  0  0  0  0  0  0  0  0  0  0
   65.4070   31.1750   51.5090 C   0  0  0  0  0  0  0  0  0  0  0  0
   64.1780   30.9640   50.8750 C   0  0  0  0  0  0  0  0  0  0  0  0
   63.7830   31.8000   49.8250 C   0  0  0  0  0  0  0  0  0  0  0  0
   62.5340   31.6350   49.2140 O   0  0  0  0  0  0  0  0  0  0  0  0
   59.8890   34.4700   47.0630 C   0  0  0  0  0  0  0  0  0  0  0  0
   58.6710   34.1880   46.1840 C   0  0  0  0  0  0  0  0  0  0  0  0
   57.5880   30.9470   44.5660 C   0  0  0  0  0  0  0  0  0  0  0  0
   57.4580   30.0140   45.5270 N   0  0  0  0  0  0  0  0  0  0  0  0
   58.1819   26.2888   46.2387 H   0  0  0  0  0  0  0  0  0  0  0  0
   57.3248   25.8573   44.7202 H   0  0  0  0  0  0  0  0  0  0  0  0
   58.5420   27.1783   44.7202 H   0  0  0  0  0  0  0  0  0  0  0  0
   55.6857   27.2902   45.3188 H   0  0  0  0  0  0  0  0  0  0  0  0
   56.6527   27.8730   46.7220 H   0  0  0  0  0  0  0  0  0  0  0  0
   56.2668   28.4801   42.8994 H   0  0  0  0  0  0  0  0  0  0  0  0
   56.7484   30.8265   41.2600 H   0  0  0  0  0  0  0  0  0  0  0  0
   57.6439   33.1805   41.4007 H   0  0  0  0  0  0  0  0  0  0  0  0
   58.4940   34.0767   43.5804 H   0  0  0  0  0  0  0  0  0  0  0  0
   58.3570   30.9451   47.0051 H   0  0  0  0  0  0  0  0  0  0  0  0
   60.0580   31.4810   46.7364 H   0  0  0  0  0  0  0  0  0  0  0  0
   58.0031   32.7047   48.6413 H   0  0  0  0  0  0  0  0  0  0  0  0
   59.5389   31.8079   49.0533 H   0  0  0  0  0  0  0  0  0  0  0  0
   61.6457   34.6153   48.9786 H   0  0  0  0  0  0  0  0  0  0  0  0
   60.9883   33.3103   50.0487 H   0  0  0  0  0  0  0  0  0  0  0  0
   61.3558   32.0709   47.5747 H   0  0  0  0  0  0  0  0  0  0  0  0
   63.5145   32.5260   46.7280 H   0  0  0  0  0  0  0  0  0  0  0  0
   62.7522   34.1462   46.9774 H   0  0  0  0  0  0  0  0  0  0  0  0
   66.5040   33.8744   49.7101 H   0  0  0  0  0  0  0  0  0  0  0  0
   67.2016   32.3926   51.5991 H   0  0  0  0  0  0  0  0  0  0  0  0
   65.7196   30.5186   52.3345 H   0  0  0  0  0  0  0  0  0  0  0  0
   63.5234   30.1424   51.2014 H   0  0  0  0  0  0  0  0  0  0  0  0
   59.9537   35.5533   47.2427 H   0  0  0  0  0  0  0  0  0  0  0  0
   60.7805   34.0993   46.5360 H   0  0  0  0  0  0  0  0  0  0  0  0
   57.7597   34.5325   46.6947 H   0  0  0  0  0  0  0  0  0  0  0  0
   58.7713   34.7211   45.2270 H   0  0  0  0  0  0  0  0  0  0  0  0
  1  2  1  0
  2  3  1  0
  3  4  1  0
  4  5  2  0
  5  6  1  0
  6  7  2  0
  7  8  1  0
  8  9  2  0
  9 10  1  0
 10 11  1  0
 11 12  1  0
 12 13  1  0
 13 14  1  0
 14 15  1  0
 15 16  1  0
 16 17  1  0
 17 18  1  0
 18 19  2  0
 19 20  1  0
 20 21  2  0
 21 22  1  0
 22 23  2  0
 23 24  1  0
 13 25  1  0
 25 26  1  0
  9 27  1  0
 27 28  2  0
 28  3  1  0
 27  5  1  0
 26 10  1  0
 24 15  1  0
 23 18  1  0
  1 29  1  0
  1 30  1  0
  1 31  1  0
  2 32  1  0
  2 33  1  0
  4 34  1  0
  6 35  1  0
  7 36  1  0
  8 37  1  0
 11 38  1  0
 11 39  1  0
 12 40  1  0
 12 41  1  0
 14 42  1  0
 14 43  1  0
 15 44  1  6
 16 45  1  0
 16 46  1  0
 19 47  1  0
 20 48  1  0
 21 49  1  0
 22 50  1  0
 25 51  1  0
 25 52  1  0
 26 53  1  0
 26 54  1  0
M  END
>  <UniqueID>  (8) 
8

>  <SMILES>  (8) 
CCn1cc2cccc(N3CCN(C[C@H]4COc5ccccc5O4)CC3)c2n1

>  <Energy>  (8) 
106.3732381494796

>  <Genealogy>  (8) 
CCn1cc2cccc(N3CCN(C[C@H]4COc5ccccc5O4)CC3)c2n1 (chirality)
CCn1cc2cccc(N3CCN(C[C@H]4COc5ccccc5O4)CC3)c2n1 (3D coordinates assigned)
CCn1cc2cccc(N3CCN(C[C@H]4COc5ccccc5O4)CC3)c2n1 (nonaromatic ring conformer: 106.3732381494796 kcal/mol)

>  <smiles>  (8) 
CCn1cc2cccc(N3CCN(CC4COc5ccccc5O4)CC3)c2n1

>  <score_type>  (8) 
oracle

>  <origin>  (8) 
adg

>  <m_score__min__energy>  (8) 
-8.2200000000000006

>  <m_primary>  (8) 
energy

$$$$
8:0
     RDKit          3D

 53 56  0  0  0  0  0  0  0  0999 V2000
   63.1030   33.4770   46.7480 C   0  0  0  0  0  0  0  0  0  0  0  0
   63.3340   32.1520   47.4710 C   0  0  0  0  0  0  0  0  0  0  0  0
   62.1150   31.7420   48.2050 N   0  0  0  0  0  0  0  0  0  0  0  0
   62.3940   31.5440   49.6450 C   0  0  0  0  0  0  0  0  0  0  0  0
   61.9150   32.7490   50.4540 C   0  0  0  0  0  0  0  0  0  0  0  0
   61.4690   30.5510   47.5940 C   0  0  0  0  0  0  0  0  0  0  0  0
   60.3310   30.0590   48.4890 C   0  0  0  0  0  0  0  0  0  0  0  0
   59.0780   30.7420   48.1720 N   0  0  0  0  0  0  0  0  0  0  0  0
   58.8530   31.2550   46.8530 C   0  0  0  0  0  0  0  0  0  0  0  0
   59.0260   32.6260   46.5540 C   0  0  0  0  0  0  0  0  0  0  0  0
   59.4250   33.5340   47.5550 C   0  0  0  0  0  0  0  0  0  0  0  0
   59.6310   34.8790   47.2560 C   0  0  0  0  0  0  0  0  0  0  0  0
   59.4560   35.3400   45.9550 C   0  0  0  0  0  0  0  0  0  0  0  0
   59.0650   34.4650   44.9420 C   0  0  0  0  0  0  0  0  0  0  0  0
   58.8230   33.0960   45.2120 C   0  0  0  0  0  0  0  0  0  0  0  0
   58.4210   32.2180   44.2150 N   0  0  0  0  0  0  0  0  0  0  0  0
   58.1130   32.6960   42.8540 C   0  0  0  0  0  0  0  0  0  0  0  0
   58.3280   30.8840   44.5200 C   0  0  0  0  0  0  0  0  0  0  0  0
   58.0430   29.8760   43.6580 N   0  0  0  0  0  0  0  0  0  0  0  0
   58.0320   28.7600   44.4120 C   0  0  0  0  0  0  0  0  0  0  0  0
   57.7740   27.4620   43.9750 C   0  0  0  0  0  0  0  0  0  0  0  0
   57.7950   26.4270   44.9250 C   0  0  0  0  0  0  0  0  0  0  0  0
   58.0670   26.7060   46.2820 C   0  0  0  0  0  0  0  0  0  0  0  0
   58.0760   25.4020   47.4550 Cl  0  0  0  0  0  0  0  0  0  0  0  0
   58.3270   28.0230   46.7010 C   0  0  0  0  0  0  0  0  0  0  0  0
   58.3110   29.0360   45.7350 C   0  0  0  0  0  0  0  0  0  0  0  0
   58.5200   30.4050   45.8010 C   0  0  0  0  0  0  0  0  0  0  0  0
   62.9632   34.2789   47.4879 H   0  0  0  0  0  0  0  0  0  0  0  0
   63.9745   33.7075   46.1177 H   0  0  0  0  0  0  0  0  0  0  0  0
   62.2049   33.3990   46.1177 H   0  0  0  0  0  0  0  0  0  0  0  0
   63.5902   31.3771   46.7335 H   0  0  0  0  0  0  0  0  0  0  0  0
   64.1567   32.2780   48.1902 H   0  0  0  0  0  0  0  0  0  0  0  0
   61.8702   30.6421   49.9945 H   0  0  0  0  0  0  0  0  0  0  0  0
   63.4792   31.4305   49.7847 H   0  0  0  0  0  0  0  0  0  0  0  0
   62.0029   32.5280   51.5280 H   0  0  0  0  0  0  0  0  0  0  0  0
   62.5333   33.6249   50.2081 H   0  0  0  0  0  0  0  0  0  0  0  0
   60.8641   32.9614   50.2081 H   0  0  0  0  0  0  0  0  0  0  0  0
   61.0658   30.8211   46.6068 H   0  0  0  0  0  0  0  0  0  0  0  0
   62.2155   29.7505   47.4847 H   0  0  0  0  0  0  0  0  0  0  0  0
   60.1983   28.9774   48.3391 H   0  0  0  0  0  0  0  0  0  0  0  0
   60.5915   30.2757   49.5355 H   0  0  0  0  0  0  0  0  0  0  0  0
   58.5140   31.1480   48.9510 H   0  0  0  0  0  0  0  0  0  0  0  0
   59.5756   33.1767   48.5844 H   0  0  0  0  0  0  0  0  0  0  0  0
   59.9326   35.5779   48.0501 H   0  0  0  0  0  0  0  0  0  0  0  0
   59.6272   36.4017   45.7239 H   0  0  0  0  0  0  0  0  0  0  0  0
   58.9426   34.8442   43.9167 H   0  0  0  0  0  0  0  0  0  0  0  0
   57.5181   33.6192   42.9155 H   0  0  0  0  0  0  0  0  0  0  0  0
   59.0506   32.8991   42.3158 H   0  0  0  0  0  0  0  0  0  0  0  0
   57.5406   31.9261   42.3158 H   0  0  0  0  0  0  0  0  0  0  0  0
   57.8840   29.9110   42.6280 H   0  0  0  0  0  0  0  0  0  0  0  0
   57.5600   27.2537   42.9163 H   0  0  0  0  0  0  0  0  0  0  0  0
   57.5981   25.3919   44.6092 H   0  0  0  0  0  0  0  0  0  0  0  0
   58.5367   28.2504   47.7566 H   0  0  0  0  0  0  0  0  0  0  0  0
  1  2  1  0
  2  3  1  0
  3  4  1  0
  4  5  1  0
  3  6  1  0
  6  7  1  0
  7  8  1  0
  8  9  1  0
  9 10  2  0
 10 11  1  0
 11 12  2  0
 12 13  1  0
 13 14  2  0
 14 15  1  0
 15 16  2  0
 16 17  1  0
 16 18  1  0
 18 19  1  0
 19 20  1  0
 20 21  2  0
 21 22  1  0
 22 23  2  0
 23 24  1  0
 23 25  1  0
 25 26  2  0
 26 27  1  0
 27  9  1  0
 15 10  1  0
 27 18  2  0
 26 20  1  0
  1 28  1  0
  1 29  1  0
  1 30  1  0
  2 31  1  0
  2 32  1  0
  4 33  1  0
  4 34  1  0
  5 35  1  0
  5 36  1  0
  5 37  1  0
  6 38  1  0
  6 39  1  0
  7 40  1  0
  7 41  1  0
  8 42  1  0
 11 43  1  0
 12 44  1  0
 13 45  1  0
 14 46  1  0
 17 47  1  0
 17 48  1  0
 17 49  1  0
 19 50  1  0
 21 51  1  0
 22 52  1  0
 25 53  1  0
M  CHG  1  16   1
M  END
>  <UniqueID>  (9) 
9

>  <SMILES>  (9) 
CCN(CC)CCNc1c2ccccc2[n+](C)c2[nH]c3ccc(Cl)cc3c12

>  <Energy>  (9) 
110.69047100163763

>  <Genealogy>  (9) 
CCN(CC)CCNc1c2ccccc2[n+](C)c2[nH]c3ccc(Cl)cc3c12 (3D coordinates assigned)
CCN(CC)CCNc1c2ccccc2[n+](C)c2[nH]c3ccc(Cl)cc3c12 (optimized conformer: 110.69047100163763 kcal/mol)

>  <smiles>  (9) 
CCN(CC)CCNc1c2ccccc2[n+](C)c2[nH]c3ccc(Cl)cc3c12

>  <score_type>  (9) 
oracle

>  <origin>  (9) 
adg

>  <m_score__min__energy>  (9) 
-6.7400000000000002

>  <m_primary>  (9) 
energy

$$$$
9:0
     RDKit          3D

 46 47  0  0  0  0  0  0  0  0999 V2000
   59.3170   34.5140   46.1940 C   0  0  0  0  0  0  0  0  0  0  0  0
   60.7280   33.9520   46.3530 C   0  0  0  0  0  0  0  0  0  0  0  0
   60.9520   33.4310   47.7250 N   0  0  0  0  0  0  0  0  0  0  0  0
   62.3160   33.8210   48.1670 C   0  0  0  0  0  0  0  0  0  0  0  0
   63.3990   33.4690   47.1460 C   0  0  0  0  0  0  0  0  0  0  0  0
   59.9060   33.9350   48.6580 C   0  0  0  0  0  0  0  0  0  0  0  0
   59.3440   32.8030   49.5480 C   0  0  0  0  0  0  0  0  0  0  0  0
   60.0290   31.5120   49.3500 N   0  0  0  0  0  0  0  0  0  0  0  0
   59.4960   30.7500   48.2510 C   0  0  0  0  0  0  0  0  0  0  0  0
   58.9090   31.2450   47.1890 O   0  0  0  0  0  0  0  0  0  0  0  0
   58.6200   30.2250   46.4030 C   0  0  0  0  0  0  0  0  0  0  0  0
   57.9220   30.3680   45.1010 C   0  0  0  0  0  0  0  0  0  0  0  0
   58.3050   31.4130   44.2390 C   0  0  0  0  0  0  0  0  0  0  0  0
   57.6700   31.5910   43.0090 C   0  0  0  0  0  0  0  0  0  0  0  0
   56.6500   30.7280   42.6180 C   0  0  0  0  0  0  0  0  0  0  0  0
   56.2580   29.6810   43.4560 C   0  0  0  0  0  0  0  0  0  0  0  0
   56.8860   29.4860   44.7040 C   0  0  0  0  0  0  0  0  0  0  0  0
   56.5070   28.4320   45.5550 O   0  0  0  0  0  0  0  0  0  0  0  0
   57.1070   27.1400   45.5670 C   0  0  0  0  0  0  0  0  0  0  0  0
   59.0200   29.0400   46.9230 N   0  0  0  0  0  0  0  0  0  0  0  0
   59.5790   29.3860   48.0940 C   0  0  0  0  0  0  0  0  0  0  0  0
   60.1650   28.4490   49.0150 C   0  0  0  0  0  0  0  0  0  0  0  0
   60.6350   27.6970   49.7560 N   0  0  0  0  0  0  0  0  0  0  0  0
   58.8779   34.6889   47.1873 H   0  0  0  0  0  0  0  0  0  0  0  0
   59.3607   35.4634   45.6401 H   0  0  0  0  0  0  0  0  0  0  0  0
   58.6960   33.7946   45.6401 H   0  0  0  0  0  0  0  0  0  0  0  0
   60.8708   33.1338   45.6317 H   0  0  0  0  0  0  0  0  0  0  0  0
   61.4469   34.7641   46.1694 H   0  0  0  0  0  0  0  0  0  0  0  0
   62.3326   34.9080   48.3348 H   0  0  0  0  0  0  0  0  0  0  0  0
   62.5366   33.2598   49.0870 H   0  0  0  0  0  0  0  0  0  0  0  0
   64.3170   33.1706   47.6734 H   0  0  0  0  0  0  0  0  0  0  0  0
   63.0518   32.6375   46.5151 H   0  0  0  0  0  0  0  0  0  0  0  0
   63.6070   34.3458   46.5151 H   0  0  0  0  0  0  0  0  0  0  0  0
   60.3460   34.7105   49.3022 H   0  0  0  0  0  0  0  0  0  0  0  0
   59.0791   34.3444   48.0591 H   0  0  0  0  0  0  0  0  0  0  0  0
   59.4548   33.0993   50.6015 H   0  0  0  0  0  0  0  0  0  0  0  0
   58.2902   32.6597   49.2669 H   0  0  0  0  0  0  0  0  0  0  0  0
   59.9870   30.9440   50.2280 H   0  0  0  0  0  0  0  0  0  0  0  0
   61.0370   31.7020   49.1380 H   0  0  0  0  0  0  0  0  0  0  0  0
   59.1133   32.0965   44.5381 H   0  0  0  0  0  0  0  0  0  0  0  0
   57.9760   32.4147   42.3473 H   0  0  0  0  0  0  0  0  0  0  0  0
   56.1518   30.8706   41.6477 H   0  0  0  0  0  0  0  0  0  0  0  0
   55.4521   29.0024   43.1396 H   0  0  0  0  0  0  0  0  0  0  0  0
   57.2577   26.8154   46.6071 H   0  0  0  0  0  0  0  0  0  0  0  0
   56.4487   26.4252   45.0516 H   0  0  0  0  0  0  0  0  0  0  0  0
   58.0779   27.1818   45.0516 H   0  0  0  0  0  0  0  0  0  0  0  0
  1  2  1  0
  2  3  1  0
  3  4  1  0
  4  5  1  0
  3  6  1  0
  6  7  1  0
  7  8  1  0
  8  9  1  0
  9 10  1  0
 10 11  1  0
 11 12  1  0
 12 13  2  0
 13 14  1  0
 14 15  2  0
 15 16  1  0
 16 17  2  0
 17 18  1  0
 18 19  1  0
 11 20  2  0
 20 21  1  0
 21 22  1  0
 22 23  3  0
 21  9  2  0
 17 12  1  0
  1 24  1  0
  1 25  1  0
  1 26  1  0
  2 27  1  0
  2 28  1  0
  4 29  1  0
  4 30  1  0
  5 31  1  0
  5 32  1  0
  5 33  1  0
  6 34  1  0
  6 35  1  0
  7 36  1  0
  7 37  1  0
  8 38  1  0
  8 39  1  0
 13 40  1  0
 14 41  1  0
 15 42  1  0
 16 43  1  0
 19 44  1  0
 19 45  1  0
 19 46  1  0
M  CHG  1   8   1
M  END
>  <UniqueID>  (10) 
10

>  <SMILES>  (10) 
CCN(CC)CC[NH2+]c1oc(-c2ccccc2OC)nc1C#N

>  <Energy>  (10) 
76.53318397784288

>  <Genealogy>  (10) 
CCN(CC)CC[NH2+]c1oc(-c2ccccc2OC)nc1C#N (protonated)
CCN(CC)CC[NH2+]c1oc(-c2ccccc2OC)nc1C#N (3D coordinates assigned)
CCN(CC)CC[NH2+]c1oc(-c2ccccc2OC)nc1C#N (optimized conformer: 76.53318397784288 kcal/mol)

>  <smiles>  (10) 
CCN(CC)CCNc1oc(-c2ccccc2OC)nc1C#N

>  <score_type>  (10) 
oracle

>  <origin>  (10) 
adg

>  <m_score__min__energy>  (10) 
-4.5300000000000002

>  <m_primary>  (10) 
energy

$$$$
10:0
     RDKit          3D

 39 40  0  0  0  0  0  0  0  0999 V2000
   57.7900   28.1830   44.0490 C   0  0  0  0  0  0  0  0  0  0  0  0
   56.9410   28.5650   45.2550 C   0  0  0  0  0  0  0  0  0  0  0  0
   55.9290   29.4780   44.8710 O   0  0  0  0  0  0  0  0  0  0  0  0
   56.1990   30.0110   43.5910 C   0  0  0  0  0  0  0  0  0  0  0  0
   57.1000   31.2470   43.7170 C   0  0  0  0  0  0  0  0  0  0  0  0
   57.2000   31.7210   45.1160 N   0  0  0  0  0  0  0  0  0  0  0  0
   58.5750   31.5660   45.6530 C   0  0  0  0  0  0  0  0  0  0  0  0
   58.8360   32.5080   46.8390 C   0  0  0  0  0  0  0  0  0  0  0  0
   58.6840   33.9390   46.4660 N   0  0  0  0  0  0  0  0  0  0  0  0
   59.9860   34.6000   46.2500 C   0  0  0  0  0  0  0  0  0  0  0  0
   60.9530   34.2170   47.3270 C   0  0  0  0  0  0  0  0  0  0  0  0
   60.7280   34.3230   48.6950 C   0  0  0  0  0  0  0  0  0  0  0  0
   61.8100   33.8840   49.4660 C   0  0  0  0  0  0  0  0  0  0  0  0
   62.8790   33.4380   48.7020 C   0  0  0  0  0  0  0  0  0  0  0  0
   64.5290   32.7640   49.3800 Br  0  0  0  0  0  0  0  0  0  0  0  0
   62.4920   33.5830   47.0740 S   0  0  0  0  0  0  0  0  0  0  0  0
   57.7960   34.1490   45.3000 C   0  0  0  0  0  0  0  0  0  0  0  0
   56.6730   33.1040   45.2590 C   0  0  0  0  0  0  0  0  0  0  0  0
   58.7430   27.7542   44.3925 H   0  0  0  0  0  0  0  0  0  0  0  0
   57.2515   27.4404   43.4419 H   0  0  0  0  0  0  0  0  0  0  0  0
   57.9885   29.0785   43.4419 H   0  0  0  0  0  0  0  0  0  0  0  0
   56.4749   27.6603   45.6725 H   0  0  0  0  0  0  0  0  0  0  0  0
   57.5841   29.0391   46.0111 H   0  0  0  0  0  0  0  0  0  0  0  0
   56.7069   29.2507   42.9794 H   0  0  0  0  0  0  0  0  0  0  0  0
   55.2516   30.3017   43.1135 H   0  0  0  0  0  0  0  0  0  0  0  0
   58.1070   30.9905   43.3562 H   0  0  0  0  0  0  0  0  0  0  0  0
   56.6552   32.0540   43.1162 H   0  0  0  0  0  0  0  0  0  0  0  0
   58.7113   30.5269   45.9873 H   0  0  0  0  0  0  0  0  0  0  0  0
   59.2848   31.8209   44.8522 H   0  0  0  0  0  0  0  0  0  0  0  0
   58.1208   32.2735   47.6412 H   0  0  0  0  0  0  0  0  0  0  0  0
   59.8740   32.3544   47.1691 H   0  0  0  0  0  0  0  0  0  0  0  0
   60.3905   34.2929   45.2742 H   0  0  0  0  0  0  0  0  0  0  0  0
   59.8401   35.6900   46.2737 H   0  0  0  0  0  0  0  0  0  0  0  0
   59.7944   34.7124   49.1272 H   0  0  0  0  0  0  0  0  0  0  0  0
   61.8129   33.8917   50.5660 H   0  0  0  0  0  0  0  0  0  0  0  0
   57.3497   35.1522   45.3656 H   0  0  0  0  0  0  0  0  0  0  0  0
   58.3966   34.0494   44.3838 H   0  0  0  0  0  0  0  0  0  0  0  0
   56.0946   33.1683   46.1924 H   0  0  0  0  0  0  0  0  0  0  0  0
   56.0430   33.3184   44.3831 H   0  0  0  0  0  0  0  0  0  0  0  0
  1  2  1  0
  2  3  1  0
  3  4  1  0
  4  5  1  0
  5  6  1  0
  6  7  1  0
  7  8  1  0
  8  9  1  0
  9 10  1  0
 10 11  1  0
 11 12  2  0
 12 13  1  0
 13 14  2  0
 14 15  1  0
 14 16  1  0
  9 17  1  0
 17 18  1  0
 18  6  1  0
 16 11  1  0
  1 19  1  0
  1 20  1  0
  1 21  1  0
  2 22  1  0
  2 23  1  0
  4 24  1  0
  4 25  1  0
  5 26  1  0
  5 27  1  0
  7 28  1  0
  7 29  1  0
  8 30  1  0
  8 31  1  0
 10 32  1  0
 10 33  1  0
 12 34  1  0
 13 35  1  0
 17 36  1  0
 17 37  1  0
 18 38  1  0
 18 39  1  0
M  END
>  <UniqueID>  (11) 
11

>  <SMILES>  (11) 
CCOCCN1CCN(Cc2ccc(Br)s2)CC1

>  <Energy>  (11) 
75.20213803038632

>  <Genealogy>  (11) 
CCOCCN1CCN(Cc2ccc(Br)s2)CC1 (3D coordinates assigned)
CCOCCN1CCN(Cc2ccc(Br)s2)CC1 (nonaromatic ring conformer: 75.20213803038632 kcal/mol)

>  <smiles>  (11) 
CCOCCN1CCN(Cc2ccc(Br)s2)CC1

>  <score_type>  (11) 
oracle

>  <origin>  (11) 
adg

>  <m_score__min__energy>  (11) 
-7.1299999999999999

>  <m_primary>  (11) 
energy

$$$$
11:0
     RDKit          3D

 50 51  0  0  0  0  0  0  0  0999 V2000
   58.8820   30.2670   45.4320 C   0  0  0  0  0  0  0  0  0  0  0  0
   60.2430   29.9960   46.0630 C   0  0  0  0  0  0  0  0  0  0  0  0
   60.2740   30.4890   47.3900 O   0  0  0  0  0  0  0  0  0  0  0  0
   59.8840   29.4840   48.3030 C   0  0  0  0  0  0  0  0  0  0  0  0
   60.2760   29.8950   49.7230 C   0  0  0  0  0  0  0  0  0  0  0  0
   59.4490   31.0970   50.2190 C   0  0  0  0  0  0  0  0  0  0  0  0
   59.6090   32.2780   49.3420 N   0  0  0  0  0  0  0  0  0  0  0  0
   58.3570   32.6850   48.6750 C   0  0  0  0  0  0  0  0  0  0  0  0
   58.6100   33.4520   47.3950 C   0  0  0  0  0  0  0  0  0  0  0  0
   57.6750   33.3760   46.3480 C   0  0  0  0  0  0  0  0  0  0  0  0
   57.9070   34.0370   45.1430 C   0  0  0  0  0  0  0  0  0  0  0  0
   59.0740   34.7790   44.9690 C   0  0  0  0  0  0  0  0  0  0  0  0
   60.0140   34.8630   45.9980 C   0  0  0  0  0  0  0  0  0  0  0  0
   59.7960   34.1980   47.2230 C   0  0  0  0  0  0  0  0  0  0  0  0
   60.7120   34.2440   48.2950 O   0  0  0  0  0  0  0  0  0  0  0  0
   62.0770   33.8100   48.3220 C   0  0  0  0  0  0  0  0  0  0  0  0
   62.3450   32.6500   47.3350 C   0  0  0  0  0  0  0  0  0  0  0  0
   63.3960   31.6700   47.8800 C   0  0  0  0  0  0  0  0  0  0  0  0
   64.4890   32.3900   48.5470 N   0  0  0  0  0  0  0  0  0  0  0  0
   64.0490   33.0920   49.7700 C   0  0  0  0  0  0  0  0  0  0  0  0
   62.5660   33.5230   49.7530 C   0  0  0  0  0  0  0  0  0  0  0  0
   58.1336   30.4160   46.2243 H   0  0  0  0  0  0  0  0  0  0  0  0
   58.9405   31.1711   44.8082 H   0  0  0  0  0  0  0  0  0  0  0  0
   58.5898   29.4094   44.8082 H   0  0  0  0  0  0  0  0  0  0  0  0
   60.4291   28.9119   46.0738 H   0  0  0  0  0  0  0  0  0  0  0  0
   61.0197   30.5047   45.4730 H   0  0  0  0  0  0  0  0  0  0  0  0
   58.7940   29.3457   48.2504 H   0  0  0  0  0  0  0  0  0  0  0  0
   60.3896   28.5419   48.0445 H   0  0  0  0  0  0  0  0  0  0  0  0
   60.1082   29.0438   50.3993 H   0  0  0  0  0  0  0  0  0  0  0  0
   61.3359   30.1893   49.7138 H   0  0  0  0  0  0  0  0  0  0  0  0
   58.3867   30.8124   50.2416 H   0  0  0  0  0  0  0  0  0  0  0  0
   59.8093   31.3671   51.2226 H   0  0  0  0  0  0  0  0  0  0  0  0
   60.3640   32.1270   48.6320 H   0  0  0  0  0  0  0  0  0  0  0  0
   59.9160   33.0850   49.9350 H   0  0  0  0  0  0  0  0  0  0  0  0
   57.7737   31.7832   48.4374 H   0  0  0  0  0  0  0  0  0  0  0  0
   57.8106   33.3482   49.3618 H   0  0  0  0  0  0  0  0  0  0  0  0
   56.7533   32.7904   46.4807 H   0  0  0  0  0  0  0  0  0  0  0  0
   57.1693   33.9731   44.3296 H   0  0  0  0  0  0  0  0  0  0  0  0
   59.2551   35.3003   44.0175 H   0  0  0  0  0  0  0  0  0  0  0  0
   60.9315   35.4521   45.8524 H   0  0  0  0  0  0  0  0  0  0  0  0
   62.6890   34.6496   47.9608 H   0  0  0  0  0  0  0  0  0  0  0  0
   61.4053   32.1049   47.1622 H   0  0  0  0  0  0  0  0  0  0  0  0
   62.7302   33.0793   46.3984 H   0  0  0  0  0  0  0  0  0  0  0  0
   62.9167   30.9934   48.6028 H   0  0  0  0  0  0  0  0  0  0  0  0
   63.8140   31.0992   47.0377 H   0  0  0  0  0  0  0  0  0  0  0  0
   64.8860   33.0890   47.8760 H   0  0  0  0  0  0  0  0  0  0  0  0
   64.2035   32.4208   50.6277 H   0  0  0  0  0  0  0  0  0  0  0  0
   64.6456   34.0137   49.8377 H   0  0  0  0  0  0  0  0  0  0  0  0
   61.9547   32.7166   50.1844 H   0  0  0  0  0  0  0  0  0  0  0  0
   62.4689   34.4469   50.3421 H   0  0  0  0  0  0  0  0  0  0  0  0
  1  2  1  0
  2  3  1  0
  3  4  1  0
  4  5  1  0
  5  6  1  0
  6  7  1  0
  7  8  1  0
  8  9  1  0
  9 10  2  0
 10 11  1  0
 11 12  2  0
 12 13  1  0
 13 14  2  0
 14 15  1  0
 15 16  1  0
 16 17  1  0
 17 18  1  0
 18 19  1  0
 19 20  1  0
 20 21  1  0
 14  9  1  0
 21 16  1  0
  1 22  1  0
  1 23  1  0
  1 24  1  0
  2 25  1  0
  2 26  1  0
  4 27  1  0
  4 28  1  0
  5 29  1  0
  5 30  1  0
  6 31  1  0
  6 32  1  0
  7 33  1  0
  7 34  1  0
  8 35  1  0
  8 36  1  0
 10 37  1  0
 11 38  1  0
 12 39  1  0
 13 40  1  0
 16 41  1  0
 17 42  1  0
 17 43  1  0
 18 44  1  0
 18 45  1  0
 19 46  1  0
 20 47  1  0
 20 48  1  0
 21 49  1  0
 21 50  1  0
M  CHG  1   7   1
M  END
>  <UniqueID>  (12) 
12

>  <SMILES>  (12) 
CCOCCC[NH2+]Cc1ccccc1OC1CCNCC1

>  <Energy>  (12) 
54.588932507937336

>  <Genealogy>  (12) 
CCOCCC[NH2+]Cc1ccccc1OC1CCNCC1 (protonated)
CCOCCC[NH2+]Cc1ccccc1OC1CCNCC1 (3D coordinates assigned)
CCOCCC[NH2+]Cc1ccccc1OC1CCNCC1 (nonaromatic ring conformer: 54.588932507937336 kcal/mol)

>  <smiles>  (12) 
CCOCCCNCc1ccccc1OC1CCNCC1

>  <score_type>  (12) 
oracle

>  <origin>  (12) 
adg

>  <m_score__min__energy>  (12) 
-4.0199999999999996

>  <m_primary>  (12) 
energy

$$$$
12:0
     RDKit          3D

 51 53  0  0  0  0  0  0  0  0999 V2000
   63.3330   33.7890   46.6910 C   0  0  0  0  0  0  0  0  0  0  0  0
   63.7050   32.7640   47.7690 C   0  0  0  0  0  0  0  0  0  0  0  0
   62.7950   32.8300   48.9470 N   0  0  0  0  0  0  0  0  0  0  0  0
   62.2150   34.1900   49.0940 C   0  0  0  0  0  0  0  0  0  0  0  0
   60.6810   34.1830   49.1230 C   0  0  0  0  0  0  0  0  0  0  0  0
   61.7850   31.7310   48.9480 C   0  0  0  0  0  0  0  0  0  0  0  0
   61.6860   30.8660   47.6670 C   0  0  0  0  0  0  0  0  0  0  0  0
   60.7740   29.6420   47.7970 C   0  0  0  0  0  0  0  0  0  0  0  0
   59.3730   30.0530   47.7440 N   0  0  0  0  0  0  0  0  0  0  0  0
   58.7230   30.2950   46.4880 C   0  0  0  0  0  0  0  0  0  0  0  0
   58.4550   31.6000   46.0110 C   0  0  0  0  0  0  0  0  0  0  0  0
   58.7460   32.7290   46.8010 C   0  0  0  0  0  0  0  0  0  0  0  0
   58.4570   34.0110   46.3390 C   0  0  0  0  0  0  0  0  0  0  0  0
   57.8570   34.1910   45.0970 C   0  0  0  0  0  0  0  0  0  0  0  0
   57.5410   33.0900   44.2990 C   0  0  0  0  0  0  0  0  0  0  0  0
   57.8350   31.7720   44.7250 C   0  0  0  0  0  0  0  0  0  0  0  0
   57.5210   30.6670   43.9450 N   0  0  0  0  0  0  0  0  0  0  0  0
   56.9670   30.8200   42.5870 C   0  0  0  0  0  0  0  0  0  0  0  0
   57.7220   29.4200   44.4790 C   0  0  0  0  0  0  0  0  0  0  0  0
   57.4000   28.2320   43.9250 N   0  0  0  0  0  0  0  0  0  0  0  0
   57.8020   27.2890   44.8060 C   0  0  0  0  0  0  0  0  0  0  0  0
   58.3770   27.8720   45.9250 C   0  0  0  0  0  0  0  0  0  0  0  0
   58.3050   29.2310   45.7020 C   0  0  0  0  0  0  0  0  0  0  0  0
   62.9953   34.7195   47.1707 H   0  0  0  0  0  0  0  0  0  0  0  0
   64.2127   33.9978   46.0645 H   0  0  0  0  0  0  0  0  0  0  0  0
   62.5242   33.3850   46.0645 H   0  0  0  0  0  0  0  0  0  0  0  0
   63.6480   31.7555   47.3335 H   0  0  0  0  0  0  0  0  0  0  0  0
   64.7233   32.9936   48.1159 H   0  0  0  0  0  0  0  0  0  0  0  0
   63.3790   32.6590   49.8010 H   0  0  0  0  0  0  0  0  0  0  0  0
   62.5821   34.6288   50.0335 H   0  0  0  0  0  0  0  0  0  0  0  0
   62.5267   34.7790   48.2188 H   0  0  0  0  0  0  0  0  0  0  0  0
   60.3340   34.1814   50.1668 H   0  0  0  0  0  0  0  0  0  0  0  0
   60.3005   35.0794   48.6115 H   0  0  0  0  0  0  0  0  0  0  0  0
   60.3087   33.2831   48.6115 H   0  0  0  0  0  0  0  0  0  0  0  0
   62.0268   31.0588   49.7845 H   0  0  0  0  0  0  0  0  0  0  0  0
   60.8117   32.2375   49.0267 H   0  0  0  0  0  0  0  0  0  0  0  0
   61.2990   31.4983   46.8543 H   0  0  0  0  0  0  0  0  0  0  0  0
   62.6979   30.4830   47.4687 H   0  0  0  0  0  0  0  0  0  0  0  0
   60.9803   28.9450   46.9714 H   0  0  0  0  0  0  0  0  0  0  0  0
   60.9686   29.1483   48.7605 H   0  0  0  0  0  0  0  0  0  0  0  0
   58.7740   29.8080   48.5660 H   0  0  0  0  0  0  0  0  0  0  0  0
   59.2056   32.5973   47.7917 H   0  0  0  0  0  0  0  0  0  0  0  0
   58.7044   34.8851   46.9593 H   0  0  0  0  0  0  0  0  0  0  0  0
   57.6302   35.2070   44.7415 H   0  0  0  0  0  0  0  0  0  0  0  0
   57.0562   33.2488   43.3244 H   0  0  0  0  0  0  0  0  0  0  0  0
   55.9086   31.1123   42.6535 H   0  0  0  0  0  0  0  0  0  0  0  0
   57.5286   31.5967   42.0472 H   0  0  0  0  0  0  0  0  0  0  0  0
   57.0505   29.8652   42.0472 H   0  0  0  0  0  0  0  0  0  0  0  0
   56.9160   28.0370   43.0230 H   0  0  0  0  0  0  0  0  0  0  0  0
   57.6883   26.2053   44.6556 H   0  0  0  0  0  0  0  0  0  0  0  0
   58.7998   27.3604   46.8022 H   0  0  0  0  0  0  0  0  0  0  0  0
  1  2  1  0
  2  3  1  0
  3  4  1  0
  4  5  1  0
  3  6  1  0
  6  7  1  0
  7  8  1  0
  8  9  1  0
  9 10  1  0
 10 11  2  0
 11 12  1  0
 12 13  2  0
 13 14  1  0
 14 15  2  0
 15 16  1  0
 16 17  2  0
 17 18  1  0
 17 19  1  0
 19 20  1  0
 20 21  1  0
 21 22  2  0
 22 23  1  0
 23 10  1  0
 16 11  1  0
 23 19  2  0
  1 24  1  0
  1 25  1  0
  1 26  1  0
  2 27  1  0
  2 28  1  0
  3 29  1  0
  4 30  1  0
  4 31  1  0
  5 32  1  0
  5 33  1  0
  5 34  1  0
  6 35  1  0
  6 36  1  0
  7 37  1  0
  7 38  1  0
  8 39  1  0
  8 40  1  0
  9 41  1  0
 12 42  1  0
 13 43  1  0
 14 44  1  0
 15 45  1  0
 18 46  1  0
 18 47  1  0
 18 48  1  0
 20 49  1  0
 21 50  1  0
 22 51  1  0
M  CHG  2   3   1  17   1
M  END
>  <UniqueID>  (13) 
13

>  <SMILES>  (13) 
CC[NH+](CC)CCCNc1c2ccccc2[n+](C)c2[nH]ccc12

>  <Energy>  (13) 
103.41648930230252

>  <Genealogy>  (13) 
CC[NH+](CC)CCCNc1c2ccccc2[n+](C)c2[nH]ccc12 (protonated)
CC[NH+](CC)CCCNc1c2ccccc2[n+](C)c2[nH]ccc12 (3D coordinates assigned)
CC[NH+](CC)CCCNc1c2ccccc2[n+](C)c2[nH]ccc12 (optimized conformer: 103.41648930230252 kcal/mol)

>  <smiles>  (13) 
CCN(CC)CCCNc1c2ccccc2[n+](C)c2[nH]ccc12

>  <score_type>  (13) 
oracle

>  <origin>  (13) 
adg

>  <m_score__min__energy>  (13) 
-4.5700000000000003

>  <m_primary>  (13) 
energy

$$$$
13:0
     RDKit          3D

 72 75  0  0  0  0  0  0  0  0999 V2000
   61.8390   30.4800   52.2790 C   0  0  0  0  0  0  0  0  0  0  0  0
   60.4100   30.9320   51.9520 C   0  0  0  0  0  0  0  0  0  0  0  0
   59.6320   29.8970   51.2170 N   0  0  0  0  0  0  0  0  0  0  0  0
   58.5350   30.5200   50.4270 C   0  0  0  0  0  0  0  0  0  0  0  0
   58.5580   32.0570   50.4050 C   0  0  0  0  0  0  0  0  0  0  0  0
   60.5300   29.0330   50.4050 C   0  0  0  0  0  0  0  0  0  0  0  0
   59.9640   28.7170   49.0060 C   0  0  0  0  0  0  0  0  0  0  0  0
   60.7340   29.3930   47.9610 N   0  0  0  0  0  0  0  0  0  0  0  0
   60.4700   30.7510   47.5810 C   0  0  0  0  0  0  0  0  0  0  0  0
   61.2330   31.8280   48.0870 C   0  0  0  0  0  0  0  0  0  0  0  0
   62.1950   31.6180   49.0950 C   0  0  0  0  0  0  0  0  0  0  0  0
   62.9270   32.6820   49.6140 C   0  0  0  0  0  0  0  0  0  0  0  0
   62.7010   33.9760   49.1560 C   0  0  0  0  0  0  0  0  0  0  0  0
   61.7440   34.2190   48.1710 C   0  0  0  0  0  0  0  0  0  0  0  0
   60.9970   33.1600   47.6010 C   0  0  0  0  0  0  0  0  0  0  0  0
   60.0470   33.3880   46.6160 N   0  0  0  0  0  0  0  0  0  0  0  0
   59.8620   34.7230   46.0180 C   0  0  0  0  0  0  0  0  0  0  0  0
   59.2550   32.3400   46.2210 C   0  0  0  0  0  0  0  0  0  0  0  0
   58.2150   32.3950   45.3520 N   0  0  0  0  0  0  0  0  0  0  0  0
   57.7640   31.1270   45.2620 C   0  0  0  0  0  0  0  0  0  0  0  0
   56.6950   30.6750   44.4940 C   0  0  0  0  0  0  0  0  0  0  0  0
   56.3760   29.3080   44.5420 C   0  0  0  0  0  0  0  0  0  0  0  0
   57.1170   28.4160   45.3510 C   0  0  0  0  0  0  0  0  0  0  0  0
   56.7450   27.0630   45.3570 O   0  0  0  0  0  0  0  0  0  0  0  0
   57.5050   26.0000   44.8500 C   0  0  0  0  0  0  0  0  0  0  0  0
   57.4040   25.6390   43.6460 O   0  0  0  0  0  0  0  0  0  0  0  0
   58.3900   25.2280   45.7750 C   0  0  0  0  0  0  0  0  0  0  0  0
   57.5920   24.1290   46.4900 C   0  0  0  0  0  0  0  0  0  0  0  0
   56.3550   24.6520   47.0940 N   0  0  0  0  0  0  0  0  0  0  0  0
   55.1120   24.0490   46.5760 C   0  0  0  0  0  0  0  0  0  0  0  0
   54.3230   24.9640   45.6250 C   0  0  0  0  0  0  0  0  0  0  0  0
   54.5000   26.3080   45.9800 O   0  0  0  0  0  0  0  0  0  0  0  0
   58.1740   28.9140   46.1500 C   0  0  0  0  0  0  0  0  0  0  0  0
   58.4890   30.2720   46.0620 C   0  0  0  0  0  0  0  0  0  0  0  0
   59.4490   31.0540   46.6850 C   0  0  0  0  0  0  0  0  0  0  0  0
   61.9698   30.4386   53.3704 H   0  0  0  0  0  0  0  0  0  0  0  0
   62.0151   29.4823   51.8505 H   0  0  0  0  0  0  0  0  0  0  0  0
   62.5568   31.1950   51.8505 H   0  0  0  0  0  0  0  0  0  0  0  0
   59.8893   31.1603   52.8937 H   0  0  0  0  0  0  0  0  0  0  0  0
   60.4827   31.8160   51.3015 H   0  0  0  0  0  0  0  0  0  0  0  0
   59.1640   29.2850   51.9280 H   0  0  0  0  0  0  0  0  0  0  0  0
   58.6114   30.1605   49.3902 H   0  0  0  0  0  0  0  0  0  0  0  0
   57.5935   30.2284   50.9154 H   0  0  0  0  0  0  0  0  0  0  0  0
   58.5637   32.4384   51.4367 H   0  0  0  0  0  0  0  0  0  0  0  0
   59.4614   32.4027   49.8813 H   0  0  0  0  0  0  0  0  0  0  0  0
   57.6653   32.4296   49.8813 H   0  0  0  0  0  0  0  0  0  0  0  0
   61.4950   29.5471   50.2842 H   0  0  0  0  0  0  0  0  0  0  0  0
   60.6361   28.0772   50.9391 H   0  0  0  0  0  0  0  0  0  0  0  0
   60.0069   27.6307   48.8381 H   0  0  0  0  0  0  0  0  0  0  0  0
   58.9247   29.0745   48.9607 H   0  0  0  0  0  0  0  0  0  0  0  0
   61.5260   28.8900   47.5030 H   0  0  0  0  0  0  0  0  0  0  0  0
   62.3695   30.6011   49.4763 H   0  0  0  0  0  0  0  0  0  0  0  0
   63.6864   32.4992   50.3885 H   0  0  0  0  0  0  0  0  0  0  0  0
   63.2806   34.8126   49.5733 H   0  0  0  0  0  0  0  0  0  0  0  0
   61.5667   35.2502   47.8315 H   0  0  0  0  0  0  0  0  0  0  0  0
   59.7583   35.4716   46.8173 H   0  0  0  0  0  0  0  0  0  0  0  0
   60.7345   34.9700   45.3953 H   0  0  0  0  0  0  0  0  0  0  0  0
   58.9552   34.7234   45.3953 H   0  0  0  0  0  0  0  0  0  0  0  0
   57.8050   33.2210   44.8660 H   0  0  0  0  0  0  0  0  0  0  0  0
   56.1161   31.3690   43.8669 H   0  0  0  0  0  0  0  0  0  0  0  0
   55.5374   28.9258   43.9414 H   0  0  0  0  0  0  0  0  0  0  0  0
   59.2036   24.7663   45.1963 H   0  0  0  0  0  0  0  0  0  0  0  0
   58.8030   25.9151   46.5283 H   0  0  0  0  0  0  0  0  0  0  0  0
   57.3291   23.3489   45.7605 H   0  0  0  0  0  0  0  0  0  0  0  0
   58.2196   23.7227   47.2969 H   0  0  0  0  0  0  0  0  0  0  0  0
   56.3230   25.6870   46.9350 H   0  0  0  0  0  0  0  0  0  0  0  0
   55.3739   23.1289   46.0330 H   0  0  0  0  0  0  0  0  0  0  0  0
   54.4645   23.8580   47.4445 H   0  0  0  0  0  0  0  0  0  0  0  0
   54.6801   24.8111   44.5959 H   0  0  0  0  0  0  0  0  0  0  0  0
   53.2540   24.7145   45.6957 H   0  0  0  0  0  0  0  0  0  0  0  0
   55.1170   26.3070   46.7580 H   0  0  0  0  0  0  0  0  0  0  0  0
   58.7335   28.2481   46.8235 H   0  0  0  0  0  0  0  0  0  0  0  0
  1  2  1  0
  2  3  1  0
  3  4  1  0
  4  5  1  0
  3  6  1  0
  6  7  1  0
  7  8  1  0
  8  9  1  0
  9 10  2  0
 10 11  1  0
 11 12  2  0
 12 13  1  0
 13 14  2  0
 14 15  1  0
 15 16  2  0
 16 17  1  0
 16 18  1  0
 18 19  1  0
 19 20  1  0
 20 21  2  0
 21 22  1  0
 22 23  2  0
 23 24  1  0
 24 25  1  0
 25 26  2  0
 25 27  1  0
 27 28  1  0
 28 29  1  0
 29 30  1  0
 30 31  1  0
 31 32  1  0
 23 33  1  0
 33 34  2  0
 34 35  1  0
 35  9  1  0
 15 10  1  0
 35 18  2  0
 34 20  1  0
  1 36  1  0
  1 37  1  0
  1 38  1  0
  2 39  1  0
  2 40  1  0
  3 41  1  0
  4 42  1  0
  4 43  1  0
  5 44  1  0
  5 45  1  0
  5 46  1  0
  6 47  1  0
  6 48  1  0
  7 49  1  0
  7 50  1  0
  8 51  1  0
 11 52  1  0
 12 53  1  0
 13 54  1  0
 14 55  1  0
 17 56  1  0
 17 57  1  0
 17 58  1  0
 19 59  1  0
 21 60  1  0
 22 61  1  0
 27 62  1  0
 27 63  1  0
 28 64  1  0
 28 65  1  0
 29 66  1  0
 30 67  1  0
 30 68  1  0
 31 69  1  0
 31 70  1  0
 32 71  1  0
 33 72  1  0
M  CHG  2   3   1  16   1
M  END
>  <UniqueID>  (14) 
14

>  <SMILES>  (14) 
CC[NH+](CC)CCNc1c2ccccc2[n+](C)c2[nH]c3ccc(OC(=O)CCNCCO)cc3c12

>  <Energy>  (14) 
133.0760168271066

>  <Genealogy>  (14) 
CC[NH+](CC)CCNc1c2ccccc2[n+](C)c2[nH]c3ccc(OC(=O)CCNCCO)cc3c12 (protonated)
CC[NH+](CC)CCNc1c2ccccc2[n+](C)c2[nH]c3ccc(OC(=O)CCNCCO)cc3c12 (3D coordinates assigned)
CC[NH+](CC)CCNc1c2ccccc2[n+](C)c2[nH]c3ccc(OC(=O)CCNCCO)cc3c12 (optimized conformer: 133.0760168271066 kcal/mol)

>  <smiles>  (14) 
CCN(CC)CCNc1c2ccccc2[n+](C)c2[nH]c3ccc(OC(=O)CCNCCO)cc3c12

>  <score_type>  (14) 
oracle

>  <origin>  (14) 
adg

>  <m_score__min__energy>  (14) 
-5.1200000000000001

>  <m_primary>  (14) 
energy

$$$$
14:0
     RDKit          3D

 49 51  0  0  0  0  0  0  0  0999 V2000
   60.3050   28.5170   48.0660 C   0  0  0  0  0  0  0  0  0  0  0  0
   61.0240   29.8430   47.8400 C   0  0  0  0  0  0  0  0  0  0  0  0
   60.1950   30.7640   46.9750 C   0  0  0  0  0  0  0  0  0  0  0  0
   59.2020   30.2100   46.1510 C   0  0  0  0  0  0  0  0  0  0  0  0
   58.4430   31.0240   45.3000 C   0  0  0  0  0  0  0  0  0  0  0  0
   57.1770   30.3120   44.3050 S   0  0  0  0  0  0  0  0  0  0  0  0
   57.3120   30.8300   42.9000 O   0  0  0  0  0  0  0  0  0  0  0  0
   55.8210   30.6860   44.8320 O   0  0  0  0  0  0  0  0  0  0  0  0
   57.3460   28.5680   44.3120 C   0  0  0  0  0  0  0  0  0  0  0  0
   57.7690   27.7920   43.2430 C   0  0  0  0  0  0  0  0  0  0  0  0
   57.7960   26.4250   43.5390 C   0  0  0  0  0  0  0  0  0  0  0  0
   57.3970   26.1280   44.8380 C   0  0  0  0  0  0  0  0  0  0  0  0
   57.0080   27.5680   45.6180 S   0  0  0  0  0  0  0  0  0  0  0  0
   58.6730   32.4040   45.2740 C   0  0  0  0  0  0  0  0  0  0  0  0
   59.6620   32.9650   46.0830 C   0  0  0  0  0  0  0  0  0  0  0  0
   60.4290   32.1570   46.9330 C   0  0  0  0  0  0  0  0  0  0  0  0
   61.4230   32.7670   47.7630 N   0  0  0  0  0  0  0  0  0  0  0  0
   61.0750   33.5670   48.9240 C   0  0  0  0  0  0  0  0  0  0  0  0
   62.3370   34.3390   49.2920 C   0  0  0  0  0  0  0  0  0  0  0  0
   63.4870   33.7340   48.4570 C   0  0  1  0  0  0  0  0  0  0  0  0
   64.4410   32.9460   49.2940 N   0  0  0  0  0  0  0  0  0  0  0  0
   64.9530   33.6640   50.4810 C   0  0  0  0  0  0  0  0  0  0  0  0
   63.8600   31.6500   49.6970 C   0  0  0  0  0  0  0  0  0  0  0  0
   62.7990   32.9300   47.3380 C   0  0  0  0  0  0  0  0  0  0  0  0
   60.2054   28.3333   49.1460 H   0  0  0  0  0  0  0  0  0  0  0  0
   59.3060   28.5588   47.6075 H   0  0  0  0  0  0  0  0  0  0  0  0
   60.8851   27.7026   47.6075 H   0  0  0  0  0  0  0  0  0  0  0  0
   61.2033   30.3259   48.8119 H   0  0  0  0  0  0  0  0  0  0  0  0
   61.9775   29.6437   47.3289 H   0  0  0  0  0  0  0  0  0  0  0  0
   59.0182   29.1257   46.1739 H   0  0  0  0  0  0  0  0  0  0  0  0
   58.0534   28.2078   42.2651 H   0  0  0  0  0  0  0  0  0  0  0  0
   58.1036   25.6577   42.8133 H   0  0  0  0  0  0  0  0  0  0  0  0
   57.3446   25.1223   45.2806 H   0  0  0  0  0  0  0  0  0  0  0  0
   58.0729   33.0480   44.6144 H   0  0  0  0  0  0  0  0  0  0  0  0
   59.8409   34.0499   46.0532 H   0  0  0  0  0  0  0  0  0  0  0  0
   60.2587   34.2624   48.6789 H   0  0  0  0  0  0  0  0  0  0  0  0
   60.7275   32.9394   49.7579 H   0  0  0  0  0  0  0  0  0  0  0  0
   62.2133   35.4050   49.0504 H   0  0  0  0  0  0  0  0  0  0  0  0
   62.5475   34.2627   50.3690 H   0  0  0  0  0  0  0  0  0  0  0  0
   64.1357   34.5061   48.0177 H   0  0  0  0  0  0  0  0  0  0  0  0
   65.2690   32.7180   48.6930 H   0  0  0  0  0  0  0  0  0  0  0  0
   64.5966   33.1642   51.3938 H   0  0  0  0  0  0  0  0  0  0  0  0
   66.0529   33.6595   50.4661 H   0  0  0  0  0  0  0  0  0  0  0  0
   64.5904   34.7024   50.4661 H   0  0  0  0  0  0  0  0  0  0  0  0
   63.8315   31.5865   50.7948 H   0  0  0  0  0  0  0  0  0  0  0  0
   62.8382   31.5664   49.2982 H   0  0  0  0  0  0  0  0  0  0  0  0
   64.4774   30.8315   49.2982 H   0  0  0  0  0  0  0  0  0  0  0  0
   62.8442   33.4803   46.3866 H   0  0  0  0  0  0  0  0  0  0  0  0
   63.2910   31.9601   47.1728 H   0  0  0  0  0  0  0  0  0  0  0  0
  1  2  1  0
  2  3  1  0
  3  4  2  0
  4  5  1  0
  5  6  1  0
  6  7  2  0
  6  8  2  0
  6  9  1  0
  9 10  2  0
 10 11  1  0
 11 12  2  0
 12 13  1  0
  5 14  2  0
 14 15  1  0
 15 16  2  0
 16 17  1  0
 17 18  1  0
 18 19  1  0
 19 20  1  0
 20 21  1  0
 21 22  1  0
 21 23  1  0
 20 24  1  0
 16  3  1  0
 24 17  1  0
 13  9  1  0
  1 25  1  0
  1 26  1  0
  1 27  1  0
  2 28  1  0
  2 29  1  0
  4 30  1  0
 10 31  1  0
 11 32  1  0
 12 33  1  0
 14 34  1  0
 15 35  1  0
 18 36  1  0
 18 37  1  0
 19 38  1  0
 19 39  1  0
 20 40  1  6
 21 41  1  0
 22 42  1  0
 22 43  1  0
 22 44  1  0
 23 45  1  0
 23 46  1  0
 23 47  1  0
 24 48  1  0
 24 49  1  0
M  CHG  1  21   1
M  END
>  <UniqueID>  (15) 
15

>  <SMILES>  (15) 
CCc1cc(S(=O)(=O)c2cccs2)ccc1N1CC[C@@H]([NH+](C)C)C1

>  <Energy>  (15) 
86.50773653382824

>  <Genealogy>  (15) 
CCc1cc(S(=O)(=O)c2cccs2)ccc1N1CCC([NH+](C)C)C1 (protonated)
CCc1cc(S(=O)(=O)c2cccs2)ccc1N1CC[C@@H]([NH+](C)C)C1 (chirality)
CCc1cc(S(=O)(=O)c2cccs2)ccc1N1CC[C@@H]([NH+](C)C)C1 (3D coordinates assigned)
CCc1cc(S(=O)(=O)c2cccs2)ccc1N1CC[C@@H]([NH+](C)C)C1 (nonaromatic ring conformer: 86.50773653382824 kcal/mol)

>  <smiles>  (15) 
CCc1cc(S(=O)(=O)c2cccs2)ccc1N1CCC(N(C)C)C1

>  <score_type>  (15) 
oracle

>  <origin>  (15) 
adg

>  <m_score__min__energy>  (15) 
-7.2599999999999998

>  <m_primary>  (15) 
energy

$$$$
15:0
     RDKit          3D

 70 73  0  0  0  0  0  0  0  0999 V2000
   62.8470   33.8620   46.4640 C   0  0  0  0  0  0  0  0  0  0  0  0
   63.7630   32.6710   46.7490 C   0  0  0  0  0  0  0  0  0  0  0  0
   63.3270   31.9360   47.9640 N   0  0  0  0  0  0  0  0  0  0  0  0
   63.3170   32.8670   49.1260 C   0  0  0  0  0  0  0  0  0  0  0  0
   64.7160   33.0580   49.7050 C   0  0  0  0  0  0  0  0  0  0  0  0
   61.9650   31.3760   47.7740 C   0  0  0  0  0  0  0  0  0  0  0  0
   61.0870   31.3910   49.0540 C   0  0  0  0  0  0  0  0  0  0  0  0
   59.6280   31.1660   48.8860 N   0  0  0  0  0  0  0  0  0  0  0  0
   59.1390   31.0710   47.5160 C   0  0  0  0  0  0  0  0  0  0  0  0
   59.0420   32.2260   46.6900 C   0  0  0  0  0  0  0  0  0  0  0  0
   59.6050   33.4720   47.0630 C   0  0  0  0  0  0  0  0  0  0  0  0
   59.4450   34.6030   46.2660 C   0  0  0  0  0  0  0  0  0  0  0  0
   58.7320   34.5250   45.0790 C   0  0  0  0  0  0  0  0  0  0  0  0
   58.1870   33.3100   44.6720 C   0  0  0  0  0  0  0  0  0  0  0  0
   58.3360   32.1410   45.4590 C   0  0  0  0  0  0  0  0  0  0  0  0
   57.8080   30.9390   45.0450 N   0  0  0  0  0  0  0  0  0  0  0  0
   56.6530   30.9550   44.1210 C   0  0  0  0  0  0  0  0  0  0  0  0
   58.2030   29.7660   45.6570 C   0  0  0  0  0  0  0  0  0  0  0  0
   58.7120   29.8240   46.9810 C   0  0  0  0  0  0  0  0  0  0  0  0
   58.7700   28.6350   47.7350 C   0  0  0  0  0  0  0  0  0  0  0  0
   58.4500   27.4080   47.1730 C   0  0  0  0  0  0  0  0  0  0  0  0
   58.1570   27.3020   45.8100 C   0  0  0  0  0  0  0  0  0  0  0  0
   57.9740   26.0360   45.2050 C   0  0  0  0  0  0  0  0  0  0  0  0
   58.0190   24.8210   45.9740 N   0  0  0  0  0  0  0  0  0  0  0  0
   59.0400   23.8190   45.6370 C   0  0  0  0  0  0  0  0  0  0  0  0
   58.4510   22.6690   44.8220 C   0  0  0  0  0  0  0  0  0  0  0  0
   56.8250   24.4340   46.7400 C   0  0  0  0  0  0  0  0  0  0  0  0
   55.5600   24.7390   45.9480 C   0  0  0  0  0  0  0  0  0  0  0  0
   57.8050   25.9480   43.8200 C   0  0  0  0  0  0  0  0  0  0  0  0
   57.8520   27.0920   43.0330 C   0  0  0  0  0  0  0  0  0  0  0  0
   58.0110   28.3440   43.6210 C   0  0  0  0  0  0  0  0  0  0  0  0
   58.0850   28.4860   45.0250 C   0  0  0  0  0  0  0  0  0  0  0  0
   62.5096   34.3008   47.4146 H   0  0  0  0  0  0  0  0  0  0  0  0
   63.3982   34.6185   45.8862 H   0  0  0  0  0  0  0  0  0  0  0  0
   61.9744   33.5234   45.8862 H   0  0  0  0  0  0  0  0  0  0  0  0
   63.7399   31.9866   45.8881 H   0  0  0  0  0  0  0  0  0  0  0  0
   64.7824   33.0484   46.9175 H   0  0  0  0  0  0  0  0  0  0  0  0
   62.9301   33.8431   48.7980 H   0  0  0  0  0  0  0  0  0  0  0  0
   62.6770   32.4335   49.9086 H   0  0  0  0  0  0  0  0  0  0  0  0
   64.6623   33.0507   50.8037 H   0  0  0  0  0  0  0  0  0  0  0  0
   65.3686   32.2406   49.3643 H   0  0  0  0  0  0  0  0  0  0  0  0
   65.1256   34.0204   49.3643 H   0  0  0  0  0  0  0  0  0  0  0  0
   61.4545   31.9659   46.9985 H   0  0  0  0  0  0  0  0  0  0  0  0
   62.0935   30.3208   47.4910 H   0  0  0  0  0  0  0  0  0  0  0  0
   61.4669   30.6054   49.7237 H   0  0  0  0  0  0  0  0  0  0  0  0
   61.1703   32.4178   49.4398 H   0  0  0  0  0  0  0  0  0  0  0  0
   59.1080   31.8760   49.4420 H   0  0  0  0  0  0  0  0  0  0  0  0
   59.3670   30.2870   49.3870 H   0  0  0  0  0  0  0  0  0  0  0  0
   60.1786   33.5472   47.9986 H   0  0  0  0  0  0  0  0  0  0  0  0
   59.8855   35.5611   46.5790 H   0  0  0  0  0  0  0  0  0  0  0  0
   58.5970   35.4234   44.4588 H   0  0  0  0  0  0  0  0  0  0  0  0
   57.6317   33.2567   43.7240 H   0  0  0  0  0  0  0  0  0  0  0  0
   55.7189   30.9679   44.7018 H   0  0  0  0  0  0  0  0  0  0  0  0
   56.7030   31.8525   43.4870 H   0  0  0  0  0  0  0  0  0  0  0  0
   56.6781   30.0564   43.4870 H   0  0  0  0  0  0  0  0  0  0  0  0
   59.0753   28.6809   48.7908 H   0  0  0  0  0  0  0  0  0  0  0  0
   58.4265   26.5089   47.8063 H   0  0  0  0  0  0  0  0  0  0  0  0
   59.8347   24.3025   45.0498 H   0  0  0  0  0  0  0  0  0  0  0  0
   59.4405   23.4066   46.5748 H   0  0  0  0  0  0  0  0  0  0  0  0
   58.0574   21.9005   45.5035 H   0  0  0  0  0  0  0  0  0  0  0  0
   57.6363   23.0486   44.1878 H   0  0  0  0  0  0  0  0  0  0  0  0
   59.2351   22.2298   44.1878 H   0  0  0  0  0  0  0  0  0  0  0  0
   56.8665   23.3559   46.9546 H   0  0  0  0  0  0  0  0  0  0  0  0
   56.8036   25.0073   47.6785 H   0  0  0  0  0  0  0  0  0  0  0  0
   54.7313   24.9388   46.6433 H   0  0  0  0  0  0  0  0  0  0  0  0
   55.7281   25.6223   45.3144 H   0  0  0  0  0  0  0  0  0  0  0  0
   55.3071   23.8761   45.3144 H   0  0  0  0  0  0  0  0  0  0  0  0
   57.6339   24.9679   43.3509 H   0  0  0  0  0  0  0  0  0  0  0  0
   57.7631   27.0082   41.9398 H   0  0  0  0  0  0  0  0  0  0  0  0
   58.0801   29.2370   42.9824 H   0  0  0  0  0  0  0  0  0  0  0  0
  1  2  1  0
  2  3  1  0
  3  4  1  0
  4  5  1  0
  3  6  1  0
  6  7  1  0
  7  8  1  0
  8  9  1  0
  9 10  2  0
 10 11  1  0
 11 12  2  0
 12 13  1  0
 13 14  2  0
 14 15  1  0
 15 16  2  0
 16 17  1  0
 16 18  1  0
 18 19  2  0
 19 20  1  0
 20 21  2  0
 21 22  1  0
 22 23  2  0
 23 24  1  0
 24 25  1  0
 25 26  1  0
 24 27  1  0
 27 28  1  0
 23 29  1  0
 29 30  2  0
 30 31  1  0
 31 32  2  0
 19  9  1  0
 32 22  1  0
 15 10  1  0
 32 18  1  0
  1 33  1  0
  1 34  1  0
  1 35  1  0
  2 36  1  0
  2 37  1  0
  4 38  1  0
  4 39  1  0
  5 40  1  0
  5 41  1  0
  5 42  1  0
  6 43  1  0
  6 44  1  0
  7 45  1  0
  7 46  1  0
  8 47  1  0
  8 48  1  0
 11 49  1  0
 12 50  1  0
 13 51  1  0
 14 52  1  0
 17 53  1  0
 17 54  1  0
 17 55  1  0
 20 56  1  0
 21 57  1  0
 25 58  1  0
 25 59  1  0
 26 60  1  0
 26 61  1  0
 26 62  1  0
 27 63  1  0
 27 64  1  0
 28 65  1  0
 28 66  1  0
 28 67  1  0
 29 68  1  0
 30 69  1  0
 31 70  1  0
M  CHG  2   8   1  16   1
M  END
>  <UniqueID>  (16) 
16

>  <SMILES>  (16) 
CCN(CC)CC[NH2+]c1c2ccccc2[n+](C)c2c1ccc1c(N(CC)CC)cccc12

>  <Energy>  (16) 
119.70400319821135

>  <Genealogy>  (16) 
CCN(CC)CC[NH2+]c1c2ccccc2[n+](C)c2c1ccc1c(N(CC)CC)cccc12 (protonated)
CCN(CC)CC[NH2+]c1c2ccccc2[n+](C)c2c1ccc1c(N(CC)CC)cccc12 (3D coordinates assigned)
CCN(CC)CC[NH2+]c1c2ccccc2[n+](C)c2c1ccc1c(N(CC)CC)cccc12 (optimized conformer: 119.70400319821135 kcal/mol)

>  <smiles>  (16) 
CCN(CC)CCNc1c2ccccc2[n+](C)c2c1ccc1c(N(CC)CC)cccc12

>  <score_type>  (16) 
oracle

>  <origin>  (16) 
adg

>  <m_score__min__energy>  (16) 
-5.3200000000000003

>  <m_primary>  (16) 
energy

$$$$
16:0
     RDKit          3D

 39 40  0  0  0  0  0  0  0  0999 V2000
   57.9840   28.8840   44.3020 C   0  0  0  0  0  0  0  0  0  0  0  0
   56.9280   29.7580   43.6340 C   0  0  0  0  0  0  0  0  0  0  0  0
   56.5390   30.8290   44.4950 O   0  0  0  0  0  0  0  0  0  0  0  0
   57.3990   31.7910   45.0520 C   0  0  0  0  0  0  0  0  0  0  0  0
   57.8080   31.7490   46.3980 C   0  0  0  0  0  0  0  0  0  0  0  0
   58.6620   32.7290   46.9190 C   0  0  0  0  0  0  0  0  0  0  0  0
   59.1390   33.7530   46.0810 C   0  0  0  0  0  0  0  0  0  0  0  0
   58.7140   33.8100   44.7460 C   0  0  0  0  0  0  0  0  0  0  0  0
   57.8520   32.8280   44.2230 C   0  0  0  0  0  0  0  0  0  0  0  0
   57.4130   32.8450   42.8880 O   0  0  0  0  0  0  0  0  0  0  0  0
   58.1160   32.3050   41.7690 C   0  0  0  0  0  0  0  0  0  0  0  0
   57.3920   32.6280   40.4660 C   0  0  0  0  0  0  0  0  0  0  0  0
   60.0170   34.8580   46.6250 C   0  0  0  0  0  0  0  0  0  0  0  0
   60.7360   34.4700   47.8560 N   0  0  2  0  0  0  0  0  0  0  0  0
   61.8810   33.5840   47.5650 C   0  0  0  0  0  0  0  0  0  0  0  0
   59.8130   33.8890   48.8520 C   0  0  0  0  0  0  0  0  0  0  0  0
   59.1290   32.6090   48.3470 C   0  0  0  0  0  0  0  0  0  0  0  0
   57.8879   28.9635   45.3949 H   0  0  0  0  0  0  0  0  0  0  0  0
   57.8403   27.8371   43.9965 H   0  0  0  0  0  0  0  0  0  0  0  0
   58.9856   29.2209   43.9965 H   0  0  0  0  0  0  0  0  0  0  0  0
   57.3406   30.1748   42.7034 H   0  0  0  0  0  0  0  0  0  0  0  0
   56.0440   29.1403   43.4173 H   0  0  0  0  0  0  0  0  0  0  0  0
   57.4525   30.9365   47.0487 H   0  0  0  0  0  0  0  0  0  0  0  0
   59.0581   34.6313   44.1003 H   0  0  0  0  0  0  0  0  0  0  0  0
   59.1272   32.7368   41.7361 H   0  0  0  0  0  0  0  0  0  0  0  0
   58.1692   31.2120   41.8807 H   0  0  0  0  0  0  0  0  0  0  0  0
   56.4088   33.0666   40.6918 H   0  0  0  0  0  0  0  0  0  0  0  0
   57.9884   33.3454   39.8832 H   0  0  0  0  0  0  0  0  0  0  0  0
   57.2566   31.7049   39.8832 H   0  0  0  0  0  0  0  0  0  0  0  0
   60.7569   35.1281   45.8571 H   0  0  0  0  0  0  0  0  0  0  0  0
   59.3618   35.7043   46.8792 H   0  0  0  0  0  0  0  0  0  0  0  0
   61.1310   35.3460   48.2760 H   0  0  0  0  0  0  0  0  0  0  0  0
   62.3269   33.2389   48.5095 H   0  0  0  0  0  0  0  0  0  0  0  0
   61.5348   32.7162   46.9844 H   0  0  0  0  0  0  0  0  0  0  0  0
   62.6341   34.1369   46.9844 H   0  0  0  0  0  0  0  0  0  0  0  0
   60.3823   33.6488   49.7620 H   0  0  0  0  0  0  0  0  0  0  0  0
   59.0260   34.6315   49.0502 H   0  0  0  0  0  0  0  0  0  0  0  0
   59.8444   31.7762   48.4154 H   0  0  0  0  0  0  0  0  0  0  0  0
   58.2429   32.4336   48.9748 H   0  0  0  0  0  0  0  0  0  0  0  0
  1  2  1  0
  2  3  1  0
  3  4  1  0
  4  5  2  0
  5  6  1  0
  6  7  2  0
  7  8  1  0
  8  9  2  0
  9 10  1  0
 10 11  1  0
 11 12  1  0
  7 13  1  0
 13 14  1  0
 14 15  1  0
 14 16  1  0
 16 17  1  0
  9  4  1  0
 17  6  1  0
  1 18  1  0
  1 19  1  0
  1 20  1  0
  2 21  1  0
  2 22  1  0
  5 23  1  0
  8 24  1  0
 11 25  1  0
 11 26  1  0
 12 27  1  0
 12 28  1  0
 12 29  1  0
 13 30  1  0
 13 31  1  0
 14 32  1  1
 15 33  1  0
 15 34  1  0
 15 35  1  0
 16 36  1  0
 16 37  1  0
 17 38  1  0
 17 39  1  0
M  CHG  1  14   1
M  END
>  <UniqueID>  (17) 
17

>  <SMILES>  (17) 
CCOc1cc2c(cc1OCC)C[N@H+](C)CC2

>  <Energy>  (17) 
38.807113705082

>  <Genealogy>  (17) 
CCOc1cc2c(cc1OCC)C[NH+](C)CC2 (protonated)
CCOc1cc2c(cc1OCC)C[N@H+](C)CC2 (chirality)
CCOc1cc2c(cc1OCC)C[N@H+](C)CC2 (3D coordinates assigned)
CCOc1cc2c(cc1OCC)C[N@H+](C)CC2 (nonaromatic ring conformer: 38.807113705082 kcal/mol)

>  <smiles>  (17) 
CCOc1cc2c(cc1OCC)CN(C)CC2

>  <score_type>  (17) 
oracle

>  <origin>  (17) 
adg

>  <m_score__min__energy>  (17) 
-4.29

>  <m_primary>  (17) 
energy

$$$$
17:0
     RDKit          3D

 65 68  0  0  0  0  0  0  0  0999 V2000
   56.6680   28.3110   53.8350 C   0  0  0  0  0  0  0  0  0  0  0  0
   57.3550   29.3160   52.9030 C   0  0  0  0  0  0  0  0  0  0  0  0
   56.4200   30.0760   52.0460 N   0  0  0  0  0  0  0  0  0  0  0  0
   54.9880   29.9190   52.3960 C   0  0  0  0  0  0  0  0  0  0  0  0
   54.0900   30.8640   51.5990 C   0  0  0  0  0  0  0  0  0  0  0  0
   56.8870   31.4160   51.6130 C   0  0  0  0  0  0  0  0  0  0  0  0
   58.0830   31.4120   50.6400 C   0  0  0  0  0  0  0  0  0  0  0  0
   58.3300   30.0840   50.2320 O   0  0  0  0  0  0  0  0  0  0  0  0
   59.6550   29.7100   50.5480 C   0  0  0  0  0  0  0  0  0  0  0  0
   60.3860   29.2440   49.2760 C   0  0  0  0  0  0  0  0  0  0  0  0
   59.4780   28.9700   48.1460 N   0  0  0  0  0  0  0  0  0  0  0  0
   60.0780   29.2260   46.8280 C   0  0  0  0  0  0  0  0  0  0  0  0
   59.3720   30.3770   46.1130 C   0  0  0  0  0  0  0  0  0  0  0  0
   58.4000   30.0750   45.1180 C   0  0  0  0  0  0  0  0  0  0  0  0
   58.4070   28.8700   44.3760 C   0  0  0  0  0  0  0  0  0  0  0  0
   57.4030   28.6020   43.4410 C   0  0  0  0  0  0  0  0  0  0  0  0
   56.3850   29.5300   43.2170 C   0  0  0  0  0  0  0  0  0  0  0  0
   56.3790   30.7410   43.9120 C   0  0  0  0  0  0  0  0  0  0  0  0
   57.3870   31.0220   44.8430 C   0  0  0  0  0  0  0  0  0  0  0  0
   57.3830   32.2170   45.4790 N   0  0  0  0  0  0  0  0  0  0  0  0
   58.3740   32.5920   46.3240 C   0  0  0  0  0  0  0  0  0  0  0  0
   58.2960   33.8490   46.9170 C   0  0  0  0  0  0  0  0  0  0  0  0
   59.3190   34.3060   47.7330 C   0  0  0  0  0  0  0  0  0  0  0  0
   60.4840   33.5510   47.9080 C   0  0  0  0  0  0  0  0  0  0  0  0
   60.6040   32.2760   47.2830 C   0  0  0  0  0  0  0  0  0  0  0  0
   59.4740   31.7290   46.5850 C   0  0  0  0  0  0  0  0  0  0  0  0
   61.9670   31.5920   47.2610 C   0  0  0  0  0  0  0  0  0  0  0  0
   63.1250   32.5410   47.5670 C   0  0  0  0  0  0  0  0  0  0  0  0
   62.8330   33.3030   48.8540 C   0  0  0  0  0  0  0  0  0  0  0  0
   61.6230   34.2140   48.6520 C   0  0  0  0  0  0  0  0  0  0  0  0
   56.8595   28.5911   54.8814 H   0  0  0  0  0  0  0  0  0  0  0  0
   55.5843   28.3173   53.6462 H   0  0  0  0  0  0  0  0  0  0  0  0
   57.0673   27.3036   53.6462 H   0  0  0  0  0  0  0  0  0  0  0  0
   57.9182   30.0314   53.5202 H   0  0  0  0  0  0  0  0  0  0  0  0
   58.0036   28.7354   52.2305 H   0  0  0  0  0  0  0  0  0  0  0  0
   54.6843   28.8825   52.1876 H   0  0  0  0  0  0  0  0  0  0  0  0
   54.8730   30.1643   53.4621 H   0  0  0  0  0  0  0  0  0  0  0  0
   53.5019   31.4829   52.2926 H   0  0  0  0  0  0  0  0  0  0  0  0
   54.7119   31.5134   50.9653 H   0  0  0  0  0  0  0  0  0  0  0  0
   53.4098   30.2760   50.9653 H   0  0  0  0  0  0  0  0  0  0  0  0
   56.0472   31.9253   51.1177 H   0  0  0  0  0  0  0  0  0  0  0  0
   57.2357   31.9263   52.5229 H   0  0  0  0  0  0  0  0  0  0  0  0
   57.8478   32.0313   49.7619 H   0  0  0  0  0  0  0  0  0  0  0  0
   58.9733   31.8225   51.1389 H   0  0  0  0  0  0  0  0  0  0  0  0
   60.1848   30.5730   50.9776 H   0  0  0  0  0  0  0  0  0  0  0  0
   59.6345   28.8857   51.2761 H   0  0  0  0  0  0  0  0  0  0  0  0
   61.0932   30.0299   48.9725 H   0  0  0  0  0  0  0  0  0  0  0  0
   60.8942   28.2996   49.5208 H   0  0  0  0  0  0  0  0  0  0  0  0
   58.6000   29.5330   48.2430 H   0  0  0  0  0  0  0  0  0  0  0  0
   61.1392   29.4833   46.9608 H   0  0  0  0  0  0  0  0  0  0  0  0
   59.9724   28.3186   46.2153 H   0  0  0  0  0  0  0  0  0  0  0  0
   59.2109   28.1366   44.5367 H   0  0  0  0  0  0  0  0  0  0  0  0
   57.4154   27.6561   42.8797 H   0  0  0  0  0  0  0  0  0  0  0  0
   55.5874   29.3074   42.4929 H   0  0  0  0  0  0  0  0  0  0  0  0
   55.5812   31.4757   43.7280 H   0  0  0  0  0  0  0  0  0  0  0  0
   57.4162   34.4842   46.7367 H   0  0  0  0  0  0  0  0  0  0  0  0
   59.2139   35.2721   48.2483 H   0  0  0  0  0  0  0  0  0  0  0  0
   61.9664   30.7884   48.0122 H   0  0  0  0  0  0  0  0  0  0  0  0
   62.1218   31.2072   46.2422 H   0  0  0  0  0  0  0  0  0  0  0  0
   64.0520   31.9611   47.6869 H   0  0  0  0  0  0  0  0  0  0  0  0
   63.2424   33.2544   46.7379 H   0  0  0  0  0  0  0  0  0  0  0  0
   62.6207   32.5875   49.6621 H   0  0  0  0  0  0  0  0  0  0  0  0
   63.7077   33.9142   49.1210 H   0  0  0  0  0  0  0  0  0  0  0  0
   61.2563   34.5296   49.6399 H   0  0  0  0  0  0  0  0  0  0  0  0
   61.9575   35.0641   48.0393 H   0  0  0  0  0  0  0  0  0  0  0  0
  1  2  1  0
  2  3  1  0
  3  4  1  0
  4  5  1  0
  3  6  1  0
  6  7  1  0
  7  8  1  0
  8  9  1  0
  9 10  1  0
 10 11  1  0
 11 12  1  0
 12 13  1  0
 13 14  2  0
 14 15  1  0
 15 16  2  0
 16 17  1  0
 17 18  2  0
 18 19  1  0
 19 20  2  0
 20 21  1  0
 21 22  2  0
 22 23  1  0
 23 24  2  0
 24 25  1  0
 25 26  2  0
 25 27  1  0
 27 28  1  0
 28 29  1  0
 29 30  1  0
 26 13  1  0
 19 14  1  0
 26 21  1  0
 30 24  1  0
  1 31  1  0
  1 32  1  0
  1 33  1  0
  2 34  1  0
  2 35  1  0
  4 36  1  0
  4 37  1  0
  5 38  1  0
  5 39  1  0
  5 40  1  0
  6 41  1  0
  6 42  1  0
  7 43  1  0
  7 44  1  0
  9 45  1  0
  9 46  1  0
 10 47  1  0
 10 48  1  0
 11 49  1  0
 12 50  1  0
 12 51  1  0
 15 52  1  0
 16 53  1  0
 17 54  1  0
 18 55  1  0
 22 56  1  0
 23 57  1  0
 27 58  1  0
 27 59  1  0
 28 60  1  0
 28 61  1  0
 29 62  1  0
 29 63  1  0
 30 64  1  0
 30 65  1  0
M  END
>  <UniqueID>  (18) 
18

>  <SMILES>  (18) 
CCN(CC)CCOCCNCc1c2ccccc2nc2ccc3c(c12)CCCC3

>  <Energy>  (18) 
103.15677736479975

>  <Genealogy>  (18) 
CCN(CC)CCOCCNCc1c2ccccc2nc2ccc3c(c12)CCCC3 (3D coordinates assigned)
CCN(CC)CCOCCNCc1c2ccccc2nc2ccc3c(c12)CCCC3 (nonaromatic ring conformer: 103.15677736479975 kcal/mol)

>  <smiles>  (18) 
CCN(CC)CCOCCNCc1c2ccccc2nc2ccc3c(c12)CCCC3

>  <score_type>  (18) 
oracle

>  <origin>  (18) 
adg

>  <m_score__min__energy>  (18) 
-8.3200000000000003

>  <m_primary>  (18) 
energy

$$$$
18:0
     RDKit          3D

 54 56  0  0  0  0  0  0  0  0999 V2000
   56.6640   21.6350   42.7740 C   0  0  0  0  0  0  0  0  0  0  0  0
   56.9660   21.1060   44.1800 C   0  0  0  0  0  0  0  0  0  0  0  0
   57.2240   22.2300   45.1090 N   0  0  0  0  0  0  0  0  0  0  0  0
   58.4580   22.9850   44.7750 C   0  0  0  0  0  0  0  0  0  0  0  0
   59.7510   22.1690   44.8960 C   0  0  0  0  0  0  0  0  0  0  0  0
   56.0380   23.0950   45.3110 C   0  0  0  0  0  0  0  0  0  0  0  0
   55.9620   23.6000   46.7570 C   0  0  0  0  0  0  0  0  0  0  0  0
   57.1610   24.2910   47.1160 O   0  0  0  0  0  0  0  0  0  0  0  0
   57.6050   25.5090   46.5770 C   0  0  0  0  0  0  0  0  0  0  0  0
   58.9710   25.8310   46.4400 C   0  0  0  0  0  0  0  0  0  0  0  0
   59.3540   27.0620   45.8980 C   0  0  0  0  0  0  0  0  0  0  0  0
   58.3810   27.9840   45.4920 C   0  0  0  0  0  0  0  0  0  0  0  0
   58.7270   29.2230   44.9440 C   0  0  0  0  0  0  0  0  0  0  0  0
   57.7200   30.1230   44.5700 C   0  0  0  0  0  0  0  0  0  0  0  0
   58.0900   31.4530   43.9500 C   0  0  0  0  0  0  0  0  0  0  0  0
   57.2970   32.6150   44.5700 C   0  0  0  0  0  0  0  0  0  0  0  0
   58.0980   33.3420   45.6220 C   0  0  0  0  0  0  0  0  0  0  0  0
   58.8540   34.4730   45.2730 C   0  0  0  0  0  0  0  0  0  0  0  0
   59.6650   35.0960   46.2240 C   0  0  0  0  0  0  0  0  0  0  0  0
   59.7230   34.6000   47.5280 C   0  0  0  0  0  0  0  0  0  0  0  0
   58.9660   33.4830   47.8870 C   0  0  0  0  0  0  0  0  0  0  0  0
   58.1600   32.8510   46.9370 C   0  0  0  0  0  0  0  0  0  0  0  0
   56.3760   29.7330   44.7500 C   0  0  0  0  0  0  0  0  0  0  0  0
   55.4360   30.5120   44.4320 O   0  0  0  0  0  0  0  0  0  0  0  0
   56.0820   28.5400   45.2560 O   0  0  0  0  0  0  0  0  0  0  0  0
   57.0130   27.6670   45.6280 C   0  0  0  0  0  0  0  0  0  0  0  0
   56.6360   26.4300   46.1560 C   0  0  0  0  0  0  0  0  0  0  0  0
   56.1199   22.5880   42.8498 H   0  0  0  0  0  0  0  0  0  0  0  0
   57.6076   21.7937   42.2314 H   0  0  0  0  0  0  0  0  0  0  0  0
   56.0476   20.9031   42.2314 H   0  0  0  0  0  0  0  0  0  0  0  0
   56.1040   20.5266   44.5424 H   0  0  0  0  0  0  0  0  0  0  0  0
   57.8596   20.4661   44.1366 H   0  0  0  0  0  0  0  0  0  0  0  0
   58.3726   23.3430   43.7384 H   0  0  0  0  0  0  0  0  0  0  0  0
   58.5333   23.8036   45.5059 H   0  0  0  0  0  0  0  0  0  0  0  0
   59.9909   22.0176   45.9588 H   0  0  0  0  0  0  0  0  0  0  0  0
   59.6154   21.1925   44.4080 H   0  0  0  0  0  0  0  0  0  0  0  0
   60.5740   22.7116   44.4080 H   0  0  0  0  0  0  0  0  0  0  0  0
   56.1032   23.9581   44.6321 H   0  0  0  0  0  0  0  0  0  0  0  0
   55.1347   22.5038   45.0998 H   0  0  0  0  0  0  0  0  0  0  0  0
   55.1073   24.2854   46.8554 H   0  0  0  0  0  0  0  0  0  0  0  0
   55.8384   22.7361   47.4266 H   0  0  0  0  0  0  0  0  0  0  0  0
   59.7384   25.1111   46.7607 H   0  0  0  0  0  0  0  0  0  0  0  0
   60.4211   27.3065   45.7904 H   0  0  0  0  0  0  0  0  0  0  0  0
   59.7852   29.4902   44.8070 H   0  0  0  0  0  0  0  0  0  0  0  0
   59.1640   31.6319   44.1066 H   0  0  0  0  0  0  0  0  0  0  0  0
   57.8476   31.4086   42.8780 H   0  0  0  0  0  0  0  0  0  0  0  0
   57.0259   33.3252   43.7750 H   0  0  0  0  0  0  0  0  0  0  0  0
   56.3997   32.1983   45.0509 H   0  0  0  0  0  0  0  0  0  0  0  0
   58.8072   34.8691   44.2479 H   0  0  0  0  0  0  0  0  0  0  0  0
   60.2591   35.9789   45.9454 H   0  0  0  0  0  0  0  0  0  0  0  0
   60.3662   35.0901   48.2737 H   0  0  0  0  0  0  0  0  0  0  0  0
   59.0043   33.1007   48.9177 H   0  0  0  0  0  0  0  0  0  0  0  0
   57.5716   31.9656   47.2195 H   0  0  0  0  0  0  0  0  0  0  0  0
   55.5691   26.1764   46.2422 H   0  0  0  0  0  0  0  0  0  0  0  0
  1  2  1  0
  2  3  1  0
  3  4  1  0
  4  5  1  0
  3  6  1  0
  6  7  1  0
  7  8  1  0
  8  9  1  0
  9 10  2  0
 10 11  1  0
 11 12  2  0
 12 13  1  0
 13 14  2  0
 14 15  1  0
 15 16  1  0
 16 17  1  0
 17 18  2  0
 18 19  1  0
 19 20  2  0
 20 21  1  0
 21 22  2  0
 14 23  1  0
 23 24  2  0
 23 25  1  0
 25 26  1  0
 26 27  2  0
 27  9  1  0
 26 12  1  0
 22 17  1  0
  1 28  1  0
  1 29  1  0
  1 30  1  0
  2 31  1  0
  2 32  1  0
  4 33  1  0
  4 34  1  0
  5 35  1  0
  5 36  1  0
  5 37  1  0
  6 38  1  0
  6 39  1  0
  7 40  1  0
  7 41  1  0
 10 42  1  0
 11 43  1  0
 13 44  1  0
 15 45  1  0
 15 46  1  0
 16 47  1  0
 16 48  1  0
 18 49  1  0
 19 50  1  0
 20 51  1  0
 21 52  1  0
 22 53  1  0
 27 54  1  0
M  END
>  <UniqueID>  (19) 
19

>  <SMILES>  (19) 
CCN(CC)CCOc1ccc2cc(CCc3ccccc3)c(=O)oc2c1

>  <Energy>  (19) 
57.55726966469258

>  <Genealogy>  (19) 
CCN(CC)CCOc1ccc2cc(CCc3ccccc3)c(=O)oc2c1 (3D coordinates assigned)
CCN(CC)CCOc1ccc2cc(CCc3ccccc3)c(=O)oc2c1 (optimized conformer: 57.55726966469258 kcal/mol)

>  <smiles>  (19) 
CCN(CC)CCOc1ccc2cc(CCc3ccccc3)c(=O)oc2c1

>  <score_type>  (19) 
oracle

>  <origin>  (19) 
adg

>  <m_score__min__energy>  (19) 
-8.6500000000000004

>  <m_primary>  (19) 
energy

$$$$
19:0
     RDKit          3D

 58 60  0  0  0  0  0  0  0  0999 V2000
   56.8080   23.3690   48.2250 C   0  0  0  0  0  0  0  0  0  0  0  0
   56.9780   21.9320   47.9500 N   0  0  0  0  0  0  0  0  0  0  0  0
   56.8100   21.1790   49.2100 C   0  0  0  0  0  0  0  0  0  0  0  0
   55.9940   21.4920   46.9340 C   0  0  0  0  0  0  0  0  0  0  0  0
   56.4000   20.1430   46.3220 C   0  0  0  0  0  0  0  0  0  0  0  0
   57.3720   20.3290   45.2280 N   0  0  0  0  0  0  0  0  0  0  0  0
   58.4920   21.2130   45.6210 C   0  0  0  0  0  0  0  0  0  0  0  0
   58.7630   22.3220   44.5860 C   0  0  0  0  0  0  0  0  0  0  0  0
   58.1960   23.6510   45.0150 C   0  0  0  0  0  0  0  0  0  0  0  0
   56.8510   23.9670   44.7600 C   0  0  0  0  0  0  0  0  0  0  0  0
   56.3510   25.2330   45.0750 C   0  0  0  0  0  0  0  0  0  0  0  0
   57.1850   26.2040   45.6380 C   0  0  0  0  0  0  0  0  0  0  0  0
   56.6430   27.4640   45.9350 O   0  0  0  0  0  0  0  0  0  0  0  0
   57.3640   28.6640   46.0420 C   0  0  0  0  0  0  0  0  0  0  0  0
   58.2300   28.9270   47.1160 C   0  0  0  0  0  0  0  0  0  0  0  0
   58.9510   30.1230   47.1660 C   0  0  0  0  0  0  0  0  0  0  0  0
   58.8220   31.0760   46.1430 C   0  0  0  0  0  0  0  0  0  0  0  0
   59.6180   32.3240   46.1700 C   0  0  0  0  0  0  0  0  0  0  0  0
   59.2810   33.2760   45.4170 O   0  0  0  0  0  0  0  0  0  0  0  0
   60.8020   32.4870   47.0470 C   0  0  0  0  0  0  0  0  0  0  0  0
   60.9980   33.6740   47.7840 C   0  0  0  0  0  0  0  0  0  0  0  0
   62.1440   33.8380   48.5680 C   0  0  0  0  0  0  0  0  0  0  0  0
   63.1020   32.8210   48.6310 C   0  0  0  0  0  0  0  0  0  0  0  0
   64.6710   33.0520   49.6860 Br  0  0  0  0  0  0  0  0  0  0  0  0
   62.9130   31.6350   47.9060 C   0  0  0  0  0  0  0  0  0  0  0  0
   61.7730   31.4730   47.1140 C   0  0  0  0  0  0  0  0  0  0  0  0
   57.9740   30.8010   45.0580 C   0  0  0  0  0  0  0  0  0  0  0  0
   57.2520   29.6040   45.0120 C   0  0  0  0  0  0  0  0  0  0  0  0
   58.5230   25.8790   45.9270 C   0  0  0  0  0  0  0  0  0  0  0  0
   59.0280   24.6160   45.6040 C   0  0  0  0  0  0  0  0  0  0  0  0
   56.7884   23.5344   49.3123 H   0  0  0  0  0  0  0  0  0  0  0  0
   57.6462   23.9284   47.7840 H   0  0  0  0  0  0  0  0  0  0  0  0
   55.8624   23.7174   47.7840 H   0  0  0  0  0  0  0  0  0  0  0  0
   56.9609   21.8554   50.0643 H   0  0  0  0  0  0  0  0  0  0  0  0
   55.7954   20.7561   49.2519 H   0  0  0  0  0  0  0  0  0  0  0  0
   57.5486   20.3649   49.2519 H   0  0  0  0  0  0  0  0  0  0  0  0
   55.0076   21.3888   47.4097 H   0  0  0  0  0  0  0  0  0  0  0  0
   55.9585   22.2440   46.1320 H   0  0  0  0  0  0  0  0  0  0  0  0
   56.8538   19.5157   47.1034 H   0  0  0  0  0  0  0  0  0  0  0  0
   55.5007   19.6593   45.9129 H   0  0  0  0  0  0  0  0  0  0  0  0
   56.8710   20.7650   44.4190 H   0  0  0  0  0  0  0  0  0  0  0  0
   57.7380   19.4090   44.8930 H   0  0  0  0  0  0  0  0  0  0  0  0
   58.2482   21.6829   46.5852 H   0  0  0  0  0  0  0  0  0  0  0  0
   59.3978   20.5927   45.6894 H   0  0  0  0  0  0  0  0  0  0  0  0
   59.8502   22.4263   44.4548 H   0  0  0  0  0  0  0  0  0  0  0  0
   58.2724   22.0332   43.6448 H   0  0  0  0  0  0  0  0  0  0  0  0
   56.1880   23.2135   44.3099 H   0  0  0  0  0  0  0  0  0  0  0  0
   55.2943   25.4675   44.8788 H   0  0  0  0  0  0  0  0  0  0  0  0
   58.3413   28.1873   47.9225 H   0  0  0  0  0  0  0  0  0  0  0  0
   59.6246   30.3193   48.0132 H   0  0  0  0  0  0  0  0  0  0  0  0
   60.2451   34.4748   47.7416 H   0  0  0  0  0  0  0  0  0  0  0  0
   62.2923   34.7682   49.1361 H   0  0  0  0  0  0  0  0  0  0  0  0
   63.6627   30.8319   47.9609 H   0  0  0  0  0  0  0  0  0  0  0  0
   61.6347   30.5455   46.5391 H   0  0  0  0  0  0  0  0  0  0  0  0
   57.8771   31.5305   44.2404 H   0  0  0  0  0  0  0  0  0  0  0  0
   56.5898   29.3998   44.1578 H   0  0  0  0  0  0  0  0  0  0  0  0
   59.1749   26.6222   46.4094 H   0  0  0  0  0  0  0  0  0  0  0  0
   60.0815   24.3775   45.8122 H   0  0  0  0  0  0  0  0  0  0  0  0
  1  2  1  0
  2  3  1  0
  2  4  1  0
  4  5  1  0
  5  6  1  0
  6  7  1  0
  7  8  1  0
  8  9  1  0
  9 10  2  0
 10 11  1  0
 11 12  2  0
 12 13  1  0
 13 14  1  0
 14 15  2  0
 15 16  1  0
 16 17  2  0
 17 18  1  0
 18 19  2  0
 18 20  1  0
 20 21  2  0
 21 22  1  0
 22 23  2  0
 23 24  1  0
 23 25  1  0
 25 26  2  0
 17 27  1  0
 27 28  2  0
 12 29  1  0
 29 30  2  0
 30  9  1  0
 28 14  1  0
 26 20  1  0
  1 31  1  0
  1 32  1  0
  1 33  1  0
  3 34  1  0
  3 35  1  0
  3 36  1  0
  4 37  1  0
  4 38  1  0
  5 39  1  0
  5 40  1  0
  6 41  1  0
  6 42  1  0
  7 43  1  0
  7 44  1  0
  8 45  1  0
  8 46  1  0
 10 47  1  0
 11 48  1  0
 15 49  1  0
 16 50  1  0
 21 51  1  0
 22 52  1  0
 25 53  1  0
 26 54  1  0
 27 55  1  0
 28 56  1  0
 29 57  1  0
 30 58  1  0
M  CHG  1   6   1
M  END
>  <UniqueID>  (20) 
20

>  <SMILES>  (20) 
CN(C)CC[NH2+]CCc1ccc(Oc2ccc(C(=O)c3ccc(Br)cc3)cc2)cc1

>  <Energy>  (20) 
69.00420301293691

>  <Genealogy>  (20) 
CN(C)CC[NH2+]CCc1ccc(Oc2ccc(C(=O)c3ccc(Br)cc3)cc2)cc1 (protonated)
CN(C)CC[NH2+]CCc1ccc(Oc2ccc(C(=O)c3ccc(Br)cc3)cc2)cc1 (3D coordinates assigned)
CN(C)CC[NH2+]CCc1ccc(Oc2ccc(C(=O)c3ccc(Br)cc3)cc2)cc1 (optimized conformer: 69.00420301293691 kcal/mol)

>  <smiles>  (20) 
CN(C)CCNCCc1ccc(Oc2ccc(C(=O)c3ccc(Br)cc3)cc2)cc1

>  <score_type>  (20) 
oracle

>  <origin>  (20) 
adg

>  <m_score__min__energy>  (20) 
-6.6699999999999999

>  <m_primary>  (20) 
energy

$$$$
20:0
     RDKit          3D

 54 57  0  0  0  0  0  0  0  0999 V2000
   62.9270   33.9920   46.6770 C   0  0  0  0  0  0  0  0  0  0  0  0
   63.7800   32.7310   46.7760 C   0  0  0  0  0  0  0  0  0  0  0  0
   63.6900   32.1520   48.1250 N   0  0  0  0  0  0  0  0  0  0  0  0
   62.8520   32.9750   49.0060 C   0  0  0  0  0  0  0  0  0  0  0  0
   61.9820   32.0700   49.8920 C   0  0  0  0  0  0  0  0  0  0  0  0
   61.0040   31.1970   49.0780 C   0  0  0  0  0  0  0  0  0  0  0  0
   61.2320   31.2370   47.6170 N   0  0  0  0  0  0  0  0  0  0  0  0
   60.0620   30.8650   46.8270 C   0  0  0  0  0  0  0  0  0  0  0  0
   59.6820   29.4960   46.7100 C   0  0  0  0  0  0  0  0  0  0  0  0
   58.5280   29.1510   45.9640 C   0  0  0  0  0  0  0  0  0  0  0  0
   57.8920   30.0950   45.1910 N   0  0  0  0  0  0  0  0  0  0  0  0
   56.9820   29.6660   44.1070 C   0  0  0  0  0  0  0  0  0  0  0  0
   58.1490   31.4340   45.3820 C   0  0  0  0  0  0  0  0  0  0  0  0
   57.3080   32.4230   44.8080 C   0  0  0  0  0  0  0  0  0  0  0  0
   57.5760   33.7780   44.9620 C   0  0  0  0  0  0  0  0  0  0  0  0
   58.6790   34.1860   45.6930 C   0  0  0  0  0  0  0  0  0  0  0  0
   59.5100   33.2450   46.2950 C   0  0  0  0  0  0  0  0  0  0  0  0
   59.2570   31.8510   46.1770 C   0  0  0  0  0  0  0  0  0  0  0  0
   58.0380   27.7370   46.0420 C   0  0  0  0  0  0  0  0  0  0  0  0
   56.7180   27.4410   45.8750 N   0  0  0  0  0  0  0  0  0  0  0  0
   56.2430   26.1710   45.9720 C   0  0  0  0  0  0  0  0  0  0  0  0
   57.1140   25.1200   46.2650 C   0  0  0  0  0  0  0  0  0  0  0  0
   58.4650   25.3920   46.4770 C   0  0  0  0  0  0  0  0  0  0  0  0
   58.9310   26.7110   46.3900 C   0  0  0  0  0  0  0  0  0  0  0  0
   60.3620   27.0540   46.6670 C   0  0  0  0  0  0  0  0  0  0  0  0
   60.4260   28.3760   47.4390 C   0  0  0  0  0  0  0  0  0  0  0  0
   62.6843   34.3508   47.6881 H   0  0  0  0  0  0  0  0  0  0  0  0
   63.4848   34.7704   46.1358 H   0  0  0  0  0  0  0  0  0  0  0  0
   61.9969   33.7640   46.1358 H   0  0  0  0  0  0  0  0  0  0  0  0
   63.4231   31.9941   46.0414 H   0  0  0  0  0  0  0  0  0  0  0  0
   64.8283   32.9940   46.5713 H   0  0  0  0  0  0  0  0  0  0  0  0
   63.2250   31.2180   48.0340 H   0  0  0  0  0  0  0  0  0  0  0  0
   63.4955   33.5998   49.6429 H   0  0  0  0  0  0  0  0  0  0  0  0
   62.2017   33.6165   48.3932 H   0  0  0  0  0  0  0  0  0  0  0  0
   62.6414   31.4095   50.4742 H   0  0  0  0  0  0  0  0  0  0  0  0
   61.3806   32.7226   50.5420 H   0  0  0  0  0  0  0  0  0  0  0  0
   61.1078   30.1552   49.4155 H   0  0  0  0  0  0  0  0  0  0  0  0
   59.9962   31.6017   49.2531 H   0  0  0  0  0  0  0  0  0  0  0  0
   62.0180   30.5930   47.3830 H   0  0  0  0  0  0  0  0  0  0  0  0
   61.6350   32.1580   47.3530 H   0  0  0  0  0  0  0  0  0  0  0  0
   56.0688   29.2355   44.5437 H   0  0  0  0  0  0  0  0  0  0  0  0
   56.7172   30.5341   43.4855 H   0  0  0  0  0  0  0  0  0  0  0  0
   57.4832   28.9093   43.4855 H   0  0  0  0  0  0  0  0  0  0  0  0
   56.4261   32.1106   44.2295 H   0  0  0  0  0  0  0  0  0  0  0  0
   56.9123   34.5259   44.5035 H   0  0  0  0  0  0  0  0  0  0  0  0
   58.8997   35.2585   45.7986 H   0  0  0  0  0  0  0  0  0  0  0  0
   60.3804   33.5873   46.8740 H   0  0  0  0  0  0  0  0  0  0  0  0
   55.1721   25.9714   45.8196 H   0  0  0  0  0  0  0  0  0  0  0  0
   56.7383   24.0880   46.3280 H   0  0  0  0  0  0  0  0  0  0  0  0
   59.1625   24.5744   46.7117 H   0  0  0  0  0  0  0  0  0  0  0  0
   60.8216   26.2552   47.2676 H   0  0  0  0  0  0  0  0  0  0  0  0
   60.9070   27.1556   45.7169 H   0  0  0  0  0  0  0  0  0  0  0  0
   59.9705   28.2321   48.4299 H   0  0  0  0  0  0  0  0  0  0  0  0
   61.4825   28.6690   47.5283 H   0  0  0  0  0  0  0  0  0  0  0  0
  1  2  1  0
  2  3  1  0
  3  4  1  0
  4  5  1  0
  5  6  1  0
  6  7  1  0
  7  8  1  0
  8  9  2  0
  9 10  1  0
 10 11  2  0
 11 12  1  0
 11 13  1  0
 13 14  2  0
 14 15  1  0
 15 16  2  0
 16 17  1  0
 17 18  2  0
 10 19  1  0
 19 20  2  0
 20 21  1  0
 21 22  2  0
 22 23  1  0
 23 24  2  0
 24 25  1  0
 25 26  1  0
 18  8  1  0
 24 19  1  0
 26  9  1  0
 18 13  1  0
  1 27  1  0
  1 28  1  0
  1 29  1  0
  2 30  1  0
  2 31  1  0
  3 32  1  0
  4 33  1  0
  4 34  1  0
  5 35  1  0
  5 36  1  0
  6 37  1  0
  6 38  1  0
  7 39  1  0
  7 40  1  0
 12 41  1  0
 12 42  1  0
 12 43  1  0
 14 44  1  0
 15 45  1  0
 16 46  1  0
 17 47  1  0
 21 48  1  0
 22 49  1  0
 23 50  1  0
 25 51  1  0
 25 52  1  0
 26 53  1  0
 26 54  1  0
M  CHG  2   7   1  11   1
M  END
>  <UniqueID>  (21) 
21

>  <SMILES>  (21) 
CCNCCC[NH2+]c1c2c([n+](C)c3ccccc13)-c1ncccc1CC2

>  <Energy>  (21) 
84.59771332133465

>  <Genealogy>  (21) 
CCNCCC[NH2+]c1c2c([n+](C)c3ccccc13)-c1ncccc1CC2 (protonated)
CCNCCC[NH2+]c1c2c([n+](C)c3ccccc13)-c1ncccc1CC2 (3D coordinates assigned)
CCNCCC[NH2+]c1c2c([n+](C)c3ccccc13)-c1ncccc1CC2 (nonaromatic ring conformer: 84.59771332133465 kcal/mol)

>  <smiles>  (21) 
CCNCCCNc1c2c([n+](C)c3ccccc13)-c1ncccc1CC2

>  <score_type>  (21) 
oracle

>  <origin>  (21) 
adg

>  <m_score__min__energy>  (21) 
-4.9800000000000004

>  <m_primary>  (21) 
energy

$$$$
21:0
     RDKit          3D

 75 77  0  0  0  0  0  0  0  0999 V2000
   60.4490   29.9980   46.7510 C   0  0  0  0  0  0  0  0  0  0  0  0
   58.9600   29.8070   47.0830 C   0  0  0  0  0  0  0  0  0  0  0  0
   58.0220   30.1400   45.9800 N   0  0  0  0  0  0  0  0  0  0  0  0
   57.0930   29.0740   45.5450 C   0  0  0  0  0  0  0  0  0  0  0  0
   57.4040   28.6280   44.1190 C   0  0  0  0  0  0  0  0  0  0  0  0
   58.6170   30.9160   44.8690 C   0  0  0  0  0  0  0  0  0  0  0  0
   57.7010   32.0210   44.3290 C   0  0  0  0  0  0  0  0  0  0  0  0
   56.9870   32.5880   45.4070 O   0  0  0  0  0  0  0  0  0  0  0  0
   57.2450   33.9780   45.5020 C   0  0  0  0  0  0  0  0  0  0  0  0
   58.2470   34.2620   46.6240 C   0  0  0  0  0  0  0  0  0  0  0  0
   58.7750   33.0130   47.1740 N   0  0  0  0  0  0  0  0  0  0  0  0
   59.7250   33.0290   48.2480 C   0  0  0  0  0  0  0  0  0  0  0  0
   61.0700   33.3340   47.9890 C   0  0  0  0  0  0  0  0  0  0  0  0
   61.5100   33.5930   46.6740 C   0  0  0  0  0  0  0  0  0  0  0  0
   62.8550   33.8380   46.4100 C   0  0  0  0  0  0  0  0  0  0  0  0
   63.7820   33.8190   47.4450 C   0  0  0  0  0  0  0  0  0  0  0  0
   63.3670   33.5810   48.7550 C   0  0  0  0  0  0  0  0  0  0  0  0
   61.9980   33.3700   49.0630 C   0  0  0  0  0  0  0  0  0  0  0  0
   61.5630   33.1890   50.3640 N   0  0  0  0  0  0  0  0  0  0  0  0
   62.4640   33.5080   51.4950 C   0  0  0  0  0  0  0  0  0  0  0  0
   60.2750   32.7450   50.6070 C   0  0  0  0  0  0  0  0  0  0  0  0
   59.8630   32.3130   51.8940 C   0  0  0  0  0  0  0  0  0  0  0  0
   58.5420   31.9410   52.1540 C   0  0  0  0  0  0  0  0  0  0  0  0
   58.2120   31.5500   53.4630 O   0  0  0  0  0  0  0  0  0  0  0  0
   58.2110   30.2100   53.9540 C   0  0  0  0  0  0  0  0  0  0  0  0
   57.1740   29.3610   53.1850 C   0  0  0  0  0  0  0  0  0  0  0  0
   55.7530   29.5520   53.6110 N   0  0  0  0  0  0  0  0  0  0  0  0
   55.0930   28.2220   53.6050 C   0  0  0  0  0  0  0  0  0  0  0  0
   55.0230   30.4390   52.6750 C   0  0  0  0  0  0  0  0  0  0  0  0
   55.6750   30.1020   54.9860 C   0  0  0  0  0  0  0  0  0  0  0  0
   57.6050   31.9660   51.1120 C   0  0  0  0  0  0  0  0  0  0  0  0
   57.9920   32.3390   49.8290 C   0  0  0  0  0  0  0  0  0  0  0  0
   59.3250   32.7040   49.5540 C   0  0  0  0  0  0  0  0  0  0  0  0
   61.0262   30.0720   47.6844 H   0  0  0  0  0  0  0  0  0  0  0  0
   60.8073   29.1385   46.1655 H   0  0  0  0  0  0  0  0  0  0  0  0
   60.5788   30.9201   46.1655 H   0  0  0  0  0  0  0  0  0  0  0  0
   58.8041   28.7531   47.3568 H   0  0  0  0  0  0  0  0  0  0  0  0
   58.7351   30.5088   47.8996 H   0  0  0  0  0  0  0  0  0  0  0  0
   57.1919   28.2122   46.2214 H   0  0  0  0  0  0  0  0  0  0  0  0
   56.0669   29.4694   45.5733 H   0  0  0  0  0  0  0  0  0  0  0  0
   58.0330   27.7260   44.1459 H   0  0  0  0  0  0  0  0  0  0  0  0
   56.4649   28.4046   43.5916 H   0  0  0  0  0  0  0  0  0  0  0  0
   57.9383   29.4320   43.5916 H   0  0  0  0  0  0  0  0  0  0  0  0
   59.5468   31.3807   45.2289 H   0  0  0  0  0  0  0  0  0  0  0  0
   58.7924   30.2115   44.0426 H   0  0  0  0  0  0  0  0  0  0  0  0
   58.3072   32.7968   43.8384 H   0  0  0  0  0  0  0  0  0  0  0  0
   56.9978   31.5984   43.5963 H   0  0  0  0  0  0  0  0  0  0  0  0
   57.6593   34.3353   44.5477 H   0  0  0  0  0  0  0  0  0  0  0  0
   56.3030   34.5001   45.7257 H   0  0  0  0  0  0  0  0  0  0  0  0
   59.0786   34.8599   46.2228 H   0  0  0  0  0  0  0  0  0  0  0  0
   57.7334   34.8125   47.4260 H   0  0  0  0  0  0  0  0  0  0  0  0
   58.3640   32.0920   46.8950 H   0  0  0  0  0  0  0  0  0  0  0  0
   60.7830   33.6015   45.8486 H   0  0  0  0  0  0  0  0  0  0  0  0
   63.1840   34.0468   45.3813 H   0  0  0  0  0  0  0  0  0  0  0  0
   64.8468   33.9923   47.2303 H   0  0  0  0  0  0  0  0  0  0  0  0
   64.1132   33.5564   49.5628 H   0  0  0  0  0  0  0  0  0  0  0  0
   61.9404   33.3226   52.4445 H   0  0  0  0  0  0  0  0  0  0  0  0
   63.3602   32.8725   51.4403 H   0  0  0  0  0  0  0  0  0  0  0  0
   62.7607   34.5658   51.4403 H   0  0  0  0  0  0  0  0  0  0  0  0
   60.6023   32.2699   52.7074 H   0  0  0  0  0  0  0  0  0  0  0  0
   59.2111   29.7726   53.8185 H   0  0  0  0  0  0  0  0  0  0  0  0
   57.9468   30.2191   55.0218 H   0  0  0  0  0  0  0  0  0  0  0  0
   57.2470   29.6188   52.1181 H   0  0  0  0  0  0  0  0  0  0  0  0
   57.4189   28.3106   53.4010 H   0  0  0  0  0  0  0  0  0  0  0  0
   54.9281   27.8898   54.6406 H   0  0  0  0  0  0  0  0  0  0  0  0
   54.1264   28.2947   53.0850 H   0  0  0  0  0  0  0  0  0  0  0  0
   55.7355   27.4962   53.0850 H   0  0  0  0  0  0  0  0  0  0  0  0
   54.4261   31.1643   53.2474 H   0  0  0  0  0  0  0  0  0  0  0  0
   55.7440   30.9763   52.0414 H   0  0  0  0  0  0  0  0  0  0  0  0
   54.3570   29.8348   52.0414 H   0  0  0  0  0  0  0  0  0  0  0  0
   55.7907   29.2859   55.7144 H   0  0  0  0  0  0  0  0  0  0  0  0
   56.4775   30.8401   55.1317 H   0  0  0  0  0  0  0  0  0  0  0  0
   54.6990   30.5879   55.1317 H   0  0  0  0  0  0  0  0  0  0  0  0
   56.5588   31.6894   51.3097 H   0  0  0  0  0  0  0  0  0  0  0  0
   57.2480   32.3492   49.0188 H   0  0  0  0  0  0  0  0  0  0  0  0
  1  2  1  0
  2  3  1  0
  3  4  1  0
  4  5  1  0
  3  6  1  0
  6  7  1  0
  7  8  1  0
  8  9  1  0
  9 10  1  0
 10 11  1  0
 11 12  1  0
 12 13  2  0
 13 14  1  0
 14 15  2  0
 15 16  1  0
 16 17  2  0
 17 18  1  0
 18 19  2  0
 19 20  1  0
 19 21  1  0
 21 22  2  0
 22 23  1  0
 23 24  1  0
 24 25  1  0
 25 26  1  0
 26 27  1  0
 27 28  1  0
 27 29  1  0
 27 30  1  0
 23 31  2  0
 31 32  1  0
 32 33  2  0
 33 12  1  0
 18 13  1  0
 33 21  1  0
  1 34  1  0
  1 35  1  0
  1 36  1  0
  2 37  1  0
  2 38  1  0
  4 39  1  0
  4 40  1  0
  5 41  1  0
  5 42  1  0
  5 43  1  0
  6 44  1  0
  6 45  1  0
  7 46  1  0
  7 47  1  0
  9 48  1  0
  9 49  1  0
 10 50  1  0
 10 51  1  0
 11 52  1  0
 14 53  1  0
 15 54  1  0
 16 55  1  0
 17 56  1  0
 20 57  1  0
 20 58  1  0
 20 59  1  0
 22 60  1  0
 25 61  1  0
 25 62  1  0
 26 63  1  0
 26 64  1  0
 28 65  1  0
 28 66  1  0
 28 67  1  0
 29 68  1  0
 29 69  1  0
 29 70  1  0
 30 71  1  0
 30 72  1  0
 30 73  1  0
 31 74  1  0
 32 75  1  0
M  CHG  2  19   1  27   1
M  END
>  <UniqueID>  (22) 
22

>  <SMILES>  (22) 
CCN(CC)CCOCCNc1c2ccccc2[n+](C)c2cc(OCC[N+](C)(C)C)ccc12

>  <Energy>  (22) 
111.76322013052729

>  <Genealogy>  (22) 
CCN(CC)CCOCCNc1c2ccccc2[n+](C)c2cc(OCC[N+](C)(C)C)ccc12 (3D coordinates assigned)
CCN(CC)CCOCCNc1c2ccccc2[n+](C)c2cc(OCC[N+](C)(C)C)ccc12 (optimized conformer: 111.76322013052729 kcal/mol)

>  <smiles>  (22) 
CCN(CC)CCOCCNc1c2ccccc2[n+](C)c2cc(OCC[N+](C)(C)C)ccc12

>  <score_type>  (22) 
oracle

>  <origin>  (22) 
adg

>  <m_score__min__energy>  (22) 
-4.2999999999999998

>  <m_primary>  (22) 
energy

$$$$
