0:0
     RDKit          3D

 51 54  0  0  0  0  0  0  0  0999 V2000
   57.3960   31.9560   42.0830 Cl  0  0  0  0  0  0  0  0  0  0  0  0
   57.3170   30.8040   43.4030 C   0  0  0  0  0  0  0  0  0  0  0  0
   56.0860   30.2660   43.7900 C   0  0  0  0  0  0  0  0  0  0  0  0
   56.0240   29.3420   44.8360 C   0  0  0  0  0  0  0  0  0  0  0  0
   57.1910   28.9540   45.5000 C   0  0  0  0  0  0  0  0  0  0  0  0
   58.4320   29.4990   45.1270 C   0  0  0  0  0  0  0  0  0  0  0  0
   59.6940   29.0550   45.8180 C   0  0  0  0  0  0  0  0  0  0  0  0
   59.5110   29.0350   47.3440 C   0  0  2  0  0  0  0  0  0  0  0  0
   58.9850   30.3980   47.8610 C   0  0  0  0  0  0  0  0  0  0  0  0
   59.5150   30.7200   49.2120 N   0  0  1  0  0  0  0  0  0  0  0  0
   58.6680   31.7160   49.9110 C   0  0  0  0  0  0  0  0  0  0  0  0
   59.2440   33.1390   49.8220 C   0  0  0  0  0  0  0  0  0  0  0  0
   59.7600   33.3920   48.4780 N   0  0  0  0  0  0  0  0  0  0  0  0
   61.1730   33.5900   48.1540 C   0  0  0  0  0  0  0  0  0  0  0  0
   61.2300   33.8320   46.6250 C   0  0  0  0  0  0  0  0  0  0  0  0
   59.7990   33.7840   46.2140 C   0  0  0  0  0  0  0  0  0  0  0  0
   59.2630   33.9640   44.9380 C   0  0  0  0  0  0  0  0  0  0  0  0
   57.8700   33.8880   44.7790 C   0  0  0  0  0  0  0  0  0  0  0  0
   57.0420   33.6360   45.8920 C   0  0  0  0  0  0  0  0  0  0  0  0
   57.6050   33.4590   47.1660 C   0  0  0  0  0  0  0  0  0  0  0  0
   58.9960   33.5340   47.2930 C   0  0  0  0  0  0  0  0  0  0  0  0
   59.6280   29.4950   50.0300 C   0  0  0  0  0  0  0  0  0  0  0  0
   60.5410   28.4570   49.3400 C   0  0  0  0  0  0  0  0  0  0  0  0
   60.7460   28.7320   47.9640 O   0  0  0  0  0  0  0  0  0  0  0  0
   58.4890   30.4200   44.0660 C   0  0  0  0  0  0  0  0  0  0  0  0
   55.1655   30.5705   43.2705 H   0  0  0  0  0  0  0  0  0  0  0  0
   55.0545   28.9189   45.1377 H   0  0  0  0  0  0  0  0  0  0  0  0
   57.1383   28.2196   46.3173 H   0  0  0  0  0  0  0  0  0  0  0  0
   59.9551   28.0433   45.4741 H   0  0  0  0  0  0  0  0  0  0  0  0
   60.4963   29.7660   45.5714 H   0  0  0  0  0  0  0  0  0  0  0  0
   58.7685   28.2633   47.5954 H   0  0  0  0  0  0  0  0  0  0  0  0
   59.2941   31.1875   47.1602 H   0  0  0  0  0  0  0  0  0  0  0  0
   57.8889   30.3365   47.9304 H   0  0  0  0  0  0  0  0  0  0  0  0
   60.4770   31.1240   49.1090 H   0  0  0  0  0  0  0  0  0  0  0  0
   57.6669   31.7107   49.4552 H   0  0  0  0  0  0  0  0  0  0  0  0
   58.6277   31.4358   50.9739 H   0  0  0  0  0  0  0  0  0  0  0  0
   58.4512   33.8667   50.0497 H   0  0  0  0  0  0  0  0  0  0  0  0
   60.0656   33.2394   50.5465 H   0  0  0  0  0  0  0  0  0  0  0  0
   61.5705   34.4619   48.6941 H   0  0  0  0  0  0  0  0  0  0  0  0
   61.7796   32.7205   48.4474 H   0  0  0  0  0  0  0  0  0  0  0  0
   61.6719   34.8134   46.3981 H   0  0  0  0  0  0  0  0  0  0  0  0
   61.8533   33.0956   46.0967 H   0  0  0  0  0  0  0  0  0  0  0  0
   59.9173   34.1610   44.0760 H   0  0  0  0  0  0  0  0  0  0  0  0
   57.4234   34.0255   43.7832 H   0  0  0  0  0  0  0  0  0  0  0  0
   55.9513   33.5779   45.7618 H   0  0  0  0  0  0  0  0  0  0  0  0
   56.9683   33.2662   48.0421 H   0  0  0  0  0  0  0  0  0  0  0  0
   60.0535   29.7542   51.0107 H   0  0  0  0  0  0  0  0  0  0  0  0
   58.6258   29.0580   50.1509 H   0  0  0  0  0  0  0  0  0  0  0  0
   61.5171   28.4558   49.8471 H   0  0  0  0  0  0  0  0  0  0  0  0
   60.0422   27.4791   49.4109 H   0  0  0  0  0  0  0  0  0  0  0  0
   59.4572   30.8401   43.7559 H   0  0  0  0  0  0  0  0  0  0  0  0
  1  2  1  0
  2  3  2  0
  3  4  1  0
  4  5  2  0
  5  6  1  0
  6  7  1  0
  7  8  1  0
  8  9  1  0
  9 10  1  0
 10 11  1  0
 11 12  1  0
 12 13  1  0
 13 14  1  0
 14 15  1  0
 15 16  1  0
 16 17  2  0
 17 18  1  0
 18 19  2  0
 19 20  1  0
 20 21  2  0
 10 22  1  0
 22 23  1  0
 23 24  1  0
  6 25  2  0
 25  2  1  0
 24  8  1  0
 21 13  1  0
 21 16  1  0
  3 26  1  0
  4 27  1  0
  5 28  1  0
  7 29  1  0
  7 30  1  0
  8 31  1  6
  9 32  1  0
  9 33  1  0
 10 34  1  6
 11 35  1  0
 11 36  1  0
 12 37  1  0
 12 38  1  0
 14 39  1  0
 14 40  1  0
 15 41  1  0
 15 42  1  0
 17 43  1  0
 18 44  1  0
 19 45  1  0
 20 46  1  0
 22 47  1  0
 22 48  1  0
 23 49  1  0
 23 50  1  0
 25 51  1  0
M  CHG  1  10   1
M  END
>  <UniqueID>  (1) 
1

>  <SMILES>  (1) 
Clc1cccc(C[C@@H]2C[N@@H+](CCN3CCc4ccccc43)CCO2)c1

>  <Energy>  (1) 
73.19058945979579

>  <Genealogy>  (1) 
Clc1cccc(CC2C[NH+](CCN3CCc4ccccc43)CCO2)c1 (protonated)
Clc1cccc(C[C@@H]2C[N@@H+](CCN3CCc4ccccc43)CCO2)c1 (chirality)
Clc1cccc(C[C@@H]2C[N@@H+](CCN3CCc4ccccc43)CCO2)c1 (3D coordinates assigned)
Clc1cccc(C[C@@H]2C[N@@H+](CCN3CCc4ccccc43)CCO2)c1 (nonaromatic ring conformer: 73.19058945979579 kcal/mol)

>  <smiles>  (1) 
Clc1cccc(CC2CN(CCN3CCc4ccccc43)CCO2)c1

>  <score_type>  (1) 
oracle

>  <origin>  (1) 
adg

>  <m_score__min__energy>  (1) 
-6.5

>  <m_primary>  (1) 
energy

$$$$
1:0
     RDKit          3D

 50 52  0  0  0  0  0  0  0  0999 V2000
   55.6190   24.0760   44.8260 C   0  0  0  0  0  0  0  0  0  0  0  0
   54.5690   24.8460   45.6210 C   0  0  0  0  0  0  0  0  0  0  0  0
   55.0660   26.1160   45.9930 O   0  0  0  0  0  0  0  0  0  0  0  0
   56.4810   26.1570   45.9530 C   0  0  0  0  0  0  0  0  0  0  0  0
   56.9640   27.6060   45.8570 C   0  0  0  0  0  0  0  0  0  0  0  0
   57.7450   27.8890   44.5660 C   0  0  0  0  0  0  0  0  0  0  0  0
   57.1300   28.9670   43.7960 N   0  0  0  0  0  0  0  0  0  0  0  0
   56.8210   30.2890   44.2620 C   0  0  0  0  0  0  0  0  0  0  0  0
   55.7110   30.4800   44.8270 O   0  0  0  0  0  0  0  0  0  0  0  0
   57.7890   31.4390   44.1480 C   0  0  0  0  0  0  0  0  0  0  0  0
   57.7070   32.4290   45.3310 C   0  0  0  0  0  0  0  0  0  0  0  0
   58.9140   32.4150   46.1810 N   0  0  0  0  0  0  0  0  0  0  0  0
   59.9150   33.4620   46.0300 C   0  0  0  0  0  0  0  0  0  0  0  0
   59.8030   34.3070   45.1020 O   0  0  0  0  0  0  0  0  0  0  0  0
   61.0810   33.5930   46.9320 C   0  0  0  0  0  0  0  0  0  0  0  0
   62.3620   33.7750   46.3850 C   0  0  0  0  0  0  0  0  0  0  0  0
   63.4780   33.8870   47.2190 C   0  0  0  0  0  0  0  0  0  0  0  0
   63.3230   33.8270   48.6070 C   0  0  0  0  0  0  0  0  0  0  0  0
   62.0500   33.6820   49.1620 C   0  0  0  0  0  0  0  0  0  0  0  0
   60.9280   33.5900   48.3310 C   0  0  0  0  0  0  0  0  0  0  0  0
   59.2960   33.4680   49.0550 S   0  0  0  0  0  0  0  0  0  0  0  0
   59.2150   31.7520   48.5680 C   0  0  0  0  0  0  0  0  0  0  0  0
   59.3740   30.7620   49.5440 C   0  0  0  0  0  0  0  0  0  0  0  0
   59.3110   29.4130   49.1920 C   0  0  0  0  0  0  0  0  0  0  0  0
   59.0890   29.0500   47.8650 C   0  0  0  0  0  0  0  0  0  0  0  0
   58.9400   30.0330   46.8820 C   0  0  0  0  0  0  0  0  0  0  0  0
   59.0240   31.3990   47.2130 C   0  0  0  0  0  0  0  0  0  0  0  0
   56.3072   23.5713   45.5201 H   0  0  0  0  0  0  0  0  0  0  0  0
   55.1223   23.3265   44.1924 H   0  0  0  0  0  0  0  0  0  0  0  0
   56.1846   24.7750   44.1924 H   0  0  0  0  0  0  0  0  0  0  0  0
   53.6691   24.9761   45.0020 H   0  0  0  0  0  0  0  0  0  0  0  0
   54.3232   24.2785   46.5307 H   0  0  0  0  0  0  0  0  0  0  0  0
   56.8840   25.6993   46.8685 H   0  0  0  0  0  0  0  0  0  0  0  0
   56.8319   25.6019   45.0705 H   0  0  0  0  0  0  0  0  0  0  0  0
   56.0886   28.2712   45.8910 H   0  0  0  0  0  0  0  0  0  0  0  0
   57.6454   27.7844   46.7019 H   0  0  0  0  0  0  0  0  0  0  0  0
   58.7741   28.1773   44.8263 H   0  0  0  0  0  0  0  0  0  0  0  0
   57.7386   26.9771   43.9508 H   0  0  0  0  0  0  0  0  0  0  0  0
   58.8101   31.0323   44.1037 H   0  0  0  0  0  0  0  0  0  0  0  0
   57.5243   31.9975   43.2380 H   0  0  0  0  0  0  0  0  0  0  0  0
   57.5730   33.4443   44.9295 H   0  0  0  0  0  0  0  0  0  0  0  0
   56.8588   32.1202   45.9597 H   0  0  0  0  0  0  0  0  0  0  0  0
   62.4876   33.8297   45.2936 H   0  0  0  0  0  0  0  0  0  0  0  0
   64.4788   34.0224   46.7830 H   0  0  0  0  0  0  0  0  0  0  0  0
   64.2041   33.8940   49.2621 H   0  0  0  0  0  0  0  0  0  0  0  0
   61.9289   33.6400   50.2545 H   0  0  0  0  0  0  0  0  0  0  0  0
   59.5491   31.0478   50.5917 H   0  0  0  0  0  0  0  0  0  0  0  0
   59.4365   28.6369   49.9614 H   0  0  0  0  0  0  0  0  0  0  0  0
   59.0308   27.9865   47.5900 H   0  0  0  0  0  0  0  0  0  0  0  0
   58.7552   29.7361   45.8391 H   0  0  0  0  0  0  0  0  0  0  0  0
  1  2  1  0
  2  3  1  0
  3  4  1  0
  4  5  1  0
  5  6  1  0
  6  7  1  0
  7  8  1  0
  8  9  2  0
  8 10  1  0
 10 11  1  0
 11 12  1  0
 12 13  1  0
 13 14  2  0
 13 15  1  0
 15 16  2  0
 16 17  1  0
 17 18  2  0
 18 19  1  0
 19 20  2  0
 20 21  1  0
 21 22  1  0
 22 23  2  0
 23 24  1  0
 24 25  2  0
 25 26  1  0
 26 27  2  0
 27 12  1  0
 20 15  1  0
 27 22  1  0
  1 28  1  0
  1 29  1  0
  1 30  1  0
  2 31  1  0
  2 32  1  0
  4 33  1  0
  4 34  1  0
  5 35  1  0
  5 36  1  0
  6 37  1  0
  6 38  1  0
 10 39  1  0
 10 40  1  0
 11 41  1  0
 11 42  1  0
 16 43  1  0
 17 44  1  0
 18 45  1  0
 19 46  1  0
 23 47  1  0
 24 48  1  0
 25 49  1  0
 26 50  1  0
M  CHG  1   7  -1
M  END
>  <UniqueID>  (2) 
2

>  <SMILES>  (2) 
CCOCCC[N-]C(=O)CCN1C(=O)c2ccccc2Sc2ccccc21

>  <Energy>  (2) 
59.10817227708966

>  <Genealogy>  (2) 
CCOCCC[N-]C(=O)CCN1C(=O)c2ccccc2Sc2ccccc21 (protonated)
CCOCCC[N-]C(=O)CCN1C(=O)c2ccccc2Sc2ccccc21 (3D coordinates assigned)
CCOCCC[N-]C(=O)CCN1C(=O)c2ccccc2Sc2ccccc21 (nonaromatic ring conformer: 59.10817227708966 kcal/mol)

>  <smiles>  (2) 
CCOCCCNC(=O)CCN1C(=O)c2ccccc2Sc2ccccc21

>  <score_type>  (2) 
oracle

>  <origin>  (2) 
adg

>  <m_score__min__energy>  (2) 
-10.390000000000001

>  <m_primary>  (2) 
energy

$$$$
2:0
     RDKit          3D

 44 46  0  0  0  0  0  0  0  0999 V2000
   57.7670   27.8440   43.4930 C   0  0  0  0  0  0  0  0  0  0  0  0
   58.0300   28.3590   44.8340 N   0  0  0  0  0  0  0  0  0  0  0  0
   57.4170   29.3950   45.4570 C   0  0  0  0  0  0  0  0  0  0  0  0
   56.4560   30.1940   44.8300 O   0  0  0  0  0  0  0  0  0  0  0  0
   56.6410   30.7760   43.5420 C   0  0  0  0  0  0  0  0  0  0  0  0
   57.9790   31.5270   43.4520 C   0  0  0  0  0  0  0  0  0  0  0  0
   58.0930   32.7350   44.4110 C   0  0  0  0  0  0  0  0  0  0  0  0
   58.2530   32.3810   45.8490 N   0  0  0  0  0  0  0  0  0  0  0  0
   59.6210   31.8410   46.1200 C   0  0  0  0  0  0  0  0  0  0  0  0
   60.5620   32.8200   46.8580 C   0  0  0  0  0  0  0  0  0  0  0  0
   60.3190   34.2650   46.4280 C   0  0  0  0  0  0  0  0  0  0  0  0
   58.8570   34.6890   46.6520 C   0  0  0  0  0  0  0  0  0  0  0  0
   57.9010   33.4860   46.7740 C   0  0  0  0  0  0  0  0  0  0  0  0
   57.8180   29.5730   46.7450 N   0  0  0  0  0  0  0  0  0  0  0  0
   58.7120   28.5830   46.9160 C   0  0  0  0  0  0  0  0  0  0  0  0
   59.4300   28.2760   48.0700 C   0  0  0  0  0  0  0  0  0  0  0  0
   60.2970   27.1680   48.0280 C   0  0  0  0  0  0  0  0  0  0  0  0
   60.4210   26.4000   46.8480 C   0  0  0  0  0  0  0  0  0  0  0  0
   59.6810   26.7350   45.6980 C   0  0  0  0  0  0  0  0  0  0  0  0
   58.8380   27.8430   45.7730 C   0  0  0  0  0  0  0  0  0  0  0  0
   57.2678   26.8666   43.5670 H   0  0  0  0  0  0  0  0  0  0  0  0
   57.1176   28.5472   42.9510 H   0  0  0  0  0  0  0  0  0  0  0  0
   58.7174   27.7303   42.9510 H   0  0  0  0  0  0  0  0  0  0  0  0
   56.6263   29.9791   42.7839 H   0  0  0  0  0  0  0  0  0  0  0  0
   55.8279   31.4960   43.3678 H   0  0  0  0  0  0  0  0  0  0  0  0
   58.7880   30.8204   43.6893 H   0  0  0  0  0  0  0  0  0  0  0  0
   58.0492   31.9269   42.4297 H   0  0  0  0  0  0  0  0  0  0  0  0
   58.9656   33.3317   44.1068 H   0  0  0  0  0  0  0  0  0  0  0  0
   57.1423   33.2826   44.3319 H   0  0  0  0  0  0  0  0  0  0  0  0
   57.5860   31.5980   46.0480 H   0  0  0  0  0  0  0  0  0  0  0  0
   59.5171   30.9349   46.7350 H   0  0  0  0  0  0  0  0  0  0  0  0
   60.0799   31.6452   45.1396 H   0  0  0  0  0  0  0  0  0  0  0  0
   60.3871   32.7355   47.9407 H   0  0  0  0  0  0  0  0  0  0  0  0
   61.5996   32.5558   46.6059 H   0  0  0  0  0  0  0  0  0  0  0  0
   60.9752   34.9259   47.0133 H   0  0  0  0  0  0  0  0  0  0  0  0
   60.5371   34.3433   45.3527 H   0  0  0  0  0  0  0  0  0  0  0  0
   58.7998   35.2794   47.5784 H   0  0  0  0  0  0  0  0  0  0  0  0
   58.5431   35.2755   45.7759 H   0  0  0  0  0  0  0  0  0  0  0  0
   57.9410   33.1076   47.8061 H   0  0  0  0  0  0  0  0  0  0  0  0
   56.8920   33.8342   46.5081 H   0  0  0  0  0  0  0  0  0  0  0  0
   59.3228   28.8795   48.9834 H   0  0  0  0  0  0  0  0  0  0  0  0
   60.8820   26.8980   48.9196 H   0  0  0  0  0  0  0  0  0  0  0  0
   61.1001   25.5349   46.8280 H   0  0  0  0  0  0  0  0  0  0  0  0
   59.7649   26.1441   44.7740 H   0  0  0  0  0  0  0  0  0  0  0  0
  1  2  1  0
  2  3  1  0
  3  4  1  0
  4  5  1  0
  5  6  1  0
  6  7  1  0
  7  8  1  0
  8  9  1  0
  9 10  1  0
 10 11  1  0
 11 12  1  0
 12 13  1  0
  3 14  2  0
 14 15  1  0
 15 16  2  0
 16 17  1  0
 17 18  2  0
 18 19  1  0
 19 20  2  0
 20  2  1  0
 13  8  1  0
 20 15  1  0
  1 21  1  0
  1 22  1  0
  1 23  1  0
  5 24  1  0
  5 25  1  0
  6 26  1  0
  6 27  1  0
  7 28  1  0
  7 29  1  0
  8 30  1  0
  9 31  1  0
  9 32  1  0
 10 33  1  0
 10 34  1  0
 11 35  1  0
 11 36  1  0
 12 37  1  0
 12 38  1  0
 13 39  1  0
 13 40  1  0
 16 41  1  0
 17 42  1  0
 18 43  1  0
 19 44  1  0
M  CHG  1   8   1
M  END
>  <UniqueID>  (3) 
3

>  <SMILES>  (3) 
Cn1c(OCCC[NH+]2CCCCC2)nc2ccccc21

>  <Energy>  (3) 
88.22911685932546

>  <Genealogy>  (3) 
Cn1c(OCCC[NH+]2CCCCC2)nc2ccccc21 (protonated)
Cn1c(OCCC[NH+]2CCCCC2)nc2ccccc21 (3D coordinates assigned)
Cn1c(OCCC[NH+]2CCCCC2)nc2ccccc21 (nonaromatic ring conformer: 88.22911685932546 kcal/mol)

>  <smiles>  (3) 
Cn1c(OCCCN2CCCCC2)nc2ccccc21

>  <score_type>  (3) 
oracle

>  <origin>  (3) 
adg

>  <m_score__min__energy>  (3) 
-4.9199999999999999

>  <m_primary>  (3) 
energy

$$$$
3:0
     RDKit          3D

 39 41  0  0  0  0  0  0  0  0999 V2000
   64.5250   33.0090   49.3270 C   0  0  0  0  0  0  0  0  0  0  0  0
   63.4580   31.9940   48.9340 C   0  0  0  0  0  0  0  0  0  0  0  0
   63.4150   31.8410   47.4710 N   0  0  0  0  0  0  0  0  0  0  0  0
   63.6660   33.1070   46.7590 C   0  0  0  0  0  0  0  0  0  0  0  0
   62.3680   33.8400   46.3800 C   0  0  0  0  0  0  0  0  0  0  0  0
   61.2080   33.1890   46.9880 N   0  0  0  0  0  0  0  0  0  0  0  0
   59.9040   33.2070   46.3780 C   0  0  0  0  0  0  0  0  0  0  0  0
   59.3620   34.4390   45.9670 C   0  0  0  0  0  0  0  0  0  0  0  0
   58.1340   34.4960   45.3120 C   0  0  0  0  0  0  0  0  0  0  0  0
   57.4270   33.3270   45.0490 C   0  0  0  0  0  0  0  0  0  0  0  0
   57.9330   32.0890   45.4510 C   0  0  0  0  0  0  0  0  0  0  0  0
   57.2250   30.9960   45.1870 O   0  0  0  0  0  0  0  0  0  0  0  0
   57.6160   29.7810   45.5420 C   0  0  0  0  0  0  0  0  0  0  0  0
   56.8150   28.6780   45.2230 C   0  0  0  0  0  0  0  0  0  0  0  0
   57.2080   27.3910   45.5970 C   0  0  0  0  0  0  0  0  0  0  0  0
   58.4040   27.1990   46.2940 C   0  0  0  0  0  0  0  0  0  0  0  0
   59.2120   28.2920   46.6180 C   0  0  0  0  0  0  0  0  0  0  0  0
   58.8260   29.5950   46.2430 C   0  0  0  0  0  0  0  0  0  0  0  0
   59.6090   30.7230   46.5490 C   0  0  0  0  0  0  0  0  0  0  0  0
   60.6750   30.5770   47.2060 O   0  0  0  0  0  0  0  0  0  0  0  0
   59.1770   32.0070   46.1300 C   0  0  0  0  0  0  0  0  0  0  0  0
   64.5879   33.0689   50.4236 H   0  0  0  0  0  0  0  0  0  0  0  0
   65.4976   32.6946   48.9205 H   0  0  0  0  0  0  0  0  0  0  0  0
   64.2595   33.9961   48.9205 H   0  0  0  0  0  0  0  0  0  0  0  0
   63.6936   31.0229   49.3939 H   0  0  0  0  0  0  0  0  0  0  0  0
   62.4783   32.3492   49.2862 H   0  0  0  0  0  0  0  0  0  0  0  0
   62.4810   31.4560   47.1960 H   0  0  0  0  0  0  0  0  0  0  0  0
   64.2647   33.7633   47.4077 H   0  0  0  0  0  0  0  0  0  0  0  0
   64.1965   32.8651   45.8262 H   0  0  0  0  0  0  0  0  0  0  0  0
   62.4246   34.8800   46.7338 H   0  0  0  0  0  0  0  0  0  0  0  0
   62.2544   33.8135   45.2862 H   0  0  0  0  0  0  0  0  0  0  0  0
   61.3790   32.5170   47.7690 H   0  0  0  0  0  0  0  0  0  0  0  0
   59.9152   35.3688   46.1655 H   0  0  0  0  0  0  0  0  0  0  0  0
   57.7222   35.4677   45.0019 H   0  0  0  0  0  0  0  0  0  0  0  0
   56.4633   33.3782   44.5211 H   0  0  0  0  0  0  0  0  0  0  0  0
   55.8723   28.8256   44.6756 H   0  0  0  0  0  0  0  0  0  0  0  0
   56.5755   26.5277   45.3427 H   0  0  0  0  0  0  0  0  0  0  0  0
   58.7102   26.1843   46.5884 H   0  0  0  0  0  0  0  0  0  0  0  0
   60.1521   28.1353   47.1673 H   0  0  0  0  0  0  0  0  0  0  0  0
  1  2  1  0
  2  3  1  0
  3  4  1  0
  4  5  1  0
  5  6  1  0
  6  7  1  0
  7  8  2  0
  8  9  1  0
  9 10  2  0
 10 11  1  0
 11 12  1  0
 12 13  1  0
 13 14  2  0
 14 15  1  0
 15 16  2  0
 16 17  1  0
 17 18  2  0
 18 19  1  0
 19 20  2  0
 19 21  1  0
 21  7  1  0
 21 11  2  0
 18 13  1  0
  1 22  1  0
  1 23  1  0
  1 24  1  0
  2 25  1  0
  2 26  1  0
  3 27  1  0
  4 28  1  0
  4 29  1  0
  5 30  1  0
  5 31  1  0
  6 32  1  0
  8 33  1  0
  9 34  1  0
 10 35  1  0
 14 36  1  0
 15 37  1  0
 16 38  1  0
 17 39  1  0
M  END
>  <UniqueID>  (4) 
4

>  <SMILES>  (4) 
CCNCCNc1cccc2oc3ccccc3c(=O)c12

>  <Energy>  (4) 
53.34616222446069

>  <Genealogy>  (4) 
CCNCCNc1cccc2oc3ccccc3c(=O)c12 (3D coordinates assigned)
CCNCCNc1cccc2oc3ccccc3c(=O)c12 (optimized conformer: 53.34616222446069 kcal/mol)

>  <smiles>  (4) 
CCNCCNc1cccc2oc3ccccc3c(=O)c12

>  <score_type>  (4) 
oracle

>  <origin>  (4) 
adg

>  <m_score__min__energy>  (4) 
-7.1100000000000003

>  <m_primary>  (4) 
energy

$$$$
4:0
     RDKit          3D

 43 45  0  0  0  0  0  0  0  0999 V2000
   57.7950   26.0370   44.2790 C   0  0  0  0  0  0  0  0  0  0  0  0
   58.1700   27.2010   43.3610 C   0  0  0  0  0  0  0  0  0  0  0  0
   58.2210   28.4800   44.1060 N   0  0  0  0  0  0  0  0  0  0  0  0
   59.1310   28.3980   45.2800 C   0  0  0  0  0  0  0  0  0  0  0  0
   60.5330   28.8350   44.8730 C   0  0  0  0  0  0  0  0  0  0  0  0
   56.8570   28.9180   44.4920 C   0  0  0  0  0  0  0  0  0  0  0  0
   56.5130   30.2730   43.8550 C   0  0  0  0  0  0  0  0  0  0  0  0
   56.3970   31.3070   44.8330 O   0  0  0  0  0  0  0  0  0  0  0  0
   57.4070   32.2180   45.1820 C   0  0  0  0  0  0  0  0  0  0  0  0
   57.2920   33.6180   44.9480 C   0  0  0  0  0  0  0  0  0  0  0  0
   58.3270   34.4970   45.3200 C   0  0  0  0  0  0  0  0  0  0  0  0
   59.4620   33.9570   45.9200 C   0  0  0  0  0  0  0  0  0  0  0  0
   60.5540   34.6260   46.3480 N   0  0  0  0  0  0  0  0  0  0  0  0
   61.3660   33.6700   46.8520 C   0  0  0  0  0  0  0  0  0  0  0  0
   62.6260   33.8500   47.4220 C   0  0  0  0  0  0  0  0  0  0  0  0
   63.3070   32.7100   47.8870 C   0  0  0  0  0  0  0  0  0  0  0  0
   62.7220   31.4270   47.7760 C   0  0  0  0  0  0  0  0  0  0  0  0
   61.4500   31.2700   47.1970 C   0  0  0  0  0  0  0  0  0  0  0  0
   60.8000   32.4160   46.7440 C   0  0  0  0  0  0  0  0  0  0  0  0
   59.5750   32.6020   46.1450 C   0  0  0  0  0  0  0  0  0  0  0  0
   58.5700   31.7060   45.7880 C   0  0  0  0  0  0  0  0  0  0  0  0
   57.8960   26.3505   45.3285 H   0  0  0  0  0  0  0  0  0  0  0  0
   56.7547   25.7370   44.0844 H   0  0  0  0  0  0  0  0  0  0  0  0
   58.4645   25.1862   44.0844 H   0  0  0  0  0  0  0  0  0  0  0  0
   59.1578   27.0045   42.9187 H   0  0  0  0  0  0  0  0  0  0  0  0
   57.4024   27.2862   42.5777 H   0  0  0  0  0  0  0  0  0  0  0  0
   58.7593   29.0578   46.0778 H   0  0  0  0  0  0  0  0  0  0  0  0
   59.1636   27.3607   45.6446 H   0  0  0  0  0  0  0  0  0  0  0  0
   61.1348   29.0226   45.7745 H   0  0  0  0  0  0  0  0  0  0  0  0
   61.0054   28.0415   44.2754 H   0  0  0  0  0  0  0  0  0  0  0  0
   60.4709   29.7564   44.2754 H   0  0  0  0  0  0  0  0  0  0  0  0
   56.1286   28.1663   44.1538 H   0  0  0  0  0  0  0  0  0  0  0  0
   56.8200   29.0256   45.5861 H   0  0  0  0  0  0  0  0  0  0  0  0
   57.3074   30.5436   43.1439 H   0  0  0  0  0  0  0  0  0  0  0  0
   55.5425   30.1742   43.3466 H   0  0  0  0  0  0  0  0  0  0  0  0
   56.3845   34.0171   44.4713 H   0  0  0  0  0  0  0  0  0  0  0  0
   58.2417   35.5791   45.1419 H   0  0  0  0  0  0  0  0  0  0  0  0
   60.7320   35.6540   46.3020 H   0  0  0  0  0  0  0  0  0  0  0  0
   63.0732   34.8515   47.5054 H   0  0  0  0  0  0  0  0  0  0  0  0
   64.3032   32.8175   48.3409 H   0  0  0  0  0  0  0  0  0  0  0  0
   63.2661   30.5452   48.1454 H   0  0  0  0  0  0  0  0  0  0  0  0
   60.9848   30.2775   47.1050 H   0  0  0  0  0  0  0  0  0  0  0  0
   58.6820   30.6277   45.9745 H   0  0  0  0  0  0  0  0  0  0  0  0
  1  2  1  0
  2  3  1  0
  3  4  1  0
  4  5  1  0
  3  6  1  0
  6  7  1  0
  7  8  1  0
  8  9  1  0
  9 10  2  0
 10 11  1  0
 11 12  2  0
 12 13  1  0
 13 14  1  0
 14 15  2  0
 15 16  1  0
 16 17  2  0
 17 18  1  0
 18 19  2  0
 19 20  1  0
 20 21  2  0
 21  9  1  0
 20 12  1  0
 19 14  1  0
  1 22  1  0
  1 23  1  0
  1 24  1  0
  2 25  1  0
  2 26  1  0
  4 27  1  0
  4 28  1  0
  5 29  1  0
  5 30  1  0
  5 31  1  0
  6 32  1  0
  6 33  1  0
  7 34  1  0
  7 35  1  0
 10 36  1  0
 11 37  1  0
 13 38  1  0
 15 39  1  0
 16 40  1  0
 17 41  1  0
 18 42  1  0
 21 43  1  0
M  END
>  <UniqueID>  (5) 
5

>  <SMILES>  (5) 
CCN(CC)CCOc1ccc2[nH]c3ccccc3c2c1

>  <Energy>  (5) 
84.38894261603329

>  <Genealogy>  (5) 
CCN(CC)CCOc1ccc2[nH]c3ccccc3c2c1 (3D coordinates assigned)
CCN(CC)CCOc1ccc2[nH]c3ccccc3c2c1 (optimized conformer: 84.38894261603329 kcal/mol)

>  <smiles>  (5) 
CCN(CC)CCOc1ccc2[nH]c3ccccc3c2c1

>  <score_type>  (5) 
oracle

>  <origin>  (5) 
adg

>  <m_score__min__energy>  (5) 
-6.9100000000000001

>  <m_primary>  (5) 
energy

$$$$
5:0
     RDKit          3D

 46 48  0  0  0  0  0  0  0  0999 V2000
   62.9650   34.0420   46.3850 C   0  0  0  0  0  0  0  0  0  0  0  0
   63.7360   33.4400   47.5590 C   0  0  0  0  0  0  0  0  0  0  0  0
   63.9090   31.9870   47.3840 N   0  0  0  0  0  0  0  0  0  0  0  0
   62.6160   31.2760   47.3460 C   0  0  0  0  0  0  0  0  0  0  0  0
   61.7440   31.5640   48.5800 C   0  0  0  0  0  0  0  0  0  0  0  0
   60.4320   30.9240   48.4630 N   0  0  0  0  0  0  0  0  0  0  0  0
   59.7290   30.8340   47.2090 C   0  0  0  0  0  0  0  0  0  0  0  0
   59.5240   29.5860   46.5920 C   0  0  0  0  0  0  0  0  0  0  0  0
   59.9420   28.3900   47.2140 C   0  0  0  0  0  0  0  0  0  0  0  0
   59.8050   27.1630   46.5680 C   0  0  0  0  0  0  0  0  0  0  0  0
   59.2500   27.1060   45.2960 C   0  0  0  0  0  0  0  0  0  0  0  0
   58.7860   28.2670   44.6820 C   0  0  0  0  0  0  0  0  0  0  0  0
   58.8640   29.5250   45.3350 C   0  0  0  0  0  0  0  0  0  0  0  0
   58.3200   30.6680   44.7780 N   0  0  0  0  0  0  0  0  0  0  0  0
   57.3930   30.5560   43.6280 C   0  0  0  0  0  0  0  0  0  0  0  0
   58.6050   31.9070   45.3210 C   0  0  0  0  0  0  0  0  0  0  0  0
   58.2700   33.1110   44.6490 C   0  0  0  0  0  0  0  0  0  0  0  0
   58.5050   34.3540   45.2320 C   0  0  0  0  0  0  0  0  0  0  0  0
   59.1000   34.4420   46.4890 C   0  0  0  0  0  0  0  0  0  0  0  0
   59.3280   35.7210   47.0900 N   0  0  0  0  0  0  0  0  0  0  0  0
   59.4890   33.2740   47.1500 C   0  0  0  0  0  0  0  0  0  0  0  0
   59.2700   32.0040   46.5740 C   0  0  0  0  0  0  0  0  0  0  0  0
   62.1520   34.6768   46.7672 H   0  0  0  0  0  0  0  0  0  0  0  0
   63.6467   34.6492   45.7714 H   0  0  0  0  0  0  0  0  0  0  0  0
   62.5413   33.2334   45.7714 H   0  0  0  0  0  0  0  0  0  0  0  0
   64.7258   33.9157   47.6218 H   0  0  0  0  0  0  0  0  0  0  0  0
   63.1655   33.6176   48.4826 H   0  0  0  0  0  0  0  0  0  0  0  0
   64.4030   31.8170   46.4760 H   0  0  0  0  0  0  0  0  0  0  0  0
   64.5080   31.6130   48.1550 H   0  0  0  0  0  0  0  0  0  0  0  0
   62.0674   31.5910   46.4461 H   0  0  0  0  0  0  0  0  0  0  0  0
   62.8302   30.1971   47.3348 H   0  0  0  0  0  0  0  0  0  0  0  0
   62.2523   31.1789   49.4762 H   0  0  0  0  0  0  0  0  0  0  0  0
   61.5954   32.6513   48.6552 H   0  0  0  0  0  0  0  0  0  0  0  0
   59.9180   30.6860   49.3420 H   0  0  0  0  0  0  0  0  0  0  0  0
   60.3816   28.4270   48.2217 H   0  0  0  0  0  0  0  0  0  0  0  0
   60.1364   26.2395   47.0654 H   0  0  0  0  0  0  0  0  0  0  0  0
   59.1767   26.1415   44.7722 H   0  0  0  0  0  0  0  0  0  0  0  0
   58.3514   28.2080   43.6732 H   0  0  0  0  0  0  0  0  0  0  0  0
   56.3642   30.4317   43.9971 H   0  0  0  0  0  0  0  0  0  0  0  0
   57.4555   31.4682   43.0165 H   0  0  0  0  0  0  0  0  0  0  0  0
   57.6709   29.6849   43.0165 H   0  0  0  0  0  0  0  0  0  0  0  0
   57.8159   33.0618   43.6483 H   0  0  0  0  0  0  0  0  0  0  0  0
   58.2192   35.2716   44.6970 H   0  0  0  0  0  0  0  0  0  0  0  0
   60.0050   36.3960   46.6700 H   0  0  0  0  0  0  0  0  0  0  0  0
   58.7790   36.0220   47.9240 H   0  0  0  0  0  0  0  0  0  0  0  0
   59.9736   33.3453   48.1349 H   0  0  0  0  0  0  0  0  0  0  0  0
  1  2  1  0
  2  3  1  0
  3  4  1  0
  4  5  1  0
  5  6  1  0
  6  7  1  0
  7  8  2  0
  8  9  1  0
  9 10  2  0
 10 11  1  0
 11 12  2  0
 12 13  1  0
 13 14  2  0
 14 15  1  0
 14 16  1  0
 16 17  2  0
 17 18  1  0
 18 19  2  0
 19 20  1  0
 19 21  1  0
 21 22  2  0
 22  7  1  0
 13  8  1  0
 22 16  1  0
  1 23  1  0
  1 24  1  0
  1 25  1  0
  2 26  1  0
  2 27  1  0
  3 28  1  0
  3 29  1  0
  4 30  1  0
  4 31  1  0
  5 32  1  0
  5 33  1  0
  6 34  1  0
  9 35  1  0
 10 36  1  0
 11 37  1  0
 12 38  1  0
 15 39  1  0
 15 40  1  0
 15 41  1  0
 17 42  1  0
 18 43  1  0
 20 44  1  0
 20 45  1  0
 21 46  1  0
M  CHG  2   3   1  14   1
M  END
>  <UniqueID>  (6) 
6

>  <SMILES>  (6) 
CC[NH2+]CCNc1c2ccccc2[n+](C)c2ccc(N)cc12

>  <Energy>  (6) 
69.41845374046625

>  <Genealogy>  (6) 
CC[NH2+]CCNc1c2ccccc2[n+](C)c2ccc(N)cc12 (protonated)
CC[NH2+]CCNc1c2ccccc2[n+](C)c2ccc(N)cc12 (3D coordinates assigned)
CC[NH2+]CCNc1c2ccccc2[n+](C)c2ccc(N)cc12 (optimized conformer: 69.41845374046625 kcal/mol)

>  <smiles>  (6) 
CCNCCNc1c2ccccc2[n+](C)c2ccc(N)cc12

>  <score_type>  (6) 
oracle

>  <origin>  (6) 
adg

>  <m_score__min__energy>  (6) 
-4.0199999999999996

>  <m_primary>  (6) 
energy

$$$$
6:0
     RDKit          3D

 34 35  0  0  0  0  0  0  0  0999 V2000
   56.4882   25.2703   46.4789 H   0  0  0  0  0  0  0  0  0  0  0  0
   55.9840   26.1880   46.1420 C   0  0  0  0  0  0  0  0  0  0  0  0
   54.8856   26.2462   46.1488 H   0  0  0  0  0  0  0  0  0  0  0  0
   56.7050   27.2310   45.7250 C   0  0  0  0  0  0  0  0  0  0  0  0
   58.0910   27.3000   45.6410 C   0  0  0  0  0  0  0  0  0  0  0  0
   59.0670   26.1890   45.9460 C   0  0  0  0  0  0  0  0  0  0  0  0
   58.5133   25.2442   46.0494 H   0  0  0  0  0  0  0  0  0  0  0  0
   59.7916   26.1276   45.1207 H   0  0  0  0  0  0  0  0  0  0  0  0
   59.8350   26.4620   47.2440 C   0  0  0  0  0  0  0  0  0  0  0  0
   59.9888   25.5124   47.7775 H   0  0  0  0  0  0  0  0  0  0  0  0
   60.8013   26.9218   46.9895 H   0  0  0  0  0  0  0  0  0  0  0  0
   59.1180   27.3520   48.0800 O   0  0  0  0  0  0  0  0  0  0  0  0
   59.9220   28.4600   48.4230 C   0  0  0  0  0  0  0  0  0  0  0  0
   59.9829   28.5439   49.5181 H   0  0  0  0  0  0  0  0  0  0  0  0
   60.9318   28.3224   48.0091 H   0  0  0  0  0  0  0  0  0  0  0  0
   59.4780   29.3774   48.0091 H   0  0  0  0  0  0  0  0  0  0  0  0
   58.3880   28.5600   45.1220 C   0  0  0  0  0  0  0  0  0  0  0  0
   59.7740   29.1160   44.9270 C   0  0  0  0  0  0  0  0  0  0  0  0
   60.2361   29.3014   45.9079 H   0  0  0  0  0  0  0  0  0  0  0  0
   60.3835   28.3928   44.3653 H   0  0  0  0  0  0  0  0  0  0  0  0
   59.7147   30.0599   44.3653 H   0  0  0  0  0  0  0  0  0  0  0  0
   57.1550   29.1910   44.8960 C   0  0  0  0  0  0  0  0  0  0  0  0
   56.9040   30.4040   44.3670 C   0  0  0  0  0  0  0  0  0  0  0  0
   56.0959   30.4700   43.6236 H   0  0  0  0  0  0  0  0  0  0  0  0
   57.6150   31.6460   44.6960 C   0  0  0  0  0  0  0  0  0  0  0  0
   58.1400   32.0620   46.2390 S   0  0  0  0  0  0  0  0  0  0  0  0
   58.6430   33.6130   45.8330 C   0  0  0  0  0  0  0  0  0  0  0  0
   59.4150   34.8670   47.0430 Br  0  0  0  0  0  0  0  0  0  0  0  0
   58.3740   33.8400   44.4910 C   0  0  0  0  0  0  0  0  0  0  0  0
   58.6046   34.7854   43.9781 H   0  0  0  0  0  0  0  0  0  0  0  0
   57.7790   32.7430   43.8560 C   0  0  0  0  0  0  0  0  0  0  0  0
   57.4722   32.7480   42.7997 H   0  0  0  0  0  0  0  0  0  0  0  0
   56.1540   28.3830   45.3000 N   0  0  0  0  0  0  0  0  0  0  0  0
   55.1300   28.5920   45.2490 H   0  0  0  0  0  0  0  0  0  0  0  0
  1  2  1  0
  2  3  1  0
  2  4  2  0
  4  5  1  0
  5  6  1  0
  6  7  1  0
  6  8  1  0
  6  9  1  0
  9 10  1  0
  9 11  1  0
  9 12  1  0
 12 13  1  0
 13 14  1  0
 13 15  1  0
 13 16  1  0
  5 17  2  0
 17 18  1  0
 18 19  1  0
 18 20  1  0
 18 21  1  0
 17 22  1  0
 22 23  2  0
 23 24  1  0
 23 25  1  0
 25 26  1  0
 26 27  1  0
 27 28  1  0
 27 29  2  0
 29 30  1  0
 29 31  1  0
 31 32  1  0
 22 33  1  0
 33 34  1  0
 33  4  1  0
 31 25  2  0
M  END
>  <UniqueID>  (7) 
7

>  <SMILES>  (7) 
C=c1[nH]/c(=C/c2ccc(Br)s2)c(C)c1CCOC

>  <Energy>  (7) 
95.46152240585228

>  <Genealogy>  (7) 
C=c1[nH]/c(=C/c2ccc(Br)s2)c(C)c1CCOC (cis-trans isomerization)
C=c1[nH]/c(=C/c2ccc(Br)s2)c(C)c1CCOC (3D coordinates assigned)
C=c1[nH]/c(=C/c2ccc(Br)s2)c(C)c1CCOC (optimized conformer: 95.46152240585228 kcal/mol)

>  <smiles>  (7) 
C=c1[nH]c(=Cc2ccc(Br)s2)c(C)c1CCOC

>  <score_type>  (7) 
oracle

>  <origin>  (7) 
adg

>  <m_score__min__energy>  (7) 
-7.3300000000000001

>  <m_primary>  (7) 
energy

$$$$
7:0
     RDKit          3D

 53 54  0  0  0  0  0  0  0  0999 V2000
   57.3770   33.8600   46.0120 C   0  0  0  0  0  0  0  0  0  0  0  0
   58.4270   34.6040   45.1880 C   0  0  0  0  0  0  0  0  0  0  0  0
   59.8690   34.3160   45.6400 C   0  0  0  0  0  0  0  0  0  0  0  0
   60.0760   34.4310   47.1580 C   0  0  0  0  0  0  0  0  0  0  0  0
   61.1920   33.5800   47.6220 N   0  0  0  0  0  0  0  0  0  0  0  0
   62.3970   33.4650   46.7670 C   0  0  0  0  0  0  0  0  0  0  0  0
   63.7230   33.6520   47.5130 C   0  0  0  0  0  0  0  0  0  0  0  0
   61.4130   33.5140   49.0840 C   0  0  0  0  0  0  0  0  0  0  0  0
   61.0100   32.1780   49.7400 C   0  0  0  0  0  0  0  0  0  0  0  0
   60.7440   31.1220   48.7480 N   0  0  0  0  0  0  0  0  0  0  0  0
   59.3600   30.6240   48.8360 C   0  0  0  0  0  0  0  0  0  0  0  0
   58.8960   30.0080   47.5380 C   0  0  0  0  0  0  0  0  0  0  0  0
   58.7160   30.8090   46.4040 C   0  0  0  0  0  0  0  0  0  0  0  0
   58.2990   30.2420   45.1980 C   0  0  0  0  0  0  0  0  0  0  0  0
   58.0620   31.2850   43.8030 Cl  0  0  0  0  0  0  0  0  0  0  0  0
   58.0750   28.8590   45.0980 C   0  0  0  0  0  0  0  0  0  0  0  0
   58.2610   28.0430   46.2400 C   0  0  0  0  0  0  0  0  0  0  0  0
   58.6580   28.6290   47.4480 C   0  0  0  0  0  0  0  0  0  0  0  0
   58.0000   26.6690   46.2490 O   0  0  0  0  0  0  0  0  0  0  0  0
   58.4550   25.7560   45.2590 C   0  0  0  0  0  0  0  0  0  0  0  0
   57.6940   25.9270   43.9520 C   0  0  0  0  0  0  0  0  0  0  0  0
   58.1210   27.1980   43.2330 C   0  0  0  0  0  0  0  0  0  0  0  0
   57.6080   28.3570   43.8770 O   0  0  0  0  0  0  0  0  0  0  0  0
   57.5814   34.0048   47.0831 H   0  0  0  0  0  0  0  0  0  0  0  0
   56.3776   34.2526   45.7730 H   0  0  0  0  0  0  0  0  0  0  0  0
   57.4162   32.7870   45.7730 H   0  0  0  0  0  0  0  0  0  0  0  0
   58.3238   34.3017   44.1354 H   0  0  0  0  0  0  0  0  0  0  0  0
   58.2496   35.6805   45.3285 H   0  0  0  0  0  0  0  0  0  0  0  0
   60.1323   33.2939   45.3302 H   0  0  0  0  0  0  0  0  0  0  0  0
   60.5106   35.0759   45.1700 H   0  0  0  0  0  0  0  0  0  0  0  0
   60.2977   35.4787   47.4095 H   0  0  0  0  0  0  0  0  0  0  0  0
   59.1557   34.0930   47.6569 H   0  0  0  0  0  0  0  0  0  0  0  0
   62.3987   32.4655   46.3076 H   0  0  0  0  0  0  0  0  0  0  0  0
   62.3357   34.2769   46.0273 H   0  0  0  0  0  0  0  0  0  0  0  0
   63.5404   33.6262   48.5974 H   0  0  0  0  0  0  0  0  0  0  0  0
   64.4155   32.8426   47.2384 H   0  0  0  0  0  0  0  0  0  0  0  0
   64.1646   34.6213   47.2384 H   0  0  0  0  0  0  0  0  0  0  0  0
   62.4833   33.6802   49.2760 H   0  0  0  0  0  0  0  0  0  0  0  0
   60.7669   34.2847   49.5296 H   0  0  0  0  0  0  0  0  0  0  0  0
   61.8272   31.8469   50.3977 H   0  0  0  0  0  0  0  0  0  0  0  0
   60.0816   32.3487   50.3047 H   0  0  0  0  0  0  0  0  0  0  0  0
   60.8670   31.5150   47.7910 H   0  0  0  0  0  0  0  0  0  0  0  0
   61.4160   30.3300   48.8710 H   0  0  0  0  0  0  0  0  0  0  0  0
   59.3061   29.8636   49.6290 H   0  0  0  0  0  0  0  0  0  0  0  0
   58.7051   31.4792   49.0590 H   0  0  0  0  0  0  0  0  0  0  0  0
   58.9041   31.8912   46.4634 H   0  0  0  0  0  0  0  0  0  0  0  0
   58.7851   27.9981   48.3401 H   0  0  0  0  0  0  0  0  0  0  0  0
   59.5252   25.9317   45.0753 H   0  0  0  0  0  0  0  0  0  0  0  0
   58.2841   24.7336   45.6271 H   0  0  0  0  0  0  0  0  0  0  0  0
   57.8953   25.0620   43.3030 H   0  0  0  0  0  0  0  0  0  0  0  0
   56.6200   25.9976   44.1792 H   0  0  0  0  0  0  0  0  0  0  0  0
   59.2197   27.2512   43.2228 H   0  0  0  0  0  0  0  0  0  0  0  0
   57.7215   27.1664   42.2086 H   0  0  0  0  0  0  0  0  0  0  0  0
  1  2  1  0
  2  3  1  0
  3  4  1  0
  4  5  1  0
  5  6  1  0
  6  7  1  0
  5  8  1  0
  8  9  1  0
  9 10  1  0
 10 11  1  0
 11 12  1  0
 12 13  2  0
 13 14  1  0
 14 15  1  0
 14 16  2  0
 16 17  1  0
 17 18  2  0
 17 19  1  0
 19 20  1  0
 20 21  1  0
 21 22  1  0
 22 23  1  0
 18 12  1  0
 23 16  1  0
  1 24  1  0
  1 25  1  0
  1 26  1  0
  2 27  1  0
  2 28  1  0
  3 29  1  0
  3 30  1  0
  4 31  1  0
  4 32  1  0
  6 33  1  0
  6 34  1  0
  7 35  1  0
  7 36  1  0
  7 37  1  0
  8 38  1  0
  8 39  1  0
  9 40  1  0
  9 41  1  0
 10 42  1  0
 10 43  1  0
 11 44  1  0
 11 45  1  0
 13 46  1  0
 18 47  1  0
 20 48  1  0
 20 49  1  0
 21 50  1  0
 21 51  1  0
 22 52  1  0
 22 53  1  0
M  CHG  1  10   1
M  END
>  <UniqueID>  (8) 
8

>  <SMILES>  (8) 
CCCCN(CC)CC[NH2+]Cc1cc(Cl)c2c(c1)OCCCO2

>  <Energy>  (8) 
63.86093147457123

>  <Genealogy>  (8) 
CCCCN(CC)CC[NH2+]Cc1cc(Cl)c2c(c1)OCCCO2 (protonated)
CCCCN(CC)CC[NH2+]Cc1cc(Cl)c2c(c1)OCCCO2 (3D coordinates assigned)
CCCCN(CC)CC[NH2+]Cc1cc(Cl)c2c(c1)OCCCO2 (nonaromatic ring conformer: 63.86093147457123 kcal/mol)

>  <smiles>  (8) 
CCCCN(CC)CCNCc1cc(Cl)c2c(c1)OCCCO2

>  <score_type>  (8) 
oracle

>  <origin>  (8) 
adg

>  <m_score__min__energy>  (8) 
-3.1000000000000001

>  <m_primary>  (8) 
energy

$$$$
8:0
     RDKit          3D

 31 33  0  0  0  0  0  0  0  0999 V2000
   58.6320   28.6050   46.6170 C   0  0  0  0  0  0  0  0  0  0  0  0
   58.9340   30.0370   46.4980 N   0  0  0  0  0  0  0  0  0  0  0  0
   60.0460   30.5240   47.0630 N   0  0  0  0  0  0  0  0  0  0  0  0
   60.3970   31.8380   46.9730 C   0  0  0  0  0  0  0  0  0  0  0  0
   61.6670   32.2750   47.5980 C   0  0  0  0  0  0  0  0  0  0  0  0
   62.0020   31.8350   48.8880 C   0  0  0  0  0  0  0  0  0  0  0  0
   63.2120   32.2200   49.4700 C   0  0  0  0  0  0  0  0  0  0  0  0
   64.1010   33.0370   48.7650 C   0  0  0  0  0  0  0  0  0  0  0  0
   65.2760   33.4090   49.3310 F   0  0  0  0  0  0  0  0  0  0  0  0
   63.7820   33.4650   47.4740 C   0  0  0  0  0  0  0  0  0  0  0  0
   62.5720   33.0810   46.8870 C   0  0  0  0  0  0  0  0  0  0  0  0
   59.5490   32.7320   46.2850 C   0  0  0  0  0  0  0  0  0  0  0  0
   59.8110   34.1180   46.2100 C   0  0  0  0  0  0  0  0  0  0  0  0
   58.9510   34.9660   45.5110 C   0  0  0  0  0  0  0  0  0  0  0  0
   57.8150   34.4540   44.8860 C   0  0  0  0  0  0  0  0  0  0  0  0
   57.5270   33.0900   44.9660 C   0  0  0  0  0  0  0  0  0  0  0  0
   58.3830   32.2200   45.6710 C   0  0  0  0  0  0  0  0  0  0  0  0
   58.0950   30.8510   45.7870 C   0  0  0  0  0  0  0  0  0  0  0  0
   57.0610   30.3720   45.2400 O   0  0  0  0  0  0  0  0  0  0  0  0
   58.5739   28.3296   47.6804 H   0  0  0  0  0  0  0  0  0  0  0  0
   57.6691   28.3916   46.1299 H   0  0  0  0  0  0  0  0  0  0  0  0
   59.4267   28.0209   46.1299 H   0  0  0  0  0  0  0  0  0  0  0  0
   60.6880   29.8760   47.5780 H   0  0  0  0  0  0  0  0  0  0  0  0
   61.3094   31.1848   49.4425 H   0  0  0  0  0  0  0  0  0  0  0  0
   63.4659   31.8798   50.4848 H   0  0  0  0  0  0  0  0  0  0  0  0
   64.4834   34.1048   46.9184 H   0  0  0  0  0  0  0  0  0  0  0  0
   62.3283   33.4108   45.8663 H   0  0  0  0  0  0  0  0  0  0  0  0
   60.7006   34.5324   46.7069 H   0  0  0  0  0  0  0  0  0  0  0  0
   59.1703   36.0424   45.4530 H   0  0  0  0  0  0  0  0  0  0  0  0
   57.1447   35.1253   44.3292 H   0  0  0  0  0  0  0  0  0  0  0  0
   56.6264   32.6919   44.4757 H   0  0  0  0  0  0  0  0  0  0  0  0
  1  2  1  0
  2  3  1  0
  3  4  2  0
  4  5  1  0
  5  6  2  0
  6  7  1  0
  7  8  2  0
  8  9  1  0
  8 10  1  0
 10 11  2  0
  4 12  1  0
 12 13  2  0
 13 14  1  0
 14 15  2  0
 15 16  1  0
 16 17  2  0
 17 18  1  0
 18 19  2  0
 18  2  1  0
 11  5  1  0
 17 12  1  0
  1 20  1  0
  1 21  1  0
  1 22  1  0
  3 23  1  0
  6 24  1  0
  7 25  1  0
 10 26  1  0
 11 27  1  0
 13 28  1  0
 14 29  1  0
 15 30  1  0
 16 31  1  0
M  CHG  1   3   1
M  END
>  <UniqueID>  (9) 
9

>  <SMILES>  (9) 
Cn1[nH+]c(-c2ccc(F)cc2)c2ccccc2c1=O

>  <Energy>  (9) 
48.451872912516876

>  <Genealogy>  (9) 
Cn1[nH+]c(-c2ccc(F)cc2)c2ccccc2c1=O (protonated)
Cn1[nH+]c(-c2ccc(F)cc2)c2ccccc2c1=O (3D coordinates assigned)
Cn1[nH+]c(-c2ccc(F)cc2)c2ccccc2c1=O (optimized conformer: 48.451872912516876 kcal/mol)

>  <smiles>  (9) 
Cn1nc(-c2ccc(F)cc2)c2ccccc2c1=O

>  <score_type>  (9) 
oracle

>  <origin>  (9) 
adg

>  <m_score__min__energy>  (9) 
-5.7699999999999996

>  <m_primary>  (9) 
energy

$$$$
9:0
     RDKit          3D

 47 50  0  0  0  0  0  0  0  0999 V2000
   54.0880   26.3270   46.3800 H   0  0  0  0  0  0  0  0  0  0  0  0
   54.1920   25.7110   45.6090 O   0  0  0  0  0  0  0  0  0  0  0  0
   55.2400   24.8390   45.9330 C   0  0  0  0  0  0  0  0  0  0  0  0
   55.2717   24.0195   45.1999 H   0  0  0  0  0  0  0  0  0  0  0  0
   55.0721   24.4319   46.9410 H   0  0  0  0  0  0  0  0  0  0  0  0
   56.5540   25.5800   45.9110 C   0  0  0  0  0  0  0  0  0  0  0  0
   56.5720   26.9480   45.5950 C   0  0  0  0  0  0  0  0  0  0  0  0
   55.6261   27.4706   45.3895 H   0  0  0  0  0  0  0  0  0  0  0  0
   57.7840   27.6580   45.5380 C   0  0  0  0  0  0  0  0  0  0  0  0
   57.7950   29.1070   45.2110 C   0  0  0  0  0  0  0  0  0  0  0  0
   57.3550   29.5690   43.9440 C   0  0  0  0  0  0  0  0  0  0  0  0
   57.0017   28.8455   43.1945 H   0  0  0  0  0  0  0  0  0  0  0  0
   57.3650   30.9390   43.6350 C   0  0  0  0  0  0  0  0  0  0  0  0
   57.0245   31.3049   42.6551 H   0  0  0  0  0  0  0  0  0  0  0  0
   57.8210   31.8160   44.6130 C   0  0  0  0  0  0  0  0  0  0  0  0
   57.9090   33.1580   44.5140 N   0  0  0  0  0  0  0  0  0  0  0  0
   58.4060   33.4770   45.7410 C   0  0  0  0  0  0  0  0  0  0  0  0
   58.6630   34.6910   46.1270 N   0  0  0  0  0  0  0  0  0  0  0  0
   59.9910   35.1720   46.5020 C   0  0  0  0  0  0  0  0  0  0  0  0
   60.6924   34.9755   45.6777 H   0  0  0  0  0  0  0  0  0  0  0  0
   59.9324   36.2518   46.7037 H   0  0  0  0  0  0  0  0  0  0  0  0
   60.4800   34.4710   47.7470 C   0  0  0  0  0  0  0  0  0  0  0  0
   59.6560   34.4220   48.8860 C   0  0  0  0  0  0  0  0  0  0  0  0
   58.6697   34.9086   48.8677 H   0  0  0  0  0  0  0  0  0  0  0  0
   60.0810   33.7600   50.0400 C   0  0  0  0  0  0  0  0  0  0  0  0
   59.4306   33.7294   50.9266 H   0  0  0  0  0  0  0  0  0  0  0  0
   61.3300   33.1370   50.0700 C   0  0  0  0  0  0  0  0  0  0  0  0
   61.6629   32.6161   50.9798 H   0  0  0  0  0  0  0  0  0  0  0  0
   62.1570   33.1750   48.9450 C   0  0  0  0  0  0  0  0  0  0  0  0
   63.1408   32.6836   48.9727 H   0  0  0  0  0  0  0  0  0  0  0  0
   61.7410   33.8350   47.7820 C   0  0  0  0  0  0  0  0  0  0  0  0
   62.8220   33.8440   46.3920 Cl  0  0  0  0  0  0  0  0  0  0  0  0
   58.6060   32.4000   46.5280 N   0  0  0  0  0  0  0  0  0  0  0  0
   58.9750   32.3700   47.5040 H   0  0  0  0  0  0  0  0  0  0  0  0
   58.2330   31.3650   45.8040 N   0  0  0  0  0  0  0  0  0  0  0  0
   58.2440   30.0550   46.1560 C   0  0  0  0  0  0  0  0  0  0  0  0
   58.5932   29.7400   47.1504 H   0  0  0  0  0  0  0  0  0  0  0  0
   58.9850   26.9750   45.7910 C   0  0  0  0  0  0  0  0  0  0  0  0
   59.9404   27.5188   45.7524 H   0  0  0  0  0  0  0  0  0  0  0  0
   58.9760   25.6120   46.0910 C   0  0  0  0  0  0  0  0  0  0  0  0
   59.9246   25.0898   46.2845 H   0  0  0  0  0  0  0  0  0  0  0  0
   57.7630   24.9000   46.1480 C   0  0  0  0  0  0  0  0  0  0  0  0
   57.7260   23.5240   46.4320 O   0  0  0  0  0  0  0  0  0  0  0  0
   57.9550   22.4940   45.4770 C   0  0  0  0  0  0  0  0  0  0  0  0
   58.1650   21.5493   45.9999 H   0  0  0  0  0  0  0  0  0  0  0  0
   57.0617   22.3734   44.8465 H   0  0  0  0  0  0  0  0  0  0  0  0
   58.8152   22.7632   44.8465 H   0  0  0  0  0  0  0  0  0  0  0  0
  1  2  1  0
  2  3  1  0
  3  4  1  0
  3  5  1  0
  3  6  1  0
  6  7  2  0
  7  8  1  0
  7  9  1  0
  9 10  1  0
 10 11  1  0
 11 12  1  0
 11 13  2  0
 13 14  1  0
 13 15  1  0
 15 16  2  0
 16 17  1  0
 17 18  2  0
 18 19  1  0
 19 20  1  0
 19 21  1  0
 19 22  1  0
 22 23  2  0
 23 24  1  0
 23 25  1  0
 25 26  1  0
 25 27  2  0
 27 28  1  0
 27 29  1  0
 29 30  1  0
 29 31  2  0
 31 32  1  0
 17 33  1  0
 33 34  1  0
 33 35  1  0
 35 36  1  0
 36 37  1  0
  9 38  2  0
 38 39  1  0
 38 40  1  0
 40 41  1  0
 40 42  2  0
 42 43  1  0
 43 44  1  0
 44 45  1  0
 44 46  1  0
 44 47  1  0
 42  6  1  0
 36 10  2  0
 35 15  1  0
 31 22  1  0
M  END
>  <UniqueID>  (10) 
10

>  <SMILES>  (10) 
COc1ccc(-c2ccc3n/c(=N\Cc4ccccc4Cl)[nH]n3c2)cc1CO

>  <Energy>  (10) 
96.03249321398273

>  <Genealogy>  (10) 
COc1ccc(-c2ccc3n/c(=N\Cc4ccccc4Cl)[nH]n3c2)cc1CO (cis-trans isomerization)
COc1ccc(-c2ccc3n/c(=N\Cc4ccccc4Cl)[nH]n3c2)cc1CO (3D coordinates assigned)
COc1ccc(-c2ccc3n/c(=N\Cc4ccccc4Cl)[nH]n3c2)cc1CO (optimized conformer: 96.03249321398273 kcal/mol)

>  <smiles>  (10) 
COc1ccc(-c2ccc3nc(=NCc4ccccc4Cl)[nH]n3c2)cc1CO

>  <score_type>  (10) 
oracle

>  <origin>  (10) 
adg

>  <m_score__min__energy>  (10) 
-8.9399999999999995

>  <m_primary>  (10) 
energy

$$$$
10:0
     RDKit          3D

 31 30  0  0  0  0  0  0  0  0999 V2000
   58.9290   28.3200   47.8540 C   0  0  0  0  0  0  0  0  0  0  0  0
   58.1650   27.8270   46.6180 C   0  0  0  0  0  0  0  0  0  0  0  0
   58.3320   28.6440   45.3830 N   0  0  0  0  0  0  0  0  0  0  0  0
   58.5190   27.8780   44.1190 C   0  0  0  0  0  0  0  0  0  0  0  0
   57.8490   26.4990   44.0670 C   0  0  0  0  0  0  0  0  0  0  0  0
   59.1440   29.8860   45.5300 C   0  0  0  0  0  0  0  0  0  0  0  0
   58.4060   31.2250   45.3030 C   0  0  0  0  0  0  0  0  0  0  0  0
   57.0060   31.0410   45.2010 O   0  0  0  0  0  0  0  0  0  0  0  0
   56.5920   30.8650   43.8580 C   0  0  0  0  0  0  0  0  0  0  0  0
   55.5690   29.7370   43.7670 C   0  0  0  0  0  0  0  0  0  0  0  0
   55.2320   29.2910   45.0500 O   0  0  0  0  0  0  0  0  0  0  0  0
   58.4096   27.9849   48.7639 H   0  0  0  0  0  0  0  0  0  0  0  0
   59.9495   27.9096   47.8421 H   0  0  0  0  0  0  0  0  0  0  0  0
   58.9756   29.4189   47.8421 H   0  0  0  0  0  0  0  0  0  0  0  0
   58.5067   26.8054   46.3954 H   0  0  0  0  0  0  0  0  0  0  0  0
   57.0987   27.8956   46.8793 H   0  0  0  0  0  0  0  0  0  0  0  0
   57.3650   29.0350   45.2550 H   0  0  0  0  0  0  0  0  0  0  0  0
   58.1114   28.4822   43.2951 H   0  0  0  0  0  0  0  0  0  0  0  0
   59.5997   27.6874   44.0431 H   0  0  0  0  0  0  0  0  0  0  0  0
   57.6735   26.1378   45.0911 H   0  0  0  0  0  0  0  0  0  0  0  0
   56.8887   26.5777   43.5363 H   0  0  0  0  0  0  0  0  0  0  0  0
   58.5044   25.7927   43.5363 H   0  0  0  0  0  0  0  0  0  0  0  0
   59.5526   29.8989   46.5512 H   0  0  0  0  0  0  0  0  0  0  0  0
   59.9018   29.8335   44.7344 H   0  0  0  0  0  0  0  0  0  0  0  0
   58.6166   31.8959   46.1489 H   0  0  0  0  0  0  0  0  0  0  0  0
   58.7645   31.6579   44.3575 H   0  0  0  0  0  0  0  0  0  0  0  0
   56.1381   31.7978   43.4922 H   0  0  0  0  0  0  0  0  0  0  0  0
   57.4668   30.6074   43.2430 H   0  0  0  0  0  0  0  0  0  0  0  0
   54.6648   30.1054   43.2603 H   0  0  0  0  0  0  0  0  0  0  0  0
   56.0024   28.9020   43.1970 H   0  0  0  0  0  0  0  0  0  0  0  0
   55.1650   30.1040   45.6150 H   0  0  0  0  0  0  0  0  0  0  0  0
  1  2  1  0
  2  3  1  0
  3  4  1  0
  4  5  1  0
  3  6  1  0
  6  7  1  0
  7  8  1  0
  8  9  1  0
  9 10  1  0
 10 11  1  0
  1 12  1  0
  1 13  1  0
  1 14  1  0
  2 15  1  0
  2 16  1  0
  3 17  1  0
  4 18  1  0
  4 19  1  0
  5 20  1  0
  5 21  1  0
  5 22  1  0
  6 23  1  0
  6 24  1  0
  7 25  1  0
  7 26  1  0
  9 27  1  0
  9 28  1  0
 10 29  1  0
 10 30  1  0
 11 31  1  0
M  CHG  1   3   1
M  END
>  <UniqueID>  (11) 
11

>  <SMILES>  (11) 
CC[NH+](CC)CCOCCO

>  <Energy>  (11) 
42.14736650470724

>  <Genealogy>  (11) 
CC[NH+](CC)CCOCCO (protonated)
CC[NH+](CC)CCOCCO (3D coordinates assigned)
CC[NH+](CC)CCOCCO (optimized conformer: 42.14736650470724 kcal/mol)

>  <smiles>  (11) 
CCN(CC)CCOCCO

>  <score_type>  (11) 
oracle

>  <origin>  (11) 
adg

>  <m_score__min__energy>  (11) 
-2.8500000000000001

>  <m_primary>  (11) 
energy

$$$$
11:0
     RDKit          3D

 67 70  0  0  0  0  0  0  0  0999 V2000
   67.1990   33.0080   50.2870 C   0  0  0  0  0  0  0  0  0  0  0  0
   65.7920   32.7140   49.7540 C   0  0  0  0  0  0  0  0  0  0  0  0
   64.7820   32.6100   50.8420 N   0  0  0  0  0  0  0  0  0  0  0  0
   64.9180   33.7440   51.7990 C   0  0  0  0  0  0  0  0  0  0  0  0
   65.3560   33.3390   53.2140 C   0  0  0  0  0  0  0  0  0  0  0  0
   64.8500   31.2720   51.4930 C   0  0  0  0  0  0  0  0  0  0  0  0
   63.7040   30.3250   51.0950 C   0  0  0  0  0  0  0  0  0  0  0  0
   62.5200   31.0590   50.8330 O   0  0  0  0  0  0  0  0  0  0  0  0
   61.7330   30.4520   49.8270 C   0  0  0  0  0  0  0  0  0  0  0  0
   62.1950   30.8640   48.4260 C   0  0  0  0  0  0  0  0  0  0  0  0
   63.2520   31.8050   48.5320 O   0  0  0  0  0  0  0  0  0  0  0  0
   63.7080   32.2480   47.2660 C   0  0  0  0  0  0  0  0  0  0  0  0
   63.3870   33.7300   47.0460 C   0  0  0  0  0  0  0  0  0  0  0  0
   62.8020   34.3130   48.2540 N   0  0  0  0  0  0  0  0  0  0  0  0
   61.4840   33.9450   48.6840 C   0  0  0  0  0  0  0  0  0  0  0  0
   60.3910   33.8490   47.7920 C   0  0  0  0  0  0  0  0  0  0  0  0
   60.5270   34.2300   46.4440 C   0  0  0  0  0  0  0  0  0  0  0  0
   59.4340   34.1890   45.5820 C   0  0  0  0  0  0  0  0  0  0  0  0
   58.1890   33.7730   46.0470 C   0  0  0  0  0  0  0  0  0  0  0  0
   58.0240   33.3890   47.3770 C   0  0  0  0  0  0  0  0  0  0  0  0
   59.1140   33.4000   48.2800 C   0  0  0  0  0  0  0  0  0  0  0  0
   58.9660   33.0240   49.6100 N   0  0  0  0  0  0  0  0  0  0  0  0
   57.7680   32.3200   50.0940 C   0  0  0  0  0  0  0  0  0  0  0  0
   60.0060   33.2820   50.4660 C   0  0  0  0  0  0  0  0  0  0  0  0
   61.2400   33.6990   50.0240 C   0  0  0  0  0  0  0  0  0  0  0  0
   62.0970   33.8040   51.0160 O   0  0  0  0  0  0  0  0  0  0  0  0
   61.4480   33.4890   52.1150 C   0  0  0  0  0  0  0  0  0  0  0  0
   61.9560   33.4850   53.4100 C   0  0  0  0  0  0  0  0  0  0  0  0
   61.0820   33.1660   54.4620 C   0  0  0  0  0  0  0  0  0  0  0  0
   59.7270   32.8760   54.2010 C   0  0  0  0  0  0  0  0  0  0  0  0
   59.2330   32.8830   52.8840 C   0  0  0  0  0  0  0  0  0  0  0  0
   60.1310   33.1630   51.8470 C   0  0  0  0  0  0  0  0  0  0  0  0
   67.1826   33.0046   51.3869 H   0  0  0  0  0  0  0  0  0  0  0  0
   67.8957   32.2360   49.9283 H   0  0  0  0  0  0  0  0  0  0  0  0
   67.5283   33.9944   49.9283 H   0  0  0  0  0  0  0  0  0  0  0  0
   65.4955   33.5258   49.0735 H   0  0  0  0  0  0  0  0  0  0  0  0
   65.8263   31.7446   49.2352 H   0  0  0  0  0  0  0  0  0  0  0  0
   63.8340   32.7080   50.4070 H   0  0  0  0  0  0  0  0  0  0  0  0
   65.6643   34.4447   51.3965 H   0  0  0  0  0  0  0  0  0  0  0  0
   63.9169   34.1889   51.8985 H   0  0  0  0  0  0  0  0  0  0  0  0
   64.7589   33.8911   53.9548 H   0  0  0  0  0  0  0  0  0  0  0  0
   65.2017   32.2585   53.3504 H   0  0  0  0  0  0  0  0  0  0  0  0
   66.4212   33.5773   53.3504 H   0  0  0  0  0  0  0  0  0  0  0  0
   65.8029   30.7990   51.2134 H   0  0  0  0  0  0  0  0  0  0  0  0
   64.7633   31.4398   52.5767 H   0  0  0  0  0  0  0  0  0  0  0  0
   63.9921   29.7684   50.1910 H   0  0  0  0  0  0  0  0  0  0  0  0
   63.5139   29.6289   51.9253 H   0  0  0  0  0  0  0  0  0  0  0  0
   61.8124   29.3590   49.9223 H   0  0  0  0  0  0  0  0  0  0  0  0
   60.6920   30.7825   49.9576 H   0  0  0  0  0  0  0  0  0  0  0  0
   62.5482   29.9762   47.8809 H   0  0  0  0  0  0  0  0  0  0  0  0
   61.3537   31.3186   47.8823 H   0  0  0  0  0  0  0  0  0  0  0  0
   64.7970   32.1047   47.2071 H   0  0  0  0  0  0  0  0  0  0  0  0
   63.1958   31.6626   46.4882 H   0  0  0  0  0  0  0  0  0  0  0  0
   64.3136   34.2679   46.7967 H   0  0  0  0  0  0  0  0  0  0  0  0
   62.6635   33.8186   46.2222 H   0  0  0  0  0  0  0  0  0  0  0  0
   63.4670   34.6640   48.9790 H   0  0  0  0  0  0  0  0  0  0  0  0
   61.5055   34.5632   46.0679 H   0  0  0  0  0  0  0  0  0  0  0  0
   59.5545   34.4863   44.5298 H   0  0  0  0  0  0  0  0  0  0  0  0
   57.3300   33.7472   45.3603 H   0  0  0  0  0  0  0  0  0  0  0  0
   57.0314   33.0726   47.7301 H   0  0  0  0  0  0  0  0  0  0  0  0
   57.7636   32.3174   51.1940 H   0  0  0  0  0  0  0  0  0  0  0  0
   56.8674   32.8325   49.7249 H   0  0  0  0  0  0  0  0  0  0  0  0
   57.7774   31.2838   49.7249 H   0  0  0  0  0  0  0  0  0  0  0  0
   63.0118   33.7248   53.6044 H   0  0  0  0  0  0  0  0  0  0  0  0
   61.4568   33.1422   55.4959 H   0  0  0  0  0  0  0  0  0  0  0  0
   59.0496   32.6420   55.0355 H   0  0  0  0  0  0  0  0  0  0  0  0
   58.1733   32.6748   52.6752 H   0  0  0  0  0  0  0  0  0  0  0  0
  1  2  1  0
  2  3  1  0
  3  4  1  0
  4  5  1  0
  3  6  1  0
  6  7  1  0
  7  8  1  0
  8  9  1  0
  9 10  1  0
 10 11  1  0
 11 12  1  0
 12 13  1  0
 13 14  1  0
 14 15  1  0
 15 16  2  0
 16 17  1  0
 17 18  2  0
 18 19  1  0
 19 20  2  0
 20 21  1  0
 21 22  2  0
 22 23  1  0
 22 24  1  0
 24 25  2  0
 25 26  1  0
 26 27  1  0
 27 28  2  0
 28 29  1  0
 29 30  2  0
 30 31  1  0
 31 32  2  0
 25 15  1  0
 32 27  1  0
 21 16  1  0
 32 24  1  0
  1 33  1  0
  1 34  1  0
  1 35  1  0
  2 36  1  0
  2 37  1  0
  3 38  1  0
  4 39  1  0
  4 40  1  0
  5 41  1  0
  5 42  1  0
  5 43  1  0
  6 44  1  0
  6 45  1  0
  7 46  1  0
  7 47  1  0
  9 48  1  0
  9 49  1  0
 10 50  1  0
 10 51  1  0
 12 52  1  0
 12 53  1  0
 13 54  1  0
 13 55  1  0
 14 56  1  0
 17 57  1  0
 18 58  1  0
 19 59  1  0
 20 60  1  0
 23 61  1  0
 23 62  1  0
 23 63  1  0
 28 64  1  0
 29 65  1  0
 30 66  1  0
 31 67  1  0
M  CHG  2   3   1  22   1
M  END
>  <UniqueID>  (12) 
12

>  <SMILES>  (12) 
CC[NH+](CC)CCOCCOCCNc1c2ccccc2[n+](C)c2c1oc1ccccc12

>  <Energy>  (12) 
130.52644265791085

>  <Genealogy>  (12) 
CC[NH+](CC)CCOCCOCCNc1c2ccccc2[n+](C)c2c1oc1ccccc12 (protonated)
CC[NH+](CC)CCOCCOCCNc1c2ccccc2[n+](C)c2c1oc1ccccc12 (3D coordinates assigned)
CC[NH+](CC)CCOCCOCCNc1c2ccccc2[n+](C)c2c1oc1ccccc12 (optimized conformer: 130.52644265791085 kcal/mol)

>  <smiles>  (12) 
CCN(CC)CCOCCOCCNc1c2ccccc2[n+](C)c2c1oc1ccccc12

>  <score_type>  (12) 
oracle

>  <origin>  (12) 
adg

>  <m_score__min__energy>  (12) 
-4.4500000000000002

>  <m_primary>  (12) 
energy

$$$$
12:0
     RDKit          3D

 43 45  0  0  0  0  0  0  0  0999 V2000
   59.6420   35.8490   45.5760 C   0  0  0  0  0  0  0  0  0  0  0  0
   59.0320   34.6140   44.9250 C   0  0  0  0  0  0  0  0  0  0  0  0
   58.3860   33.7620   45.9360 N   0  0  0  0  0  0  0  0  0  0  0  0
   57.0890   33.1360   45.6470 C   0  0  0  0  0  0  0  0  0  0  0  0
   57.3060   31.7500   45.1070 C   0  0  0  0  0  0  0  0  0  0  0  0
   57.0190   31.4440   43.7650 C   0  0  0  0  0  0  0  0  0  0  0  0
   57.1980   30.1390   43.2970 C   0  0  0  0  0  0  0  0  0  0  0  0
   57.6520   29.1430   44.1720 C   0  0  0  0  0  0  0  0  0  0  0  0
   57.8580   27.8240   43.7330 C   0  0  0  0  0  0  0  0  0  0  0  0
   58.3130   26.8530   44.6330 C   0  0  0  0  0  0  0  0  0  0  0  0
   58.5590   27.1910   45.9700 C   0  0  0  0  0  0  0  0  0  0  0  0
   58.3540   28.5030   46.4160 C   0  0  0  0  0  0  0  0  0  0  0  0
   57.9080   29.4830   45.5220 C   0  0  0  0  0  0  0  0  0  0  0  0
   57.7260   30.7650   45.9480 N   0  0  0  0  0  0  0  0  0  0  0  0
   59.0150   33.5150   47.2090 C   0  0  0  0  0  0  0  0  0  0  0  0
   58.9540   34.3960   48.1090 O   0  0  0  0  0  0  0  0  0  0  0  0
   59.7730   32.2410   47.4720 C   0  0  0  0  0  0  0  0  0  0  0  0
   61.2620   32.4680   47.3750 C   0  0  0  0  0  0  0  0  0  0  0  0
   62.1570   31.6050   48.0310 C   0  0  0  0  0  0  0  0  0  0  0  0
   63.5340   31.8470   47.9490 C   0  0  0  0  0  0  0  0  0  0  0  0
   64.0010   32.9180   47.2470 N   0  0  0  0  0  0  0  0  0  0  0  0
   63.1500   33.7810   46.6180 C   0  0  0  0  0  0  0  0  0  0  0  0
   61.7670   33.5750   46.6740 C   0  0  0  0  0  0  0  0  0  0  0  0
   59.5926   35.7489   46.6703 H   0  0  0  0  0  0  0  0  0  0  0  0
   60.6922   35.9471   45.2639 H   0  0  0  0  0  0  0  0  0  0  0  0
   59.0817   36.7426   45.2639 H   0  0  0  0  0  0  0  0  0  0  0  0
   58.2819   34.9287   44.1846 H   0  0  0  0  0  0  0  0  0  0  0  0
   59.8319   34.0393   44.4352 H   0  0  0  0  0  0  0  0  0  0  0  0
   56.4958   33.0797   46.5716 H   0  0  0  0  0  0  0  0  0  0  0  0
   56.5514   33.7386   44.9001 H   0  0  0  0  0  0  0  0  0  0  0  0
   56.6549   32.2288   43.0857 H   0  0  0  0  0  0  0  0  0  0  0  0
   56.9834   29.8949   42.2461 H   0  0  0  0  0  0  0  0  0  0  0  0
   57.6622   27.5551   42.6845 H   0  0  0  0  0  0  0  0  0  0  0  0
   58.4779   25.8212   44.2892 H   0  0  0  0  0  0  0  0  0  0  0  0
   58.9146   26.4229   46.6726 H   0  0  0  0  0  0  0  0  0  0  0  0
   58.5434   28.7627   47.4680 H   0  0  0  0  0  0  0  0  0  0  0  0
   59.5293   31.8793   48.4818 H   0  0  0  0  0  0  0  0  0  0  0  0
   59.4818   31.4973   46.7157 H   0  0  0  0  0  0  0  0  0  0  0  0
   61.7786   30.7460   48.6045 H   0  0  0  0  0  0  0  0  0  0  0  0
   64.2406   31.1709   48.4525 H   0  0  0  0  0  0  0  0  0  0  0  0
   65.0330   33.0840   47.1960 H   0  0  0  0  0  0  0  0  0  0  0  0
   63.5534   34.6420   46.0648 H   0  0  0  0  0  0  0  0  0  0  0  0
   61.0813   34.2743   46.1732 H   0  0  0  0  0  0  0  0  0  0  0  0
  1  2  1  0
  2  3  1  0
  3  4  1  0
  4  5  1  0
  5  6  2  0
  6  7  1  0
  7  8  2  0
  8  9  1  0
  9 10  2  0
 10 11  1  0
 11 12  2  0
 12 13  1  0
 13 14  2  0
  3 15  1  0
 15 16  2  0
 15 17  1  0
 17 18  1  0
 18 19  2  0
 19 20  1  0
 20 21  2  0
 21 22  1  0
 22 23  2  0
 14  5  1  0
 23 18  1  0
 13  8  1  0
  1 24  1  0
  1 25  1  0
  1 26  1  0
  2 27  1  0
  2 28  1  0
  4 29  1  0
  4 30  1  0
  6 31  1  0
  7 32  1  0
  9 33  1  0
 10 34  1  0
 11 35  1  0
 12 36  1  0
 17 37  1  0
 17 38  1  0
 19 39  1  0
 20 40  1  0
 21 41  1  0
 22 42  1  0
 23 43  1  0
M  CHG  1  21   1
M  END
>  <UniqueID>  (13) 
13

>  <SMILES>  (13) 
CCN(Cc1ccc2ccccc2n1)C(=O)Cc1cc[nH+]cc1

>  <Energy>  (13) 
43.472291610023554

>  <Genealogy>  (13) 
CCN(Cc1ccc2ccccc2n1)C(=O)Cc1cc[nH+]cc1 (protonated)
CCN(Cc1ccc2ccccc2n1)C(=O)Cc1cc[nH+]cc1 (3D coordinates assigned)
CCN(Cc1ccc2ccccc2n1)C(=O)Cc1cc[nH+]cc1 (optimized conformer: 43.472291610023554 kcal/mol)

>  <smiles>  (13) 
CCN(Cc1ccc2ccccc2n1)C(=O)Cc1ccncc1

>  <score_type>  (13) 
oracle

>  <origin>  (13) 
adg

>  <m_score__min__energy>  (13) 
-6.6900000000000004

>  <m_primary>  (13) 
energy

$$$$
13:0
     RDKit          3D

 56 59  0  0  0  0  0  0  0  0999 V2000
   57.0070   34.3510   45.2340 C   0  0  0  0  0  0  0  0  0  0  0  0
   58.4070   33.8270   44.9390 C   0  0  0  0  0  0  0  0  0  0  0  0
   58.5200   32.4220   45.3460 N   0  0  0  0  0  0  0  0  0  0  0  0
   59.3200   31.9110   46.3200 C   0  0  0  0  0  0  0  0  0  0  0  0
   60.1190   32.7210   47.2590 C   0  0  0  0  0  0  0  0  0  0  0  0
   61.5190   32.6350   47.2510 C   0  0  0  0  0  0  0  0  0  0  0  0
   62.2750   33.3810   48.1600 C   0  0  0  0  0  0  0  0  0  0  0  0
   61.6360   34.2120   49.0860 C   0  0  0  0  0  0  0  0  0  0  0  0
   60.2410   34.2980   49.1020 C   0  0  0  0  0  0  0  0  0  0  0  0
   59.4830   33.5540   48.1930 C   0  0  0  0  0  0  0  0  0  0  0  0
   59.2470   30.5170   46.3360 C   0  0  0  0  0  0  0  0  0  0  0  0
   59.8960   29.5940   47.3300 C   0  0  0  0  0  0  0  0  0  0  0  0
   59.0200   29.4440   48.5050 N   0  0  0  0  0  0  0  0  0  0  0  0
   59.7340   28.9640   49.6990 C   0  0  0  0  0  0  0  0  0  0  0  0
   59.3500   29.7570   50.9630 C   0  0  0  0  0  0  0  0  0  0  0  0
   58.0260   30.4070   50.8390 N   0  0  0  0  0  0  0  0  0  0  0  0
   58.1630   31.8570   50.5480 C   0  0  0  0  0  0  0  0  0  0  0  0
   57.9390   32.7180   51.8050 C   0  0  0  0  0  0  0  0  0  0  0  0
   56.6510   32.5490   52.3810 O   0  0  0  0  0  0  0  0  0  0  0  0
   56.1070   31.2490   52.1880 C   0  0  0  0  0  0  0  0  0  0  0  0
   57.1720   30.1530   52.0230 C   0  0  0  0  0  0  0  0  0  0  0  0
   58.3740   30.1810   45.3150 C   0  0  0  0  0  0  0  0  0  0  0  0
   57.9210   28.9390   44.8670 C   0  0  0  0  0  0  0  0  0  0  0  0
   57.0230   28.9150   43.7860 C   0  0  0  0  0  0  0  0  0  0  0  0
   56.6040   30.1160   43.1790 C   0  0  0  0  0  0  0  0  0  0  0  0
   57.0740   31.3550   43.6480 C   0  0  0  0  0  0  0  0  0  0  0  0
   57.9600   31.3550   44.7320 C   0  0  0  0  0  0  0  0  0  0  0  0
   56.8582   34.4067   46.3225 H   0  0  0  0  0  0  0  0  0  0  0  0
   56.8909   35.3535   44.7963 H   0  0  0  0  0  0  0  0  0  0  0  0
   56.2612   33.6711   44.7963 H   0  0  0  0  0  0  0  0  0  0  0  0
   58.6057   33.9096   43.8603 H   0  0  0  0  0  0  0  0  0  0  0  0
   59.1390   34.4234   45.5033 H   0  0  0  0  0  0  0  0  0  0  0  0
   62.0237   31.9784   46.5271 H   0  0  0  0  0  0  0  0  0  0  0  0
   63.3729   33.3144   48.1470 H   0  0  0  0  0  0  0  0  0  0  0  0
   62.2314   34.7979   49.8017 H   0  0  0  0  0  0  0  0  0  0  0  0
   59.7391   34.9517   49.8305 H   0  0  0  0  0  0  0  0  0  0  0  0
   58.3852   33.6215   48.2097 H   0  0  0  0  0  0  0  0  0  0  0  0
   60.0581   28.6102   46.8654 H   0  0  0  0  0  0  0  0  0  0  0  0
   60.8626   30.0146   47.6444 H   0  0  0  0  0  0  0  0  0  0  0  0
   58.6190   30.3840   48.7370 H   0  0  0  0  0  0  0  0  0  0  0  0
   59.4875   27.9037   49.8572 H   0  0  0  0  0  0  0  0  0  0  0  0
   60.8117   29.1024   49.5272 H   0  0  0  0  0  0  0  0  0  0  0  0
   59.3264   29.0672   51.8195 H   0  0  0  0  0  0  0  0  0  0  0  0
   60.1009   30.5483   51.1043 H   0  0  0  0  0  0  0  0  0  0  0  0
   59.1750   32.0482   50.1615 H   0  0  0  0  0  0  0  0  0  0  0  0
   57.3976   32.1300   49.8066 H   0  0  0  0  0  0  0  0  0  0  0  0
   58.6954   32.4438   52.5551 H   0  0  0  0  0  0  0  0  0  0  0  0
   58.0222   33.7708   51.4973 H   0  0  0  0  0  0  0  0  0  0  0  0
   55.4843   31.0000   53.0599 H   0  0  0  0  0  0  0  0  0  0  0  0
   55.5274   31.2780   51.2535 H   0  0  0  0  0  0  0  0  0  0  0  0
   57.8044   30.1294   52.9227 H   0  0  0  0  0  0  0  0  0  0  0  0
   56.6602   29.1896   51.8821 H   0  0  0  0  0  0  0  0  0  0  0  0
   58.2567   28.0072   45.3455 H   0  0  0  0  0  0  0  0  0  0  0  0
   56.6447   27.9525   43.4112 H   0  0  0  0  0  0  0  0  0  0  0  0
   55.9036   30.0835   42.3314 H   0  0  0  0  0  0  0  0  0  0  0  0
   56.7551   32.2966   43.1773 H   0  0  0  0  0  0  0  0  0  0  0  0
  1  2  1  0
  2  3  1  0
  3  4  1  0
  4  5  1  0
  5  6  2  0
  6  7  1  0
  7  8  2  0
  8  9  1  0
  9 10  2  0
  4 11  2  0
 11 12  1  0
 12 13  1  0
 13 14  1  0
 14 15  1  0
 15 16  1  0
 16 17  1  0
 17 18  1  0
 18 19  1  0
 19 20  1  0
 20 21  1  0
 11 22  1  0
 22 23  2  0
 23 24  1  0
 24 25  2  0
 25 26  1  0
 26 27  2  0
 27  3  1  0
 10  5  1  0
 21 16  1  0
 27 22  1  0
  1 28  1  0
  1 29  1  0
  1 30  1  0
  2 31  1  0
  2 32  1  0
  6 33  1  0
  7 34  1  0
  8 35  1  0
  9 36  1  0
 10 37  1  0
 12 38  1  0
 12 39  1  0
 13 40  1  0
 14 41  1  0
 14 42  1  0
 15 43  1  0
 15 44  1  0
 17 45  1  0
 17 46  1  0
 18 47  1  0
 18 48  1  0
 20 49  1  0
 20 50  1  0
 21 51  1  0
 21 52  1  0
 23 53  1  0
 24 54  1  0
 25 55  1  0
 26 56  1  0
M  END
>  <UniqueID>  (14) 
14

>  <SMILES>  (14) 
CCn1c(-c2ccccc2)c(CNCCN2CCOCC2)c2ccccc21

>  <Energy>  (14) 
106.67502820439772

>  <Genealogy>  (14) 
CCn1c(-c2ccccc2)c(CNCCN2CCOCC2)c2ccccc21 (3D coordinates assigned)
CCn1c(-c2ccccc2)c(CNCCN2CCOCC2)c2ccccc21 (nonaromatic ring conformer: 106.67502820439772 kcal/mol)

>  <smiles>  (14) 
CCn1c(-c2ccccc2)c(CNCCN2CCOCC2)c2ccccc21

>  <score_type>  (14) 
oracle

>  <origin>  (14) 
adg

>  <m_score__min__energy>  (14) 
-7.5800000000000001

>  <m_primary>  (14) 
energy

$$$$
14:0
     RDKit          3D

 45 47  0  0  0  0  0  0  0  0999 V2000
   64.9090   32.3550   49.7980 C   0  0  0  0  0  0  0  0  0  0  0  0
   64.2570   33.4010   48.8880 C   0  0  0  0  0  0  0  0  0  0  0  0
   63.9840   32.8720   47.5440 N   0  0  0  0  0  0  0  0  0  0  0  0
   63.2570   33.8240   46.6860 C   0  0  0  0  0  0  0  0  0  0  0  0
   61.7520   33.5810   46.7950 C   0  0  0  0  0  0  0  0  0  0  0  0
   61.4600   32.5130   47.7510 N   0  0  0  0  0  0  0  0  0  0  0  0
   60.2750   32.5600   48.5590 C   0  0  0  0  0  0  0  0  0  0  0  0
   58.9520   32.4820   48.1250 C   0  0  0  0  0  0  0  0  0  0  0  0
   58.4660   32.1540   46.7700 C   0  0  0  0  0  0  0  0  0  0  0  0
   57.9020   33.1520   45.9620 C   0  0  0  0  0  0  0  0  0  0  0  0
   57.4430   32.8460   44.6780 C   0  0  0  0  0  0  0  0  0  0  0  0
   57.5450   31.5360   44.1830 C   0  0  0  0  0  0  0  0  0  0  0  0
   57.0200   31.1990   42.8190 C   0  0  0  0  0  0  0  0  0  0  0  0
   58.0750   30.5290   45.0050 C   0  0  0  0  0  0  0  0  0  0  0  0
   58.5320   30.8370   46.2890 C   0  0  0  0  0  0  0  0  0  0  0  0
   58.1380   32.6780   49.1900 N   0  0  0  0  0  0  0  0  0  0  0  0
   58.9700   32.8560   50.2350 C   0  0  0  0  0  0  0  0  0  0  0  0
   58.5950   33.0970   51.5560 C   0  0  0  0  0  0  0  0  0  0  0  0
   59.6180   33.2760   52.5010 C   0  0  0  0  0  0  0  0  0  0  0  0
   60.9690   33.2140   52.1080 C   0  0  0  0  0  0  0  0  0  0  0  0
   62.3580   33.4680   53.3940 Br  0  0  0  0  0  0  0  0  0  0  0  0
   61.2880   32.9670   50.7640 C   0  0  0  0  0  0  0  0  0  0  0  0
   60.2680   32.7890   49.8850 N   0  0  0  0  0  0  0  0  0  0  0  0
   64.7392   32.6274   50.8501 H   0  0  0  0  0  0  0  0  0  0  0  0
   64.4658   31.3682   49.5986 H   0  0  0  0  0  0  0  0  0  0  0  0
   65.9902   32.3184   49.5986 H   0  0  0  0  0  0  0  0  0  0  0  0
   63.3082   33.7236   49.3416 H   0  0  0  0  0  0  0  0  0  0  0  0
   64.9569   34.2433   48.7846 H   0  0  0  0  0  0  0  0  0  0  0  0
   64.8830   32.5950   47.0840 H   0  0  0  0  0  0  0  0  0  0  0  0
   63.4845   34.8512   47.0072 H   0  0  0  0  0  0  0  0  0  0  0  0
   63.5713   33.6819   45.6415 H   0  0  0  0  0  0  0  0  0  0  0  0
   61.2617   34.5070   47.1297 H   0  0  0  0  0  0  0  0  0  0  0  0
   61.3739   33.2793   45.8071 H   0  0  0  0  0  0  0  0  0  0  0  0
   62.2740   31.9820   48.1340 H   0  0  0  0  0  0  0  0  0  0  0  0
   57.8205   34.1814   46.3411 H   0  0  0  0  0  0  0  0  0  0  0  0
   56.9999   33.6348   44.0524 H   0  0  0  0  0  0  0  0  0  0  0  0
   56.0980   30.6071   42.9169 H   0  0  0  0  0  0  0  0  0  0  0  0
   56.8033   32.1272   42.2699 H   0  0  0  0  0  0  0  0  0  0  0  0
   57.7737   30.6155   42.2699 H   0  0  0  0  0  0  0  0  0  0  0  0
   58.1307   29.4939   44.6370 H   0  0  0  0  0  0  0  0  0  0  0  0
   58.9461   30.0423   46.9269 H   0  0  0  0  0  0  0  0  0  0  0  0
   57.0940   32.6610   49.2080 H   0  0  0  0  0  0  0  0  0  0  0  0
   57.5354   33.1452   51.8476 H   0  0  0  0  0  0  0  0  0  0  0  0
   59.3628   33.4657   53.5540 H   0  0  0  0  0  0  0  0  0  0  0  0
   62.3354   32.9189   50.4315 H   0  0  0  0  0  0  0  0  0  0  0  0
  1  2  1  0
  2  3  1  0
  3  4  1  0
  4  5  1  0
  5  6  1  0
  6  7  1  0
  7  8  2  0
  8  9  1  0
  9 10  2  0
 10 11  1  0
 11 12  2  0
 12 13  1  0
 12 14  1  0
 14 15  2  0
  8 16  1  0
 16 17  2  0
 17 18  1  0
 18 19  2  0
 19 20  1  0
 20 21  1  0
 20 22  2  0
 22 23  1  0
 23  7  1  0
 15  9  1  0
 23 17  1  0
  1 24  1  0
  1 25  1  0
  1 26  1  0
  2 27  1  0
  2 28  1  0
  3 29  1  0
  4 30  1  0
  4 31  1  0
  5 32  1  0
  5 33  1  0
  6 34  1  0
 10 35  1  0
 11 36  1  0
 13 37  1  0
 13 38  1  0
 13 39  1  0
 14 40  1  0
 15 41  1  0
 16 42  1  0
 18 43  1  0
 19 44  1  0
 22 45  1  0
M  CHG  1  16   1
M  END
>  <UniqueID>  (15) 
15

>  <SMILES>  (15) 
CCNCCNc1c(-c2ccc(C)cc2)[nH+]c2ccc(Br)cn12

>  <Energy>  (15) 
85.78409726839817

>  <Genealogy>  (15) 
CCNCCNc1c(-c2ccc(C)cc2)[nH+]c2ccc(Br)cn12 (protonated)
CCNCCNc1c(-c2ccc(C)cc2)[nH+]c2ccc(Br)cn12 (3D coordinates assigned)
CCNCCNc1c(-c2ccc(C)cc2)[nH+]c2ccc(Br)cn12 (optimized conformer: 85.78409726839817 kcal/mol)

>  <smiles>  (15) 
CCNCCNc1c(-c2ccc(C)cc2)nc2ccc(Br)cn12

>  <score_type>  (15) 
oracle

>  <origin>  (15) 
adg

>  <m_score__min__energy>  (15) 
-6.21

>  <m_primary>  (15) 
energy

$$$$
15:0
     RDKit          3D

 59 62  0  0  0  0  0  0  0  0999 V2000
   62.3100   32.7440   47.3280 C   0  0  0  0  0  0  0  0  0  0  0  0
   61.4120   33.8450   46.7700 C   0  0  0  0  0  0  0  0  0  0  0  0
   59.9940   33.5350   46.9970 N   0  0  0  0  0  0  0  0  0  0  0  0
   59.2830   34.1780   48.1130 C   0  0  0  0  0  0  0  0  0  0  0  0
   59.6880   33.5710   49.4510 C   0  0  0  0  0  0  0  0  0  0  0  0
   59.2350   32.9300   45.9320 C   0  0  0  0  0  0  0  0  0  0  0  0
   59.0140   33.6760   44.7700 C   0  0  0  0  0  0  0  0  0  0  0  0
   58.2830   33.1510   43.7130 C   0  0  0  0  0  0  0  0  0  0  0  0
   57.7560   31.8610   43.7890 C   0  0  0  0  0  0  0  0  0  0  0  0
   57.0210   31.3540   42.7060 C   0  0  0  0  0  0  0  0  0  0  0  0
   56.4910   30.0660   42.7540 C   0  0  0  0  0  0  0  0  0  0  0  0
   56.6920   29.2730   43.8790 C   0  0  0  0  0  0  0  0  0  0  0  0
   57.4190   29.7600   44.9670 C   0  0  0  0  0  0  0  0  0  0  0  0
   57.9650   31.0680   44.9530 C   0  0  0  0  0  0  0  0  0  0  0  0
   58.7100   31.6140   46.0470 C   0  0  0  0  0  0  0  0  0  0  0  0
   58.9350   30.8460   47.3440 C   0  0  0  0  0  0  0  0  0  0  0  0
   60.3010   30.2790   47.4110 N   0  0  0  0  0  0  0  0  0  0  0  0
   60.4420   29.2740   48.4810 C   0  0  0  0  0  0  0  0  0  0  0  0
   59.5400   28.0570   48.2370 C   0  0  0  0  0  0  0  0  0  0  0  0
   59.4040   27.7700   46.8040 N   0  0  0  0  0  0  0  0  0  0  0  0
   58.4940   26.7360   46.3900 C   0  0  0  0  0  0  0  0  0  0  0  0
   57.1090   26.9710   46.3940 C   0  0  0  0  0  0  0  0  0  0  0  0
   56.2210   25.9690   45.9920 C   0  0  0  0  0  0  0  0  0  0  0  0
   56.7080   24.7250   45.5870 C   0  0  0  0  0  0  0  0  0  0  0  0
   58.0840   24.4790   45.5860 C   0  0  0  0  0  0  0  0  0  0  0  0
   58.9780   25.4780   45.9860 C   0  0  0  0  0  0  0  0  0  0  0  0
   60.3060   25.2060   46.0110 F   0  0  0  0  0  0  0  0  0  0  0  0
   60.3910   28.2810   45.8430 C   0  0  0  0  0  0  0  0  0  0  0  0
   60.7920   29.7480   46.1220 C   0  0  0  0  0  0  0  0  0  0  0  0
   62.2861   32.7733   48.4273 H   0  0  0  0  0  0  0  0  0  0  0  0
   61.9495   31.7650   46.9794 H   0  0  0  0  0  0  0  0  0  0  0  0
   63.3415   32.9003   46.9794 H   0  0  0  0  0  0  0  0  0  0  0  0
   61.6564   34.7950   47.2677 H   0  0  0  0  0  0  0  0  0  0  0  0
   61.5844   33.9215   45.6863 H   0  0  0  0  0  0  0  0  0  0  0  0
   59.5226   35.2516   48.1194 H   0  0  0  0  0  0  0  0  0  0  0  0
   58.2033   34.0210   47.9732 H   0  0  0  0  0  0  0  0  0  0  0  0
   59.2801   34.1823   50.2695 H   0  0  0  0  0  0  0  0  0  0  0  0
   59.2910   32.5478   49.5246 H   0  0  0  0  0  0  0  0  0  0  0  0
   60.7852   33.5448   49.5246 H   0  0  0  0  0  0  0  0  0  0  0  0
   59.4252   34.6933   44.6924 H   0  0  0  0  0  0  0  0  0  0  0  0
   58.1180   33.7560   42.8093 H   0  0  0  0  0  0  0  0  0  0  0  0
   56.8623   31.9773   41.8136 H   0  0  0  0  0  0  0  0  0  0  0  0
   55.9138   29.6765   41.9024 H   0  0  0  0  0  0  0  0  0  0  0  0
   56.2754   28.2555   43.9117 H   0  0  0  0  0  0  0  0  0  0  0  0
   57.5703   29.1191   45.8481 H   0  0  0  0  0  0  0  0  0  0  0  0
   58.7901   31.5296   48.1935 H   0  0  0  0  0  0  0  0  0  0  0  0
   58.2151   30.0151   47.3815 H   0  0  0  0  0  0  0  0  0  0  0  0
   61.4892   28.9397   48.5206 H   0  0  0  0  0  0  0  0  0  0  0  0
   60.1413   29.7394   49.4312 H   0  0  0  0  0  0  0  0  0  0  0  0
   59.9780   27.1808   48.7375 H   0  0  0  0  0  0  0  0  0  0  0  0
   58.5417   28.2793   48.6419 H   0  0  0  0  0  0  0  0  0  0  0  0
   56.7211   27.9489   46.7153 H   0  0  0  0  0  0  0  0  0  0  0  0
   55.1379   26.1609   45.9948 H   0  0  0  0  0  0  0  0  0  0  0  0
   56.0086   23.9380   45.2685 H   0  0  0  0  0  0  0  0  0  0  0  0
   58.4651   23.4968   45.2697 H   0  0  0  0  0  0  0  0  0  0  0  0
   61.2927   27.6533   45.8974 H   0  0  0  0  0  0  0  0  0  0  0  0
   59.9309   28.2467   44.8444 H   0  0  0  0  0  0  0  0  0  0  0  0
   61.8902   29.8112   46.1194 H   0  0  0  0  0  0  0  0  0  0  0  0
   60.3264   30.3569   45.3330 H   0  0  0  0  0  0  0  0  0  0  0  0
  1  2  1  0
  2  3  1  0
  3  4  1  0
  4  5  1  0
  3  6  1  0
  6  7  2  0
  7  8  1  0
  8  9  2  0
  9 10  1  0
 10 11  2  0
 11 12  1  0
 12 13  2  0
 13 14  1  0
 14 15  2  0
 15 16  1  0
 16 17  1  0
 17 18  1  0
 18 19  1  0
 19 20  1  0
 20 21  1  0
 21 22  2  0
 22 23  1  0
 23 24  2  0
 24 25  1  0
 25 26  2  0
 26 27  1  0
 20 28  1  0
 28 29  1  0
 15  6  1  0
 29 17  1  0
 14  9  1  0
 26 21  1  0
  1 30  1  0
  1 31  1  0
  1 32  1  0
  2 33  1  0
  2 34  1  0
  4 35  1  0
  4 36  1  0
  5 37  1  0
  5 38  1  0
  5 39  1  0
  7 40  1  0
  8 41  1  0
 10 42  1  0
 11 43  1  0
 12 44  1  0
 13 45  1  0
 16 46  1  0
 16 47  1  0
 18 48  1  0
 18 49  1  0
 19 50  1  0
 19 51  1  0
 22 52  1  0
 23 53  1  0
 24 54  1  0
 25 55  1  0
 28 56  1  0
 28 57  1  0
 29 58  1  0
 29 59  1  0
M  END
>  <UniqueID>  (16) 
16

>  <SMILES>  (16) 
CCN(CC)c1ccc2ccccc2c1CN1CCN(c2ccccc2F)CC1

>  <Energy>  (16) 
81.38341367002751

>  <Genealogy>  (16) 
CCN(CC)c1ccc2ccccc2c1CN1CCN(c2ccccc2F)CC1 (3D coordinates assigned)
CCN(CC)c1ccc2ccccc2c1CN1CCN(c2ccccc2F)CC1 (nonaromatic ring conformer: 81.38341367002751 kcal/mol)

>  <smiles>  (16) 
CCN(CC)c1ccc2ccccc2c1CN1CCN(c2ccccc2F)CC1

>  <score_type>  (16) 
oracle

>  <origin>  (16) 
adg

>  <m_score__min__energy>  (16) 
-8.2799999999999994

>  <m_primary>  (16) 
energy

$$$$
16:0
     RDKit          3D

 50 52  0  0  0  0  0  0  0  0999 V2000
   63.3810   33.8230   46.4230 C   0  0  0  0  0  0  0  0  0  0  0  0
   63.1720   32.6350   47.3550 C   0  0  0  0  0  0  0  0  0  0  0  0
   61.8130   32.5640   47.7800 O   0  0  0  0  0  0  0  0  0  0  0  0
   61.0520   31.3910   47.7360 C   0  0  0  0  0  0  0  0  0  0  0  0
   61.1170   30.6190   46.7390 O   0  0  0  0  0  0  0  0  0  0  0  0
   60.1660   31.0460   48.8970 C   0  0  1  0  0  0  0  0  0  0  0  0
   61.0200   30.7040   50.1330 C   0  0  0  0  0  0  0  0  0  0  0  0
   60.1800   30.2950   51.2790 N   0  0  0  0  0  0  0  0  0  0  0  0
   58.8410   30.9220   51.3050 C   0  0  0  0  0  0  0  0  0  0  0  0
   58.8320   32.2870   50.6030 C   0  0  0  0  0  0  0  0  0  0  0  0
   59.2480   32.1790   49.1850 N   0  0  0  0  0  0  0  0  0  0  0  0
   58.1470   32.3550   48.2060 C   0  0  0  0  0  0  0  0  0  0  0  0
   58.4860   33.2680   47.0380 C   0  0  0  0  0  0  0  0  0  0  0  0
   59.3380   34.3670   47.2540 C   0  0  0  0  0  0  0  0  0  0  0  0
   59.7140   35.1990   46.1970 C   0  0  0  0  0  0  0  0  0  0  0  0
   59.2340   34.9540   44.9110 C   0  0  0  0  0  0  0  0  0  0  0  0
   58.3570   33.8940   44.6840 C   0  0  0  0  0  0  0  0  0  0  0  0
   57.9560   33.0660   45.7390 C   0  0  0  0  0  0  0  0  0  0  0  0
   57.0250   32.0570   45.4720 O   0  0  0  0  0  0  0  0  0  0  0  0
   57.3600   30.7940   44.9580 C   0  0  0  0  0  0  0  0  0  0  0  0
   56.7030   30.2360   43.8430 C   0  0  0  0  0  0  0  0  0  0  0  0
   57.0680   28.9720   43.3710 C   0  0  0  0  0  0  0  0  0  0  0  0
   58.0930   28.2590   44.0000 C   0  0  0  0  0  0  0  0  0  0  0  0
   58.7530   28.8090   45.1010 C   0  0  0  0  0  0  0  0  0  0  0  0
   58.3890   30.0730   45.5770 C   0  0  0  0  0  0  0  0  0  0  0  0
   63.5411   34.7333   47.0195 H   0  0  0  0  0  0  0  0  0  0  0  0
   64.2609   33.6409   45.7885 H   0  0  0  0  0  0  0  0  0  0  0  0
   62.4918   33.9521   45.7885 H   0  0  0  0  0  0  0  0  0  0  0  0
   63.4335   31.7081   46.8235 H   0  0  0  0  0  0  0  0  0  0  0  0
   63.8141   32.7605   48.2393 H   0  0  0  0  0  0  0  0  0  0  0  0
   59.5617   30.1629   48.6421 H   0  0  0  0  0  0  0  0  0  0  0  0
   61.7023   29.8796   49.8784 H   0  0  0  0  0  0  0  0  0  0  0  0
   61.5821   31.6042   50.4225 H   0  0  0  0  0  0  0  0  0  0  0  0
   60.0600   29.2550   51.2570 H   0  0  0  0  0  0  0  0  0  0  0  0
   60.6870   30.5340   52.1640 H   0  0  0  0  0  0  0  0  0  0  0  0
   58.1273   30.2567   50.7971 H   0  0  0  0  0  0  0  0  0  0  0  0
   58.5594   31.0787   52.3567 H   0  0  0  0  0  0  0  0  0  0  0  0
   57.8143   32.7023   50.6449 H   0  0  0  0  0  0  0  0  0  0  0  0
   59.5479   32.9425   51.1205 H   0  0  0  0  0  0  0  0  0  0  0  0
   57.8824   31.3658   47.8041 H   0  0  0  0  0  0  0  0  0  0  0  0
   57.3178   32.8330   48.7482 H   0  0  0  0  0  0  0  0  0  0  0  0
   59.7124   34.5733   48.2675 H   0  0  0  0  0  0  0  0  0  0  0  0
   60.3892   36.0481   46.3792 H   0  0  0  0  0  0  0  0  0  0  0  0
   59.5473   35.5971   44.0754 H   0  0  0  0  0  0  0  0  0  0  0  0
   57.9775   33.7071   43.6686 H   0  0  0  0  0  0  0  0  0  0  0  0
   55.9002   30.7972   43.3424 H   0  0  0  0  0  0  0  0  0  0  0  0
   56.5484   28.5379   42.5040 H   0  0  0  0  0  0  0  0  0  0  0  0
   58.3797   27.2645   43.6275 H   0  0  0  0  0  0  0  0  0  0  0  0
   59.5600   28.2476   45.5945 H   0  0  0  0  0  0  0  0  0  0  0  0
   58.9140   30.5033   46.4426 H   0  0  0  0  0  0  0  0  0  0  0  0
  1  2  1  0
  2  3  1  0
  3  4  1  0
  4  5  2  0
  4  6  1  0
  6  7  1  0
  7  8  1  0
  8  9  1  0
  9 10  1  0
 10 11  1  0
 11 12  1  0
 12 13  1  0
 13 14  2  0
 14 15  1  0
 15 16  2  0
 16 17  1  0
 17 18  2  0
 18 19  1  0
 19 20  1  0
 20 21  2  0
 21 22  1  0
 22 23  2  0
 23 24  1  0
 24 25  2  0
 11  6  1  0
 18 13  1  0
 25 20  1  0
  1 26  1  0
  1 27  1  0
  1 28  1  0
  2 29  1  0
  2 30  1  0
  6 31  1  6
  7 32  1  0
  7 33  1  0
  8 34  1  0
  8 35  1  0
  9 36  1  0
  9 37  1  0
 10 38  1  0
 10 39  1  0
 12 40  1  0
 12 41  1  0
 14 42  1  0
 15 43  1  0
 16 44  1  0
 17 45  1  0
 21 46  1  0
 22 47  1  0
 23 48  1  0
 24 49  1  0
 25 50  1  0
M  CHG  1   8   1
M  END
>  <UniqueID>  (17) 
17

>  <SMILES>  (17) 
CCOC(=O)[C@H]1C[NH2+]CCN1Cc1ccccc1Oc1ccccc1

>  <Energy>  (17) 
68.68939425387215

>  <Genealogy>  (17) 
CCOC(=O)C1C[NH2+]CCN1Cc1ccccc1Oc1ccccc1 (protonated)
CCOC(=O)[C@H]1C[NH2+]CCN1Cc1ccccc1Oc1ccccc1 (chirality)
CCOC(=O)[C@H]1C[NH2+]CCN1Cc1ccccc1Oc1ccccc1 (3D coordinates assigned)
CCOC(=O)[C@H]1C[NH2+]CCN1Cc1ccccc1Oc1ccccc1 (nonaromatic ring conformer: 68.68939425387215 kcal/mol)

>  <smiles>  (17) 
CCOC(=O)C1CNCCN1Cc1ccccc1Oc1ccccc1

>  <score_type>  (17) 
oracle

>  <origin>  (17) 
adg

>  <m_score__min__energy>  (17) 
-5.96

>  <m_primary>  (17) 
energy

$$$$
17:0
     RDKit          3D

 34 35  0  0  0  0  0  0  0  0999 V2000
   55.8500   29.7880   43.7090 C   0  0  0  0  0  0  0  0  0  0  0  0
   56.4760   30.6880   44.5970 O   0  0  0  0  0  0  0  0  0  0  0  0
   57.8200   30.9120   44.2080 C   0  0  0  0  0  0  0  0  0  0  0  0
   58.7730   30.7130   45.3940 C   0  0  0  0  0  0  0  0  0  0  0  0
   58.0450   30.7090   46.6740 N   0  0  0  0  0  0  0  0  0  0  0  0
   58.4980   31.7860   47.5710 C   0  0  0  0  0  0  0  0  0  0  0  0
   59.5120   32.6880   46.9080 C   0  0  0  0  0  0  0  0  0  0  0  0
   59.2460   33.7590   46.0450 C   0  0  0  0  0  0  0  0  0  0  0  0
   57.8980   34.2220   45.5910 C   0  0  0  0  0  0  0  0  0  0  0  0
   60.3950   34.4040   45.7110 N   0  0  0  0  0  0  0  0  0  0  0  0
   61.3170   33.6860   46.3740 C   0  0  0  0  0  0  0  0  0  0  0  0
   62.9820   33.8410   46.4620 S   0  0  0  0  0  0  0  0  0  0  0  0
   63.0940   32.4850   47.4950 C   0  0  0  0  0  0  0  0  0  0  0  0
   61.8100   31.9650   47.7290 C   0  0  0  0  0  0  0  0  0  0  0  0
   61.5630   30.7390   48.5510 C   0  0  0  0  0  0  0  0  0  0  0  0
   60.8470   32.6740   47.0820 N   0  0  0  0  0  0  0  0  0  0  0  0
   55.3146   29.0182   44.2841 H   0  0  0  0  0  0  0  0  0  0  0  0
   55.1363   30.3349   43.0753 H   0  0  0  0  0  0  0  0  0  0  0  0
   56.6110   29.3092   43.0753 H   0  0  0  0  0  0  0  0  0  0  0  0
   58.0865   30.2045   43.4090 H   0  0  0  0  0  0  0  0  0  0  0  0
   57.9147   31.9480   43.8506 H   0  0  0  0  0  0  0  0  0  0  0  0
   59.2950   29.7519   45.2762 H   0  0  0  0  0  0  0  0  0  0  0  0
   59.4894   31.5476   45.4060 H   0  0  0  0  0  0  0  0  0  0  0  0
   57.0270   30.8560   46.4820 H   0  0  0  0  0  0  0  0  0  0  0  0
   58.1560   29.7810   47.1450 H   0  0  0  0  0  0  0  0  0  0  0  0
   57.6277   32.3892   47.8689 H   0  0  0  0  0  0  0  0  0  0  0  0
   58.9782   31.3203   48.4442 H   0  0  0  0  0  0  0  0  0  0  0  0
   57.2699   34.4377   46.4679 H   0  0  0  0  0  0  0  0  0  0  0  0
   58.0082   35.1338   44.9856 H   0  0  0  0  0  0  0  0  0  0  0  0
   57.4247   33.4349   44.9856 H   0  0  0  0  0  0  0  0  0  0  0  0
   64.0280   32.0811   47.9128 H   0  0  0  0  0  0  0  0  0  0  0  0
   61.6150   30.9970   49.6190 H   0  0  0  0  0  0  0  0  0  0  0  0
   60.5658   30.3368   48.3191 H   0  0  0  0  0  0  0  0  0  0  0  0
   62.3267   29.9820   48.3191 H   0  0  0  0  0  0  0  0  0  0  0  0
  1  2  1  0
  2  3  1  0
  3  4  1  0
  4  5  1  0
  5  6  1  0
  6  7  1  0
  7  8  2  0
  8  9  1  0
  8 10  1  0
 10 11  2  0
 11 12  1  0
 12 13  1  0
 13 14  2  0
 14 15  1  0
 14 16  1  0
 16  7  1  0
 16 11  1  0
  1 17  1  0
  1 18  1  0
  1 19  1  0
  3 20  1  0
  3 21  1  0
  4 22  1  0
  4 23  1  0
  5 24  1  0
  5 25  1  0
  6 26  1  0
  6 27  1  0
  9 28  1  0
  9 29  1  0
  9 30  1  0
 13 31  1  0
 15 32  1  0
 15 33  1  0
 15 34  1  0
M  CHG  1   5   1
M  END
>  <UniqueID>  (18) 
18

>  <SMILES>  (18) 
COCC[NH2+]Cc1c(C)nc2scc(C)n12

>  <Energy>  (18) 
109.97869417298416

>  <Genealogy>  (18) 
COCC[NH2+]Cc1c(C)nc2scc(C)n12 (protonated)
COCC[NH2+]Cc1c(C)nc2scc(C)n12 (3D coordinates assigned)
COCC[NH2+]Cc1c(C)nc2scc(C)n12 (optimized conformer: 109.97869417298416 kcal/mol)

>  <smiles>  (18) 
COCCNCc1c(C)nc2scc(C)n12

>  <score_type>  (18) 
oracle

>  <origin>  (18) 
adg

>  <m_score__min__energy>  (18) 
-4.3600000000000003

>  <m_primary>  (18) 
energy

$$$$
18:0
     RDKit          3D

 49 51  0  0  0  0  0  0  0  0999 V2000
   57.4130   25.1450   47.1110 C   0  0  0  0  0  0  0  0  0  0  0  0
   58.8620   25.5960   46.9440 C   0  0  0  0  0  0  0  0  0  0  0  0
   58.9310   27.0650   46.7800 N   0  0  0  0  0  0  0  0  0  0  0  0
   57.7250   27.5910   46.1010 C   0  0  0  0  0  0  0  0  0  0  0  0
   57.8240   27.3750   44.5930 C   0  0  0  0  0  0  0  0  0  0  0  0
   59.1880   27.7560   48.0700 C   0  0  0  0  0  0  0  0  0  0  0  0
   60.3920   28.6910   47.9330 C   0  0  0  0  0  0  0  0  0  0  0  0
   60.4280   29.3110   46.6090 N   0  0  0  0  0  0  0  0  0  0  0  0
   60.2330   30.7260   46.4680 C   0  0  0  0  0  0  0  0  0  0  0  0
   61.1820   31.6700   46.9270 C   0  0  0  0  0  0  0  0  0  0  0  0
   62.4060   31.2530   47.4860 C   0  0  0  0  0  0  0  0  0  0  0  0
   63.3370   32.1840   47.9420 C   0  0  0  0  0  0  0  0  0  0  0  0
   63.0730   33.5450   47.8380 C   0  0  0  0  0  0  0  0  0  0  0  0
   61.8800   33.9910   47.2690 C   0  0  0  0  0  0  0  0  0  0  0  0
   60.9110   33.0720   46.7930 C   0  0  0  0  0  0  0  0  0  0  0  0
   59.7330   33.5040   46.2060 N   0  0  0  0  0  0  0  0  0  0  0  0
   59.4310   34.9400   46.0640 C   0  0  0  0  0  0  0  0  0  0  0  0
   58.8510   32.5630   45.7450 C   0  0  0  0  0  0  0  0  0  0  0  0
   57.3590   32.8000   44.9900 S   0  0  0  0  0  0  0  0  0  0  0  0
   57.0790   31.1420   44.8530 C   0  0  0  0  0  0  0  0  0  0  0  0
   55.6150   30.4240   44.1190 S   0  0  0  0  0  0  0  0  0  0  0  0
   56.5200   29.7600   42.6880 C   0  0  0  0  0  0  0  0  0  0  0  0
   58.0900   30.4050   45.3680 N   0  0  0  0  0  0  0  0  0  0  0  0
   59.0750   31.2020   45.8600 C   0  0  0  0  0  0  0  0  0  0  0  0
   57.1733   25.0704   48.1820 H   0  0  0  0  0  0  0  0  0  0  0  0
   56.7439   25.8774   46.6357 H   0  0  0  0  0  0  0  0  0  0  0  0
   57.2778   24.1623   46.6357 H   0  0  0  0  0  0  0  0  0  0  0  0
   59.4373   25.3036   47.8348 H   0  0  0  0  0  0  0  0  0  0  0  0
   59.2829   25.1174   46.0475 H   0  0  0  0  0  0  0  0  0  0  0  0
   56.8365   27.0677   46.4842 H   0  0  0  0  0  0  0  0  0  0  0  0
   57.6455   28.6696   46.3016 H   0  0  0  0  0  0  0  0  0  0  0  0
   58.2746   26.3918   44.3922 H   0  0  0  0  0  0  0  0  0  0  0  0
   56.8179   27.4145   44.1501 H   0  0  0  0  0  0  0  0  0  0  0  0
   58.4508   28.1630   44.1501 H   0  0  0  0  0  0  0  0  0  0  0  0
   58.3013   28.3429   48.3517 H   0  0  0  0  0  0  0  0  0  0  0  0
   59.4006   27.0052   48.8454 H   0  0  0  0  0  0  0  0  0  0  0  0
   60.3238   29.4792   48.6973 H   0  0  0  0  0  0  0  0  0  0  0  0
   61.3104   28.1008   48.0679 H   0  0  0  0  0  0  0  0  0  0  0  0
   60.1340   28.7130   45.8050 H   0  0  0  0  0  0  0  0  0  0  0  0
   62.6296   30.1788   47.5635 H   0  0  0  0  0  0  0  0  0  0  0  0
   64.2835   31.8412   48.3855 H   0  0  0  0  0  0  0  0  0  0  0  0
   63.8092   34.2745   48.2066 H   0  0  0  0  0  0  0  0  0  0  0  0
   61.6883   35.0712   47.1885 H   0  0  0  0  0  0  0  0  0  0  0  0
   59.3353   35.3949   47.0610 H   0  0  0  0  0  0  0  0  0  0  0  0
   60.2451   35.4331   45.5125 H   0  0  0  0  0  0  0  0  0  0  0  0
   58.4872   35.0634   45.5125 H   0  0  0  0  0  0  0  0  0  0  0  0
   57.3604   29.1434   43.0396 H   0  0  0  0  0  0  0  0  0  0  0  0
   55.8422   29.1433   42.0795 H   0  0  0  0  0  0  0  0  0  0  0  0
   56.9048   30.5916   42.0795 H   0  0  0  0  0  0  0  0  0  0  0  0
  1  2  1  0
  2  3  1  0
  3  4  1  0
  4  5  1  0
  3  6  1  0
  6  7  1  0
  7  8  1  0
  8  9  1  0
  9 10  2  0
 10 11  1  0
 11 12  2  0
 12 13  1  0
 13 14  2  0
 14 15  1  0
 15 16  2  0
 16 17  1  0
 16 18  1  0
 18 19  1  0
 19 20  1  0
 20 21  1  0
 21 22  1  0
 20 23  2  0
 23 24  1  0
 24  9  1  0
 15 10  1  0
 24 18  2  0
  1 25  1  0
  1 26  1  0
  1 27  1  0
  2 28  1  0
  2 29  1  0
  4 30  1  0
  4 31  1  0
  5 32  1  0
  5 33  1  0
  5 34  1  0
  6 35  1  0
  6 36  1  0
  7 37  1  0
  7 38  1  0
  8 39  1  0
 11 40  1  0
 12 41  1  0
 13 42  1  0
 14 43  1  0
 17 44  1  0
 17 45  1  0
 17 46  1  0
 22 47  1  0
 22 48  1  0
 22 49  1  0
M  CHG  1  16   1
M  END
>  <UniqueID>  (19) 
19

>  <SMILES>  (19) 
CCN(CC)CCNc1c2ccccc2[n+](C)c2sc(SC)nc12

>  <Energy>  (19) 
92.39682711725494

>  <Genealogy>  (19) 
CCN(CC)CCNc1c2ccccc2[n+](C)c2sc(SC)nc12 (3D coordinates assigned)
CCN(CC)CCNc1c2ccccc2[n+](C)c2sc(SC)nc12 (optimized conformer: 92.39682711725494 kcal/mol)

>  <smiles>  (19) 
CCN(CC)CCNc1c2ccccc2[n+](C)c2sc(SC)nc12

>  <score_type>  (19) 
oracle

>  <origin>  (19) 
adg

>  <m_score__min__energy>  (19) 
-5.5300000000000002

>  <m_primary>  (19) 
energy

$$$$
19:0
     RDKit          3D

 64 67  0  0  0  0  0  0  0  0999 V2000
   59.3240   34.7750   45.5130 C   0  0  0  0  0  0  0  0  0  0  0  0
   59.1330   34.2440   46.8220 O   0  0  0  0  0  0  0  0  0  0  0  0
   59.0460   32.8760   47.1270 C   0  0  0  0  0  0  0  0  0  0  0  0
   58.8860   31.9060   46.1300 C   0  0  0  0  0  0  0  0  0  0  0  0
   58.8830   30.5360   46.4440 C   0  0  0  0  0  0  0  0  0  0  0  0
   58.6230   29.5670   45.4530 C   0  0  0  0  0  0  0  0  0  0  0  0
   58.1910   29.9620   44.1370 N   0  0  0  0  0  0  0  0  0  0  0  0
   56.7740   30.1330   43.8060 C   0  0  0  0  0  0  0  0  0  0  0  0
   56.6100   30.7580   42.4160 C   0  0  0  0  0  0  0  0  0  0  0  0
   57.7300   31.6800   42.1290 N   0  0  0  0  0  0  0  0  0  0  0  0
   57.5080   32.3730   40.8500 C   0  0  0  0  0  0  0  0  0  0  0  0
   57.8820   32.6780   43.2050 C   0  0  0  0  0  0  0  0  0  0  0  0
   58.7230   28.2040   45.7780 C   0  0  0  0  0  0  0  0  0  0  0  0
   58.4180   27.2040   44.8290 C   0  0  0  0  0  0  0  0  0  0  0  0
   58.5090   25.8550   45.1640 C   0  0  0  0  0  0  0  0  0  0  0  0
   58.9000   25.4780   46.4440 C   0  0  0  0  0  0  0  0  0  0  0  0
   59.2200   26.4490   47.3930 C   0  0  0  0  0  0  0  0  0  0  0  0
   59.1530   27.8280   47.0760 C   0  0  0  0  0  0  0  0  0  0  0  0
   59.4980   28.7950   47.9990 N   0  0  0  0  0  0  0  0  0  0  0  0
   60.3990   28.4230   49.1120 C   0  0  0  0  0  0  0  0  0  0  0  0
   59.1800   30.1210   47.7660 C   0  0  0  0  0  0  0  0  0  0  0  0
   59.1350   31.1050   48.8020 C   0  0  0  0  0  0  0  0  0  0  0  0
   58.9310   30.7380   50.2560 C   0  0  0  0  0  0  0  0  0  0  0  0
   59.1170   32.4750   48.4680 C   0  0  0  0  0  0  0  0  0  0  0  0
   59.1880   33.4260   49.4950 O   0  0  0  0  0  0  0  0  0  0  0  0
   60.3550   34.2000   49.7590 C   0  0  0  0  0  0  0  0  0  0  0  0
   61.5190   33.5880   49.0360 C   0  0  0  0  0  0  0  0  0  0  0  0
   62.2470   32.5360   49.6180 C   0  0  0  0  0  0  0  0  0  0  0  0
   63.3560   31.9970   48.9560 C   0  0  0  0  0  0  0  0  0  0  0  0
   63.7510   32.5120   47.7190 C   0  0  0  0  0  0  0  0  0  0  0  0
   63.0420   33.5700   47.1420 C   0  0  0  0  0  0  0  0  0  0  0  0
   61.9320   34.1100   47.7980 C   0  0  0  0  0  0  0  0  0  0  0  0
   59.6955   35.8077   45.5869 H   0  0  0  0  0  0  0  0  0  0  0  0
   60.0571   34.1595   44.9710 H   0  0  0  0  0  0  0  0  0  0  0  0
   58.3668   34.7675   44.9710 H   0  0  0  0  0  0  0  0  0  0  0  0
   58.7606   32.2214   45.0837 H   0  0  0  0  0  0  0  0  0  0  0  0
   58.8920   29.9890   43.3650 H   0  0  0  0  0  0  0  0  0  0  0  0
   56.2795   29.1505   43.8200 H   0  0  0  0  0  0  0  0  0  0  0  0
   56.3172   30.8029   44.5493 H   0  0  0  0  0  0  0  0  0  0  0  0
   56.5949   29.9597   41.6593 H   0  0  0  0  0  0  0  0  0  0  0  0
   55.6668   31.3234   42.3884 H   0  0  0  0  0  0  0  0  0  0  0  0
   57.1777   33.4041   41.0442 H   0  0  0  0  0  0  0  0  0  0  0  0
   58.4455   32.3905   40.2749 H   0  0  0  0  0  0  0  0  0  0  0  0
   56.7349   31.8425   40.2749 H   0  0  0  0  0  0  0  0  0  0  0  0
   57.8059   32.1783   44.1820 H   0  0  0  0  0  0  0  0  0  0  0  0
   58.8646   33.1646   43.1176 H   0  0  0  0  0  0  0  0  0  0  0  0
   57.0888   33.4351   43.1176 H   0  0  0  0  0  0  0  0  0  0  0  0
   58.1053   27.4932   43.8148 H   0  0  0  0  0  0  0  0  0  0  0  0
   58.2710   25.0862   44.4142 H   0  0  0  0  0  0  0  0  0  0  0  0
   58.9571   24.4119   46.7088 H   0  0  0  0  0  0  0  0  0  0  0  0
   59.5289   26.1393   48.4023 H   0  0  0  0  0  0  0  0  0  0  0  0
   59.9012   28.6285   50.0711 H   0  0  0  0  0  0  0  0  0  0  0  0
   60.6401   27.3518   49.0462 H   0  0  0  0  0  0  0  0  0  0  0  0
   61.3256   29.0121   49.0462 H   0  0  0  0  0  0  0  0  0  0  0  0
   59.3657   31.5200   50.8960 H   0  0  0  0  0  0  0  0  0  0  0  0
   57.8545   30.6500   50.4644 H   0  0  0  0  0  0  0  0  0  0  0  0
   59.4246   29.7773   50.4644 H   0  0  0  0  0  0  0  0  0  0  0  0
   60.2019   35.2306   49.4063 H   0  0  0  0  0  0  0  0  0  0  0  0
   60.5548   34.2154   50.8406 H   0  0  0  0  0  0  0  0  0  0  0  0
   61.9442   32.1352   50.5966 H   0  0  0  0  0  0  0  0  0  0  0  0
   63.9171   31.1670   49.4102 H   0  0  0  0  0  0  0  0  0  0  0  0
   64.6207   32.0847   47.1984 H   0  0  0  0  0  0  0  0  0  0  0  0
   63.3581   33.9779   46.1706 H   0  0  0  0  0  0  0  0  0  0  0  0
   61.3800   34.9461   47.3439 H   0  0  0  0  0  0  0  0  0  0  0  0
  1  2  1  0
  2  3  1  0
  3  4  2  0
  4  5  1  0
  5  6  2  0
  6  7  1  0
  7  8  1  0
  8  9  1  0
  9 10  1  0
 10 11  1  0
 10 12  1  0
  6 13  1  0
 13 14  2  0
 14 15  1  0
 15 16  2  0
 16 17  1  0
 17 18  2  0
 18 19  1  0
 19 20  1  0
 19 21  2  0
 21 22  1  0
 22 23  1  0
 22 24  2  0
 24 25  1  0
 25 26  1  0
 26 27  1  0
 27 28  2  0
 28 29  1  0
 29 30  2  0
 30 31  1  0
 31 32  2  0
 24  3  1  0
 32 27  1  0
 21  5  1  0
 18 13  1  0
  1 33  1  0
  1 34  1  0
  1 35  1  0
  4 36  1  0
  7 37  1  0
  8 38  1  0
  8 39  1  0
  9 40  1  0
  9 41  1  0
 11 42  1  0
 11 43  1  0
 11 44  1  0
 12 45  1  0
 12 46  1  0
 12 47  1  0
 14 48  1  0
 15 49  1  0
 16 50  1  0
 17 51  1  0
 20 52  1  0
 20 53  1  0
 20 54  1  0
 23 55  1  0
 23 56  1  0
 23 57  1  0
 26 58  1  0
 26 59  1  0
 28 60  1  0
 29 61  1  0
 30 62  1  0
 31 63  1  0
 32 64  1  0
M  CHG  1  19   1
M  END
>  <UniqueID>  (20) 
20

>  <SMILES>  (20) 
COc1cc2c(NCCN(C)C)c3ccccc3[n+](C)c2c(C)c1OCc1ccccc1

>  <Energy>  (20) 
106.4953544928992

>  <Genealogy>  (20) 
COc1cc2c(NCCN(C)C)c3ccccc3[n+](C)c2c(C)c1OCc1ccccc1 (3D coordinates assigned)
COc1cc2c(NCCN(C)C)c3ccccc3[n+](C)c2c(C)c1OCc1ccccc1 (optimized conformer: 106.4953544928992 kcal/mol)

>  <smiles>  (20) 
COc1cc2c(NCCN(C)C)c3ccccc3[n+](C)c2c(C)c1OCc1ccccc1

>  <score_type>  (20) 
oracle

>  <origin>  (20) 
adg

>  <m_score__min__energy>  (20) 
-6.6500000000000004

>  <m_primary>  (20) 
energy

$$$$
20:0
     RDKit          3D

 68 70  0  0  0  0  0  0  0  0999 V2000
   58.1740   30.4800   50.7780 C   0  0  0  0  0  0  0  0  0  0  0  0
   58.6540   31.6240   49.8920 C   0  0  0  0  0  0  0  0  0  0  0  0
   60.0720   31.9290   50.1780 N   0  0  0  0  0  0  0  0  0  0  0  0
   60.2680   33.3660   50.4810 C   0  0  0  0  0  0  0  0  0  0  0  0
   59.2630   33.8070   51.5390 C   0  0  0  0  0  0  0  0  0  0  0  0
   60.6040   31.0570   51.2490 C   0  0  0  0  0  0  0  0  0  0  0  0
   62.1140   30.8790   51.0980 C   0  0  0  0  0  0  0  0  0  0  0  0
   62.5710   31.6640   50.0120 O   0  0  0  0  0  0  0  0  0  0  0  0
   63.8870   32.1000   50.2600 C   0  0  0  0  0  0  0  0  0  0  0  0
   64.3190   33.0670   49.1690 C   0  0  0  0  0  0  0  0  0  0  0  0
   63.2080   33.3240   48.3340 O   0  0  0  0  0  0  0  0  0  0  0  0
   63.3430   32.6330   47.1100 C   0  0  0  0  0  0  0  0  0  0  0  0
   62.4660   31.3730   47.1320 C   0  0  0  0  0  0  0  0  0  0  0  0
   61.2080   31.5590   47.8830 N   0  0  0  0  0  0  0  0  0  0  0  0
   60.0360   31.5200   47.0120 C   0  0  0  0  0  0  0  0  0  0  0  0
   59.5950   32.6730   46.2920 C   0  0  0  0  0  0  0  0  0  0  0  0
   60.1080   33.9790   46.5340 C   0  0  0  0  0  0  0  0  0  0  0  0
   59.6250   35.0860   45.8410 C   0  0  0  0  0  0  0  0  0  0  0  0
   58.6200   34.9380   44.9010 C   0  0  0  0  0  0  0  0  0  0  0  0
   58.1100   33.6750   44.6210 C   0  0  0  0  0  0  0  0  0  0  0  0
   58.6070   32.5180   45.2760 C   0  0  0  0  0  0  0  0  0  0  0  0
   58.1530   31.2630   44.9320 N   0  0  0  0  0  0  0  0  0  0  0  0
   57.4610   31.0540   43.6400 C   0  0  0  0  0  0  0  0  0  0  0  0
   58.3720   30.1970   45.7740 C   0  0  0  0  0  0  0  0  0  0  0  0
   57.6530   28.9840   45.6210 C   0  0  0  0  0  0  0  0  0  0  0  0
   57.9050   27.8780   46.4300 C   0  0  0  0  0  0  0  0  0  0  0  0
   57.1630   26.7070   46.2090 O   0  0  0  0  0  0  0  0  0  0  0  0
   57.3850   25.8040   45.1320 C   0  0  0  0  0  0  0  0  0  0  0  0
   58.8800   27.9700   47.4270 C   0  0  0  0  0  0  0  0  0  0  0  0
   59.5830   29.1550   47.6180 C   0  0  0  0  0  0  0  0  0  0  0  0
   59.3350   30.2960   46.8140 C   0  0  0  0  0  0  0  0  0  0  0  0
   58.2918   30.7606   51.8351 H   0  0  0  0  0  0  0  0  0  0  0  0
   57.1138   30.2745   50.5691 H   0  0  0  0  0  0  0  0  0  0  0  0
   58.7702   29.5795   50.5691 H   0  0  0  0  0  0  0  0  0  0  0  0
   58.5502   31.3342   48.8359 H   0  0  0  0  0  0  0  0  0  0  0  0
   58.0457   32.5172   50.0971 H   0  0  0  0  0  0  0  0  0  0  0  0
   61.2893   33.5248   50.8574 H   0  0  0  0  0  0  0  0  0  0  0  0
   60.1172   33.9564   49.5652 H   0  0  0  0  0  0  0  0  0  0  0  0
   59.6804   33.6238   52.5401 H   0  0  0  0  0  0  0  0  0  0  0  0
   59.0526   34.8801   51.4202 H   0  0  0  0  0  0  0  0  0  0  0  0
   58.3308   33.2352   51.4202 H   0  0  0  0  0  0  0  0  0  0  0  0
   60.3899   31.5136   52.2266 H   0  0  0  0  0  0  0  0  0  0  0  0
   60.1218   30.0710   51.1754 H   0  0  0  0  0  0  0  0  0  0  0  0
   62.6163   31.2018   52.0218 H   0  0  0  0  0  0  0  0  0  0  0  0
   62.3433   29.8198   50.9095 H   0  0  0  0  0  0  0  0  0  0  0  0
   63.9268   32.6072   51.2353 H   0  0  0  0  0  0  0  0  0  0  0  0
   64.5635   31.2326   50.2677 H   0  0  0  0  0  0  0  0  0  0  0  0
   64.6680   34.0065   49.6224 H   0  0  0  0  0  0  0  0  0  0  0  0
   65.1402   32.6308   48.5813 H   0  0  0  0  0  0  0  0  0  0  0  0
   63.0254   33.2860   46.2837 H   0  0  0  0  0  0  0  0  0  0  0  0
   64.3947   32.3443   46.9669 H   0  0  0  0  0  0  0  0  0  0  0  0
   62.2185   31.1000   46.0956 H   0  0  0  0  0  0  0  0  0  0  0  0
   63.0384   30.5823   47.6392 H   0  0  0  0  0  0  0  0  0  0  0  0
   61.1280   30.8220   48.6180 H   0  0  0  0  0  0  0  0  0  0  0  0
   61.2960   32.4250   48.4490 H   0  0  0  0  0  0  0  0  0  0  0  0
   60.9016   34.1162   47.2833 H   0  0  0  0  0  0  0  0  0  0  0  0
   60.0443   36.0830   46.0416 H   0  0  0  0  0  0  0  0  0  0  0  0
   58.2246   35.8196   44.3753 H   0  0  0  0  0  0  0  0  0  0  0  0
   57.3060   33.5706   43.8776 H   0  0  0  0  0  0  0  0  0  0  0  0
   56.4232   30.7406   43.8264 H   0  0  0  0  0  0  0  0  0  0  0  0
   57.4631   31.9929   43.0668 H   0  0  0  0  0  0  0  0  0  0  0  0
   57.9825   30.2733   43.0668 H   0  0  0  0  0  0  0  0  0  0  0  0
   56.8771   28.9147   44.8443 H   0  0  0  0  0  0  0  0  0  0  0  0
   57.6296   24.8090   45.5322 H   0  0  0  0  0  0  0  0  0  0  0  0
   56.4763   25.7380   44.5156 H   0  0  0  0  0  0  0  0  0  0  0  0
   58.2207   26.1669   44.5156 H   0  0  0  0  0  0  0  0  0  0  0  0
   59.0929   27.0995   48.0649 H   0  0  0  0  0  0  0  0  0  0  0  0
   60.3463   29.2078   48.4083 H   0  0  0  0  0  0  0  0  0  0  0  0
  1  2  1  0
  2  3  1  0
  3  4  1  0
  4  5  1  0
  3  6  1  0
  6  7  1  0
  7  8  1  0
  8  9  1  0
  9 10  1  0
 10 11  1  0
 11 12  1  0
 12 13  1  0
 13 14  1  0
 14 15  1  0
 15 16  2  0
 16 17  1  0
 17 18  2  0
 18 19  1  0
 19 20  2  0
 20 21  1  0
 21 22  2  0
 22 23  1  0
 22 24  1  0
 24 25  2  0
 25 26  1  0
 26 27  1  0
 27 28  1  0
 26 29  2  0
 29 30  1  0
 30 31  2  0
 31 15  1  0
 21 16  1  0
 31 24  1  0
  1 32  1  0
  1 33  1  0
  1 34  1  0
  2 35  1  0
  2 36  1  0
  4 37  1  0
  4 38  1  0
  5 39  1  0
  5 40  1  0
  5 41  1  0
  6 42  1  0
  6 43  1  0
  7 44  1  0
  7 45  1  0
  9 46  1  0
  9 47  1  0
 10 48  1  0
 10 49  1  0
 12 50  1  0
 12 51  1  0
 13 52  1  0
 13 53  1  0
 14 54  1  0
 14 55  1  0
 17 56  1  0
 18 57  1  0
 19 58  1  0
 20 59  1  0
 23 60  1  0
 23 61  1  0
 23 62  1  0
 25 63  1  0
 28 64  1  0
 28 65  1  0
 28 66  1  0
 29 67  1  0
 30 68  1  0
M  CHG  2  14   1  22   1
M  END
>  <UniqueID>  (21) 
21

>  <SMILES>  (21) 
CCN(CC)CCOCCOCC[NH2+]c1c2ccccc2[n+](C)c2cc(OC)ccc12

>  <Energy>  (21) 
91.20235718095566

>  <Genealogy>  (21) 
CCN(CC)CCOCCOCC[NH2+]c1c2ccccc2[n+](C)c2cc(OC)ccc12 (protonated)
CCN(CC)CCOCCOCC[NH2+]c1c2ccccc2[n+](C)c2cc(OC)ccc12 (3D coordinates assigned)
CCN(CC)CCOCCOCC[NH2+]c1c2ccccc2[n+](C)c2cc(OC)ccc12 (optimized conformer: 91.20235718095566 kcal/mol)

>  <smiles>  (21) 
CCN(CC)CCOCCOCCNc1c2ccccc2[n+](C)c2cc(OC)ccc12

>  <score_type>  (21) 
oracle

>  <origin>  (21) 
adg

>  <m_score__min__energy>  (21) 
-3.4199999999999999

>  <m_primary>  (21) 
energy

$$$$
21:0
     RDKit          3D

 52 52  0  0  0  0  0  0  0  0999 V2000
   59.2690   35.1860   45.2770 C   0  0  0  0  0  0  0  0  0  0  0  0
   58.9630   33.9090   44.4950 C   0  0  0  0  0  0  0  0  0  0  0  0
   58.4720   32.8310   45.3930 N   0  0  0  0  0  0  0  0  0  0  0  0
   57.3500   32.1120   44.7420 C   0  0  0  0  0  0  0  0  0  0  0  0
   57.7820   31.5630   43.3850 C   0  0  0  0  0  0  0  0  0  0  0  0
   58.0690   33.3970   46.7090 C   0  0  0  0  0  0  0  0  0  0  0  0
   58.4130   32.5010   47.9380 C   0  0  1  0  0  0  0  0  0  0  0  0
   58.8960   31.0630   47.5830 C   0  0  0  0  0  0  0  0  0  0  0  0
   60.3190   30.8090   47.9470 N   0  0  1  0  0  0  0  0  0  0  0  0
   60.3790   29.7180   48.9400 C   0  0  0  0  0  0  0  0  0  0  0  0
   61.1630   30.4660   46.7650 C   0  0  0  0  0  0  0  0  0  0  0  0
   60.4180   29.5770   45.7650 C   0  0  0  0  0  0  0  0  0  0  0  0
   59.2470   33.1730   48.9600 N   0  0  0  0  0  0  0  0  0  0  0  0
   60.0230   34.3380   48.5090 C   0  0  0  0  0  0  0  0  0  0  0  0
   61.4520   33.9300   48.2710 C   0  0  0  0  0  0  0  0  0  0  0  0
   61.9410   33.8200   46.9580 C   0  0  0  0  0  0  0  0  0  0  0  0
   63.2720   33.4580   46.7290 C   0  0  0  0  0  0  0  0  0  0  0  0
   64.1240   33.2040   47.8070 C   0  0  0  0  0  0  0  0  0  0  0  0
   63.6460   33.3090   49.1160 C   0  0  0  0  0  0  0  0  0  0  0  0
   62.3150   33.6700   49.3490 C   0  0  0  0  0  0  0  0  0  0  0  0
   59.2188   34.9763   46.3557 H   0  0  0  0  0  0  0  0  0  0  0  0
   60.2777   35.5411   45.0191 H   0  0  0  0  0  0  0  0  0  0  0  0
   58.5308   35.9597   45.0191 H   0  0  0  0  0  0  0  0  0  0  0  0
   58.1920   34.1264   43.7411 H   0  0  0  0  0  0  0  0  0  0  0  0
   59.8908   33.5652   44.0144 H   0  0  0  0  0  0  0  0  0  0  0  0
   57.0327   31.2781   45.3854 H   0  0  0  0  0  0  0  0  0  0  0  0
   56.5167   32.8143   44.5925 H   0  0  0  0  0  0  0  0  0  0  0  0
   58.4560   30.7065   43.5337 H   0  0  0  0  0  0  0  0  0  0  0  0
   56.8949   31.2380   42.8216 H   0  0  0  0  0  0  0  0  0  0  0  0
   58.3065   32.3488   42.8216 H   0  0  0  0  0  0  0  0  0  0  0  0
   58.5786   34.3635   46.8366 H   0  0  0  0  0  0  0  0  0  0  0  0
   56.9727   33.4846   46.6863 H   0  0  0  0  0  0  0  0  0  0  0  0
   57.4388   32.3435   48.4240 H   0  0  0  0  0  0  0  0  0  0  0  0
   58.2644   30.3405   48.1207 H   0  0  0  0  0  0  0  0  0  0  0  0
   58.8160   30.9541   46.4913 H   0  0  0  0  0  0  0  0  0  0  0  0
   60.6950   31.6570   48.4340 H   0  0  0  0  0  0  0  0  0  0  0  0
   60.3556   30.1435   49.9541 H   0  0  0  0  0  0  0  0  0  0  0  0
   59.5163   29.0495   48.8029 H   0  0  0  0  0  0  0  0  0  0  0  0
   61.3098   29.1482   48.8029 H   0  0  0  0  0  0  0  0  0  0  0  0
   61.4607   31.3965   46.2595 H   0  0  0  0  0  0  0  0  0  0  0  0
   62.0409   29.9096   47.1251 H   0  0  0  0  0  0  0  0  0  0  0  0
   59.8047   28.8451   46.3110 H   0  0  0  0  0  0  0  0  0  0  0  0
   59.7687   30.2005   45.1328 H   0  0  0  0  0  0  0  0  0  0  0  0
   61.1455   29.0468   45.1328 H   0  0  0  0  0  0  0  0  0  0  0  0
   58.6270   33.4720   49.7500 H   0  0  0  0  0  0  0  0  0  0  0  0
   59.5921   34.7254   47.5740 H   0  0  0  0  0  0  0  0  0  0  0  0
   59.9899   35.1207   49.2812 H   0  0  0  0  0  0  0  0  0  0  0  0
   61.2736   34.0196   46.1067 H   0  0  0  0  0  0  0  0  0  0  0  0
   63.6488   33.3731   45.6991 H   0  0  0  0  0  0  0  0  0  0  0  0
   65.1714   32.9213   47.6252 H   0  0  0  0  0  0  0  0  0  0  0  0
   64.3172   33.1075   49.9639 H   0  0  0  0  0  0  0  0  0  0  0  0
   61.9421   33.7507   50.3807 H   0  0  0  0  0  0  0  0  0  0  0  0
  1  2  1  0
  2  3  1  0
  3  4  1  0
  4  5  1  0
  3  6  1  0
  6  7  1  0
  7  8  1  0
  8  9  1  0
  9 10  1  0
  9 11  1  0
 11 12  1  0
  7 13  1  0
 13 14  1  0
 14 15  1  0
 15 16  2  0
 16 17  1  0
 17 18  2  0
 18 19  1  0
 19 20  2  0
 20 15  1  0
  1 21  1  0
  1 22  1  0
  1 23  1  0
  2 24  1  0
  2 25  1  0
  4 26  1  0
  4 27  1  0
  5 28  1  0
  5 29  1  0
  5 30  1  0
  6 31  1  0
  6 32  1  0
  7 33  1  1
  8 34  1  0
  8 35  1  0
  9 36  1  1
 10 37  1  0
 10 38  1  0
 10 39  1  0
 11 40  1  0
 11 41  1  0
 12 42  1  0
 12 43  1  0
 12 44  1  0
 13 45  1  0
 14 46  1  0
 14 47  1  0
 16 48  1  0
 17 49  1  0
 18 50  1  0
 19 51  1  0
 20 52  1  0
M  CHG  1   9   1
M  END
>  <UniqueID>  (22) 
22

>  <SMILES>  (22) 
CCN(CC)C[C@@H](C[N@@H+](C)CC)NCc1ccccc1

>  <Energy>  (22) 
57.77333975863005

>  <Genealogy>  (22) 
CCN(CC)CC(C[NH+](C)CC)NCc1ccccc1 (protonated)
CCN(CC)C[C@@H](C[N@@H+](C)CC)NCc1ccccc1 (chirality)
CCN(CC)C[C@@H](C[N@@H+](C)CC)NCc1ccccc1 (3D coordinates assigned)
CCN(CC)C[C@@H](C[N@@H+](C)CC)NCc1ccccc1 (optimized conformer: 57.77333975863005 kcal/mol)

>  <smiles>  (22) 
CCN(C)CC(CN(CC)CC)NCc1ccccc1

>  <score_type>  (22) 
oracle

>  <origin>  (22) 
adg

>  <m_score__min__energy>  (22) 
-3.9700000000000002

>  <m_primary>  (22) 
energy

$$$$
22:0
     RDKit          3D

 35 37  0  0  0  0  0  0  0  0999 V2000
   59.5180   34.5870   48.0900 C   0  0  0  0  0  0  0  0  0  0  0  0
   59.0200   33.9580   46.8230 C   0  0  0  0  0  0  0  0  0  0  0  0
   59.3900   34.5020   45.5660 C   0  0  0  0  0  0  0  0  0  0  0  0
   58.9580   33.9000   44.3700 C   0  0  0  0  0  0  0  0  0  0  0  0
   58.1720   32.7520   44.4710 C   0  0  0  0  0  0  0  0  0  0  0  0
   57.8240   32.2180   45.6760 C   0  0  0  0  0  0  0  0  0  0  0  0
   58.2320   32.7870   46.8790 C   0  0  0  0  0  0  0  0  0  0  0  0
   57.0620   31.1210   45.5050 N   0  0  0  0  0  0  0  0  0  0  0  0
   56.9660   31.0260   44.1530 C   0  0  0  0  0  0  0  0  0  0  0  0
   56.0040   29.7410   43.3480 S   0  0  0  0  0  0  0  0  0  0  0  0
   57.3940   28.5600   43.2310 C   0  0  0  0  0  0  0  0  0  0  0  0
   58.1080   28.4250   44.5500 C   0  0  0  0  0  0  0  0  0  0  0  0
   59.4640   28.7790   44.6570 C   0  0  0  0  0  0  0  0  0  0  0  0
   60.1210   28.6890   45.8880 C   0  0  0  0  0  0  0  0  0  0  0  0
   59.4310   28.2440   47.0190 C   0  0  0  0  0  0  0  0  0  0  0  0
   58.0830   27.8910   46.9210 C   0  0  0  0  0  0  0  0  0  0  0  0
   57.4200   27.9800   45.6940 C   0  0  0  0  0  0  0  0  0  0  0  0
   56.1070   27.6440   45.6210 F   0  0  0  0  0  0  0  0  0  0  0  0
   57.6420   32.0030   43.4920 N   0  0  0  0  0  0  0  0  0  0  0  0
   57.7610   32.2190   42.0510 C   0  0  0  0  0  0  0  0  0  0  0  0
   59.0959   34.0538   48.9546 H   0  0  0  0  0  0  0  0  0  0  0  0
   60.6159   34.5268   48.1224 H   0  0  0  0  0  0  0  0  0  0  0  0
   59.2075   35.6418   48.1224 H   0  0  0  0  0  0  0  0  0  0  0  0
   60.0203   35.4026   45.5261 H   0  0  0  0  0  0  0  0  0  0  0  0
   59.2303   34.3196   43.3903 H   0  0  0  0  0  0  0  0  0  0  0  0
   57.9496   32.3388   47.8431 H   0  0  0  0  0  0  0  0  0  0  0  0
   57.0041   27.5758   42.9319 H   0  0  0  0  0  0  0  0  0  0  0  0
   58.1093   28.9375   42.4854 H   0  0  0  0  0  0  0  0  0  0  0  0
   60.0106   29.1283   43.7686 H   0  0  0  0  0  0  0  0  0  0  0  0
   61.1820   28.9687   45.9663 H   0  0  0  0  0  0  0  0  0  0  0  0
   59.9495   28.1717   47.9864 H   0  0  0  0  0  0  0  0  0  0  0  0
   57.5416   27.5418   47.8126 H   0  0  0  0  0  0  0  0  0  0  0  0
   58.2841   33.1685   41.8645 H   0  0  0  0  0  0  0  0  0  0  0  0
   58.3309   31.3921   41.6021 H   0  0  0  0  0  0  0  0  0  0  0  0
   56.7576   32.2589   41.6021 H   0  0  0  0  0  0  0  0  0  0  0  0
  1  2  1  0
  2  3  2  0
  3  4  1  0
  4  5  2  0
  5  6  1  0
  6  7  2  0
  6  8  1  0
  8  9  2  0
  9 10  1  0
 10 11  1  0
 11 12  1  0
 12 13  2  0
 13 14  1  0
 14 15  2  0
 15 16  1  0
 16 17  2  0
 17 18  1  0
  9 19  1  0
 19 20  1  0
  7  2  1  0
 17 12  1  0
 19  5  1  0
  1 21  1  0
  1 22  1  0
  1 23  1  0
  3 24  1  0
  4 25  1  0
  7 26  1  0
 11 27  1  0
 11 28  1  0
 13 29  1  0
 14 30  1  0
 15 31  1  0
 16 32  1  0
 20 33  1  0
 20 34  1  0
 20 35  1  0
M  END
>  <UniqueID>  (23) 
23

>  <SMILES>  (23) 
Cc1ccc2c(c1)nc(SCc1ccccc1F)n2C

>  <Energy>  (23) 
67.84170012240548

>  <Genealogy>  (23) 
Cc1ccc2c(c1)nc(SCc1ccccc1F)n2C (3D coordinates assigned)
Cc1ccc2c(c1)nc(SCc1ccccc1F)n2C (optimized conformer: 67.84170012240548 kcal/mol)

>  <smiles>  (23) 
Cc1ccc2c(c1)nc(SCc1ccccc1F)n2C

>  <score_type>  (23) 
oracle

>  <origin>  (23) 
adg

>  <m_score__min__energy>  (23) 
-7.9199999999999999

>  <m_primary>  (23) 
energy

$$$$
23:0
     RDKit          3D

 22 22  0  0  0  0  0  0  0  0999 V2000
   57.7740   28.0050   44.1430 C   0  0  0  0  0  0  0  0  0  0  0  0
   56.9950   28.5850   45.3190 C   0  0  0  0  0  0  0  0  0  0  0  0
   55.7580   29.1110   44.8750 O   0  0  0  0  0  0  0  0  0  0  0  0
   55.9030   29.7180   43.6090 C   0  0  0  0  0  0  0  0  0  0  0  0
   56.7180   30.9590   43.7600 C   0  0  0  0  0  0  0  0  0  0  0  0
   57.4340   31.5810   42.7610 C   0  0  0  0  0  0  0  0  0  0  0  0
   57.9800   32.6930   43.2750 N   0  0  0  0  0  0  0  0  0  0  0  0
   57.5690   32.7310   44.5580 C   0  0  0  0  0  0  0  0  0  0  0  0
   57.9840   33.7880   45.5250 C   0  0  0  0  0  0  0  0  0  0  0  0
   56.7920   31.6790   44.8980 N   0  0  0  0  0  0  0  0  0  0  0  0
   58.6027   27.3880   44.5207 H   0  0  0  0  0  0  0  0  0  0  0  0
   57.1042   27.3839   43.5301 H   0  0  0  0  0  0  0  0  0  0  0  0
   58.1769   28.8247   43.5301 H   0  0  0  0  0  0  0  0  0  0  0  0
   56.8082   27.7916   46.0576 H   0  0  0  0  0  0  0  0  0  0  0  0
   57.5849   29.3930   45.7764 H   0  0  0  0  0  0  0  0  0  0  0  0
   56.4101   29.0241   42.9224 H   0  0  0  0  0  0  0  0  0  0  0  0
   54.9133   29.9689   43.1997 H   0  0  0  0  0  0  0  0  0  0  0  0
   57.5394   31.2280   41.7245 H   0  0  0  0  0  0  0  0  0  0  0  0
   58.5910   33.3820   42.7820 H   0  0  0  0  0  0  0  0  0  0  0  0
   57.8403   33.4220   46.5523 H   0  0  0  0  0  0  0  0  0  0  0  0
   59.0449   34.0326   45.3679 H   0  0  0  0  0  0  0  0  0  0  0  0
   57.3729   34.6890   45.3679 H   0  0  0  0  0  0  0  0  0  0  0  0
  1  2  1  0
  2  3  1  0
  3  4  1  0
  4  5  1  0
  5  6  2  0
  6  7  1  0
  7  8  1  0
  8  9  1  0
  8 10  2  0
 10  5  1  0
  1 11  1  0
  1 12  1  0
  1 13  1  0
  2 14  1  0
  2 15  1  0
  4 16  1  0
  4 17  1  0
  6 18  1  0
  7 19  1  0
  9 20  1  0
  9 21  1  0
  9 22  1  0
M  END
>  <UniqueID>  (24) 
24

>  <SMILES>  (24) 
CCOCc1c[nH]c(C)n1

>  <Energy>  (24) 
45.06315325237205

>  <Genealogy>  (24) 
CCOCc1c[nH]c(C)n1 (3D coordinates assigned)
CCOCc1c[nH]c(C)n1 (optimized conformer: 45.06315325237205 kcal/mol)

>  <smiles>  (24) 
CCOCc1c[nH]c(C)n1

>  <score_type>  (24) 
oracle

>  <origin>  (24) 
adg

>  <m_score__min__energy>  (24) 
-4.3700000000000001

>  <m_primary>  (24) 
energy

$$$$
24:0
     RDKit          3D

 48 48  0  0  0  0  0  0  0  0999 V2000
   63.3280   33.8150   46.5870 C   0  0  0  0  0  0  0  0  0  0  0  0
   62.8260   32.4720   47.1120 C   0  0  0  0  0  0  0  0  0  0  0  0
   62.6190   32.5340   48.5800 N   0  0  0  0  0  0  0  0  0  0  0  0
   63.7620   31.9540   49.3300 C   0  0  0  0  0  0  0  0  0  0  0  0
   64.8620   32.9870   49.5660 C   0  0  0  0  0  0  0  0  0  0  0  0
   62.2280   33.9020   49.0220 C   0  0  0  0  0  0  0  0  0  0  0  0
   60.7600   34.0050   49.5060 C   0  0  0  0  0  0  0  0  0  0  0  0
   59.6810   32.8240   48.7000 S   0  0  0  0  0  0  0  0  0  0  0  0
   60.1000   31.2040   48.8590 O   0  0  0  0  0  0  0  0  0  0  0  0
   59.2350   33.3060   47.0660 C   0  0  0  0  0  0  0  0  0  0  0  0
   59.6390   34.5640   46.5980 C   0  0  0  0  0  0  0  0  0  0  0  0
   59.2670   34.9970   45.3220 C   0  0  0  0  0  0  0  0  0  0  0  0
   58.4850   34.1780   44.5060 C   0  0  0  0  0  0  0  0  0  0  0  0
   58.0820   32.9190   44.9570 C   0  0  0  0  0  0  0  0  0  0  0  0
   58.4450   32.4660   46.2400 C   0  0  0  0  0  0  0  0  0  0  0  0
   58.0720   31.1300   46.6510 N   0  0  0  0  0  0  0  0  0  0  0  0
   58.7330   30.1410   45.7880 C   0  0  0  0  0  0  0  0  0  0  0  0
   57.7260   29.4260   44.8730 C   0  0  0  0  0  0  0  0  0  0  0  0
   56.4690   30.0700   44.8820 O   0  0  0  0  0  0  0  0  0  0  0  0
   55.9150   30.0860   43.5870 C   0  0  0  0  0  0  0  0  0  0  0  0
   63.5734   34.4715   47.4348 H   0  0  0  0  0  0  0  0  0  0  0  0
   64.2274   33.6560   45.9740 H   0  0  0  0  0  0  0  0  0  0  0  0
   62.5448   34.2850   45.9740 H   0  0  0  0  0  0  0  0  0  0  0  0
   61.8727   32.2249   46.6219 H   0  0  0  0  0  0  0  0  0  0  0  0
   63.5770   31.6995   46.8903 H   0  0  0  0  0  0  0  0  0  0  0  0
   63.4017   31.5877   50.3026 H   0  0  0  0  0  0  0  0  0  0  0  0
   64.1841   31.1324   48.7326 H   0  0  0  0  0  0  0  0  0  0  0  0
   65.0093   33.1253   50.6473 H   0  0  0  0  0  0  0  0  0  0  0  0
   65.7993   32.6351   49.1103 H   0  0  0  0  0  0  0  0  0  0  0  0
   64.5696   33.9446   49.1103 H   0  0  0  0  0  0  0  0  0  0  0  0
   62.8881   34.2014   49.8494 H   0  0  0  0  0  0  0  0  0  0  0  0
   62.3249   34.5620   48.1474 H   0  0  0  0  0  0  0  0  0  0  0  0
   60.7335   33.8226   50.5905 H   0  0  0  0  0  0  0  0  0  0  0  0
   60.3971   35.0123   49.2535 H   0  0  0  0  0  0  0  0  0  0  0  0
   61.0540   31.2080   49.1340 H   0  0  0  0  0  0  0  0  0  0  0  0
   60.2525   35.2144   47.2387 H   0  0  0  0  0  0  0  0  0  0  0  0
   59.5909   35.9842   44.9606 H   0  0  0  0  0  0  0  0  0  0  0  0
   58.1855   34.5247   43.5059 H   0  0  0  0  0  0  0  0  0  0  0  0
   57.4751   32.2750   44.3036 H   0  0  0  0  0  0  0  0  0  0  0  0
   57.0320   31.0170   46.5820 H   0  0  0  0  0  0  0  0  0  0  0  0
   58.3260   30.9710   47.6520 H   0  0  0  0  0  0  0  0  0  0  0  0
   59.4802   30.6539   45.1646 H   0  0  0  0  0  0  0  0  0  0  0  0
   59.2094   29.3866   46.4314 H   0  0  0  0  0  0  0  0  0  0  0  0
   58.1178   29.4216   43.8451 H   0  0  0  0  0  0  0  0  0  0  0  0
   57.5902   28.3999   45.2453 H   0  0  0  0  0  0  0  0  0  0  0  0
   54.8177   30.1177   43.6580 H   0  0  0  0  0  0  0  0  0  0  0  0
   56.2732   30.9742   43.0459 H   0  0  0  0  0  0  0  0  0  0  0  0
   56.2214   29.1786   43.0459 H   0  0  0  0  0  0  0  0  0  0  0  0
  1  2  1  0
  2  3  1  0
  3  4  1  0
  4  5  1  0
  3  6  1  0
  6  7  1  0
  7  8  1  0
  8  9  1  6
  8 10  1  0
 10 11  2  0
 11 12  1  0
 12 13  2  0
 13 14  1  0
 14 15  2  0
 15 16  1  0
 16 17  1  0
 17 18  1  0
 18 19  1  0
 19 20  1  0
 15 10  1  0
  1 21  1  0
  1 22  1  0
  1 23  1  0
  2 24  1  0
  2 25  1  0
  4 26  1  0
  4 27  1  0
  5 28  1  0
  5 29  1  0
  5 30  1  0
  6 31  1  0
  6 32  1  0
  7 33  1  0
  7 34  1  0
  9 35  1  0
 11 36  1  0
 12 37  1  0
 13 38  1  0
 14 39  1  0
 16 40  1  0
 16 41  1  0
 17 42  1  0
 17 43  1  0
 18 44  1  0
 18 45  1  0
 20 46  1  0
 20 47  1  0
 20 48  1  0
M  CHG  2   8   1  16   1
M  END
>  <UniqueID>  (25) 
25

>  <SMILES>  (25) 
CCN(CC)CC[S@+](O)c1ccccc1[NH2+]CCOC

>  <Energy>  (25) 
46.652223855516795

>  <Genealogy>  (25) 
CCN(CC)CC[S+](O)c1ccccc1[NH2+]CCOC (protonated)
CCN(CC)CC[S@+](O)c1ccccc1[NH2+]CCOC (chirality)
CCN(CC)CC[S@+](O)c1ccccc1[NH2+]CCOC (3D coordinates assigned)
CCN(CC)CC[S@+](O)c1ccccc1[NH2+]CCOC (optimized conformer: 46.652223855516795 kcal/mol)

>  <smiles>  (25) 
CCN(CC)CC[S+]([O-])c1ccccc1NCCOC

>  <score_type>  (25) 
oracle

>  <origin>  (25) 
adg

>  <m_score__min__energy>  (25) 
-2.73

>  <m_primary>  (25) 
energy

$$$$
25:0
     RDKit          3D

 38 39  0  0  0  0  0  0  0  0999 V2000
   56.0590   29.8050   44.5250 O   0  0  0  0  0  0  0  0  0  0  0  0
   57.0360   29.7210   45.3170 C   0  0  0  0  0  0  0  0  0  0  0  0
   57.2520   28.4210   46.0510 C   0  0  0  0  0  0  0  0  0  0  0  0
   58.1450   27.4120   45.3300 C   0  0  0  0  0  0  0  0  0  0  0  0
   59.9080   27.7440   45.6690 S   0  0  0  0  0  0  0  0  0  0  0  0
   59.9670   29.4090   44.9060 C   0  0  0  0  0  0  0  0  0  0  0  0
   59.3620   30.5290   45.7670 C   0  0  0  0  0  0  0  0  0  0  0  0
   57.9690   30.8160   45.4000 N   0  0  0  0  0  0  0  0  0  0  0  0
   57.4480   32.1860   45.5020 C   0  0  0  0  0  0  0  0  0  0  0  0
   57.8130   32.8160   46.8590 C   0  0  0  0  0  0  0  0  0  0  0  0
   58.0450   34.2640   46.7690 N   0  0  0  0  0  0  0  0  0  0  0  0
   59.5750   34.6560   46.0250 S   0  0  0  0  0  0  0  0  0  0  0  0
   59.6390   36.1420   45.8070 O   0  0  0  0  0  0  0  0  0  0  0  0
   59.6670   33.9820   44.6840 O   0  0  0  0  0  0  0  0  0  0  0  0
   60.9480   34.1790   47.0270 C   0  0  0  0  0  0  0  0  0  0  0  0
   62.1810   33.8510   46.4410 C   0  0  0  0  0  0  0  0  0  0  0  0
   63.2480   33.4310   47.2400 C   0  0  0  0  0  0  0  0  0  0  0  0
   63.0870   33.3230   48.6250 C   0  0  0  0  0  0  0  0  0  0  0  0
   64.5390   32.7230   49.7100 Br  0  0  0  0  0  0  0  0  0  0  0  0
   61.8600   33.6460   49.2130 C   0  0  0  0  0  0  0  0  0  0  0  0
   60.7940   34.0750   48.4160 C   0  0  0  0  0  0  0  0  0  0  0  0
   57.7127   28.6506   47.0231 H   0  0  0  0  0  0  0  0  0  0  0  0
   56.2623   27.9487   46.1369 H   0  0  0  0  0  0  0  0  0  0  0  0
   57.8962   26.3983   45.6770 H   0  0  0  0  0  0  0  0  0  0  0  0
   57.9724   27.5005   44.2472 H   0  0  0  0  0  0  0  0  0  0  0  0
   61.0199   29.6588   44.7085 H   0  0  0  0  0  0  0  0  0  0  0  0
   59.3576   29.3548   43.9918 H   0  0  0  0  0  0  0  0  0  0  0  0
   59.3947   30.2219   46.8228 H   0  0  0  0  0  0  0  0  0  0  0  0
   59.9519   31.4421   45.5988 H   0  0  0  0  0  0  0  0  0  0  0  0
   57.8795   32.7959   44.6946 H   0  0  0  0  0  0  0  0  0  0  0  0
   56.3520   32.1513   45.4153 H   0  0  0  0  0  0  0  0  0  0  0  0
   56.9882   32.6351   47.5640 H   0  0  0  0  0  0  0  0  0  0  0  0
   58.7496   32.3505   47.1997 H   0  0  0  0  0  0  0  0  0  0  0  0
   57.2820   34.7050   46.2060 H   0  0  0  0  0  0  0  0  0  0  0  0
   62.3075   33.9247   45.3508 H   0  0  0  0  0  0  0  0  0  0  0  0
   64.2159   33.1850   46.7788 H   0  0  0  0  0  0  0  0  0  0  0  0
   61.7334   33.5626   50.3025 H   0  0  0  0  0  0  0  0  0  0  0  0
   59.8309   34.3318   48.8812 H   0  0  0  0  0  0  0  0  0  0  0  0
  1  2  2  0
  2  3  1  0
  3  4  1  0
  4  5  1  0
  5  6  1  0
  6  7  1  0
  7  8  1  0
  8  9  1  0
  9 10  1  0
 10 11  1  0
 11 12  1  0
 12 13  2  0
 12 14  2  0
 12 15  1  0
 15 16  2  0
 16 17  1  0
 17 18  2  0
 18 19  1  0
 18 20  1  0
 20 21  2  0
  8  2  1  0
 21 15  1  0
  3 22  1  0
  3 23  1  0
  4 24  1  0
  4 25  1  0
  6 26  1  0
  6 27  1  0
  7 28  1  0
  7 29  1  0
  9 30  1  0
  9 31  1  0
 10 32  1  0
 10 33  1  0
 11 34  1  0
 16 35  1  0
 17 36  1  0
 20 37  1  0
 21 38  1  0
M  END
>  <UniqueID>  (26) 
26

>  <SMILES>  (26) 
O=C1CCSCCN1CCNS(=O)(=O)c1ccc(Br)cc1

>  <Energy>  (26) 
38.71612512503489

>  <Genealogy>  (26) 
O=C1CCSCCN1CCNS(=O)(=O)c1ccc(Br)cc1 (3D coordinates assigned)
O=C1CCSCCN1CCNS(=O)(=O)c1ccc(Br)cc1 (nonaromatic ring conformer: 38.71612512503489 kcal/mol)

>  <smiles>  (26) 
O=C1CCSCCN1CCNS(=O)(=O)c1ccc(Br)cc1

>  <score_type>  (26) 
oracle

>  <origin>  (26) 
adg

>  <m_score__min__energy>  (26) 
-6.7699999999999996

>  <m_primary>  (26) 
energy

$$$$
26:0
     RDKit          3D

 52 54  0  0  0  0  0  0  0  0999 V2000
   62.9340   31.6320   48.8090 C   0  0  0  0  0  0  0  0  0  0  0  0
   63.1700   33.0730   49.2470 C   0  0  0  0  0  0  0  0  0  0  0  0
   62.1650   33.9760   48.6300 N   0  0  0  0  0  0  0  0  0  0  0  0
   61.9520   33.5950   47.2090 C   0  0  0  0  0  0  0  0  0  0  0  0
   63.2010   33.8560   46.3730 C   0  0  0  0  0  0  0  0  0  0  0  0
   60.8770   33.9170   49.3650 C   0  0  0  0  0  0  0  0  0  0  0  0
   59.6530   34.1630   48.4600 C   0  0  0  0  0  0  0  0  0  0  0  0
   58.7600   33.0030   48.3390 N   0  0  0  0  0  0  0  0  0  0  0  0
   58.9900   31.8770   47.4660 C   0  0  0  0  0  0  0  0  0  0  0  0
   59.4460   30.6590   48.0080 C   0  0  0  0  0  0  0  0  0  0  0  0
   59.6950   30.5320   49.3930 C   0  0  0  0  0  0  0  0  0  0  0  0
   60.0890   29.3100   49.9480 C   0  0  0  0  0  0  0  0  0  0  0  0
   60.2880   29.1800   51.4300 C   0  0  0  0  0  0  0  0  0  0  0  0
   60.1960   28.1890   49.1270 C   0  0  0  0  0  0  0  0  0  0  0  0
   59.9630   28.2920   47.7570 C   0  0  0  0  0  0  0  0  0  0  0  0
   59.6180   29.5310   47.1600 C   0  0  0  0  0  0  0  0  0  0  0  0
   59.4110   29.6470   45.7980 N   0  0  0  0  0  0  0  0  0  0  0  0
   59.8360   28.5550   44.8920 C   0  0  0  0  0  0  0  0  0  0  0  0
   58.8550   30.7990   45.2750 C   0  0  0  0  0  0  0  0  0  0  0  0
   58.4040   30.8670   43.9320 C   0  0  0  0  0  0  0  0  0  0  0  0
   57.9680   32.0710   43.3800 C   0  0  0  0  0  0  0  0  0  0  0  0
   57.4290   32.1270   41.7120 Cl  0  0  0  0  0  0  0  0  0  0  0  0
   57.9790   33.2320   44.1440 C   0  0  0  0  0  0  0  0  0  0  0  0
   58.3580   33.1810   45.4830 C   0  0  0  0  0  0  0  0  0  0  0  0
   58.7240   31.9600   46.0850 C   0  0  0  0  0  0  0  0  0  0  0  0
   62.8291   30.9914   49.6970 H   0  0  0  0  0  0  0  0  0  0  0  0
   62.0150   31.5776   48.2070 H   0  0  0  0  0  0  0  0  0  0  0  0
   63.7877   31.2873   48.2070 H   0  0  0  0  0  0  0  0  0  0  0  0
   63.0892   33.1362   50.3422 H   0  0  0  0  0  0  0  0  0  0  0  0
   64.1740   33.3835   48.9220 H   0  0  0  0  0  0  0  0  0  0  0  0
   61.7038   32.5246   47.1582 H   0  0  0  0  0  0  0  0  0  0  0  0
   61.1299   34.2042   46.8052 H   0  0  0  0  0  0  0  0  0  0  0  0
   64.0576   34.0350   47.0395 H   0  0  0  0  0  0  0  0  0  0  0  0
   63.4068   32.9815   45.7383 H   0  0  0  0  0  0  0  0  0  0  0  0
   63.0393   34.7398   45.7383 H   0  0  0  0  0  0  0  0  0  0  0  0
   60.7800   32.9212   49.8222 H   0  0  0  0  0  0  0  0  0  0  0  0
   60.8930   34.7168   50.1201 H   0  0  0  0  0  0  0  0  0  0  0  0
   59.0766   35.0018   48.8773 H   0  0  0  0  0  0  0  0  0  0  0  0
   60.0386   34.3758   47.4520 H   0  0  0  0  0  0  0  0  0  0  0  0
   57.8270   33.0720   48.8040 H   0  0  0  0  0  0  0  0  0  0  0  0
   59.5770   31.4093   50.0461 H   0  0  0  0  0  0  0  0  0  0  0  0
   59.4793   29.7083   51.9563 H   0  0  0  0  0  0  0  0  0  0  0  0
   60.2740   28.1163   51.7099 H   0  0  0  0  0  0  0  0  0  0  0  0
   61.2565   29.6201   51.7099 H   0  0  0  0  0  0  0  0  0  0  0  0
   60.4663   27.2161   49.5634 H   0  0  0  0  0  0  0  0  0  0  0  0
   60.0484   27.3947   47.1264 H   0  0  0  0  0  0  0  0  0  0  0  0
   60.1713   27.6935   45.4882 H   0  0  0  0  0  0  0  0  0  0  0  0
   58.9892   28.2545   44.2575 H   0  0  0  0  0  0  0  0  0  0  0  0
   60.6632   28.9060   44.2575 H   0  0  0  0  0  0  0  0  0  0  0  0
   58.3981   29.9556   43.3162 H   0  0  0  0  0  0  0  0  0  0  0  0
   57.6883   34.1913   43.6909 H   0  0  0  0  0  0  0  0  0  0  0  0
   58.3720   34.1056   46.0788 H   0  0  0  0  0  0  0  0  0  0  0  0
  1  2  1  0
  2  3  1  0
  3  4  1  0
  4  5  1  0
  3  6  1  0
  6  7  1  0
  7  8  1  0
  8  9  1  0
  9 10  2  0
 10 11  1  0
 11 12  2  0
 12 13  1  0
 12 14  1  0
 14 15  2  0
 15 16  1  0
 16 17  2  0
 17 18  1  0
 17 19  1  0
 19 20  2  0
 20 21  1  0
 21 22  1  0
 21 23  2  0
 23 24  1  0
 24 25  2  0
 25  9  1  0
 16 10  1  0
 25 19  1  0
  1 26  1  0
  1 27  1  0
  1 28  1  0
  2 29  1  0
  2 30  1  0
  4 31  1  0
  4 32  1  0
  5 33  1  0
  5 34  1  0
  5 35  1  0
  6 36  1  0
  6 37  1  0
  7 38  1  0
  7 39  1  0
  8 40  1  0
 11 41  1  0
 13 42  1  0
 13 43  1  0
 13 44  1  0
 14 45  1  0
 15 46  1  0
 18 47  1  0
 18 48  1  0
 18 49  1  0
 20 50  1  0
 23 51  1  0
 24 52  1  0
M  CHG  1  17   1
M  END
>  <UniqueID>  (27) 
27

>  <SMILES>  (27) 
CCN(CC)CCNc1c2cc(C)ccc2[n+](C)c2cc(Cl)ccc12

>  <Energy>  (27) 
75.1895751738217

>  <Genealogy>  (27) 
CCN(CC)CCNc1c2cc(C)ccc2[n+](C)c2cc(Cl)ccc12 (3D coordinates assigned)
CCN(CC)CCNc1c2cc(C)ccc2[n+](C)c2cc(Cl)ccc12 (optimized conformer: 75.1895751738217 kcal/mol)

>  <smiles>  (27) 
CCN(CC)CCNc1c2cc(C)ccc2[n+](C)c2cc(Cl)ccc12

>  <score_type>  (27) 
oracle

>  <origin>  (27) 
adg

>  <m_score__min__energy>  (27) 
-6.1500000000000004

>  <m_primary>  (27) 
energy

$$$$
27:0
     RDKit          3D

 44 47  0  0  0  0  0  0  0  0999 V2000
   63.2980   33.8390   46.2990 C   0  0  0  0  0  0  0  0  0  0  0  0
   62.8770   34.0890   47.6350 O   0  0  0  0  0  0  0  0  0  0  0  0
   63.2730   33.3410   48.7560 C   0  0  0  0  0  0  0  0  0  0  0  0
   64.5110   32.7670   48.7190 N   0  0  0  0  0  0  0  0  0  0  0  0
   64.9930   32.0140   49.7420 C   0  0  0  0  0  0  0  0  0  0  0  0
   64.2260   31.8130   50.8850 C   0  0  0  0  0  0  0  0  0  0  0  0
   62.9690   32.4050   50.9740 C   0  0  0  0  0  0  0  0  0  0  0  0
   62.4690   33.1870   49.9190 C   0  0  0  0  0  0  0  0  0  0  0  0
   61.1380   33.8790   50.1020 C   0  0  0  0  0  0  0  0  0  0  0  0
   60.0760   33.1850   49.3720 N   0  0  0  0  0  0  0  0  0  0  0  0
   59.6920   33.5310   48.0280 C   0  0  0  0  0  0  0  0  0  0  0  0
   59.8210   34.8420   47.5190 C   0  0  0  0  0  0  0  0  0  0  0  0
   59.4110   35.1430   46.2090 C   0  0  0  0  0  0  0  0  0  0  0  0
   58.8820   34.1320   45.3980 C   0  0  0  0  0  0  0  0  0  0  0  0
   58.7990   32.8720   45.9050 N   0  0  0  0  0  0  0  0  0  0  0  0
   58.3180   31.7310   45.3740 C   0  0  0  0  0  0  0  0  0  0  0  0
   57.8190   31.5310   44.0000 C   0  0  0  0  0  0  0  0  0  0  0  0
   56.9080   30.5940   43.5460 C   0  0  0  0  0  0  0  0  0  0  0  0
   56.6550   30.8160   42.2410 N   0  0  0  0  0  0  0  0  0  0  0  0
   57.3840   31.8540   41.8640 N   0  0  0  0  0  0  0  0  0  0  0  0
   57.3250   32.4480   40.5360 C   0  0  0  0  0  0  0  0  0  0  0  0
   58.0850   32.3320   42.9080 C   0  0  0  0  0  0  0  0  0  0  0  0
   58.3860   30.7540   46.3540 C   0  0  0  0  0  0  0  0  0  0  0  0
   58.9210   31.2720   47.4840 N   0  0  0  0  0  0  0  0  0  0  0  0
   59.1580   32.5630   47.1650 C   0  0  0  0  0  0  0  0  0  0  0  0
   64.2437   33.2774   46.3116 H   0  0  0  0  0  0  0  0  0  0  0  0
   62.5293   33.2509   45.7763 H   0  0  0  0  0  0  0  0  0  0  0  0
   63.4464   34.7954   45.7763 H   0  0  0  0  0  0  0  0  0  0  0  0
   65.1070   32.8990   47.8710 H   0  0  0  0  0  0  0  0  0  0  0  0
   65.9929   31.5618   49.6662 H   0  0  0  0  0  0  0  0  0  0  0  0
   64.6084   31.1932   51.7094 H   0  0  0  0  0  0  0  0  0  0  0  0
   62.3612   32.2591   51.8792 H   0  0  0  0  0  0  0  0  0  0  0  0
   60.8861   33.8951   51.1727 H   0  0  0  0  0  0  0  0  0  0  0  0
   61.2204   34.9026   49.7076 H   0  0  0  0  0  0  0  0  0  0  0  0
   59.5670   32.4030   49.8460 H   0  0  0  0  0  0  0  0  0  0  0  0
   60.2459   35.6340   48.1532 H   0  0  0  0  0  0  0  0  0  0  0  0
   59.5053   36.1685   45.8225 H   0  0  0  0  0  0  0  0  0  0  0  0
   58.5415   34.3510   44.3752 H   0  0  0  0  0  0  0  0  0  0  0  0
   56.4607   29.7940   44.1542 H   0  0  0  0  0  0  0  0  0  0  0  0
   57.2167   33.5389   40.6268 H   0  0  0  0  0  0  0  0  0  0  0  0
   58.2506   32.2157   39.9890 H   0  0  0  0  0  0  0  0  0  0  0  0
   56.4631   32.0382   39.9890 H   0  0  0  0  0  0  0  0  0  0  0  0
   58.7521   33.2065   42.8938 H   0  0  0  0  0  0  0  0  0  0  0  0
   58.0545   29.7123   46.2318 H   0  0  0  0  0  0  0  0  0  0  0  0
  1  2  1  0
  2  3  1  0
  3  4  2  0
  4  5  1  0
  5  6  2  0
  6  7  1  0
  7  8  2  0
  8  9  1  0
  9 10  1  0
 10 11  1  0
 11 12  2  0
 12 13  1  0
 13 14  2  0
 14 15  1  0
 15 16  1  0
 16 17  1  0
 17 18  1  0
 18 19  2  0
 19 20  1  0
 20 21  1  0
 20 22  1  0
 16 23  2  0
 23 24  1  0
 24 25  2  0
  8  3  1  0
 25 11  1  0
 25 15  1  0
 22 17  2  0
  1 26  1  0
  1 27  1  0
  1 28  1  0
  4 29  1  0
  5 30  1  0
  6 31  1  0
  7 32  1  0
  9 33  1  0
  9 34  1  0
 10 35  1  0
 12 36  1  0
 13 37  1  0
 14 38  1  0
 18 39  1  0
 21 40  1  0
 21 41  1  0
 21 42  1  0
 22 43  1  0
 23 44  1  0
M  CHG  1   4   1
M  END
>  <UniqueID>  (28) 
28

>  <SMILES>  (28) 
COc1[nH+]cccc1CNc1cccn2c(-c3cnn(C)c3)cnc12

>  <Energy>  (28) 
122.5035731740457

>  <Genealogy>  (28) 
COc1[nH+]cccc1CNc1cccn2c(-c3cnn(C)c3)cnc12 (protonated)
COc1[nH+]cccc1CNc1cccn2c(-c3cnn(C)c3)cnc12 (3D coordinates assigned)
COc1[nH+]cccc1CNc1cccn2c(-c3cnn(C)c3)cnc12 (optimized conformer: 122.5035731740457 kcal/mol)

>  <smiles>  (28) 
COc1ncccc1CNc1cccn2c(-c3cnn(C)c3)cnc12

>  <score_type>  (28) 
oracle

>  <origin>  (28) 
adg

>  <m_score__min__energy>  (28) 
-6.4199999999999999

>  <m_primary>  (28) 
energy

$$$$
28:0
     RDKit          3D

 31 32  0  0  0  0  0  0  0  0999 V2000
   58.9217   35.0461   46.5547 H   0  0  0  0  0  0  0  0  0  0  0  0
   58.5750   34.0920   46.1310 C   0  0  0  0  0  0  0  0  0  0  0  0
   57.0600   33.8050   45.4570 S   0  0  0  0  0  0  0  0  0  0  0  0
   57.3960   32.1990   45.1100 C   0  0  0  0  0  0  0  0  0  0  0  0
   56.5460   31.4120   44.5160 N   0  0  0  0  0  0  0  0  0  0  0  0
   56.5090   29.9770   44.5240 C   0  0  0  0  0  0  0  0  0  0  0  0
   55.4750   29.3480   44.8740 O   0  0  0  0  0  0  0  0  0  0  0  0
   57.6780   29.2170   43.9850 C   0  0  0  0  0  0  0  0  0  0  0  0
   58.2141   29.8409   43.2547 H   0  0  0  0  0  0  0  0  0  0  0  0
   57.3204   28.2989   43.4958 H   0  0  0  0  0  0  0  0  0  0  0  0
   58.5820   28.8620   45.0760 N   0  0  0  0  0  0  0  0  0  0  0  0
   58.1890   29.2550   45.9630 H   0  0  0  0  0  0  0  0  0  0  0  0
   59.7630   29.4980   44.8560 O   0  0  0  0  0  0  0  0  0  0  0  0
   60.7690   28.5570   45.1320 C   0  0  0  0  0  0  0  0  0  0  0  0
   60.8828   28.4506   46.2209 H   0  0  0  0  0  0  0  0  0  0  0  0
   60.4924   27.5859   44.6956 H   0  0  0  0  0  0  0  0  0  0  0  0
   61.7195   28.8977   44.6956 H   0  0  0  0  0  0  0  0  0  0  0  0
   58.6550   31.8640   45.4850 N   0  0  0  0  0  0  0  0  0  0  0  0
   59.1060   30.9420   45.3070 H   0  0  0  0  0  0  0  0  0  0  0  0
   59.3170   32.9100   46.0600 C   0  0  0  0  0  0  0  0  0  0  0  0
   60.7120   32.7950   46.5560 C   0  0  0  0  0  0  0  0  0  0  0  0
   61.1450   31.6290   47.2180 C   0  0  0  0  0  0  0  0  0  0  0  0
   60.4453   30.7938   47.3691 H   0  0  0  0  0  0  0  0  0  0  0  0
   62.4600   31.5280   47.6840 C   0  0  0  0  0  0  0  0  0  0  0  0
   62.7900   30.6148   48.2009 H   0  0  0  0  0  0  0  0  0  0  0  0
   63.3550   32.5830   47.4950 C   0  0  0  0  0  0  0  0  0  0  0  0
   64.3885   32.5008   47.8627 H   0  0  0  0  0  0  0  0  0  0  0  0
   62.9370   33.7420   46.8390 C   0  0  0  0  0  0  0  0  0  0  0  0
   63.6430   34.5721   46.6891 H   0  0  0  0  0  0  0  0  0  0  0  0
   61.6240   33.8510   46.3720 C   0  0  0  0  0  0  0  0  0  0  0  0
   61.3015   34.7681   45.8573 H   0  0  0  0  0  0  0  0  0  0  0  0
  1  2  1  0
  2  3  1  0
  3  4  1  0
  4  5  2  0
  5  6  1  0
  6  7  2  0
  6  8  1  0
  8  9  1  0
  8 10  1  0
  8 11  1  0
 11 12  1  0
 11 13  1  0
 13 14  1  0
 14 15  1  0
 14 16  1  0
 14 17  1  0
  4 18  1  0
 18 19  1  0
 18 20  1  0
 20 21  1  0
 21 22  2  0
 22 23  1  0
 22 24  1  0
 24 25  1  0
 24 26  2  0
 26 27  1  0
 26 28  1  0
 28 29  1  0
 28 30  2  0
 30 31  1  0
 20  2  2  0
 30 21  1  0
M  END
>  <UniqueID>  (29) 
29

>  <SMILES>  (29) 
CONCC(=O)/N=c1\[nH]c(-c2ccccc2)cs1

>  <Energy>  (29) 
64.52012523775595

>  <Genealogy>  (29) 
CONCC(=O)/N=c1\[nH]c(-c2ccccc2)cs1 (cis-trans isomerization)
CONCC(=O)/N=c1\[nH]c(-c2ccccc2)cs1 (3D coordinates assigned)
CONCC(=O)/N=c1\[nH]c(-c2ccccc2)cs1 (optimized conformer: 64.52012523775595 kcal/mol)

>  <smiles>  (29) 
CONCC(=O)N=c1[nH]c(-c2ccccc2)cs1

>  <score_type>  (29) 
oracle

>  <origin>  (29) 
adg

>  <m_score__min__energy>  (29) 
-6.7000000000000002

>  <m_primary>  (29) 
energy

$$$$
29:0
     RDKit          3D

 74 77  0  0  0  0  0  0  0  0999 V2000
   56.6270   23.9980   43.4030 C   0  0  0  0  0  0  0  0  0  0  0  0
   57.7370   24.7250   44.1700 C   0  0  0  0  0  0  0  0  0  0  0  0
   57.3930   26.1320   44.4910 N   0  0  1  0  0  0  0  0  0  0  0  0
   56.6830   26.2020   45.7800 C   0  0  0  0  0  0  0  0  0  0  0  0
   58.5280   27.0950   44.4180 C   0  0  0  0  0  0  0  0  0  0  0  0
   59.4960   27.1210   45.6290 C   0  0  0  0  0  0  0  0  0  0  0  0
   60.0020   28.5260   46.0210 C   0  0  0  0  0  0  0  0  0  0  0  0
   58.9770   29.3010   46.7240 N   0  0  0  0  0  0  0  0  0  0  0  0
   58.9740   30.7350   46.6390 C   0  0  0  0  0  0  0  0  0  0  0  0
   58.6080   31.3800   45.4450 C   0  0  0  0  0  0  0  0  0  0  0  0
   58.1710   30.6380   44.3280 C   0  0  0  0  0  0  0  0  0  0  0  0
   57.7620   31.2800   43.1620 C   0  0  0  0  0  0  0  0  0  0  0  0
   57.7630   32.6690   43.0950 C   0  0  0  0  0  0  0  0  0  0  0  0
   58.1930   33.4240   44.1860 C   0  0  0  0  0  0  0  0  0  0  0  0
   58.6540   32.7980   45.3750 C   0  0  0  0  0  0  0  0  0  0  0  0
   59.1180   33.5320   46.4500 N   0  0  0  0  0  0  0  0  0  0  0  0
   59.4360   34.9680   46.2830 C   0  0  0  0  0  0  0  0  0  0  0  0
   59.3090   32.9200   47.6750 C   0  0  0  0  0  0  0  0  0  0  0  0
   59.5260   33.6680   48.8600 C   0  0  0  0  0  0  0  0  0  0  0  0
   59.7840   33.0460   50.0840 C   0  0  0  0  0  0  0  0  0  0  0  0
   59.9970   33.8620   51.2080 O   0  0  0  0  0  0  0  0  0  0  0  0
   59.2270   33.8410   52.4110 C   0  0  0  0  0  0  0  0  0  0  0  0
   59.5940   32.6010   53.2600 C   0  0  0  0  0  0  0  0  0  0  0  0
   58.4400   31.7160   53.6260 N   0  0  0  0  0  0  0  0  0  0  0  0
   58.1710   31.8160   55.0850 C   0  0  0  0  0  0  0  0  0  0  0  0
   57.2220   32.2000   52.8950 C   0  0  0  0  0  0  0  0  0  0  0  0
   57.0290   31.4690   51.5510 C   0  0  0  0  0  0  0  0  0  0  0  0
   56.8410   30.0670   51.6900 O   0  0  0  0  0  0  0  0  0  0  0  0
   57.4730   29.5230   52.8410 C   0  0  0  0  0  0  0  0  0  0  0  0
   58.7400   30.2920   53.2640 C   0  0  0  0  0  0  0  0  0  0  0  0
   59.8270   31.6470   50.1450 C   0  0  0  0  0  0  0  0  0  0  0  0
   59.5710   30.8870   49.0070 C   0  0  0  0  0  0  0  0  0  0  0  0
   59.2820   31.5050   47.7740 C   0  0  0  0  0  0  0  0  0  0  0  0
   55.9273   23.5397   44.1174 H   0  0  0  0  0  0  0  0  0  0  0  0
   56.0864   24.7176   42.7706 H   0  0  0  0  0  0  0  0  0  0  0  0
   57.0706   23.2149   42.7706 H   0  0  0  0  0  0  0  0  0  0  0  0
   57.9240   24.1863   45.1107 H   0  0  0  0  0  0  0  0  0  0  0  0
   58.6268   24.7427   43.5236 H   0  0  0  0  0  0  0  0  0  0  0  0
   56.7000   26.4470   43.7690 H   0  0  0  0  0  0  0  0  0  0  0  0
   57.4093   26.1304   46.6030 H   0  0  0  0  0  0  0  0  0  0  0  0
   56.1429   27.1577   45.8497 H   0  0  0  0  0  0  0  0  0  0  0  0
   55.9667   25.3701   45.8497 H   0  0  0  0  0  0  0  0  0  0  0  0
   59.1188   26.8472   43.5239 H   0  0  0  0  0  0  0  0  0  0  0  0
   58.0620   28.0912   44.3980 H   0  0  0  0  0  0  0  0  0  0  0  0
   58.9721   26.6915   46.4956 H   0  0  0  0  0  0  0  0  0  0  0  0
   60.3833   26.5438   45.3297 H   0  0  0  0  0  0  0  0  0  0  0  0
   60.8781   28.4178   46.6773 H   0  0  0  0  0  0  0  0  0  0  0  0
   60.2614   29.0641   45.0973 H   0  0  0  0  0  0  0  0  0  0  0  0
   58.4100   28.8610   47.4820 H   0  0  0  0  0  0  0  0  0  0  0  0
   58.1531   29.5393   44.3785 H   0  0  0  0  0  0  0  0  0  0  0  0
   57.4379   30.6880   42.2933 H   0  0  0  0  0  0  0  0  0  0  0  0
   57.4236   33.1739   42.1786 H   0  0  0  0  0  0  0  0  0  0  0  0
   58.1749   34.5221   44.1248 H   0  0  0  0  0  0  0  0  0  0  0  0
   59.5401   35.4379   47.2721 H   0  0  0  0  0  0  0  0  0  0  0  0
   60.3790   35.0724   45.7264 H   0  0  0  0  0  0  0  0  0  0  0  0
   58.6252   35.4608   45.7264 H   0  0  0  0  0  0  0  0  0  0  0  0
   59.4903   34.7665   48.8143 H   0  0  0  0  0  0  0  0  0  0  0  0
   59.4344   34.7524   52.9909 H   0  0  0  0  0  0  0  0  0  0  0  0
   58.1589   33.7948   52.1522 H   0  0  0  0  0  0  0  0  0  0  0  0
   60.3171   31.9995   52.6897 H   0  0  0  0  0  0  0  0  0  0  0  0
   59.9964   32.9873   54.2081 H   0  0  0  0  0  0  0  0  0  0  0  0
   59.0585   31.4861   55.6449 H   0  0  0  0  0  0  0  0  0  0  0  0
   57.9407   32.8598   55.3447 H   0  0  0  0  0  0  0  0  0  0  0  0
   57.3148   31.1761   55.3447 H   0  0  0  0  0  0  0  0  0  0  0  0
   56.3370   32.0260   53.5246 H   0  0  0  0  0  0  0  0  0  0  0  0
   57.3546   33.2714   52.6841 H   0  0  0  0  0  0  0  0  0  0  0  0
   56.1457   31.8907   51.0490 H   0  0  0  0  0  0  0  0  0  0  0  0
   57.9500   31.6157   50.9677 H   0  0  0  0  0  0  0  0  0  0  0  0
   56.7567   29.5452   53.6755 H   0  0  0  0  0  0  0  0  0  0  0  0
   57.7840   28.4988   52.5874 H   0  0  0  0  0  0  0  0  0  0  0  0
   59.1850   29.7904   54.1360 H   0  0  0  0  0  0  0  0  0  0  0  0
   59.4339   30.2980   52.4105 H   0  0  0  0  0  0  0  0  0  0  0  0
   60.0640   31.1471   51.0958 H   0  0  0  0  0  0  0  0  0  0  0  0
   59.5946   29.7891   49.0712 H   0  0  0  0  0  0  0  0  0  0  0  0
  1  2  1  0
  2  3  1  0
  3  4  1  0
  3  5  1  0
  5  6  1  0
  6  7  1  0
  7  8  1  0
  8  9  1  0
  9 10  2  0
 10 11  1  0
 11 12  2  0
 12 13  1  0
 13 14  2  0
 14 15  1  0
 15 16  2  0
 16 17  1  0
 16 18  1  0
 18 19  2  0
 19 20  1  0
 20 21  1  0
 21 22  1  0
 22 23  1  0
 23 24  1  0
 24 25  1  0
 24 26  1  0
 26 27  1  0
 27 28  1  0
 28 29  1  0
 29 30  1  0
 20 31  2  0
 31 32  1  0
 32 33  2  0
 33  9  1  0
 15 10  1  0
 33 18  1  0
 30 24  1  0
  1 34  1  0
  1 35  1  0
  1 36  1  0
  2 37  1  0
  2 38  1  0
  3 39  1  6
  4 40  1  0
  4 41  1  0
  4 42  1  0
  5 43  1  0
  5 44  1  0
  6 45  1  0
  6 46  1  0
  7 47  1  0
  7 48  1  0
  8 49  1  0
 11 50  1  0
 12 51  1  0
 13 52  1  0
 14 53  1  0
 17 54  1  0
 17 55  1  0
 17 56  1  0
 19 57  1  0
 22 58  1  0
 22 59  1  0
 23 60  1  0
 23 61  1  0
 25 62  1  0
 25 63  1  0
 25 64  1  0
 26 65  1  0
 26 66  1  0
 27 67  1  0
 27 68  1  0
 29 69  1  0
 29 70  1  0
 30 71  1  0
 30 72  1  0
 31 73  1  0
 32 74  1  0
M  CHG  3   3   1  16   1  24   1
M  END
>  <UniqueID>  (30) 
30

>  <SMILES>  (30) 
CC[N@@H+](C)CCCNc1c2ccccc2[n+](C)c2cc(OCC[N+]3(C)CCOCC3)ccc12

>  <Energy>  (30) 
129.8251717092409

>  <Genealogy>  (30) 
CC[NH+](C)CCCNc1c2ccccc2[n+](C)c2cc(OCC[N+]3(C)CCOCC3)ccc12 (protonated)
CC[N@@H+](C)CCCNc1c2ccccc2[n+](C)c2cc(OCC[N+]3(C)CCOCC3)ccc12 (chirality)
CC[N@@H+](C)CCCNc1c2ccccc2[n+](C)c2cc(OCC[N+]3(C)CCOCC3)ccc12 (3D coordinates assigned)
CC[N@@H+](C)CCCNc1c2ccccc2[n+](C)c2cc(OCC[N+]3(C)CCOCC3)ccc12 (nonaromatic ring conformer: 129.8251717092409 kcal/mol)

>  <smiles>  (30) 
CCN(C)CCCNc1c2ccccc2[n+](C)c2cc(OCC[N+]3(C)CCOCC3)ccc12

>  <score_type>  (30) 
oracle

>  <origin>  (30) 
adg

>  <m_score__min__energy>  (30) 
-4.1699999999999999

>  <m_primary>  (30) 
energy

$$$$
30:0
     RDKit          3D

 52 54  0  0  0  0  0  0  0  0999 V2000
   57.7860   31.8200   43.2050 C   0  0  0  0  0  0  0  0  0  0  0  0
   57.0110   31.7780   44.5120 C   0  0  0  0  0  0  0  0  0  0  0  0
   56.6490   30.4430   44.7980 O   0  0  0  0  0  0  0  0  0  0  0  0
   56.3780   29.7320   43.6040 C   0  0  0  0  0  0  0  0  0  0  0  0
   57.3900   28.6050   43.4200 C   0  0  0  0  0  0  0  0  0  0  0  0
   58.0010   28.3180   44.6610 O   0  0  0  0  0  0  0  0  0  0  0  0
   59.4100   28.2970   44.5380 C   0  0  0  0  0  0  0  0  0  0  0  0
   60.0680   29.3630   45.4250 C   0  0  0  0  0  0  0  0  0  0  0  0
   59.0980   29.9750   46.3350 N   0  0  0  0  0  0  0  0  0  0  0  0
   59.5040   30.7250   47.4940 C   0  0  0  0  0  0  0  0  0  0  0  0
   59.9210   30.0520   48.6560 C   0  0  0  0  0  0  0  0  0  0  0  0
   60.0310   28.6450   48.6760 C   0  0  0  0  0  0  0  0  0  0  0  0
   60.4680   27.9830   49.8210 C   0  0  0  0  0  0  0  0  0  0  0  0
   60.8130   28.7080   50.9550 C   0  0  0  0  0  0  0  0  0  0  0  0
   60.6960   30.0980   50.9640 C   0  0  0  0  0  0  0  0  0  0  0  0
   60.2100   30.7970   49.8300 C   0  0  0  0  0  0  0  0  0  0  0  0
   60.0150   32.1650   49.8460 N   0  0  0  0  0  0  0  0  0  0  0  0
   60.0110   32.8980   51.1320 C   0  0  0  0  0  0  0  0  0  0  0  0
   59.8010   32.8460   48.6630 C   0  0  0  0  0  0  0  0  0  0  0  0
   59.8770   34.2600   48.5930 C   0  0  0  0  0  0  0  0  0  0  0  0
   59.6410   34.9370   47.3980 C   0  0  0  0  0  0  0  0  0  0  0  0
   59.3340   34.2320   46.2330 C   0  0  0  0  0  0  0  0  0  0  0  0
   59.1340   34.9620   44.9380 C   0  0  0  0  0  0  0  0  0  0  0  0
   59.3060   32.8340   46.2660 C   0  0  0  0  0  0  0  0  0  0  0  0
   59.5220   32.1310   47.4690 C   0  0  0  0  0  0  0  0  0  0  0  0
   58.8633   31.8784   43.4193 H   0  0  0  0  0  0  0  0  0  0  0  0
   57.5763   30.9092   42.6250 H   0  0  0  0  0  0  0  0  0  0  0  0
   57.4791   32.7028   42.6250 H   0  0  0  0  0  0  0  0  0  0  0  0
   57.6399   32.1702   45.3248 H   0  0  0  0  0  0  0  0  0  0  0  0
   56.1043   32.3943   44.4224 H   0  0  0  0  0  0  0  0  0  0  0  0
   55.3653   29.3058   43.6569 H   0  0  0  0  0  0  0  0  0  0  0  0
   56.4510   30.4225   42.7509 H   0  0  0  0  0  0  0  0  0  0  0  0
   56.8758   27.7068   43.0473 H   0  0  0  0  0  0  0  0  0  0  0  0
   58.1571   28.9138   42.6946 H   0  0  0  0  0  0  0  0  0  0  0  0
   59.7801   27.3052   44.8368 H   0  0  0  0  0  0  0  0  0  0  0  0
   59.6683   28.5121   43.4906 H   0  0  0  0  0  0  0  0  0  0  0  0
   60.8666   28.8924   46.0172 H   0  0  0  0  0  0  0  0  0  0  0  0
   60.4763   30.1504   44.7743 H   0  0  0  0  0  0  0  0  0  0  0  0
   58.0810   29.9140   46.1050 H   0  0  0  0  0  0  0  0  0  0  0  0
   59.7690   28.0655   47.7785 H   0  0  0  0  0  0  0  0  0  0  0  0
   60.5400   26.8854   49.8275 H   0  0  0  0  0  0  0  0  0  0  0  0
   61.1800   28.1836   51.8496 H   0  0  0  0  0  0  0  0  0  0  0  0
   60.9851   30.6602   51.8642 H   0  0  0  0  0  0  0  0  0  0  0  0
   60.0149   32.1786   51.9641 H   0  0  0  0  0  0  0  0  0  0  0  0
   60.9057   33.5350   51.1938 H   0  0  0  0  0  0  0  0  0  0  0  0
   59.1094   33.5252   51.1938 H   0  0  0  0  0  0  0  0  0  0  0  0
   60.1267   34.8330   49.4982 H   0  0  0  0  0  0  0  0  0  0  0  0
   59.6971   36.0353   47.3726 H   0  0  0  0  0  0  0  0  0  0  0  0
   58.8485   36.0040   45.1448 H   0  0  0  0  0  0  0  0  0  0  0  0
   60.0696   34.9460   44.3598 H   0  0  0  0  0  0  0  0  0  0  0  0
   58.3372   34.4714   44.3598 H   0  0  0  0  0  0  0  0  0  0  0  0
   59.1125   32.2743   45.3390 H   0  0  0  0  0  0  0  0  0  0  0  0
  1  2  1  0
  2  3  1  0
  3  4  1  0
  4  5  1  0
  5  6  1  0
  6  7  1  0
  7  8  1  0
  8  9  1  0
  9 10  1  0
 10 11  2  0
 11 12  1  0
 12 13  2  0
 13 14  1  0
 14 15  2  0
 15 16  1  0
 16 17  2  0
 17 18  1  0
 17 19  1  0
 19 20  2  0
 20 21  1  0
 21 22  2  0
 22 23  1  0
 22 24  1  0
 24 25  2  0
 25 10  1  0
 16 11  1  0
 25 19  1  0
  1 26  1  0
  1 27  1  0
  1 28  1  0
  2 29  1  0
  2 30  1  0
  4 31  1  0
  4 32  1  0
  5 33  1  0
  5 34  1  0
  7 35  1  0
  7 36  1  0
  8 37  1  0
  8 38  1  0
  9 39  1  0
 12 40  1  0
 13 41  1  0
 14 42  1  0
 15 43  1  0
 18 44  1  0
 18 45  1  0
 18 46  1  0
 20 47  1  0
 21 48  1  0
 23 49  1  0
 23 50  1  0
 23 51  1  0
 24 52  1  0
M  CHG  1  17   1
M  END
>  <UniqueID>  (31) 
31

>  <SMILES>  (31) 
CCOCCOCCNc1c2ccccc2[n+](C)c2ccc(C)cc12

>  <Energy>  (31) 
71.11340936112465

>  <Genealogy>  (31) 
CCOCCOCCNc1c2ccccc2[n+](C)c2ccc(C)cc12 (3D coordinates assigned)
CCOCCOCCNc1c2ccccc2[n+](C)c2ccc(C)cc12 (optimized conformer: 71.11340936112465 kcal/mol)

>  <smiles>  (31) 
CCOCCOCCNc1c2ccccc2[n+](C)c2ccc(C)cc12

>  <score_type>  (31) 
oracle

>  <origin>  (31) 
adg

>  <m_score__min__energy>  (31) 
-5.7699999999999996

>  <m_primary>  (31) 
energy

$$$$
