0:0
     RDKit          3D

 48 50  0  0  0  0  0  0  0  0999 V2000
   58.4580   34.1820   52.3590 C   0  0  0  0  0  0  0  0  0  0  0  0
   58.0090   32.8100   52.8590 C   0  0  0  0  0  0  0  0  0  0  0  0
   57.1340   32.1550   51.8750 N   0  0  0  0  0  0  0  0  0  0  0  0
   57.7380   30.9020   51.4010 C   0  0  0  0  0  0  0  0  0  0  0  0
   58.2060   31.0480   49.9850 C   0  0  0  0  0  0  0  0  0  0  0  0
   58.6400   30.0260   49.1710 C   0  0  0  0  0  0  0  0  0  0  0  0
   58.8830   30.5440   47.9530 N   0  0  0  0  0  0  0  0  0  0  0  0
   59.2440   29.7970   46.7770 C   0  0  0  0  0  0  0  0  0  0  0  0
   60.4010   29.0010   46.7770 C   0  0  0  0  0  0  0  0  0  0  0  0
   60.7620   28.2750   45.6410 C   0  0  0  0  0  0  0  0  0  0  0  0
   59.9750   28.3410   44.4910 C   0  0  0  0  0  0  0  0  0  0  0  0
   58.8240   29.1310   44.4740 C   0  0  0  0  0  0  0  0  0  0  0  0
   58.4460   29.8650   45.6160 C   0  0  0  0  0  0  0  0  0  0  0  0
   57.2820   30.6500   45.6410 O   0  0  0  0  0  0  0  0  0  0  0  0
   56.5840   31.1020   44.4860 C   0  0  0  0  0  0  0  0  0  0  0  0
   55.6860   29.9890   43.9710 C   0  0  0  0  0  0  0  0  0  0  0  0
   58.5860   31.8620   48.0580 C   0  0  0  0  0  0  0  0  0  0  0  0
   58.7010   32.8450   46.9630 C   0  0  0  0  0  0  0  0  0  0  0  0
   57.5280   33.3770   46.4050 C   0  0  0  0  0  0  0  0  0  0  0  0
   57.5990   34.2910   45.3510 C   0  0  0  0  0  0  0  0  0  0  0  0
   58.8400   34.6900   44.8530 C   0  0  0  0  0  0  0  0  0  0  0  0
   60.0150   34.1850   45.4170 C   0  0  0  0  0  0  0  0  0  0  0  0
   59.9550   33.2690   46.4740 C   0  0  0  0  0  0  0  0  0  0  0  0
   61.4670   32.7390   47.2070 Cl  0  0  0  0  0  0  0  0  0  0  0  0
   58.1510   32.2020   49.2900 N   0  0  0  0  0  0  0  0  0  0  0  0
   58.6713   34.8339   53.2190 H   0  0  0  0  0  0  0  0  0  0  0  0
   59.3666   34.0706   51.7490 H   0  0  0  0  0  0  0  0  0  0  0  0
   57.6594   34.6293   51.7490 H   0  0  0  0  0  0  0  0  0  0  0  0
   58.8950   32.1806   53.0288 H   0  0  0  0  0  0  0  0  0  0  0  0
   57.4479   32.9430   53.7957 H   0  0  0  0  0  0  0  0  0  0  0  0
   56.2100   31.9450   52.3210 H   0  0  0  0  0  0  0  0  0  0  0  0
   56.9900   32.7970   51.0590 H   0  0  0  0  0  0  0  0  0  0  0  0
   58.5957   30.6486   52.0415 H   0  0  0  0  0  0  0  0  0  0  0  0
   56.9826   30.1037   51.4456 H   0  0  0  0  0  0  0  0  0  0  0  0
   58.7658   28.9733   49.4641 H   0  0  0  0  0  0  0  0  0  0  0  0
   61.0277   28.9493   47.6795 H   0  0  0  0  0  0  0  0  0  0  0  0
   61.6675   27.6505   45.6524 H   0  0  0  0  0  0  0  0  0  0  0  0
   60.2619   27.7695   43.5959 H   0  0  0  0  0  0  0  0  0  0  0  0
   58.2085   29.1808   43.5637 H   0  0  0  0  0  0  0  0  0  0  0  0
   55.9708   31.9772   44.7468 H   0  0  0  0  0  0  0  0  0  0  0  0
   57.3071   31.3814   43.7056 H   0  0  0  0  0  0  0  0  0  0  0  0
   55.2487   29.4470   44.8225 H   0  0  0  0  0  0  0  0  0  0  0  0
   54.8807   30.4212   43.3589 H   0  0  0  0  0  0  0  0  0  0  0  0
   56.2787   29.2933   43.3589 H   0  0  0  0  0  0  0  0  0  0  0  0
   56.5475   33.0725   46.7999 H   0  0  0  0  0  0  0  0  0  0  0  0
   56.6752   34.6968   44.9129 H   0  0  0  0  0  0  0  0  0  0  0  0
   58.8936   35.4021   44.0163 H   0  0  0  0  0  0  0  0  0  0  0  0
   60.9917   34.5089   45.0284 H   0  0  0  0  0  0  0  0  0  0  0  0
  1  2  1  0
  2  3  1  0
  3  4  1  0
  4  5  1  0
  5  6  2  0
  6  7  1  0
  7  8  1  0
  8  9  2  0
  9 10  1  0
 10 11  2  0
 11 12  1  0
 12 13  2  0
 13 14  1  0
 14 15  1  0
 15 16  1  0
  7 17  1  0
 17 18  1  0
 18 19  2  0
 19 20  1  0
 20 21  2  0
 21 22  1  0
 22 23  2  0
 23 24  1  0
 17 25  2  0
 25  5  1  0
 13  8  1  0
 23 18  1  0
  1 26  1  0
  1 27  1  0
  1 28  1  0
  2 29  1  0
  2 30  1  0
  3 31  1  0
  3 32  1  0
  4 33  1  0
  4 34  1  0
  6 35  1  0
  9 36  1  0
 10 37  1  0
 11 38  1  0
 12 39  1  0
 15 40  1  0
 15 41  1  0
 16 42  1  0
 16 43  1  0
 16 44  1  0
 19 45  1  0
 20 46  1  0
 21 47  1  0
 22 48  1  0
M  CHG  1   3   1
M  END
>  <UniqueID>  (1) 
1

>  <SMILES>  (1) 
CC[NH2+]Cc1cn(-c2ccccc2OCC)c(-c2ccccc2Cl)n1

>  <Energy>  (1) 
81.97180613164973

>  <Genealogy>  (1) 
CC[NH2+]Cc1cn(-c2ccccc2OCC)c(-c2ccccc2Cl)n1 (protonated)
CC[NH2+]Cc1cn(-c2ccccc2OCC)c(-c2ccccc2Cl)n1 (3D coordinates assigned)
CC[NH2+]Cc1cn(-c2ccccc2OCC)c(-c2ccccc2Cl)n1 (optimized conformer: 81.97180613164973 kcal/mol)

>  <smiles>  (1) 
CCNCc1cn(-c2ccccc2OCC)c(-c2ccccc2Cl)n1

>  <score_type>  (1) 
oracle

>  <origin>  (1) 
adg

>  <m_score__min__energy>  (1) 
-5.5199999999999996

>  <m_primary>  (1) 
energy

$$$$
1:0
     RDKit          3D

 85 88  0  0  0  0  0  0  0  0999 V2000
   66.6760   32.7040   50.2780 C   0  0  0  0  0  0  0  0  0  0  0  0
   65.5930   32.7190   49.3790 O   0  0  0  0  0  0  0  0  0  0  0  0
   64.4260   33.1370   50.0530 C   0  0  0  0  0  0  0  0  0  0  0  0
   63.3210   33.4690   49.0360 C   0  0  0  0  0  0  0  0  0  0  0  0
   63.6090   32.9920   47.6540 N   0  0  1  0  0  0  0  0  0  0  0  0
   63.2030   31.5770   47.4870 C   0  0  0  0  0  0  0  0  0  0  0  0
   62.8930   33.8130   46.6410 C   0  0  0  0  0  0  0  0  0  0  0  0
   61.4380   34.1790   47.0050 C   0  0  0  0  0  0  0  0  0  0  0  0
   60.4240   33.8090   45.9060 C   0  0  0  0  0  0  0  0  0  0  0  0
   59.0090   34.3120   46.2350 C   0  0  0  0  0  0  0  0  0  0  0  0
   58.1180   33.2090   46.6150 N   0  0  0  0  0  0  0  0  0  0  0  0
   58.5190   31.8310   46.4960 C   0  0  0  0  0  0  0  0  0  0  0  0
   58.0620   31.0480   45.4200 C   0  0  0  0  0  0  0  0  0  0  0  0
   57.2840   31.6170   44.3900 C   0  0  0  0  0  0  0  0  0  0  0  0
   56.7580   30.8220   43.3740 C   0  0  0  0  0  0  0  0  0  0  0  0
   56.9910   29.4520   43.3710 C   0  0  0  0  0  0  0  0  0  0  0  0
   57.7950   28.8750   44.3540 C   0  0  0  0  0  0  0  0  0  0  0  0
   58.3930   29.6660   45.3680 C   0  0  0  0  0  0  0  0  0  0  0  0
   59.2670   29.1260   46.2920 N   0  0  0  0  0  0  0  0  0  0  0  0
   59.8430   27.7800   46.0670 C   0  0  0  0  0  0  0  0  0  0  0  0
   59.6390   29.8580   47.4060 C   0  0  0  0  0  0  0  0  0  0  0  0
   60.3210   29.2580   48.4960 C   0  0  0  0  0  0  0  0  0  0  0  0
   60.7440   30.0130   49.6020 C   0  0  0  0  0  0  0  0  0  0  0  0
   61.4340   29.4360   50.6820 O   0  0  0  0  0  0  0  0  0  0  0  0
   62.7140   29.8530   51.1430 C   0  0  0  0  0  0  0  0  0  0  0  0
   60.4700   31.3810   49.6510 C   0  0  0  0  0  0  0  0  0  0  0  0
   60.9150   32.1090   50.7660 O   0  0  0  0  0  0  0  0  0  0  0  0
   60.2000   33.1850   51.3720 C   0  0  0  0  0  0  0  0  0  0  0  0
   58.7100   32.8090   51.4710 C   0  0  0  0  0  0  0  0  0  0  0  0
   58.2780   32.1950   52.7740 N   0  0  0  0  0  0  0  0  0  0  0  0
   58.5800   33.1440   53.8790 C   0  0  0  0  0  0  0  0  0  0  0  0
   56.7990   31.9720   52.7440 C   0  0  0  0  0  0  0  0  0  0  0  0
   56.4020   30.6250   52.0920 C   0  0  0  0  0  0  0  0  0  0  0  0
   57.4370   30.1150   51.2780 O   0  0  0  0  0  0  0  0  0  0  0  0
   58.5620   29.7840   52.0700 C   0  0  0  0  0  0  0  0  0  0  0  0
   58.9510   30.8990   53.0720 C   0  0  0  0  0  0  0  0  0  0  0  0
   59.7560   31.9840   48.6060 C   0  0  0  0  0  0  0  0  0  0  0  0
   59.3160   31.2350   47.4950 C   0  0  0  0  0  0  0  0  0  0  0  0
   66.2958   32.7093   51.3102 H   0  0  0  0  0  0  0  0  0  0  0  0
   67.2768   31.7974   50.1132 H   0  0  0  0  0  0  0  0  0  0  0  0
   67.3017   33.5936   50.1132 H   0  0  0  0  0  0  0  0  0  0  0  0
   64.0800   32.3307   50.7165 H   0  0  0  0  0  0  0  0  0  0  0  0
   64.6535   34.0358   50.6450 H   0  0  0  0  0  0  0  0  0  0  0  0
   62.3854   33.0009   49.3760 H   0  0  0  0  0  0  0  0  0  0  0  0
   63.2512   34.5657   48.9871 H   0  0  0  0  0  0  0  0  0  0  0  0
   64.6380   33.0430   47.4680 H   0  0  0  0  0  0  0  0  0  0  0  0
   63.0703   31.1144   48.4762 H   0  0  0  0  0  0  0  0  0  0  0  0
   62.2553   31.5307   46.9304 H   0  0  0  0  0  0  0  0  0  0  0  0
   63.9819   31.0353   46.9304 H   0  0  0  0  0  0  0  0  0  0  0  0
   63.4550   34.7482   46.5012 H   0  0  0  0  0  0  0  0  0  0  0  0
   62.8357   33.1966   45.7317 H   0  0  0  0  0  0  0  0  0  0  0  0
   61.1639   33.6454   47.9270 H   0  0  0  0  0  0  0  0  0  0  0  0
   61.3983   35.2710   47.1310 H   0  0  0  0  0  0  0  0  0  0  0  0
   60.7492   34.2594   44.9566 H   0  0  0  0  0  0  0  0  0  0  0  0
   60.3864   32.7120   45.8338 H   0  0  0  0  0  0  0  0  0  0  0  0
   59.0691   35.0261   47.0696 H   0  0  0  0  0  0  0  0  0  0  0  0
   58.5970   34.7927   45.3355 H   0  0  0  0  0  0  0  0  0  0  0  0
   57.1040   33.4240   46.7280 H   0  0  0  0  0  0  0  0  0  0  0  0
   57.0906   32.6999   44.3890 H   0  0  0  0  0  0  0  0  0  0  0  0
   56.1578   31.2791   42.5735 H   0  0  0  0  0  0  0  0  0  0  0  0
   56.5401   28.8208   42.5911 H   0  0  0  0  0  0  0  0  0  0  0  0
   57.9681   27.7888   44.3426 H   0  0  0  0  0  0  0  0  0  0  0  0
   60.0476   27.3020   47.0364 H   0  0  0  0  0  0  0  0  0  0  0  0
   59.1289   27.1659   45.4988 H   0  0  0  0  0  0  0  0  0  0  0  0
   60.7803   27.8726   45.4988 H   0  0  0  0  0  0  0  0  0  0  0  0
   60.5230   28.1769   48.4742 H   0  0  0  0  0  0  0  0  0  0  0  0
   62.7244   29.8564   52.2429 H   0  0  0  0  0  0  0  0  0  0  0  0
   63.4818   29.1585   50.7712 H   0  0  0  0  0  0  0  0  0  0  0  0
   62.9254   30.8665   50.7712 H   0  0  0  0  0  0  0  0  0  0  0  0
   60.6003   33.3718   52.3794 H   0  0  0  0  0  0  0  0  0  0  0  0
   60.3126   34.0938   50.7626 H   0  0  0  0  0  0  0  0  0  0  0  0
   58.1194   33.7240   51.3163 H   0  0  0  0  0  0  0  0  0  0  0  0
   58.5440   32.0365   50.7057 H   0  0  0  0  0  0  0  0  0  0  0  0
   58.4208   32.6438   54.8457 H   0  0  0  0  0  0  0  0  0  0  0  0
   59.6271   33.4726   53.8042 H   0  0  0  0  0  0  0  0  0  0  0  0
   57.9154   34.0173   53.8042 H   0  0  0  0  0  0  0  0  0  0  0  0
   56.4217   31.9857   53.7772 H   0  0  0  0  0  0  0  0  0  0  0  0
   56.3582   32.7745   52.1344 H   0  0  0  0  0  0  0  0  0  0  0  0
   56.1803   29.8962   52.8856 H   0  0  0  0  0  0  0  0  0  0  0  0
   55.5197   30.7971   51.4581 H   0  0  0  0  0  0  0  0  0  0  0  0
   58.3341   28.8689   52.6362 H   0  0  0  0  0  0  0  0  0  0  0  0
   59.4135   29.6458   51.3874 H   0  0  0  0  0  0  0  0  0  0  0  0
   58.6658   30.5782   54.0848 H   0  0  0  0  0  0  0  0  0  0  0  0
   60.0361   31.0592   52.9888 H   0  0  0  0  0  0  0  0  0  0  0  0
   59.5350   33.0605   48.6535 H   0  0  0  0  0  0  0  0  0  0  0  0
  1  2  1  0
  2  3  1  0
  3  4  1  0
  4  5  1  0
  5  6  1  0
  5  7  1  0
  7  8  1  0
  8  9  1  0
  9 10  1  0
 10 11  1  0
 11 12  1  0
 12 13  2  0
 13 14  1  0
 14 15  2  0
 15 16  1  0
 16 17  2  0
 17 18  1  0
 18 19  2  0
 19 20  1  0
 19 21  1  0
 21 22  2  0
 22 23  1  0
 23 24  1  0
 24 25  1  0
 23 26  2  0
 26 27  1  0
 27 28  1  0
 28 29  1  0
 29 30  1  0
 30 31  1  0
 30 32  1  0
 32 33  1  0
 33 34  1  0
 34 35  1  0
 35 36  1  0
 26 37  1  0
 37 38  2  0
 38 12  1  0
 18 13  1  0
 38 21  1  0
 36 30  1  0
  1 39  1  0
  1 40  1  0
  1 41  1  0
  3 42  1  0
  3 43  1  0
  4 44  1  0
  4 45  1  0
  5 46  1  6
  6 47  1  0
  6 48  1  0
  6 49  1  0
  7 50  1  0
  7 51  1  0
  8 52  1  0
  8 53  1  0
  9 54  1  0
  9 55  1  0
 10 56  1  0
 10 57  1  0
 11 58  1  0
 14 59  1  0
 15 60  1  0
 16 61  1  0
 17 62  1  0
 20 63  1  0
 20 64  1  0
 20 65  1  0
 22 66  1  0
 25 67  1  0
 25 68  1  0
 25 69  1  0
 28 70  1  0
 28 71  1  0
 29 72  1  0
 29 73  1  0
 31 74  1  0
 31 75  1  0
 31 76  1  0
 32 77  1  0
 32 78  1  0
 33 79  1  0
 33 80  1  0
 35 81  1  0
 35 82  1  0
 36 83  1  0
 36 84  1  0
 37 85  1  0
M  CHG  3   5   1  19   1  30   1
M  END
>  <UniqueID>  (2) 
2

>  <SMILES>  (2) 
COCC[N@@H+](C)CCCCNc1c2ccccc2[n+](C)c2cc(OC)c(OCC[N+]3(C)CCOCC3)cc12

>  <Energy>  (2) 
129.13036896103202

>  <Genealogy>  (2) 
COCC[NH+](C)CCCCNc1c2ccccc2[n+](C)c2cc(OC)c(OCC[N+]3(C)CCOCC3)cc12 (protonated)
COCC[N@@H+](C)CCCCNc1c2ccccc2[n+](C)c2cc(OC)c(OCC[N+]3(C)CCOCC3)cc12 (chirality)
COCC[N@@H+](C)CCCCNc1c2ccccc2[n+](C)c2cc(OC)c(OCC[N+]3(C)CCOCC3)cc12 (3D coordinates assigned)
COCC[N@@H+](C)CCCCNc1c2ccccc2[n+](C)c2cc(OC)c(OCC[N+]3(C)CCOCC3)cc12 (nonaromatic ring conformer: 129.13036896103202 kcal/mol)

>  <smiles>  (2) 
COCCN(C)CCCCNc1c2ccccc2[n+](C)c2cc(OC)c(OCC[N+]3(C)CCOCC3)cc12

>  <score_type>  (2) 
oracle

>  <origin>  (2) 
adg

>  <m_score__min__energy>  (2) 
-3.8399999999999999

>  <m_primary>  (2) 
energy

$$$$
2:0
     RDKit          3D

 44 46  0  0  0  0  0  0  0  0999 V2000
   63.3260   33.9050   46.3710 C   0  0  0  0  0  0  0  0  0  0  0  0
   63.4630   32.5760   47.1290 C   0  0  0  0  0  0  0  0  0  0  0  0
   62.4900   32.4140   48.2320 N   0  0  0  0  0  0  0  0  0  0  0  0
   63.0220   32.8510   49.5340 C   0  0  0  0  0  0  0  0  0  0  0  0
   61.8720   31.0680   48.2880 C   0  0  0  0  0  0  0  0  0  0  0  0
   60.4140   31.1780   48.4600 N   0  0  0  0  0  0  0  0  0  0  0  0
   59.7220   31.2460   47.1800 C   0  0  0  0  0  0  0  0  0  0  0  0
   59.4290   32.4990   46.5680 C   0  0  0  0  0  0  0  0  0  0  0  0
   59.7400   33.7350   47.1930 C   0  0  0  0  0  0  0  0  0  0  0  0
   59.5250   34.9470   46.5440 C   0  0  0  0  0  0  0  0  0  0  0  0
   59.0030   34.9660   45.2600 C   0  0  0  0  0  0  0  0  0  0  0  0
   58.6440   33.7760   44.6370 C   0  0  0  0  0  0  0  0  0  0  0  0
   58.7960   32.5250   45.2920 C   0  0  0  0  0  0  0  0  0  0  0  0
   58.3500   31.3570   44.7090 N   0  0  0  0  0  0  0  0  0  0  0  0
   57.4180   31.4170   43.5570 C   0  0  0  0  0  0  0  0  0  0  0  0
   58.7300   30.1350   45.2200 C   0  0  0  0  0  0  0  0  0  0  0  0
   58.5110   28.9340   44.4950 C   0  0  0  0  0  0  0  0  0  0  0  0
   58.8120   27.6920   45.0450 C   0  0  0  0  0  0  0  0  0  0  0  0
   59.3450   27.6090   46.3220 C   0  0  0  0  0  0  0  0  0  0  0  0
   59.6230   28.7690   47.0400 C   0  0  0  0  0  0  0  0  0  0  0  0
   59.3650   30.0520   46.4920 C   0  0  0  0  0  0  0  0  0  0  0  0
   63.2408   34.7313   47.0921 H   0  0  0  0  0  0  0  0  0  0  0  0
   64.2129   34.0598   45.7390 H   0  0  0  0  0  0  0  0  0  0  0  0
   62.4261   33.8756   45.7390 H   0  0  0  0  0  0  0  0  0  0  0  0
   63.3172   31.7526   46.4143 H   0  0  0  0  0  0  0  0  0  0  0  0
   64.4652   32.5678   47.5824 H   0  0  0  0  0  0  0  0  0  0  0  0
   62.4460   32.3779   50.3429 H   0  0  0  0  0  0  0  0  0  0  0  0
   64.0788   32.5567   49.6157 H   0  0  0  0  0  0  0  0  0  0  0  0
   62.9386   33.9448   49.6157 H   0  0  0  0  0  0  0  0  0  0  0  0
   62.0868   30.5316   47.3520 H   0  0  0  0  0  0  0  0  0  0  0  0
   62.2913   30.5188   49.1440 H   0  0  0  0  0  0  0  0  0  0  0  0
   60.1930   32.0160   49.0410 H   0  0  0  0  0  0  0  0  0  0  0  0
   60.0700   30.4030   49.0640 H   0  0  0  0  0  0  0  0  0  0  0  0
   60.1591   33.7347   48.2100 H   0  0  0  0  0  0  0  0  0  0  0  0
   59.7698   35.8920   47.0510 H   0  0  0  0  0  0  0  0  0  0  0  0
   58.8727   35.9231   44.7337 H   0  0  0  0  0  0  0  0  0  0  0  0
   58.2341   33.8040   43.6166 H   0  0  0  0  0  0  0  0  0  0  0  0
   56.3836   31.4836   43.9253 H   0  0  0  0  0  0  0  0  0  0  0  0
   57.6472   32.3022   42.9456 H   0  0  0  0  0  0  0  0  0  0  0  0
   57.5318   30.5097   42.9456 H   0  0  0  0  0  0  0  0  0  0  0  0
   58.0950   28.9866   43.4781 H   0  0  0  0  0  0  0  0  0  0  0  0
   58.6269   26.7752   44.4661 H   0  0  0  0  0  0  0  0  0  0  0  0
   59.5487   26.6247   46.7689 H   0  0  0  0  0  0  0  0  0  0  0  0
   60.0504   28.6893   48.0504 H   0  0  0  0  0  0  0  0  0  0  0  0
  1  2  1  0
  2  3  1  0
  3  4  1  0
  3  5  1  0
  5  6  1  0
  6  7  1  0
  7  8  2  0
  8  9  1  0
  9 10  2  0
 10 11  1  0
 11 12  2  0
 12 13  1  0
 13 14  2  0
 14 15  1  0
 14 16  1  0
 16 17  2  0
 17 18  1  0
 18 19  2  0
 19 20  1  0
 20 21  2  0
 21  7  1  0
 13  8  1  0
 21 16  1  0
  1 22  1  0
  1 23  1  0
  1 24  1  0
  2 25  1  0
  2 26  1  0
  4 27  1  0
  4 28  1  0
  4 29  1  0
  5 30  1  0
  5 31  1  0
  6 32  1  0
  6 33  1  0
  9 34  1  0
 10 35  1  0
 11 36  1  0
 12 37  1  0
 15 38  1  0
 15 39  1  0
 15 40  1  0
 17 41  1  0
 18 42  1  0
 19 43  1  0
 20 44  1  0
M  CHG  2   6   1  14   1
M  END
>  <UniqueID>  (3) 
3

>  <SMILES>  (3) 
CCN(C)C[NH2+]c1c2ccccc2[n+](C)c2ccccc12

>  <Energy>  (3) 
78.10598479211176

>  <Genealogy>  (3) 
CCN(C)C[NH2+]c1c2ccccc2[n+](C)c2ccccc12 (protonated)
CCN(C)C[NH2+]c1c2ccccc2[n+](C)c2ccccc12 (3D coordinates assigned)
CCN(C)C[NH2+]c1c2ccccc2[n+](C)c2ccccc12 (optimized conformer: 78.10598479211176 kcal/mol)

>  <smiles>  (3) 
CCN(C)CNc1c2ccccc2[n+](C)c2ccccc12

>  <score_type>  (3) 
oracle

>  <origin>  (3) 
adg

>  <m_score__min__energy>  (3) 
-3.9700000000000002

>  <m_primary>  (3) 
energy

$$$$
3:0
     RDKit          3D

 57 59  0  0  0  0  0  0  0  0999 V2000
   63.3520   33.8210   46.4370 C   0  0  0  0  0  0  0  0  0  0  0  0
   63.7160   32.7260   47.4470 C   0  0  0  0  0  0  0  0  0  0  0  0
   63.0550   32.8510   48.7710 N   0  0  2  0  0  0  0  0  0  0  0  0
   62.6810   34.2430   49.0900 C   0  0  0  0  0  0  0  0  0  0  0  0
   63.7560   32.1290   49.8710 C   0  0  0  0  0  0  0  0  0  0  0  0
   62.9940   30.9310   50.4710 C   0  0  0  0  0  0  0  0  0  0  0  0
   62.1450   30.3910   49.4820 O   0  0  0  0  0  0  0  0  0  0  0  0
   60.8660   30.1510   50.0310 C   0  0  0  0  0  0  0  0  0  0  0  0
   59.8430   30.0500   48.9020 C   0  0  0  0  0  0  0  0  0  0  0  0
   60.4640   30.3220   47.6050 N   0  0  0  0  0  0  0  0  0  0  0  0
   59.6760   30.8170   46.5120 C   0  0  0  0  0  0  0  0  0  0  0  0
   59.4310   32.1930   46.3900 C   0  0  0  0  0  0  0  0  0  0  0  0
   59.9220   33.1050   47.3480 C   0  0  0  0  0  0  0  0  0  0  0  0
   59.6660   34.4700   47.2250 C   0  0  0  0  0  0  0  0  0  0  0  0
   58.9190   34.9450   46.1520 C   0  0  0  0  0  0  0  0  0  0  0  0
   58.4360   34.0610   45.1870 C   0  0  0  0  0  0  0  0  0  0  0  0
   58.6950   32.6720   45.2770 C   0  0  0  0  0  0  0  0  0  0  0  0
   58.2530   31.7920   44.3080 N   0  0  0  0  0  0  0  0  0  0  0  0
   57.9740   32.3120   42.9540 C   0  0  0  0  0  0  0  0  0  0  0  0
   58.2720   30.4290   44.5510 C   0  0  0  0  0  0  0  0  0  0  0  0
   57.4910   29.4880   43.8010 C   0  0  0  0  0  0  0  0  0  0  0  0
   56.2770   29.8720   42.9890 C   0  0  0  0  0  0  0  0  0  0  0  0
   57.7560   28.1150   43.9240 C   0  0  0  0  0  0  0  0  0  0  0  0
   58.6870   27.6490   44.8440 C   0  0  0  0  0  0  0  0  0  0  0  0
   59.3260   28.5390   45.6990 C   0  0  0  0  0  0  0  0  0  0  0  0
   59.0970   29.9240   45.5930 C   0  0  0  0  0  0  0  0  0  0  0  0
   63.0495   34.7310   46.9759 H   0  0  0  0  0  0  0  0  0  0  0  0
   64.2250   34.0420   45.8053 H   0  0  0  0  0  0  0  0  0  0  0  0
   62.5204   33.4754   45.8053 H   0  0  0  0  0  0  0  0  0  0  0  0
   63.4335   31.7548   47.0145 H   0  0  0  0  0  0  0  0  0  0  0  0
   64.7961   32.8234   47.6313 H   0  0  0  0  0  0  0  0  0  0  0  0
   62.1410   32.3500   48.6530 H   0  0  0  0  0  0  0  0  0  0  0  0
   62.6463   34.3723   50.1818 H   0  0  0  0  0  0  0  0  0  0  0  0
   63.4264   34.9300   48.6629 H   0  0  0  0  0  0  0  0  0  0  0  0
   61.6916   34.4639   48.6629 H   0  0  0  0  0  0  0  0  0  0  0  0
   64.7135   31.7582   49.4764 H   0  0  0  0  0  0  0  0  0  0  0  0
   63.8648   32.8571   50.6883 H   0  0  0  0  0  0  0  0  0  0  0  0
   63.7108   30.1648   50.8014 H   0  0  0  0  0  0  0  0  0  0  0  0
   62.3987   31.2614   51.3350 H   0  0  0  0  0  0  0  0  0  0  0  0
   60.8807   29.2090   50.5988 H   0  0  0  0  0  0  0  0  0  0  0  0
   60.5925   30.9777   50.7032 H   0  0  0  0  0  0  0  0  0  0  0  0
   59.4180   29.0355   48.8915 H   0  0  0  0  0  0  0  0  0  0  0  0
   59.0543   30.7967   49.0762 H   0  0  0  0  0  0  0  0  0  0  0  0
   61.5000   30.2640   47.4840 H   0  0  0  0  0  0  0  0  0  0  0  0
   60.5122   32.7358   48.1997 H   0  0  0  0  0  0  0  0  0  0  0  0
   60.0551   35.1720   47.9772 H   0  0  0  0  0  0  0  0  0  0  0  0
   58.7085   36.0211   46.0642 H   0  0  0  0  0  0  0  0  0  0  0  0
   57.8453   34.4487   44.3439 H   0  0  0  0  0  0  0  0  0  0  0  0
   57.4553   33.2788   43.0322 H   0  0  0  0  0  0  0  0  0  0  0  0
   58.9209   32.4468   42.4107 H   0  0  0  0  0  0  0  0  0  0  0  0
   57.3381   31.5976   42.4107 H   0  0  0  0  0  0  0  0  0  0  0  0
   55.4506   30.1334   43.6663 H   0  0  0  0  0  0  0  0  0  0  0  0
   56.5189   30.7375   42.3546 H   0  0  0  0  0  0  0  0  0  0  0  0
   55.9772   29.0248   42.3546 H   0  0  0  0  0  0  0  0  0  0  0  0
   57.2198   27.3990   43.2839 H   0  0  0  0  0  0  0  0  0  0  0  0
   58.9185   26.5749   44.8957 H   0  0  0  0  0  0  0  0  0  0  0  0
   60.0169   28.1578   46.4654 H   0  0  0  0  0  0  0  0  0  0  0  0
  1  2  1  0
  2  3  1  0
  3  4  1  0
  3  5  1  0
  5  6  1  0
  6  7  1  0
  7  8  1  0
  8  9  1  0
  9 10  1  0
 10 11  1  0
 11 12  2  0
 12 13  1  0
 13 14  2  0
 14 15  1  0
 15 16  2  0
 16 17  1  0
 17 18  2  0
 18 19  1  0
 18 20  1  0
 20 21  2  0
 21 22  1  0
 21 23  1  0
 23 24  2  0
 24 25  1  0
 25 26  2  0
 26 11  1  0
 17 12  1  0
 26 20  1  0
  1 27  1  0
  1 28  1  0
  1 29  1  0
  2 30  1  0
  2 31  1  0
  3 32  1  6
  4 33  1  0
  4 34  1  0
  4 35  1  0
  5 36  1  0
  5 37  1  0
  6 38  1  0
  6 39  1  0
  8 40  1  0
  8 41  1  0
  9 42  1  0
  9 43  1  0
 10 44  1  0
 13 45  1  0
 14 46  1  0
 15 47  1  0
 16 48  1  0
 19 49  1  0
 19 50  1  0
 19 51  1  0
 22 52  1  0
 22 53  1  0
 22 54  1  0
 23 55  1  0
 24 56  1  0
 25 57  1  0
M  CHG  2   3   1  18   1
M  END
>  <UniqueID>  (4) 
4

>  <SMILES>  (4) 
CC[N@H+](C)CCOCCNc1c2ccccc2[n+](C)c2c(C)cccc12

>  <Energy>  (4) 
98.7079922856214

>  <Genealogy>  (4) 
CC[NH+](C)CCOCCNc1c2ccccc2[n+](C)c2c(C)cccc12 (protonated)
CC[N@H+](C)CCOCCNc1c2ccccc2[n+](C)c2c(C)cccc12 (chirality)
CC[N@H+](C)CCOCCNc1c2ccccc2[n+](C)c2c(C)cccc12 (3D coordinates assigned)
CC[N@H+](C)CCOCCNc1c2ccccc2[n+](C)c2c(C)cccc12 (optimized conformer: 98.7079922856214 kcal/mol)

>  <smiles>  (4) 
CCN(C)CCOCCNc1c2ccccc2[n+](C)c2c(C)cccc12

>  <score_type>  (4) 
oracle

>  <origin>  (4) 
adg

>  <m_score__min__energy>  (4) 
-4.6299999999999999

>  <m_primary>  (4) 
energy

$$$$
4:0
     RDKit          3D

 40 41  0  0  0  0  0  0  0  0999 V2000
   57.2140   22.7740   44.4810 C   0  0  0  0  0  0  0  0  0  0  0  0
   55.9500   23.6280   44.4000 C   0  0  0  0  0  0  0  0  0  0  0  0
   56.0080   24.8290   45.3140 C   0  0  0  0  0  0  0  0  0  0  0  0
   55.1360   24.9590   46.2160 O   0  0  0  0  0  0  0  0  0  0  0  0
   57.0040   25.8610   45.1370 N   0  0  0  0  0  0  0  0  0  0  0  0
   57.4920   26.5970   46.3110 C   0  0  0  0  0  0  0  0  0  0  0  0
   57.8440   28.0350   45.9270 C   0  0  0  0  0  0  0  0  0  0  0  0
   58.7690   28.0310   44.7800 N   0  0  0  0  0  0  0  0  0  0  0  0
   59.3370   29.3680   44.4970 C   0  0  0  0  0  0  0  0  0  0  0  0
   58.4060   30.5110   44.8260 C   0  0  0  0  0  0  0  0  0  0  0  0
   58.6180   31.5020   45.7630 C   0  0  0  0  0  0  0  0  0  0  0  0
   57.5490   32.3190   45.7600 N   0  0  0  0  0  0  0  0  0  0  0  0
   57.3950   33.5230   46.5640 C   0  0  0  0  0  0  0  0  0  0  0  0
   56.6710   31.9210   44.8520 N   0  0  0  0  0  0  0  0  0  0  0  0
   57.1730   30.8170   44.2630 C   0  0  0  0  0  0  0  0  0  0  0  0
   56.4510   30.0550   43.1980 C   0  0  0  0  0  0  0  0  0  0  0  0
   58.1290   27.4260   43.5980 C   0  0  0  0  0  0  0  0  0  0  0  0
   57.7710   25.9660   43.8870 C   0  0  0  0  0  0  0  0  0  0  0  0
   57.4718   22.5998   45.5361 H   0  0  0  0  0  0  0  0  0  0  0  0
   57.0374   21.8094   43.9826 H   0  0  0  0  0  0  0  0  0  0  0  0
   58.0430   23.2978   43.9826 H   0  0  0  0  0  0  0  0  0  0  0  0
   55.8255   23.9776   43.3645 H   0  0  0  0  0  0  0  0  0  0  0  0
   55.1022   23.0040   44.7190 H   0  0  0  0  0  0  0  0  0  0  0  0
   56.7087   26.6089   47.0832 H   0  0  0  0  0  0  0  0  0  0  0  0
   58.3936   26.0986   46.6966 H   0  0  0  0  0  0  0  0  0  0  0  0
   56.9257   28.5757   45.6542 H   0  0  0  0  0  0  0  0  0  0  0  0
   58.3259   28.5325   46.7816 H   0  0  0  0  0  0  0  0  0  0  0  0
   60.2550   29.4871   45.0912 H   0  0  0  0  0  0  0  0  0  0  0  0
   59.5259   29.4118   43.4142 H   0  0  0  0  0  0  0  0  0  0  0  0
   59.5074   31.6059   46.4019 H   0  0  0  0  0  0  0  0  0  0  0  0
   57.4289   33.2581   47.6311 H   0  0  0  0  0  0  0  0  0  0  0  0
   58.2108   34.2242   46.3342 H   0  0  0  0  0  0  0  0  0  0  0  0
   56.4290   33.9963   46.3342 H   0  0  0  0  0  0  0  0  0  0  0  0
   55.7660   29.3320   43.6649 H   0  0  0  0  0  0  0  0  0  0  0  0
   55.8760   30.7540   42.5729 H   0  0  0  0  0  0  0  0  0  0  0  0
   57.1799   29.5185   42.5729 H   0  0  0  0  0  0  0  0  0  0  0  0
   57.2132   27.9843   43.3537 H   0  0  0  0  0  0  0  0  0  0  0  0
   58.8273   27.4656   42.7490 H   0  0  0  0  0  0  0  0  0  0  0  0
   57.1667   25.5705   43.0573 H   0  0  0  0  0  0  0  0  0  0  0  0
   58.6999   25.3859   43.9901 H   0  0  0  0  0  0  0  0  0  0  0  0
  1  2  1  0
  2  3  1  0
  3  4  2  0
  3  5  1  0
  5  6  1  0
  6  7  1  0
  7  8  1  0
  8  9  1  0
  9 10  1  0
 10 11  2  0
 11 12  1  0
 12 13  1  0
 12 14  1  0
 14 15  2  0
 15 16  1  0
  8 17  1  0
 17 18  1  0
 18  5  1  0
 15 10  1  0
  1 19  1  0
  1 20  1  0
  1 21  1  0
  2 22  1  0
  2 23  1  0
  6 24  1  0
  6 25  1  0
  7 26  1  0
  7 27  1  0
  9 28  1  0
  9 29  1  0
 11 30  1  0
 13 31  1  0
 13 32  1  0
 13 33  1  0
 16 34  1  0
 16 35  1  0
 16 36  1  0
 17 37  1  0
 17 38  1  0
 18 39  1  0
 18 40  1  0
M  END
>  <UniqueID>  (5) 
5

>  <SMILES>  (5) 
CCC(=O)N1CCN(Cc2cn(C)nc2C)CC1

>  <Energy>  (5) 
66.57243499940495

>  <Genealogy>  (5) 
CCC(=O)N1CCN(Cc2cn(C)nc2C)CC1 (3D coordinates assigned)
CCC(=O)N1CCN(Cc2cn(C)nc2C)CC1 (nonaromatic ring conformer: 66.57243499940495 kcal/mol)

>  <smiles>  (5) 
CCC(=O)N1CCN(Cc2cn(C)nc2C)CC1

>  <score_type>  (5) 
oracle

>  <origin>  (5) 
adg

>  <m_score__min__energy>  (5) 
-6.46

>  <m_primary>  (5) 
energy

$$$$
5:0
     RDKit          3D

 52 54  0  0  0  0  0  0  0  0999 V2000
   57.7070   26.0990   46.8780 C   0  0  0  0  0  0  0  0  0  0  0  0
   56.7650   26.1650   45.6810 C   0  0  0  0  0  0  0  0  0  0  0  0
   56.1060   27.4310   45.6240 O   0  0  0  0  0  0  0  0  0  0  0  0
   56.6330   28.6020   45.0540 C   0  0  0  0  0  0  0  0  0  0  0  0
   55.7730   29.4140   44.3050 C   0  0  0  0  0  0  0  0  0  0  0  0
   56.2410   30.5920   43.7150 C   0  0  0  0  0  0  0  0  0  0  0  0
   57.5840   30.9700   43.8590 C   0  0  0  0  0  0  0  0  0  0  0  0
   58.0870   32.2590   43.2530 C   0  0  0  0  0  0  0  0  0  0  0  0
   57.9620   33.3870   44.2000 N   0  0  2  0  0  0  0  0  0  0  0  0
   59.2620   33.9570   44.5870 C   0  0  0  0  0  0  0  0  0  0  0  0
   59.0820   34.5850   45.9620 C   0  0  0  0  0  0  0  0  0  0  0  0
   57.8460   33.9080   46.5490 C   0  0  2  0  0  0  0  0  0  0  0  0
   58.1370   33.1970   47.7980 N   0  0  0  0  0  0  0  0  0  0  0  0
   59.1940   32.2480   48.0110 C   0  0  0  0  0  0  0  0  0  0  0  0
   58.9140   31.0270   48.1600 O   0  0  0  0  0  0  0  0  0  0  0  0
   60.6150   32.6880   48.0690 C   0  0  0  0  0  0  0  0  0  0  0  0
   61.5350   32.1460   47.1470 C   0  0  0  0  0  0  0  0  0  0  0  0
   62.8770   32.5240   47.1680 C   0  0  0  0  0  0  0  0  0  0  0  0
   63.3270   33.4500   48.1050 C   0  0  0  0  0  0  0  0  0  0  0  0
   62.4370   34.0050   49.0240 C   0  0  0  0  0  0  0  0  0  0  0  0
   61.0750   33.6370   49.0190 C   0  0  0  0  0  0  0  0  0  0  0  0
   60.1700   34.2020   49.9330 O   0  0  0  0  0  0  0  0  0  0  0  0
   59.6000   33.5200   51.0450 C   0  0  0  0  0  0  0  0  0  0  0  0
   57.3210   32.9740   45.4570 C   0  0  0  0  0  0  0  0  0  0  0  0
   58.4490   30.1620   44.6120 C   0  0  0  0  0  0  0  0  0  0  0  0
   57.9800   28.9840   45.2020 C   0  0  0  0  0  0  0  0  0  0  0  0
   57.1213   26.1400   47.8082 H   0  0  0  0  0  0  0  0  0  0  0  0
   58.2769   25.1587   46.8447 H   0  0  0  0  0  0  0  0  0  0  0  0
   58.4024   26.9506   46.8447 H   0  0  0  0  0  0  0  0  0  0  0  0
   57.3443   26.0180   44.7575 H   0  0  0  0  0  0  0  0  0  0  0  0
   56.0054   25.3763   45.7859 H   0  0  0  0  0  0  0  0  0  0  0  0
   54.7197   29.1226   44.1796 H   0  0  0  0  0  0  0  0  0  0  0  0
   55.5530   31.2250   43.1354 H   0  0  0  0  0  0  0  0  0  0  0  0
   59.1456   32.1367   42.9803 H   0  0  0  0  0  0  0  0  0  0  0  0
   57.4778   32.4842   42.3652 H   0  0  0  0  0  0  0  0  0  0  0  0
   57.3770   34.1440   43.7670 H   0  0  0  0  0  0  0  0  0  0  0  0
   60.0238   33.1647   44.6305 H   0  0  0  0  0  0  0  0  0  0  0  0
   59.5954   34.7065   43.8541 H   0  0  0  0  0  0  0  0  0  0  0  0
   59.9631   34.3940   46.5923 H   0  0  0  0  0  0  0  0  0  0  0  0
   58.9657   35.6773   45.9045 H   0  0  0  0  0  0  0  0  0  0  0  0
   57.0867   34.6525   46.8305 H   0  0  0  0  0  0  0  0  0  0  0  0
   61.1889   31.4152   46.4013 H   0  0  0  0  0  0  0  0  0  0  0  0
   63.5812   32.0898   46.4430 H   0  0  0  0  0  0  0  0  0  0  0  0
   64.3867   33.7445   48.1205 H   0  0  0  0  0  0  0  0  0  0  0  0
   62.8005   34.7370   49.7602 H   0  0  0  0  0  0  0  0  0  0  0  0
   59.9727   33.9659   51.9789 H   0  0  0  0  0  0  0  0  0  0  0  0
   58.5043   33.6095   51.0077 H   0  0  0  0  0  0  0  0  0  0  0  0
   59.8826   32.4576   51.0077 H   0  0  0  0  0  0  0  0  0  0  0  0
   57.5839   31.9319   45.6915 H   0  0  0  0  0  0  0  0  0  0  0  0
   56.2254   33.0342   45.3795 H   0  0  0  0  0  0  0  0  0  0  0  0
   59.5012   30.4565   44.7390 H   0  0  0  0  0  0  0  0  0  0  0  0
   58.6670   28.3527   45.7847 H   0  0  0  0  0  0  0  0  0  0  0  0
  1  2  1  0
  2  3  1  0
  3  4  1  0
  4  5  2  0
  5  6  1  0
  6  7  2  0
  7  8  1  0
  8  9  1  0
  9 10  1  0
 10 11  1  0
 11 12  1  0
 12 13  1  0
 13 14  1  0
 14 15  2  0
 14 16  1  0
 16 17  2  0
 17 18  1  0
 18 19  2  0
 19 20  1  0
 20 21  2  0
 21 22  1  0
 22 23  1  0
 12 24  1  0
  7 25  1  0
 25 26  2  0
 26  4  1  0
 24  9  1  0
 21 16  1  0
  1 27  1  0
  1 28  1  0
  1 29  1  0
  2 30  1  0
  2 31  1  0
  5 32  1  0
  6 33  1  0
  8 34  1  0
  8 35  1  0
  9 36  1  6
 10 37  1  0
 10 38  1  0
 11 39  1  0
 11 40  1  0
 12 41  1  1
 17 42  1  0
 18 43  1  0
 19 44  1  0
 20 45  1  0
 23 46  1  0
 23 47  1  0
 23 48  1  0
 24 49  1  0
 24 50  1  0
 25 51  1  0
 26 52  1  0
M  CHG  2   9   1  13  -1
M  END
>  <UniqueID>  (6) 
6

>  <SMILES>  (6) 
CCOc1ccc(C[N@@H+]2CC[C@H]([N-]C(=O)c3ccccc3OC)C2)cc1

>  <Energy>  (6) 
56.75565975643157

>  <Genealogy>  (6) 
CCOc1ccc(C[NH+]2CCC([N-]C(=O)c3ccccc3OC)C2)cc1 (protonated)
CCOc1ccc(C[N@@H+]2CC[C@H]([N-]C(=O)c3ccccc3OC)C2)cc1 (chirality)
CCOc1ccc(C[N@@H+]2CC[C@H]([N-]C(=O)c3ccccc3OC)C2)cc1 (3D coordinates assigned)
CCOc1ccc(C[N@@H+]2CC[C@H]([N-]C(=O)c3ccccc3OC)C2)cc1 (nonaromatic ring conformer: 56.75565975643157 kcal/mol)

>  <smiles>  (6) 
CCOc1ccc(CN2CCC(NC(=O)c3ccccc3OC)C2)cc1

>  <score_type>  (6) 
oracle

>  <origin>  (6) 
adg

>  <m_score__min__energy>  (6) 
-9.0800000000000001

>  <m_primary>  (6) 
energy

$$$$
6:0
     RDKit          3D

 56 58  0  0  0  0  0  0  0  0999 V2000
   55.5680   24.0970   46.6540 C   0  0  0  0  0  0  0  0  0  0  0  0
   55.0550   25.0790   45.6060 C   0  0  0  0  0  0  0  0  0  0  0  0
   55.3210   26.4250   46.0010 O   0  0  0  0  0  0  0  0  0  0  0  0
   56.5830   27.0440   46.0100 C   0  0  0  0  0  0  0  0  0  0  0  0
   57.7290   26.4140   46.5340 C   0  0  0  0  0  0  0  0  0  0  0  0
   58.9620   27.0680   46.5220 C   0  0  0  0  0  0  0  0  0  0  0  0
   59.0730   28.3610   45.9990 C   0  0  0  0  0  0  0  0  0  0  0  0
   60.4180   29.0450   45.9620 C   0  0  0  0  0  0  0  0  0  0  0  0
   60.7790   29.5700   47.2960 N   0  0  0  0  0  0  0  0  0  0  0  0
   61.5340   30.8450   47.1920 C   0  0  0  0  0  0  0  0  0  0  0  0
   61.4160   31.6740   48.4750 C   0  0  0  0  0  0  0  0  0  0  0  0
   60.0090   32.0670   48.7100 N   0  0  0  0  0  0  0  0  0  0  0  0
   59.7610   32.6150   50.0630 C   0  0  0  0  0  0  0  0  0  0  0  0
   58.8070   31.7840   50.8980 C   0  0  0  0  0  0  0  0  0  0  0  0
   59.1890   30.5120   51.3590 C   0  0  0  0  0  0  0  0  0  0  0  0
   58.3100   29.7420   52.1260 C   0  0  0  0  0  0  0  0  0  0  0  0
   57.0460   30.2400   52.4550 C   0  0  0  0  0  0  0  0  0  0  0  0
   55.8460   29.1870   53.5030 Br  0  0  0  0  0  0  0  0  0  0  0  0
   56.6660   31.5150   52.0230 C   0  0  0  0  0  0  0  0  0  0  0  0
   57.5430   32.2860   51.2570 C   0  0  0  0  0  0  0  0  0  0  0  0
   59.0090   31.0750   48.2500 C   0  0  0  0  0  0  0  0  0  0  0  0
   59.5920   29.6550   48.1870 C   0  0  0  0  0  0  0  0  0  0  0  0
   57.9360   28.9930   45.4750 C   0  0  0  0  0  0  0  0  0  0  0  0
   56.6880   28.3390   45.4800 C   0  0  0  0  0  0  0  0  0  0  0  0
   55.5310   28.9420   44.9620 O   0  0  0  0  0  0  0  0  0  0  0  0
   55.5270   30.0630   44.0830 C   0  0  0  0  0  0  0  0  0  0  0  0
   56.2880   29.7150   42.8140 C   0  0  0  0  0  0  0  0  0  0  0  0
   55.3613   24.4926   47.6594 H   0  0  0  0  0  0  0  0  0  0  0  0
   55.0603   23.1292   46.5293 H   0  0  0  0  0  0  0  0  0  0  0  0
   56.6524   23.9609   46.5293 H   0  0  0  0  0  0  0  0  0  0  0  0
   55.5562   24.8784   44.6476 H   0  0  0  0  0  0  0  0  0  0  0  0
   53.9675   24.9495   45.5031 H   0  0  0  0  0  0  0  0  0  0  0  0
   57.6516   25.4007   46.9551 H   0  0  0  0  0  0  0  0  0  0  0  0
   59.8521   26.5637   46.9263 H   0  0  0  0  0  0  0  0  0  0  0  0
   61.1816   28.3212   45.6410 H   0  0  0  0  0  0  0  0  0  0  0  0
   60.3654   29.8863   45.2553 H   0  0  0  0  0  0  0  0  0  0  0  0
   62.5948   30.6183   47.0093 H   0  0  0  0  0  0  0  0  0  0  0  0
   61.1100   31.4304   46.3628 H   0  0  0  0  0  0  0  0  0  0  0  0
   61.7719   31.0757   49.3267 H   0  0  0  0  0  0  0  0  0  0  0  0
   62.0265   32.5829   48.3689 H   0  0  0  0  0  0  0  0  0  0  0  0
   60.7227   32.6755   50.5936 H   0  0  0  0  0  0  0  0  0  0  0  0
   59.2905   33.5999   49.9268 H   0  0  0  0  0  0  0  0  0  0  0  0
   60.1871   30.1197   51.1143 H   0  0  0  0  0  0  0  0  0  0  0  0
   58.6134   28.7426   52.4712 H   0  0  0  0  0  0  0  0  0  0  0  0
   55.6744   31.9112   52.2872 H   0  0  0  0  0  0  0  0  0  0  0  0
   57.2431   33.2932   50.9320 H   0  0  0  0  0  0  0  0  0  0  0  0
   58.1584   31.0788   48.9475 H   0  0  0  0  0  0  0  0  0  0  0  0
   58.6932   31.3574   47.2349 H   0  0  0  0  0  0  0  0  0  0  0  0
   59.8887   29.3494   49.2012 H   0  0  0  0  0  0  0  0  0  0  0  0
   58.8163   28.9913   47.7774 H   0  0  0  0  0  0  0  0  0  0  0  0
   58.0191   30.0070   45.0569 H   0  0  0  0  0  0  0  0  0  0  0  0
   54.4896   30.3253   43.8281 H   0  0  0  0  0  0  0  0  0  0  0  0
   56.0107   30.9183   44.5775 H   0  0  0  0  0  0  0  0  0  0  0  0
   57.2589   29.2710   43.0788 H   0  0  0  0  0  0  0  0  0  0  0  0
   55.7044   28.9943   42.2224 H   0  0  0  0  0  0  0  0  0  0  0  0
   56.4514   30.6279   42.2224 H   0  0  0  0  0  0  0  0  0  0  0  0
  1  2  1  0
  2  3  1  0
  3  4  1  0
  4  5  2  0
  5  6  1  0
  6  7  2  0
  7  8  1  0
  8  9  1  0
  9 10  1  0
 10 11  1  0
 11 12  1  0
 12 13  1  0
 13 14  1  0
 14 15  2  0
 15 16  1  0
 16 17  2  0
 17 18  1  0
 17 19  1  0
 19 20  2  0
 12 21  1  0
 21 22  1  0
  7 23  1  0
 23 24  2  0
 24 25  1  0
 25 26  1  0
 26 27  1  0
 24  4  1  0
 22  9  1  0
 20 14  1  0
  1 28  1  0
  1 29  1  0
  1 30  1  0
  2 31  1  0
  2 32  1  0
  5 33  1  0
  6 34  1  0
  8 35  1  0
  8 36  1  0
 10 37  1  0
 10 38  1  0
 11 39  1  0
 11 40  1  0
 13 41  1  0
 13 42  1  0
 15 43  1  0
 16 44  1  0
 19 45  1  0
 20 46  1  0
 21 47  1  0
 21 48  1  0
 22 49  1  0
 22 50  1  0
 23 51  1  0
 26 52  1  0
 26 53  1  0
 27 54  1  0
 27 55  1  0
 27 56  1  0
M  END
>  <UniqueID>  (7) 
7

>  <SMILES>  (7) 
CCOc1ccc(CN2CCN(Cc3ccc(Br)cc3)CC2)cc1OCC

>  <Energy>  (7) 
66.51783491783952

>  <Genealogy>  (7) 
CCOc1ccc(CN2CCN(Cc3ccc(Br)cc3)CC2)cc1OCC (3D coordinates assigned)
CCOc1ccc(CN2CCN(Cc3ccc(Br)cc3)CC2)cc1OCC (nonaromatic ring conformer: 66.51783491783952 kcal/mol)

>  <smiles>  (7) 
CCOc1ccc(CN2CCN(Cc3ccc(Br)cc3)CC2)cc1OCC

>  <score_type>  (7) 
oracle

>  <origin>  (7) 
adg

>  <m_score__min__energy>  (7) 
-8.0800000000000001

>  <m_primary>  (7) 
energy

$$$$
7:0
     RDKit          3D

 53 55  0  0  0  0  0  0  0  0999 V2000
   63.2990   33.8830   46.4210 C   0  0  0  0  0  0  0  0  0  0  0  0
   63.4530   32.5810   47.2150 C   0  0  0  0  0  0  0  0  0  0  0  0
   63.1750   32.7420   48.6670 N   0  0  0  0  0  0  0  0  0  0  0  0
   62.4490   34.0020   48.9980 C   0  0  0  0  0  0  0  0  0  0  0  0
   61.2120   33.8360   49.8970 C   0  0  0  0  0  0  0  0  0  0  0  0
   64.3380   32.4770   49.5620 C   0  0  0  0  0  0  0  0  0  0  0  0
   64.1200   31.4060   50.6450 C   0  0  0  0  0  0  0  0  0  0  0  0
   62.7530   31.0530   50.7020 O   0  0  0  0  0  0  0  0  0  0  0  0
   62.5970   29.7410   51.2110 C   0  0  0  0  0  0  0  0  0  0  0  0
   61.4860   29.0100   50.4510 C   0  0  0  0  0  0  0  0  0  0  0  0
   60.9340   29.8620   49.3970 N   0  0  0  0  0  0  0  0  0  0  0  0
   59.9370   29.4410   48.4390 C   0  0  0  0  0  0  0  0  0  0  0  0
   59.5120   28.1000   48.3630 C   0  0  0  0  0  0  0  0  0  0  0  0
   58.5510   27.7090   47.4290 C   0  0  0  0  0  0  0  0  0  0  0  0
   58.0010   28.6420   46.5510 C   0  0  0  0  0  0  0  0  0  0  0  0
   58.4100   29.9840   46.6000 C   0  0  0  0  0  0  0  0  0  0  0  0
   57.8770   30.9530   45.7290 C   0  0  0  0  0  0  0  0  0  0  0  0
   57.0070   30.6320   44.8710 O   0  0  0  0  0  0  0  0  0  0  0  0
   58.3220   32.2820   45.8260 C   0  0  0  0  0  0  0  0  0  0  0  0
   57.8300   33.3000   44.9870 C   0  0  0  0  0  0  0  0  0  0  0  0
   58.3030   34.6090   45.1190 C   0  0  0  0  0  0  0  0  0  0  0  0
   59.2650   34.9150   46.0860 C   0  0  0  0  0  0  0  0  0  0  0  0
   59.7600   33.9110   46.9250 C   0  0  0  0  0  0  0  0  0  0  0  0
   59.2940   32.5980   46.8010 C   0  0  0  0  0  0  0  0  0  0  0  0
   59.7740   31.6550   47.6040 O   0  0  0  0  0  0  0  0  0  0  0  0
   59.3830   30.3840   47.5480 C   0  0  0  0  0  0  0  0  0  0  0  0
   63.1991   34.7280   47.1182 H   0  0  0  0  0  0  0  0  0  0  0  0
   64.1856   34.0332   45.7875 H   0  0  0  0  0  0  0  0  0  0  0  0
   62.4018   33.8222   45.7875 H   0  0  0  0  0  0  0  0  0  0  0  0
   62.7532   31.8375   46.8057 H   0  0  0  0  0  0  0  0  0  0  0  0
   64.5009   32.2613   47.1171 H   0  0  0  0  0  0  0  0  0  0  0  0
   62.4930   31.9800   48.9040 H   0  0  0  0  0  0  0  0  0  0  0  0
   63.1529   34.6742   49.5105 H   0  0  0  0  0  0  0  0  0  0  0  0
   62.0766   34.3966   48.0411 H   0  0  0  0  0  0  0  0  0  0  0  0
   61.5179   33.8770   50.9528 H   0  0  0  0  0  0  0  0  0  0  0  0
   60.4973   34.6463   49.6905 H   0  0  0  0  0  0  0  0  0  0  0  0
   60.7362   32.8660   49.6905 H   0  0  0  0  0  0  0  0  0  0  0  0
   65.1809   32.1543   48.9332 H   0  0  0  0  0  0  0  0  0  0  0  0
   64.5178   33.4172   50.1040 H   0  0  0  0  0  0  0  0  0  0  0  0
   64.7173   30.5147   50.4024 H   0  0  0  0  0  0  0  0  0  0  0  0
   64.4320   31.8076   51.6204 H   0  0  0  0  0  0  0  0  0  0  0  0
   63.5418   29.1902   51.0928 H   0  0  0  0  0  0  0  0  0  0  0  0
   62.3274   29.7977   52.2759 H   0  0  0  0  0  0  0  0  0  0  0  0
   61.8989   28.0966   49.9979 H   0  0  0  0  0  0  0  0  0  0  0  0
   60.6822   28.7555   51.1575 H   0  0  0  0  0  0  0  0  0  0  0  0
   61.3070   30.8370   49.3410 H   0  0  0  0  0  0  0  0  0  0  0  0
   59.9419   27.3532   49.0468 H   0  0  0  0  0  0  0  0  0  0  0  0
   58.2259   26.6590   47.3855 H   0  0  0  0  0  0  0  0  0  0  0  0
   57.2444   28.3256   45.8178 H   0  0  0  0  0  0  0  0  0  0  0  0
   57.0716   33.0648   44.2258 H   0  0  0  0  0  0  0  0  0  0  0  0
   57.9170   35.4006   44.4599 H   0  0  0  0  0  0  0  0  0  0  0  0
   59.6332   35.9466   46.1873 H   0  0  0  0  0  0  0  0  0  0  0  0
   60.5177   34.1547   47.6843 H   0  0  0  0  0  0  0  0  0  0  0  0
  1  2  1  0
  2  3  1  0
  3  4  1  0
  4  5  1  0
  3  6  1  0
  6  7  1  0
  7  8  1  0
  8  9  1  0
  9 10  1  0
 10 11  1  0
 11 12  1  0
 12 13  2  0
 13 14  1  0
 14 15  2  0
 15 16  1  0
 16 17  1  0
 17 18  2  0
 17 19  1  0
 19 20  2  0
 20 21  1  0
 21 22  2  0
 22 23  1  0
 23 24  2  0
 24 25  1  0
 25 26  1  0
 26 12  1  0
 26 16  2  0
 24 19  1  0
  1 27  1  0
  1 28  1  0
  1 29  1  0
  2 30  1  0
  2 31  1  0
  3 32  1  0
  4 33  1  0
  4 34  1  0
  5 35  1  0
  5 36  1  0
  5 37  1  0
  6 38  1  0
  6 39  1  0
  7 40  1  0
  7 41  1  0
  9 42  1  0
  9 43  1  0
 10 44  1  0
 10 45  1  0
 11 46  1  0
 13 47  1  0
 14 48  1  0
 15 49  1  0
 20 50  1  0
 21 51  1  0
 22 52  1  0
 23 53  1  0
M  CHG  1   3   1
M  END
>  <UniqueID>  (8) 
8

>  <SMILES>  (8) 
CC[NH+](CC)CCOCCNc1cccc2c(=O)c3ccccc3oc12

>  <Energy>  (8) 
71.8672592541615

>  <Genealogy>  (8) 
CC[NH+](CC)CCOCCNc1cccc2c(=O)c3ccccc3oc12 (protonated)
CC[NH+](CC)CCOCCNc1cccc2c(=O)c3ccccc3oc12 (3D coordinates assigned)
CC[NH+](CC)CCOCCNc1cccc2c(=O)c3ccccc3oc12 (optimized conformer: 71.8672592541615 kcal/mol)

>  <smiles>  (8) 
CCN(CC)CCOCCNc1cccc2c(=O)c3ccccc3oc12

>  <score_type>  (8) 
oracle

>  <origin>  (8) 
adg

>  <m_score__min__energy>  (8) 
-4.8399999999999999

>  <m_primary>  (8) 
energy

$$$$
8:0
     RDKit          3D

 47 49  0  0  0  0  0  0  0  0999 V2000
   63.0200   33.8810   49.9880 C   0  0  0  0  0  0  0  0  0  0  0  0
   62.8850   33.9240   48.4690 C   0  0  0  0  0  0  0  0  0  0  0  0
   63.6450   32.7650   47.8110 C   0  0  0  0  0  0  0  0  0  0  0  0
   62.7070   31.7200   47.1840 C   0  0  0  0  0  0  0  0  0  0  0  0
   61.8850   30.9210   48.2120 C   0  0  0  0  0  0  0  0  0  0  0  0
   60.4480   30.8690   47.8450 N   0  0  0  0  0  0  0  0  0  0  0  0
   59.6810   32.0360   48.3350 C   0  0  0  0  0  0  0  0  0  0  0  0
   59.2810   32.9310   47.2050 C   0  0  0  0  0  0  0  0  0  0  0  0
   60.1300   33.7550   46.4770 C   0  0  0  0  0  0  0  0  0  0  0  0
   59.4680   34.4820   45.4800 C   0  0  0  0  0  0  0  0  0  0  0  0
   58.1030   34.2280   45.4180 C   0  0  0  0  0  0  0  0  0  0  0  0
   57.7190   33.1000   46.6050 S   0  0  0  0  0  0  0  0  0  0  0  0
   60.2210   30.6070   46.4000 C   0  0  0  0  0  0  0  0  0  0  0  0
   58.9710   29.7770   46.1050 C   0  0  0  0  0  0  0  0  0  0  0  0
   58.7090   28.6750   46.9420 C   0  0  0  0  0  0  0  0  0  0  0  0
   57.5680   27.8950   46.7760 C   0  0  0  0  0  0  0  0  0  0  0  0
   56.6660   28.1770   45.7560 C   0  0  0  0  0  0  0  0  0  0  0  0
   55.5270   27.3920   45.6110 O   0  0  0  0  0  0  0  0  0  0  0  0
   56.9110   29.2350   44.8760 C   0  0  0  0  0  0  0  0  0  0  0  0
   56.0320   29.4780   43.8650 N   0  0  0  0  0  0  0  0  0  0  0  0
   56.2250   30.4730   42.9640 C   0  0  0  0  0  0  0  0  0  0  0  0
   57.3570   31.2780   43.0480 C   0  0  0  0  0  0  0  0  0  0  0  0
   58.2830   31.0620   44.0700 C   0  0  0  0  0  0  0  0  0  0  0  0
   58.0730   30.0420   45.0260 C   0  0  0  0  0  0  0  0  0  0  0  0
   62.0685   34.1840   50.4494 H   0  0  0  0  0  0  0  0  0  0  0  0
   63.2718   32.8582   50.3049 H   0  0  0  0  0  0  0  0  0  0  0  0
   63.8170   34.5698   50.3049 H   0  0  0  0  0  0  0  0  0  0  0  0
   61.8204   33.8528   48.2013 H   0  0  0  0  0  0  0  0  0  0  0  0
   63.3134   34.8707   48.1081 H   0  0  0  0  0  0  0  0  0  0  0  0
   64.2946   33.1728   47.0225 H   0  0  0  0  0  0  0  0  0  0  0  0
   64.2264   32.2605   48.5967 H   0  0  0  0  0  0  0  0  0  0  0  0
   62.0089   32.2405   46.5120 H   0  0  0  0  0  0  0  0  0  0  0  0
   63.3443   30.9968   46.6541 H   0  0  0  0  0  0  0  0  0  0  0  0
   62.2775   29.8946   48.2620 H   0  0  0  0  0  0  0  0  0  0  0  0
   61.9720   31.4243   49.1862 H   0  0  0  0  0  0  0  0  0  0  0  0
   58.7760   31.6807   48.8495 H   0  0  0  0  0  0  0  0  0  0  0  0
   60.3186   32.6083   49.0249 H   0  0  0  0  0  0  0  0  0  0  0  0
   61.2114   33.8288   46.6645 H   0  0  0  0  0  0  0  0  0  0  0  0
   59.9800   35.1876   44.8092 H   0  0  0  0  0  0  0  0  0  0  0  0
   57.3944   34.6866   44.7127 H   0  0  0  0  0  0  0  0  0  0  0  0
   60.1232   31.5739   45.8848 H   0  0  0  0  0  0  0  0  0  0  0  0
   61.0818   30.0215   46.0447 H   0  0  0  0  0  0  0  0  0  0  0  0
   59.4204   28.4256   47.7431 H   0  0  0  0  0  0  0  0  0  0  0  0
   57.3789   27.0509   47.4555 H   0  0  0  0  0  0  0  0  0  0  0  0
   55.4867   30.6438   42.1667 H   0  0  0  0  0  0  0  0  0  0  0  0
   57.5212   32.0800   42.3132 H   0  0  0  0  0  0  0  0  0  0  0  0
   59.1835   31.6907   44.1320 H   0  0  0  0  0  0  0  0  0  0  0  0
  1  2  1  0
  2  3  1  0
  3  4  1  0
  4  5  1  0
  5  6  1  0
  6  7  1  0
  7  8  1  0
  8  9  2  0
  9 10  1  0
 10 11  2  0
 11 12  1  0
  6 13  1  0
 13 14  1  0
 14 15  2  0
 15 16  1  0
 16 17  2  0
 17 18  1  0
 17 19  1  0
 19 20  2  0
 20 21  1  0
 21 22  2  0
 22 23  1  0
 23 24  2  0
 12  8  1  0
 24 14  1  0
 24 19  1  0
  1 25  1  0
  1 26  1  0
  1 27  1  0
  2 28  1  0
  2 29  1  0
  3 30  1  0
  3 31  1  0
  4 32  1  0
  4 33  1  0
  5 34  1  0
  5 35  1  0
  7 36  1  0
  7 37  1  0
  9 38  1  0
 10 39  1  0
 11 40  1  0
 13 41  1  0
 13 42  1  0
 15 43  1  0
 16 44  1  0
 21 45  1  0
 22 46  1  0
 23 47  1  0
M  CHG  1  18  -1
M  END
>  <UniqueID>  (9) 
9

>  <SMILES>  (9) 
CCCCCN(Cc1cccs1)Cc1ccc([O-])c2ncccc12

>  <Energy>  (9) 
79.32989945779741

>  <Genealogy>  (9) 
CCCCCN(Cc1cccs1)Cc1ccc([O-])c2ncccc12 (protonated)
CCCCCN(Cc1cccs1)Cc1ccc([O-])c2ncccc12 (3D coordinates assigned)
CCCCCN(Cc1cccs1)Cc1ccc([O-])c2ncccc12 (optimized conformer: 79.32989945779741 kcal/mol)

>  <smiles>  (9) 
CCCCCN(Cc1cccs1)Cc1ccc(O)c2ncccc12

>  <score_type>  (9) 
oracle

>  <origin>  (9) 
adg

>  <m_score__min__energy>  (9) 
-11.6

>  <m_primary>  (9) 
energy

$$$$
9:0
     RDKit          3D

 50 52  0  0  0  0  0  0  0  0999 V2000
   59.1430   26.4730   47.7720 C   0  0  0  0  0  0  0  0  0  0  0  0
   58.7980   27.9620   47.9050 C   0  0  0  0  0  0  0  0  0  0  0  0
   59.8040   28.8340   47.2460 N   0  0  0  0  0  0  0  0  0  0  0  0
   60.5410   28.1290   46.1620 C   0  0  0  0  0  0  0  0  0  0  0  0
   60.7560   28.9520   44.8890 C   0  0  0  0  0  0  0  0  0  0  0  0
   60.6970   29.6000   48.1660 C   0  0  0  0  0  0  0  0  0  0  0  0
   60.3160   31.0820   48.3980 C   0  0  0  0  0  0  0  0  0  0  0  0
   58.9620   31.3540   47.9070 N   0  0  0  0  0  0  0  0  0  0  0  0
   58.6900   32.1560   46.7380 C   0  0  0  0  0  0  0  0  0  0  0  0
   58.8920   33.5500   46.7440 C   0  0  0  0  0  0  0  0  0  0  0  0
   58.6240   34.3130   45.6060 C   0  0  0  0  0  0  0  0  0  0  0  0
   58.1510   33.7060   44.4440 C   0  0  0  0  0  0  0  0  0  0  0  0
   57.9400   32.3170   44.4110 C   0  0  0  0  0  0  0  0  0  0  0  0
   57.4590   31.6650   43.2640 C   0  0  0  0  0  0  0  0  0  0  0  0
   57.1920   32.3090   42.2140 O   0  0  0  0  0  0  0  0  0  0  0  0
   57.2720   30.2830   43.2900 C   0  0  0  0  0  0  0  0  0  0  0  0
   57.5710   29.5690   44.4620 C   0  0  0  0  0  0  0  0  0  0  0  0
   57.3930   28.0970   44.5540 C   0  0  0  0  0  0  0  0  0  0  0  0
   57.9600   27.2210   43.6070 C   0  0  0  0  0  0  0  0  0  0  0  0
   57.7840   25.8390   43.7270 C   0  0  0  0  0  0  0  0  0  0  0  0
   57.0480   25.3130   44.7920 C   0  0  0  0  0  0  0  0  0  0  0  0
   56.8290   23.5800   44.9390 Cl  0  0  0  0  0  0  0  0  0  0  0  0
   56.4920   26.1730   45.7440 C   0  0  0  0  0  0  0  0  0  0  0  0
   56.6670   27.5550   45.6290 C   0  0  0  0  0  0  0  0  0  0  0  0
   58.0170   30.2240   45.5330 O   0  0  0  0  0  0  0  0  0  0  0  0
   58.2120   31.5410   45.5610 C   0  0  0  0  0  0  0  0  0  0  0  0
   59.2457   26.0296   48.7734 H   0  0  0  0  0  0  0  0  0  0  0  0
   58.3403   25.9582   47.2236 H   0  0  0  0  0  0  0  0  0  0  0  0
   60.0903   26.3637   47.2236 H   0  0  0  0  0  0  0  0  0  0  0  0
   57.8167   28.1407   47.4412 H   0  0  0  0  0  0  0  0  0  0  0  0
   58.7868   28.2108   48.9764 H   0  0  0  0  0  0  0  0  0  0  0  0
   59.2550   29.5620   46.7290 H   0  0  0  0  0  0  0  0  0  0  0  0
   61.5277   27.8388   46.5522 H   0  0  0  0  0  0  0  0  0  0  0  0
   59.9178   27.2700   45.8729 H   0  0  0  0  0  0  0  0  0  0  0  0
   61.0254   29.9834   45.1603 H   0  0  0  0  0  0  0  0  0  0  0  0
   61.5675   28.5049   44.2960 H   0  0  0  0  0  0  0  0  0  0  0  0
   59.8295   28.9590   44.2960 H   0  0  0  0  0  0  0  0  0  0  0  0
   60.6898   29.0932   49.1423 H   0  0  0  0  0  0  0  0  0  0  0  0
   61.6825   29.6186   47.6777 H   0  0  0  0  0  0  0  0  0  0  0  0
   60.3600   31.3014   49.4750 H   0  0  0  0  0  0  0  0  0  0  0  0
   61.0250   31.7187   47.8485 H   0  0  0  0  0  0  0  0  0  0  0  0
   58.1530   30.9510   48.4340 H   0  0  0  0  0  0  0  0  0  0  0  0
   59.2646   34.0423   47.6544 H   0  0  0  0  0  0  0  0  0  0  0  0
   58.7873   35.4006   45.6266 H   0  0  0  0  0  0  0  0  0  0  0  0
   57.9426   34.3148   43.5518 H   0  0  0  0  0  0  0  0  0  0  0  0
   56.8939   29.7572   42.4009 H   0  0  0  0  0  0  0  0  0  0  0  0
   58.5446   27.6268   42.7682 H   0  0  0  0  0  0  0  0  0  0  0  0
   58.2266   25.1634   42.9802 H   0  0  0  0  0  0  0  0  0  0  0  0
   55.9155   25.7610   46.5854 H   0  0  0  0  0  0  0  0  0  0  0  0
   56.2329   28.2244   46.3863 H   0  0  0  0  0  0  0  0  0  0  0  0
  1  2  1  0
  2  3  1  0
  3  4  1  0
  4  5  1  0
  3  6  1  0
  6  7  1  0
  7  8  1  0
  8  9  1  0
  9 10  2  0
 10 11  1  0
 11 12  2  0
 12 13  1  0
 13 14  1  0
 14 15  2  0
 14 16  1  0
 16 17  2  0
 17 18  1  0
 18 19  2  0
 19 20  1  0
 20 21  2  0
 21 22  1  0
 21 23  1  0
 23 24  2  0
 17 25  1  0
 25 26  1  0
 26  9  1  0
 26 13  2  0
 24 18  1  0
  1 27  1  0
  1 28  1  0
  1 29  1  0
  2 30  1  0
  2 31  1  0
  3 32  1  0
  4 33  1  0
  4 34  1  0
  5 35  1  0
  5 36  1  0
  5 37  1  0
  6 38  1  0
  6 39  1  0
  7 40  1  0
  7 41  1  0
  8 42  1  0
 10 43  1  0
 11 44  1  0
 12 45  1  0
 16 46  1  0
 19 47  1  0
 20 48  1  0
 23 49  1  0
 24 50  1  0
M  CHG  1   3   1
M  END
>  <UniqueID>  (10) 
10

>  <SMILES>  (10) 
CC[NH+](CC)CCNc1cccc2c(=O)cc(-c3ccc(Cl)cc3)oc12

>  <Energy>  (10) 
66.84314015464572

>  <Genealogy>  (10) 
CC[NH+](CC)CCNc1cccc2c(=O)cc(-c3ccc(Cl)cc3)oc12 (protonated)
CC[NH+](CC)CCNc1cccc2c(=O)cc(-c3ccc(Cl)cc3)oc12 (3D coordinates assigned)
CC[NH+](CC)CCNc1cccc2c(=O)cc(-c3ccc(Cl)cc3)oc12 (optimized conformer: 66.84314015464572 kcal/mol)

>  <smiles>  (10) 
CCN(CC)CCNc1cccc2c(=O)cc(-c3ccc(Cl)cc3)oc12

>  <score_type>  (10) 
oracle

>  <origin>  (10) 
adg

>  <m_score__min__energy>  (10) 
-6.2800000000000002

>  <m_primary>  (10) 
energy

$$$$
10:0
     RDKit          3D

 80 84  0  0  0  0  0  0  0  0999 V2000
   58.2820   34.0390   52.5780 C   0  0  0  0  0  0  0  0  0  0  0  0
   57.5580   32.7120   52.3710 C   0  0  0  0  0  0  0  0  0  0  0  0
   57.6420   32.2850   50.9680 N   0  0  0  0  0  0  0  0  0  0  0  0
   58.1740   30.9210   50.8470 C   0  0  0  0  0  0  0  0  0  0  0  0
   59.6900   30.9760   50.5700 C   0  0  0  0  0  0  0  0  0  0  0  0
   60.2900   32.3290   50.6370 N   0  0  0  0  0  0  0  0  0  0  0  0
   61.0370   32.7150   49.4560 C   0  0  0  0  0  0  0  0  0  0  0  0
   60.3860   33.2470   48.3020 C   0  0  0  0  0  0  0  0  0  0  0  0
   58.9740   33.3450   48.2290 C   0  0  0  0  0  0  0  0  0  0  0  0
   58.3440   33.8370   47.0890 C   0  0  0  0  0  0  0  0  0  0  0  0
   59.0950   34.2420   45.9930 C   0  0  0  0  0  0  0  0  0  0  0  0
   60.4860   34.1760   46.0330 C   0  0  0  0  0  0  0  0  0  0  0  0
   61.1670   33.6950   47.1810 C   0  0  0  0  0  0  0  0  0  0  0  0
   62.5490   33.6540   47.2260 N   0  0  0  0  0  0  0  0  0  0  0  0
   63.3520   34.2210   46.1260 C   0  0  0  0  0  0  0  0  0  0  0  0
   63.1560   33.0650   48.3050 C   0  0  0  0  0  0  0  0  0  0  0  0
   64.4860   32.8430   48.4450 N   0  0  0  0  0  0  0  0  0  0  0  0
   64.6270   32.2400   49.6350 C   0  0  0  0  0  0  0  0  0  0  0  0
   65.8250   31.7940   50.1870 C   0  0  0  0  0  0  0  0  0  0  0  0
   65.7870   31.1480   51.4280 C   0  0  0  0  0  0  0  0  0  0  0  0
   64.5540   30.9530   52.1000 C   0  0  0  0  0  0  0  0  0  0  0  0
   64.4650   30.3160   53.3500 O   0  0  0  0  0  0  0  0  0  0  0  0
   64.0660   28.9630   53.5670 C   0  0  0  0  0  0  0  0  0  0  0  0
   64.6260   28.0610   52.4340 C   0  0  0  0  0  0  0  0  0  0  0  0
   65.8740   27.2880   52.7450 N   0  0  0  0  0  0  0  0  0  0  0  0
   65.8480   26.8310   54.1600 C   0  0  0  0  0  0  0  0  0  0  0  0
   67.0380   28.2260   52.5720 C   0  0  0  0  0  0  0  0  0  0  0  0
   68.3240   27.5060   52.1180 C   0  0  0  0  0  0  0  0  0  0  0  0
   68.1610   26.8540   50.7790 N   0  0  0  0  0  0  0  0  0  0  0  0
   69.0570   25.6730   50.7070 C   0  0  0  0  0  0  0  0  0  0  0  0
   68.5640   27.8000   49.7060 C   0  0  0  0  0  0  0  0  0  0  0  0
   66.7460   26.4230   50.5370 C   0  0  0  0  0  0  0  0  0  0  0  0
   66.0140   26.0890   51.8490 C   0  0  0  0  0  0  0  0  0  0  0  0
   63.3600   31.4000   51.5090 C   0  0  0  0  0  0  0  0  0  0  0  0
   63.4130   32.0600   50.2680 C   0  0  0  0  0  0  0  0  0  0  0  0
   62.4450   32.5980   49.4020 C   0  0  0  0  0  0  0  0  0  0  0  0
   58.3886   34.2344   53.6552 H   0  0  0  0  0  0  0  0  0  0  0  0
   59.2781   33.9895   52.1140 H   0  0  0  0  0  0  0  0  0  0  0  0
   57.7013   34.8498   52.1140 H   0  0  0  0  0  0  0  0  0  0  0  0
   58.0209   31.9452   53.0096 H   0  0  0  0  0  0  0  0  0  0  0  0
   56.4987   32.8433   52.6367 H   0  0  0  0  0  0  0  0  0  0  0  0
   56.6700   32.2920   50.5700 H   0  0  0  0  0  0  0  0  0  0  0  0
   57.9933   30.3738   51.7840 H   0  0  0  0  0  0  0  0  0  0  0  0
   57.6706   30.4065   50.0152 H   0  0  0  0  0  0  0  0  0  0  0  0
   60.1958   30.3412   51.3125 H   0  0  0  0  0  0  0  0  0  0  0  0
   59.8261   30.6302   49.5347 H   0  0  0  0  0  0  0  0  0  0  0  0
   59.5280   33.0210   50.8110 H   0  0  0  0  0  0  0  0  0  0  0  0
   60.8740   32.4350   51.4900 H   0  0  0  0  0  0  0  0  0  0  0  0
   58.3651   33.0268   49.0881 H   0  0  0  0  0  0  0  0  0  0  0  0
   57.2466   33.9053   47.0562 H   0  0  0  0  0  0  0  0  0  0  0  0
   58.5897   34.6161   45.0904 H   0  0  0  0  0  0  0  0  0  0  0  0
   61.0672   34.5029   45.1582 H   0  0  0  0  0  0  0  0  0  0  0  0
   64.1833   34.8080   46.5437 H   0  0  0  0  0  0  0  0  0  0  0  0
   63.7538   33.4052   45.5071 H   0  0  0  0  0  0  0  0  0  0  0  0
   62.7177   34.8726   45.5071 H   0  0  0  0  0  0  0  0  0  0  0  0
   65.2660   33.0360   47.7810 H   0  0  0  0  0  0  0  0  0  0  0  0
   66.7787   31.9458   49.6602 H   0  0  0  0  0  0  0  0  0  0  0  0
   66.7208   30.7889   51.8854 H   0  0  0  0  0  0  0  0  0  0  0  0
   64.4571   28.6178   54.5355 H   0  0  0  0  0  0  0  0  0  0  0  0
   62.9676   28.9042   53.5685 H   0  0  0  0  0  0  0  0  0  0  0  0
   63.8427   27.3365   52.1664 H   0  0  0  0  0  0  0  0  0  0  0  0
   64.9069   28.7520   51.6255 H   0  0  0  0  0  0  0  0  0  0  0  0
   65.8976   27.7035   54.8281 H   0  0  0  0  0  0  0  0  0  0  0  0
   64.9169   26.2768   54.3493 H   0  0  0  0  0  0  0  0  0  0  0  0
   66.7103   26.1747   54.3493 H   0  0  0  0  0  0  0  0  0  0  0  0
   66.7722   28.9802   51.8166 H   0  0  0  0  0  0  0  0  0  0  0  0
   67.2429   28.6834   53.5512 H   0  0  0  0  0  0  0  0  0  0  0  0
   69.1399   28.2413   52.0577 H   0  0  0  0  0  0  0  0  0  0  0  0
   68.5498   26.7194   52.8530 H   0  0  0  0  0  0  0  0  0  0  0  0
   69.3088   25.3412   51.7251 H   0  0  0  0  0  0  0  0  0  0  0  0
   68.5476   24.8584   50.1713 H   0  0  0  0  0  0  0  0  0  0  0  0
   69.9787   25.9441   50.1713 H   0  0  0  0  0  0  0  0  0  0  0  0
   68.9569   28.7223   50.1588 H   0  0  0  0  0  0  0  0  0  0  0  0
   69.3430   27.3370   49.0825 H   0  0  0  0  0  0  0  0  0  0  0  0
   67.6904   28.0410   49.0825 H   0  0  0  0  0  0  0  0  0  0  0  0
   66.2089   27.2366   50.0276 H   0  0  0  0  0  0  0  0  0  0  0  0
   66.7683   25.5135   49.9187 H   0  0  0  0  0  0  0  0  0  0  0  0
   65.0105   25.7088   51.6074 H   0  0  0  0  0  0  0  0  0  0  0  0
   66.6104   25.3360   52.3850 H   0  0  0  0  0  0  0  0  0  0  0  0
   62.3951   31.2357   52.0110 H   0  0  0  0  0  0  0  0  0  0  0  0
  1  2  1  0
  2  3  1  0
  3  4  1  0
  4  5  1  0
  5  6  1  0
  6  7  1  0
  7  8  2  0
  8  9  1  0
  9 10  2  0
 10 11  1  0
 11 12  2  0
 12 13  1  0
 13 14  2  0
 14 15  1  0
 14 16  1  0
 16 17  1  0
 17 18  1  0
 18 19  2  0
 19 20  1  0
 20 21  2  0
 21 22  1  0
 22 23  1  0
 23 24  1  0
 24 25  1  0
 25 26  1  0
 25 27  1  0
 27 28  1  0
 28 29  1  0
 29 30  1  0
 29 31  1  0
 29 32  1  0
 32 33  1  0
 21 34  1  0
 34 35  2  0
 35 36  1  0
 36  7  1  0
 13  8  1  0
 36 16  2  0
 35 18  1  0
 33 25  1  0
  1 37  1  0
  1 38  1  0
  1 39  1  0
  2 40  1  0
  2 41  1  0
  3 42  1  0
  4 43  1  0
  4 44  1  0
  5 45  1  0
  5 46  1  0
  6 47  1  0
  6 48  1  0
  9 49  1  0
 10 50  1  0
 11 51  1  0
 12 52  1  0
 15 53  1  0
 15 54  1  0
 15 55  1  0
 17 56  1  0
 19 57  1  0
 20 58  1  0
 23 59  1  0
 23 60  1  0
 24 61  1  0
 24 62  1  0
 26 63  1  0
 26 64  1  0
 26 65  1  0
 27 66  1  0
 27 67  1  0
 28 68  1  0
 28 69  1  0
 30 70  1  0
 30 71  1  0
 30 72  1  0
 31 73  1  0
 31 74  1  0
 31 75  1  0
 32 76  1  0
 32 77  1  0
 33 78  1  0
 33 79  1  0
 34 80  1  0
M  CHG  4   6   1  14   1  25   1  29   1
M  END
>  <UniqueID>  (11) 
11

>  <SMILES>  (11) 
CCNCC[NH2+]c1c2ccccc2[n+](C)c2[nH]c3ccc(OCC[N+]4(C)CC[N+](C)(C)CC4)cc3c12

>  <Energy>  (11) 
169.0467633177919

>  <Genealogy>  (11) 
CCNCC[NH2+]c1c2ccccc2[n+](C)c2[nH]c3ccc(OCC[N+]4(C)CC[N+](C)(C)CC4)cc3c12 (protonated)
CCNCC[NH2+]c1c2ccccc2[n+](C)c2[nH]c3ccc(OCC[N+]4(C)CC[N+](C)(C)CC4)cc3c12 (3D coordinates assigned)
CCNCC[NH2+]c1c2ccccc2[n+](C)c2[nH]c3ccc(OCC[N+]4(C)CC[N+](C)(C)CC4)cc3c12 (nonaromatic ring conformer: 169.0467633177919 kcal/mol)

>  <smiles>  (11) 
CCNCCNc1c2ccccc2[n+](C)c2[nH]c3ccc(OCC[N+]4(C)CC[N+](C)(C)CC4)cc3c12

>  <score_type>  (11) 
oracle

>  <origin>  (11) 
adg

>  <m_score__min__energy>  (11) 
-3.1499999999999999

>  <m_primary>  (11) 
energy

$$$$
11:0
     RDKit          3D

 65 67  0  0  0  0  0  0  0  0999 V2000
   57.7880   32.4810   51.8540 C   0  0  0  0  0  0  0  0  0  0  0  0
   58.8840   32.7310   50.8170 C   0  0  0  0  0  0  0  0  0  0  0  0
   59.7260   31.5300   50.6020 N   0  0  0  0  0  0  0  0  0  0  0  0
   60.9310   31.4560   51.4680 C   0  0  0  0  0  0  0  0  0  0  0  0
   61.4330   32.8130   51.9870 C   0  0  0  0  0  0  0  0  0  0  0  0
   58.9280   30.2810   50.6230 C   0  0  0  0  0  0  0  0  0  0  0  0
   58.8910   29.6560   49.2260 C   0  0  0  0  0  0  0  0  0  0  0  0
   59.5960   30.4960   48.2590 N   0  0  0  0  0  0  0  0  0  0  0  0
   59.1290   30.5710   46.9050 C   0  0  0  0  0  0  0  0  0  0  0  0
   59.0030   29.3850   46.1610 C   0  0  0  0  0  0  0  0  0  0  0  0
   59.5290   28.1670   46.6450 C   0  0  0  0  0  0  0  0  0  0  0  0
   59.4560   27.0070   45.8800 C   0  0  0  0  0  0  0  0  0  0  0  0
   58.8640   27.0390   44.6220 C   0  0  0  0  0  0  0  0  0  0  0  0
   58.3100   28.2240   44.1380 C   0  0  0  0  0  0  0  0  0  0  0  0
   58.3300   29.4110   44.9140 C   0  0  0  0  0  0  0  0  0  0  0  0
   57.7050   30.5670   44.4940 N   0  0  0  0  0  0  0  0  0  0  0  0
   56.7130   30.5090   43.3970 C   0  0  0  0  0  0  0  0  0  0  0  0
   57.9860   31.7720   45.1140 C   0  0  0  0  0  0  0  0  0  0  0  0
   57.5600   33.0000   44.5530 C   0  0  0  0  0  0  0  0  0  0  0  0
   57.8090   34.2090   45.1880 C   0  0  0  0  0  0  0  0  0  0  0  0
   58.5400   34.2420   46.3650 C   0  0  0  0  0  0  0  0  0  0  0  0
   59.0380   33.0620   46.9360 C   0  0  0  0  0  0  0  0  0  0  0  0
   59.9730   33.1670   48.0260 N   0  0  0  0  0  0  0  0  0  0  0  0
   60.9920   34.2170   48.0970 C   0  0  0  0  0  0  0  0  0  0  0  0
   62.3790   33.6090   48.3310 C   0  0  0  0  0  0  0  0  0  0  0  0
   62.3030   32.1370   48.4510 N   0  0  0  0  0  0  0  0  0  0  0  0
   63.3640   31.6500   49.3460 C   0  0  0  0  0  0  0  0  0  0  0  0
   62.4390   31.4860   47.1340 C   0  0  0  0  0  0  0  0  0  0  0  0
   58.7290   31.8030   46.3330 C   0  0  0  0  0  0  0  0  0  0  0  0
   58.2108   32.5774   52.8649 H   0  0  0  0  0  0  0  0  0  0  0  0
   56.9827   33.2185   51.7215 H   0  0  0  0  0  0  0  0  0  0  0  0
   57.3822   31.4672   51.7215 H   0  0  0  0  0  0  0  0  0  0  0  0
   58.4136   33.0110   49.8629 H   0  0  0  0  0  0  0  0  0  0  0  0
   59.5306   33.5379   51.1922 H   0  0  0  0  0  0  0  0  0  0  0  0
   60.6908   30.8246   52.3362 H   0  0  0  0  0  0  0  0  0  0  0  0
   61.7376   31.0444   50.8436 H   0  0  0  0  0  0  0  0  0  0  0  0
   61.4313   32.8083   53.0870 H   0  0  0  0  0  0  0  0  0  0  0  0
   62.4558   32.9893   51.6227 H   0  0  0  0  0  0  0  0  0  0  0  0
   60.7711   33.6125   51.6227 H   0  0  0  0  0  0  0  0  0  0  0  0
   59.3839   29.5699   51.3276 H   0  0  0  0  0  0  0  0  0  0  0  0
   57.9010   30.5156   50.9395 H   0  0  0  0  0  0  0  0  0  0  0  0
   59.3712   28.6670   49.2613 H   0  0  0  0  0  0  0  0  0  0  0  0
   57.8413   29.5629   48.9107 H   0  0  0  0  0  0  0  0  0  0  0  0
   60.5530   30.8590   48.4760 H   0  0  0  0  0  0  0  0  0  0  0  0
   60.0017   28.1350   47.6378 H   0  0  0  0  0  0  0  0  0  0  0  0
   59.8667   26.0642   46.2705 H   0  0  0  0  0  0  0  0  0  0  0  0
   58.8326   26.1274   44.0071 H   0  0  0  0  0  0  0  0  0  0  0  0
   57.8504   28.2382   43.1387 H   0  0  0  0  0  0  0  0  0  0  0  0
   55.6999   30.4498   43.8215 H   0  0  0  0  0  0  0  0  0  0  0  0
   56.7985   31.4137   42.7771 H   0  0  0  0  0  0  0  0  0  0  0  0
   56.9033   29.6205   42.7771 H   0  0  0  0  0  0  0  0  0  0  0  0
   57.0207   32.9960   43.5943 H   0  0  0  0  0  0  0  0  0  0  0  0
   57.4246   35.1445   44.7553 H   0  0  0  0  0  0  0  0  0  0  0  0
   58.7321   35.2065   46.8578 H   0  0  0  0  0  0  0  0  0  0  0  0
   60.1070   32.3220   48.6250 H   0  0  0  0  0  0  0  0  0  0  0  0
   60.9986   34.7787   47.1512 H   0  0  0  0  0  0  0  0  0  0  0  0
   60.7527   34.8867   48.9362 H   0  0  0  0  0  0  0  0  0  0  0  0
   63.0316   33.8670   47.4839 H   0  0  0  0  0  0  0  0  0  0  0  0
   62.7841   34.0151   49.2696 H   0  0  0  0  0  0  0  0  0  0  0  0
   63.0550   31.7918   50.3921 H   0  0  0  0  0  0  0  0  0  0  0  0
   63.5405   30.5807   49.1576 H   0  0  0  0  0  0  0  0  0  0  0  0
   64.2899   32.2133   49.1576 H   0  0  0  0  0  0  0  0  0  0  0  0
   62.6621   30.4180   47.2742 H   0  0  0  0  0  0  0  0  0  0  0  0
   61.4990   31.5936   46.5730 H   0  0  0  0  0  0  0  0  0  0  0  0
   63.2573   31.9610   46.5730 H   0  0  0  0  0  0  0  0  0  0  0  0
  1  2  1  0
  2  3  1  0
  3  4  1  0
  4  5  1  0
  3  6  1  0
  6  7  1  0
  7  8  1  0
  8  9  1  0
  9 10  2  0
 10 11  1  0
 11 12  2  0
 12 13  1  0
 13 14  2  0
 14 15  1  0
 15 16  2  0
 16 17  1  0
 16 18  1  0
 18 19  2  0
 19 20  1  0
 20 21  2  0
 21 22  1  0
 22 23  1  0
 23 24  1  0
 24 25  1  0
 25 26  1  0
 26 27  1  0
 26 28  1  0
 22 29  2  0
 29  9  1  0
 15 10  1  0
 29 18  1  0
  1 30  1  0
  1 31  1  0
  1 32  1  0
  2 33  1  0
  2 34  1  0
  4 35  1  0
  4 36  1  0
  5 37  1  0
  5 38  1  0
  5 39  1  0
  6 40  1  0
  6 41  1  0
  7 42  1  0
  7 43  1  0
  8 44  1  0
 11 45  1  0
 12 46  1  0
 13 47  1  0
 14 48  1  0
 17 49  1  0
 17 50  1  0
 17 51  1  0
 19 52  1  0
 20 53  1  0
 21 54  1  0
 23 55  1  0
 24 56  1  0
 24 57  1  0
 25 58  1  0
 25 59  1  0
 27 60  1  0
 27 61  1  0
 27 62  1  0
 28 63  1  0
 28 64  1  0
 28 65  1  0
M  CHG  1  16   1
M  END
>  <UniqueID>  (12) 
12

>  <SMILES>  (12) 
CCN(CC)CCNc1c2ccccc2[n+](C)c2cccc(NCCN(C)C)c12

>  <Energy>  (12) 
97.44757592578034

>  <Genealogy>  (12) 
CCN(CC)CCNc1c2ccccc2[n+](C)c2cccc(NCCN(C)C)c12 (3D coordinates assigned)
CCN(CC)CCNc1c2ccccc2[n+](C)c2cccc(NCCN(C)C)c12 (optimized conformer: 97.44757592578034 kcal/mol)

>  <smiles>  (12) 
CCN(CC)CCNc1c2ccccc2[n+](C)c2cccc(NCCN(C)C)c12

>  <score_type>  (12) 
oracle

>  <origin>  (12) 
adg

>  <m_score__min__energy>  (12) 
-5.1600000000000001

>  <m_primary>  (12) 
energy

$$$$
12:0
     RDKit          3D

 45 47  0  0  0  0  0  0  0  0999 V2000
   57.6750   29.1360   45.9500 C   0  0  0  0  0  0  0  0  0  0  0  0
   58.1410   30.5650   45.9210 C   0  0  0  0  0  0  0  0  0  0  0  0
   58.6170   31.3030   47.0150 C   0  0  0  0  0  0  0  0  0  0  0  0
   58.8890   30.8970   48.3320 O   0  0  0  0  0  0  0  0  0  0  0  0
   59.7710   29.8440   48.7160 C   0  0  0  0  0  0  0  0  0  0  0  0
   61.1740   30.3970   49.0310 C   0  0  0  0  0  0  0  0  0  0  0  0
   61.3530   31.7900   48.5450 N   0  0  0  0  0  0  0  0  0  0  0  0
   62.1490   32.5660   49.5350 C   0  0  0  0  0  0  0  0  0  0  0  0
   62.7290   33.8450   48.9200 C   0  0  0  0  0  0  0  0  0  0  0  0
   63.7090   33.5130   47.7820 C   0  0  0  0  0  0  0  0  0  0  0  0
   63.4250   32.1470   47.1360 C   0  0  0  0  0  0  0  0  0  0  0  0
   61.9230   31.8270   47.1620 C   0  0  0  0  0  0  0  0  0  0  0  0
   58.7760   32.5920   46.5640 C   0  0  0  0  0  0  0  0  0  0  0  0
   59.2000   33.7370   47.2340 C   0  0  0  0  0  0  0  0  0  0  0  0
   59.2570   34.9400   46.5100 C   0  0  0  0  0  0  0  0  0  0  0  0
   58.8910   34.9690   45.1470 C   0  0  0  0  0  0  0  0  0  0  0  0
   58.4690   33.7970   44.4950 C   0  0  0  0  0  0  0  0  0  0  0  0
   58.4290   32.6080   45.2360 C   0  0  0  0  0  0  0  0  0  0  0  0
   58.0590   31.3730   44.8250 N   0  0  0  0  0  0  0  0  0  0  0  0
   57.5760   30.9980   43.4940 C   0  0  0  0  0  0  0  0  0  0  0  0
   57.5675   28.8065   46.9940 H   0  0  0  0  0  0  0  0  0  0  0  0
   56.7044   29.0564   45.4386 H   0  0  0  0  0  0  0  0  0  0  0  0
   58.4121   28.4995   45.4386 H   0  0  0  0  0  0  0  0  0  0  0  0
   59.3701   29.3453   49.6108 H   0  0  0  0  0  0  0  0  0  0  0  0
   59.8512   29.1286   47.8843 H   0  0  0  0  0  0  0  0  0  0  0  0
   61.3245   30.3803   50.1205 H   0  0  0  0  0  0  0  0  0  0  0  0
   61.9096   29.7630   48.5143 H   0  0  0  0  0  0  0  0  0  0  0  0
   60.4090   32.2430   48.5080 H   0  0  0  0  0  0  0  0  0  0  0  0
   61.4989   32.8396   50.3791 H   0  0  0  0  0  0  0  0  0  0  0  0
   62.9866   31.9366   49.8699 H   0  0  0  0  0  0  0  0  0  0  0  0
   61.9070   34.4568   48.5200 H   0  0  0  0  0  0  0  0  0  0  0  0
   63.2729   34.3950   49.7021 H   0  0  0  0  0  0  0  0  0  0  0  0
   63.6282   34.2917   47.0092 H   0  0  0  0  0  0  0  0  0  0  0  0
   64.7198   33.4732   48.2141 H   0  0  0  0  0  0  0  0  0  0  0  0
   63.7711   32.1640   46.0920 H   0  0  0  0  0  0  0  0  0  0  0  0
   63.9581   31.3721   47.7064 H   0  0  0  0  0  0  0  0  0  0  0  0
   61.3911   32.5978   46.5850 H   0  0  0  0  0  0  0  0  0  0  0  0
   61.7944   30.8244   46.7281 H   0  0  0  0  0  0  0  0  0  0  0  0
   59.4815   33.7008   48.2968 H   0  0  0  0  0  0  0  0  0  0  0  0
   59.5883   35.8633   47.0077 H   0  0  0  0  0  0  0  0  0  0  0  0
   58.9363   35.9166   44.5902 H   0  0  0  0  0  0  0  0  0  0  0  0
   58.1787   33.8128   43.4341 H   0  0  0  0  0  0  0  0  0  0  0  0
   56.7107   30.3262   43.5938 H   0  0  0  0  0  0  0  0  0  0  0  0
   57.2765   31.9025   42.9443 H   0  0  0  0  0  0  0  0  0  0  0  0
   58.3781   30.4837   42.9443 H   0  0  0  0  0  0  0  0  0  0  0  0
  1  2  1  0
  2  3  2  0
  3  4  1  0
  4  5  1  0
  5  6  1  0
  6  7  1  0
  7  8  1  0
  8  9  1  0
  9 10  1  0
 10 11  1  0
 11 12  1  0
  3 13  1  0
 13 14  2  0
 14 15  1  0
 15 16  2  0
 16 17  1  0
 17 18  2  0
 18 19  1  0
 19 20  1  0
 19  2  1  0
 12  7  1  0
 18 13  1  0
  1 21  1  0
  1 22  1  0
  1 23  1  0
  5 24  1  0
  5 25  1  0
  6 26  1  0
  6 27  1  0
  7 28  1  0
  8 29  1  0
  8 30  1  0
  9 31  1  0
  9 32  1  0
 10 33  1  0
 10 34  1  0
 11 35  1  0
 11 36  1  0
 12 37  1  0
 12 38  1  0
 14 39  1  0
 15 40  1  0
 16 41  1  0
 17 42  1  0
 20 43  1  0
 20 44  1  0
 20 45  1  0
M  CHG  1   7   1
M  END
>  <UniqueID>  (13) 
13

>  <SMILES>  (13) 
Cc1c(OCC[NH+]2CCCCC2)c2ccccc2n1C

>  <Energy>  (13) 
90.87880197140512

>  <Genealogy>  (13) 
Cc1c(OCC[NH+]2CCCCC2)c2ccccc2n1C (protonated)
Cc1c(OCC[NH+]2CCCCC2)c2ccccc2n1C (3D coordinates assigned)
Cc1c(OCC[NH+]2CCCCC2)c2ccccc2n1C (nonaromatic ring conformer: 90.87880197140512 kcal/mol)

>  <smiles>  (13) 
Cc1c(OCCN2CCCCC2)c2ccccc2n1C

>  <score_type>  (13) 
oracle

>  <origin>  (13) 
adg

>  <m_score__min__energy>  (13) 
-5.0599999999999996

>  <m_primary>  (13) 
energy

$$$$
13:0
     RDKit          3D

 56 59  0  0  0  0  0  0  0  0999 V2000
   57.0490   31.0660   44.2960 C   0  0  0  0  0  0  0  0  0  0  0  0
   58.2180   31.2990   45.1590 N   0  0  0  0  0  0  0  0  0  0  0  0
   58.8100   30.2450   45.8110 C   0  0  0  0  0  0  0  0  0  0  0  0
   59.7110   30.4450   46.8420 C   0  0  0  0  0  0  0  0  0  0  0  0
   60.1360   31.7200   47.1960 C   0  0  0  0  0  0  0  0  0  0  0  0
   61.0690   31.9080   48.2670 N   0  0  0  0  0  0  0  0  0  0  0  0
   62.3640   32.5400   48.0080 C   0  0  0  0  0  0  0  0  0  0  0  0
   63.4670   31.9790   48.9230 C   0  0  0  0  0  0  0  0  0  0  0  0
   62.9860   30.8620   49.7510 N   0  0  0  0  0  0  0  0  0  0  0  0
   62.5160   31.3140   51.0680 C   0  0  0  0  0  0  0  0  0  0  0  0
   61.8500   30.1660   51.8530 C   0  0  0  0  0  0  0  0  0  0  0  0
   61.1980   29.1490   50.9890 N   0  0  0  0  0  0  0  0  0  0  0  0
   59.7400   29.3730   50.9790 C   0  0  0  0  0  0  0  0  0  0  0  0
   61.4850   27.7760   51.4420 C   0  0  0  0  0  0  0  0  0  0  0  0
   59.6590   32.8070   46.4350 C   0  0  0  0  0  0  0  0  0  0  0  0
   60.1030   34.1190   46.6970 C   0  0  0  0  0  0  0  0  0  0  0  0
   59.6560   35.1860   45.9230 C   0  0  0  0  0  0  0  0  0  0  0  0
   58.7690   34.9670   44.8720 C   0  0  0  0  0  0  0  0  0  0  0  0
   58.3000   33.6810   44.6010 C   0  0  0  0  0  0  0  0  0  0  0  0
   58.7060   32.5770   45.3890 C   0  0  0  0  0  0  0  0  0  0  0  0
   60.1080   29.1450   47.3730 C   0  0  0  0  0  0  0  0  0  0  0  0
   60.9380   28.9250   48.2920 O   0  0  0  0  0  0  0  0  0  0  0  0
   59.4120   28.1410   46.5850 C   0  0  0  0  0  0  0  0  0  0  0  0
   59.5250   26.7530   46.6390 C   0  0  0  0  0  0  0  0  0  0  0  0
   58.8470   25.9940   45.6750 C   0  0  0  0  0  0  0  0  0  0  0  0
   58.1070   26.6310   44.6610 C   0  0  0  0  0  0  0  0  0  0  0  0
   58.0190   28.0330   44.6140 C   0  0  0  0  0  0  0  0  0  0  0  0
   58.6450   28.7820   45.6220 C   0  0  0  0  0  0  0  0  0  0  0  0
   56.1613   30.8891   44.9210 H   0  0  0  0  0  0  0  0  0  0  0  0
   56.8804   31.9482   43.6610 H   0  0  0  0  0  0  0  0  0  0  0  0
   57.2315   30.1866   43.6610 H   0  0  0  0  0  0  0  0  0  0  0  0
   60.9120   31.3660   49.1460 H   0  0  0  0  0  0  0  0  0  0  0  0
   62.6449   32.3596   46.9599 H   0  0  0  0  0  0  0  0  0  0  0  0
   62.2658   33.6166   48.2114 H   0  0  0  0  0  0  0  0  0  0  0  0
   64.2996   31.6240   48.2979 H   0  0  0  0  0  0  0  0  0  0  0  0
   63.7894   32.7857   49.5977 H   0  0  0  0  0  0  0  0  0  0  0  0
   62.1690   30.4440   49.2470 H   0  0  0  0  0  0  0  0  0  0  0  0
   63.3740   31.6907   51.6441 H   0  0  0  0  0  0  0  0  0  0  0  0
   61.7694   32.1072   50.9152 H   0  0  0  0  0  0  0  0  0  0  0  0
   62.6213   29.6653   52.4566 H   0  0  0  0  0  0  0  0  0  0  0  0
   61.0591   30.6165   52.4706 H   0  0  0  0  0  0  0  0  0  0  0  0
   61.5370   29.2550   50.0040 H   0  0  0  0  0  0  0  0  0  0  0  0
   59.3707   29.4297   52.0136 H   0  0  0  0  0  0  0  0  0  0  0  0
   59.5175   30.3159   50.4580 H   0  0  0  0  0  0  0  0  0  0  0  0
   59.2447   28.5404   50.4580 H   0  0  0  0  0  0  0  0  0  0  0  0
   61.4912   27.7464   52.5416 H   0  0  0  0  0  0  0  0  0  0  0  0
   60.7099   27.0947   51.0612 H   0  0  0  0  0  0  0  0  0  0  0  0
   62.4681   27.4622   51.0612 H   0  0  0  0  0  0  0  0  0  0  0  0
   60.8091   34.3012   47.5205 H   0  0  0  0  0  0  0  0  0  0  0  0
   60.0047   36.2060   46.1423 H   0  0  0  0  0  0  0  0  0  0  0  0
   58.4362   35.8125   44.2520 H   0  0  0  0  0  0  0  0  0  0  0  0
   57.6050   33.5227   43.7632 H   0  0  0  0  0  0  0  0  0  0  0  0
   60.1303   26.2658   47.4176 H   0  0  0  0  0  0  0  0  0  0  0  0
   58.8934   24.8956   45.7111 H   0  0  0  0  0  0  0  0  0  0  0  0
   57.5933   26.0265   43.8990 H   0  0  0  0  0  0  0  0  0  0  0  0
   57.4700   28.5334   43.8027 H   0  0  0  0  0  0  0  0  0  0  0  0
  1  2  1  0
  2  3  2  0
  3  4  1  0
  4  5  2  0
  5  6  1  0
  6  7  1  0
  7  8  1  0
  8  9  1  0
  9 10  1  0
 10 11  1  0
 11 12  1  0
 12 13  1  0
 12 14  1  0
  5 15  1  0
 15 16  2  0
 16 17  1  0
 17 18  2  0
 18 19  1  0
 19 20  2  0
  4 21  1  0
 21 22  2  0
 21 23  1  0
 23 24  2  0
 24 25  1  0
 25 26  2  0
 26 27  1  0
 27 28  2  0
 20  2  1  0
 28 23  1  0
 28  3  1  0
 20 15  1  0
  1 29  1  0
  1 30  1  0
  1 31  1  0
  6 32  1  0
  7 33  1  0
  7 34  1  0
  8 35  1  0
  8 36  1  0
  9 37  1  0
 10 38  1  0
 10 39  1  0
 11 40  1  0
 11 41  1  0
 12 42  1  0
 13 43  1  0
 13 44  1  0
 13 45  1  0
 14 46  1  0
 14 47  1  0
 14 48  1  0
 16 49  1  0
 17 50  1  0
 18 51  1  0
 19 52  1  0
 24 53  1  0
 25 54  1  0
 26 55  1  0
 27 56  1  0
M  CHG  2   2   1  12   1
M  END
>  <UniqueID>  (14) 
14

>  <SMILES>  (14) 
C[n+]1c2c(c(NCCNCC[NH+](C)C)c3ccccc31)C(=O)c1ccccc1-2

>  <Energy>  (14) 
112.5855705620561

>  <Genealogy>  (14) 
C[n+]1c2c(c(NCCNCC[NH+](C)C)c3ccccc31)C(=O)c1ccccc1-2 (protonated)
C[n+]1c2c(c(NCCNCC[NH+](C)C)c3ccccc31)C(=O)c1ccccc1-2 (3D coordinates assigned)
C[n+]1c2c(c(NCCNCC[NH+](C)C)c3ccccc31)C(=O)c1ccccc1-2 (nonaromatic ring conformer: 112.5855705620561 kcal/mol)

>  <smiles>  (14) 
CN(C)CCNCCNc1c2c([n+](C)c3ccccc13)-c1ccccc1C2=O

>  <score_type>  (14) 
oracle

>  <origin>  (14) 
adg

>  <m_score__min__energy>  (14) 
-5.1600000000000001

>  <m_primary>  (14) 
energy

$$$$
14:0
     RDKit          3D

 46 48  0  0  0  0  0  0  0  0999 V2000
   56.3850   22.4520   43.2480 C   0  0  0  0  0  0  0  0  0  0  0  0
   57.5130   21.4200   43.2890 C   0  0  0  0  0  0  0  0  0  0  0  0
   57.3660   20.4810   44.4280 N   0  0  0  0  0  0  0  0  0  0  0  0
   56.5260   21.0200   45.5140 C   0  0  0  0  0  0  0  0  0  0  0  0
   57.3460   21.4160   46.7470 C   0  0  0  0  0  0  0  0  0  0  0  0
   57.3910   22.8250   46.8530 O   0  0  0  0  0  0  0  0  0  0  0  0
   58.2570   23.3690   45.8770 C   0  0  0  0  0  0  0  0  0  0  0  0
   58.1250   24.8670   45.8430 C   0  0  0  0  0  0  0  0  0  0  0  0
   59.2610   25.6820   45.7200 C   0  0  0  0  0  0  0  0  0  0  0  0
   59.1260   27.0690   45.6190 C   0  0  0  0  0  0  0  0  0  0  0  0
   57.8530   27.6630   45.6320 C   0  0  0  0  0  0  0  0  0  0  0  0
   57.7030   29.1340   45.5080 C   0  0  0  0  0  0  0  0  0  0  0  0
   58.7140   29.9830   45.9830 C   0  0  0  0  0  0  0  0  0  0  0  0
   58.5720   31.3670   45.8590 C   0  0  0  0  0  0  0  0  0  0  0  0
   59.5630   32.2500   46.3130 C   0  0  0  0  0  0  0  0  0  0  0  0
   59.3870   33.6310   46.1690 C   0  0  0  0  0  0  0  0  0  0  0  0
   58.2240   34.1320   45.5730 C   0  0  0  0  0  0  0  0  0  0  0  0
   57.2330   33.2560   45.1190 C   0  0  0  0  0  0  0  0  0  0  0  0
   57.4010   31.8730   45.2580 C   0  0  0  0  0  0  0  0  0  0  0  0
   56.4560   31.0430   44.8280 O   0  0  0  0  0  0  0  0  0  0  0  0
   56.5570   29.7210   44.9310 C   0  0  0  0  0  0  0  0  0  0  0  0
   55.6060   29.0030   44.5210 O   0  0  0  0  0  0  0  0  0  0  0  0
   56.7180   26.8460   45.7700 C   0  0  0  0  0  0  0  0  0  0  0  0
   56.8540   25.4590   45.8690 C   0  0  0  0  0  0  0  0  0  0  0  0
   56.0941   22.7182   44.2749 H   0  0  0  0  0  0  0  0  0  0  0  0
   56.7311   23.3527   42.7198 H   0  0  0  0  0  0  0  0  0  0  0  0
   55.5186   22.0274   42.7198 H   0  0  0  0  0  0  0  0  0  0  0  0
   57.5027   20.8451   42.3512 H   0  0  0  0  0  0  0  0  0  0  0  0
   58.4631   21.9600   43.4143 H   0  0  0  0  0  0  0  0  0  0  0  0
   56.9950   19.5500   44.1230 H   0  0  0  0  0  0  0  0  0  0  0  0
   58.3180   20.3030   44.8280 H   0  0  0  0  0  0  0  0  0  0  0  0
   55.9959   21.9092   45.1421 H   0  0  0  0  0  0  0  0  0  0  0  0
   55.8242   20.2295   45.8183 H   0  0  0  0  0  0  0  0  0  0  0  0
   56.8773   20.9956   47.6490 H   0  0  0  0  0  0  0  0  0  0  0  0
   58.3689   21.0239   46.6473 H   0  0  0  0  0  0  0  0  0  0  0  0
   59.2952   23.1011   46.1225 H   0  0  0  0  0  0  0  0  0  0  0  0
   57.9875   22.9623   44.8911 H   0  0  0  0  0  0  0  0  0  0  0  0
   60.2622   25.2267   45.7030 H   0  0  0  0  0  0  0  0  0  0  0  0
   60.0225   27.7000   45.5287 H   0  0  0  0  0  0  0  0  0  0  0  0
   59.6151   29.5603   46.4513 H   0  0  0  0  0  0  0  0  0  0  0  0
   60.4774   31.8574   46.7817 H   0  0  0  0  0  0  0  0  0  0  0  0
   60.1639   34.3237   46.5248 H   0  0  0  0  0  0  0  0  0  0  0  0
   58.0891   35.2180   45.4614 H   0  0  0  0  0  0  0  0  0  0  0  0
   56.3201   33.6541   44.6520 H   0  0  0  0  0  0  0  0  0  0  0  0
   55.7170   27.3010   45.8002 H   0  0  0  0  0  0  0  0  0  0  0  0
   55.9587   24.8276   45.9679 H   0  0  0  0  0  0  0  0  0  0  0  0
  1  2  1  0
  2  3  1  0
  3  4  1  0
  4  5  1  0
  5  6  1  0
  6  7  1  0
  7  8  1  0
  8  9  2  0
  9 10  1  0
 10 11  2  0
 11 12  1  0
 12 13  2  0
 13 14  1  0
 14 15  2  0
 15 16  1  0
 16 17  2  0
 17 18  1  0
 18 19  2  0
 19 20  1  0
 20 21  1  0
 21 22  2  0
 11 23  1  0
 23 24  2  0
 24  8  1  0
 21 12  1  0
 19 14  1  0
  1 25  1  0
  1 26  1  0
  1 27  1  0
  2 28  1  0
  2 29  1  0
  3 30  1  0
  3 31  1  0
  4 32  1  0
  4 33  1  0
  5 34  1  0
  5 35  1  0
  7 36  1  0
  7 37  1  0
  9 38  1  0
 10 39  1  0
 13 40  1  0
 15 41  1  0
 16 42  1  0
 17 43  1  0
 18 44  1  0
 23 45  1  0
 24 46  1  0
M  CHG  1   3   1
M  END
>  <UniqueID>  (15) 
15

>  <SMILES>  (15) 
CC[NH2+]CCOCc1ccc(-c2cc3ccccc3oc2=O)cc1

>  <Energy>  (15) 
57.21596910258329

>  <Genealogy>  (15) 
CC[NH2+]CCOCc1ccc(-c2cc3ccccc3oc2=O)cc1 (protonated)
CC[NH2+]CCOCc1ccc(-c2cc3ccccc3oc2=O)cc1 (3D coordinates assigned)
CC[NH2+]CCOCc1ccc(-c2cc3ccccc3oc2=O)cc1 (optimized conformer: 57.21596910258329 kcal/mol)

>  <smiles>  (15) 
CCNCCOCc1ccc(-c2cc3ccccc3oc2=O)cc1

>  <score_type>  (15) 
oracle

>  <origin>  (15) 
adg

>  <m_score__min__energy>  (15) 
-7.3799999999999999

>  <m_primary>  (15) 
energy

$$$$
15:0
     RDKit          3D

 47 47  0  0  0  0  0  0  0  0999 V2000
   61.7942   30.6768   46.1258 H   0  0  0  0  0  0  0  0  0  0  0  0
   60.8390   30.2000   46.3910 C   0  0  0  0  0  0  0  0  0  0  0  0
   60.1130   30.7380   47.5570 C   0  0  0  0  0  0  0  0  0  0  0  0
   60.7530   30.9630   48.6200 O   0  0  0  0  0  0  0  0  0  0  0  0
   58.7490   31.0410   47.4750 O   0  0  0  0  0  0  0  0  0  0  0  0
   58.1520   32.1790   48.0940 C   0  0  0  0  0  0  0  0  0  0  0  0
   58.7547   32.4750   48.9653 H   0  0  0  0  0  0  0  0  0  0  0  0
   57.1313   31.9176   48.4101 H   0  0  0  0  0  0  0  0  0  0  0  0
   58.0810   33.3510   47.1080 C   0  0  0  0  0  0  0  0  0  0  0  0
   58.2699   34.2893   47.6501 H   0  0  0  0  0  0  0  0  0  0  0  0
   57.0804   33.3651   46.6512 H   0  0  0  0  0  0  0  0  0  0  0  0
   59.0890   33.2010   46.0330 N   0  0  0  0  0  0  0  0  0  0  0  0
   60.0550   34.3320   46.0200 C   0  0  0  0  0  0  0  0  0  0  0  0
   59.6585   35.1596   46.6265 H   0  0  0  0  0  0  0  0  0  0  0  0
   60.2046   34.6739   44.9852 H   0  0  0  0  0  0  0  0  0  0  0  0
   61.3860   33.8710   46.5990 C   0  0  0  0  0  0  0  0  0  0  0  0
   61.3339   33.8891   47.6976 H   0  0  0  0  0  0  0  0  0  0  0  0
   61.5988   32.8468   46.2588 H   0  0  0  0  0  0  0  0  0  0  0  0
   62.1867   34.5442   46.2588 H   0  0  0  0  0  0  0  0  0  0  0  0
   58.4270   33.0290   44.7200 C   0  0  0  0  0  0  0  0  0  0  0  0
   58.3270   34.0121   44.2368 H   0  0  0  0  0  0  0  0  0  0  0  0
   59.0421   32.3559   44.1047 H   0  0  0  0  0  0  0  0  0  0  0  0
   57.0400   32.4080   44.8790 C   0  0  0  0  0  0  0  0  0  0  0  0
   56.8057   32.3031   45.9486 H   0  0  0  0  0  0  0  0  0  0  0  0
   56.2909   33.0567   44.4014 H   0  0  0  0  0  0  0  0  0  0  0  0
   57.0249   31.4172   44.4014 H   0  0  0  0  0  0  0  0  0  0  0  0
   60.4280   29.1760   45.6280 C   0  0  0  0  0  0  0  0  0  0  0  0
   61.1160   28.8174   44.8482 H   0  0  0  0  0  0  0  0  0  0  0  0
   59.1250   28.4920   45.7520 C   0  0  0  0  0  0  0  0  0  0  0  0
   59.0360   27.1940   46.2750 C   0  0  0  0  0  0  0  0  0  0  0  0
   59.9450   26.6801   46.6209 H   0  0  0  0  0  0  0  0  0  0  0  0
   57.8010   26.5510   46.3590 C   0  0  0  0  0  0  0  0  0  0  0  0
   57.7394   25.5397   46.7874 H   0  0  0  0  0  0  0  0  0  0  0  0
   56.6330   27.1880   45.8990 C   0  0  0  0  0  0  0  0  0  0  0  0
   55.3720   26.5760   45.9740 O   0  0  0  0  0  0  0  0  0  0  0  0
   55.1190   25.2100   45.6610 C   0  0  0  0  0  0  0  0  0  0  0  0
   55.0123   24.6341   46.5921 H   0  0  0  0  0  0  0  0  0  0  0  0
   54.1915   25.1339   45.0745 H   0  0  0  0  0  0  0  0  0  0  0  0
   55.9577   24.8068   45.0745 H   0  0  0  0  0  0  0  0  0  0  0  0
   56.7190   28.4750   45.3430 C   0  0  0  0  0  0  0  0  0  0  0  0
   55.5380   29.0800   44.8830 O   0  0  0  0  0  0  0  0  0  0  0  0
   55.4050   29.7340   43.6250 C   0  0  0  0  0  0  0  0  0  0  0  0
   55.1882   30.8002   43.7871 H   0  0  0  0  0  0  0  0  0  0  0  0
   56.3422   29.6325   43.0581 H   0  0  0  0  0  0  0  0  0  0  0  0
   54.5819   29.2745   43.0581 H   0  0  0  0  0  0  0  0  0  0  0  0
   57.9700   29.1160   45.2620 C   0  0  0  0  0  0  0  0  0  0  0  0
   58.0413   30.1162   44.8097 H   0  0  0  0  0  0  0  0  0  0  0  0
  1  2  1  0
  2  3  1  0
  3  4  2  0
  3  5  1  0
  5  6  1  0
  6  7  1  0
  6  8  1  0
  6  9  1  0
  9 10  1  0
  9 11  1  0
  9 12  1  0
 12 13  1  0
 13 14  1  0
 13 15  1  0
 13 16  1  0
 16 17  1  0
 16 18  1  0
 16 19  1  0
 12 20  1  0
 20 21  1  0
 20 22  1  0
 20 23  1  0
 23 24  1  0
 23 25  1  0
 23 26  1  0
  2 27  2  0
 27 28  1  0
 27 29  1  0
 29 30  2  0
 30 31  1  0
 30 32  1  0
 32 33  1  0
 32 34  2  0
 34 35  1  0
 35 36  1  0
 36 37  1  0
 36 38  1  0
 36 39  1  0
 34 40  1  0
 40 41  1  0
 41 42  1  0
 42 43  1  0
 42 44  1  0
 42 45  1  0
 40 46  2  0
 46 47  1  0
 46 29  1  0
M  END
>  <UniqueID>  (16) 
16

>  <SMILES>  (16) 
CCN(CC)CCOC(=O)/C=C\c1ccc(OC)c(OC)c1

>  <Energy>  (16) 
46.746893744695406

>  <Genealogy>  (16) 
CCN(CC)CCOC(=O)/C=C\c1ccc(OC)c(OC)c1 (cis-trans isomerization)
CCN(CC)CCOC(=O)/C=C\c1ccc(OC)c(OC)c1 (3D coordinates assigned)
CCN(CC)CCOC(=O)/C=C\c1ccc(OC)c(OC)c1 (optimized conformer: 46.746893744695406 kcal/mol)

>  <smiles>  (16) 
CCN(CC)CCOC(=O)C=Cc1ccc(OC)c(OC)c1

>  <score_type>  (16) 
oracle

>  <origin>  (16) 
adg

>  <m_score__min__energy>  (16) 
-6.2999999999999998

>  <m_primary>  (16) 
energy

$$$$
16:0
     RDKit          3D

 85 87  0  0  0  0  0  0  0  0999 V2000
   68.6670   34.3320   50.5060 C   0  0  0  0  0  0  0  0  0  0  0  0
   67.8580   33.0680   50.7750 C   0  0  0  0  0  0  0  0  0  0  0  0
   66.4110   33.3970   50.7460 N   0  0  0  0  0  0  0  0  0  0  0  0
   65.8760   33.7160   52.0890 C   0  0  0  0  0  0  0  0  0  0  0  0
   65.7480   35.2210   52.3630 C   0  0  0  0  0  0  0  0  0  0  0  0
   65.5830   32.3930   50.0370 C   0  0  0  0  0  0  0  0  0  0  0  0
   64.8600   31.4610   51.0140 C   0  0  0  0  0  0  0  0  0  0  0  0
   63.5570   31.1890   50.5410 O   0  0  0  0  0  0  0  0  0  0  0  0
   63.0110   30.0460   51.1730 C   0  0  0  0  0  0  0  0  0  0  0  0
   61.4910   30.1550   51.1960 C   0  0  0  0  0  0  0  0  0  0  0  0
   61.0610   30.9800   50.1410 O   0  0  0  0  0  0  0  0  0  0  0  0
   59.7950   31.3800   50.4480 N   0  0  0  0  0  0  0  0  0  0  0  0
   58.8800   30.4240   49.8190 C   0  0  0  0  0  0  0  0  0  0  0  0
   59.5830   32.7370   49.9010 C   0  0  0  0  0  0  0  0  0  0  0  0
   60.2690   33.7780   50.8050 C   0  0  0  0  0  0  0  0  0  0  0  0
   61.5820   33.3300   51.2940 N   0  0  0  0  0  0  0  0  0  0  0  0
   62.6730   34.2590   50.9610 C   0  0  0  0  0  0  0  0  0  0  0  0
   62.9560   34.2010   49.4600 C   0  0  0  0  0  0  0  0  0  0  0  0
   62.3290   33.0110   48.8730 N   0  0  0  0  0  0  0  0  0  0  0  0
   63.1030   32.5150   47.7220 C   0  0  0  0  0  0  0  0  0  0  0  0
   62.4250   31.2720   47.1240 C   0  0  0  0  0  0  0  0  0  0  0  0
   61.1050   30.9700   47.7170 N   0  0  0  0  0  0  0  0  0  0  0  0
   60.0180   30.9540   46.7420 C   0  0  0  0  0  0  0  0  0  0  0  0
   59.4700   29.7270   46.2630 C   0  0  0  0  0  0  0  0  0  0  0  0
   59.8900   28.4600   46.7490 C   0  0  0  0  0  0  0  0  0  0  0  0
   59.2950   27.2820   46.3070 C   0  0  0  0  0  0  0  0  0  0  0  0
   58.2680   27.3250   45.3800 C   0  0  0  0  0  0  0  0  0  0  0  0
   57.8530   28.5440   44.8590 C   0  0  0  0  0  0  0  0  0  0  0  0
   58.4670   29.7610   45.2540 C   0  0  0  0  0  0  0  0  0  0  0  0
   58.1060   30.9530   44.6680 N   0  0  0  0  0  0  0  0  0  0  0  0
   57.3840   30.9350   43.3750 C   0  0  0  0  0  0  0  0  0  0  0  0
   58.4710   32.1490   45.2460 C   0  0  0  0  0  0  0  0  0  0  0  0
   57.8540   33.3650   44.8610 C   0  0  0  0  0  0  0  0  0  0  0  0
   58.2860   34.5830   45.3750 C   0  0  0  0  0  0  0  0  0  0  0  0
   59.3260   34.6190   46.2900 C   0  0  0  0  0  0  0  0  0  0  0  0
   59.9090   33.4360   46.7340 C   0  0  0  0  0  0  0  0  0  0  0  0
   59.4730   32.1770   46.2530 C   0  0  0  0  0  0  0  0  0  0  0  0
   68.9602   34.7901   51.4621 H   0  0  0  0  0  0  0  0  0  0  0  0
   69.5687   34.0748   49.9309 H   0  0  0  0  0  0  0  0  0  0  0  0
   68.0558   35.0431   49.9309 H   0  0  0  0  0  0  0  0  0  0  0  0
   68.0800   32.3180   50.0016 H   0  0  0  0  0  0  0  0  0  0  0  0
   68.1243   32.6629   51.7624 H   0  0  0  0  0  0  0  0  0  0  0  0
   64.8792   33.2604   52.1825 H   0  0  0  0  0  0  0  0  0  0  0  0
   66.5918   33.3164   52.8224 H   0  0  0  0  0  0  0  0  0  0  0  0
   65.7331   35.3960   53.4489 H   0  0  0  0  0  0  0  0  0  0  0  0
   66.6045   35.7488   51.9182 H   0  0  0  0  0  0  0  0  0  0  0  0
   64.8147   35.5966   51.9182 H   0  0  0  0  0  0  0  0  0  0  0  0
   64.8345   32.9170   49.4245 H   0  0  0  0  0  0  0  0  0  0  0  0
   66.2486   31.7817   49.4098 H   0  0  0  0  0  0  0  0  0  0  0  0
   65.4205   30.5186   51.1022 H   0  0  0  0  0  0  0  0  0  0  0  0
   64.7947   31.9472   51.9986 H   0  0  0  0  0  0  0  0  0  0  0  0
   63.3055   29.1438   50.6168 H   0  0  0  0  0  0  0  0  0  0  0  0
   63.3894   29.9814   52.2038 H   0  0  0  0  0  0  0  0  0  0  0  0
   61.0504   29.1537   51.0807 H   0  0  0  0  0  0  0  0  0  0  0  0
   61.1705   30.5903   52.1540 H   0  0  0  0  0  0  0  0  0  0  0  0
   58.3432   29.8631   50.5983 H   0  0  0  0  0  0  0  0  0  0  0  0
   58.1561   30.9666   49.1933 H   0  0  0  0  0  0  0  0  0  0  0  0
   59.4538   29.7246   49.1933 H   0  0  0  0  0  0  0  0  0  0  0  0
   60.0109   32.7937   48.8892 H   0  0  0  0  0  0  0  0  0  0  0  0
   58.5040   32.9471   49.8599 H   0  0  0  0  0  0  0  0  0  0  0  0
   60.4056   34.7065   50.2312 H   0  0  0  0  0  0  0  0  0  0  0  0
   59.6234   33.9322   51.6822 H   0  0  0  0  0  0  0  0  0  0  0  0
   61.7940   32.3820   50.8930 H   0  0  0  0  0  0  0  0  0  0  0  0
   62.3802   35.2822   51.2390 H   0  0  0  0  0  0  0  0  0  0  0  0
   63.5790   33.9718   51.5148 H   0  0  0  0  0  0  0  0  0  0  0  0
   62.5484   35.1019   48.9781 H   0  0  0  0  0  0  0  0  0  0  0  0
   64.0432   34.1500   49.3008 H   0  0  0  0  0  0  0  0  0  0  0  0
   62.3280   32.2610   49.6080 H   0  0  0  0  0  0  0  0  0  0  0  0
   63.1599   33.3022   46.9558 H   0  0  0  0  0  0  0  0  0  0  0  0
   64.1150   32.2455   48.0586 H   0  0  0  0  0  0  0  0  0  0  0  0
   62.2912   31.4353   46.0444 H   0  0  0  0  0  0  0  0  0  0  0  0
   63.0783   30.4142   47.3418 H   0  0  0  0  0  0  0  0  0  0  0  0
   61.1550   30.0370   48.1800 H   0  0  0  0  0  0  0  0  0  0  0  0
   60.9250   31.6010   48.5240 H   0  0  0  0  0  0  0  0  0  0  0  0
   60.7018   28.4089   47.4895 H   0  0  0  0  0  0  0  0  0  0  0  0
   59.6421   26.3133   46.6958 H   0  0  0  0  0  0  0  0  0  0  0  0
   57.7804   26.3938   45.0558 H   0  0  0  0  0  0  0  0  0  0  0  0
   57.0328   28.5664   44.1263 H   0  0  0  0  0  0  0  0  0  0  0  0
   56.3001   30.9080   43.5606 H   0  0  0  0  0  0  0  0  0  0  0  0
   57.6354   31.8397   42.8020 H   0  0  0  0  0  0  0  0  0  0  0  0
   57.6802   30.0440   42.8020 H   0  0  0  0  0  0  0  0  0  0  0  0
   57.0199   33.3454   44.1441 H   0  0  0  0  0  0  0  0  0  0  0  0
   57.8021   35.5177   45.0552 H   0  0  0  0  0  0  0  0  0  0  0  0
   59.6919   35.5856   46.6665 H   0  0  0  0  0  0  0  0  0  0  0  0
   60.7234   33.4794   47.4721 H   0  0  0  0  0  0  0  0  0  0  0  0
  1  2  1  0
  2  3  1  0
  3  4  1  0
  4  5  1  0
  3  6  1  0
  6  7  1  0
  7  8  1  0
  8  9  1  0
  9 10  1  0
 10 11  1  0
 11 12  1  0
 12 13  1  0
 12 14  1  0
 14 15  1  0
 15 16  1  0
 16 17  1  0
 17 18  1  0
 18 19  1  0
 19 20  1  0
 20 21  1  0
 21 22  1  0
 22 23  1  0
 23 24  2  0
 24 25  1  0
 25 26  2  0
 26 27  1  0
 27 28  2  0
 28 29  1  0
 29 30  2  0
 30 31  1  0
 30 32  1  0
 32 33  2  0
 33 34  1  0
 34 35  2  0
 35 36  1  0
 36 37  2  0
 37 23  1  0
 29 24  1  0
 37 32  1  0
  1 38  1  0
  1 39  1  0
  1 40  1  0
  2 41  1  0
  2 42  1  0
  4 43  1  0
  4 44  1  0
  5 45  1  0
  5 46  1  0
  5 47  1  0
  6 48  1  0
  6 49  1  0
  7 50  1  0
  7 51  1  0
  9 52  1  0
  9 53  1  0
 10 54  1  0
 10 55  1  0
 13 56  1  0
 13 57  1  0
 13 58  1  0
 14 59  1  0
 14 60  1  0
 15 61  1  0
 15 62  1  0
 16 63  1  0
 17 64  1  0
 17 65  1  0
 18 66  1  0
 18 67  1  0
 19 68  1  0
 20 69  1  0
 20 70  1  0
 21 71  1  0
 21 72  1  0
 22 73  1  0
 22 74  1  0
 25 75  1  0
 26 76  1  0
 27 77  1  0
 28 78  1  0
 31 79  1  0
 31 80  1  0
 31 81  1  0
 33 82  1  0
 34 83  1  0
 35 84  1  0
 36 85  1  0
M  CHG  2  22   1  30   1
M  END
>  <UniqueID>  (17) 
17

>  <SMILES>  (17) 
CCN(CC)CCOCCON(C)CCNCCNCC[NH2+]c1c2ccccc2[n+](C)c2ccccc12

>  <Energy>  (17) 
104.44291827627492

>  <Genealogy>  (17) 
CCN(CC)CCOCCON(C)CCNCCNCC[NH2+]c1c2ccccc2[n+](C)c2ccccc12 (protonated)
CCN(CC)CCOCCON(C)CCNCCNCC[NH2+]c1c2ccccc2[n+](C)c2ccccc12 (3D coordinates assigned)
CCN(CC)CCOCCON(C)CCNCCNCC[NH2+]c1c2ccccc2[n+](C)c2ccccc12 (optimized conformer: 104.44291827627492 kcal/mol)

>  <smiles>  (17) 
CCN(CC)CCOCCON(C)CCNCCNCCNc1c2ccccc2[n+](C)c2ccccc12

>  <score_type>  (17) 
oracle

>  <origin>  (17) 
adg

>  <m_score__min__energy>  (17) 
-4.0300000000000002

>  <m_primary>  (17) 
energy

$$$$
17:0
     RDKit          3D

 66 68  0  0  0  0  0  0  0  0999 V2000
   62.9840   29.4350   51.6460 C   0  0  0  0  0  0  0  0  0  0  0  0
   61.6150   29.6080   52.3080 C   0  0  0  0  0  0  0  0  0  0  0  0
   60.5370   29.8400   51.3320 N   0  0  0  0  0  0  0  0  0  0  0  0
   60.5800   28.8850   50.2150 C   0  0  0  0  0  0  0  0  0  0  0  0
   59.2900   28.9650   49.3950 C   0  0  0  0  0  0  0  0  0  0  0  0
   59.1400   30.3310   48.6980 C   0  0  0  0  0  0  0  0  0  0  0  0
   59.2280   31.4520   49.6550 N   0  0  0  0  0  0  0  0  0  0  0  0
   59.9750   32.5830   49.1090 C   0  0  0  0  0  0  0  0  0  0  0  0
   59.5640   33.1840   47.8970 C   0  0  0  0  0  0  0  0  0  0  0  0
   58.2000   33.2630   47.5350 C   0  0  0  0  0  0  0  0  0  0  0  0
   57.8140   33.8640   46.3390 C   0  0  0  0  0  0  0  0  0  0  0  0
   58.7690   34.4190   45.4970 C   0  0  0  0  0  0  0  0  0  0  0  0
   60.1180   34.3680   45.8380 C   0  0  0  0  0  0  0  0  0  0  0  0
   60.5450   33.7420   47.0370 C   0  0  0  0  0  0  0  0  0  0  0  0
   61.8800   33.6600   47.3780 N   0  0  0  0  0  0  0  0  0  0  0  0
   62.9230   33.8810   46.3500 C   0  0  0  0  0  0  0  0  0  0  0  0
   62.2350   33.3970   48.6860 C   0  0  0  0  0  0  0  0  0  0  0  0
   63.5620   33.5880   49.1420 C   0  0  0  0  0  0  0  0  0  0  0  0
   63.9130   33.3230   50.4590 C   0  0  0  0  0  0  0  0  0  0  0  0
   62.9470   32.9440   51.3790 C   0  0  0  0  0  0  0  0  0  0  0  0
   61.6070   32.7930   50.9910 C   0  0  0  0  0  0  0  0  0  0  0  0
   60.5920   32.7110   52.0090 N   0  0  0  0  0  0  0  0  0  0  0  0
   59.9630   33.8680   52.6480 C   0  0  0  0  0  0  0  0  0  0  0  0
   58.5210   33.5490   53.0640 C   0  0  0  0  0  0  0  0  0  0  0  0
   57.7800   32.7500   51.9830 C   0  0  0  0  0  0  0  0  0  0  0  0
   58.1000   31.3070   52.0780 N   0  0  0  0  0  0  0  0  0  0  0  0
   56.9600   30.4960   51.6240 C   0  0  0  0  0  0  0  0  0  0  0  0
   58.4520   30.9310   53.4600 C   0  0  0  0  0  0  0  0  0  0  0  0
   61.2580   32.9310   49.6140 C   0  0  0  0  0  0  0  0  0  0  0  0
   63.7570   29.3373   52.4225 H   0  0  0  0  0  0  0  0  0  0  0  0
   62.9769   28.5306   51.0199 H   0  0  0  0  0  0  0  0  0  0  0  0
   63.2021   30.3127   51.0199 H   0  0  0  0  0  0  0  0  0  0  0  0
   61.3826   28.6970   52.8791 H   0  0  0  0  0  0  0  0  0  0  0  0
   61.6701   30.4931   52.9588 H   0  0  0  0  0  0  0  0  0  0  0  0
   59.6100   29.7650   51.8140 H   0  0  0  0  0  0  0  0  0  0  0  0
   61.4366   29.1231   49.5673 H   0  0  0  0  0  0  0  0  0  0  0  0
   60.6834   27.8672   50.6193 H   0  0  0  0  0  0  0  0  0  0  0  0
   59.3044   28.1745   48.6302 H   0  0  0  0  0  0  0  0  0  0  0  0
   58.4398   28.8354   50.0808 H   0  0  0  0  0  0  0  0  0  0  0  0
   59.9399   30.4383   47.9506 H   0  0  0  0  0  0  0  0  0  0  0  0
   58.1473   30.3645   48.2253 H   0  0  0  0  0  0  0  0  0  0  0  0
   58.2460   31.7040   49.9010 H   0  0  0  0  0  0  0  0  0  0  0  0
   59.6450   31.1130   50.5460 H   0  0  0  0  0  0  0  0  0  0  0  0
   57.4345   32.8451   48.2054 H   0  0  0  0  0  0  0  0  0  0  0  0
   56.7503   33.8991   46.0608 H   0  0  0  0  0  0  0  0  0  0  0  0
   58.4587   34.9003   44.5578 H   0  0  0  0  0  0  0  0  0  0  0  0
   60.8638   34.8200   45.1675 H   0  0  0  0  0  0  0  0  0  0  0  0
   63.8854   34.0849   46.8421 H   0  0  0  0  0  0  0  0  0  0  0  0
   63.0153   32.9825   45.7222 H   0  0  0  0  0  0  0  0  0  0  0  0
   62.6429   34.7397   45.7222 H   0  0  0  0  0  0  0  0  0  0  0  0
   64.3275   33.9524   48.4411 H   0  0  0  0  0  0  0  0  0  0  0  0
   64.9629   33.4142   50.7743 H   0  0  0  0  0  0  0  0  0  0  0  0
   63.2345   32.7597   52.4247 H   0  0  0  0  0  0  0  0  0  0  0  0
   60.2120   31.7670   52.2480 H   0  0  0  0  0  0  0  0  0  0  0  0
   60.5423   34.1449   53.5412 H   0  0  0  0  0  0  0  0  0  0  0  0
   59.9446   34.6994   51.9280 H   0  0  0  0  0  0  0  0  0  0  0  0
   58.5403   32.9593   53.9924 H   0  0  0  0  0  0  0  0  0  0  0  0
   57.9890   34.5004   53.2113 H   0  0  0  0  0  0  0  0  0  0  0  0
   56.6964   32.8877   52.1130 H   0  0  0  0  0  0  0  0  0  0  0  0
   58.0988   33.1159   50.9958 H   0  0  0  0  0  0  0  0  0  0  0  0
   56.4150   30.1083   52.4973 H   0  0  0  0  0  0  0  0  0  0  0  0
   56.2856   31.1185   51.0176 H   0  0  0  0  0  0  0  0  0  0  0  0
   57.3269   29.6548   51.0176 H   0  0  0  0  0  0  0  0  0  0  0  0
   57.8754   31.5470   54.1658 H   0  0  0  0  0  0  0  0  0  0  0  0
   58.2159   29.8690   53.6225 H   0  0  0  0  0  0  0  0  0  0  0  0
   59.5273   31.0966   53.6225 H   0  0  0  0  0  0  0  0  0  0  0  0
  1  2  1  0
  2  3  1  0
  3  4  1  0
  4  5  1  0
  5  6  1  0
  6  7  1  0
  7  8  1  0
  8  9  2  0
  9 10  1  0
 10 11  2  0
 11 12  1  0
 12 13  2  0
 13 14  1  0
 14 15  2  0
 15 16  1  0
 15 17  1  0
 17 18  2  0
 18 19  1  0
 19 20  2  0
 20 21  1  0
 21 22  1  0
 22 23  1  0
 23 24  1  0
 24 25  1  0
 25 26  1  0
 26 27  1  0
 26 28  1  0
 21 29  2  0
 29  8  1  0
 14  9  1  0
 29 17  1  0
  1 30  1  0
  1 31  1  0
  1 32  1  0
  2 33  1  0
  2 34  1  0
  3 35  1  0
  4 36  1  0
  4 37  1  0
  5 38  1  0
  5 39  1  0
  6 40  1  0
  6 41  1  0
  7 42  1  0
  7 43  1  0
 10 44  1  0
 11 45  1  0
 12 46  1  0
 13 47  1  0
 16 48  1  0
 16 49  1  0
 16 50  1  0
 18 51  1  0
 19 52  1  0
 20 53  1  0
 22 54  1  0
 23 55  1  0
 23 56  1  0
 24 57  1  0
 24 58  1  0
 25 59  1  0
 25 60  1  0
 27 61  1  0
 27 62  1  0
 27 63  1  0
 28 64  1  0
 28 65  1  0
 28 66  1  0
M  CHG  2   7   1  15   1
M  END
>  <UniqueID>  (18) 
18

>  <SMILES>  (18) 
CCNCCC[NH2+]c1c2ccccc2[n+](C)c2cccc(NCCCN(C)C)c12

>  <Energy>  (18) 
100.06450076157448

>  <Genealogy>  (18) 
CCNCCC[NH2+]c1c2ccccc2[n+](C)c2cccc(NCCCN(C)C)c12 (protonated)
CCNCCC[NH2+]c1c2ccccc2[n+](C)c2cccc(NCCCN(C)C)c12 (3D coordinates assigned)
CCNCCC[NH2+]c1c2ccccc2[n+](C)c2cccc(NCCCN(C)C)c12 (optimized conformer: 100.06450076157448 kcal/mol)

>  <smiles>  (18) 
CCNCCCNc1c2ccccc2[n+](C)c2cccc(NCCCN(C)C)c12

>  <score_type>  (18) 
oracle

>  <origin>  (18) 
adg

>  <m_score__min__energy>  (18) 
-2.6800000000000002

>  <m_primary>  (18) 
energy

$$$$
18:0
     RDKit          3D

 41 43  0  0  0  0  0  0  0  0999 V2000
   56.6330   30.3510   42.7660 C   0  0  0  0  0  0  0  0  0  0  0  0
   56.1570   30.6560   44.1900 C   0  0  0  0  0  0  0  0  0  0  0  0
   55.9140   29.4390   44.9790 N   0  0  0  0  0  0  0  0  0  0  0  0
   56.9560   28.4250   44.7700 C   0  0  0  0  0  0  0  0  0  0  0  0
   58.2630   28.8860   45.4170 C   0  0  0  0  0  0  0  0  0  0  0  0
   58.0030   29.7880   46.4900 O   0  0  0  0  0  0  0  0  0  0  0  0
   58.9000   30.1160   47.5210 C   0  0  0  0  0  0  0  0  0  0  0  0
   59.3290   29.1800   48.4230 N   0  0  0  0  0  0  0  0  0  0  0  0
   60.2370   29.4970   49.3890 C   0  0  0  0  0  0  0  0  0  0  0  0
   60.6810   28.5400   50.3120 C   0  0  0  0  0  0  0  0  0  0  0  0
   61.6190   28.9090   51.2810 C   0  0  0  0  0  0  0  0  0  0  0  0
   62.0950   30.1830   51.3230 N   0  0  0  0  0  0  0  0  0  0  0  0
   61.6810   31.1320   50.4390 C   0  0  0  0  0  0  0  0  0  0  0  0
   60.7450   30.8050   49.4560 C   0  0  0  0  0  0  0  0  0  0  0  0
   60.3150   31.7340   48.5670 N   0  0  0  0  0  0  0  0  0  0  0  0
   59.3980   31.4360   47.6080 C   0  0  0  0  0  0  0  0  0  0  0  0
   58.9630   32.5050   46.6800 C   0  0  0  0  0  0  0  0  0  0  0  0
   59.9210   33.3530   46.0950 C   0  0  0  0  0  0  0  0  0  0  0  0
   59.5240   34.3780   45.2320 C   0  0  0  0  0  0  0  0  0  0  0  0
   58.1690   34.5750   44.9550 C   0  0  0  0  0  0  0  0  0  0  0  0
   57.2070   33.7500   45.5450 C   0  0  0  0  0  0  0  0  0  0  0  0
   57.5990   32.7230   46.4080 C   0  0  0  0  0  0  0  0  0  0  0  0
   57.5585   29.7580   42.8079 H   0  0  0  0  0  0  0  0  0  0  0  0
   55.8566   29.7818   42.2339 H   0  0  0  0  0  0  0  0  0  0  0  0
   56.8257   31.2942   42.2339 H   0  0  0  0  0  0  0  0  0  0  0  0
   56.9262   31.2568   44.6973 H   0  0  0  0  0  0  0  0  0  0  0  0
   55.2032   31.1985   44.1129 H   0  0  0  0  0  0  0  0  0  0  0  0
   55.8770   29.6880   45.9960 H   0  0  0  0  0  0  0  0  0  0  0  0
   56.6382   27.4753   45.2250 H   0  0  0  0  0  0  0  0  0  0  0  0
   57.1146   28.2835   43.6907 H   0  0  0  0  0  0  0  0  0  0  0  0
   58.8028   28.0095   45.8048 H   0  0  0  0  0  0  0  0  0  0  0  0
   58.8698   29.4032   44.6592 H   0  0  0  0  0  0  0  0  0  0  0  0
   58.9780   28.2000   48.3740 H   0  0  0  0  0  0  0  0  0  0  0  0
   60.2958   27.5103   50.2744 H   0  0  0  0  0  0  0  0  0  0  0  0
   61.9733   28.1670   52.0117 H   0  0  0  0  0  0  0  0  0  0  0  0
   62.0830   32.1541   50.4991 H   0  0  0  0  0  0  0  0  0  0  0  0
   60.9884   33.2085   46.3181 H   0  0  0  0  0  0  0  0  0  0  0  0
   60.2795   35.0306   44.7702 H   0  0  0  0  0  0  0  0  0  0  0  0
   57.8589   35.3798   44.2722 H   0  0  0  0  0  0  0  0  0  0  0  0
   56.1401   33.9094   45.3297 H   0  0  0  0  0  0  0  0  0  0  0  0
   56.8381   32.0819   46.8770 H   0  0  0  0  0  0  0  0  0  0  0  0
  1  2  1  0
  2  3  1  0
  3  4  1  0
  4  5  1  0
  5  6  1  0
  6  7  1  0
  7  8  2  0
  8  9  1  0
  9 10  2  0
 10 11  1  0
 11 12  2  0
 12 13  1  0
 13 14  2  0
 14 15  1  0
 15 16  2  0
 16 17  1  0
 17 18  2  0
 18 19  1  0
 19 20  2  0
 20 21  1  0
 21 22  2  0
 16  7  1  0
 22 17  1  0
 14  9  1  0
  1 23  1  0
  1 24  1  0
  1 25  1  0
  2 26  1  0
  2 27  1  0
  3 28  1  0
  4 29  1  0
  4 30  1  0
  5 31  1  0
  5 32  1  0
  8 33  1  0
 10 34  1  0
 11 35  1  0
 13 36  1  0
 18 37  1  0
 19 38  1  0
 20 39  1  0
 21 40  1  0
 22 41  1  0
M  CHG  1   8   1
M  END
>  <UniqueID>  (19) 
19

>  <SMILES>  (19) 
CCNCCOc1[nH+]c2ccncc2nc1-c1ccccc1

>  <Energy>  (19) 
48.874292336074

>  <Genealogy>  (19) 
CCNCCOc1[nH+]c2ccncc2nc1-c1ccccc1 (protonated)
CCNCCOc1[nH+]c2ccncc2nc1-c1ccccc1 (3D coordinates assigned)
CCNCCOc1[nH+]c2ccncc2nc1-c1ccccc1 (optimized conformer: 48.874292336074 kcal/mol)

>  <smiles>  (19) 
CCNCCOc1nc2ccncc2nc1-c1ccccc1

>  <score_type>  (19) 
oracle

>  <origin>  (19) 
adg

>  <m_score__min__energy>  (19) 
-4.9900000000000002

>  <m_primary>  (19) 
energy

$$$$
19:0
     RDKit          3D

 73 75  0  0  0  0  0  0  0  0999 V2000
   63.2160   33.8430   46.4620 C   0  0  0  0  0  0  0  0  0  0  0  0
   63.1400   32.6710   47.4430 C   0  0  0  0  0  0  0  0  0  0  0  0
   63.4960   33.0720   48.8210 N   0  0  0  0  0  0  0  0  0  0  0  0
   64.6090   32.2430   49.3440 C   0  0  0  0  0  0  0  0  0  0  0  0
   65.6480   33.0780   50.0950 C   0  0  0  0  0  0  0  0  0  0  0  0
   62.3370   33.2080   49.7480 C   0  0  0  0  0  0  0  0  0  0  0  0
   62.2460   32.1740   50.8900 C   0  0  0  0  0  0  0  0  0  0  0  0
   61.2680   31.1970   50.6020 O   0  0  0  0  0  0  0  0  0  0  0  0
   61.7920   30.1740   49.7760 C   0  0  0  0  0  0  0  0  0  0  0  0
   60.8330   29.8010   48.6280 C   0  0  0  0  0  0  0  0  0  0  0  0
   59.4940   30.4200   48.7770 N   0  0  0  0  0  0  0  0  0  0  0  0
   58.9480   30.9310   47.5200 C   0  0  0  0  0  0  0  0  0  0  0  0
   58.6120   30.0160   46.4810 C   0  0  0  0  0  0  0  0  0  0  0  0
   58.5390   28.6220   46.7210 C   0  0  0  0  0  0  0  0  0  0  0  0
   58.2510   27.7230   45.6990 C   0  0  0  0  0  0  0  0  0  0  0  0
   58.0480   28.1820   44.4070 C   0  0  0  0  0  0  0  0  0  0  0  0
   58.1140   29.5440   44.1350 C   0  0  0  0  0  0  0  0  0  0  0  0
   58.3670   30.4920   45.1630 C   0  0  0  0  0  0  0  0  0  0  0  0
   58.4310   31.8410   44.8870 N   0  0  0  0  0  0  0  0  0  0  0  0
   57.9560   32.3530   43.5800 C   0  0  0  0  0  0  0  0  0  0  0  0
   58.8960   32.7210   45.8390 C   0  0  0  0  0  0  0  0  0  0  0  0
   59.3050   34.0290   45.4820 C   0  0  0  0  0  0  0  0  0  0  0  0
   59.6540   34.9620   46.4480 C   0  0  0  0  0  0  0  0  0  0  0  0
   59.5420   34.6390   47.7900 C   0  0  0  0  0  0  0  0  0  0  0  0
   59.1770   33.3470   48.1850 C   0  0  0  0  0  0  0  0  0  0  0  0
   58.7470   33.1610   49.5380 N   0  0  0  0  0  0  0  0  0  0  0  0
   59.3740   33.8400   50.6710 C   0  0  0  0  0  0  0  0  0  0  0  0
   59.0140   33.1590   51.9980 C   0  0  0  0  0  0  0  0  0  0  0  0
   57.8770   32.1370   51.8530 C   0  0  0  0  0  0  0  0  0  0  0  0
   58.3370   30.9620   51.1000 N   0  0  0  0  0  0  0  0  0  0  0  0
   57.9230   29.7290   51.7710 C   0  0  0  0  0  0  0  0  0  0  0  0
   58.9930   32.3250   47.2040 C   0  0  0  0  0  0  0  0  0  0  0  0
   63.2772   34.7873   47.0229 H   0  0  0  0  0  0  0  0  0  0  0  0
   64.1090   33.7340   45.8290 H   0  0  0  0  0  0  0  0  0  0  0  0
   62.3164   33.8502   45.8290 H   0  0  0  0  0  0  0  0  0  0  0  0
   62.1137   32.2752   47.4432 H   0  0  0  0  0  0  0  0  0  0  0  0
   63.8628   31.9092   47.1156 H   0  0  0  0  0  0  0  0  0  0  0  0
   64.1968   31.4891   50.0308 H   0  0  0  0  0  0  0  0  0  0  0  0
   65.1108   31.7713   48.4862 H   0  0  0  0  0  0  0  0  0  0  0  0
   65.5002   32.9592   51.1785 H   0  0  0  0  0  0  0  0  0  0  0  0
   66.6580   32.7375   49.8232 H   0  0  0  0  0  0  0  0  0  0  0  0
   65.5328   34.1376   49.8232 H   0  0  0  0  0  0  0  0  0  0  0  0
   62.3895   34.2073   50.2049 H   0  0  0  0  0  0  0  0  0  0  0  0
   61.4451   33.0368   49.1274 H   0  0  0  0  0  0  0  0  0  0  0  0
   63.2227   31.6826   51.0108 H   0  0  0  0  0  0  0  0  0  0  0  0
   61.9635   32.6947   51.8168 H   0  0  0  0  0  0  0  0  0  0  0  0
   62.7429   30.5199   49.3445 H   0  0  0  0  0  0  0  0  0  0  0  0
   61.9359   29.2788   50.3989 H   0  0  0  0  0  0  0  0  0  0  0  0
   61.2731   30.1387   47.6781 H   0  0  0  0  0  0  0  0  0  0  0  0
   60.6986   28.7094   48.6488 H   0  0  0  0  0  0  0  0  0  0  0  0
   58.8430   29.7380   49.2230 H   0  0  0  0  0  0  0  0  0  0  0  0
   59.5240   31.2060   49.4670 H   0  0  0  0  0  0  0  0  0  0  0  0
   58.7139   28.2417   47.7382 H   0  0  0  0  0  0  0  0  0  0  0  0
   58.1843   26.6468   45.9165 H   0  0  0  0  0  0  0  0  0  0  0  0
   57.8347   27.4689   43.5970 H   0  0  0  0  0  0  0  0  0  0  0  0
   57.9674   29.8949   43.1028 H   0  0  0  0  0  0  0  0  0  0  0  0
   57.2164   33.1502   43.7454 H   0  0  0  0  0  0  0  0  0  0  0  0
   58.8080   32.7553   43.0122 H   0  0  0  0  0  0  0  0  0  0  0  0
   57.4911   31.5336   43.0122 H   0  0  0  0  0  0  0  0  0  0  0  0
   59.3468   34.3105   44.4194 H   0  0  0  0  0  0  0  0  0  0  0  0
   60.0187   35.9557   46.1486 H   0  0  0  0  0  0  0  0  0  0  0  0
   59.7419   35.4056   48.5531 H   0  0  0  0  0  0  0  0  0  0  0  0
   57.9120   32.5580   49.6970 H   0  0  0  0  0  0  0  0  0  0  0  0
   60.4662   33.8184   50.5419 H   0  0  0  0  0  0  0  0  0  0  0  0
   59.0061   34.8762   50.7016 H   0  0  0  0  0  0  0  0  0  0  0  0
   59.9058   32.6408   52.3804 H   0  0  0  0  0  0  0  0  0  0  0  0
   58.6693   33.9421   52.6894 H   0  0  0  0  0  0  0  0  0  0  0  0
   57.5452   31.8197   52.8526 H   0  0  0  0  0  0  0  0  0  0  0  0
   57.0435   32.6054   51.3090 H   0  0  0  0  0  0  0  0  0  0  0  0
   59.3830   30.9770   51.0790 H   0  0  0  0  0  0  0  0  0  0  0  0
   57.9706   29.8708   52.8608 H   0  0  0  0  0  0  0  0  0  0  0  0
   56.8922   29.4806   51.4783 H   0  0  0  0  0  0  0  0  0  0  0  0
   58.5950   28.9088   51.4783 H   0  0  0  0  0  0  0  0  0  0  0  0
  1  2  1  0
  2  3  1  0
  3  4  1  0
  4  5  1  0
  3  6  1  0
  6  7  1  0
  7  8  1  0
  8  9  1  0
  9 10  1  0
 10 11  1  0
 11 12  1  0
 12 13  2  0
 13 14  1  0
 14 15  2  0
 15 16  1  0
 16 17  2  0
 17 18  1  0
 18 19  2  0
 19 20  1  0
 19 21  1  0
 21 22  2  0
 22 23  1  0
 23 24  2  0
 24 25  1  0
 25 26  1  0
 26 27  1  0
 27 28  1  0
 28 29  1  0
 29 30  1  0
 30 31  1  0
 25 32  2  0
 32 12  1  0
 18 13  1  0
 32 21  1  0
  1 33  1  0
  1 34  1  0
  1 35  1  0
  2 36  1  0
  2 37  1  0
  4 38  1  0
  4 39  1  0
  5 40  1  0
  5 41  1  0
  5 42  1  0
  6 43  1  0
  6 44  1  0
  7 45  1  0
  7 46  1  0
  9 47  1  0
  9 48  1  0
 10 49  1  0
 10 50  1  0
 11 51  1  0
 11 52  1  0
 14 53  1  0
 15 54  1  0
 16 55  1  0
 17 56  1  0
 20 57  1  0
 20 58  1  0
 20 59  1  0
 22 60  1  0
 23 61  1  0
 24 62  1  0
 26 63  1  0
 27 64  1  0
 27 65  1  0
 28 66  1  0
 28 67  1  0
 29 68  1  0
 29 69  1  0
 30 70  1  0
 31 71  1  0
 31 72  1  0
 31 73  1  0
M  CHG  2  11   1  19   1
M  END
>  <UniqueID>  (20) 
20

>  <SMILES>  (20) 
CCN(CC)CCOCC[NH2+]c1c2ccccc2[n+](C)c2cccc(NCCCNC)c12

>  <Energy>  (20) 
112.92146232515108

>  <Genealogy>  (20) 
CCN(CC)CCOCC[NH2+]c1c2ccccc2[n+](C)c2cccc(NCCCNC)c12 (protonated)
CCN(CC)CCOCC[NH2+]c1c2ccccc2[n+](C)c2cccc(NCCCNC)c12 (3D coordinates assigned)
CCN(CC)CCOCC[NH2+]c1c2ccccc2[n+](C)c2cccc(NCCCNC)c12 (optimized conformer: 112.92146232515108 kcal/mol)

>  <smiles>  (20) 
CCN(CC)CCOCCNc1c2ccccc2[n+](C)c2cccc(NCCCNC)c12

>  <score_type>  (20) 
oracle

>  <origin>  (20) 
adg

>  <m_score__min__energy>  (20) 
-3.0800000000000001

>  <m_primary>  (20) 
energy

$$$$
20:0
     RDKit          3D

 75 77  0  0  0  0  0  0  0  0999 V2000
   62.8070   34.3110   50.4200 C   0  0  0  0  0  0  0  0  0  0  0  0
   62.8890   34.1000   48.9090 C   0  0  0  0  0  0  0  0  0  0  0  0
   62.9430   32.6550   48.5760 N   0  0  0  0  0  0  0  0  0  0  0  0
   63.3110   32.4540   47.1510 C   0  0  0  0  0  0  0  0  0  0  0  0
   63.3000   33.7980   46.4340 C   0  0  0  0  0  0  0  0  0  0  0  0
   63.8560   31.9270   49.4860 C   0  0  0  0  0  0  0  0  0  0  0  0
   63.0850   30.8720   50.3050 C   0  0  0  0  0  0  0  0  0  0  0  0
   61.7130   31.1940   50.4460 O   0  0  0  0  0  0  0  0  0  0  0  0
   60.9010   30.0410   50.5790 C   0  0  0  0  0  0  0  0  0  0  0  0
   60.1100   29.7270   49.2960 C   0  0  0  0  0  0  0  0  0  0  0  0
   60.6250   30.4820   48.1530 N   0  0  0  0  0  0  0  0  0  0  0  0
   59.7750   30.7560   47.0310 C   0  0  0  0  0  0  0  0  0  0  0  0
   59.4060   29.6920   46.1850 C   0  0  0  0  0  0  0  0  0  0  0  0
   59.6970   28.3520   46.5320 C   0  0  0  0  0  0  0  0  0  0  0  0
   59.3090   27.3000   45.7070 C   0  0  0  0  0  0  0  0  0  0  0  0
   58.6120   27.5580   44.5330 C   0  0  0  0  0  0  0  0  0  0  0  0
   58.3120   28.8700   44.1710 C   0  0  0  0  0  0  0  0  0  0  0  0
   58.7250   29.9650   44.9750 C   0  0  0  0  0  0  0  0  0  0  0  0
   58.4640   31.2680   44.6120 N   0  0  0  0  0  0  0  0  0  0  0  0
   58.0630   31.5780   43.2210 C   0  0  0  0  0  0  0  0  0  0  0  0
   58.5860   32.2840   45.5430 C   0  0  0  0  0  0  0  0  0  0  0  0
   58.0010   33.5500   45.3050 C   0  0  0  0  0  0  0  0  0  0  0  0
   58.1300   34.5850   46.2160 C   0  0  0  0  0  0  0  0  0  0  0  0
   58.8480   34.4020   47.3840 C   0  0  0  0  0  0  0  0  0  0  0  0
   59.4450   33.1660   47.6830 C   0  0  0  0  0  0  0  0  0  0  0  0
   60.0940   33.0200   48.9620 N   0  0  0  0  0  0  0  0  0  0  0  0
   59.4220   33.1700   50.2600 C   0  0  0  0  0  0  0  0  0  0  0  0
   58.1410   32.3270   50.3600 C   0  0  0  0  0  0  0  0  0  0  0  0
   57.9510   31.6130   51.7180 C   0  0  0  0  0  0  0  0  0  0  0  0
   57.0050   30.4790   51.6040 N   0  0  0  0  0  0  0  0  0  0  0  0
   57.4280   29.3720   52.4800 C   0  0  0  0  0  0  0  0  0  0  0  0
   55.6410   30.8920   51.9870 C   0  0  0  0  0  0  0  0  0  0  0  0
   59.2830   32.0650   46.7730 C   0  0  0  0  0  0  0  0  0  0  0  0
   63.1588   33.4056   50.9363 H   0  0  0  0  0  0  0  0  0  0  0  0
   63.4387   35.1650   50.7058 H   0  0  0  0  0  0  0  0  0  0  0  0
   61.7644   34.5143   50.7058 H   0  0  0  0  0  0  0  0  0  0  0  0
   62.0020   34.5455   48.4349 H   0  0  0  0  0  0  0  0  0  0  0  0
   63.8065   34.5798   48.5374 H   0  0  0  0  0  0  0  0  0  0  0  0
   64.3169   32.0131   47.0899 H   0  0  0  0  0  0  0  0  0  0  0  0
   62.5866   31.7765   46.6753 H   0  0  0  0  0  0  0  0  0  0  0  0
   63.2934   34.6096   47.1764 H   0  0  0  0  0  0  0  0  0  0  0  0
   64.1975   33.8848   45.8039 H   0  0  0  0  0  0  0  0  0  0  0  0
   62.4012   33.8701   45.8039 H   0  0  0  0  0  0  0  0  0  0  0  0
   64.6332   31.4247   48.8913 H   0  0  0  0  0  0  0  0  0  0  0  0
   64.3119   32.6485   50.1800 H   0  0  0  0  0  0  0  0  0  0  0  0
   63.1692   29.8999   49.7970 H   0  0  0  0  0  0  0  0  0  0  0  0
   63.5270   30.8407   51.3118 H   0  0  0  0  0  0  0  0  0  0  0  0
   61.5449   29.1812   50.8160 H   0  0  0  0  0  0  0  0  0  0  0  0
   60.1740   30.2344   51.3815 H   0  0  0  0  0  0  0  0  0  0  0  0
   60.1906   28.6514   49.0801 H   0  0  0  0  0  0  0  0  0  0  0  0
   59.0607   30.0153   49.4569 H   0  0  0  0  0  0  0  0  0  0  0  0
   61.4670   31.0890   48.2710 H   0  0  0  0  0  0  0  0  0  0  0  0
   60.2371   28.1383   47.4662 H   0  0  0  0  0  0  0  0  0  0  0  0
   59.5543   26.2642   45.9846 H   0  0  0  0  0  0  0  0  0  0  0  0
   58.2963   26.7249   43.8879 H   0  0  0  0  0  0  0  0  0  0  0  0
   57.7460   29.0603   43.2472 H   0  0  0  0  0  0  0  0  0  0  0  0
   57.1928   32.2507   43.2316 H   0  0  0  0  0  0  0  0  0  0  0  0
   58.8985   32.0674   42.6990 H   0  0  0  0  0  0  0  0  0  0  0  0
   57.7998   30.6462   42.6990 H   0  0  0  0  0  0  0  0  0  0  0  0
   57.4324   33.7155   44.3780 H   0  0  0  0  0  0  0  0  0  0  0  0
   57.6591   35.5575   46.0097 H   0  0  0  0  0  0  0  0  0  0  0  0
   58.9533   35.2384   48.0907 H   0  0  0  0  0  0  0  0  0  0  0  0
   61.0300   32.5580   48.9780 H   0  0  0  0  0  0  0  0  0  0  0  0
   60.1146   32.8549   51.0544 H   0  0  0  0  0  0  0  0  0  0  0  0
   59.1362   34.2267   50.3684 H   0  0  0  0  0  0  0  0  0  0  0  0
   57.2789   32.9904   50.1965 H   0  0  0  0  0  0  0  0  0  0  0  0
   58.2246   31.5372   49.5989 H   0  0  0  0  0  0  0  0  0  0  0  0
   58.9245   31.2339   52.0624 H   0  0  0  0  0  0  0  0  0  0  0  0
   57.5385   32.3375   52.4356 H   0  0  0  0  0  0  0  0  0  0  0  0
   57.3132   29.6724   53.5319 H   0  0  0  0  0  0  0  0  0  0  0  0
   56.8043   28.4880   52.2810 H   0  0  0  0  0  0  0  0  0  0  0  0
   58.4823   29.1292   52.2810 H   0  0  0  0  0  0  0  0  0  0  0  0
   55.5597   30.9166   53.0837 H   0  0  0  0  0  0  0  0  0  0  0  0
   55.4336   31.8932   51.5814 H   0  0  0  0  0  0  0  0  0  0  0  0
   54.9130   30.1740   51.5814 H   0  0  0  0  0  0  0  0  0  0  0  0
  1  2  1  0
  2  3  1  0
  3  4  1  0
  4  5  1  0
  3  6  1  0
  6  7  1  0
  7  8  1  0
  8  9  1  0
  9 10  1  0
 10 11  1  0
 11 12  1  0
 12 13  2  0
 13 14  1  0
 14 15  2  0
 15 16  1  0
 16 17  2  0
 17 18  1  0
 18 19  2  0
 19 20  1  0
 19 21  1  0
 21 22  2  0
 22 23  1  0
 23 24  2  0
 24 25  1  0
 25 26  1  0
 26 27  1  0
 27 28  1  0
 28 29  1  0
 29 30  1  0
 30 31  1  0
 30 32  1  0
 25 33  2  0
 33 12  1  0
 18 13  1  0
 33 21  1  0
  1 34  1  0
  1 35  1  0
  1 36  1  0
  2 37  1  0
  2 38  1  0
  4 39  1  0
  4 40  1  0
  5 41  1  0
  5 42  1  0
  5 43  1  0
  6 44  1  0
  6 45  1  0
  7 46  1  0
  7 47  1  0
  9 48  1  0
  9 49  1  0
 10 50  1  0
 10 51  1  0
 11 52  1  0
 14 53  1  0
 15 54  1  0
 16 55  1  0
 17 56  1  0
 20 57  1  0
 20 58  1  0
 20 59  1  0
 22 60  1  0
 23 61  1  0
 24 62  1  0
 26 63  1  0
 27 64  1  0
 27 65  1  0
 28 66  1  0
 28 67  1  0
 29 68  1  0
 29 69  1  0
 31 70  1  0
 31 71  1  0
 31 72  1  0
 32 73  1  0
 32 74  1  0
 32 75  1  0
M  CHG  1  19   1
M  END
>  <UniqueID>  (21) 
21

>  <SMILES>  (21) 
CCN(CC)CCOCCNc1c2ccccc2[n+](C)c2cccc(NCCCN(C)C)c12

>  <Energy>  (21) 
111.41155305176163

>  <Genealogy>  (21) 
CCN(CC)CCOCCNc1c2ccccc2[n+](C)c2cccc(NCCCN(C)C)c12 (3D coordinates assigned)
CCN(CC)CCOCCNc1c2ccccc2[n+](C)c2cccc(NCCCN(C)C)c12 (optimized conformer: 111.41155305176163 kcal/mol)

>  <smiles>  (21) 
CCN(CC)CCOCCNc1c2ccccc2[n+](C)c2cccc(NCCCN(C)C)c12

>  <score_type>  (21) 
oracle

>  <origin>  (21) 
adg

>  <m_score__min__energy>  (21) 
-5.1900000000000004

>  <m_primary>  (21) 
energy

$$$$
21:0
     RDKit          3D

 39 40  0  0  0  0  0  0  0  0999 V2000
   63.3510   33.8680   46.3780 C   0  0  0  0  0  0  0  0  0  0  0  0
   63.7130   33.4680   47.8070 C   0  0  0  0  0  0  0  0  0  0  0  0
   63.6280   32.0110   47.9810 N   0  0  0  0  0  0  0  0  0  0  0  0
   62.5610   31.4510   47.1380 C   0  0  0  0  0  0  0  0  0  0  0  0
   61.2050   31.3860   47.8730 C   0  0  0  0  0  0  0  0  0  0  0  0
   60.0640   31.2460   46.9270 N   0  0  0  0  0  0  0  0  0  0  0  0
   59.6090   29.9740   46.6200 C   0  0  0  0  0  0  0  0  0  0  0  0
   60.1510   28.7270   47.2920 C   0  0  0  0  0  0  0  0  0  0  0  0
   58.5640   29.7950   45.7090 C   0  0  0  0  0  0  0  0  0  0  0  0
   57.9640   30.8800   45.0800 C   0  0  0  0  0  0  0  0  0  0  0  0
   56.8460   30.6200   44.0980 C   0  0  0  0  0  0  0  0  0  0  0  0
   58.4070   32.1790   45.3900 C   0  0  0  0  0  0  0  0  0  0  0  0
   57.8120   33.3090   44.7850 C   0  0  0  0  0  0  0  0  0  0  0  0
   58.2430   34.5940   45.0930 C   0  0  0  0  0  0  0  0  0  0  0  0
   59.2690   34.7810   46.0070 C   0  0  0  0  0  0  0  0  0  0  0  0
   59.8740   33.6860   46.6210 C   0  0  0  0  0  0  0  0  0  0  0  0
   59.4700   32.3530   46.3310 C   0  0  0  0  0  0  0  0  0  0  0  0
   62.6131   34.6834   46.4013 H   0  0  0  0  0  0  0  0  0  0  0  0
   64.2556   34.2070   45.8518 H   0  0  0  0  0  0  0  0  0  0  0  0
   62.9237   33.0017   45.8518 H   0  0  0  0  0  0  0  0  0  0  0  0
   64.7398   33.7974   48.0241 H   0  0  0  0  0  0  0  0  0  0  0  0
   63.0022   33.9465   48.4968 H   0  0  0  0  0  0  0  0  0  0  0  0
   64.5430   31.5840   47.7080 H   0  0  0  0  0  0  0  0  0  0  0  0
   63.4170   31.8060   48.9850 H   0  0  0  0  0  0  0  0  0  0  0  0
   62.4487   32.0822   46.2442 H   0  0  0  0  0  0  0  0  0  0  0  0
   62.8481   30.4232   46.8713 H   0  0  0  0  0  0  0  0  0  0  0  0
   61.2107   30.5214   48.5530 H   0  0  0  0  0  0  0  0  0  0  0  0
   61.0734   32.3271   48.4271 H   0  0  0  0  0  0  0  0  0  0  0  0
   60.0989   28.8470   48.3842 H   0  0  0  0  0  0  0  0  0  0  0  0
   59.5499   27.8568   46.9896 H   0  0  0  0  0  0  0  0  0  0  0  0
   61.1973   28.5728   46.9896 H   0  0  0  0  0  0  0  0  0  0  0  0
   58.2101   28.7777   45.4858 H   0  0  0  0  0  0  0  0  0  0  0  0
   55.9180   30.4042   44.6477 H   0  0  0  0  0  0  0  0  0  0  0  0
   56.6995   31.5080   43.4656 H   0  0  0  0  0  0  0  0  0  0  0  0
   57.1064   29.7584   43.4656 H   0  0  0  0  0  0  0  0  0  0  0  0
   56.9964   33.1697   44.0602 H   0  0  0  0  0  0  0  0  0  0  0  0
   57.7702   35.4628   44.6117 H   0  0  0  0  0  0  0  0  0  0  0  0
   59.6072   35.7994   46.2487 H   0  0  0  0  0  0  0  0  0  0  0  0
   60.6828   33.8563   47.3468 H   0  0  0  0  0  0  0  0  0  0  0  0
  1  2  1  0
  2  3  1  0
  3  4  1  0
  4  5  1  0
  5  6  1  0
  6  7  2  0
  7  8  1  0
  7  9  1  0
  9 10  2  0
 10 11  1  0
 10 12  1  0
 12 13  2  0
 13 14  1  0
 14 15  2  0
 15 16  1  0
 16 17  2  0
 17  6  1  0
 17 12  1  0
  1 18  1  0
  1 19  1  0
  1 20  1  0
  2 21  1  0
  2 22  1  0
  3 23  1  0
  3 24  1  0
  4 25  1  0
  4 26  1  0
  5 27  1  0
  5 28  1  0
  8 29  1  0
  8 30  1  0
  8 31  1  0
  9 32  1  0
 11 33  1  0
 11 34  1  0
 11 35  1  0
 13 36  1  0
 14 37  1  0
 15 38  1  0
 16 39  1  0
M  CHG  2   3   1   6   1
M  END
>  <UniqueID>  (22) 
22

>  <SMILES>  (22) 
CC[NH2+]CC[n+]1c(C)cc(C)c2ccccc21

>  <Energy>  (22) 
49.42272875941828

>  <Genealogy>  (22) 
CC[NH2+]CC[n+]1c(C)cc(C)c2ccccc21 (protonated)
CC[NH2+]CC[n+]1c(C)cc(C)c2ccccc21 (3D coordinates assigned)
CC[NH2+]CC[n+]1c(C)cc(C)c2ccccc21 (optimized conformer: 49.42272875941828 kcal/mol)

>  <smiles>  (22) 
CCNCC[n+]1c(C)cc(C)c2ccccc21

>  <score_type>  (22) 
oracle

>  <origin>  (22) 
adg

>  <m_score__min__energy>  (22) 
-3.6099999999999999

>  <m_primary>  (22) 
energy

$$$$
22:0
     RDKit          3D

 61 63  0  0  0  0  0  0  0  0999 V2000
   63.7400   32.9850   47.1060 C   0  0  0  0  0  0  0  0  0  0  0  0
   62.8650   31.7890   47.5180 C   0  0  0  0  0  0  0  0  0  0  0  0
   61.6730   32.1490   48.3370 N   0  0  0  0  0  0  0  0  0  0  0  0
   61.4910   33.6250   48.3870 C   0  0  0  0  0  0  0  0  0  0  0  0
   61.6450   34.1910   49.8040 C   0  0  0  0  0  0  0  0  0  0  0  0
   61.6950   31.5680   49.7090 C   0  0  0  0  0  0  0  0  0  0  0  0
   60.3850   30.8650   50.1020 C   0  0  0  0  0  0  0  0  0  0  0  0
   59.8610   30.1690   48.9910 O   0  0  0  0  0  0  0  0  0  0  0  0
   60.8060   29.2490   48.4780 C   0  0  0  0  0  0  0  0  0  0  0  0
   60.1290   27.9290   48.0940 C   0  0  0  0  0  0  0  0  0  0  0  0
   59.3290   28.0750   46.8260 C   0  0  0  0  0  0  0  0  0  0  0  0
   59.9330   28.5850   45.6670 C   0  0  0  0  0  0  0  0  0  0  0  0
   59.1840   28.7650   44.5010 C   0  0  0  0  0  0  0  0  0  0  0  0
   57.8150   28.4370   44.4750 C   0  0  0  0  0  0  0  0  0  0  0  0
   57.0200   28.5940   43.2830 N   0  0  0  0  0  0  0  0  0  0  0  0
   56.3080   29.8210   42.9240 C   0  0  0  0  0  0  0  0  0  0  0  0
   57.0350   31.0290   43.4540 C   0  0  0  0  0  0  0  0  0  0  0  0
   57.7240   31.8740   42.5690 C   0  0  0  0  0  0  0  0  0  0  0  0
   58.4190   32.9870   43.0460 C   0  0  0  0  0  0  0  0  0  0  0  0
   58.4340   33.2740   44.4190 C   0  0  0  0  0  0  0  0  0  0  0  0
   59.1340   34.3880   44.9100 C   0  0  0  0  0  0  0  0  0  0  0  0
   59.1450   34.6600   46.2820 C   0  0  0  0  0  0  0  0  0  0  0  0
   59.8240   35.7350   46.7520 F   0  0  0  0  0  0  0  0  0  0  0  0
   58.4590   33.8270   47.1700 C   0  0  0  0  0  0  0  0  0  0  0  0
   57.7550   32.7160   46.6920 C   0  0  0  0  0  0  0  0  0  0  0  0
   57.7370   32.4310   45.3190 C   0  0  0  0  0  0  0  0  0  0  0  0
   57.0370   31.3180   44.8280 C   0  0  0  0  0  0  0  0  0  0  0  0
   57.2100   27.9520   45.6450 C   0  0  0  0  0  0  0  0  0  0  0  0
   57.9590   27.7740   46.8110 C   0  0  0  0  0  0  0  0  0  0  0  0
   64.1126   33.4943   48.0070 H   0  0  0  0  0  0  0  0  0  0  0  0
   64.5914   32.6277   46.5082 H   0  0  0  0  0  0  0  0  0  0  0  0
   63.1417   33.6883   46.5082 H   0  0  0  0  0  0  0  0  0  0  0  0
   62.5150   31.2880   46.6034 H   0  0  0  0  0  0  0  0  0  0  0  0
   63.4942   31.1431   48.1480 H   0  0  0  0  0  0  0  0  0  0  0  0
   60.8480   31.7410   47.8340 H   0  0  0  0  0  0  0  0  0  0  0  0
   62.2432   34.0949   47.7364 H   0  0  0  0  0  0  0  0  0  0  0  0
   60.4676   33.8459   48.0496 H   0  0  0  0  0  0  0  0  0  0  0  0
   61.4302   33.4017   50.5395 H   0  0  0  0  0  0  0  0  0  0  0  0
   62.6742   34.5528   49.9445 H   0  0  0  0  0  0  0  0  0  0  0  0
   60.9410   35.0244   49.9445 H   0  0  0  0  0  0  0  0  0  0  0  0
   62.5128   30.8343   49.7627 H   0  0  0  0  0  0  0  0  0  0  0  0
   61.8352   32.4036   50.4105 H   0  0  0  0  0  0  0  0  0  0  0  0
   60.5831   30.1539   50.9175 H   0  0  0  0  0  0  0  0  0  0  0  0
   59.6555   31.6182   50.4344 H   0  0  0  0  0  0  0  0  0  0  0  0
   61.2833   29.6820   47.5865 H   0  0  0  0  0  0  0  0  0  0  0  0
   61.5577   29.0462   49.2551 H   0  0  0  0  0  0  0  0  0  0  0  0
   60.9013   27.1601   47.9443 H   0  0  0  0  0  0  0  0  0  0  0  0
   59.4452   27.6396   48.9056 H   0  0  0  0  0  0  0  0  0  0  0  0
   61.0019   28.8446   45.6761 H   0  0  0  0  0  0  0  0  0  0  0  0
   59.6671   29.1656   43.5976 H   0  0  0  0  0  0  0  0  0  0  0  0
   57.0140   27.8170   42.5830 H   0  0  0  0  0  0  0  0  0  0  0  0
   56.2394   29.8920   41.8284 H   0  0  0  0  0  0  0  0  0  0  0  0
   55.3015   29.7899   43.3666 H   0  0  0  0  0  0  0  0  0  0  0  0
   57.7161   31.6571   41.4906 H   0  0  0  0  0  0  0  0  0  0  0  0
   58.9563   33.6407   42.3432 H   0  0  0  0  0  0  0  0  0  0  0  0
   59.6743   35.0474   44.2148 H   0  0  0  0  0  0  0  0  0  0  0  0
   58.4724   34.0453   48.2480 H   0  0  0  0  0  0  0  0  0  0  0  0
   57.2146   32.0648   47.3948 H   0  0  0  0  0  0  0  0  0  0  0  0
   56.4865   30.6680   45.5240 H   0  0  0  0  0  0  0  0  0  0  0  0
   56.1370   27.7100   45.6439 H   0  0  0  0  0  0  0  0  0  0  0  0
   57.4718   27.3959   47.7219 H   0  0  0  0  0  0  0  0  0  0  0  0
  1  2  1  0
  2  3  1  0
  3  4  1  0
  4  5  1  0
  3  6  1  0
  6  7  1  0
  7  8  1  0
  8  9  1  0
  9 10  1  0
 10 11  1  0
 11 12  2  0
 12 13  1  0
 13 14  2  0
 14 15  1  0
 15 16  1  0
 16 17  1  0
 17 18  2  0
 18 19  1  0
 19 20  2  0
 20 21  1  0
 21 22  2  0
 22 23  1  0
 22 24  1  0
 24 25  2  0
 25 26  1  0
 26 27  2  0
 14 28  1  0
 28 29  2  0
 29 11  1  0
 27 17  1  0
 26 20  1  0
  1 30  1  0
  1 31  1  0
  1 32  1  0
  2 33  1  0
  2 34  1  0
  3 35  1  0
  4 36  1  0
  4 37  1  0
  5 38  1  0
  5 39  1  0
  5 40  1  0
  6 41  1  0
  6 42  1  0
  7 43  1  0
  7 44  1  0
  9 45  1  0
  9 46  1  0
 10 47  1  0
 10 48  1  0
 12 49  1  0
 13 50  1  0
 15 51  1  0
 16 52  1  0
 16 53  1  0
 18 54  1  0
 19 55  1  0
 21 56  1  0
 24 57  1  0
 25 58  1  0
 27 59  1  0
 28 60  1  0
 29 61  1  0
M  CHG  1   3   1
M  END
>  <UniqueID>  (23) 
23

>  <SMILES>  (23) 
CC[NH+](CC)CCOCCc1ccc(NCc2ccc3cc(F)ccc3c2)cc1

>  <Energy>  (23) 
65.82366813622475

>  <Genealogy>  (23) 
CC[NH+](CC)CCOCCc1ccc(NCc2ccc3cc(F)ccc3c2)cc1 (protonated)
CC[NH+](CC)CCOCCc1ccc(NCc2ccc3cc(F)ccc3c2)cc1 (3D coordinates assigned)
CC[NH+](CC)CCOCCc1ccc(NCc2ccc3cc(F)ccc3c2)cc1 (optimized conformer: 65.82366813622475 kcal/mol)

>  <smiles>  (23) 
CCN(CC)CCOCCc1ccc(NCc2ccc3cc(F)ccc3c2)cc1

>  <score_type>  (23) 
oracle

>  <origin>  (23) 
adg

>  <m_score__min__energy>  (23) 
-6.2000000000000002

>  <m_primary>  (23) 
energy

$$$$
23:0
     RDKit          3D

 54 56  0  0  0  0  0  0  0  0999 V2000
   62.4291   33.8706   49.3392 H   0  0  0  0  0  0  0  0  0  0  0  0
   61.7410   33.8710   48.4810 C   0  0  0  0  0  0  0  0  0  0  0  0
   62.1490   33.4610   47.3320 N   0  0  0  0  0  0  0  0  0  0  0  0
   63.5050   33.0190   47.1190 C   0  0  0  0  0  0  0  0  0  0  0  0
   63.9954   32.8591   48.0906 H   0  0  0  0  0  0  0  0  0  0  0  0
   63.4986   32.0764   46.5520 H   0  0  0  0  0  0  0  0  0  0  0  0
   64.0553   33.7843   46.5520 H   0  0  0  0  0  0  0  0  0  0  0  0
   60.3320   34.3490   48.6540 C   0  0  0  0  0  0  0  0  0  0  0  0
   60.1424   34.5465   49.7194 H   0  0  0  0  0  0  0  0  0  0  0  0
   60.1895   35.2720   48.0728 H   0  0  0  0  0  0  0  0  0  0  0  0
   59.3970   33.3310   48.1760 N   0  0  0  0  0  0  0  0  0  0  0  0
   58.8580   32.7850   48.8850 H   0  0  0  0  0  0  0  0  0  0  0  0
   58.9950   33.2210   46.7970 C   0  0  0  0  0  0  0  0  0  0  0  0
   58.5750   34.3740   46.1140 C   0  0  0  0  0  0  0  0  0  0  0  0
   58.6953   35.3607   46.5851 H   0  0  0  0  0  0  0  0  0  0  0  0
   58.0100   34.2800   44.8510 C   0  0  0  0  0  0  0  0  0  0  0  0
   57.7447   35.1941   44.2996 H   0  0  0  0  0  0  0  0  0  0  0  0
   57.7780   33.0350   44.2800 C   0  0  0  0  0  0  0  0  0  0  0  0
   57.2998   32.9747   43.2912 H   0  0  0  0  0  0  0  0  0  0  0  0
   58.1460   31.8430   44.9480 C   0  0  0  0  0  0  0  0  0  0  0  0
   58.8860   31.9490   46.1600 C   0  0  0  0  0  0  0  0  0  0  0  0
   59.5030   30.7870   46.6780 C   0  0  0  0  0  0  0  0  0  0  0  0
   60.5300   30.8830   47.6830 N   0  0  0  0  0  0  0  0  0  0  0  0
   61.3790   31.4610   47.4910 H   0  0  0  0  0  0  0  0  0  0  0  0
   60.3670   30.2840   49.0110 C   0  0  0  0  0  0  0  0  0  0  0  0
   60.7184   29.2421   48.9789 H   0  0  0  0  0  0  0  0  0  0  0  0
   60.9549   30.8731   49.7303 H   0  0  0  0  0  0  0  0  0  0  0  0
   58.8950   30.3020   49.4600 C   0  0  0  0  0  0  0  0  0  0  0  0
   58.2457   30.3270   48.5724 H   0  0  0  0  0  0  0  0  0  0  0  0
   58.6917   29.3975   50.0520 H   0  0  0  0  0  0  0  0  0  0  0  0
   58.6240   31.4950   50.2970 N   0  0  0  0  0  0  0  0  0  0  0  0
   59.8390   31.8930   51.0380 C   0  0  0  0  0  0  0  0  0  0  0  0
   59.6463   31.8299   52.1191 H   0  0  0  0  0  0  0  0  0  0  0  0
   60.6672   31.2192   50.7732 H   0  0  0  0  0  0  0  0  0  0  0  0
   60.1080   32.9262   50.7732 H   0  0  0  0  0  0  0  0  0  0  0  0
   57.5390   31.2140   51.2520 C   0  0  0  0  0  0  0  0  0  0  0  0
   57.9200   31.3127   52.2792 H   0  0  0  0  0  0  0  0  0  0  0  0
   56.7181   31.9292   51.0951 H   0  0  0  0  0  0  0  0  0  0  0  0
   57.1684   30.1903   51.0951 H   0  0  0  0  0  0  0  0  0  0  0  0
   59.2500   29.5370   46.0820 C   0  0  0  0  0  0  0  0  0  0  0  0
   59.8440   28.3610   46.5910 C   0  0  0  0  0  0  0  0  0  0  0  0
   60.4685   28.4153   47.4949 H   0  0  0  0  0  0  0  0  0  0  0  0
   59.6490   27.1340   45.9630 C   0  0  0  0  0  0  0  0  0  0  0  0
   60.1076   26.2247   46.3789 H   0  0  0  0  0  0  0  0  0  0  0  0
   58.8760   27.0570   44.8120 C   0  0  0  0  0  0  0  0  0  0  0  0
   58.7366   26.0888   44.3089 H   0  0  0  0  0  0  0  0  0  0  0  0
   58.2760   28.2030   44.2920 C   0  0  0  0  0  0  0  0  0  0  0  0
   57.6806   28.1302   43.3699 H   0  0  0  0  0  0  0  0  0  0  0  0
   58.4200   29.4630   44.9320 C   0  0  0  0  0  0  0  0  0  0  0  0
   57.8150   30.6020   44.4360 N   0  0  0  0  0  0  0  0  0  0  0  0
   56.7770   30.4910   43.3850 C   0  0  0  0  0  0  0  0  0  0  0  0
   55.7884   30.3853   43.8557 H   0  0  0  0  0  0  0  0  0  0  0  0
   56.7904   31.3957   42.7594 H   0  0  0  0  0  0  0  0  0  0  0  0
   56.9814   29.6096   42.7594 H   0  0  0  0  0  0  0  0  0  0  0  0
  1  2  1  0
  2  3  2  0
  3  4  1  0
  4  5  1  0
  4  6  1  0
  4  7  1  0
  2  8  1  0
  8  9  1  0
  8 10  1  0
  8 11  1  0
 11 12  1  0
 11 13  1  0
 13 14  2  0
 14 15  1  0
 14 16  1  0
 16 17  1  0
 16 18  2  0
 18 19  1  0
 18 20  1  0
 20 21  2  0
 21 22  1  0
 22 23  1  0
 23 24  1  0
 23 25  1  0
 25 26  1  0
 25 27  1  0
 25 28  1  0
 28 29  1  0
 28 30  1  0
 28 31  1  0
 31 32  1  0
 32 33  1  0
 32 34  1  0
 32 35  1  0
 31 36  1  0
 36 37  1  0
 36 38  1  0
 36 39  1  0
 22 40  2  0
 40 41  1  0
 41 42  1  0
 41 43  2  0
 43 44  1  0
 43 45  1  0
 45 46  1  0
 45 47  2  0
 47 48  1  0
 47 49  1  0
 49 50  2  0
 50 51  1  0
 51 52  1  0
 51 53  1  0
 51 54  1  0
 21 13  1  0
 49 40  1  0
 50 20  1  0
M  CHG  1  50   1
M  END
>  <UniqueID>  (24) 
24

>  <SMILES>  (24) 
C/N=C/CNc1cccc2c1c(NCCN(C)C)c1ccccc1[n+]2C

>  <Energy>  (24) 
84.8593698597604

>  <Genealogy>  (24) 
C/N=C/CNc1cccc2c1c(NCCN(C)C)c1ccccc1[n+]2C (cis-trans isomerization)
C/N=C/CNc1cccc2c1c(NCCN(C)C)c1ccccc1[n+]2C (3D coordinates assigned)
C/N=C/CNc1cccc2c1c(NCCN(C)C)c1ccccc1[n+]2C (optimized conformer: 84.8593698597604 kcal/mol)

>  <smiles>  (24) 
CN=CCNc1cccc2c1c(NCCN(C)C)c1ccccc1[n+]2C

>  <score_type>  (24) 
oracle

>  <origin>  (24) 
adg

>  <m_score__min__energy>  (24) 
-4.5

>  <m_primary>  (24) 
energy

$$$$
24:0
     RDKit          3D

 42 42  0  0  0  0  0  0  0  0999 V2000
   57.0850   32.3370   40.7210 C   0  0  0  0  0  0  0  0  0  0  0  0
   58.1660   32.4080   41.7950 C   0  0  0  0  0  0  0  0  0  0  0  0
   57.8850   31.4370   42.8560 N   0  0  0  0  0  0  0  0  0  0  0  0
   56.6390   30.7150   42.5760 C   0  0  0  0  0  0  0  0  0  0  0  0
   56.5180   29.4900   43.4820 C   0  0  0  0  0  0  0  0  0  0  0  0
   56.2820   29.8980   44.8180 O   0  0  0  0  0  0  0  0  0  0  0  0
   57.4550   29.7750   45.5970 C   0  0  0  0  0  0  0  0  0  0  0  0
   58.0190   31.1730   45.8700 C   0  0  0  0  0  0  0  0  0  0  0  0
   57.1420   32.2570   45.3840 N   0  0  0  0  0  0  0  0  0  0  0  0
   57.7630   33.5970   45.3440 C   0  0  0  0  0  0  0  0  0  0  0  0
   58.0660   34.1920   46.7340 C   0  0  0  0  0  0  0  0  0  0  0  0
   59.4780   33.9110   47.1840 C   0  0  0  0  0  0  0  0  0  0  0  0
   60.5280   33.8570   46.2510 C   0  0  0  0  0  0  0  0  0  0  0  0
   61.8380   33.6170   46.6780 C   0  0  0  0  0  0  0  0  0  0  0  0
   62.1100   33.4290   48.0370 C   0  0  0  0  0  0  0  0  0  0  0  0
   63.8990   33.1020   48.6170 Br  0  0  0  0  0  0  0  0  0  0  0  0
   61.0700   33.4800   48.9700 C   0  0  0  0  0  0  0  0  0  0  0  0
   59.7590   33.7200   48.5460 C   0  0  0  0  0  0  0  0  0  0  0  0
   56.0966   32.2721   41.1994 H   0  0  0  0  0  0  0  0  0  0  0  0
   57.1306   33.2401   40.0946 H   0  0  0  0  0  0  0  0  0  0  0  0
   57.2483   31.4476   40.0946 H   0  0  0  0  0  0  0  0  0  0  0  0
   59.1431   32.1812   41.3435 H   0  0  0  0  0  0  0  0  0  0  0  0
   58.1794   33.4197   42.2266 H   0  0  0  0  0  0  0  0  0  0  0  0
   58.6640   30.7360   42.8660 H   0  0  0  0  0  0  0  0  0  0  0  0
   55.7844   31.3840   42.7550 H   0  0  0  0  0  0  0  0  0  0  0  0
   56.6465   30.3837   41.5271 H   0  0  0  0  0  0  0  0  0  0  0  0
   55.6810   28.8641   43.1388 H   0  0  0  0  0  0  0  0  0  0  0  0
   57.4549   28.9151   43.4397 H   0  0  0  0  0  0  0  0  0  0  0  0
   57.2150   29.2812   46.5502 H   0  0  0  0  0  0  0  0  0  0  0  0
   58.1995   29.1721   45.0565 H   0  0  0  0  0  0  0  0  0  0  0  0
   58.1523   31.2908   46.9555 H   0  0  0  0  0  0  0  0  0  0  0  0
   58.9720   31.2539   45.3266 H   0  0  0  0  0  0  0  0  0  0  0  0
   56.8020   32.0060   44.4270 H   0  0  0  0  0  0  0  0  0  0  0  0
   56.2980   32.3060   46.0010 H   0  0  0  0  0  0  0  0  0  0  0  0
   58.7082   33.5232   44.7863 H   0  0  0  0  0  0  0  0  0  0  0  0
   57.0371   34.2689   44.8626 H   0  0  0  0  0  0  0  0  0  0  0  0
   57.9188   35.2813   46.6918 H   0  0  0  0  0  0  0  0  0  0  0  0
   57.3835   33.7209   47.4567 H   0  0  0  0  0  0  0  0  0  0  0  0
   60.3186   34.0040   45.1812 H   0  0  0  0  0  0  0  0  0  0  0  0
   62.6559   33.5760   45.9436 H   0  0  0  0  0  0  0  0  0  0  0  0
   61.2831   33.3312   50.0389 H   0  0  0  0  0  0  0  0  0  0  0  0
   58.9439   33.7593   49.2836 H   0  0  0  0  0  0  0  0  0  0  0  0
  1  2  1  0
  2  3  1  0
  3  4  1  0
  4  5  1  0
  5  6  1  0
  6  7  1  0
  7  8  1  0
  8  9  1  0
  9 10  1  0
 10 11  1  0
 11 12  1  0
 12 13  2  0
 13 14  1  0
 14 15  2  0
 15 16  1  0
 15 17  1  0
 17 18  2  0
 18 12  1  0
  1 19  1  0
  1 20  1  0
  1 21  1  0
  2 22  1  0
  2 23  1  0
  3 24  1  0
  4 25  1  0
  4 26  1  0
  5 27  1  0
  5 28  1  0
  7 29  1  0
  7 30  1  0
  8 31  1  0
  8 32  1  0
  9 33  1  0
  9 34  1  0
 10 35  1  0
 10 36  1  0
 11 37  1  0
 11 38  1  0
 13 39  1  0
 14 40  1  0
 17 41  1  0
 18 42  1  0
M  CHG  1   9   1
M  END
>  <UniqueID>  (25) 
25

>  <SMILES>  (25) 
CCNCCOCC[NH2+]CCc1ccc(Br)cc1

>  <Energy>  (25) 
33.24729332489966

>  <Genealogy>  (25) 
CCNCCOCC[NH2+]CCc1ccc(Br)cc1 (protonated)
CCNCCOCC[NH2+]CCc1ccc(Br)cc1 (3D coordinates assigned)
CCNCCOCC[NH2+]CCc1ccc(Br)cc1 (optimized conformer: 33.24729332489966 kcal/mol)

>  <smiles>  (25) 
CCNCCOCCNCCc1ccc(Br)cc1

>  <score_type>  (25) 
oracle

>  <origin>  (25) 
adg

>  <m_score__min__energy>  (25) 
-4.6100000000000003

>  <m_primary>  (25) 
energy

$$$$
