0:0
     RDKit          3D

 45 47  0  0  0  0  0  0  0  0999 V2000
   56.4070   22.7710   44.1520 C   0  0  0  0  0  0  0  0  0  0  0  0
   55.6310   24.0630   44.3860 C   0  0  0  0  0  0  0  0  0  0  0  0
   55.9800   24.7760   45.9950 S   0  0  0  0  0  0  0  0  0  0  0  0
   55.2500   24.0230   47.0740 O   0  0  0  0  0  0  0  0  0  0  0  0
   55.4880   26.1970   45.9810 O   0  0  0  0  0  0  0  0  0  0  0  0
   57.6990   24.7700   46.3210 N   0  0  0  0  0  0  0  0  0  0  0  0
   57.9900   25.6190   47.4980 C   0  0  0  0  0  0  0  0  0  0  0  0
   57.8730   27.1330   47.2280 C   0  0  0  0  0  0  0  0  0  0  0  0
   58.7210   27.6380   46.0420 C   0  0  0  0  0  0  0  0  0  0  0  0
   58.0140   27.6150   44.7350 N   0  0  0  0  0  0  0  0  0  0  0  0
   56.8190   28.4860   44.7660 C   0  0  0  0  0  0  0  0  0  0  0  0
   57.1790   29.8980   44.4110 C   0  0  0  0  0  0  0  0  0  0  0  0
   57.0920   30.3970   43.1140 C   0  0  0  0  0  0  0  0  0  0  0  0
   57.6340   31.9870   43.1410 S   0  0  0  0  0  0  0  0  0  0  0  0
   57.9590   31.9720   44.7930 C   0  0  0  0  0  0  0  0  0  0  0  0
   58.5020   33.1080   45.5560 C   0  0  0  0  0  0  0  0  0  0  0  0
   58.4160   33.1520   46.9560 C   0  0  0  0  0  0  0  0  0  0  0  0
   58.9300   34.2180   47.6250 N   0  0  0  0  0  0  0  0  0  0  0  0
   59.5260   35.2440   46.9640 C   0  0  0  0  0  0  0  0  0  0  0  0
   59.6140   35.2040   45.5720 C   0  0  0  0  0  0  0  0  0  0  0  0
   59.1000   34.1400   44.9010 N   0  0  0  0  0  0  0  0  0  0  0  0
   57.6640   30.7700   45.3360 N   0  0  0  0  0  0  0  0  0  0  0  0
   57.6580   26.2420   44.3070 C   0  0  0  0  0  0  0  0  0  0  0  0
   58.4470   25.1870   45.1170 C   0  0  0  0  0  0  0  0  0  0  0  0
   56.6755   22.3240   45.1206 H   0  0  0  0  0  0  0  0  0  0  0  0
   55.7827   22.0662   43.5833 H   0  0  0  0  0  0  0  0  0  0  0  0
   57.3225   22.9910   43.5833 H   0  0  0  0  0  0  0  0  0  0  0  0
   55.9084   24.7895   43.6081 H   0  0  0  0  0  0  0  0  0  0  0  0
   54.5576   23.8262   44.3454 H   0  0  0  0  0  0  0  0  0  0  0  0
   57.2821   25.3552   48.2975 H   0  0  0  0  0  0  0  0  0  0  0  0
   59.0368   25.4268   47.7762 H   0  0  0  0  0  0  0  0  0  0  0  0
   56.8180   27.3644   47.0194 H   0  0  0  0  0  0  0  0  0  0  0  0
   58.2552   27.6416   48.1253 H   0  0  0  0  0  0  0  0  0  0  0  0
   59.0251   28.6741   46.2517 H   0  0  0  0  0  0  0  0  0  0  0  0
   59.5770   26.9532   45.9508 H   0  0  0  0  0  0  0  0  0  0  0  0
   56.0799   28.1098   44.0434 H   0  0  0  0  0  0  0  0  0  0  0  0
   56.4007   28.4742   45.7833 H   0  0  0  0  0  0  0  0  0  0  0  0
   56.7330   29.8487   42.2305 H   0  0  0  0  0  0  0  0  0  0  0  0
   57.9363   32.3302   47.5079 H   0  0  0  0  0  0  0  0  0  0  0  0
   59.9358   36.0992   47.5213 H   0  0  0  0  0  0  0  0  0  0  0  0
   60.0952   36.0266   45.0226 H   0  0  0  0  0  0  0  0  0  0  0  0
   56.5808   26.0842   44.4640 H   0  0  0  0  0  0  0  0  0  0  0  0
   57.9129   26.1294   43.2429 H   0  0  0  0  0  0  0  0  0  0  0  0
   58.6250   24.3065   44.4821 H   0  0  0  0  0  0  0  0  0  0  0  0
   59.4002   25.6337   45.4360 H   0  0  0  0  0  0  0  0  0  0  0  0
  1  2  1  0
  2  3  1  0
  3  4  2  0
  3  5  2  0
  3  6  1  0
  6  7  1  0
  7  8  1  0
  8  9  1  0
  9 10  1  0
 10 11  1  0
 11 12  1  0
 12 13  2  0
 13 14  1  0
 14 15  1  0
 15 16  1  0
 16 17  2  0
 17 18  1  0
 18 19  2  0
 19 20  1  0
 20 21  2  0
 15 22  2  0
 10 23  1  0
 23 24  1  0
 24  6  1  0
 22 12  1  0
 21 16  1  0
  1 25  1  0
  1 26  1  0
  1 27  1  0
  2 28  1  0
  2 29  1  0
  7 30  1  0
  7 31  1  0
  8 32  1  0
  8 33  1  0
  9 34  1  0
  9 35  1  0
 11 36  1  0
 11 37  1  0
 13 38  1  0
 17 39  1  0
 19 40  1  0
 20 41  1  0
 23 42  1  0
 23 43  1  0
 24 44  1  0
 24 45  1  0
M  END
>  <UniqueID>  (1) 
1

>  <SMILES>  (1) 
CCS(=O)(=O)N1CCCN(Cc2csc(-c3cnccn3)n2)CC1

>  <Energy>  (1) 
82.44338622611463

>  <Genealogy>  (1) 
CCS(=O)(=O)N1CCCN(Cc2csc(-c3cnccn3)n2)CC1 (3D coordinates assigned)
CCS(=O)(=O)N1CCCN(Cc2csc(-c3cnccn3)n2)CC1 (nonaromatic ring conformer: 82.44338622611463 kcal/mol)

>  <smiles>  (1) 
CCS(=O)(=O)N1CCCN(Cc2csc(-c3cnccn3)n2)CC1

>  <score_type>  (1) 
oracle

>  <origin>  (1) 
adg

>  <m_score__min__energy>  (1) 
-6.6900000000000004

>  <m_primary>  (1) 
energy

$$$$
1:0
     RDKit          3D

 64 67  0  0  0  0  0  0  0  0999 V2000
   62.6300   31.3770   47.3860 C   0  0  0  0  0  0  0  0  0  0  0  0
   62.6260   31.2340   48.9120 C   0  0  0  0  0  0  0  0  0  0  0  0
   62.6610   32.5490   49.5950 N   0  0  0  0  0  0  0  0  0  0  0  0
   63.8180   32.6330   50.5270 C   0  0  0  0  0  0  0  0  0  0  0  0
   65.1140   32.6580   49.7280 C   0  0  0  0  0  0  0  0  0  0  0  0
   62.7090   33.6270   48.5770 C   0  0  0  0  0  0  0  0  0  0  0  0
   61.3120   34.2110   48.2480 C   0  0  0  0  0  0  0  0  0  0  0  0
   60.2090   33.5880   49.0130 N   0  0  0  0  0  0  0  0  0  0  0  0
   59.4610   32.6100   48.2320 C   0  0  0  0  0  0  0  0  0  0  0  0
   58.9640   32.9510   46.9290 C   0  0  0  0  0  0  0  0  0  0  0  0
   58.7810   34.2920   46.5260 C   0  0  0  0  0  0  0  0  0  0  0  0
   58.2390   34.5940   45.2770 C   0  0  0  0  0  0  0  0  0  0  0  0
   57.8320   33.5710   44.4250 C   0  0  0  0  0  0  0  0  0  0  0  0
   57.9860   32.2400   44.8040 C   0  0  0  0  0  0  0  0  0  0  0  0
   58.5910   31.9120   46.0330 C   0  0  0  0  0  0  0  0  0  0  0  0
   58.7520   30.6280   46.4540 N   0  0  0  0  0  0  0  0  0  0  0  0
   58.6600   29.4130   45.8570 C   0  0  0  0  0  0  0  0  0  0  0  0
   58.6880   29.1020   44.4900 C   0  0  0  0  0  0  0  0  0  0  0  0
   58.6650   27.7520   44.1100 C   0  0  0  0  0  0  0  0  0  0  0  0
   58.6560   26.7330   45.0810 C   0  0  0  0  0  0  0  0  0  0  0  0
   58.6930   27.0490   46.4520 C   0  0  0  0  0  0  0  0  0  0  0  0
   58.7790   25.9660   47.4880 C   0  0  0  0  0  0  0  0  0  0  0  0
   58.7210   28.4060   46.8070 C   0  0  0  0  0  0  0  0  0  0  0  0
   58.9020   28.9750   48.0580 C   0  0  0  0  0  0  0  0  0  0  0  0
   58.9600   30.3440   47.8260 C   0  0  0  0  0  0  0  0  0  0  0  0
   59.2570   31.3310   48.7210 N   0  0  0  0  0  0  0  0  0  0  0  0
   59.2390   31.0280   50.1680 C   0  0  0  0  0  0  0  0  0  0  0  0
   58.2960   31.9600   50.9460 C   0  0  0  0  0  0  0  0  0  0  0  0
   58.8770   33.2400   51.1100 O   0  0  0  0  0  0  0  0  0  0  0  0
   58.5640   33.7640   52.3820 C   0  0  0  0  0  0  0  0  0  0  0  0
   62.6598   32.4434   47.1177 H   0  0  0  0  0  0  0  0  0  0  0  0
   63.5143   30.8700   46.9725 H   0  0  0  0  0  0  0  0  0  0  0  0
   61.7187   30.9203   46.9725 H   0  0  0  0  0  0  0  0  0  0  0  0
   61.7133   30.7006   49.2159 H   0  0  0  0  0  0  0  0  0  0  0  0
   63.5290   30.6771   49.2025 H   0  0  0  0  0  0  0  0  0  0  0  0
   63.7395   33.5517   51.1268 H   0  0  0  0  0  0  0  0  0  0  0  0
   63.8156   31.7580   51.1936 H   0  0  0  0  0  0  0  0  0  0  0  0
   65.9702   32.6745   50.4185 H   0  0  0  0  0  0  0  0  0  0  0  0
   65.1714   31.7608   49.0942 H   0  0  0  0  0  0  0  0  0  0  0  0
   65.1367   33.5568   49.0942 H   0  0  0  0  0  0  0  0  0  0  0  0
   63.3480   34.4385   48.9555 H   0  0  0  0  0  0  0  0  0  0  0  0
   63.1087   33.1879   47.6510 H   0  0  0  0  0  0  0  0  0  0  0  0
   61.3247   35.2878   48.4723 H   0  0  0  0  0  0  0  0  0  0  0  0
   61.1208   34.0047   47.1846 H   0  0  0  0  0  0  0  0  0  0  0  0
   59.5540   34.3300   49.3530 H   0  0  0  0  0  0  0  0  0  0  0  0
   60.6380   33.1740   49.8640 H   0  0  0  0  0  0  0  0  0  0  0  0
   59.0693   35.1079   47.2051 H   0  0  0  0  0  0  0  0  0  0  0  0
   58.1328   35.6432   44.9643 H   0  0  0  0  0  0  0  0  0  0  0  0
   57.3872   33.8150   43.4490 H   0  0  0  0  0  0  0  0  0  0  0  0
   57.6325   31.4386   44.1386 H   0  0  0  0  0  0  0  0  0  0  0  0
   58.7271   29.8988   43.7327 H   0  0  0  0  0  0  0  0  0  0  0  0
   58.6539   27.4870   43.0425 H   0  0  0  0  0  0  0  0  0  0  0  0
   58.6197   25.6799   44.7654 H   0  0  0  0  0  0  0  0  0  0  0  0
   58.7433   26.4149   48.4916 H   0  0  0  0  0  0  0  0  0  0  0  0
   57.9330   25.2736   47.3658 H   0  0  0  0  0  0  0  0  0  0  0  0
   59.7237   25.4158   47.3658 H   0  0  0  0  0  0  0  0  0  0  0  0
   58.9823   28.4557   49.0244 H   0  0  0  0  0  0  0  0  0  0  0  0
   58.9051   29.9893   50.3081 H   0  0  0  0  0  0  0  0  0  0  0  0
   60.2572   31.1777   50.5565 H   0  0  0  0  0  0  0  0  0  0  0  0
   57.3511   32.0612   50.3920 H   0  0  0  0  0  0  0  0  0  0  0  0
   58.1126   31.5261   51.9400 H   0  0  0  0  0  0  0  0  0  0  0  0
   58.9621   33.0975   53.1612 H   0  0  0  0  0  0  0  0  0  0  0  0
   59.0140   34.7621   52.4882 H   0  0  0  0  0  0  0  0  0  0  0  0
   57.4719   33.8410   52.4882 H   0  0  0  0  0  0  0  0  0  0  0  0
  1  2  1  0
  2  3  1  0
  3  4  1  0
  4  5  1  0
  3  6  1  0
  6  7  1  0
  7  8  1  0
  8  9  1  0
  9 10  2  0
 10 11  1  0
 11 12  2  0
 12 13  1  0
 13 14  2  0
 14 15  1  0
 15 16  2  0
 16 17  1  0
 17 18  2  0
 18 19  1  0
 19 20  2  0
 20 21  1  0
 21 22  1  0
 21 23  2  0
 23 24  1  0
 24 25  2  0
 25 26  1  0
 26 27  1  0
 27 28  1  0
 28 29  1  0
 29 30  1  0
 26  9  1  0
 15 10  1  0
 25 16  1  0
 23 17  1  0
  1 31  1  0
  1 32  1  0
  1 33  1  0
  2 34  1  0
  2 35  1  0
  4 36  1  0
  4 37  1  0
  5 38  1  0
  5 39  1  0
  5 40  1  0
  6 41  1  0
  6 42  1  0
  7 43  1  0
  7 44  1  0
  8 45  1  0
  8 46  1  0
 11 47  1  0
 12 48  1  0
 13 49  1  0
 14 50  1  0
 18 51  1  0
 19 52  1  0
 20 53  1  0
 22 54  1  0
 22 55  1  0
 22 56  1  0
 24 57  1  0
 27 58  1  0
 27 59  1  0
 28 60  1  0
 28 61  1  0
 30 62  1  0
 30 63  1  0
 30 64  1  0
M  CHG  2   8   1  16   1
M  END
>  <UniqueID>  (2) 
2

>  <SMILES>  (2) 
CCN(CC)CC[NH2+]c1c2ccccc2[n+]2c3cccc(C)c3cc-2n1CCOC

>  <Energy>  (2) 
133.92638381647615

>  <Genealogy>  (2) 
CCN(CC)CC[NH2+]c1c2ccccc2[n+]2c3cccc(C)c3cc-2n1CCOC (protonated)
CCN(CC)CC[NH2+]c1c2ccccc2[n+]2c3cccc(C)c3cc-2n1CCOC (3D coordinates assigned)
CCN(CC)CC[NH2+]c1c2ccccc2[n+]2c3cccc(C)c3cc-2n1CCOC (optimized conformer: 133.92638381647615 kcal/mol)

>  <smiles>  (2) 
CCN(CC)CCNc1c2ccccc2[n+]2c3cccc(C)c3cc-2n1CCOC

>  <score_type>  (2) 
oracle

>  <origin>  (2) 
adg

>  <m_score__min__energy>  (2) 
-4.21

>  <m_primary>  (2) 
energy

$$$$
2:0
     RDKit          3D

 47 49  0  0  0  0  0  0  0  0999 V2000
   58.8940   36.3160   54.6470 C   0  0  0  0  0  0  0  0  0  0  0  0
   59.1510   35.0220   53.8760 C   0  0  0  0  0  0  0  0  0  0  0  0
   58.3300   34.9670   52.6540 N   0  0  0  0  0  0  0  0  0  0  0  0
   57.7710   33.6230   52.4140 C   0  0  0  0  0  0  0  0  0  0  0  0
   58.5220   32.8440   51.3260 C   0  0  0  0  0  0  0  0  0  0  0  0
   59.2530   33.7400   50.4930 O   0  0  0  0  0  0  0  0  0  0  0  0
   59.7220   33.4260   49.2090 C   0  0  0  0  0  0  0  0  0  0  0  0
   60.8250   34.1330   48.7140 C   0  0  0  0  0  0  0  0  0  0  0  0
   61.3300   33.8570   47.4400 C   0  0  0  0  0  0  0  0  0  0  0  0
   60.7360   32.8720   46.6490 C   0  0  0  0  0  0  0  0  0  0  0  0
   59.6290   32.1570   47.1280 C   0  0  0  0  0  0  0  0  0  0  0  0
   59.0010   31.1070   46.2900 C   0  0  0  0  0  0  0  0  0  0  0  0
   58.1410   31.4730   45.2300 C   0  0  0  0  0  0  0  0  0  0  0  0
   57.8720   32.8680   44.9490 C   0  0  0  0  0  0  0  0  0  0  0  0
   57.6550   33.9830   44.7240 N   0  0  0  0  0  0  0  0  0  0  0  0
   57.5630   30.4670   44.4290 C   0  0  0  0  0  0  0  0  0  0  0  0
   56.6480   30.8000   43.2850 C   0  0  0  0  0  0  0  0  0  0  0  0
   57.8390   29.1620   44.6810 N   0  0  0  0  0  0  0  0  0  0  0  0
   58.6560   28.7710   45.6900 C   0  0  0  0  0  0  0  0  0  0  0  0
   58.8920   27.4060   45.8960 C   0  0  0  0  0  0  0  0  0  0  0  0
   59.7210   26.9870   46.9380 C   0  0  0  0  0  0  0  0  0  0  0  0
   60.3150   27.9270   47.7820 C   0  0  0  0  0  0  0  0  0  0  0  0
   60.0880   29.2920   47.5850 C   0  0  0  0  0  0  0  0  0  0  0  0
   59.2600   29.7350   46.5300 C   0  0  0  0  0  0  0  0  0  0  0  0
   59.1250   32.4320   48.4090 C   0  0  0  0  0  0  0  0  0  0  0  0
   58.9343   36.1132   55.7274 H   0  0  0  0  0  0  0  0  0  0  0  0
   59.6623   37.0581   54.3843 H   0  0  0  0  0  0  0  0  0  0  0  0
   57.9004   36.7082   54.3843 H   0  0  0  0  0  0  0  0  0  0  0  0
   60.2142   34.9733   53.5982 H   0  0  0  0  0  0  0  0  0  0  0  0
   58.8827   34.1705   54.5186 H   0  0  0  0  0  0  0  0  0  0  0  0
   57.5250   35.6290   52.7610 H   0  0  0  0  0  0  0  0  0  0  0  0
   58.8960   35.2770   51.8310 H   0  0  0  0  0  0  0  0  0  0  0  0
   57.8208   33.0505   53.3520 H   0  0  0  0  0  0  0  0  0  0  0  0
   56.7357   33.7557   52.0669 H   0  0  0  0  0  0  0  0  0  0  0  0
   59.2198   32.1385   51.8007 H   0  0  0  0  0  0  0  0  0  0  0  0
   57.7936   32.2959   50.7103 H   0  0  0  0  0  0  0  0  0  0  0  0
   61.2972   34.9109   49.3320 H   0  0  0  0  0  0  0  0  0  0  0  0
   62.1972   34.4171   47.0601 H   0  0  0  0  0  0  0  0  0  0  0  0
   61.1372   32.6563   45.6478 H   0  0  0  0  0  0  0  0  0  0  0  0
   55.6825   31.1514   43.6780 H   0  0  0  0  0  0  0  0  0  0  0  0
   57.1029   31.5902   42.6697 H   0  0  0  0  0  0  0  0  0  0  0  0
   56.4886   29.9022   42.6697 H   0  0  0  0  0  0  0  0  0  0  0  0
   58.4230   26.6622   45.2351 H   0  0  0  0  0  0  0  0  0  0  0  0
   59.9066   25.9141   47.0944 H   0  0  0  0  0  0  0  0  0  0  0  0
   60.9638   27.5923   48.6048 H   0  0  0  0  0  0  0  0  0  0  0  0
   60.5574   30.0263   48.2562 H   0  0  0  0  0  0  0  0  0  0  0  0
   58.2602   31.8689   48.7897 H   0  0  0  0  0  0  0  0  0  0  0  0
  1  2  1  0
  2  3  1  0
  3  4  1  0
  4  5  1  0
  5  6  1  0
  6  7  1  0
  7  8  2  0
  8  9  1  0
  9 10  2  0
 10 11  1  0
 11 12  1  0
 12 13  2  0
 13 14  1  0
 14 15  3  0
 13 16  1  0
 16 17  1  0
 16 18  2  0
 18 19  1  0
 19 20  2  0
 20 21  1  0
 21 22  2  0
 22 23  1  0
 23 24  2  0
 11 25  2  0
 25  7  1  0
 24 12  1  0
 24 19  1  0
  1 26  1  0
  1 27  1  0
  1 28  1  0
  2 29  1  0
  2 30  1  0
  3 31  1  0
  3 32  1  0
  4 33  1  0
  4 34  1  0
  5 35  1  0
  5 36  1  0
  8 37  1  0
  9 38  1  0
 10 39  1  0
 17 40  1  0
 17 41  1  0
 17 42  1  0
 20 43  1  0
 21 44  1  0
 22 45  1  0
 23 46  1  0
 25 47  1  0
M  CHG  1   3   1
M  END
>  <UniqueID>  (3) 
3

>  <SMILES>  (3) 
CC[NH2+]CCOc1cccc(-c2c(C#N)c(C)nc3ccccc23)c1

>  <Energy>  (3) 
57.121242267445844

>  <Genealogy>  (3) 
CC[NH2+]CCOc1cccc(-c2c(C#N)c(C)nc3ccccc23)c1 (protonated)
CC[NH2+]CCOc1cccc(-c2c(C#N)c(C)nc3ccccc23)c1 (3D coordinates assigned)
CC[NH2+]CCOc1cccc(-c2c(C#N)c(C)nc3ccccc23)c1 (optimized conformer: 57.121242267445844 kcal/mol)

>  <smiles>  (3) 
CCNCCOc1cccc(-c2c(C#N)c(C)nc3ccccc23)c1

>  <score_type>  (3) 
oracle

>  <origin>  (3) 
adg

>  <m_score__min__energy>  (3) 
-6.2300000000000004

>  <m_primary>  (3) 
energy

$$$$
3:0
     RDKit          3D

 60 62  0  0  0  0  0  0  0  0999 V2000
   57.7610   31.8940   43.0310 C   0  0  0  0  0  0  0  0  0  0  0  0
   57.1900   31.8870   44.4490 C   0  0  0  0  0  0  0  0  0  0  0  0
   56.7610   30.5300   44.8580 N   0  0  0  0  0  0  0  0  0  0  0  0
   55.8940   29.9470   43.8170 C   0  0  0  0  0  0  0  0  0  0  0  0
   57.9120   29.6340   45.1490 C   0  0  0  0  0  0  0  0  0  0  0  0
   59.0510   30.4320   45.7960 C   0  0  0  0  0  0  0  0  0  0  0  0
   60.2730   29.5520   46.1310 C   0  0  0  0  0  0  0  0  0  0  0  0
   60.6650   29.7370   47.5360 N   0  0  0  0  0  0  0  0  0  0  0  0
   59.7370   29.0350   48.4340 C   0  0  0  0  0  0  0  0  0  0  0  0
   59.8690   29.5860   49.8550 C   0  0  0  0  0  0  0  0  0  0  0  0
   58.8880   30.7410   50.0860 C   0  0  0  0  0  0  0  0  0  0  0  0
   59.5950   32.0150   50.2290 N   0  0  0  0  0  0  0  0  0  0  0  0
   60.5230   32.4900   49.2370 C   0  0  0  0  0  0  0  0  0  0  0  0
   60.0420   33.1370   48.0840 C   0  0  0  0  0  0  0  0  0  0  0  0
   58.6550   33.2770   47.8630 C   0  0  0  0  0  0  0  0  0  0  0  0
   58.1770   33.9720   46.7550 C   0  0  0  0  0  0  0  0  0  0  0  0
   59.0690   34.5500   45.8590 C   0  0  0  0  0  0  0  0  0  0  0  0
   60.4450   34.4170   46.0500 C   0  0  0  0  0  0  0  0  0  0  0  0
   60.9640   33.6790   47.1460 C   0  0  0  0  0  0  0  0  0  0  0  0
   62.3250   33.5030   47.3250 N   0  0  0  0  0  0  0  0  0  0  0  0
   63.2610   33.8310   46.2250 C   0  0  0  0  0  0  0  0  0  0  0  0
   62.8060   32.9790   48.5110 C   0  0  0  0  0  0  0  0  0  0  0  0
   64.1870   33.0070   48.8350 C   0  0  0  0  0  0  0  0  0  0  0  0
   64.6690   32.3820   49.9860 C   0  0  0  0  0  0  0  0  0  0  0  0
   66.3850   32.4210   50.3540 Cl  0  0  0  0  0  0  0  0  0  0  0  0
   63.7940   31.7140   50.8380 C   0  0  0  0  0  0  0  0  0  0  0  0
   62.4260   31.7200   50.5750 C   0  0  0  0  0  0  0  0  0  0  0  0
   61.9100   32.3970   49.4500 C   0  0  0  0  0  0  0  0  0  0  0  0
   58.8599   31.9075   43.0783 H   0  0  0  0  0  0  0  0  0  0  0  0
   57.4280   30.9917   42.4972 H   0  0  0  0  0  0  0  0  0  0  0  0
   57.4060   32.7879   42.4972 H   0  0  0  0  0  0  0  0  0  0  0  0
   57.9627   32.2424   45.1466 H   0  0  0  0  0  0  0  0  0  0  0  0
   56.3096   32.5462   44.4683 H   0  0  0  0  0  0  0  0  0  0  0  0
   55.0710   29.3936   44.2929 H   0  0  0  0  0  0  0  0  0  0  0  0
   55.4810   30.7516   43.1909 H   0  0  0  0  0  0  0  0  0  0  0  0
   56.4833   29.2610   43.1909 H   0  0  0  0  0  0  0  0  0  0  0  0
   57.5890   28.8384   45.8365 H   0  0  0  0  0  0  0  0  0  0  0  0
   58.2713   29.1924   44.2078 H   0  0  0  0  0  0  0  0  0  0  0  0
   59.3665   31.2237   45.1005 H   0  0  0  0  0  0  0  0  0  0  0  0
   58.6717   30.8504   46.7399 H   0  0  0  0  0  0  0  0  0  0  0  0
   60.0169   28.4957   45.9618 H   0  0  0  0  0  0  0  0  0  0  0  0
   61.1129   29.8444   45.4836 H   0  0  0  0  0  0  0  0  0  0  0  0
   61.6140   29.3130   47.6660 H   0  0  0  0  0  0  0  0  0  0  0  0
   58.7059   29.1822   48.0802 H   0  0  0  0  0  0  0  0  0  0  0  0
   59.9796   27.9621   48.4381 H   0  0  0  0  0  0  0  0  0  0  0  0
   59.6549   28.7820   50.5746 H   0  0  0  0  0  0  0  0  0  0  0  0
   60.8936   29.9616   49.9930 H   0  0  0  0  0  0  0  0  0  0  0  0
   58.2016   30.8057   49.2289 H   0  0  0  0  0  0  0  0  0  0  0  0
   58.3315   30.5452   51.0144 H   0  0  0  0  0  0  0  0  0  0  0  0
   59.5100   32.5400   51.1290 H   0  0  0  0  0  0  0  0  0  0  0  0
   57.9435   32.8320   48.5741 H   0  0  0  0  0  0  0  0  0  0  0  0
   57.0935   34.0637   46.5887 H   0  0  0  0  0  0  0  0  0  0  0  0
   58.6884   35.1149   44.9953 H   0  0  0  0  0  0  0  0  0  0  0  0
   61.1384   34.8915   45.3401 H   0  0  0  0  0  0  0  0  0  0  0  0
   64.2196   34.1669   46.6472 H   0  0  0  0  0  0  0  0  0  0  0  0
   63.4263   32.9372   45.6054 H   0  0  0  0  0  0  0  0  0  0  0  0
   62.8322   34.6324   45.6054 H   0  0  0  0  0  0  0  0  0  0  0  0
   64.8889   33.5296   48.1685 H   0  0  0  0  0  0  0  0  0  0  0  0
   64.1826   31.1816   51.7186 H   0  0  0  0  0  0  0  0  0  0  0  0
   61.7400   31.1906   51.2526 H   0  0  0  0  0  0  0  0  0  0  0  0
  1  2  1  0
  2  3  1  0
  3  4  1  0
  3  5  1  0
  5  6  1  0
  6  7  1  0
  7  8  1  0
  8  9  1  0
  9 10  1  0
 10 11  1  0
 11 12  1  0
 12 13  1  0
 13 14  2  0
 14 15  1  0
 15 16  2  0
 16 17  1  0
 17 18  2  0
 18 19  1  0
 19 20  2  0
 20 21  1  0
 20 22  1  0
 22 23  2  0
 23 24  1  0
 24 25  1  0
 24 26  2  0
 26 27  1  0
 27 28  2  0
 28 13  1  0
 19 14  1  0
 28 22  1  0
  1 29  1  0
  1 30  1  0
  1 31  1  0
  2 32  1  0
  2 33  1  0
  4 34  1  0
  4 35  1  0
  4 36  1  0
  5 37  1  0
  5 38  1  0
  6 39  1  0
  6 40  1  0
  7 41  1  0
  7 42  1  0
  8 43  1  0
  9 44  1  0
  9 45  1  0
 10 46  1  0
 10 47  1  0
 11 48  1  0
 11 49  1  0
 12 50  1  0
 15 51  1  0
 16 52  1  0
 17 53  1  0
 18 54  1  0
 21 55  1  0
 21 56  1  0
 21 57  1  0
 23 58  1  0
 26 59  1  0
 27 60  1  0
M  CHG  1  20   1
M  END
>  <UniqueID>  (4) 
4

>  <SMILES>  (4) 
CCN(C)CCCNCCCNc1c2ccccc2[n+](C)c2cc(Cl)ccc12

>  <Energy>  (4) 
81.31774026931953

>  <Genealogy>  (4) 
CCN(C)CCCNCCCNc1c2ccccc2[n+](C)c2cc(Cl)ccc12 (3D coordinates assigned)
CCN(C)CCCNCCCNc1c2ccccc2[n+](C)c2cc(Cl)ccc12 (optimized conformer: 81.31774026931953 kcal/mol)

>  <smiles>  (4) 
CCN(C)CCCNCCCNc1c2ccccc2[n+](C)c2cc(Cl)ccc12

>  <score_type>  (4) 
oracle

>  <origin>  (4) 
adg

>  <m_score__min__energy>  (4) 
-6.29

>  <m_primary>  (4) 
energy

$$$$
4:0
     RDKit          3D

 32 32  0  0  0  0  0  0  0  0999 V2000
   57.7550   27.6980   44.3440 C   0  0  0  0  0  0  0  0  0  0  0  0
   57.0100   28.1930   45.5810 C   0  0  0  0  0  0  0  0  0  0  0  0
   58.0010   28.5570   46.6920 C   0  0  0  0  0  0  0  0  0  0  0  0
   56.2110   29.3630   45.2180 N   0  0  0  0  0  0  0  0  0  0  0  0
   56.4700   30.2740   44.1390 C   0  0  0  0  0  0  0  0  0  0  0  0
   55.8790   30.0900   43.0430 O   0  0  0  0  0  0  0  0  0  0  0  0
   57.3940   31.4630   44.2750 C   0  0  0  0  0  0  0  0  0  0  0  0
   57.5740   31.8620   45.6950 N   0  0  0  0  0  0  0  0  0  0  0  0
   58.9910   31.7840   46.1450 C   0  0  0  0  0  0  0  0  0  0  0  0
   59.7590   33.1160   45.9960 C   0  0  0  0  0  0  0  0  0  0  0  0
   59.1810   33.9240   44.9230 N   0  0  0  0  0  0  0  0  0  0  0  0
   57.8050   34.3290   45.2490 C   0  0  0  0  0  0  0  0  0  0  0  0
   57.0070   33.2060   45.9510 C   0  0  0  0  0  0  0  0  0  0  0  0
   58.6339   27.1140   44.6546 H   0  0  0  0  0  0  0  0  0  0  0  0
   57.0869   27.0636   43.7430 H   0  0  0  0  0  0  0  0  0  0  0  0
   58.0810   28.5597   43.7430 H   0  0  0  0  0  0  0  0  0  0  0  0
   56.3516   27.3948   45.9544 H   0  0  0  0  0  0  0  0  0  0  0  0
   57.5324   28.3849   47.6722 H   0  0  0  0  0  0  0  0  0  0  0  0
   58.9006   27.9306   46.6006 H   0  0  0  0  0  0  0  0  0  0  0  0
   58.2813   29.6168   46.6006 H   0  0  0  0  0  0  0  0  0  0  0  0
   58.3750   31.2019   43.8514 H   0  0  0  0  0  0  0  0  0  0  0  0
   56.9435   32.3097   43.7363 H   0  0  0  0  0  0  0  0  0  0  0  0
   57.0190   31.1940   46.2830 H   0  0  0  0  0  0  0  0  0  0  0  0
   59.0040   31.4913   47.2053 H   0  0  0  0  0  0  0  0  0  0  0  0
   59.4944   31.0466   45.5025 H   0  0  0  0  0  0  0  0  0  0  0  0
   59.7007   33.6751   46.9415 H   0  0  0  0  0  0  0  0  0  0  0  0
   60.8081   32.8957   45.7494 H   0  0  0  0  0  0  0  0  0  0  0  0
   59.7600   34.7890   44.8160 H   0  0  0  0  0  0  0  0  0  0  0  0
   57.8433   35.2036   45.9150 H   0  0  0  0  0  0  0  0  0  0  0  0
   57.2927   34.5620   44.3039 H   0  0  0  0  0  0  0  0  0  0  0  0
   57.0157   33.3919   47.0351 H   0  0  0  0  0  0  0  0  0  0  0  0
   55.9842   33.2198   45.5464 H   0  0  0  0  0  0  0  0  0  0  0  0
  1  2  1  0
  2  3  1  0
  2  4  1  0
  4  5  1  0
  5  6  2  0
  5  7  1  0
  7  8  1  0
  8  9  1  0
  9 10  1  0
 10 11  1  0
 11 12  1  0
 12 13  1  0
 13  8  1  0
  1 14  1  0
  1 15  1  0
  1 16  1  0
  2 17  1  0
  3 18  1  0
  3 19  1  0
  3 20  1  0
  7 21  1  0
  7 22  1  0
  8 23  1  0
  9 24  1  0
  9 25  1  0
 10 26  1  0
 10 27  1  0
 11 28  1  0
 12 29  1  0
 12 30  1  0
 13 31  1  0
 13 32  1  0
M  CHG  2   4  -1   8   1
M  END
>  <UniqueID>  (5) 
5

>  <SMILES>  (5) 
CC(C)[N-]C(=O)C[NH+]1CCNCC1

>  <Energy>  (5) 
33.02675143877017

>  <Genealogy>  (5) 
CC(C)[N-]C(=O)C[NH+]1CCNCC1 (protonated)
CC(C)[N-]C(=O)C[NH+]1CCNCC1 (3D coordinates assigned)
CC(C)[N-]C(=O)C[NH+]1CCNCC1 (nonaromatic ring conformer: 33.02675143877017 kcal/mol)

>  <smiles>  (5) 
CC(C)NC(=O)CN1CCNCC1

>  <score_type>  (5) 
oracle

>  <origin>  (5) 
adg

>  <m_score__min__energy>  (5) 
-5.1500000000000004

>  <m_primary>  (5) 
energy

$$$$
5:0
     RDKit          3D

 61 64  0  0  0  0  0  0  0  0999 V2000
   57.1050   33.2790   45.4460 C   0  0  0  0  0  0  0  0  0  0  0  0
   57.4130   32.1030   44.5140 C   0  0  0  0  0  0  0  0  0  0  0  0
   56.5650   30.9310   44.7810 N   0  0  0  0  0  0  0  0  0  0  0  0
   57.2120   29.6740   44.3830 C   0  0  0  0  0  0  0  0  0  0  0  0
   58.6720   29.6770   44.8450 C   0  0  0  0  0  0  0  0  0  0  0  0
   58.7660   29.4520   46.2930 N   0  0  0  0  0  0  0  0  0  0  0  0
   58.5470   28.3030   46.9900 C   0  0  0  0  0  0  0  0  0  0  0  0
   58.0930   27.0210   46.4080 C   0  0  0  0  0  0  0  0  0  0  0  0
   59.0080   26.0920   45.8990 C   0  0  0  0  0  0  0  0  0  0  0  0
   58.5600   24.8950   45.3390 C   0  0  0  0  0  0  0  0  0  0  0  0
   57.1890   24.6070   45.2650 C   0  0  0  0  0  0  0  0  0  0  0  0
   56.7540   23.3570   44.6960 N   0  0  0  0  0  0  0  0  0  0  0  0
   56.3710   23.1360   43.4200 C   0  0  0  0  0  0  0  0  0  0  0  0
   56.0690   21.8410   43.1830 N   0  0  0  0  0  0  0  0  0  0  0  0
   56.2700   21.2380   44.3720 C   0  0  0  0  0  0  0  0  0  0  0  0
   56.1430   19.7680   44.5910 C   0  0  0  0  0  0  0  0  0  0  0  0
   56.7070   22.1560   45.2990 C   0  0  0  0  0  0  0  0  0  0  0  0
   56.2550   25.5540   45.7360 C   0  0  0  0  0  0  0  0  0  0  0  0
   54.8830   25.2850   45.6040 O   0  0  0  0  0  0  0  0  0  0  0  0
   54.2540   24.0670   45.9890 C   0  0  0  0  0  0  0  0  0  0  0  0
   56.7190   26.7570   46.3060 C   0  0  0  0  0  0  0  0  0  0  0  0
   58.8560   28.4170   48.3040 N   0  0  0  0  0  0  0  0  0  0  0  0
   59.2790   29.6890   48.4200 C   0  0  0  0  0  0  0  0  0  0  0  0
   59.2250   30.3210   47.2150 C   0  0  0  0  0  0  0  0  0  0  0  0
   59.6640   31.7400   47.0030 C   0  0  0  0  0  0  0  0  0  0  0  0
   60.2670   32.3230   48.2230 N   0  0  0  0  0  0  0  0  0  0  0  0
   60.6090   33.7270   48.1920 C   0  0  0  0  0  0  0  0  0  0  0  0
   62.0300   34.2020   48.2700 C   0  0  0  0  0  0  0  0  0  0  0  0
   59.6960   34.5940   48.1070 O   0  0  0  0  0  0  0  0  0  0  0  0
   60.7460   31.4540   49.3240 C   0  0  0  0  0  0  0  0  0  0  0  0
   59.7300   30.3550   49.6700 C   0  0  0  0  0  0  0  0  0  0  0  0
   57.1911   32.9501   46.4921 H   0  0  0  0  0  0  0  0  0  0  0  0
   57.8202   34.0933   45.2576 H   0  0  0  0  0  0  0  0  0  0  0  0
   56.0825   33.6381   45.2576 H   0  0  0  0  0  0  0  0  0  0  0  0
   57.2509   32.4255   43.4749 H   0  0  0  0  0  0  0  0  0  0  0  0
   58.4573   31.8047   44.6887 H   0  0  0  0  0  0  0  0  0  0  0  0
   55.6620   31.0310   44.2600 H   0  0  0  0  0  0  0  0  0  0  0  0
   56.6835   28.8279   44.8464 H   0  0  0  0  0  0  0  0  0  0  0  0
   57.1763   29.5764   43.2879 H   0  0  0  0  0  0  0  0  0  0  0  0
   59.2169   28.8781   44.3207 H   0  0  0  0  0  0  0  0  0  0  0  0
   59.1109   30.6588   44.6136 H   0  0  0  0  0  0  0  0  0  0  0  0
   60.0860   26.3067   45.9407 H   0  0  0  0  0  0  0  0  0  0  0  0
   59.2899   24.1692   44.9513 H   0  0  0  0  0  0  0  0  0  0  0  0
   56.3114   23.9253   42.6562 H   0  0  0  0  0  0  0  0  0  0  0  0
   56.1249   19.5584   45.6707 H   0  0  0  0  0  0  0  0  0  0  0  0
   55.2104   19.4081   44.1319 H   0  0  0  0  0  0  0  0  0  0  0  0
   57.0000   19.2535   44.1319 H   0  0  0  0  0  0  0  0  0  0  0  0
   56.9707   21.9452   46.3459 H   0  0  0  0  0  0  0  0  0  0  0  0
   54.2207   24.0025   47.0866 H   0  0  0  0  0  0  0  0  0  0  0  0
   53.2297   24.0409   45.5889 H   0  0  0  0  0  0  0  0  0  0  0  0
   54.8257   23.2167   45.5889 H   0  0  0  0  0  0  0  0  0  0  0  0
   55.9947   27.4979   46.6754 H   0  0  0  0  0  0  0  0  0  0  0  0
   60.4079   31.7642   46.1930 H   0  0  0  0  0  0  0  0  0  0  0  0
   58.7755   32.3353   46.7458 H   0  0  0  0  0  0  0  0  0  0  0  0
   62.3261   34.3010   49.3248 H   0  0  0  0  0  0  0  0  0  0  0  0
   62.6876   33.4748   47.7712 H   0  0  0  0  0  0  0  0  0  0  0  0
   62.1181   35.1784   47.7712 H   0  0  0  0  0  0  0  0  0  0  0  0
   61.6910   30.9812   49.0184 H   0  0  0  0  0  0  0  0  0  0  0  0
   60.8868   32.0812   50.2166 H   0  0  0  0  0  0  0  0  0  0  0  0
   60.2022   29.6135   50.3312 H   0  0  0  0  0  0  0  0  0  0  0  0
   58.8647   30.8020   50.1812 H   0  0  0  0  0  0  0  0  0  0  0  0
  1  2  1  0
  2  3  1  0
  3  4  1  0
  4  5  1  0
  5  6  1  0
  6  7  1  0
  7  8  1  0
  8  9  2  0
  9 10  1  0
 10 11  2  0
 11 12  1  0
 12 13  1  0
 13 14  2  0
 14 15  1  0
 15 16  1  0
 15 17  2  0
 11 18  1  0
 18 19  1  0
 19 20  1  0
 18 21  2  0
  7 22  2  0
 22 23  1  0
 23 24  2  0
 24 25  1  0
 25 26  1  0
 26 27  1  0
 27 28  1  0
 27 29  2  0
 26 30  1  0
 30 31  1  0
 24  6  1  0
 21  8  1  0
 31 23  1  0
 17 12  1  0
  1 32  1  0
  1 33  1  0
  1 34  1  0
  2 35  1  0
  2 36  1  0
  3 37  1  0
  4 38  1  0
  4 39  1  0
  5 40  1  0
  5 41  1  0
  9 42  1  0
 10 43  1  0
 13 44  1  0
 16 45  1  0
 16 46  1  0
 16 47  1  0
 17 48  1  0
 20 49  1  0
 20 50  1  0
 20 51  1  0
 21 52  1  0
 25 53  1  0
 25 54  1  0
 28 55  1  0
 28 56  1  0
 28 57  1  0
 30 58  1  0
 30 59  1  0
 31 60  1  0
 31 61  1  0
M  END
>  <UniqueID>  (6) 
6

>  <SMILES>  (6) 
CCNCCn1c(-c2ccc(-n3cnc(C)c3)c(OC)c2)nc2c1CN(C(C)=O)CC2

>  <Energy>  (6) 
129.13795468815198

>  <Genealogy>  (6) 
CCNCCn1c(-c2ccc(-n3cnc(C)c3)c(OC)c2)nc2c1CN(C(C)=O)CC2 (3D coordinates assigned)
CCNCCn1c(-c2ccc(-n3cnc(C)c3)c(OC)c2)nc2c1CN(C(C)=O)CC2 (nonaromatic ring conformer: 129.13795468815198 kcal/mol)

>  <smiles>  (6) 
CCNCCn1c(-c2ccc(-n3cnc(C)c3)c(OC)c2)nc2c1CN(C(C)=O)CC2

>  <score_type>  (6) 
oracle

>  <origin>  (6) 
adg

>  <m_score__min__energy>  (6) 
-8.5

>  <m_primary>  (6) 
energy

$$$$
6:0
     RDKit          3D

 77 81  0  0  0  0  0  0  0  0999 V2000
   59.2720   33.9020   51.8590 C   0  0  0  0  0  0  0  0  0  0  0  0
   60.7190   33.4860   52.1410 C   0  0  1  0  0  0  0  0  0  0  0  0
   60.7650   32.2350   53.0430 C   0  0  0  0  0  0  0  0  0  0  0  0
   62.1730   31.6190   53.1120 C   0  0  0  0  0  0  0  0  0  0  0  0
   62.3750   30.6500   52.0210 N   0  0  0  0  0  0  0  0  0  0  0  0
   62.7520   29.3160   52.5310 C   0  0  0  0  0  0  0  0  0  0  0  0
   61.6550   28.2560   52.3050 C   0  0  0  0  0  0  0  0  0  0  0  0
   61.3300   28.0580   50.8160 C   0  0  0  0  0  0  0  0  0  0  0  0
   60.4560   29.1390   50.3360 N   0  0  0  0  0  0  0  0  0  0  0  0
   59.4780   29.5330   51.3610 C   0  0  0  0  0  0  0  0  0  0  0  0
   58.2120   30.1120   50.7160 C   0  0  0  0  0  0  0  0  0  0  0  0
   58.5010   31.3590   49.8710 C   0  0  0  0  0  0  0  0  0  0  0  0
   59.4470   31.0500   48.7980 N   0  0  0  0  0  0  0  0  0  0  0  0
   59.0830   31.2650   47.4270 C   0  0  0  0  0  0  0  0  0  0  0  0
   58.7380   30.1760   46.6120 C   0  0  0  0  0  0  0  0  0  0  0  0
   58.7410   28.8620   47.1280 C   0  0  0  0  0  0  0  0  0  0  0  0
   58.4600   27.7750   46.3050 C   0  0  0  0  0  0  0  0  0  0  0  0
   58.1870   27.9750   44.9570 C   0  0  0  0  0  0  0  0  0  0  0  0
   58.1630   29.2650   44.4280 C   0  0  0  0  0  0  0  0  0  0  0  0
   58.4010   30.3980   45.2490 C   0  0  0  0  0  0  0  0  0  0  0  0
   58.3300   31.6870   44.7530 N   0  0  0  0  0  0  0  0  0  0  0  0
   57.7170   31.9370   43.4290 C   0  0  0  0  0  0  0  0  0  0  0  0
   58.8020   32.7470   45.5070 C   0  0  0  0  0  0  0  0  0  0  0  0
   58.9790   34.0410   44.9520 C   0  0  0  0  0  0  0  0  0  0  0  0
   59.3940   35.1130   45.7420 C   0  0  0  0  0  0  0  0  0  0  0  0
   59.6510   34.9270   47.0950 C   0  0  0  0  0  0  0  0  0  0  0  0
   59.5290   33.6600   47.6600 C   0  0  0  0  0  0  0  0  0  0  0  0
   59.1380   32.5560   46.8740 C   0  0  0  0  0  0  0  0  0  0  0  0
   61.4540   33.2590   50.8460 C   0  0  0  0  0  0  0  0  0  0  0  0
   62.0970   34.2370   50.0870 C   0  0  0  0  0  0  0  0  0  0  0  0
   62.6050   33.5510   49.0110 C   0  0  0  0  0  0  0  0  0  0  0  0
   63.3480   33.9930   47.9170 C   0  0  0  0  0  0  0  0  0  0  0  0
   63.7350   33.0350   46.9610 C   0  0  0  0  0  0  0  0  0  0  0  0
   63.3740   31.6770   47.1210 C   0  0  0  0  0  0  0  0  0  0  0  0
   62.6220   31.2660   48.2390 C   0  0  0  0  0  0  0  0  0  0  0  0
   62.2560   32.2370   49.1680 C   0  0  0  0  0  0  0  0  0  0  0  0
   61.5660   32.0730   50.2700 O   0  0  0  0  0  0  0  0  0  0  0  0
   58.7421   34.0543   52.8109 H   0  0  0  0  0  0  0  0  0  0  0  0
   59.2655   34.8384   51.2818 H   0  0  0  0  0  0  0  0  0  0  0  0
   58.7692   33.1120   51.2818 H   0  0  0  0  0  0  0  0  0  0  0  0
   61.2227   34.3000   52.6829 H   0  0  0  0  0  0  0  0  0  0  0  0
   60.4526   32.5191   54.0587 H   0  0  0  0  0  0  0  0  0  0  0  0
   60.0884   31.4827   52.6114 H   0  0  0  0  0  0  0  0  0  0  0  0
   62.9217   32.4203   53.0256 H   0  0  0  0  0  0  0  0  0  0  0  0
   62.2815   31.0950   54.0731 H   0  0  0  0  0  0  0  0  0  0  0  0
   63.1550   30.9980   51.4140 H   0  0  0  0  0  0  0  0  0  0  0  0
   61.5130   30.5910   51.4320 H   0  0  0  0  0  0  0  0  0  0  0  0
   63.6675   28.9891   52.0162 H   0  0  0  0  0  0  0  0  0  0  0  0
   62.9039   29.4081   53.6166 H   0  0  0  0  0  0  0  0  0  0  0  0
   61.9982   27.2978   52.7222 H   0  0  0  0  0  0  0  0  0  0  0  0
   60.7402   28.6081   52.8042 H   0  0  0  0  0  0  0  0  0  0  0  0
   62.2651   28.0632   50.2367 H   0  0  0  0  0  0  0  0  0  0  0  0
   60.8124   27.0959   50.6877 H   0  0  0  0  0  0  0  0  0  0  0  0
   61.0660   29.9670   50.1460 H   0  0  0  0  0  0  0  0  0  0  0  0
   59.2064   28.6499   51.9580 H   0  0  0  0  0  0  0  0  0  0  0  0
   59.9310   30.3048   52.0007 H   0  0  0  0  0  0  0  0  0  0  0  0
   57.7627   29.3440   50.0692 H   0  0  0  0  0  0  0  0  0  0  0  0
   57.5295   30.4081   51.5263 H   0  0  0  0  0  0  0  0  0  0  0  0
   57.5609   31.7219   49.4299 H   0  0  0  0  0  0  0  0  0  0  0  0
   58.9418   32.1306   50.5193 H   0  0  0  0  0  0  0  0  0  0  0  0
   60.4260   30.7550   49.0130 H   0  0  0  0  0  0  0  0  0  0  0  0
   58.9677   28.6953   48.1914 H   0  0  0  0  0  0  0  0  0  0  0  0
   58.4540   26.7571   46.7219 H   0  0  0  0  0  0  0  0  0  0  0  0
   57.9890   27.1119   44.3045 H   0  0  0  0  0  0  0  0  0  0  0  0
   57.9562   29.4068   43.3570 H   0  0  0  0  0  0  0  0  0  0  0  0
   56.7062   32.3492   43.5649 H   0  0  0  0  0  0  0  0  0  0  0  0
   58.3338   32.6554   42.8691 H   0  0  0  0  0  0  0  0  0  0  0  0
   57.6554   30.9921   42.8691 H   0  0  0  0  0  0  0  0  0  0  0  0
   58.7857   34.2013   43.8810 H   0  0  0  0  0  0  0  0  0  0  0  0
   59.5183   36.1092   45.2925 H   0  0  0  0  0  0  0  0  0  0  0  0
   59.9510   35.7810   47.7200 H   0  0  0  0  0  0  0  0  0  0  0  0
   59.7397   33.5187   48.7303 H   0  0  0  0  0  0  0  0  0  0  0  0
   62.1786   35.3128   50.3015 H   0  0  0  0  0  0  0  0  0  0  0  0
   63.6219   35.0524   47.8050 H   0  0  0  0  0  0  0  0  0  0  0  0
   64.3220   33.3446   46.0838 H   0  0  0  0  0  0  0  0  0  0  0  0
   63.6824   30.9371   46.3677 H   0  0  0  0  0  0  0  0  0  0  0  0
   62.3334   30.2131   48.3738 H   0  0  0  0  0  0  0  0  0  0  0  0
  1  2  1  0
  2  3  1  0
  3  4  1  0
  4  5  1  0
  5  6  1  0
  6  7  1  0
  7  8  1  0
  8  9  1  0
  9 10  1  0
 10 11  1  0
 11 12  1  0
 12 13  1  0
 13 14  1  0
 14 15  1  0
 15 16  2  0
 16 17  1  0
 17 18  2  0
 18 19  1  0
 19 20  2  0
 20 21  1  0
 21 22  1  0
 21 23  2  0
 23 24  1  0
 24 25  2  0
 25 26  1  0
 26 27  2  0
 27 28  1  0
  2 29  1  0
 29 30  2  0
 30 31  1  0
 31 32  2  0
 32 33  1  0
 33 34  2  0
 34 35  1  0
 35 36  2  0
 36 37  1  0
 28 14  2  0
 37 29  1  0
 20 15  1  0
 28 23  1  0
 36 31  1  0
  1 38  1  0
  1 39  1  0
  1 40  1  0
  2 41  1  1
  3 42  1  0
  3 43  1  0
  4 44  1  0
  4 45  1  0
  5 46  1  0
  5 47  1  0
  6 48  1  0
  6 49  1  0
  7 50  1  0
  7 51  1  0
  8 52  1  0
  8 53  1  0
  9 54  1  0
 10 55  1  0
 10 56  1  0
 11 57  1  0
 11 58  1  0
 12 59  1  0
 12 60  1  0
 13 61  1  0
 16 62  1  0
 17 63  1  0
 18 64  1  0
 19 65  1  0
 22 66  1  0
 22 67  1  0
 22 68  1  0
 24 69  1  0
 25 70  1  0
 26 71  1  0
 27 72  1  0
 30 73  1  0
 32 74  1  0
 33 75  1  0
 34 76  1  0
 35 77  1  0
M  CHG  2   5   1  21   1
M  END
>  <UniqueID>  (7) 
7

>  <SMILES>  (7) 
C[C@@H](CC[NH2+]CCCNCCCNc1c2ccccc2[n+](C)c2ccccc12)c1cc2ccccc2o1

>  <Energy>  (7) 
130.40009757209938

>  <Genealogy>  (7) 
CC(CC[NH2+]CCCNCCCNc1c2ccccc2[n+](C)c2ccccc12)c1cc2ccccc2o1 (protonated)
C[C@@H](CC[NH2+]CCCNCCCNc1c2ccccc2[n+](C)c2ccccc12)c1cc2ccccc2o1 (chirality)
C[C@@H](CC[NH2+]CCCNCCCNc1c2ccccc2[n+](C)c2ccccc12)c1cc2ccccc2o1 (3D coordinates assigned)
C[C@@H](CC[NH2+]CCCNCCCNc1c2ccccc2[n+](C)c2ccccc12)c1cc2ccccc2o1 (optimized conformer: 130.40009757209938 kcal/mol)

>  <smiles>  (7) 
CC(CCNCCCNCCCNc1c2ccccc2[n+](C)c2ccccc12)c1cc2ccccc2o1

>  <score_type>  (7) 
oracle

>  <origin>  (7) 
adg

>  <m_score__min__energy>  (7) 
-6.9800000000000004

>  <m_primary>  (7) 
energy

$$$$
7:0
     RDKit          3D

 33 34  0  0  0  0  0  0  0  0999 V2000
   57.8480   27.8810   44.1270 C   0  0  0  0  0  0  0  0  0  0  0  0
   57.1540   28.2310   45.4470 C   0  0  0  0  0  0  0  0  0  0  0  0
   55.9100   28.9890   45.2470 N   0  0  0  0  0  0  0  0  0  0  0  0
   55.8610   29.6430   43.9320 C   0  0  0  0  0  0  0  0  0  0  0  0
   56.6950   30.9270   43.9300 C   0  0  0  0  0  0  0  0  0  0  0  0
   57.0570   31.3150   45.2580 O   0  0  0  0  0  0  0  0  0  0  0  0
   57.9960   32.3010   45.6190 C   0  0  0  0  0  0  0  0  0  0  0  0
   57.7780   33.6720   45.3730 C   0  0  0  0  0  0  0  0  0  0  0  0
   58.7310   34.6220   45.7440 C   0  0  0  0  0  0  0  0  0  0  0  0
   59.9180   34.2280   46.3600 C   0  0  0  0  0  0  0  0  0  0  0  0
   60.1630   32.8720   46.6140 C   0  0  0  0  0  0  0  0  0  0  0  0
   61.3560   32.4730   47.2340 C   0  0  0  0  0  0  0  0  0  0  0  0
   61.5990   31.1210   47.4870 C   0  0  0  0  0  0  0  0  0  0  0  0
   60.6550   30.1590   47.1250 C   0  0  0  0  0  0  0  0  0  0  0  0
   59.4610   30.5410   46.5060 C   0  0  0  0  0  0  0  0  0  0  0  0
   59.1990   31.8990   46.2410 C   0  0  0  0  0  0  0  0  0  0  0  0
   58.8121   27.3948   44.3373 H   0  0  0  0  0  0  0  0  0  0  0  0
   57.2107   27.1965   43.5479 H   0  0  0  0  0  0  0  0  0  0  0  0
   58.0196   28.8004   43.5479 H   0  0  0  0  0  0  0  0  0  0  0  0
   56.9165   27.2978   45.9787 H   0  0  0  0  0  0  0  0  0  0  0  0
   57.8410   28.8644   46.0274 H   0  0  0  0  0  0  0  0  0  0  0  0
   55.8380   29.7210   45.9920 H   0  0  0  0  0  0  0  0  0  0  0  0
   56.2583   28.9541   43.1720 H   0  0  0  0  0  0  0  0  0  0  0  0
   54.8159   29.9019   43.7065 H   0  0  0  0  0  0  0  0  0  0  0  0
   57.6106   30.7584   43.3441 H   0  0  0  0  0  0  0  0  0  0  0  0
   56.0909   31.7320   43.4862 H   0  0  0  0  0  0  0  0  0  0  0  0
   56.8476   33.9963   44.8838 H   0  0  0  0  0  0  0  0  0  0  0  0
   58.5443   35.6884   45.5491 H   0  0  0  0  0  0  0  0  0  0  0  0
   60.6641   34.9835   46.6473 H   0  0  0  0  0  0  0  0  0  0  0  0
   62.1029   33.2274   47.5220 H   0  0  0  0  0  0  0  0  0  0  0  0
   62.5368   30.8137   47.9728 H   0  0  0  0  0  0  0  0  0  0  0  0
   60.8512   29.0957   47.3275 H   0  0  0  0  0  0  0  0  0  0  0  0
   58.7220   29.7764   46.2244 H   0  0  0  0  0  0  0  0  0  0  0  0
  1  2  1  0
  2  3  1  0
  3  4  1  0
  4  5  1  0
  5  6  1  0
  6  7  1  0
  7  8  2  0
  8  9  1  0
  9 10  2  0
 10 11  1  0
 11 12  2  0
 12 13  1  0
 13 14  2  0
 14 15  1  0
 15 16  2  0
 16  7  1  0
 16 11  1  0
  1 17  1  0
  1 18  1  0
  1 19  1  0
  2 20  1  0
  2 21  1  0
  3 22  1  0
  4 23  1  0
  4 24  1  0
  5 25  1  0
  5 26  1  0
  8 27  1  0
  9 28  1  0
 10 29  1  0
 12 30  1  0
 13 31  1  0
 14 32  1  0
 15 33  1  0
M  END
>  <UniqueID>  (8) 
8

>  <SMILES>  (8) 
CCNCCOc1cccc2ccccc12

>  <Energy>  (8) 
34.67171998492067

>  <Genealogy>  (8) 
CCNCCOc1cccc2ccccc12 (3D coordinates assigned)
CCNCCOc1cccc2ccccc12 (optimized conformer: 34.67171998492067 kcal/mol)

>  <smiles>  (8) 
CCNCCOc1cccc2ccccc12

>  <score_type>  (8) 
oracle

>  <origin>  (8) 
adg

>  <m_score__min__energy>  (8) 
-6.3899999999999997

>  <m_primary>  (8) 
energy

$$$$
8:0
     RDKit          3D

 58 59  0  0  0  0  0  0  0  0999 V2000
   58.1920   32.0030   49.9360 C   0  0  0  0  0  0  0  0  0  0  0  0
   58.5240   31.0990   48.9090 O   0  0  0  0  0  0  0  0  0  0  0  0
   59.2230   29.9820   49.4290 C   0  0  0  0  0  0  0  0  0  0  0  0
   59.9960   29.2880   48.3010 C   0  0  0  0  0  0  0  0  0  0  0  0
   59.4260   29.4230   46.9370 N   0  0  0  0  0  0  0  0  0  0  0  0
   59.0240   28.1400   46.3030 C   0  0  0  0  0  0  0  0  0  0  0  0
   57.5280   27.9630   46.0470 C   0  0  0  0  0  0  0  0  0  0  0  0
   56.9770   29.2200   45.7220 O   0  0  0  0  0  0  0  0  0  0  0  0
   56.6120   29.2250   44.3680 C   0  0  0  0  0  0  0  0  0  0  0  0
   60.0270   30.4680   46.0390 C   0  0  0  0  0  0  0  0  0  0  0  0
   59.2860   31.8070   45.9380 C   0  0  0  0  0  0  0  0  0  0  0  0
   57.9720   31.8130   45.4300 C   0  0  0  0  0  0  0  0  0  0  0  0
   57.2750   33.0030   45.2440 C   0  0  0  0  0  0  0  0  0  0  0  0
   57.8460   34.2130   45.6170 C   0  0  0  0  0  0  0  0  0  0  0  0
   59.1050   34.2420   46.2360 C   0  0  0  0  0  0  0  0  0  0  0  0
   59.6440   35.5660   46.7150 C   0  0  0  0  0  0  0  0  0  0  0  0
   59.8400   33.0380   46.4050 C   0  0  0  0  0  0  0  0  0  0  0  0
   61.0520   33.0540   47.1850 N   0  0  0  0  0  0  0  0  0  0  0  0
   62.3210   33.4860   46.5960 C   0  0  0  0  0  0  0  0  0  0  0  0
   63.4670   32.6920   47.2320 C   0  0  0  0  0  0  0  0  0  0  0  0
   63.4060   32.6350   48.7150 N   0  0  0  0  0  0  0  0  0  0  0  0
   64.6780   33.0790   49.3000 C   0  0  0  0  0  0  0  0  0  0  0  0
   62.2790   33.3850   49.3160 C   0  0  0  0  0  0  0  0  0  0  0  0
   60.9480   33.0140   48.6510 C   0  0  0  0  0  0  0  0  0  0  0  0
   58.3663   31.5283   50.9129 H   0  0  0  0  0  0  0  0  0  0  0  0
   58.8182   32.9031   49.8488 H   0  0  0  0  0  0  0  0  0  0  0  0
   57.1320   32.2839   49.8488 H   0  0  0  0  0  0  0  0  0  0  0  0
   59.9285   30.3194   50.2025 H   0  0  0  0  0  0  0  0  0  0  0  0
   58.5049   29.2743   49.8689 H   0  0  0  0  0  0  0  0  0  0  0  0
   61.0126   29.7077   48.2831 H   0  0  0  0  0  0  0  0  0  0  0  0
   59.9540   28.2135   48.5328 H   0  0  0  0  0  0  0  0  0  0  0  0
   58.4860   29.8400   47.1510 H   0  0  0  0  0  0  0  0  0  0  0  0
   59.5428   28.0646   45.3360 H   0  0  0  0  0  0  0  0  0  0  0  0
   59.2985   27.3536   47.0215 H   0  0  0  0  0  0  0  0  0  0  0  0
   57.3748   27.2637   45.2118 H   0  0  0  0  0  0  0  0  0  0  0  0
   57.0378   27.5576   46.9444 H   0  0  0  0  0  0  0  0  0  0  0  0
   55.5153   29.2400   44.2839 H   0  0  0  0  0  0  0  0  0  0  0  0
   57.0295   30.1175   43.8790 H   0  0  0  0  0  0  0  0  0  0  0  0
   57.0049   28.3214   43.8790 H   0  0  0  0  0  0  0  0  0  0  0  0
   61.0425   30.6773   46.4063 H   0  0  0  0  0  0  0  0  0  0  0  0
   59.9800   30.0378   45.0277 H   0  0  0  0  0  0  0  0  0  0  0  0
   57.4877   30.8587   45.1755 H   0  0  0  0  0  0  0  0  0  0  0  0
   56.2687   32.9853   44.8002 H   0  0  0  0  0  0  0  0  0  0  0  0
   57.3084   35.1535   45.4261 H   0  0  0  0  0  0  0  0  0  0  0  0
   59.6508   35.5828   47.8149 H   0  0  0  0  0  0  0  0  0  0  0  0
   60.6691   35.7020   46.3398 H   0  0  0  0  0  0  0  0  0  0  0  0
   59.0054   36.3793   46.3398 H   0  0  0  0  0  0  0  0  0  0  0  0
   62.3044   33.3035   45.5114 H   0  0  0  0  0  0  0  0  0  0  0  0
   62.4680   34.5603   46.7811 H   0  0  0  0  0  0  0  0  0  0  0  0
   63.4336   31.6634   46.8437 H   0  0  0  0  0  0  0  0  0  0  0  0
   64.4007   33.2109   46.9694 H   0  0  0  0  0  0  0  0  0  0  0  0
   64.6056   33.0537   50.3973 H   0  0  0  0  0  0  0  0  0  0  0  0
   65.4865   32.4099   48.9704 H   0  0  0  0  0  0  0  0  0  0  0  0
   64.8945   34.1059   48.9704 H   0  0  0  0  0  0  0  0  0  0  0  0
   62.2222   33.1484   50.3888 H   0  0  0  0  0  0  0  0  0  0  0  0
   62.4561   34.4600   49.1645 H   0  0  0  0  0  0  0  0  0  0  0  0
   60.6633   31.9981   48.9621 H   0  0  0  0  0  0  0  0  0  0  0  0
   60.1884   33.7452   48.9645 H   0  0  0  0  0  0  0  0  0  0  0  0
  1  2  1  0
  2  3  1  0
  3  4  1  0
  4  5  1  0
  5  6  1  0
  6  7  1  0
  7  8  1  0
  8  9  1  0
  5 10  1  0
 10 11  1  0
 11 12  2  0
 12 13  1  0
 13 14  2  0
 14 15  1  0
 15 16  1  0
 15 17  2  0
 17 18  1  0
 18 19  1  0
 19 20  1  0
 20 21  1  0
 21 22  1  0
 21 23  1  0
 23 24  1  0
 17 11  1  0
 24 18  1  0
  1 25  1  0
  1 26  1  0
  1 27  1  0
  3 28  1  0
  3 29  1  0
  4 30  1  0
  4 31  1  0
  5 32  1  0
  6 33  1  0
  6 34  1  0
  7 35  1  0
  7 36  1  0
  9 37  1  0
  9 38  1  0
  9 39  1  0
 10 40  1  0
 10 41  1  0
 12 42  1  0
 13 43  1  0
 14 44  1  0
 16 45  1  0
 16 46  1  0
 16 47  1  0
 19 48  1  0
 19 49  1  0
 20 50  1  0
 20 51  1  0
 22 52  1  0
 22 53  1  0
 22 54  1  0
 23 55  1  0
 23 56  1  0
 24 57  1  0
 24 58  1  0
M  CHG  1   5   1
M  END
>  <UniqueID>  (9) 
9

>  <SMILES>  (9) 
COCC[NH+](CCOC)Cc1cccc(C)c1N1CCN(C)CC1

>  <Energy>  (9) 
93.14751686991738

>  <Genealogy>  (9) 
COCC[NH+](CCOC)Cc1cccc(C)c1N1CCN(C)CC1 (protonated)
COCC[NH+](CCOC)Cc1cccc(C)c1N1CCN(C)CC1 (3D coordinates assigned)
COCC[NH+](CCOC)Cc1cccc(C)c1N1CCN(C)CC1 (nonaromatic ring conformer: 93.14751686991738 kcal/mol)

>  <smiles>  (9) 
COCCN(CCOC)Cc1cccc(C)c1N1CCN(C)CC1

>  <score_type>  (9) 
oracle

>  <origin>  (9) 
adg

>  <m_score__min__energy>  (9) 
-4.6799999999999997

>  <m_primary>  (9) 
energy

$$$$
10:0
     RDKit          3D

 69 72  0  0  0  0  0  0  0  0999 V2000
   63.3480   33.8960   46.3630 C   0  0  0  0  0  0  0  0  0  0  0  0
   63.7530   33.5280   47.7850 C   0  0  0  0  0  0  0  0  0  0  0  0
   63.6930   32.0710   47.9650 N   0  0  0  0  0  0  0  0  0  0  0  0
   62.8390   31.6890   49.1020 C   0  0  0  0  0  0  0  0  0  0  0  0
   61.4560   31.1670   48.6730 C   0  0  0  0  0  0  0  0  0  0  0  0
   61.3690   31.0150   47.2210 N   0  0  0  0  0  0  0  0  0  0  0  0
   60.0890   30.8370   46.5990 C   0  0  0  0  0  0  0  0  0  0  0  0
   59.5110   29.5720   46.5600 C   0  0  0  0  0  0  0  0  0  0  0  0
   58.3040   29.3620   45.9230 C   0  0  0  0  0  0  0  0  0  0  0  0
   57.6750   30.3570   45.2160 N   0  0  0  0  0  0  0  0  0  0  0  0
   56.5850   30.0250   44.2850 C   0  0  0  0  0  0  0  0  0  0  0  0
   58.1360   31.6560   45.3550 C   0  0  0  0  0  0  0  0  0  0  0  0
   57.4070   32.7620   44.8550 C   0  0  0  0  0  0  0  0  0  0  0  0
   57.8920   34.0640   44.9900 C   0  0  0  0  0  0  0  0  0  0  0  0
   59.0980   34.3000   45.6430 C   0  0  0  0  0  0  0  0  0  0  0  0
   59.8250   33.2380   46.1750 C   0  0  0  0  0  0  0  0  0  0  0  0
   59.3670   31.9140   46.0400 C   0  0  0  0  0  0  0  0  0  0  0  0
   57.9510   27.9480   46.0960 C   0  0  0  0  0  0  0  0  0  0  0  0
   56.7610   27.2510   45.8470 C   0  0  0  0  0  0  0  0  0  0  0  0
   56.6850   25.8930   46.1960 C   0  0  0  0  0  0  0  0  0  0  0  0
   57.7760   25.2500   46.8320 C   0  0  0  0  0  0  0  0  0  0  0  0
   57.7410   23.8970   47.1940 O   0  0  0  0  0  0  0  0  0  0  0  0
   56.6020   23.0530   47.0630 C   0  0  0  0  0  0  0  0  0  0  0  0
   56.5460   22.4180   45.6610 C   0  0  0  0  0  0  0  0  0  0  0  0
   57.5720   22.9180   44.7150 N   0  0  0  0  0  0  0  0  0  0  0  0
   56.9970   23.6770   43.5840 C   0  0  0  0  0  0  0  0  0  0  0  0
   55.7800   22.9630   43.0020 C   0  0  0  0  0  0  0  0  0  0  0  0
   58.5500   21.8830   44.3030 C   0  0  0  0  0  0  0  0  0  0  0  0
   59.9250   22.2240   44.8620 C   0  0  0  0  0  0  0  0  0  0  0  0
   58.9330   25.9870   47.1300 C   0  0  0  0  0  0  0  0  0  0  0  0
   58.9940   27.3320   46.7670 C   0  0  0  0  0  0  0  0  0  0  0  0
   60.0820   28.2990   47.1120 C   0  0  0  0  0  0  0  0  0  0  0  0
   62.5342   34.6355   46.3933 H   0  0  0  0  0  0  0  0  0  0  0  0
   64.2127   34.3238   45.8346 H   0  0  0  0  0  0  0  0  0  0  0  0
   63.0047   32.9944   45.8346 H   0  0  0  0  0  0  0  0  0  0  0  0
   64.7795   33.8760   47.9727 H   0  0  0  0  0  0  0  0  0  0  0  0
   63.0605   34.0074   48.4925 H   0  0  0  0  0  0  0  0  0  0  0  0
   64.6580   31.6930   48.0990 H   0  0  0  0  0  0  0  0  0  0  0  0
   63.3493   30.8990   49.6726 H   0  0  0  0  0  0  0  0  0  0  0  0
   62.6741   32.5938   49.7055 H   0  0  0  0  0  0  0  0  0  0  0  0
   61.2799   30.1897   49.1462 H   0  0  0  0  0  0  0  0  0  0  0  0
   60.6970   31.8972   48.9904 H   0  0  0  0  0  0  0  0  0  0  0  0
   62.1120   31.4790   46.6510 H   0  0  0  0  0  0  0  0  0  0  0  0
   55.6857   29.7511   44.8561 H   0  0  0  0  0  0  0  0  0  0  0  0
   56.3655   30.8970   43.6514 H   0  0  0  0  0  0  0  0  0  0  0  0
   56.8889   29.1787   43.6514 H   0  0  0  0  0  0  0  0  0  0  0  0
   56.4434   32.5926   44.3523 H   0  0  0  0  0  0  0  0  0  0  0  0
   57.3182   34.9074   44.5783 H   0  0  0  0  0  0  0  0  0  0  0  0
   59.4779   35.3278   45.7392 H   0  0  0  0  0  0  0  0  0  0  0  0
   60.7675   33.4361   46.7065 H   0  0  0  0  0  0  0  0  0  0  0  0
   55.9011   27.7591   45.3860 H   0  0  0  0  0  0  0  0  0  0  0  0
   55.7706   25.3233   45.9738 H   0  0  0  0  0  0  0  0  0  0  0  0
   56.6567   22.2547   47.8179 H   0  0  0  0  0  0  0  0  0  0  0  0
   55.6964   23.6599   47.2100 H   0  0  0  0  0  0  0  0  0  0  0  0
   56.6810   21.3318   45.7708 H   0  0  0  0  0  0  0  0  0  0  0  0
   55.5695   22.6908   45.2343 H   0  0  0  0  0  0  0  0  0  0  0  0
   56.6933   24.6732   43.9379 H   0  0  0  0  0  0  0  0  0  0  0  0
   57.7608   23.7613   42.7969 H   0  0  0  0  0  0  0  0  0  0  0  0
   55.1466   22.5914   43.8209 H   0  0  0  0  0  0  0  0  0  0  0  0
   55.2037   23.6662   42.3828 H   0  0  0  0  0  0  0  0  0  0  0  0
   56.1127   22.1169   42.3828 H   0  0  0  0  0  0  0  0  0  0  0  0
   58.2308   20.9039   44.6895 H   0  0  0  0  0  0  0  0  0  0  0  0
   58.6019   21.8477   43.2048 H   0  0  0  0  0  0  0  0  0  0  0  0
   59.8866   22.2145   45.9613 H   0  0  0  0  0  0  0  0  0  0  0  0
   60.6570   21.4802   44.5142 H   0  0  0  0  0  0  0  0  0  0  0  0
   60.2246   23.2237   44.5142 H   0  0  0  0  0  0  0  0  0  0  0  0
   59.7807   25.5096   47.6433 H   0  0  0  0  0  0  0  0  0  0  0  0
   60.2374   28.3628   48.1991 H   0  0  0  0  0  0  0  0  0  0  0  0
   61.0718   28.0327   46.7129 H   0  0  0  0  0  0  0  0  0  0  0  0
  1  2  1  0
  2  3  1  0
  3  4  1  0
  4  5  1  0
  5  6  1  0
  6  7  1  0
  7  8  2  0
  8  9  1  0
  9 10  2  0
 10 11  1  0
 10 12  1  0
 12 13  2  0
 13 14  1  0
 14 15  2  0
 15 16  1  0
 16 17  2  0
  9 18  1  0
 18 19  2  0
 19 20  1  0
 20 21  2  0
 21 22  1  0
 22 23  1  0
 23 24  1  0
 24 25  1  0
 25 26  1  0
 26 27  1  0
 25 28  1  0
 28 29  1  0
 21 30  1  0
 30 31  2  0
 31 32  1  0
 17  7  1  0
 31 18  1  0
 32  8  1  0
 17 12  1  0
  1 33  1  0
  1 34  1  0
  1 35  1  0
  2 36  1  0
  2 37  1  0
  3 38  1  0
  4 39  1  0
  4 40  1  0
  5 41  1  0
  5 42  1  0
  6 43  1  0
 11 44  1  0
 11 45  1  0
 11 46  1  0
 13 47  1  0
 14 48  1  0
 15 49  1  0
 16 50  1  0
 19 51  1  0
 20 52  1  0
 23 53  1  0
 23 54  1  0
 24 55  1  0
 24 56  1  0
 26 57  1  0
 26 58  1  0
 27 59  1  0
 27 60  1  0
 27 61  1  0
 28 62  1  0
 28 63  1  0
 29 64  1  0
 29 65  1  0
 29 66  1  0
 30 67  1  0
 32 68  1  0
 32 69  1  0
M  CHG  1  10   1
M  END
>  <UniqueID>  (10) 
10

>  <SMILES>  (10) 
CCNCCNc1c2c([n+](C)c3ccccc13)-c1ccc(OCCN(CC)CC)cc1C2

>  <Energy>  (10) 
109.53766951895076

>  <Genealogy>  (10) 
CCNCCNc1c2c([n+](C)c3ccccc13)-c1ccc(OCCN(CC)CC)cc1C2 (3D coordinates assigned)
CCNCCNc1c2c([n+](C)c3ccccc13)-c1ccc(OCCN(CC)CC)cc1C2 (nonaromatic ring conformer: 109.53766951895076 kcal/mol)

>  <smiles>  (10) 
CCNCCNc1c2c([n+](C)c3ccccc13)-c1ccc(OCCN(CC)CC)cc1C2

>  <score_type>  (10) 
oracle

>  <origin>  (10) 
adg

>  <m_score__min__energy>  (10) 
-6.4699999999999998

>  <m_primary>  (10) 
energy

$$$$
11:0
     RDKit          3D

 60 63  0  0  0  0  0  0  0  0999 V2000
   57.0370   29.8400   44.9150 C   0  0  0  0  0  0  0  0  0  0  0  0
   57.5680   31.2310   44.5950 C   0  0  0  0  0  0  0  0  0  0  0  0
   57.6490   32.0280   45.8270 N   0  0  0  0  0  0  0  0  0  0  0  0
   57.0030   33.3440   45.6870 C   0  0  0  0  0  0  0  0  0  0  0  0
   57.6780   34.2190   44.6140 C   0  0  0  0  0  0  0  0  0  0  0  0
   59.1730   34.4710   44.8980 C   0  0  0  0  0  0  0  0  0  0  0  0
   59.7770   33.5790   45.9070 N   0  0  0  0  0  0  0  0  0  0  0  0
   60.7400   34.2210   46.8170 C   0  0  0  0  0  0  0  0  0  0  0  0
   60.4800   33.8570   48.2870 C   0  0  0  0  0  0  0  0  0  0  0  0
   59.1840   33.1790   48.4350 N   0  0  0  0  0  0  0  0  0  0  0  0
   59.3350   31.9570   49.1980 C   0  0  0  0  0  0  0  0  0  0  0  0
   59.6830   30.7650   48.5490 C   0  0  0  0  0  0  0  0  0  0  0  0
   59.8290   29.5850   49.2520 C   0  0  0  0  0  0  0  0  0  0  0  0
   59.7570   29.5410   50.6200 N   0  0  0  0  0  0  0  0  0  0  0  0
   60.2550   28.3610   51.3480 C   0  0  0  0  0  0  0  0  0  0  0  0
   59.2720   30.6510   51.2920 C   0  0  0  0  0  0  0  0  0  0  0  0
   58.9420   30.5900   52.6690 C   0  0  0  0  0  0  0  0  0  0  0  0
   58.4750   31.7150   53.3450 C   0  0  0  0  0  0  0  0  0  0  0  0
   58.3110   32.9200   52.6740 C   0  0  0  0  0  0  0  0  0  0  0  0
   58.5950   33.0100   51.3130 C   0  0  0  0  0  0  0  0  0  0  0  0
   59.0670   31.8880   50.5950 C   0  0  0  0  0  0  0  0  0  0  0  0
   60.1070   28.5150   48.2850 C   0  0  0  0  0  0  0  0  0  0  0  0
   60.1240   27.1180   48.4220 C   0  0  0  0  0  0  0  0  0  0  0  0
   60.3360   26.3310   47.2800 C   0  0  0  0  0  0  0  0  0  0  0  0
   60.4810   26.9320   46.0170 C   0  0  0  0  0  0  0  0  0  0  0  0
   60.3920   28.3250   45.8850 C   0  0  0  0  0  0  0  0  0  0  0  0
   60.1930   29.0960   47.0310 C   0  0  0  0  0  0  0  0  0  0  0  0
   59.9500   30.5680   47.0820 C   0  0  0  0  0  0  0  0  0  0  0  0
   56.9869   29.7087   46.0060 H   0  0  0  0  0  0  0  0  0  0  0  0
   56.0312   29.7236   44.4851 H   0  0  0  0  0  0  0  0  0  0  0  0
   57.7094   29.0830   44.4851 H   0  0  0  0  0  0  0  0  0  0  0  0
   58.5697   31.1458   44.1486 H   0  0  0  0  0  0  0  0  0  0  0  0
   56.8875   31.7256   43.8863 H   0  0  0  0  0  0  0  0  0  0  0  0
   58.6550   32.1600   46.0860 H   0  0  0  0  0  0  0  0  0  0  0  0
   55.9498   33.1925   45.4079 H   0  0  0  0  0  0  0  0  0  0  0  0
   57.0938   33.8661   46.6509 H   0  0  0  0  0  0  0  0  0  0  0  0
   57.5858   33.7145   43.6408 H   0  0  0  0  0  0  0  0  0  0  0  0
   57.1720   35.1957   44.6185 H   0  0  0  0  0  0  0  0  0  0  0  0
   59.7254   34.3429   43.9554 H   0  0  0  0  0  0  0  0  0  0  0  0
   59.2396   35.4890   45.3095 H   0  0  0  0  0  0  0  0  0  0  0  0
   60.2500   32.7810   45.4230 H   0  0  0  0  0  0  0  0  0  0  0  0
   61.7551   33.8957   46.5456 H   0  0  0  0  0  0  0  0  0  0  0  0
   60.6280   35.3104   46.7137 H   0  0  0  0  0  0  0  0  0  0  0  0
   61.2792   33.1886   48.6399 H   0  0  0  0  0  0  0  0  0  0  0  0
   60.4643   34.7820   48.8821 H   0  0  0  0  0  0  0  0  0  0  0  0
   58.5150   33.8240   48.9160 H   0  0  0  0  0  0  0  0  0  0  0  0
   58.7570   32.9770   47.5020 H   0  0  0  0  0  0  0  0  0  0  0  0
   60.1797   28.5395   52.4308 H   0  0  0  0  0  0  0  0  0  0  0  0
   59.6511   27.4820   51.0784 H   0  0  0  0  0  0  0  0  0  0  0  0
   61.3061   28.1805   51.0784 H   0  0  0  0  0  0  0  0  0  0  0  0
   59.0563   29.6402   53.2120 H   0  0  0  0  0  0  0  0  0  0  0  0
   58.2347   31.6486   54.4164 H   0  0  0  0  0  0  0  0  0  0  0  0
   57.9555   33.8067   53.2193 H   0  0  0  0  0  0  0  0  0  0  0  0
   58.4499   33.9670   50.7904 H   0  0  0  0  0  0  0  0  0  0  0  0
   59.9740   26.6494   49.4058 H   0  0  0  0  0  0  0  0  0  0  0  0
   60.3892   25.2363   47.3733 H   0  0  0  0  0  0  0  0  0  0  0  0
   60.6647   26.3076   45.1302 H   0  0  0  0  0  0  0  0  0  0  0  0
   60.4774   28.8010   44.8970 H   0  0  0  0  0  0  0  0  0  0  0  0
   60.8333   31.1348   46.7526 H   0  0  0  0  0  0  0  0  0  0  0  0
   59.1410   30.9168   46.4233 H   0  0  0  0  0  0  0  0  0  0  0  0
  1  2  1  0
  2  3  1  0
  3  4  1  0
  4  5  1  0
  5  6  1  0
  6  7  1  0
  7  8  1  0
  8  9  1  0
  9 10  1  0
 10 11  1  0
 11 12  2  0
 12 13  1  0
 13 14  2  0
 14 15  1  0
 14 16  1  0
 16 17  2  0
 17 18  1  0
 18 19  2  0
 19 20  1  0
 20 21  2  0
 13 22  1  0
 22 23  2  0
 23 24  1  0
 24 25  2  0
 25 26  1  0
 26 27  2  0
 27 28  1  0
 21 11  1  0
 27 22  1  0
 28 12  1  0
 21 16  1  0
  1 29  1  0
  1 30  1  0
  1 31  1  0
  2 32  1  0
  2 33  1  0
  3 34  1  0
  4 35  1  0
  4 36  1  0
  5 37  1  0
  5 38  1  0
  6 39  1  0
  6 40  1  0
  7 41  1  0
  8 42  1  0
  8 43  1  0
  9 44  1  0
  9 45  1  0
 10 46  1  0
 10 47  1  0
 15 48  1  0
 15 49  1  0
 15 50  1  0
 17 51  1  0
 18 52  1  0
 19 53  1  0
 20 54  1  0
 23 55  1  0
 24 56  1  0
 25 57  1  0
 26 58  1  0
 28 59  1  0
 28 60  1  0
M  CHG  2  10   1  14   1
M  END
>  <UniqueID>  (11) 
11

>  <SMILES>  (11) 
CCNCCCNCC[NH2+]c1c2c([n+](C)c3ccccc13)-c1ccccc1C2

>  <Energy>  (11) 
99.3545933783787

>  <Genealogy>  (11) 
CCNCCCNCC[NH2+]c1c2c([n+](C)c3ccccc13)-c1ccccc1C2 (protonated)
CCNCCCNCC[NH2+]c1c2c([n+](C)c3ccccc13)-c1ccccc1C2 (3D coordinates assigned)
CCNCCCNCC[NH2+]c1c2c([n+](C)c3ccccc13)-c1ccccc1C2 (nonaromatic ring conformer: 99.3545933783787 kcal/mol)

>  <smiles>  (11) 
CCNCCCNCCNc1c2c([n+](C)c3ccccc13)-c1ccccc1C2

>  <score_type>  (11) 
oracle

>  <origin>  (11) 
adg

>  <m_score__min__energy>  (11) 
-5.1799999999999997

>  <m_primary>  (11) 
energy

$$$$
12:0
     RDKit          3D

 26 27  0  0  0  0  0  0  0  0999 V2000
   55.5340   25.4470   45.9960 C   0  0  0  0  0  0  0  0  0  0  0  0
   55.5580   26.8690   45.9910 O   0  0  0  0  0  0  0  0  0  0  0  0
   56.6660   27.5910   45.5490 C   0  0  0  0  0  0  0  0  0  0  0  0
   57.9740   27.3290   45.9100 C   0  0  0  0  0  0  0  0  0  0  0  0
   58.7020   28.2900   45.2420 C   0  0  0  0  0  0  0  0  0  0  0  0
   60.6020   28.4900   45.3190 Br  0  0  0  0  0  0  0  0  0  0  0  0
   57.8500   29.0570   44.5270 N   0  0  0  0  0  0  0  0  0  0  0  0
   58.1880   30.1840   43.7480 N   0  0  0  0  0  0  0  0  0  0  0  0
   58.0800   31.3650   44.5670 C   0  0  0  0  0  0  0  0  0  0  0  0
   57.4290   32.5140   44.0840 C   0  0  0  0  0  0  0  0  0  0  0  0
   57.3550   33.6660   44.8720 C   0  0  0  0  0  0  0  0  0  0  0  0
   57.9310   33.6840   46.1450 C   0  0  0  0  0  0  0  0  0  0  0  0
   58.5850   32.5500   46.6310 C   0  0  0  0  0  0  0  0  0  0  0  0
   58.6630   31.3940   45.8470 C   0  0  0  0  0  0  0  0  0  0  0  0
   56.6040   28.6470   44.7110 N   0  0  0  0  0  0  0  0  0  0  0  0
   55.5279   25.0840   47.0344 H   0  0  0  0  0  0  0  0  0  0  0  0
   54.6298   25.0937   45.4787 H   0  0  0  0  0  0  0  0  0  0  0  0
   56.4258   25.0634   45.4787 H   0  0  0  0  0  0  0  0  0  0  0  0
   58.3475   26.5372   46.5760 H   0  0  0  0  0  0  0  0  0  0  0  0
   57.5250   30.2480   42.9410 H   0  0  0  0  0  0  0  0  0  0  0  0
   59.1540   30.0730   43.3640 H   0  0  0  0  0  0  0  0  0  0  0  0
   56.9760   32.5062   43.0816 H   0  0  0  0  0  0  0  0  0  0  0  0
   56.8421   34.5606   44.4891 H   0  0  0  0  0  0  0  0  0  0  0  0
   57.8693   34.5912   46.7640 H   0  0  0  0  0  0  0  0  0  0  0  0
   59.0398   32.5657   47.6324 H   0  0  0  0  0  0  0  0  0  0  0  0
   59.1822   30.5043   46.2329 H   0  0  0  0  0  0  0  0  0  0  0  0
  1  2  1  0
  2  3  1  0
  3  4  1  0
  4  5  2  0
  5  6  1  0
  5  7  1  0
  7  8  1  0
  8  9  1  0
  9 10  2  0
 10 11  1  0
 11 12  2  0
 12 13  1  0
 13 14  2  0
  7 15  1  0
 15  3  2  0
 14  9  1  0
  1 16  1  0
  1 17  1  0
  1 18  1  0
  4 19  1  0
  8 20  1  0
  8 21  1  0
 10 22  1  0
 11 23  1  0
 12 24  1  0
 13 25  1  0
 14 26  1  0
M  CHG  1   8   1
M  END
>  <UniqueID>  (12) 
12

>  <SMILES>  (12) 
COc1cc(Br)n([NH2+]c2ccccc2)n1

>  <Energy>  (12) 
56.63106125271467

>  <Genealogy>  (12) 
COc1cc(Br)n([NH2+]c2ccccc2)n1 (protonated)
COc1cc(Br)n([NH2+]c2ccccc2)n1 (3D coordinates assigned)
COc1cc(Br)n([NH2+]c2ccccc2)n1 (optimized conformer: 56.63106125271467 kcal/mol)

>  <smiles>  (12) 
COc1cc(Br)n(Nc2ccccc2)n1

>  <score_type>  (12) 
oracle

>  <origin>  (12) 
adg

>  <m_score__min__energy>  (12) 
-5.0499999999999998

>  <m_primary>  (12) 
energy

$$$$
13:0
     RDKit          3D

 37 39  0  0  0  0  0  0  0  0999 V2000
   55.6910   24.0510   44.5150 C   0  0  0  0  0  0  0  0  0  0  0  0
   54.9350   24.7460   45.6510 C   0  0  0  0  0  0  0  0  0  0  0  0
   55.5170   26.0560   45.9920 N   0  0  0  0  0  0  0  0  0  0  0  0
   56.9100   25.9530   46.4550 C   0  0  0  0  0  0  0  0  0  0  0  0
   57.8720   26.3100   45.3200 C   0  0  0  0  0  0  0  0  0  0  0  0
   57.8390   27.7590   45.0640 N   0  0  0  0  0  0  0  0  0  0  0  0
   57.1810   28.2150   43.9900 N   0  0  0  0  0  0  0  0  0  0  0  0
   57.1390   29.5130   43.6950 N   0  0  0  0  0  0  0  0  0  0  0  0
   57.7680   30.4290   44.4670 C   0  0  0  0  0  0  0  0  0  0  0  0
   57.7120   31.7890   44.1340 C   0  0  0  0  0  0  0  0  0  0  0  0
   58.3780   32.7260   44.9280 C   0  0  0  0  0  0  0  0  0  0  0  0
   59.0750   32.3110   46.0720 C   0  0  0  0  0  0  0  0  0  0  0  0
   59.1460   30.9540   46.4000 C   0  0  0  0  0  0  0  0  0  0  0  0
   58.4870   30.0030   45.5960 C   0  0  0  0  0  0  0  0  0  0  0  0
   58.5140   28.6310   45.8790 C   0  0  0  0  0  0  0  0  0  0  0  0
   59.1590   28.2030   46.8770 O   0  0  0  0  0  0  0  0  0  0  0  0
   59.6960   33.2730   46.8750 O   0  0  0  0  0  0  0  0  0  0  0  0
   59.4080   34.6650   46.7160 C   0  0  0  0  0  0  0  0  0  0  0  0
   59.2510   35.0080   45.2280 C   0  0  0  0  0  0  0  0  0  0  0  0
   58.3620   34.0840   44.5980 O   0  0  0  0  0  0  0  0  0  0  0  0
   56.4384   23.3639   44.9385 H   0  0  0  0  0  0  0  0  0  0  0  0
   54.9810   23.4837   43.8953 H   0  0  0  0  0  0  0  0  0  0  0  0
   56.1967   24.8061   43.8953 H   0  0  0  0  0  0  0  0  0  0  0  0
   53.8897   24.8932   45.3419 H   0  0  0  0  0  0  0  0  0  0  0  0
   55.0044   24.1051   46.5423 H   0  0  0  0  0  0  0  0  0  0  0  0
   55.4770   26.6870   45.1570 H   0  0  0  0  0  0  0  0  0  0  0  0
   57.0659   26.6460   47.2949 H   0  0  0  0  0  0  0  0  0  0  0  0
   57.1050   24.9201   46.7791 H   0  0  0  0  0  0  0  0  0  0  0  0
   58.8931   26.0138   45.6022 H   0  0  0  0  0  0  0  0  0  0  0  0
   57.5654   25.7768   44.4080 H   0  0  0  0  0  0  0  0  0  0  0  0
   56.6840   27.5490   43.3550 H   0  0  0  0  0  0  0  0  0  0  0  0
   57.1455   32.1178   43.2503 H   0  0  0  0  0  0  0  0  0  0  0  0
   59.7150   30.6294   47.2837 H   0  0  0  0  0  0  0  0  0  0  0  0
   58.4738   34.9053   47.2447 H   0  0  0  0  0  0  0  0  0  0  0  0
   60.2384   35.2530   47.1339 H   0  0  0  0  0  0  0  0  0  0  0  0
   58.8452   36.0258   45.1309 H   0  0  0  0  0  0  0  0  0  0  0  0
   60.2353   34.9470   44.7406 H   0  0  0  0  0  0  0  0  0  0  0  0
  1  2  1  0
  2  3  1  0
  3  4  1  0
  4  5  1  0
  5  6  1  0
  6  7  1  0
  7  8  2  0
  8  9  1  0
  9 10  2  0
 10 11  1  0
 11 12  2  0
 12 13  1  0
 13 14  2  0
 14 15  1  0
 15 16  2  0
 12 17  1  0
 17 18  1  0
 18 19  1  0
 19 20  1  0
 15  6  1  0
 14  9  1  0
 20 11  1  0
  1 21  1  0
  1 22  1  0
  1 23  1  0
  2 24  1  0
  2 25  1  0
  3 26  1  0
  4 27  1  0
  4 28  1  0
  5 29  1  0
  5 30  1  0
  7 31  1  0
 10 32  1  0
 13 33  1  0
 18 34  1  0
 18 35  1  0
 19 36  1  0
 19 37  1  0
M  CHG  1   7   1
M  END
>  <UniqueID>  (13) 
13

>  <SMILES>  (13) 
CCNCCn1[nH+]nc2cc3c(cc2c1=O)OCCO3

>  <Energy>  (13) 
41.43144426097441

>  <Genealogy>  (13) 
CCNCCn1[nH+]nc2cc3c(cc2c1=O)OCCO3 (protonated)
CCNCCn1[nH+]nc2cc3c(cc2c1=O)OCCO3 (3D coordinates assigned)
CCNCCn1[nH+]nc2cc3c(cc2c1=O)OCCO3 (nonaromatic ring conformer: 41.43144426097441 kcal/mol)

>  <smiles>  (13) 
CCNCCn1nnc2cc3c(cc2c1=O)OCCO3

>  <score_type>  (13) 
oracle

>  <origin>  (13) 
adg

>  <m_score__min__energy>  (13) 
-5.6299999999999999

>  <m_primary>  (13) 
energy

$$$$
14:0
     RDKit          3D

 52 54  0  0  0  0  0  0  0  0999 V2000
   56.7810   30.8970   43.2830 C   0  0  0  0  0  0  0  0  0  0  0  0
   56.2940   30.5440   44.5570 O   0  0  0  0  0  0  0  0  0  0  0  0
   56.3600   29.1420   44.7120 C   0  0  0  0  0  0  0  0  0  0  0  0
   57.4170   28.5860   43.7590 C   0  0  0  0  0  0  0  0  0  0  0  0
   58.0410   27.2710   44.2490 C   0  0  0  0  0  0  0  0  0  0  0  0
   59.0250   27.5210   45.3330 N   0  0  0  0  0  0  0  0  0  0  0  0
   60.0690   28.4890   44.9300 C   0  0  0  0  0  0  0  0  0  0  0  0
   59.9930   29.7230   45.8320 C   0  0  0  0  0  0  0  0  0  0  0  0
   60.7330   29.5530   47.1610 C   0  0  0  0  0  0  0  0  0  0  0  0
   59.8330   29.0610   48.2310 N   0  0  0  0  0  0  0  0  0  0  0  0
   58.8570   30.0950   48.6530 C   0  0  0  0  0  0  0  0  0  0  0  0
   58.8520   31.3250   47.7640 C   0  0  0  0  0  0  0  0  0  0  0  0
   57.8970   31.5330   46.8210 N   0  0  0  0  0  0  0  0  0  0  0  0
   58.2050   32.7210   46.2820 C   0  0  0  0  0  0  0  0  0  0  0  0
   57.5310   33.4110   45.2760 C   0  0  0  0  0  0  0  0  0  0  0  0
   58.0460   34.6600   44.8840 C   0  0  0  0  0  0  0  0  0  0  0  0
   59.2080   35.1810   45.5000 C   0  0  0  0  0  0  0  0  0  0  0  0
   59.8650   34.4550   46.5130 C   0  0  0  0  0  0  0  0  0  0  0  0
   59.3290   33.2170   46.8760 C   0  0  0  0  0  0  0  0  0  0  0  0
   59.7650   32.3420   47.8040 N   0  0  0  0  0  0  0  0  0  0  0  0
   60.9340   32.5130   48.6690 C   0  0  0  0  0  0  0  0  0  0  0  0
   59.1730   27.7890   47.8530 C   0  0  0  0  0  0  0  0  0  0  0  0
   58.3290   27.9330   46.5740 C   0  0  0  0  0  0  0  0  0  0  0  0
   57.6671   31.5393   43.3942 H   0  0  0  0  0  0  0  0  0  0  0  0
   57.0552   29.9865   42.7300 H   0  0  0  0  0  0  0  0  0  0  0  0
   56.0010   31.4409   42.7300 H   0  0  0  0  0  0  0  0  0  0  0  0
   56.6335   28.8980   45.7491 H   0  0  0  0  0  0  0  0  0  0  0  0
   55.3810   28.6960   44.4826 H   0  0  0  0  0  0  0  0  0  0  0  0
   56.9464   28.4067   42.7810 H   0  0  0  0  0  0  0  0  0  0  0  0
   58.2258   29.3291   43.6981 H   0  0  0  0  0  0  0  0  0  0  0  0
   57.2446   26.6149   44.6302 H   0  0  0  0  0  0  0  0  0  0  0  0
   58.5619   26.7943   43.4056 H   0  0  0  0  0  0  0  0  0  0  0  0
   61.0602   28.0224   45.0291 H   0  0  0  0  0  0  0  0  0  0  0  0
   59.9087   28.7881   43.8837 H   0  0  0  0  0  0  0  0  0  0  0  0
   60.4340   30.5753   45.2943 H   0  0  0  0  0  0  0  0  0  0  0  0
   58.9315   29.8851   46.0706 H   0  0  0  0  0  0  0  0  0  0  0  0
   61.5513   28.8308   47.0235 H   0  0  0  0  0  0  0  0  0  0  0  0
   61.1216   30.5361   47.4651 H   0  0  0  0  0  0  0  0  0  0  0  0
   57.8509   29.6505   48.6373 H   0  0  0  0  0  0  0  0  0  0  0  0
   59.1527   30.4258   49.6595 H   0  0  0  0  0  0  0  0  0  0  0  0
   57.0970   30.9130   46.5640 H   0  0  0  0  0  0  0  0  0  0  0  0
   56.6285   32.9938   44.8053 H   0  0  0  0  0  0  0  0  0  0  0  0
   57.5419   35.2352   44.0934 H   0  0  0  0  0  0  0  0  0  0  0  0
   59.6011   36.1592   45.1861 H   0  0  0  0  0  0  0  0  0  0  0  0
   60.7685   34.8492   47.0011 H   0  0  0  0  0  0  0  0  0  0  0  0
   60.6205   32.4671   49.7224 H   0  0  0  0  0  0  0  0  0  0  0  0
   61.6598   31.7115   48.4672 H   0  0  0  0  0  0  0  0  0  0  0  0
   61.3998   33.4888   48.4672 H   0  0  0  0  0  0  0  0  0  0  0  0
   59.9459   27.0248   47.6838 H   0  0  0  0  0  0  0  0  0  0  0  0
   58.4992   27.5000   48.6730 H   0  0  0  0  0  0  0  0  0  0  0  0
   57.4273   27.3129   46.6850 H   0  0  0  0  0  0  0  0  0  0  0  0
   58.1018   29.0039   46.4662 H   0  0  0  0  0  0  0  0  0  0  0  0
  1  2  1  0
  2  3  1  0
  3  4  1  0
  4  5  1  0
  5  6  1  0
  6  7  1  0
  7  8  1  0
  8  9  1  0
  9 10  1  0
 10 11  1  0
 11 12  1  0
 12 13  2  0
 13 14  1  0
 14 15  2  0
 15 16  1  0
 16 17  2  0
 17 18  1  0
 18 19  2  0
 19 20  1  0
 20 21  1  0
 10 22  1  0
 22 23  1  0
 23  6  1  0
 20 12  1  0
 19 14  1  0
  1 24  1  0
  1 25  1  0
  1 26  1  0
  3 27  1  0
  3 28  1  0
  4 29  1  0
  4 30  1  0
  5 31  1  0
  5 32  1  0
  7 33  1  0
  7 34  1  0
  8 35  1  0
  8 36  1  0
  9 37  1  0
  9 38  1  0
 11 39  1  0
 11 40  1  0
 13 41  1  0
 15 42  1  0
 16 43  1  0
 17 44  1  0
 18 45  1  0
 21 46  1  0
 21 47  1  0
 21 48  1  0
 22 49  1  0
 22 50  1  0
 23 51  1  0
 23 52  1  0
M  CHG  1  13   1
M  END
>  <UniqueID>  (14) 
14

>  <SMILES>  (14) 
COCCCN1CCCN(Cc2[nH+]c3ccccc3n2C)CC1

>  <Energy>  (14) 
101.50365926758874

>  <Genealogy>  (14) 
COCCCN1CCCN(Cc2[nH+]c3ccccc3n2C)CC1 (protonated)
COCCCN1CCCN(Cc2[nH+]c3ccccc3n2C)CC1 (3D coordinates assigned)
COCCCN1CCCN(Cc2[nH+]c3ccccc3n2C)CC1 (nonaromatic ring conformer: 101.50365926758874 kcal/mol)

>  <smiles>  (14) 
COCCCN1CCCN(Cc2nc3ccccc3n2C)CC1

>  <score_type>  (14) 
oracle

>  <origin>  (14) 
adg

>  <m_score__min__energy>  (14) 
-3.52

>  <m_primary>  (14) 
energy

$$$$
15:0
     RDKit          3D

 53 57  0  0  0  0  0  0  0  0999 V2000
   56.3510   29.8710   42.7740 C   0  0  0  0  0  0  0  0  0  0  0  0
   55.6910   30.3040   44.0770 C   0  0  0  0  0  0  0  0  0  0  0  0
   55.8250   29.2440   45.0840 N   0  0  0  0  0  0  0  0  0  0  0  0
   57.0590   28.4700   44.8830 C   0  0  0  0  0  0  0  0  0  0  0  0
   58.2590   29.2330   45.4410 C   0  0  0  0  0  0  0  0  0  0  0  0
   57.8080   30.3870   46.2160 N   0  0  0  0  0  0  0  0  0  0  0  0
   58.7370   31.1600   46.9890 C   0  0  0  0  0  0  0  0  0  0  0  0
   59.4610   30.5690   48.0210 C   0  0  0  0  0  0  0  0  0  0  0  0
   60.3980   31.2840   48.7480 C   0  0  0  0  0  0  0  0  0  0  0  0
   60.5590   32.6350   48.5820 N   0  0  0  0  0  0  0  0  0  0  0  0
   61.2980   33.4180   49.5860 C   0  0  0  0  0  0  0  0  0  0  0  0
   59.9440   33.2460   47.4990 C   0  0  0  0  0  0  0  0  0  0  0  0
   60.2430   34.5800   47.1320 C   0  0  0  0  0  0  0  0  0  0  0  0
   59.5960   35.1940   46.0590 C   0  0  0  0  0  0  0  0  0  0  0  0
   58.6470   34.4950   45.3190 C   0  0  0  0  0  0  0  0  0  0  0  0
   58.3520   33.1690   45.6290 C   0  0  0  0  0  0  0  0  0  0  0  0
   58.9960   32.5200   46.7030 C   0  0  0  0  0  0  0  0  0  0  0  0
   61.0090   30.3530   49.7270 C   0  0  0  0  0  0  0  0  0  0  0  0
   62.1300   30.4990   50.4880 N   0  0  0  0  0  0  0  0  0  0  0  0
   62.5680   29.4530   51.2610 C   0  0  0  0  0  0  0  0  0  0  0  0
   63.6980   29.6000   52.0790 C   0  0  0  0  0  0  0  0  0  0  0  0
   64.1490   28.5300   52.8570 C   0  0  0  0  0  0  0  0  0  0  0  0
   63.4810   27.3010   52.8230 C   0  0  0  0  0  0  0  0  0  0  0  0
   62.3590   27.1310   52.0070 C   0  0  0  0  0  0  0  0  0  0  0  0
   61.8920   28.1970   51.2220 C   0  0  0  0  0  0  0  0  0  0  0  0
   60.7890   28.0330   50.3690 C   0  0  0  0  0  0  0  0  0  0  0  0
   60.3750   29.1300   49.6230 C   0  0  0  0  0  0  0  0  0  0  0  0
   59.3810   29.2140   48.5680 C   0  0  0  0  0  0  0  0  0  0  0  0
   58.5890   28.2990   48.2170 O   0  0  0  0  0  0  0  0  0  0  0  0
   57.2515   29.2802   42.9978 H   0  0  0  0  0  0  0  0  0  0  0  0
   55.6464   29.2591   42.1917 H   0  0  0  0  0  0  0  0  0  0  0  0
   56.6317   30.7610   42.1917 H   0  0  0  0  0  0  0  0  0  0  0  0
   56.1771   31.2196   44.4449 H   0  0  0  0  0  0  0  0  0  0  0  0
   54.6234   30.4961   43.8947 H   0  0  0  0  0  0  0  0  0  0  0  0
   55.8880   29.7070   46.0220 H   0  0  0  0  0  0  0  0  0  0  0  0
   56.9701   27.5039   45.4014 H   0  0  0  0  0  0  0  0  0  0  0  0
   57.2079   28.3066   43.8054 H   0  0  0  0  0  0  0  0  0  0  0  0
   58.8439   28.5653   46.0907 H   0  0  0  0  0  0  0  0  0  0  0  0
   58.8815   29.5837   44.6047 H   0  0  0  0  0  0  0  0  0  0  0  0
   56.8850   30.8110   45.9700 H   0  0  0  0  0  0  0  0  0  0  0  0
   60.9966   33.0986   50.5945 H   0  0  0  0  0  0  0  0  0  0  0  0
   62.3780   33.2537   49.4568 H   0  0  0  0  0  0  0  0  0  0  0  0
   61.0716   34.4867   49.4568 H   0  0  0  0  0  0  0  0  0  0  0  0
   60.9977   35.1418   47.7020 H   0  0  0  0  0  0  0  0  0  0  0  0
   59.8370   36.2348   45.7969 H   0  0  0  0  0  0  0  0  0  0  0  0
   58.1277   34.9914   44.4860 H   0  0  0  0  0  0  0  0  0  0  0  0
   57.6089   32.6225   45.0297 H   0  0  0  0  0  0  0  0  0  0  0  0
   62.6880   31.3790   50.4570 H   0  0  0  0  0  0  0  0  0  0  0  0
   64.2315   30.5615   52.1083 H   0  0  0  0  0  0  0  0  0  0  0  0
   65.0334   28.6547   53.4991 H   0  0  0  0  0  0  0  0  0  0  0  0
   63.8404   26.4651   53.4411 H   0  0  0  0  0  0  0  0  0  0  0  0
   61.8413   26.1608   51.9799 H   0  0  0  0  0  0  0  0  0  0  0  0
   60.2689   27.0667   50.2935 H   0  0  0  0  0  0  0  0  0  0  0  0
  1  2  1  0
  2  3  1  0
  3  4  1  0
  4  5  1  0
  5  6  1  0
  6  7  1  0
  7  8  2  0
  8  9  1  0
  9 10  2  0
 10 11  1  0
 10 12  1  0
 12 13  2  0
 13 14  1  0
 14 15  2  0
 15 16  1  0
 16 17  2  0
  9 18  1  0
 18 19  2  0
 19 20  1  0
 20 21  2  0
 21 22  1  0
 22 23  2  0
 23 24  1  0
 24 25  2  0
 25 26  1  0
 26 27  2  0
 27 28  1  0
 28 29  2  0
 17  7  1  0
 27 18  1  0
 28  8  1  0
 17 12  1  0
 25 20  1  0
  1 30  1  0
  1 31  1  0
  1 32  1  0
  2 33  1  0
  2 34  1  0
  3 35  1  0
  4 36  1  0
  4 37  1  0
  5 38  1  0
  5 39  1  0
  6 40  1  0
 11 41  1  0
 11 42  1  0
 11 43  1  0
 13 44  1  0
 14 45  1  0
 15 46  1  0
 16 47  1  0
 19 48  1  0
 21 49  1  0
 22 50  1  0
 23 51  1  0
 24 52  1  0
 26 53  1  0
M  CHG  2  10   1  19   1
M  END
>  <UniqueID>  (15) 
15

>  <SMILES>  (15) 
CCNCCNc1c2c([n+](C)c3ccccc13)-c1[nH+]c3ccccc3cc1C2=O

>  <Energy>  (15) 
111.37895539563854

>  <Genealogy>  (15) 
CCNCCNc1c2c([n+](C)c3ccccc13)-c1[nH+]c3ccccc3cc1C2=O (protonated)
CCNCCNc1c2c([n+](C)c3ccccc13)-c1[nH+]c3ccccc3cc1C2=O (3D coordinates assigned)
CCNCCNc1c2c([n+](C)c3ccccc13)-c1[nH+]c3ccccc3cc1C2=O (nonaromatic ring conformer: 111.37895539563854 kcal/mol)

>  <smiles>  (15) 
CCNCCNc1c2c([n+](C)c3ccccc13)-c1nc3ccccc3cc1C2=O

>  <score_type>  (15) 
oracle

>  <origin>  (15) 
adg

>  <m_score__min__energy>  (15) 
-6.1299999999999999

>  <m_primary>  (15) 
energy

$$$$
16:0
     RDKit          3D

 44 46  0  0  0  0  0  0  0  0999 V2000
   56.2780   29.7190   42.6320 C   0  0  0  0  0  0  0  0  0  0  0  0
   55.8080   29.8890   44.0710 C   0  0  0  0  0  0  0  0  0  0  0  0
   56.3080   31.1560   44.6160 N   0  0  0  0  0  0  0  0  0  0  0  0
   57.5870   31.5470   44.0000 C   0  0  0  0  0  0  0  0  0  0  0  0
   58.5250   32.1300   45.0630 C   0  0  0  0  0  0  0  0  0  0  0  0
   57.9380   32.0370   46.4110 N   0  0  0  0  0  0  0  0  0  0  0  0
   58.8530   31.3620   47.3190 C   0  0  0  0  0  0  0  0  0  0  0  0
   58.9060   29.9430   47.3680 C   0  0  0  0  0  0  0  0  0  0  0  0
   57.9910   29.1380   46.6440 C   0  0  0  0  0  0  0  0  0  0  0  0
   58.1160   27.7500   46.6170 C   0  0  0  0  0  0  0  0  0  0  0  0
   56.9790   26.7830   45.6950 Cl  0  0  0  0  0  0  0  0  0  0  0  0
   59.1510   27.1350   47.3060 C   0  0  0  0  0  0  0  0  0  0  0  0
   60.0330   27.8950   48.0680 C   0  0  0  0  0  0  0  0  0  0  0  0
   59.8970   29.3040   48.1650 C   0  0  0  0  0  0  0  0  0  0  0  0
   60.7090   30.0470   48.9990 N   0  0  0  0  0  0  0  0  0  0  0  0
   61.5160   29.3660   50.0390 C   0  0  0  0  0  0  0  0  0  0  0  0
   60.7270   31.4240   48.9070 C   0  0  0  0  0  0  0  0  0  0  0  0
   61.7160   32.1940   49.5750 C   0  0  0  0  0  0  0  0  0  0  0  0
   61.6760   33.5870   49.5680 C   0  0  0  0  0  0  0  0  0  0  0  0
   62.9030   34.5070   50.4200 Cl  0  0  0  0  0  0  0  0  0  0  0  0
   60.6570   34.2460   48.8960 C   0  0  0  0  0  0  0  0  0  0  0  0
   59.7070   33.5230   48.1820 C   0  0  0  0  0  0  0  0  0  0  0  0
   59.7530   32.1070   48.1270 C   0  0  0  0  0  0  0  0  0  0  0  0
   57.3124   29.3449   42.6259 H   0  0  0  0  0  0  0  0  0  0  0  0
   55.6250   29.0001   42.1155 H   0  0  0  0  0  0  0  0  0  0  0  0
   56.2360   30.6893   42.1155 H   0  0  0  0  0  0  0  0  0  0  0  0
   54.7083   29.8899   44.0973 H   0  0  0  0  0  0  0  0  0  0  0  0
   56.1951   29.0572   44.6778 H   0  0  0  0  0  0  0  0  0  0  0  0
   55.5990   31.9000   44.4130 H   0  0  0  0  0  0  0  0  0  0  0  0
   58.0573   30.6629   43.5448 H   0  0  0  0  0  0  0  0  0  0  0  0
   57.3982   32.3083   43.2287 H   0  0  0  0  0  0  0  0  0  0  0  0
   59.4734   31.5730   45.0470 H   0  0  0  0  0  0  0  0  0  0  0  0
   58.6908   33.1925   44.8315 H   0  0  0  0  0  0  0  0  0  0  0  0
   57.0140   31.5520   46.3720 H   0  0  0  0  0  0  0  0  0  0  0  0
   57.6860   32.9820   46.7730 H   0  0  0  0  0  0  0  0  0  0  0  0
   57.1678   29.6171   46.0938 H   0  0  0  0  0  0  0  0  0  0  0  0
   59.2748   26.0434   47.2498 H   0  0  0  0  0  0  0  0  0  0  0  0
   60.8514   27.3938   48.6055 H   0  0  0  0  0  0  0  0  0  0  0  0
   61.1595   29.6669   51.0352 H   0  0  0  0  0  0  0  0  0  0  0  0
   61.4145   28.2764   49.9269 H   0  0  0  0  0  0  0  0  0  0  0  0
   62.5730   29.6493   49.9269 H   0  0  0  0  0  0  0  0  0  0  0  0
   62.5296   31.6807   50.1084 H   0  0  0  0  0  0  0  0  0  0  0  0
   60.6000   35.3441   48.9278 H   0  0  0  0  0  0  0  0  0  0  0  0
   58.9065   34.0590   47.6510 H   0  0  0  0  0  0  0  0  0  0  0  0
  1  2  1  0
  2  3  1  0
  3  4  1  0
  4  5  1  0
  5  6  1  0
  6  7  1  0
  7  8  2  0
  8  9  1  0
  9 10  2  0
 10 11  1  0
 10 12  1  0
 12 13  2  0
 13 14  1  0
 14 15  2  0
 15 16  1  0
 15 17  1  0
 17 18  2  0
 18 19  1  0
 19 20  1  0
 19 21  2  0
 21 22  1  0
 22 23  2  0
 23  7  1  0
 14  8  1  0
 23 17  1  0
  1 24  1  0
  1 25  1  0
  1 26  1  0
  2 27  1  0
  2 28  1  0
  3 29  1  0
  4 30  1  0
  4 31  1  0
  5 32  1  0
  5 33  1  0
  6 34  1  0
  6 35  1  0
  9 36  1  0
 12 37  1  0
 13 38  1  0
 16 39  1  0
 16 40  1  0
 16 41  1  0
 18 42  1  0
 21 43  1  0
 22 44  1  0
M  CHG  2   6   1  15   1
M  END
>  <UniqueID>  (16) 
16

>  <SMILES>  (16) 
CCNCC[NH2+]c1c2cc(Cl)ccc2[n+](C)c2cc(Cl)ccc12

>  <Energy>  (16) 
69.73932148921827

>  <Genealogy>  (16) 
CCNCC[NH2+]c1c2cc(Cl)ccc2[n+](C)c2cc(Cl)ccc12 (protonated)
CCNCC[NH2+]c1c2cc(Cl)ccc2[n+](C)c2cc(Cl)ccc12 (3D coordinates assigned)
CCNCC[NH2+]c1c2cc(Cl)ccc2[n+](C)c2cc(Cl)ccc12 (optimized conformer: 69.73932148921827 kcal/mol)

>  <smiles>  (16) 
CCNCCNc1c2cc(Cl)ccc2[n+](C)c2cc(Cl)ccc12

>  <score_type>  (16) 
oracle

>  <origin>  (16) 
adg

>  <m_score__min__energy>  (16) 
-3.9900000000000002

>  <m_primary>  (16) 
energy

$$$$
17:0
     RDKit          3D

 45 46  0  0  0  0  0  0  0  0999 V2000
   57.0160   30.8520   42.8830 C   0  0  0  0  0  0  0  0  0  0  0  0
   56.2040   30.4640   44.1140 C   0  0  0  0  0  0  0  0  0  0  0  0
   57.0430   30.3800   45.2520 O   0  0  0  0  0  0  0  0  0  0  0  0
   58.4070   30.2830   44.8830 C   0  0  0  0  0  0  0  0  0  0  0  0
   59.0250   29.0120   45.4750 C   0  0  0  0  0  0  0  0  0  0  0  0
   58.8130   28.9460   46.9900 C   0  0  0  0  0  0  0  0  0  0  0  0
   58.6780   30.2910   47.5480 N   0  0  0  0  0  0  0  0  0  0  0  0
   59.3530   30.6980   48.7480 C   0  0  0  0  0  0  0  0  0  0  0  0
   60.0730   29.8800   49.3820 O   0  0  0  0  0  0  0  0  0  0  0  0
   59.2100   32.1000   49.2600 C   0  0  0  0  0  0  0  0  0  0  0  0
   59.5840   33.0630   48.2220 N   0  0  0  0  0  0  0  0  0  0  0  0
   60.7650   33.7210   48.0780 C   0  0  0  0  0  0  0  0  0  0  0  0
   62.1580   33.5420   49.1970 S   0  0  0  0  0  0  0  0  0  0  0  0
   63.4050   33.4400   47.8670 C   0  0  0  0  0  0  0  0  0  0  0  0
   63.3590   32.0780   47.1900 C   0  0  0  0  0  0  0  0  0  0  0  0
   60.8060   34.5330   46.9900 N   0  0  0  0  0  0  0  0  0  0  0  0
   59.5960   34.3490   46.4320 C   0  0  0  0  0  0  0  0  0  0  0  0
   59.1010   34.9340   45.2690 C   0  0  0  0  0  0  0  0  0  0  0  0
   57.8020   34.5820   44.8600 C   0  0  0  0  0  0  0  0  0  0  0  0
   57.0390   33.6610   45.6140 C   0  0  0  0  0  0  0  0  0  0  0  0
   57.5670   33.0870   46.7850 C   0  0  0  0  0  0  0  0  0  0  0  0
   58.8580   33.4620   47.1630 C   0  0  0  0  0  0  0  0  0  0  0  0
   57.9667   31.3063   43.1991 H   0  0  0  0  0  0  0  0  0  0  0  0
   57.2208   29.9544   42.2810 H   0  0  0  0  0  0  0  0  0  0  0  0
   56.4463   31.5752   42.2810 H   0  0  0  0  0  0  0  0  0  0  0  0
   55.4283   31.2236   44.2908 H   0  0  0  0  0  0  0  0  0  0  0  0
   55.7389   29.4824   43.9401 H   0  0  0  0  0  0  0  0  0  0  0  0
   58.4854   30.2486   43.7863 H   0  0  0  0  0  0  0  0  0  0  0  0
   58.9473   31.1594   45.2703 H   0  0  0  0  0  0  0  0  0  0  0  0
   58.5549   28.1337   45.0085 H   0  0  0  0  0  0  0  0  0  0  0  0
   60.1066   29.0254   45.2753 H   0  0  0  0  0  0  0  0  0  0  0  0
   57.8988   28.3725   47.2028 H   0  0  0  0  0  0  0  0  0  0  0  0
   59.6840   28.4562   47.4498 H   0  0  0  0  0  0  0  0  0  0  0  0
   58.1180   30.9930   47.0150 H   0  0  0  0  0  0  0  0  0  0  0  0
   58.1647   32.2732   49.5554 H   0  0  0  0  0  0  0  0  0  0  0  0
   59.8745   32.2331   50.1264 H   0  0  0  0  0  0  0  0  0  0  0  0
   63.2012   34.2215   47.1202 H   0  0  0  0  0  0  0  0  0  0  0  0
   64.4032   33.5830   48.3064 H   0  0  0  0  0  0  0  0  0  0  0  0
   63.3323   31.2887   47.9557 H   0  0  0  0  0  0  0  0  0  0  0  0
   62.4581   32.0107   46.5625 H   0  0  0  0  0  0  0  0  0  0  0  0
   64.2533   31.9501   46.5625 H   0  0  0  0  0  0  0  0  0  0  0  0
   59.7056   35.6474   44.6897 H   0  0  0  0  0  0  0  0  0  0  0  0
   57.3771   35.0261   43.9477 H   0  0  0  0  0  0  0  0  0  0  0  0
   56.0253   33.3913   45.2827 H   0  0  0  0  0  0  0  0  0  0  0  0
   56.9843   32.3692   47.3809 H   0  0  0  0  0  0  0  0  0  0  0  0
  1  2  1  0
  2  3  1  0
  3  4  1  0
  4  5  1  0
  5  6  1  0
  6  7  1  0
  7  8  1  0
  8  9  2  0
  8 10  1  0
 10 11  1  0
 11 12  1  0
 12 13  1  0
 13 14  1  0
 14 15  1  0
 12 16  2  0
 16 17  1  0
 17 18  2  0
 18 19  1  0
 19 20  2  0
 20 21  1  0
 21 22  2  0
 22 11  1  0
 22 17  1  0
  1 23  1  0
  1 24  1  0
  1 25  1  0
  2 26  1  0
  2 27  1  0
  4 28  1  0
  4 29  1  0
  5 30  1  0
  5 31  1  0
  6 32  1  0
  6 33  1  0
  7 34  1  0
 10 35  1  0
 10 36  1  0
 14 37  1  0
 14 38  1  0
 15 39  1  0
 15 40  1  0
 15 41  1  0
 18 42  1  0
 19 43  1  0
 20 44  1  0
 21 45  1  0
M  END
>  <UniqueID>  (17) 
17

>  <SMILES>  (17) 
CCOCCCNC(=O)Cn1c(SCC)nc2ccccc21

>  <Energy>  (17) 
66.43712881669329

>  <Genealogy>  (17) 
CCOCCCNC(=O)Cn1c(SCC)nc2ccccc21 (3D coordinates assigned)
CCOCCCNC(=O)Cn1c(SCC)nc2ccccc21 (optimized conformer: 66.43712881669329 kcal/mol)

>  <smiles>  (17) 
CCOCCCNC(=O)Cn1c(SCC)nc2ccccc21

>  <score_type>  (17) 
oracle

>  <origin>  (17) 
adg

>  <m_score__min__energy>  (17) 
-6.3799999999999999

>  <m_primary>  (17) 
energy

$$$$
18:0
     RDKit          3D

 81 84  0  0  0  0  0  0  0  0999 V2000
   64.3570   32.4530   49.3880 C   0  0  0  0  0  0  0  0  0  0  0  0
   62.9240   31.9550   49.5280 C   0  0  0  0  0  0  0  0  0  0  0  0
   62.0850   32.5360   48.4710 N   0  0  0  0  0  0  0  0  0  0  0  0
   62.8510   32.7480   47.2330 C   0  0  0  0  0  0  0  0  0  0  0  0
   62.1880   33.8200   46.3670 C   0  0  0  0  0  0  0  0  0  0  0  0
   61.0390   34.3900   47.0850 N   0  0  0  0  0  0  0  0  0  0  0  0
   59.9830   34.8310   46.1620 C   0  0  0  0  0  0  0  0  0  0  0  0
   58.5850   34.5480   46.7340 C   0  0  0  0  0  0  0  0  0  0  0  0
   58.3610   33.0510   46.9960 C   0  0  0  0  0  0  0  0  0  0  0  0
   59.5340   32.2680   46.5740 N   0  0  0  0  0  0  0  0  0  0  0  0
   59.1750   30.8800   46.3300 C   0  0  0  0  0  0  0  0  0  0  0  0
   58.4060   30.5190   45.1940 C   0  0  0  0  0  0  0  0  0  0  0  0
   57.8100   31.4950   44.3580 C   0  0  0  0  0  0  0  0  0  0  0  0
   57.0300   31.1280   43.2660 C   0  0  0  0  0  0  0  0  0  0  0  0
   56.8050   29.7870   42.9910 C   0  0  0  0  0  0  0  0  0  0  0  0
   57.3780   28.8030   43.7920 C   0  0  0  0  0  0  0  0  0  0  0  0
   58.2150   29.1430   44.8870 C   0  0  0  0  0  0  0  0  0  0  0  0
   58.8290   28.1700   45.6500 N   0  0  0  0  0  0  0  0  0  0  0  0
   58.9030   26.7760   45.1510 C   0  0  0  0  0  0  0  0  0  0  0  0
   59.3790   28.4960   46.8740 C   0  0  0  0  0  0  0  0  0  0  0  0
   59.7550   27.4940   47.8050 C   0  0  0  0  0  0  0  0  0  0  0  0
   60.3460   27.8210   49.0220 C   0  0  0  0  0  0  0  0  0  0  0  0
   60.5430   29.1590   49.3720 C   0  0  0  0  0  0  0  0  0  0  0  0
   61.1260   29.5430   50.5860 O   0  0  0  0  0  0  0  0  0  0  0  0
   60.4950   29.4470   51.8580 C   0  0  0  0  0  0  0  0  0  0  0  0
   60.3470   30.8420   52.5080 C   0  0  0  0  0  0  0  0  0  0  0  0
   58.9600   31.4300   52.5650 N   0  0  0  0  0  0  0  0  0  0  0  0
   58.2240   30.8290   53.7100 C   0  0  0  0  0  0  0  0  0  0  0  0
   58.2230   31.0640   51.3000 C   0  0  0  0  0  0  0  0  0  0  0  0
   58.1630   32.1740   50.2230 C   0  0  0  0  0  0  0  0  0  0  0  0
   59.4040   33.0610   50.2230 C   0  0  0  0  0  0  0  0  0  0  0  0
   59.6680   33.6730   51.6080 C   0  0  0  0  0  0  0  0  0  0  0  0
   58.9580   32.9110   52.7490 C   0  0  0  0  0  0  0  0  0  0  0  0
   60.1380   30.1620   48.4930 C   0  0  0  0  0  0  0  0  0  0  0  0
   59.5670   29.8590   47.2350 C   0  0  0  0  0  0  0  0  0  0  0  0
   64.7919   32.6041   50.3870 H   0  0  0  0  0  0  0  0  0  0  0  0
   64.9517   31.7088   48.8380 H   0  0  0  0  0  0  0  0  0  0  0  0
   64.3620   33.4056   48.8380 H   0  0  0  0  0  0  0  0  0  0  0  0
   62.9095   30.8584   49.4432 H   0  0  0  0  0  0  0  0  0  0  0  0
   62.5304   32.2584   50.5093 H   0  0  0  0  0  0  0  0  0  0  0  0
   61.7590   33.4740   48.8070 H   0  0  0  0  0  0  0  0  0  0  0  0
   63.8709   33.0703   47.4896 H   0  0  0  0  0  0  0  0  0  0  0  0
   62.8810   31.8044   46.6684 H   0  0  0  0  0  0  0  0  0  0  0  0
   62.9151   34.6160   46.1485 H   0  0  0  0  0  0  0  0  0  0  0  0
   61.8437   33.3684   45.4249 H   0  0  0  0  0  0  0  0  0  0  0  0
   60.6400   33.6370   47.6940 H   0  0  0  0  0  0  0  0  0  0  0  0
   60.0870   35.9124   45.9894 H   0  0  0  0  0  0  0  0  0  0  0  0
   60.0912   34.2735   45.2199 H   0  0  0  0  0  0  0  0  0  0  0  0
   58.4720   35.0949   47.6817 H   0  0  0  0  0  0  0  0  0  0  0  0
   57.8422   34.8774   45.9926 H   0  0  0  0  0  0  0  0  0  0  0  0
   58.1899   32.8942   48.0712 H   0  0  0  0  0  0  0  0  0  0  0  0
   57.4865   32.7176   46.4180 H   0  0  0  0  0  0  0  0  0  0  0  0
   60.2920   32.3370   47.2900 H   0  0  0  0  0  0  0  0  0  0  0  0
   59.9670   32.6870   45.7210 H   0  0  0  0  0  0  0  0  0  0  0  0
   57.9667   32.5617   44.5760 H   0  0  0  0  0  0  0  0  0  0  0  0
   56.5910   31.9023   42.6197 H   0  0  0  0  0  0  0  0  0  0  0  0
   56.1723   29.5005   42.1380 H   0  0  0  0  0  0  0  0  0  0  0  0
   57.1787   27.7437   43.5726 H   0  0  0  0  0  0  0  0  0  0  0  0
   58.9398   26.0826   46.0042 H   0  0  0  0  0  0  0  0  0  0  0  0
   58.0152   26.5579   44.5393 H   0  0  0  0  0  0  0  0  0  0  0  0
   59.8089   26.6531   44.5393 H   0  0  0  0  0  0  0  0  0  0  0  0
   59.5758   26.4367   47.5601 H   0  0  0  0  0  0  0  0  0  0  0  0
   60.6592   27.0227   49.7109 H   0  0  0  0  0  0  0  0  0  0  0  0
   59.4975   29.0008   51.7323 H   0  0  0  0  0  0  0  0  0  0  0  0
   61.1176   28.8190   52.5123 H   0  0  0  0  0  0  0  0  0  0  0  0
   60.7178   30.7672   53.5409 H   0  0  0  0  0  0  0  0  0  0  0  0
   60.9171   31.5210   51.8569 H   0  0  0  0  0  0  0  0  0  0  0  0
   58.6608   31.1857   54.6545 H   0  0  0  0  0  0  0  0  0  0  0  0
   57.1655   31.1242   53.6610 H   0  0  0  0  0  0  0  0  0  0  0  0
   58.3016   29.7328   53.6610 H   0  0  0  0  0  0  0  0  0  0  0  0
   58.7212   30.1886   50.8580 H   0  0  0  0  0  0  0  0  0  0  0  0
   57.1815   30.8749   51.5994 H   0  0  0  0  0  0  0  0  0  0  0  0
   58.0686   31.7007   49.2345 H   0  0  0  0  0  0  0  0  0  0  0  0
   57.2975   32.8131   50.4520 H   0  0  0  0  0  0  0  0  0  0  0  0
   60.2743   32.4557   49.9294 H   0  0  0  0  0  0  0  0  0  0  0  0
   59.2365   33.8834   49.5120 H   0  0  0  0  0  0  0  0  0  0  0  0
   60.7515   33.6579   51.7973 H   0  0  0  0  0  0  0  0  0  0  0  0
   59.2677   34.6975   51.5971 H   0  0  0  0  0  0  0  0  0  0  0  0
   59.4683   33.1453   53.6949 H   0  0  0  0  0  0  0  0  0  0  0  0
   57.9071   33.2361   52.7512 H   0  0  0  0  0  0  0  0  0  0  0  0
   60.2656   31.2149   48.7848 H   0  0  0  0  0  0  0  0  0  0  0  0
  1  2  1  0
  2  3  1  0
  3  4  1  0
  4  5  1  0
  5  6  1  0
  6  7  1  0
  7  8  1  0
  8  9  1  0
  9 10  1  0
 10 11  1  0
 11 12  2  0
 12 13  1  0
 13 14  2  0
 14 15  1  0
 15 16  2  0
 16 17  1  0
 17 18  2  0
 18 19  1  0
 18 20  1  0
 20 21  2  0
 21 22  1  0
 22 23  2  0
 23 24  1  0
 24 25  1  0
 25 26  1  0
 26 27  1  0
 27 28  1  0
 27 29  1  0
 29 30  1  0
 30 31  1  0
 31 32  1  0
 32 33  1  0
 23 34  1  0
 34 35  2  0
 35 11  1  0
 17 12  1  0
 35 20  1  0
 33 27  1  0
  1 36  1  0
  1 37  1  0
  1 38  1  0
  2 39  1  0
  2 40  1  0
  3 41  1  0
  4 42  1  0
  4 43  1  0
  5 44  1  0
  5 45  1  0
  6 46  1  0
  7 47  1  0
  7 48  1  0
  8 49  1  0
  8 50  1  0
  9 51  1  0
  9 52  1  0
 10 53  1  0
 10 54  1  0
 13 55  1  0
 14 56  1  0
 15 57  1  0
 16 58  1  0
 19 59  1  0
 19 60  1  0
 19 61  1  0
 21 62  1  0
 22 63  1  0
 25 64  1  0
 25 65  1  0
 26 66  1  0
 26 67  1  0
 28 68  1  0
 28 69  1  0
 28 70  1  0
 29 71  1  0
 29 72  1  0
 30 73  1  0
 30 74  1  0
 31 75  1  0
 31 76  1  0
 32 77  1  0
 32 78  1  0
 33 79  1  0
 33 80  1  0
 34 81  1  0
M  CHG  3  10   1  18   1  27   1
M  END
>  <UniqueID>  (18) 
18

>  <SMILES>  (18) 
CCNCCNCCC[NH2+]c1c2ccccc2[n+](C)c2ccc(OCC[N+]3(C)CCCCC3)cc12

>  <Energy>  (18) 
118.01845098418286

>  <Genealogy>  (18) 
CCNCCNCCC[NH2+]c1c2ccccc2[n+](C)c2ccc(OCC[N+]3(C)CCCCC3)cc12 (protonated)
CCNCCNCCC[NH2+]c1c2ccccc2[n+](C)c2ccc(OCC[N+]3(C)CCCCC3)cc12 (3D coordinates assigned)
CCNCCNCCC[NH2+]c1c2ccccc2[n+](C)c2ccc(OCC[N+]3(C)CCCCC3)cc12 (nonaromatic ring conformer: 118.01845098418286 kcal/mol)

>  <smiles>  (18) 
CCNCCNCCCNc1c2ccccc2[n+](C)c2ccc(OCC[N+]3(C)CCCCC3)cc12

>  <score_type>  (18) 
oracle

>  <origin>  (18) 
adg

>  <m_score__min__energy>  (18) 
-4.1200000000000001

>  <m_primary>  (18) 
energy

$$$$
19:0
     RDKit          3D

 50 50  0  0  0  0  0  0  0  0999 V2000
   56.8950   27.4900   43.0800 H   0  0  0  0  0  0  0  0  0  0  0  0
   57.5050   27.9090   43.8170 N   0  0  0  0  0  0  0  0  0  0  0  0
   57.0250   28.2730   44.9630 C   0  0  0  0  0  0  0  0  0  0  0  0
   57.3700   27.2950   46.4310 S   0  0  0  0  0  0  0  0  0  0  0  0
   59.1320   27.7680   46.5360 C   0  0  0  0  0  0  0  0  0  0  0  0
   59.6824   26.9881   47.0826 H   0  0  0  0  0  0  0  0  0  0  0  0
   59.5288   27.8745   45.5156 H   0  0  0  0  0  0  0  0  0  0  0  0
   59.2970   29.1090   47.2700 C   0  0  0  0  0  0  0  0  0  0  0  0
   58.3171   29.6059   47.3236 H   0  0  0  0  0  0  0  0  0  0  0  0
   59.6951   28.8969   48.2733 H   0  0  0  0  0  0  0  0  0  0  0  0
   60.2540   30.0130   46.5830 N   0  0  2  0  0  0  0  0  0  0  0  0
   59.7110   30.8010   46.1540 H   0  0  0  0  0  0  0  0  0  0  0  0
   60.9670   29.3290   45.4840 C   0  0  0  0  0  0  0  0  0  0  0  0
   61.7004   28.6254   45.9047 H   0  0  0  0  0  0  0  0  0  0  0  0
   60.2439   28.7781   44.8646 H   0  0  0  0  0  0  0  0  0  0  0  0
   61.4874   30.0744   44.8646 H   0  0  0  0  0  0  0  0  0  0  0  0
   61.2010   30.6450   47.5360 C   0  0  0  0  0  0  0  0  0  0  0  0
   60.7268   30.6674   48.5283 H   0  0  0  0  0  0  0  0  0  0  0  0
   62.1196   30.0403   47.5131 H   0  0  0  0  0  0  0  0  0  0  0  0
   61.6110   32.0790   47.1670 C   0  0  0  0  0  0  0  0  0  0  0  0
   61.7773   32.6607   48.0857 H   0  0  0  0  0  0  0  0  0  0  0  0
   62.5382   32.0546   46.5756 H   0  0  0  0  0  0  0  0  0  0  0  0
   60.8111   32.5484   46.5756 H   0  0  0  0  0  0  0  0  0  0  0  0
   56.2330   29.4630   45.0790 N   0  0  0  0  0  0  0  0  0  0  0  0
   55.8250   29.6980   46.0120 H   0  0  0  0  0  0  0  0  0  0  0  0
   55.8940   30.3160   43.9400 C   0  0  0  0  0  0  0  0  0  0  0  0
   55.3627   29.7135   43.1885 H   0  0  0  0  0  0  0  0  0  0  0  0
   55.2609   31.1390   44.3031 H   0  0  0  0  0  0  0  0  0  0  0  0
   57.1490   30.9240   43.2950 C   0  0  0  0  0  0  0  0  0  0  0  0
   57.3737   30.3686   42.3725 H   0  0  0  0  0  0  0  0  0  0  0  0
   56.9358   31.9840   43.0929 H   0  0  0  0  0  0  0  0  0  0  0  0
   58.3810   30.8680   44.2140 C   0  0  0  0  0  0  0  0  0  0  0  0
   58.2586   30.0400   44.9278 H   0  0  0  0  0  0  0  0  0  0  0  0
   59.2738   30.7141   43.5901 H   0  0  0  0  0  0  0  0  0  0  0  0
   58.5470   32.1300   44.9640 N   0  0  0  0  0  0  0  0  0  0  0  0
   58.1350   33.3010   44.1630 C   0  0  0  0  0  0  0  0  0  0  0  0
   58.5942   33.2380   43.1654 H   0  0  0  0  0  0  0  0  0  0  0  0
   57.0386   33.3055   44.0737 H   0  0  0  0  0  0  0  0  0  0  0  0
   58.5870   34.6040   44.8490 C   0  0  0  0  0  0  0  0  0  0  0  0
   59.5541   34.9102   44.4235 H   0  0  0  0  0  0  0  0  0  0  0  0
   57.8106   35.3629   44.6723 H   0  0  0  0  0  0  0  0  0  0  0  0
   58.7460   34.4410   46.3700 C   0  0  0  0  0  0  0  0  0  0  0  0
   59.7535   34.0565   46.5872 H   0  0  0  0  0  0  0  0  0  0  0  0
   58.5971   35.4220   46.8449 H   0  0  0  0  0  0  0  0  0  0  0  0
   57.7070   33.4660   46.9290 C   0  0  0  0  0  0  0  0  0  0  0  0
   57.8806   33.3391   48.0078 H   0  0  0  0  0  0  0  0  0  0  0  0
   56.7068   33.8823   46.7384 H   0  0  0  0  0  0  0  0  0  0  0  0
   57.7950   32.0850   46.2410 C   0  0  0  0  0  0  0  0  0  0  0  0
   58.2994   31.3838   46.9221 H   0  0  0  0  0  0  0  0  0  0  0  0
   56.7689   31.7615   46.0117 H   0  0  0  0  0  0  0  0  0  0  0  0
  1  2  1  0
  2  3  2  0
  3  4  1  0
  4  5  1  0
  5  6  1  0
  5  7  1  0
  5  8  1  0
  8  9  1  0
  8 10  1  0
  8 11  1  0
 11 12  1  6
 11 13  1  0
 13 14  1  0
 13 15  1  0
 13 16  1  0
 11 17  1  0
 17 18  1  0
 17 19  1  0
 17 20  1  0
 20 21  1  0
 20 22  1  0
 20 23  1  0
  3 24  1  0
 24 25  1  0
 24 26  1  0
 26 27  1  0
 26 28  1  0
 26 29  1  0
 29 30  1  0
 29 31  1  0
 29 32  1  0
 32 33  1  0
 32 34  1  0
 32 35  1  0
 35 36  1  0
 36 37  1  0
 36 38  1  0
 36 39  1  0
 39 40  1  0
 39 41  1  0
 39 42  1  0
 42 43  1  0
 42 44  1  0
 42 45  1  0
 45 46  1  0
 45 47  1  0
 45 48  1  0
 48 49  1  0
 48 50  1  0
 48 35  1  0
M  CHG  1  11   1
M  END
>  <UniqueID>  (19) 
19

>  <SMILES>  (19) 
[H]/N=C(/NCCCN1CCCCC1)SCC[N@H+](C)CC

>  <Energy>  (19) 
40.28936462468687

>  <Genealogy>  (19) 
CC[NH+](C)CCSC(=N)NCCCN1CCCCC1 (protonated)
CC[N@@H+](C)CCSC(=N)NCCCN1CCCCC1 (chirality)
[H]/N=C(/NCCCN1CCCCC1)SCC[N@H+](C)CC (cis-trans isomerization)
[H]/N=C(/NCCCN1CCCCC1)SCC[N@H+](C)CC (3D coordinates assigned)
[H]/N=C(/NCCCN1CCCCC1)SCC[N@H+](C)CC (nonaromatic ring conformer: 40.28936462468687 kcal/mol)

>  <smiles>  (19) 
CCN(C)CCSC(=N)NCCCN1CCCCC1

>  <score_type>  (19) 
oracle

>  <origin>  (19) 
adg

>  <m_score__min__energy>  (19) 
-4.1500000000000004

>  <m_primary>  (19) 
energy

$$$$
20:0
     RDKit          3D

 53 55  0  0  0  0  0  0  0  0999 V2000
   56.3310   29.7570   43.1080 C   0  0  0  0  0  0  0  0  0  0  0  0
   56.5440   29.3950   44.5760 C   0  0  0  0  0  0  0  0  0  0  0  0
   57.8380   29.9830   45.1480 C   0  0  0  0  0  0  0  0  0  0  0  0
   57.6680   31.4060   45.4700 N   0  0  0  0  0  0  0  0  0  0  0  0
   58.0370   32.2760   44.3400 C   0  0  0  0  0  0  0  0  0  0  0  0
   57.5410   33.7100   44.5850 C   0  0  0  0  0  0  0  0  0  0  0  0
   58.5180   34.5700   45.4060 C   0  0  0  0  0  0  0  0  0  0  0  0
   58.4830   34.2410   46.9090 C   0  0  0  0  0  0  0  0  0  0  0  0
   59.0090   32.8930   47.1980 N   0  0  0  0  0  0  0  0  0  0  0  0
   59.9640   32.9040   48.3030 C   0  0  0  0  0  0  0  0  0  0  0  0
   61.3500   33.1580   48.0850 C   0  0  0  0  0  0  0  0  0  0  0  0
   61.8800   33.4230   46.7930 C   0  0  0  0  0  0  0  0  0  0  0  0
   63.2460   33.5880   46.5920 C   0  0  0  0  0  0  0  0  0  0  0  0
   64.1250   33.4870   47.6580 C   0  0  0  0  0  0  0  0  0  0  0  0
   63.6380   33.2720   48.9420 C   0  0  0  0  0  0  0  0  0  0  0  0
   62.2460   33.1540   49.1930 C   0  0  0  0  0  0  0  0  0  0  0  0
   61.7660   33.0350   50.4800 N   0  0  0  0  0  0  0  0  0  0  0  0
   62.6410   33.3690   51.6280 C   0  0  0  0  0  0  0  0  0  0  0  0
   60.4620   32.6460   50.7010 C   0  0  0  0  0  0  0  0  0  0  0  0
   60.0230   32.2520   51.9940 C   0  0  0  0  0  0  0  0  0  0  0  0
   58.6940   31.9240   52.2350 C   0  0  0  0  0  0  0  0  0  0  0  0
   57.7680   31.9700   51.2060 C   0  0  0  0  0  0  0  0  0  0  0  0
   58.1740   32.3050   49.9180 C   0  0  0  0  0  0  0  0  0  0  0  0
   59.5270   32.6190   49.6290 C   0  0  0  0  0  0  0  0  0  0  0  0
   55.7742   30.7033   43.0408 H   0  0  0  0  0  0  0  0  0  0  0  0
   57.3068   29.8697   42.6128 H   0  0  0  0  0  0  0  0  0  0  0  0
   55.7586   28.9588   42.6128 H   0  0  0  0  0  0  0  0  0  0  0  0
   55.6946   29.7790   45.1600 H   0  0  0  0  0  0  0  0  0  0  0  0
   56.6197   28.2995   44.6406 H   0  0  0  0  0  0  0  0  0  0  0  0
   58.1086   29.4362   46.0633 H   0  0  0  0  0  0  0  0  0  0  0  0
   58.6327   29.8852   44.3937 H   0  0  0  0  0  0  0  0  0  0  0  0
   56.6620   31.5780   45.7030 H   0  0  0  0  0  0  0  0  0  0  0  0
   59.1316   32.2845   44.2312 H   0  0  0  0  0  0  0  0  0  0  0  0
   57.5695   31.8881   43.4229 H   0  0  0  0  0  0  0  0  0  0  0  0
   57.3859   34.1953   43.6101 H   0  0  0  0  0  0  0  0  0  0  0  0
   56.6114   33.6337   45.1681 H   0  0  0  0  0  0  0  0  0  0  0  0
   59.5380   34.3974   45.0320 H   0  0  0  0  0  0  0  0  0  0  0  0
   58.2133   35.6205   45.2895 H   0  0  0  0  0  0  0  0  0  0  0  0
   59.0921   34.9817   47.4478 H   0  0  0  0  0  0  0  0  0  0  0  0
   57.4333   34.2707   47.2363 H   0  0  0  0  0  0  0  0  0  0  0  0
   58.2150   32.2550   47.4240 H   0  0  0  0  0  0  0  0  0  0  0  0
   59.3800   32.4620   46.3280 H   0  0  0  0  0  0  0  0  0  0  0  0
   61.1959   33.4991   45.9350 H   0  0  0  0  0  0  0  0  0  0  0  0
   63.6300   33.7995   45.5831 H   0  0  0  0  0  0  0  0  0  0  0  0
   65.2081   33.5769   47.4883 H   0  0  0  0  0  0  0  0  0  0  0  0
   64.3456   33.1917   49.7804 H   0  0  0  0  0  0  0  0  0  0  0  0
   62.1068   33.1651   52.5677 H   0  0  0  0  0  0  0  0  0  0  0  0
   63.5532   32.7559   51.5843 H   0  0  0  0  0  0  0  0  0  0  0  0
   62.9126   34.4340   51.5843 H   0  0  0  0  0  0  0  0  0  0  0  0
   60.7486   32.2058   52.8195 H   0  0  0  0  0  0  0  0  0  0  0  0
   58.3768   31.6271   53.2456 H   0  0  0  0  0  0  0  0  0  0  0  0
   56.7110   31.7415   51.4072 H   0  0  0  0  0  0  0  0  0  0  0  0
   57.4308   32.3268   49.1073 H   0  0  0  0  0  0  0  0  0  0  0  0
  1  2  1  0
  2  3  1  0
  3  4  1  0
  4  5  1  0
  5  6  1  0
  6  7  1  0
  7  8  1  0
  8  9  1  0
  9 10  1  0
 10 11  2  0
 11 12  1  0
 12 13  2  0
 13 14  1  0
 14 15  2  0
 15 16  1  0
 16 17  2  0
 17 18  1  0
 17 19  1  0
 19 20  2  0
 20 21  1  0
 21 22  2  0
 22 23  1  0
 23 24  2  0
 24 10  1  0
 16 11  1  0
 24 19  1  0
  1 25  1  0
  1 26  1  0
  1 27  1  0
  2 28  1  0
  2 29  1  0
  3 30  1  0
  3 31  1  0
  4 32  1  0
  5 33  1  0
  5 34  1  0
  6 35  1  0
  6 36  1  0
  7 37  1  0
  7 38  1  0
  8 39  1  0
  8 40  1  0
  9 41  1  0
  9 42  1  0
 12 43  1  0
 13 44  1  0
 14 45  1  0
 15 46  1  0
 18 47  1  0
 18 48  1  0
 18 49  1  0
 20 50  1  0
 21 51  1  0
 22 52  1  0
 23 53  1  0
M  CHG  2   9   1  17   1
M  END
>  <UniqueID>  (20) 
20

>  <SMILES>  (20) 
CCCNCCCC[NH2+]c1c2ccccc2[n+](C)c2ccccc12

>  <Energy>  (20) 
72.47714349406927

>  <Genealogy>  (20) 
CCCNCCCC[NH2+]c1c2ccccc2[n+](C)c2ccccc12 (protonated)
CCCNCCCC[NH2+]c1c2ccccc2[n+](C)c2ccccc12 (3D coordinates assigned)
CCCNCCCC[NH2+]c1c2ccccc2[n+](C)c2ccccc12 (optimized conformer: 72.47714349406927 kcal/mol)

>  <smiles>  (20) 
CCCNCCCCNc1c2ccccc2[n+](C)c2ccccc12

>  <score_type>  (20) 
oracle

>  <origin>  (20) 
adg

>  <m_score__min__energy>  (20) 
-4.04

>  <m_primary>  (20) 
energy

$$$$
21:0
     RDKit          3D

 39 40  0  0  0  0  0  0  0  0999 V2000
   58.0940   27.0160   42.6710 C   0  0  0  0  0  0  0  0  0  0  0  0
   58.4900   27.8390   43.8920 C   0  0  0  0  0  0  0  0  0  0  0  0
   57.3100   28.1190   44.7130 N   0  0  0  0  0  0  0  0  0  0  0  0
   56.5810   29.6110   44.2030 S   0  0  0  0  0  0  0  0  0  0  0  0
   55.2370   29.7550   44.8580 O   0  0  0  0  0  0  0  0  0  0  0  0
   56.3840   29.6040   42.7120 O   0  0  0  0  0  0  0  0  0  0  0  0
   57.5970   30.9730   44.6740 C   0  0  0  0  0  0  0  0  0  0  0  0
   57.3590   32.2370   44.1330 C   0  0  0  0  0  0  0  0  0  0  0  0
   58.1450   33.3250   44.5120 C   0  0  0  0  0  0  0  0  0  0  0  0
   59.1830   33.1680   45.4530 C   0  0  0  0  0  0  0  0  0  0  0  0
   59.9690   34.2570   45.8720 O   0  0  0  0  0  0  0  0  0  0  0  0
   59.6410   35.1810   46.9090 C   0  0  0  0  0  0  0  0  0  0  0  0
   59.3030   34.4450   48.2010 C   0  0  0  0  0  0  0  0  0  0  0  0
   59.4320   31.8870   45.9990 C   0  0  0  0  0  0  0  0  0  0  0  0
   60.5190   31.6610   46.9850 C   0  0  0  0  0  0  0  0  0  0  0  0
   61.7160   32.3640   47.1040 C   0  0  0  0  0  0  0  0  0  0  0  0
   62.5250   31.9210   48.1750 C   0  0  0  0  0  0  0  0  0  0  0  0
   63.8380   32.5560   48.4980 C   0  0  0  0  0  0  0  0  0  0  0  0
   62.0210   30.9130   48.9330 N   0  0  0  0  0  0  0  0  0  0  0  0
   60.5540   30.5600   48.2410 S   0  0  0  0  0  0  0  0  0  0  0  0
   58.6260   30.8020   45.6050 C   0  0  0  0  0  0  0  0  0  0  0  0
   57.6387   26.0698   42.9986 H   0  0  0  0  0  0  0  0  0  0  0  0
   57.3695   27.5817   42.0668 H   0  0  0  0  0  0  0  0  0  0  0  0
   58.9881   26.8028   42.0668 H   0  0  0  0  0  0  0  0  0  0  0  0
   59.2231   27.2760   44.4883 H   0  0  0  0  0  0  0  0  0  0  0  0
   58.9309   28.7899   43.5583 H   0  0  0  0  0  0  0  0  0  0  0  0
   56.6040   27.3660   44.5350 H   0  0  0  0  0  0  0  0  0  0  0  0
   56.5472   32.3761   43.4038 H   0  0  0  0  0  0  0  0  0  0  0  0
   57.9532   34.3150   44.0725 H   0  0  0  0  0  0  0  0  0  0  0  0
   60.5001   35.8448   47.0859 H   0  0  0  0  0  0  0  0  0  0  0  0
   58.7638   35.7664   46.5961 H   0  0  0  0  0  0  0  0  0  0  0  0
   59.5884   35.0666   49.0625 H   0  0  0  0  0  0  0  0  0  0  0  0
   58.2222   34.2436   48.2363 H   0  0  0  0  0  0  0  0  0  0  0  0
   59.8546   33.4939   48.2363 H   0  0  0  0  0  0  0  0  0  0  0  0
   62.0036   33.1842   46.4298 H   0  0  0  0  0  0  0  0  0  0  0  0
   63.9584   32.6142   49.5898 H   0  0  0  0  0  0  0  0  0  0  0  0
   64.6523   31.9521   48.0710 H   0  0  0  0  0  0  0  0  0  0  0  0
   63.8702   33.5692   48.0710 H   0  0  0  0  0  0  0  0  0  0  0  0
   58.8083   29.8063   46.0354 H   0  0  0  0  0  0  0  0  0  0  0  0
  1  2  1  0
  2  3  1  0
  3  4  1  0
  4  5  2  0
  4  6  2  0
  4  7  1  0
  7  8  2  0
  8  9  1  0
  9 10  2  0
 10 11  1  0
 11 12  1  0
 12 13  1  0
 10 14  1  0
 14 15  1  0
 15 16  2  0
 16 17  1  0
 17 18  1  0
 17 19  2  0
 19 20  1  0
 14 21  2  0
 21  7  1  0
 20 15  1  0
  1 22  1  0
  1 23  1  0
  1 24  1  0
  2 25  1  0
  2 26  1  0
  3 27  1  0
  8 28  1  0
  9 29  1  0
 12 30  1  0
 12 31  1  0
 13 32  1  0
 13 33  1  0
 13 34  1  0
 16 35  1  0
 18 36  1  0
 18 37  1  0
 18 38  1  0
 21 39  1  0
M  END
>  <UniqueID>  (21) 
21

>  <SMILES>  (21) 
CCNS(=O)(=O)c1ccc(OCC)c(-c2cc(C)ns2)c1

>  <Energy>  (21) 
65.76637640976618

>  <Genealogy>  (21) 
CCNS(=O)(=O)c1ccc(OCC)c(-c2cc(C)ns2)c1 (3D coordinates assigned)
CCNS(=O)(=O)c1ccc(OCC)c(-c2cc(C)ns2)c1 (optimized conformer: 65.76637640976618 kcal/mol)

>  <smiles>  (21) 
CCNS(=O)(=O)c1ccc(OCC)c(-c2cc(C)ns2)c1

>  <score_type>  (21) 
oracle

>  <origin>  (21) 
adg

>  <m_score__min__energy>  (21) 
-7.4900000000000002

>  <m_primary>  (21) 
energy

$$$$
