0:0
     RDKit          3D

 34 35  0  0  0  0  0  0  0  0999 V2000
   60.5880   26.3860   46.5130 C   0  0  0  0  0  0  0  0  0  0  0  0
   59.4590   27.2420   46.0210 C   0  0  0  0  0  0  0  0  0  0  0  0
   58.1470   26.7510   46.0260 C   0  0  0  0  0  0  0  0  0  0  0  0
   57.0860   27.5660   45.6210 C   0  0  0  0  0  0  0  0  0  0  0  0
   55.8220   27.0700   45.6380 F   0  0  0  0  0  0  0  0  0  0  0  0
   57.3280   28.8860   45.2100 C   0  0  0  0  0  0  0  0  0  0  0  0
   56.2240   29.7160   44.7930 C   0  0  0  0  0  0  0  0  0  0  0  0
   55.3390   30.3840   44.4590 N   0  0  0  0  0  0  0  0  0  0  0  0
   58.6430   29.3840   45.1910 C   0  0  0  0  0  0  0  0  0  0  0  0
   58.8870   30.7470   44.8080 N   0  0  0  0  0  0  0  0  0  0  0  0
   58.4040   31.8050   45.3940 C   0  0  0  0  0  0  0  0  0  0  0  0
   58.5260   32.0400   46.8780 C   0  0  0  0  0  0  0  0  0  0  0  0
   58.1780   33.4970   47.2260 C   0  0  0  0  0  0  0  0  0  0  0  0
   58.8040   34.4590   46.2920 N   0  0  0  0  0  0  0  0  0  0  0  0
   60.2630   34.5390   46.4870 C   0  0  0  0  0  0  0  0  0  0  0  0
   58.4480   34.2460   44.8610 C   0  0  0  0  0  0  0  0  0  0  0  0
   57.7900   32.8860   44.5580 C   0  0  0  0  0  0  0  0  0  0  0  0
   59.6990   28.5670   45.6280 C   0  0  0  0  0  0  0  0  0  0  0  0
   60.5929   26.3823   47.6130 H   0  0  0  0  0  0  0  0  0  0  0  0
   60.4569   25.3583   46.1434 H   0  0  0  0  0  0  0  0  0  0  0  0
   61.5422   26.7896   46.1434 H   0  0  0  0  0  0  0  0  0  0  0  0
   57.9506   25.7184   46.3504 H   0  0  0  0  0  0  0  0  0  0  0  0
   57.8362   31.3670   47.4084 H   0  0  0  0  0  0  0  0  0  0  0  0
   59.5634   31.8404   47.1844 H   0  0  0  0  0  0  0  0  0  0  0  0
   57.0858   33.6205   47.1826 H   0  0  0  0  0  0  0  0  0  0  0  0
   58.5644   33.7051   48.2347 H   0  0  0  0  0  0  0  0  0  0  0  0
   60.4889   34.5514   47.5635 H   0  0  0  0  0  0  0  0  0  0  0  0
   60.7436   33.6659   46.0215 H   0  0  0  0  0  0  0  0  0  0  0  0
   60.6452   35.4595   46.0215 H   0  0  0  0  0  0  0  0  0  0  0  0
   57.7487   35.0399   44.5598 H   0  0  0  0  0  0  0  0  0  0  0  0
   59.3932   34.2665   44.2988 H   0  0  0  0  0  0  0  0  0  0  0  0
   56.7143   32.9475   44.7797 H   0  0  0  0  0  0  0  0  0  0  0  0
   57.9466   32.6451   43.4962 H   0  0  0  0  0  0  0  0  0  0  0  0
   60.7221   28.9695   45.6623 H   0  0  0  0  0  0  0  0  0  0  0  0
  1  2  1  0
  2  3  2  0
  3  4  1  0
  4  5  1  0
  4  6  2  0
  6  7  1  0
  7  8  3  0
  6  9  1  0
  9 10  1  0
 10 11  2  3
 11 12  1  0
 12 13  1  0
 13 14  1  0
 14 15  1  0
 14 16  1  0
 16 17  1  0
  9 18  2  0
 18  2  1  0
 17 11  1  0
  1 19  1  0
  1 20  1  0
  1 21  1  0
  3 22  1  0
 12 23  1  0
 12 24  1  0
 13 25  1  0
 13 26  1  0
 15 27  1  0
 15 28  1  0
 15 29  1  0
 16 30  1  0
 16 31  1  0
 17 32  1  0
 17 33  1  0
 18 34  1  0
M  END
>  <UniqueID>  (1) 
1

>  <SMILES>  (1) 
Cc1cc(F)c(C#N)c(N=C2CCN(C)CC2)c1

>  <Energy>  (1) 
46.68237945125011

>  <Genealogy>  (1) 
Cc1cc(F)c(C#N)c(N=C2CCN(C)CC2)c1 (3D coordinates assigned)
Cc1cc(F)c(C#N)c(N=C2CCN(C)CC2)c1 (nonaromatic ring conformer: 46.68237945125011 kcal/mol)

>  <smiles>  (1) 
Cc1cc(F)c(C#N)c(N=C2CCN(C)CC2)c1

>  <score_type>  (1) 
oracle

>  <origin>  (1) 
adg

>  <m_score__min__energy>  (1) 
-6.5899999999999999

>  <m_primary>  (1) 
energy

$$$$
1:0
     RDKit          3D

 57 59  0  0  0  0  0  0  0  0999 V2000
   55.5000   29.7120   44.1110 C   0  0  0  0  0  0  0  0  0  0  0  0
   56.6320   30.4400   43.3900 C   0  0  0  0  0  0  0  0  0  0  0  0
   58.0280   30.2220   44.0230 C   0  0  0  0  0  0  0  0  0  0  0  0
   58.1530   30.6120   45.4490 N   0  0  0  0  0  0  0  0  0  0  0  0
   59.4960   30.3550   46.0260 C   0  0  0  0  0  0  0  0  0  0  0  0
   59.4990   30.6390   47.5330 C   0  0  0  0  0  0  0  0  0  0  0  0
   60.8320   30.2730   48.1860 C   0  0  0  0  0  0  0  0  0  0  0  0
   57.6110   31.9560   45.7480 C   0  0  0  0  0  0  0  0  0  0  0  0
   57.9910   32.9760   44.6650 C   0  0  0  0  0  0  0  0  0  0  0  0
   57.6100   34.4140   45.0470 C   0  0  0  0  0  0  0  0  0  0  0  0
   58.1330   34.7680   46.3290 O   0  0  0  0  0  0  0  0  0  0  0  0
   59.3750   34.3650   46.8460 C   0  0  0  0  0  0  0  0  0  0  0  0
   60.4410   34.2120   45.9510 C   0  0  0  0  0  0  0  0  0  0  0  0
   61.7010   33.8110   46.4020 C   0  0  0  0  0  0  0  0  0  0  0  0
   61.9160   33.5610   47.7680 C   0  0  0  0  0  0  0  0  0  0  0  0
   63.1670   33.1600   48.2690 C   0  0  0  0  0  0  0  0  0  0  0  0
   64.1530   33.0330   47.4910 O   0  0  0  0  0  0  0  0  0  0  0  0
   63.3140   32.9210   49.6490 C   0  0  0  0  0  0  0  0  0  0  0  0
   64.6060   32.4820   50.2360 C   0  0  0  0  0  0  0  0  0  0  0  0
   64.7110   31.2450   50.8960 C   0  0  0  0  0  0  0  0  0  0  0  0
   65.9280   30.8430   51.4550 C   0  0  0  0  0  0  0  0  0  0  0  0
   67.0490   31.6720   51.3630 C   0  0  0  0  0  0  0  0  0  0  0  0
   68.2280   31.2800   51.9060 F   0  0  0  0  0  0  0  0  0  0  0  0
   66.9530   32.9060   50.7160 C   0  0  0  0  0  0  0  0  0  0  0  0
   65.7380   33.3130   50.1570 C   0  0  0  0  0  0  0  0  0  0  0  0
   62.1980   33.1130   50.4780 C   0  0  0  0  0  0  0  0  0  0  0  0
   61.0310   33.4980   49.9740 O   0  0  0  0  0  0  0  0  0  0  0  0
   60.8480   33.7230   48.6770 C   0  0  0  0  0  0  0  0  0  0  0  0
   59.5890   34.1240   48.2160 C   0  0  0  0  0  0  0  0  0  0  0  0
   55.6401   29.8021   45.1983 H   0  0  0  0  0  0  0  0  0  0  0  0
   54.5364   30.1601   43.8271 H   0  0  0  0  0  0  0  0  0  0  0  0
   55.5080   28.6493   43.8271 H   0  0  0  0  0  0  0  0  0  0  0  0
   56.6648   30.0834   42.3499 H   0  0  0  0  0  0  0  0  0  0  0  0
   56.4148   31.5158   43.4636 H   0  0  0  0  0  0  0  0  0  0  0  0
   58.2732   29.1528   43.9418 H   0  0  0  0  0  0  0  0  0  0  0  0
   58.7153   30.8791   43.4699 H   0  0  0  0  0  0  0  0  0  0  0  0
   59.7673   29.3026   45.8559 H   0  0  0  0  0  0  0  0  0  0  0  0
   60.2247   31.0193   45.5384 H   0  0  0  0  0  0  0  0  0  0  0  0
   59.3088   31.7107   47.6921 H   0  0  0  0  0  0  0  0  0  0  0  0
   58.7151   30.0209   47.9951 H   0  0  0  0  0  0  0  0  0  0  0  0
   60.7245   30.3025   49.2803 H   0  0  0  0  0  0  0  0  0  0  0  0
   61.1275   29.2605   47.8738 H   0  0  0  0  0  0  0  0  0  0  0  0
   61.6031   30.9927   47.8738 H   0  0  0  0  0  0  0  0  0  0  0  0
   56.5145   31.8926   45.8089 H   0  0  0  0  0  0  0  0  0  0  0  0
   58.0402   32.2940   46.7028 H   0  0  0  0  0  0  0  0  0  0  0  0
   59.0783   32.9306   44.5045 H   0  0  0  0  0  0  0  0  0  0  0  0
   57.4345   32.7155   43.7526 H   0  0  0  0  0  0  0  0  0  0  0  0
   58.0147   35.1042   44.2921 H   0  0  0  0  0  0  0  0  0  0  0  0
   56.5129   34.4823   45.0893 H   0  0  0  0  0  0  0  0  0  0  0  0
   60.2845   34.4099   44.8803 H   0  0  0  0  0  0  0  0  0  0  0  0
   62.5271   33.6906   45.6858 H   0  0  0  0  0  0  0  0  0  0  0  0
   63.8308   30.5898   50.9730 H   0  0  0  0  0  0  0  0  0  0  0  0
   66.0030   29.8728   51.9679 H   0  0  0  0  0  0  0  0  0  0  0  0
   67.8354   33.5591   50.6461 H   0  0  0  0  0  0  0  0  0  0  0  0
   65.6669   34.2881   49.6528 H   0  0  0  0  0  0  0  0  0  0  0  0
   62.2911   32.9422   51.5607 H   0  0  0  0  0  0  0  0  0  0  0  0
   58.7612   34.2517   48.9291 H   0  0  0  0  0  0  0  0  0  0  0  0
  1  2  1  0
  2  3  1  0
  3  4  1  0
  4  5  1  0
  5  6  1  0
  6  7  1  0
  4  8  1  0
  8  9  1  0
  9 10  1  0
 10 11  1  0
 11 12  1  0
 12 13  2  0
 13 14  1  0
 14 15  2  0
 15 16  1  0
 16 17  2  0
 16 18  1  0
 18 19  1  0
 19 20  2  0
 20 21  1  0
 21 22  2  0
 22 23  1  0
 22 24  1  0
 24 25  2  0
 18 26  2  0
 26 27  1  0
 27 28  1  0
 28 29  2  0
 29 12  1  0
 28 15  1  0
 25 19  1  0
  1 30  1  0
  1 31  1  0
  1 32  1  0
  2 33  1  0
  2 34  1  0
  3 35  1  0
  3 36  1  0
  5 37  1  0
  5 38  1  0
  6 39  1  0
  6 40  1  0
  7 41  1  0
  7 42  1  0
  7 43  1  0
  8 44  1  0
  8 45  1  0
  9 46  1  0
  9 47  1  0
 10 48  1  0
 10 49  1  0
 13 50  1  0
 14 51  1  0
 20 52  1  0
 21 53  1  0
 24 54  1  0
 25 55  1  0
 26 56  1  0
 29 57  1  0
M  END
>  <UniqueID>  (2) 
2

>  <SMILES>  (2) 
CCCN(CCC)CCCOc1ccc2c(=O)c(-c3ccc(F)cc3)coc2c1

>  <Energy>  (2) 
67.74617307960149

>  <Genealogy>  (2) 
CCCN(CCC)CCCOc1ccc2c(=O)c(-c3ccc(F)cc3)coc2c1 (3D coordinates assigned)
CCCN(CCC)CCCOc1ccc2c(=O)c(-c3ccc(F)cc3)coc2c1 (optimized conformer: 67.74617307960149 kcal/mol)

>  <smiles>  (2) 
CCCN(CCC)CCCOc1ccc2c(=O)c(-c3ccc(F)cc3)coc2c1

>  <score_type>  (2) 
oracle

>  <origin>  (2) 
adg

>  <m_score__min__energy>  (2) 
-7.6100000000000003

>  <m_primary>  (2) 
energy

$$$$
2:0
     RDKit          3D

 34 35  0  0  0  0  0  0  0  0999 V2000
   56.4550   29.2370   42.5280 N   0  0  0  0  0  0  0  0  0  0  0  0
   56.6140   29.8830   43.7950 C   0  0  0  0  0  0  0  0  0  0  0  0
   55.5990   30.0350   44.5280 O   0  0  0  0  0  0  0  0  0  0  0  0
   57.9290   30.3770   44.2720 C   0  0  0  0  0  0  0  0  0  0  0  0
   59.0760   29.4040   44.5030 C   0  0  0  0  0  0  0  0  0  0  0  0
   59.4400   29.3010   45.9720 C   0  0  0  0  0  0  0  0  0  0  0  0
   60.3520   30.2250   46.5240 C   0  0  0  0  0  0  0  0  0  0  0  0
   60.6880   30.1750   47.8780 C   0  0  0  0  0  0  0  0  0  0  0  0
   60.1060   29.2190   48.7080 C   0  0  0  0  0  0  0  0  0  0  0  0
   59.1750   28.3180   48.1890 C   0  0  0  0  0  0  0  0  0  0  0  0
   58.8260   28.3570   46.8330 C   0  0  0  0  0  0  0  0  0  0  0  0
   57.4860   27.1180   46.2370 Br  0  0  0  0  0  0  0  0  0  0  0  0
   58.0840   31.6710   44.3600 N   0  0  0  0  0  0  0  0  0  0  0  0
   57.5050   32.5700   45.3170 C   0  0  0  0  0  0  0  0  0  0  0  0
   56.2750   32.8450   45.2590 O   0  0  0  0  0  0  0  0  0  0  0  0
   58.3680   33.2470   46.3120 C   0  0  0  0  0  0  0  0  0  0  0  0
   59.1630   34.3470   45.9390 C   0  0  0  0  0  0  0  0  0  0  0  0
   59.9850   34.9790   46.8770 C   0  0  0  0  0  0  0  0  0  0  0  0
   60.0260   34.5200   48.1950 C   0  0  0  0  0  0  0  0  0  0  0  0
   59.2440   33.4260   48.5800 C   0  0  0  0  0  0  0  0  0  0  0  0
   59.2980   32.8500   50.2350 Cl  0  0  0  0  0  0  0  0  0  0  0  0
   58.4200   32.7910   47.6430 C   0  0  0  0  0  0  0  0  0  0  0  0
   57.2500   29.0880   41.8720 H   0  0  0  0  0  0  0  0  0  0  0  0
   55.5110   28.9030   42.2320 H   0  0  0  0  0  0  0  0  0  0  0  0
   58.7780   28.4095   44.1394 H   0  0  0  0  0  0  0  0  0  0  0  0
   59.9558   29.7769   43.9580 H   0  0  0  0  0  0  0  0  0  0  0  0
   60.8036   30.9939   45.8799 H   0  0  0  0  0  0  0  0  0  0  0  0
   61.4135   30.8916   48.2904 H   0  0  0  0  0  0  0  0  0  0  0  0
   60.3803   29.1744   49.7723 H   0  0  0  0  0  0  0  0  0  0  0  0
   58.7115   27.5711   48.8503 H   0  0  0  0  0  0  0  0  0  0  0  0
   59.1374   34.7122   44.9017 H   0  0  0  0  0  0  0  0  0  0  0  0
   60.6006   35.8395   46.5760 H   0  0  0  0  0  0  0  0  0  0  0  0
   60.6736   35.0190   48.9310 H   0  0  0  0  0  0  0  0  0  0  0  0
   57.8086   31.9293   47.9490 H   0  0  0  0  0  0  0  0  0  0  0  0
  1  2  1  0
  2  3  2  0
  2  4  1  0
  4  5  1  0
  5  6  1  0
  6  7  2  0
  7  8  1  0
  8  9  2  0
  9 10  1  0
 10 11  2  0
 11 12  1  0
  4 13  2  3
 13 14  1  0
 14 15  2  0
 14 16  1  0
 16 17  2  0
 17 18  1  0
 18 19  2  0
 19 20  1  0
 20 21  1  0
 20 22  2  0
 11  6  1  0
 22 16  1  0
  1 23  1  0
  1 24  1  0
  5 25  1  0
  5 26  1  0
  7 27  1  0
  8 28  1  0
  9 29  1  0
 10 30  1  0
 17 31  1  0
 18 32  1  0
 19 33  1  0
 22 34  1  0
M  END
>  <UniqueID>  (3) 
3

>  <SMILES>  (3) 
NC(=O)C(Cc1ccccc1Br)=NC(=O)c1cccc(Cl)c1

>  <Energy>  (3) 
43.87045488459974

>  <Genealogy>  (3) 
NC(=O)C(Cc1ccccc1Br)=NC(=O)c1cccc(Cl)c1 (3D coordinates assigned)
NC(=O)C(Cc1ccccc1Br)=NC(=O)c1cccc(Cl)c1 (optimized conformer: 43.87045488459974 kcal/mol)

>  <smiles>  (3) 
NC(=O)C(Cc1ccccc1Br)=NC(=O)c1cccc(Cl)c1

>  <score_type>  (3) 
oracle

>  <origin>  (3) 
adg

>  <m_score__min__energy>  (3) 
-8.9499999999999993

>  <m_primary>  (3) 
energy

$$$$
3:0
     RDKit          3D

 33 35  0  0  0  0  0  0  0  0999 V2000
   53.4870   25.1270   46.0810 H   0  0  0  0  0  0  0  0  0  0  0  0
   57.5070   32.7090   45.3800 N   0  0  0  0  0  0  0  0  0  0  0  0
   57.4000   31.4120   45.4510 C   0  0  0  0  0  0  0  0  0  0  0  0
   56.3640   30.7750   44.8450 N   0  0  0  0  0  0  0  0  0  0  0  0
   56.7810   27.2070   45.6230 C   0  0  0  0  0  0  0  0  0  0  0  0
   57.0890   28.6520   45.5660 C   0  0  0  0  0  0  0  0  0  0  0  0
   56.2160   29.4530   44.9020 N   0  0  0  0  0  0  0  0  0  0  0  0
   55.5520   26.7320   45.9710 N   0  0  0  0  0  0  0  0  0  0  0  0
   55.4990   25.3890   45.8810 C   0  0  0  0  0  0  0  0  0  0  0  0
   54.4380   24.7080   46.1690 N   0  0  0  0  0  0  0  0  0  0  0  0
   57.9470   33.4610   44.2030 C   0  0  0  0  0  0  0  0  0  0  0  0
   57.1826   34.2044   43.9327 H   0  0  0  0  0  0  0  0  0  0  0  0
   58.1460   32.4910   43.0400 C   0  0  0  0  0  0  0  0  0  0  0  0
   58.3525   31.4846   43.4331 H   0  0  0  0  0  0  0  0  0  0  0  0
   57.2346   32.4644   42.4247 H   0  0  0  0  0  0  0  0  0  0  0  0
   58.9942   32.8254   42.4247 H   0  0  0  0  0  0  0  0  0  0  0  0
   59.2510   34.2070   44.5070 C   0  0  0  0  0  0  0  0  0  0  0  0
   59.3844   34.2833   45.5962 H   0  0  0  0  0  0  0  0  0  0  0  0
   60.0982   33.6569   44.0715 H   0  0  0  0  0  0  0  0  0  0  0  0
   59.2062   35.2161   44.0715 H   0  0  0  0  0  0  0  0  0  0  0  0
   58.3620   30.6500   46.1420 C   0  0  0  0  0  0  0  0  0  0  0  0
   59.4690   31.2580   46.7690 C   0  0  0  0  0  0  0  0  0  0  0  0
   59.5733   32.3529   46.7519 H   0  0  0  0  0  0  0  0  0  0  0  0
   60.4330   30.4800   47.4110 C   0  0  0  0  0  0  0  0  0  0  0  0
   61.2876   30.9639   47.9065 H   0  0  0  0  0  0  0  0  0  0  0  0
   60.3160   29.0930   47.4260 C   0  0  0  0  0  0  0  0  0  0  0  0
   61.0867   28.4837   47.9207 H   0  0  0  0  0  0  0  0  0  0  0  0
   59.2250   28.4720   46.8160 C   0  0  0  0  0  0  0  0  0  0  0  0
   59.1488   27.3747   46.8238 H   0  0  0  0  0  0  0  0  0  0  0  0
   58.2180   29.2380   46.1890 C   0  0  0  0  0  0  0  0  0  0  0  0
   57.6940   26.2280   45.2250 C   0  0  0  0  0  0  0  0  0  0  0  0
   58.7252   26.4086   44.8874 H   0  0  0  0  0  0  0  0  0  0  0  0
   56.9470   24.7240   45.3500 S   0  0  0  0  0  0  0  0  0  0  0  0
  1  2  1  0
  2  3  2  0
  3  4  1  0
  4  5  1  0
  5  6  1  0
  6  7  2  0
  7  8  1  0
  8  9  1  0
  9 10  2  0
 10 11  1  0
 11 12  1  0
 11 13  1  0
 13 14  1  0
 13 15  1  0
 13 16  1  0
 11 17  1  0
 17 18  1  0
 17 19  1  0
 17 20  1  0
  9 21  1  0
 21 22  2  0
 22 23  1  0
 22 24  1  0
 24 25  1  0
 24 26  2  0
 26 27  1  0
 26 28  1  0
 28 29  1  0
 28 30  2  0
  5 31  2  0
 31 32  1  0
 31 33  1  0
 33  3  1  0
 30  6  1  0
 30 21  1  0
M  CHG  2   4  -1   8  -1
M  END
>  <UniqueID>  (4) 
4

>  <SMILES>  (4) 
[H]/N=c1/[n-]c(-c2n[n-]/c(=N\C(C)C)c3ccccc23)cs1

>  <Energy>  (4) 
73.12729679720526

>  <Genealogy>  (4) 
CC(C)N=c1[n-]nc(-c2csc(=N)[n-]2)c2ccccc12 (protonated)
[H]/N=c1/[n-]c(-c2n[n-]/c(=N\C(C)C)c3ccccc23)cs1 (cis-trans isomerization)
[H]/N=c1/[n-]c(-c2n[n-]/c(=N\C(C)C)c3ccccc23)cs1 (3D coordinates assigned)
[H]/N=c1/[n-]c(-c2n[n-]/c(=N\C(C)C)c3ccccc23)cs1 (optimized conformer: 73.12729679720526 kcal/mol)

>  <smiles>  (4) 
CC(C)N=c1[nH]nc(-c2csc(=N)[nH]2)c2ccccc12

>  <score_type>  (4) 
oracle

>  <origin>  (4) 
adg

>  <m_score__min__energy>  (4) 
-11

>  <m_primary>  (4) 
energy

$$$$
4:0
     RDKit          3D

 24 26  0  0  0  0  0  0  0  0999 V2000
   60.3860   32.5480   47.5800 C   0  0  0  0  0  0  0  0  0  0  0  0
   59.3670   32.7190   46.4840 C   0  0  0  0  0  0  0  0  0  0  0  0
   58.8810   34.0070   46.2020 C   0  0  0  0  0  0  0  0  0  0  0  0
   57.9360   34.2110   45.1940 C   0  0  0  0  0  0  0  0  0  0  0  0
   57.4580   33.1360   44.4470 C   0  0  0  0  0  0  0  0  0  0  0  0
   57.9240   31.8380   44.7050 C   0  0  0  0  0  0  0  0  0  0  0  0
   58.8870   31.6160   45.7300 C   0  0  0  0  0  0  0  0  0  0  0  0
   59.3360   30.2890   45.9610 C   0  0  0  0  0  0  0  0  0  0  0  0
   58.8420   29.2190   45.1990 C   0  0  0  0  0  0  0  0  0  0  0  0
   57.9050   29.5050   44.2150 C   0  0  0  0  0  0  0  0  0  0  0  0
   57.3190   28.6180   43.3880 N   0  0  0  0  0  0  0  0  0  0  0  0
   56.5040   29.3370   42.6270 N   0  0  0  0  0  0  0  0  0  0  0  0
   56.5970   30.6330   42.9900 C   0  0  0  0  0  0  0  0  0  0  0  0
   57.4810   30.7600   43.9970 N   0  0  0  0  0  0  0  0  0  0  0  0
   59.8898   32.6313   48.5582 H   0  0  0  0  0  0  0  0  0  0  0  0
   60.8575   31.5582   47.4911 H   0  0  0  0  0  0  0  0  0  0  0  0
   61.1548   33.3297   47.4911 H   0  0  0  0  0  0  0  0  0  0  0  0
   59.2495   34.8656   46.7826 H   0  0  0  0  0  0  0  0  0  0  0  0
   57.5667   35.2266   44.9885 H   0  0  0  0  0  0  0  0  0  0  0  0
   56.7145   33.3053   43.6542 H   0  0  0  0  0  0  0  0  0  0  0  0
   60.0807   30.0971   46.7475 H   0  0  0  0  0  0  0  0  0  0  0  0
   59.1854   28.1889   45.3753 H   0  0  0  0  0  0  0  0  0  0  0  0
   55.8960   28.9450   41.8740 H   0  0  0  0  0  0  0  0  0  0  0  0
   56.0354   31.4607   42.5323 H   0  0  0  0  0  0  0  0  0  0  0  0
  1  2  1  0
  2  3  2  0
  3  4  1  0
  4  5  2  0
  5  6  1  0
  6  7  2  0
  7  8  1  0
  8  9  2  0
  9 10  1  0
 10 11  2  0
 11 12  1  0
 12 13  2  0
 13 14  1  0
  7  2  1  0
 14 10  1  0
 14  6  1  0
  1 15  1  0
  1 16  1  0
  1 17  1  0
  3 18  1  0
  4 19  1  0
  5 20  1  0
  8 21  1  0
  9 22  1  0
 12 23  1  0
 13 24  1  0
M  CHG  1  12   1
M  END
>  <UniqueID>  (5) 
5

>  <SMILES>  (5) 
Cc1cccc2c1ccc1n[nH+]cn12

>  <Energy>  (5) 
72.80055243949097

>  <Genealogy>  (5) 
Cc1cccc2c1ccc1n[nH+]cn12 (protonated)
Cc1cccc2c1ccc1n[nH+]cn12 (3D coordinates assigned)
Cc1cccc2c1ccc1n[nH+]cn12 (optimized conformer: 72.80055243949097 kcal/mol)

>  <smiles>  (5) 
Cc1cccc2c1ccc1nncn12

>  <score_type>  (5) 
oracle

>  <origin>  (5) 
adg

>  <m_score__min__energy>  (5) 
-4.7599999999999998

>  <m_primary>  (5) 
energy

$$$$
5:0
     RDKit          3D

 44 47  0  0  0  0  0  0  0  0999 V2000
   59.1550   33.5570   52.1840 C   0  0  0  0  0  0  0  0  0  0  0  0
   58.9330   33.4500   50.6690 C   0  0  2  0  0  0  0  0  0  0  0  0
   58.0740   32.3000   50.3330 N   0  0  0  0  0  0  0  0  0  0  0  0
   58.8350   30.7310   50.4530 S   0  0  0  0  0  0  0  0  0  0  0  0
   57.8140   29.7320   50.9160 O   0  0  0  0  0  0  0  0  0  0  0  0
   59.9670   30.7530   51.4390 O   0  0  0  0  0  0  0  0  0  0  0  0
   59.4350   30.2200   48.8860 C   0  0  0  0  0  0  0  0  0  0  0  0
   60.6280   30.6280   48.3080 C   0  0  0  0  0  0  0  0  0  0  0  0
   60.8730   30.0190   47.0730 C   0  0  0  0  0  0  0  0  0  0  0  0
   59.8660   29.1460   46.6880 C   0  0  0  0  0  0  0  0  0  0  0  0
   59.8470   28.1910   45.2200 Cl  0  0  0  0  0  0  0  0  0  0  0  0
   58.6690   29.1230   47.8680 S   0  0  0  0  0  0  0  0  0  0  0  0
   60.2200   33.4940   49.8550 C   0  0  0  0  0  0  0  0  0  0  0  0
   61.3640   33.0310   50.4470 N   0  0  0  0  0  0  0  0  0  0  0  0
   62.5250   32.9910   49.7590 C   0  0  0  0  0  0  0  0  0  0  0  0
   63.7420   32.5220   50.2570 C   0  0  0  0  0  0  0  0  0  0  0  0
   64.7570   32.5710   49.3030 C   0  0  0  0  0  0  0  0  0  0  0  0
   64.1280   33.1920   47.8580 S   0  0  0  0  0  0  0  0  0  0  0  0
   62.5710   33.3970   48.4530 C   0  0  0  0  0  0  0  0  0  0  0  0
   61.4300   33.8660   47.8230 C   0  0  0  0  0  0  0  0  0  0  0  0
   61.4930   34.2310   46.6160 O   0  0  0  0  0  0  0  0  0  0  0  0
   60.2460   33.9200   48.5300 N   0  0  0  0  0  0  0  0  0  0  0  0
   59.0310   34.4460   47.8660 C   0  0  0  0  0  0  0  0  0  0  0  0
   58.6760   33.6380   46.6410 C   0  0  0  0  0  0  0  0  0  0  0  0
   58.8220   34.2000   45.3600 C   0  0  0  0  0  0  0  0  0  0  0  0
   58.4730   33.4660   44.2210 C   0  0  0  0  0  0  0  0  0  0  0  0
   57.9610   32.1730   44.3510 C   0  0  0  0  0  0  0  0  0  0  0  0
   57.7910   31.6130   45.6210 C   0  0  0  0  0  0  0  0  0  0  0  0
   58.1400   32.3430   46.7620 C   0  0  0  0  0  0  0  0  0  0  0  0
   58.2859   33.1381   52.7124 H   0  0  0  0  0  0  0  0  0  0  0  0
   60.0590   32.9957   52.4627 H   0  0  0  0  0  0  0  0  0  0  0  0
   59.2791   34.6139   52.4627 H   0  0  0  0  0  0  0  0  0  0  0  0
   58.3906   34.3588   50.3692 H   0  0  0  0  0  0  0  0  0  0  0  0
   61.3104   31.3549   48.7726 H   0  0  0  0  0  0  0  0  0  0  0  0
   61.7718   30.2124   46.4691 H   0  0  0  0  0  0  0  0  0  0  0  0
   63.8836   32.1558   51.2845 H   0  0  0  0  0  0  0  0  0  0  0  0
   65.7990   32.2569   49.4628 H   0  0  0  0  0  0  0  0  0  0  0  0
   58.1911   34.4076   48.5753 H   0  0  0  0  0  0  0  0  0  0  0  0
   59.2305   35.4808   47.5509 H   0  0  0  0  0  0  0  0  0  0  0  0
   59.2129   35.2226   45.2529 H   0  0  0  0  0  0  0  0  0  0  0  0
   58.6020   33.9078   43.2219 H   0  0  0  0  0  0  0  0  0  0  0  0
   57.6915   31.5953   43.4545 H   0  0  0  0  0  0  0  0  0  0  0  0
   57.3822   30.5969   45.7229 H   0  0  0  0  0  0  0  0  0  0  0  0
   57.9946   31.9021   47.7592 H   0  0  0  0  0  0  0  0  0  0  0  0
  1  2  1  0
  2  3  1  0
  3  4  1  0
  4  5  2  0
  4  6  2  0
  4  7  1  0
  7  8  2  0
  8  9  1  0
  9 10  2  0
 10 11  1  0
 10 12  1  0
  2 13  1  0
 13 14  2  0
 14 15  1  0
 15 16  1  0
 16 17  2  0
 17 18  1  0
 18 19  1  0
 19 20  1  0
 20 21  2  0
 20 22  1  0
 22 23  1  0
 23 24  1  0
 24 25  2  0
 25 26  1  0
 26 27  2  0
 27 28  1  0
 28 29  2  0
 12  7  1  0
 22 13  1  0
 29 24  1  0
 19 15  2  0
  1 30  1  0
  1 31  1  0
  1 32  1  0
  2 33  1  6
  8 34  1  0
  9 35  1  0
 16 36  1  0
 17 37  1  0
 23 38  1  0
 23 39  1  0
 25 40  1  0
 26 41  1  0
 27 42  1  0
 28 43  1  0
 29 44  1  0
M  CHG  1   3  -1
M  END
>  <UniqueID>  (6) 
6

>  <SMILES>  (6) 
C[C@H]([N-]S(=O)(=O)c1ccc(Cl)s1)c1nc2ccsc2c(=O)n1Cc1ccccc1

>  <Energy>  (6) 
110.27503654637032

>  <Genealogy>  (6) 
CC([N-]S(=O)(=O)c1ccc(Cl)s1)c1nc2ccsc2c(=O)n1Cc1ccccc1 (protonated)
C[C@H]([N-]S(=O)(=O)c1ccc(Cl)s1)c1nc2ccsc2c(=O)n1Cc1ccccc1 (chirality)
C[C@H]([N-]S(=O)(=O)c1ccc(Cl)s1)c1nc2ccsc2c(=O)n1Cc1ccccc1 (3D coordinates assigned)
C[C@H]([N-]S(=O)(=O)c1ccc(Cl)s1)c1nc2ccsc2c(=O)n1Cc1ccccc1 (optimized conformer: 110.27503654637032 kcal/mol)

>  <smiles>  (6) 
CC(NS(=O)(=O)c1ccc(Cl)s1)c1nc2ccsc2c(=O)n1Cc1ccccc1

>  <score_type>  (6) 
oracle

>  <origin>  (6) 
adg

>  <m_score__min__energy>  (6) 
-9.8300000000000001

>  <m_primary>  (6) 
energy

$$$$
6:0
     RDKit          3D

 51 54  0  0  0  0  0  0  0  0999 V2000
   59.5420   29.1830   48.9550 C   0  0  0  0  0  0  0  0  0  0  0  0
   60.4080   29.6630   47.9520 O   0  0  0  0  0  0  0  0  0  0  0  0
   61.2930   30.6090   48.5120 C   0  0  0  0  0  0  0  0  0  0  0  0
   61.3190   31.8540   47.6270 C   0  0  0  0  0  0  0  0  0  0  0  0
   60.4550   31.6930   46.5030 O   0  0  0  0  0  0  0  0  0  0  0  0
   59.5540   32.6510   46.0060 C   0  0  0  0  0  0  0  0  0  0  0  0
   59.8330   34.0330   46.0660 C   0  0  0  0  0  0  0  0  0  0  0  0
   58.8990   34.9650   45.6100 C   0  0  0  0  0  0  0  0  0  0  0  0
   57.6780   34.5390   45.0930 C   0  0  0  0  0  0  0  0  0  0  0  0
   57.3910   33.1750   45.0150 C   0  0  0  0  0  0  0  0  0  0  0  0
   58.3260   32.2210   45.4490 C   0  0  0  0  0  0  0  0  0  0  0  0
   57.9770   30.7870   45.3310 C   0  0  0  0  0  0  0  0  0  0  0  0
   58.7820   29.7530   45.6440 N   0  0  0  0  0  0  0  0  0  0  0  0
   58.0230   28.6780   45.3440 C   0  0  0  0  0  0  0  0  0  0  0  0
   58.4500   27.2650   45.4910 C   0  0  0  0  0  0  0  0  0  0  0  0
   59.6000   26.9550   46.2310 C   0  0  0  0  0  0  0  0  0  0  0  0
   60.0010   25.6250   46.3590 C   0  0  0  0  0  0  0  0  0  0  0  0
   59.2820   24.6370   45.7700 N   0  0  0  0  0  0  0  0  0  0  0  0
   58.1600   24.8880   45.0430 C   0  0  0  0  0  0  0  0  0  0  0  0
   57.4430   23.7890   44.4370 N   0  0  0  0  0  0  0  0  0  0  0  0
   57.9010   22.4030   44.6010 C   0  0  0  0  0  0  0  0  0  0  0  0
   57.4320   21.5460   43.4210 C   0  0  0  0  0  0  0  0  0  0  0  0
   56.0430   21.6950   43.2090 O   0  0  0  0  0  0  0  0  0  0  0  0
   55.7680   23.0220   42.8040 C   0  0  0  0  0  0  0  0  0  0  0  0
   56.0820   24.0100   43.9320 C   0  0  0  0  0  0  0  0  0  0  0  0
   57.7300   26.2200   44.8870 C   0  0  0  0  0  0  0  0  0  0  0  0
   56.8180   29.0480   44.8640 N   0  0  0  0  0  0  0  0  0  0  0  0
   56.8280   30.3490   44.8700 O   0  0  0  0  0  0  0  0  0  0  0  0
   59.9622   29.4159   49.9445 H   0  0  0  0  0  0  0  0  0  0  0  0
   58.5585   29.6648   48.8517 H   0  0  0  0  0  0  0  0  0  0  0  0
   59.4293   28.0937   48.8517 H   0  0  0  0  0  0  0  0  0  0  0  0
   60.9506   30.8815   49.5212 H   0  0  0  0  0  0  0  0  0  0  0  0
   62.3033   30.1788   48.5763 H   0  0  0  0  0  0  0  0  0  0  0  0
   60.9876   32.7222   48.2156 H   0  0  0  0  0  0  0  0  0  0  0  0
   62.3459   32.0080   47.2640 H   0  0  0  0  0  0  0  0  0  0  0  0
   60.7938   34.3786   46.4752 H   0  0  0  0  0  0  0  0  0  0  0  0
   59.1283   36.0397   45.6592 H   0  0  0  0  0  0  0  0  0  0  0  0
   56.9399   35.2772   44.7462 H   0  0  0  0  0  0  0  0  0  0  0  0
   56.4233   32.8442   44.6098 H   0  0  0  0  0  0  0  0  0  0  0  0
   59.7730   29.7790   45.9640 H   0  0  0  0  0  0  0  0  0  0  0  0
   60.1830   27.7565   46.7082 H   0  0  0  0  0  0  0  0  0  0  0  0
   60.9022   25.3769   46.9388 H   0  0  0  0  0  0  0  0  0  0  0  0
   58.9999   22.3868   44.6473 H   0  0  0  0  0  0  0  0  0  0  0  0
   57.4791   21.9939   45.5309 H   0  0  0  0  0  0  0  0  0  0  0  0
   57.9701   21.8575   42.5136 H   0  0  0  0  0  0  0  0  0  0  0  0
   57.6410   20.4904   43.6489 H   0  0  0  0  0  0  0  0  0  0  0  0
   56.3856   23.2670   41.9274 H   0  0  0  0  0  0  0  0  0  0  0  0
   54.6999   23.1004   42.5531 H   0  0  0  0  0  0  0  0  0  0  0  0
   55.9995   25.0375   43.5482 H   0  0  0  0  0  0  0  0  0  0  0  0
   55.3658   23.8564   44.7527 H   0  0  0  0  0  0  0  0  0  0  0  0
   56.8313   26.4423   44.2929 H   0  0  0  0  0  0  0  0  0  0  0  0
  1  2  1  0
  2  3  1  0
  3  4  1  0
  4  5  1  0
  5  6  1  0
  6  7  2  0
  7  8  1  0
  8  9  2  0
  9 10  1  0
 10 11  2  0
 11 12  1  0
 12 13  2  0
 13 14  1  0
 14 15  1  0
 15 16  2  0
 16 17  1  0
 17 18  2  0
 18 19  1  0
 19 20  1  0
 20 21  1  0
 21 22  1  0
 22 23  1  0
 23 24  1  0
 24 25  1  0
 19 26  2  0
 14 27  2  0
 27 28  1  0
 11  6  1  0
 28 12  1  0
 26 15  1  0
 25 20  1  0
  1 29  1  0
  1 30  1  0
  1 31  1  0
  3 32  1  0
  3 33  1  0
  4 34  1  0
  4 35  1  0
  7 36  1  0
  8 37  1  0
  9 38  1  0
 10 39  1  0
 13 40  1  0
 16 41  1  0
 17 42  1  0
 21 43  1  0
 21 44  1  0
 22 45  1  0
 22 46  1  0
 24 47  1  0
 24 48  1  0
 25 49  1  0
 25 50  1  0
 26 51  1  0
M  CHG  1  13   1
M  END
>  <UniqueID>  (7) 
7

>  <SMILES>  (7) 
COCCOc1ccccc1-c1[nH+]c(-c2ccnc(N3CCOCC3)c2)no1

>  <Energy>  (7) 
97.63734038404777

>  <Genealogy>  (7) 
COCCOc1ccccc1-c1[nH+]c(-c2ccnc(N3CCOCC3)c2)no1 (protonated)
COCCOc1ccccc1-c1[nH+]c(-c2ccnc(N3CCOCC3)c2)no1 (3D coordinates assigned)
COCCOc1ccccc1-c1[nH+]c(-c2ccnc(N3CCOCC3)c2)no1 (nonaromatic ring conformer: 97.63734038404777 kcal/mol)

>  <smiles>  (7) 
COCCOc1ccccc1-c1nc(-c2ccnc(N3CCOCC3)c2)no1

>  <score_type>  (7) 
oracle

>  <origin>  (7) 
adg

>  <m_score__min__energy>  (7) 
-5.8700000000000001

>  <m_primary>  (7) 
energy

$$$$
7:0
     RDKit          3D

 49 52  0  0  0  0  0  0  0  0999 V2000
   55.5690   29.7560   43.5570 C   0  0  0  0  0  0  0  0  0  0  0  0
   56.0840   29.7140   44.8830 O   0  0  0  0  0  0  0  0  0  0  0  0
   57.3870   29.3110   45.2180 C   0  0  0  0  0  0  0  0  0  0  0  0
   57.7200   27.9570   45.4200 C   0  0  0  0  0  0  0  0  0  0  0  0
   59.0180   27.5980   45.7930 C   0  0  0  0  0  0  0  0  0  0  0  0
   59.9920   28.5800   45.9760 C   0  0  0  0  0  0  0  0  0  0  0  0
   59.6750   29.9240   45.7730 C   0  0  0  0  0  0  0  0  0  0  0  0
   58.3830   30.2950   45.3710 C   0  0  0  0  0  0  0  0  0  0  0  0
   58.0820   31.6810   45.1610 N   0  0  0  0  0  0  0  0  0  0  0  0
   57.5720   32.1550   44.0360 N   0  0  0  0  0  0  0  0  0  0  0  0
   57.3910   33.4660   44.1280 N   0  0  0  0  0  0  0  0  0  0  0  0
   57.7940   33.8390   45.3590 C   0  0  0  0  0  0  0  0  0  0  0  0
   58.2280   32.7090   46.0220 C   0  0  0  0  0  0  0  0  0  0  0  0
   58.6570   32.6180   47.4710 C   0  0  0  0  0  0  0  0  0  0  0  0
   60.1230   32.5320   47.6450 N   0  0  0  0  0  0  0  0  0  0  0  0
   60.8110   33.8490   47.6570 C   0  0  0  0  0  0  0  0  0  0  0  0
   61.5920   34.1150   48.9510 C   0  0  0  0  0  0  0  0  0  0  0  0
   62.4860   32.9860   49.2460 N   0  0  0  0  0  0  0  0  0  0  0  0
   63.7380   33.1960   49.9340 C   0  0  0  0  0  0  0  0  0  0  0  0
   63.8080   34.0450   51.0560 C   0  0  0  0  0  0  0  0  0  0  0  0
   65.0210   34.2420   51.7220 C   0  0  0  0  0  0  0  0  0  0  0  0
   66.1780   33.5960   51.2790 C   0  0  0  0  0  0  0  0  0  0  0  0
   67.3530   33.7890   51.9280 F   0  0  0  0  0  0  0  0  0  0  0  0
   66.1220   32.7500   50.1700 C   0  0  0  0  0  0  0  0  0  0  0  0
   64.9110   32.5480   49.5010 C   0  0  0  0  0  0  0  0  0  0  0  0
   62.0440   31.6210   48.9200 C   0  0  0  0  0  0  0  0  0  0  0  0
   60.5300   31.5890   48.7070 C   0  0  0  0  0  0  0  0  0  0  0  0
   54.4732   29.8454   43.5919 H   0  0  0  0  0  0  0  0  0  0  0  0
   55.9909   30.6227   43.0271 H   0  0  0  0  0  0  0  0  0  0  0  0
   55.8449   28.8324   43.0271 H   0  0  0  0  0  0  0  0  0  0  0  0
   56.9547   27.1788   45.2835 H   0  0  0  0  0  0  0  0  0  0  0  0
   59.2725   26.5384   45.9427 H   0  0  0  0  0  0  0  0  0  0  0  0
   61.0099   28.2950   46.2803 H   0  0  0  0  0  0  0  0  0  0  0  0
   60.4423   30.6966   45.9290 H   0  0  0  0  0  0  0  0  0  0  0  0
   57.7795   34.8619   45.7632 H   0  0  0  0  0  0  0  0  0  0  0  0
   58.2951   33.5128   47.9987 H   0  0  0  0  0  0  0  0  0  0  0  0
   58.2265   31.6919   47.8796 H   0  0  0  0  0  0  0  0  0  0  0  0
   61.5141   33.8832   46.8117 H   0  0  0  0  0  0  0  0  0  0  0  0
   60.0332   34.6232   47.5813 H   0  0  0  0  0  0  0  0  0  0  0  0
   62.1900   35.0306   48.8327 H   0  0  0  0  0  0  0  0  0  0  0  0
   60.8805   34.2356   49.7812 H   0  0  0  0  0  0  0  0  0  0  0  0
   62.9012   34.5568   51.4107 H   0  0  0  0  0  0  0  0  0  0  0  0
   65.0648   34.9072   52.5970 H   0  0  0  0  0  0  0  0  0  0  0  0
   67.0328   32.2411   49.8216 H   0  0  0  0  0  0  0  0  0  0  0  0
   64.8742   31.8777   48.6296 H   0  0  0  0  0  0  0  0  0  0  0  0
   62.5468   31.2868   48.0005 H   0  0  0  0  0  0  0  0  0  0  0  0
   62.3017   30.9529   49.7550 H   0  0  0  0  0  0  0  0  0  0  0  0
   60.2291   30.5711   48.4184 H   0  0  0  0  0  0  0  0  0  0  0  0
   60.0385   31.8857   49.6453 H   0  0  0  0  0  0  0  0  0  0  0  0
  1  2  1  0
  2  3  1  0
  3  4  2  0
  4  5  1  0
  5  6  2  0
  6  7  1  0
  7  8  2  0
  8  9  1  0
  9 10  1  0
 10 11  2  0
 11 12  1  0
 12 13  2  0
 13 14  1  0
 14 15  1  0
 15 16  1  0
 16 17  1  0
 17 18  1  0
 18 19  1  0
 19 20  2  0
 20 21  1  0
 21 22  2  0
 22 23  1  0
 22 24  1  0
 24 25  2  0
 18 26  1  0
 26 27  1  0
  8  3  1  0
 13  9  1  0
 27 15  1  0
 25 19  1  0
  1 28  1  0
  1 29  1  0
  1 30  1  0
  4 31  1  0
  5 32  1  0
  6 33  1  0
  7 34  1  0
 12 35  1  0
 14 36  1  0
 14 37  1  0
 16 38  1  0
 16 39  1  0
 17 40  1  0
 17 41  1  0
 20 42  1  0
 21 43  1  0
 24 44  1  0
 25 45  1  0
 26 46  1  0
 26 47  1  0
 27 48  1  0
 27 49  1  0
M  END
>  <UniqueID>  (8) 
8

>  <SMILES>  (8) 
COc1ccccc1-n1nncc1CN1CCN(c2ccc(F)cc2)CC1

>  <Energy>  (8) 
104.35380815245796

>  <Genealogy>  (8) 
COc1ccccc1-n1nncc1CN1CCN(c2ccc(F)cc2)CC1 (3D coordinates assigned)
COc1ccccc1-n1nncc1CN1CCN(c2ccc(F)cc2)CC1 (nonaromatic ring conformer: 104.35380815245796 kcal/mol)

>  <smiles>  (8) 
COc1ccccc1-n1nncc1CN1CCN(c2ccc(F)cc2)CC1

>  <score_type>  (8) 
oracle

>  <origin>  (8) 
adg

>  <m_score__min__energy>  (8) 
-7.9500000000000002

>  <m_primary>  (8) 
energy

$$$$
8:0
     RDKit          3D

 58 60  0  0  0  0  0  0  0  0999 V2000
   57.3830   28.3090   45.9140 C   0  0  0  0  0  0  0  0  0  0  0  0
   57.2820   28.1570   44.4540 N   0  0  0  0  0  0  0  0  0  0  0  0
   58.1390   27.0400   44.0190 C   0  0  0  0  0  0  0  0  0  0  0  0
   57.6800   29.4140   43.7840 C   0  0  0  0  0  0  0  0  0  0  0  0
   56.4840   30.3550   43.6100 C   0  0  0  0  0  0  0  0  0  0  0  0
   56.3470   31.2130   44.7440 O   0  0  0  0  0  0  0  0  0  0  0  0
   57.2850   32.1540   45.2010 C   0  0  0  0  0  0  0  0  0  0  0  0
   58.1340   31.7720   46.2450 C   0  0  0  0  0  0  0  0  0  0  0  0
   59.1200   32.6410   46.7210 C   0  0  0  0  0  0  0  0  0  0  0  0
   59.2750   33.9140   46.1530 C   0  0  0  0  0  0  0  0  0  0  0  0
   60.3600   34.8360   46.6430 C   0  0  0  0  0  0  0  0  0  0  0  0
   61.1200   34.2360   47.7490 N   0  0  0  0  0  0  0  0  0  0  0  0
   60.5610   34.2090   49.1020 C   0  0  0  0  0  0  0  0  0  0  0  0
   62.3330   33.5060   47.4850 C   0  0  0  0  0  0  0  0  0  0  0  0
   62.8570   33.5550   46.3390 O   0  0  0  0  0  0  0  0  0  0  0  0
   62.9830   32.7040   48.5340 C   0  0  0  0  0  0  0  0  0  0  0  0
   64.2450   33.0700   49.0150 C   0  0  0  0  0  0  0  0  0  0  0  0
   64.8490   32.3240   50.0250 C   0  0  0  0  0  0  0  0  0  0  0  0
   64.1840   31.2120   50.5430 C   0  0  0  0  0  0  0  0  0  0  0  0
   62.9690   30.8490   50.0500 N   0  0  0  0  0  0  0  0  0  0  0  0
   62.3660   31.5490   49.0440 C   0  0  0  0  0  0  0  0  0  0  0  0
   61.1170   31.1560   48.5380 O   0  0  0  0  0  0  0  0  0  0  0  0
   60.8710   29.9920   47.7970 C   0  0  0  0  0  0  0  0  0  0  0  0
   60.9860   30.0470   46.4030 C   0  0  0  0  0  0  0  0  0  0  0  0
   60.7660   28.9030   45.6300 C   0  0  0  0  0  0  0  0  0  0  0  0
   60.4390   27.6920   46.2480 C   0  0  0  0  0  0  0  0  0  0  0  0
   60.3440   27.6230   47.6400 C   0  0  0  0  0  0  0  0  0  0  0  0
   60.5650   28.7660   48.4160 C   0  0  0  0  0  0  0  0  0  0  0  0
   58.4220   34.3040   45.1080 C   0  0  0  0  0  0  0  0  0  0  0  0
   57.4270   33.4400   44.6430 C   0  0  0  0  0  0  0  0  0  0  0  0
   56.8386   27.4898   46.4065 H   0  0  0  0  0  0  0  0  0  0  0  0
   58.4410   28.2784   46.2135 H   0  0  0  0  0  0  0  0  0  0  0  0
   56.9449   29.2725   46.2135 H   0  0  0  0  0  0  0  0  0  0  0  0
   58.5386   26.5192   44.9016 H   0  0  0  0  0  0  0  0  0  0  0  0
   57.5465   26.3368   43.4153 H   0  0  0  0  0  0  0  0  0  0  0  0
   58.9716   27.4302   43.4153 H   0  0  0  0  0  0  0  0  0  0  0  0
   58.4462   29.9171   44.3921 H   0  0  0  0  0  0  0  0  0  0  0  0
   58.0746   29.1663   42.7875 H   0  0  0  0  0  0  0  0  0  0  0  0
   56.6352   30.9683   42.7094 H   0  0  0  0  0  0  0  0  0  0  0  0
   55.5701   29.7507   43.5115 H   0  0  0  0  0  0  0  0  0  0  0  0
   58.0243   30.7752   46.6971 H   0  0  0  0  0  0  0  0  0  0  0  0
   59.7772   32.3251   47.5446 H   0  0  0  0  0  0  0  0  0  0  0  0
   61.0481   35.0511   45.8122 H   0  0  0  0  0  0  0  0  0  0  0  0
   59.8878   35.7591   47.0104 H   0  0  0  0  0  0  0  0  0  0  0  0
   61.3782   34.2485   49.8372 H   0  0  0  0  0  0  0  0  0  0  0  0
   59.8991   35.0762   49.2426 H   0  0  0  0  0  0  0  0  0  0  0  0
   59.9857   33.2820   49.2426 H   0  0  0  0  0  0  0  0  0  0  0  0
   64.7603   33.9467   48.5957 H   0  0  0  0  0  0  0  0  0  0  0  0
   65.8394   32.6086   50.4099 H   0  0  0  0  0  0  0  0  0  0  0  0
   64.6438   30.6267   51.3529 H   0  0  0  0  0  0  0  0  0  0  0  0
   62.4880   30.0310   50.4770 H   0  0  0  0  0  0  0  0  0  0  0  0
   61.2509   30.9956   45.9130 H   0  0  0  0  0  0  0  0  0  0  0  0
   60.8502   28.9556   44.5345 H   0  0  0  0  0  0  0  0  0  0  0  0
   60.2567   26.7945   45.6386 H   0  0  0  0  0  0  0  0  0  0  0  0
   60.0950   26.6685   48.1268 H   0  0  0  0  0  0  0  0  0  0  0  0
   60.4994   28.7061   49.5124 H   0  0  0  0  0  0  0  0  0  0  0  0
   58.5380   35.2981   44.6515 H   0  0  0  0  0  0  0  0  0  0  0  0
   56.7517   33.7652   43.8379 H   0  0  0  0  0  0  0  0  0  0  0  0
  1  2  1  0
  2  3  1  0
  2  4  1  0
  4  5  1  0
  5  6  1  0
  6  7  1  0
  7  8  2  0
  8  9  1  0
  9 10  2  0
 10 11  1  0
 11 12  1  0
 12 13  1  0
 12 14  1  0
 14 15  2  0
 14 16  1  0
 16 17  2  0
 17 18  1  0
 18 19  2  0
 19 20  1  0
 20 21  2  0
 21 22  1  0
 22 23  1  0
 23 24  2  0
 24 25  1  0
 25 26  2  0
 26 27  1  0
 27 28  2  0
 10 29  1  0
 29 30  2  0
 30  7  1  0
 21 16  1  0
 28 23  1  0
  1 31  1  0
  1 32  1  0
  1 33  1  0
  3 34  1  0
  3 35  1  0
  3 36  1  0
  4 37  1  0
  4 38  1  0
  5 39  1  0
  5 40  1  0
  8 41  1  0
  9 42  1  0
 11 43  1  0
 11 44  1  0
 13 45  1  0
 13 46  1  0
 13 47  1  0
 17 48  1  0
 18 49  1  0
 19 50  1  0
 20 51  1  0
 24 52  1  0
 25 53  1  0
 26 54  1  0
 27 55  1  0
 28 56  1  0
 29 57  1  0
 30 58  1  0
M  CHG  1  20   1
M  END
>  <UniqueID>  (9) 
9

>  <SMILES>  (9) 
CN(C)CCOc1ccc(CN(C)C(=O)c2ccc[nH+]c2Oc2ccccc2)cc1

>  <Energy>  (9) 
64.15173582496307

>  <Genealogy>  (9) 
CN(C)CCOc1ccc(CN(C)C(=O)c2ccc[nH+]c2Oc2ccccc2)cc1 (protonated)
CN(C)CCOc1ccc(CN(C)C(=O)c2ccc[nH+]c2Oc2ccccc2)cc1 (3D coordinates assigned)
CN(C)CCOc1ccc(CN(C)C(=O)c2ccc[nH+]c2Oc2ccccc2)cc1 (optimized conformer: 64.15173582496307 kcal/mol)

>  <smiles>  (9) 
CN(C)CCOc1ccc(CN(C)C(=O)c2cccnc2Oc2ccccc2)cc1

>  <score_type>  (9) 
oracle

>  <origin>  (9) 
adg

>  <m_score__min__energy>  (9) 
-6.2699999999999996

>  <m_primary>  (9) 
energy

$$$$
9:0
     RDKit          3D

 39 40  0  0  0  0  0  0  0  0999 V2000
   57.3780   22.9690   44.2510 C   0  0  0  0  0  0  0  0  0  0  0  0
   56.4960   24.0090   44.8770 C   0  0  0  0  0  0  0  0  0  0  0  0
   55.1390   23.7410   45.0870 C   0  0  0  0  0  0  0  0  0  0  0  0
   54.3170   24.7350   45.6210 C   0  0  0  0  0  0  0  0  0  0  0  0
   54.8310   25.9570   45.9190 N   0  0  0  0  0  0  0  0  0  0  0  0
   56.1430   26.2620   45.7240 C   0  0  0  0  0  0  0  0  0  0  0  0
   56.5460   27.4700   46.0030 N   0  0  0  0  0  0  0  0  0  0  0  0
   56.6700   28.5590   45.0770 C   0  0  0  0  0  0  0  0  0  0  0  0
   55.7670   29.4360   44.9990 O   0  0  0  0  0  0  0  0  0  0  0  0
   57.9030   28.6730   44.2390 C   0  0  0  0  0  0  0  0  0  0  0  0
   59.0640   27.9770   44.9570 C   0  0  0  0  0  0  0  0  0  0  0  0
   59.5270   28.6970   46.1950 C   0  0  0  0  0  0  0  0  0  0  0  0
   59.8230   28.0480   47.2350 O   0  0  0  0  0  0  0  0  0  0  0  0
   59.5760   30.1300   46.2430 N   0  0  0  0  0  0  0  0  0  0  0  0
   58.5250   31.0030   46.7640 C   0  0  0  0  0  0  0  0  0  0  0  0
   58.8220   32.4560   46.4730 C   0  0  0  0  0  0  0  0  0  0  0  0
   59.4030   33.2600   47.4730 C   0  0  0  0  0  0  0  0  0  0  0  0
   59.7260   34.5940   47.2120 C   0  0  0  0  0  0  0  0  0  0  0  0
   59.4610   35.1460   45.9580 C   0  0  0  0  0  0  0  0  0  0  0  0
   58.8670   34.3670   44.9630 C   0  0  0  0  0  0  0  0  0  0  0  0
   58.5370   33.0290   45.2120 C   0  0  0  0  0  0  0  0  0  0  0  0
   57.7740   32.1000   43.9250 Cl  0  0  0  0  0  0  0  0  0  0  0  0
   57.0010   25.2830   45.1790 C   0  0  0  0  0  0  0  0  0  0  0  0
   57.8734   22.3849   45.0405 H   0  0  0  0  0  0  0  0  0  0  0  0
   56.7686   22.2989   43.6268 H   0  0  0  0  0  0  0  0  0  0  0  0
   58.1386   23.4608   43.6268 H   0  0  0  0  0  0  0  0  0  0  0  0
   54.7230   22.7548   44.8333 H   0  0  0  0  0  0  0  0  0  0  0  0
   53.2516   24.5286   45.8008 H   0  0  0  0  0  0  0  0  0  0  0  0
   57.7316   28.1925   43.2645 H   0  0  0  0  0  0  0  0  0  0  0  0
   58.1473   29.7340   44.0820 H   0  0  0  0  0  0  0  0  0  0  0  0
   58.7391   26.9660   45.2440 H   0  0  0  0  0  0  0  0  0  0  0  0
   59.9125   27.9616   44.2572 H   0  0  0  0  0  0  0  0  0  0  0  0
   57.5684   30.7319   46.2936 H   0  0  0  0  0  0  0  0  0  0  0  0
   58.4741   30.8713   47.8549 H   0  0  0  0  0  0  0  0  0  0  0  0
   59.6040   32.8343   48.4672 H   0  0  0  0  0  0  0  0  0  0  0  0
   60.1900   35.2102   47.9963 H   0  0  0  0  0  0  0  0  0  0  0  0
   59.7202   36.1953   45.7533 H   0  0  0  0  0  0  0  0  0  0  0  0
   58.6569   34.8072   43.9771 H   0  0  0  0  0  0  0  0  0  0  0  0
   58.0594   25.5172   44.9920 H   0  0  0  0  0  0  0  0  0  0  0  0
  1  2  1  0
  2  3  1  0
  3  4  2  0
  4  5  1  0
  5  6  1  0
  6  7  2  3
  7  8  1  0
  8  9  2  0
  8 10  1  0
 10 11  1  0
 11 12  1  0
 12 13  2  0
 12 14  1  0
 14 15  1  0
 15 16  1  0
 16 17  2  0
 17 18  1  0
 18 19  2  0
 19 20  1  0
 20 21  2  0
 21 22  1  0
  6 23  1  0
 23  2  2  0
 21 16  1  0
  1 24  1  0
  1 25  1  0
  1 26  1  0
  3 27  1  0
  4 28  1  0
 10 29  1  0
 10 30  1  0
 11 31  1  0
 11 32  1  0
 15 33  1  0
 15 34  1  0
 17 35  1  0
 18 36  1  0
 19 37  1  0
 20 38  1  0
 23 39  1  0
M  CHG  2   5  -1  14  -1
M  END
>  <UniqueID>  (10) 
10

>  <SMILES>  (10) 
Cc1cc[n-]c(=NC(=O)CCC(=O)[N-]Cc2ccccc2Cl)c1

>  <Energy>  (10) 
41.55997819050376

>  <Genealogy>  (10) 
Cc1cc[n-]c(=NC(=O)CCC(=O)[N-]Cc2ccccc2Cl)c1 (protonated)
Cc1cc[n-]c(=NC(=O)CCC(=O)[N-]Cc2ccccc2Cl)c1 (3D coordinates assigned)
Cc1cc[n-]c(=NC(=O)CCC(=O)[N-]Cc2ccccc2Cl)c1 (optimized conformer: 41.55997819050376 kcal/mol)

>  <smiles>  (10) 
Cc1cc[nH]c(=NC(=O)CCC(=O)NCc2ccccc2Cl)c1

>  <score_type>  (10) 
oracle

>  <origin>  (10) 
adg

>  <m_score__min__energy>  (10) 
-11.720000000000001

>  <m_primary>  (10) 
energy

$$$$
10:0
     RDKit          3D

 60 63  0  0  1  0  0  0  0  0999 V2000
   58.4200   34.2390   45.8140 C   0  0  0  0  0  0  0  0  0  0  0  0
   58.4630   33.5860   47.1880 C   0  0  0  0  0  0  0  0  0  0  0  0
   59.8530   33.3220   47.5930 C   0  0  0  0  0  0  0  0  0  0  0  0
   60.9010   33.7090   46.7740 C   0  0  0  0  0  0  0  0  0  0  0  0
   62.2080   33.4640   47.1440 C   0  0  0  0  0  0  0  0  0  0  0  0
   63.3770   33.8470   46.3250 C   0  0  0  0  0  0  0  0  0  0  0  0
   62.4360   32.8300   48.3400 C   0  0  0  0  0  0  0  0  0  0  0  0
   63.6830   32.5590   48.7670 N   0  0  0  0  0  0  0  0  0  0  0  0
   63.9070   31.9360   49.9410 C   0  0  0  0  0  0  0  0  0  0  0  0
   62.8780   31.5630   50.7300 N   0  0  0  0  0  0  0  0  0  0  0  0
   61.6020   31.8040   50.3660 C   0  0  0  0  0  0  0  0  0  0  0  0
   60.6060   31.4540   51.1080 N   0  0  0  0  0  0  0  0  0  0  0  0
   60.4210   30.0480   51.3730 C   0  0  0  0  0  0  0  0  0  0  0  0
   60.3980   29.2430   50.1260 C   0  0  0  0  0  0  0  0  0  0  0  0
   61.1440   28.2110   50.0390 O   0  0  0  0  0  0  0  0  0  0  0  0
   59.5430   29.6490   49.0680 N   0  0  0  0  0  0  0  0  0  0  0  0
   59.5400   28.8500   47.8690 C   0  0  2  0  0  0  0  0  0  0  0  0
   60.7350   29.0240   47.0010 C   0  0  0  0  0  0  0  0  0  0  0  0
   60.3560   30.1250   46.0570 C   0  0  0  0  0  0  0  0  0  0  0  0
   58.9490   30.2760   46.0740 N   0  0  0  0  0  0  0  0  0  0  0  0
   58.2880   30.1780   44.8260 C   0  0  2  0  0  0  0  0  0  0  0  0
   57.9830   31.4490   44.1150 C   0  0  0  0  0  0  0  0  0  0  0  0
   57.0290   30.9750   43.0090 C   0  0  0  0  0  0  0  0  0  0  0  0
   56.4540   29.6600   43.4870 C   0  0  2  0  0  0  0  0  0  0  0  0
   55.0650   29.6530   43.3920 O   0  0  0  0  0  0  0  0  0  0  0  0
   56.8930   29.5500   44.9520 C   0  0  0  0  0  0  0  0  0  0  0  0
   58.3950   29.2990   46.9880 C   0  0  0  0  0  0  0  0  0  0  0  0
   61.3930   32.4390   49.1670 C   0  0  0  0  0  0  0  0  0  0  0  0
   60.0860   32.6830   48.7980 C   0  0  0  0  0  0  0  0  0  0  0  0
   58.3481   35.3306   45.9289 H   0  0  0  0  0  0  0  0  0  0  0  0
   59.3366   33.9882   45.2600 H   0  0  0  0  0  0  0  0  0  0  0  0
   57.5442   33.8702   45.2600 H   0  0  0  0  0  0  0  0  0  0  0  0
   57.9939   34.2575   47.9222 H   0  0  0  0  0  0  0  0  0  0  0  0
   57.9191   32.6309   47.1438 H   0  0  0  0  0  0  0  0  0  0  0  0
   60.6899   34.2158   45.8208 H   0  0  0  0  0  0  0  0  0  0  0  0
   64.2132   34.1210   46.9851 H   0  0  0  0  0  0  0  0  0  0  0  0
   63.6736   32.9991   45.6902 H   0  0  0  0  0  0  0  0  0  0  0  0
   63.1143   34.7061   45.6902 H   0  0  0  0  0  0  0  0  0  0  0  0
   64.9395   31.7295   50.2592 H   0  0  0  0  0  0  0  0  0  0  0  0
   63.1070   31.0850   51.6280 H   0  0  0  0  0  0  0  0  0  0  0  0
   61.2471   29.6950   52.0078 H   0  0  0  0  0  0  0  0  0  0  0  0
   59.4502   29.9228   51.8750 H   0  0  0  0  0  0  0  0  0  0  0  0
   58.9210   30.4850   49.1040 H   0  0  0  0  0  0  0  0  0  0  0  0
   59.4877   27.8112   48.2271 H   0  0  0  0  0  0  0  0  0  0  0  0
   61.6122   29.3101   47.5999 H   0  0  0  0  0  0  0  0  0  0  0  0
   61.0083   28.0975   46.4749 H   0  0  0  0  0  0  0  0  0  0  0  0
   60.8325   31.0643   46.3742 H   0  0  0  0  0  0  0  0  0  0  0  0
   60.6931   29.8776   45.0396 H   0  0  0  0  0  0  0  0  0  0  0  0
   59.0302   29.5878   44.2685 H   0  0  0  0  0  0  0  0  0  0  0  0
   57.4927   32.1728   44.7827 H   0  0  0  0  0  0  0  0  0  0  0  0
   58.8746   31.9713   43.7379 H   0  0  0  0  0  0  0  0  0  0  0  0
   56.2253   31.7104   42.8569 H   0  0  0  0  0  0  0  0  0  0  0  0
   57.5526   30.8595   42.0485 H   0  0  0  0  0  0  0  0  0  0  0  0
   56.8072   28.8149   42.8779 H   0  0  0  0  0  0  0  0  0  0  0  0
   54.8400   29.0860   42.6100 H   0  0  0  0  0  0  0  0  0  0  0  0
   56.2395   30.1259   45.6238 H   0  0  0  0  0  0  0  0  0  0  0  0
   56.8644   28.5380   45.3821 H   0  0  0  0  0  0  0  0  0  0  0  0
   57.6005   29.7543   47.5975 H   0  0  0  0  0  0  0  0  0  0  0  0
   57.9485   28.4515   46.4472 H   0  0  0  0  0  0  0  0  0  0  0  0
   59.2507   32.3774   49.4452 H   0  0  0  0  0  0  0  0  0  0  0  0
  1  2  1  0
  2  3  1  0
  3  4  2  0
  4  5  1  0
  5  6  1  0
  5  7  2  0
  7  8  1  0
  8  9  2  0
  9 10  1  0
 10 11  1  0
 11 12  2  0
 12 13  1  0
 13 14  1  0
 14 15  2  0
 14 16  1  0
 16 17  1  0
 17 18  1  0
 18 19  1  0
 19 20  1  0
 20 21  1  0
 21 22  1  0
 22 23  1  0
 23 24  1  0
 24 25  1  0
 24 26  1  0
 20 27  1  0
 11 28  1  0
 28 29  2  0
 29  3  1  0
 28  7  1  0
 27 17  1  0
 26 21  1  0
  1 30  1  0
  1 31  1  0
  1 32  1  0
  2 33  1  0
  2 34  1  0
  4 35  1  0
  6 36  1  0
  6 37  1  0
  6 38  1  0
  9 39  1  0
 10 40  1  0
 13 41  1  0
 13 42  1  0
 16 43  1  0
 17 44  1  1
 18 45  1  0
 18 46  1  0
 19 47  1  0
 19 48  1  0
 21 49  1  6
 22 50  1  0
 22 51  1  0
 23 52  1  0
 23 53  1  0
 24 54  1  6
 25 55  1  0
 26 56  1  0
 26 57  1  0
 27 58  1  0
 27 59  1  0
 29 60  1  0
M  END
>  <smiles>  (11) 
CCc1cc(C)c2nc[nH]c(=NCC(=O)NC3CCN(C4CCC(O)C4)C3)c2c1

>  <score_type>  (11) 
oracle

>  <origin>  (11) 
adg

>  <m_score__min__energy>  (11) 
-9.4100000000000001

>  <m_primary>  (11) 
energy

$$$$
11:0
     RDKit          3D

 50 52  0  0  0  0  0  0  0  0999 V2000
   59.1070   29.4810   44.8660 C   0  0  0  0  0  0  0  0  0  0  0  0
   57.7720   29.6980   45.5780 C   0  0  0  0  0  0  0  0  0  0  0  0
   56.9340   30.7010   44.8790 N   0  0  0  0  0  0  0  0  0  0  0  0
   56.8020   30.4650   43.4200 C   0  0  0  0  0  0  0  0  0  0  0  0
   57.3900   31.5800   42.5450 C   0  0  0  0  0  0  0  0  0  0  0  0
   57.3640   32.0850   45.1850 C   0  0  0  0  0  0  0  0  0  0  0  0
   57.9510   32.1910   46.6030 C   0  0  0  0  0  0  0  0  0  0  0  0
   58.1720   33.6470   47.0950 C   0  0  2  0  0  0  0  0  0  0  0  0
   58.6030   34.6210   45.9610 C   0  0  0  0  0  0  0  0  0  0  0  0
   59.9730   34.2660   45.3470 C   0  0  0  0  0  0  0  0  0  0  0  0
   60.9630   33.9290   46.4210 C   0  0  0  0  0  0  0  0  0  0  0  0
   62.3000   33.8270   46.2480 N   0  0  0  0  0  0  0  0  0  0  0  0
   62.7860   33.4580   47.4490 C   0  0  0  0  0  0  0  0  0  0  0  0
   64.1190   33.2420   47.7890 C   0  0  0  0  0  0  0  0  0  0  0  0
   64.4110   32.8750   49.1160 C   0  0  0  0  0  0  0  0  0  0  0  0
   63.3700   32.7320   50.0770 C   0  0  0  0  0  0  0  0  0  0  0  0
   63.6250   32.3710   51.4070 O   0  0  0  0  0  0  0  0  0  0  0  0
   64.1720   31.1190   51.8090 C   0  0  0  0  0  0  0  0  0  0  0  0
   62.0340   32.9590   49.6940 C   0  0  0  0  0  0  0  0  0  0  0  0
   61.7780   33.3160   48.3720 C   0  0  0  0  0  0  0  0  0  0  0  0
   60.6010   33.5950   47.7150 C   0  0  0  0  0  0  0  0  0  0  0  0
   59.2030   33.6790   48.2510 C   0  0  0  0  0  0  0  0  0  0  0  0
   59.9041   29.3514   45.6129 H   0  0  0  0  0  0  0  0  0  0  0  0
   59.0447   28.5812   44.2363 H   0  0  0  0  0  0  0  0  0  0  0  0
   59.3329   30.3542   44.2363 H   0  0  0  0  0  0  0  0  0  0  0  0
   57.2282   28.7425   45.6146 H   0  0  0  0  0  0  0  0  0  0  0  0
   57.9808   30.0721   46.5911 H   0  0  0  0  0  0  0  0  0  0  0  0
   57.3190   29.5256   43.1747 H   0  0  0  0  0  0  0  0  0  0  0  0
   55.7243   30.4288   43.2027 H   0  0  0  0  0  0  0  0  0  0  0  0
   57.8064   32.3695   43.1879 H   0  0  0  0  0  0  0  0  0  0  0  0
   58.1870   31.1659   41.9099 H   0  0  0  0  0  0  0  0  0  0  0  0
   56.5981   32.0038   41.9099 H   0  0  0  0  0  0  0  0  0  0  0  0
   58.1299   32.3908   44.4570 H   0  0  0  0  0  0  0  0  0  0  0  0
   56.4836   32.7417   45.1253 H   0  0  0  0  0  0  0  0  0  0  0  0
   57.2609   31.6928   47.2998 H   0  0  0  0  0  0  0  0  0  0  0  0
   58.9423   31.7153   46.5703 H   0  0  0  0  0  0  0  0  0  0  0  0
   57.1969   34.0016   47.4602 H   0  0  0  0  0  0  0  0  0  0  0  0
   57.8441   34.5898   45.1654 H   0  0  0  0  0  0  0  0  0  0  0  0
   58.6924   35.6232   46.4056 H   0  0  0  0  0  0  0  0  0  0  0  0
   59.8559   33.3999   44.6790 H   0  0  0  0  0  0  0  0  0  0  0  0
   60.3441   35.1348   44.7835 H   0  0  0  0  0  0  0  0  0  0  0  0
   62.8400   33.9990   45.3710 H   0  0  0  0  0  0  0  0  0  0  0  0
   64.9195   33.3548   47.0430 H   0  0  0  0  0  0  0  0  0  0  0  0
   65.4547   32.6967   49.4140 H   0  0  0  0  0  0  0  0  0  0  0  0
   64.1956   31.0649   52.9074 H   0  0  0  0  0  0  0  0  0  0  0  0
   63.5484   30.3030   51.4150 H   0  0  0  0  0  0  0  0  0  0  0  0
   65.1944   31.0221   51.4150 H   0  0  0  0  0  0  0  0  0  0  0  0
   61.2138   32.8571   50.4199 H   0  0  0  0  0  0  0  0  0  0  0  0
   59.0211   32.8259   48.9212 H   0  0  0  0  0  0  0  0  0  0  0  0
   59.0904   34.6255   48.8000 H   0  0  0  0  0  0  0  0  0  0  0  0
  1  2  1  0
  2  3  1  0
  3  4  1  0
  4  5  1  0
  3  6  1  0
  6  7  1  0
  7  8  1  0
  8  9  1  0
  9 10  1  0
 10 11  1  0
 11 12  1  0
 12 13  1  0
 13 14  2  0
 14 15  1  0
 15 16  2  0
 16 17  1  0
 17 18  1  0
 16 19  1  0
 19 20  2  0
 20 21  1  0
 21 22  1  0
 22  8  1  0
 21 11  2  0
 20 13  1  0
  1 23  1  0
  1 24  1  0
  1 25  1  0
  2 26  1  0
  2 27  1  0
  4 28  1  0
  4 29  1  0
  5 30  1  0
  5 31  1  0
  5 32  1  0
  6 33  1  0
  6 34  1  0
  7 35  1  0
  7 36  1  0
  8 37  1  1
  9 38  1  0
  9 39  1  0
 10 40  1  0
 10 41  1  0
 12 42  1  0
 14 43  1  0
 15 44  1  0
 18 45  1  0
 18 46  1  0
 18 47  1  0
 19 48  1  0
 22 49  1  0
 22 50  1  0
M  END
>  <UniqueID>  (12) 
11

>  <SMILES>  (12) 
CCN(CC)CC[C@@H]1CCc2[nH]c3ccc(OC)cc3c2C1

>  <Energy>  (12) 
83.23187992963867

>  <Genealogy>  (12) 
CCN(CC)CC[C@@H]1CCc2[nH]c3ccc(OC)cc3c2C1 (chirality)
CCN(CC)CC[C@@H]1CCc2[nH]c3ccc(OC)cc3c2C1 (3D coordinates assigned)
CCN(CC)CC[C@@H]1CCc2[nH]c3ccc(OC)cc3c2C1 (nonaromatic ring conformer: 83.23187992963867 kcal/mol)

>  <smiles>  (12) 
CCN(CC)CCC1CCc2[nH]c3ccc(OC)cc3c2C1

>  <score_type>  (12) 
oracle

>  <origin>  (12) 
adg

>  <m_score__min__energy>  (12) 
-7.6699999999999999

>  <m_primary>  (12) 
energy

$$$$
12:0
     RDKit          3D

 52 54  0  0  0  0  0  0  0  0999 V2000
   60.7640   33.6670   49.5050 C   0  0  0  0  0  0  0  0  0  0  0  0
   59.6870   33.1950   50.4490 C   0  0  0  0  0  0  0  0  0  0  0  0
   59.5360   33.8520   51.6840 C   0  0  0  0  0  0  0  0  0  0  0  0
   58.5120   33.4920   52.5600 C   0  0  0  0  0  0  0  0  0  0  0  0
   57.6140   32.4860   52.2110 C   0  0  0  0  0  0  0  0  0  0  0  0
   57.7410   31.8290   50.9870 C   0  0  0  0  0  0  0  0  0  0  0  0
   58.7790   32.1620   50.0950 C   0  0  0  0  0  0  0  0  0  0  0  0
   58.9000   31.3960   48.7880 C   0  0  0  0  0  0  0  0  0  0  0  0
   60.0360   30.4330   48.8080 N   0  0  0  0  0  0  0  0  0  0  0  0
   60.8820   30.5850   47.6020 C   0  0  0  0  0  0  0  0  0  0  0  0
   60.1790   30.0410   46.3450 C   0  0  0  0  0  0  0  0  0  0  0  0
   59.6120   28.6770   46.5210 N   0  0  0  0  0  0  0  0  0  0  0  0
   58.1730   28.6060   46.1790 C   0  0  0  0  0  0  0  0  0  0  0  0
   57.9020   29.2220   44.7970 C   0  0  0  0  0  0  0  0  0  0  0  0
   56.5170   29.8110   44.7260 C   0  0  0  0  0  0  0  0  0  0  0  0
   55.5240   29.0580   44.9030 O   0  0  0  0  0  0  0  0  0  0  0  0
   56.2960   31.2200   44.5670 N   0  0  0  0  0  0  0  0  0  0  0  0
   57.2150   32.2740   44.8860 C   0  0  0  0  0  0  0  0  0  0  0  0
   57.9870   32.8360   43.8610 C   0  0  0  0  0  0  0  0  0  0  0  0
   58.9080   33.8500   44.1470 C   0  0  0  0  0  0  0  0  0  0  0  0
   59.0740   34.2950   45.4620 C   0  0  0  0  0  0  0  0  0  0  0  0
   58.3310   33.7170   46.4940 C   0  0  0  0  0  0  0  0  0  0  0  0
   58.5080   34.1320   47.7730 F   0  0  0  0  0  0  0  0  0  0  0  0
   57.4130   32.7010   46.2100 C   0  0  0  0  0  0  0  0  0  0  0  0
   59.9210   28.0810   47.8410 C   0  0  0  0  0  0  0  0  0  0  0  0
   59.5830   29.0260   49.0110 C   0  0  0  0  0  0  0  0  0  0  0  0
   61.6205   34.0424   50.0842 H   0  0  0  0  0  0  0  0  0  0  0  0
   61.0891   32.8289   48.8711 H   0  0  0  0  0  0  0  0  0  0  0  0
   60.3680   34.4741   48.8711 H   0  0  0  0  0  0  0  0  0  0  0  0
   60.2322   34.6573   51.9613 H   0  0  0  0  0  0  0  0  0  0  0  0
   58.4134   34.0037   53.5287 H   0  0  0  0  0  0  0  0  0  0  0  0
   56.8036   32.2093   52.9015 H   0  0  0  0  0  0  0  0  0  0  0  0
   57.0223   31.0418   50.7153 H   0  0  0  0  0  0  0  0  0  0  0  0
   57.9666   30.8404   48.6144 H   0  0  0  0  0  0  0  0  0  0  0  0
   59.0858   32.1235   47.9841 H   0  0  0  0  0  0  0  0  0  0  0  0
   60.6530   30.6790   49.6180 H   0  0  0  0  0  0  0  0  0  0  0  0
   61.1037   31.6522   47.4535 H   0  0  0  0  0  0  0  0  0  0  0  0
   61.8068   30.0096   47.7555 H   0  0  0  0  0  0  0  0  0  0  0  0
   59.3601   30.7263   46.0809 H   0  0  0  0  0  0  0  0  0  0  0  0
   60.9406   29.9734   45.5542 H   0  0  0  0  0  0  0  0  0  0  0  0
   57.8571   27.5524   46.1710 H   0  0  0  0  0  0  0  0  0  0  0  0
   57.6064   29.1736   46.9319 H   0  0  0  0  0  0  0  0  0  0  0  0
   58.6397   30.0155   44.6068 H   0  0  0  0  0  0  0  0  0  0  0  0
   57.9826   28.4284   44.0396 H   0  0  0  0  0  0  0  0  0  0  0  0
   57.8688   32.4788   42.8273 H   0  0  0  0  0  0  0  0  0  0  0  0
   59.5020   34.2974   43.3364 H   0  0  0  0  0  0  0  0  0  0  0  0
   59.7897   35.1003   45.6839 H   0  0  0  0  0  0  0  0  0  0  0  0
   56.8433   32.2339   47.0268 H   0  0  0  0  0  0  0  0  0  0  0  0
   59.3372   27.1558   47.9553 H   0  0  0  0  0  0  0  0  0  0  0  0
   61.0028   27.8842   47.8731 H   0  0  0  0  0  0  0  0  0  0  0  0
   58.4914   29.0307   49.1470 H   0  0  0  0  0  0  0  0  0  0  0  0
   60.1192   28.6441   49.8923 H   0  0  0  0  0  0  0  0  0  0  0  0
  1  2  1  0
  2  3  2  0
  3  4  1  0
  4  5  2  0
  5  6  1  0
  6  7  2  0
  7  8  1  0
  8  9  1  0
  9 10  1  0
 10 11  1  0
 11 12  1  0
 12 13  1  0
 13 14  1  0
 14 15  1  0
 15 16  2  0
 15 17  1  0
 17 18  1  0
 18 19  2  0
 19 20  1  0
 20 21  2  0
 21 22  1  0
 22 23  1  0
 22 24  2  0
 12 25  1  0
 25 26  1  0
  7  2  1  0
 26  9  1  0
 24 18  1  0
  1 27  1  0
  1 28  1  0
  1 29  1  0
  3 30  1  0
  4 31  1  0
  5 32  1  0
  6 33  1  0
  8 34  1  0
  8 35  1  0
  9 36  1  0
 10 37  1  0
 10 38  1  0
 11 39  1  0
 11 40  1  0
 13 41  1  0
 13 42  1  0
 14 43  1  0
 14 44  1  0
 19 45  1  0
 20 46  1  0
 21 47  1  0
 24 48  1  0
 25 49  1  0
 25 50  1  0
 26 51  1  0
 26 52  1  0
M  CHG  2   9   1  17  -1
M  END
>  <UniqueID>  (13) 
12

>  <SMILES>  (13) 
Cc1ccccc1C[NH+]1CCN(CCC(=O)[N-]c2cccc(F)c2)CC1

>  <Energy>  (13) 
74.33318670438337

>  <Genealogy>  (13) 
Cc1ccccc1C[NH+]1CCN(CCC(=O)[N-]c2cccc(F)c2)CC1 (protonated)
Cc1ccccc1C[NH+]1CCN(CCC(=O)[N-]c2cccc(F)c2)CC1 (3D coordinates assigned)
Cc1ccccc1C[NH+]1CCN(CCC(=O)[N-]c2cccc(F)c2)CC1 (nonaromatic ring conformer: 74.33318670438337 kcal/mol)

>  <smiles>  (13) 
Cc1ccccc1CN1CCN(CCC(=O)Nc2cccc(F)c2)CC1

>  <score_type>  (13) 
oracle

>  <origin>  (13) 
adg

>  <m_score__min__energy>  (13) 
-8.2300000000000004

>  <m_primary>  (13) 
energy

$$$$
13:0
     RDKit          3D

 50 52  0  0  0  0  0  0  0  0999 V2000
   57.0170   34.1400   45.2220 C   0  0  0  0  0  0  0  0  0  0  0  0
   57.2920   33.4700   46.5640 C   0  0  0  0  0  0  0  0  0  0  0  0
   58.7700   33.2870   46.7750 C   0  0  0  0  0  0  0  0  0  0  0  0
   59.2860   32.0290   47.1190 C   0  0  0  0  0  0  0  0  0  0  0  0
   60.6630   31.8500   47.2820 C   0  0  0  0  0  0  0  0  0  0  0  0
   61.5410   32.9270   47.0990 C   0  0  0  0  0  0  0  0  0  0  0  0
   63.2750   32.6830   47.2880 S   0  0  0  0  0  0  0  0  0  0  0  0
   63.9890   33.4700   46.2240 O   0  0  0  0  0  0  0  0  0  0  0  0
   63.5990   31.2260   47.1050 O   0  0  0  0  0  0  0  0  0  0  0  0
   63.7660   33.2250   48.8820 N   0  0  0  0  0  0  0  0  0  0  0  0
   64.0130   32.0880   49.7920 C   0  0  0  0  0  0  0  0  0  0  0  0
   62.7210   31.3260   50.1170 C   0  0  0  0  0  0  0  0  0  0  0  0
   61.6080   32.2510   50.3630 N   0  0  0  0  0  0  0  0  0  0  0  0
   60.3070   31.7210   50.6840 C   0  0  0  0  0  0  0  0  0  0  0  0
   59.2190   32.5820   50.9110 C   0  0  0  0  0  0  0  0  0  0  0  0
   57.9590   32.0660   51.2260 C   0  0  0  0  0  0  0  0  0  0  0  0
   57.7630   30.6750   51.3200 C   0  0  0  0  0  0  0  0  0  0  0  0
   56.5200   30.1070   51.6340 O   0  0  0  0  0  0  0  0  0  0  0  0
   55.3920   30.8470   52.0880 C   0  0  0  0  0  0  0  0  0  0  0  0
   58.8470   29.8190   51.0940 C   0  0  0  0  0  0  0  0  0  0  0  0
   60.1070   30.3340   50.7790 C   0  0  0  0  0  0  0  0  0  0  0  0
   61.8910   33.6780   50.5480 C   0  0  0  0  0  0  0  0  0  0  0  0
   62.8080   34.2210   49.4320 C   0  0  0  0  0  0  0  0  0  0  0  0
   61.0300   34.1820   46.7410 C   0  0  0  0  0  0  0  0  0  0  0  0
   59.6530   34.3610   46.5760 C   0  0  0  0  0  0  0  0  0  0  0  0
   56.6043   35.1454   45.3919 H   0  0  0  0  0  0  0  0  0  0  0  0
   57.9550   34.2200   44.6531 H   0  0  0  0  0  0  0  0  0  0  0  0
   56.2933   33.5379   44.6531 H   0  0  0  0  0  0  0  0  0  0  0  0
   56.8873   34.0986   47.3709 H   0  0  0  0  0  0  0  0  0  0  0  0
   56.8092   32.4817   46.5709 H   0  0  0  0  0  0  0  0  0  0  0  0
   58.6034   31.1783   47.2614 H   0  0  0  0  0  0  0  0  0  0  0  0
   61.0586   30.8605   47.5548 H   0  0  0  0  0  0  0  0  0  0  0  0
   64.6850   33.7080   48.7460 H   0  0  0  0  0  0  0  0  0  0  0  0
   64.7230   31.3971   49.3138 H   0  0  0  0  0  0  0  0  0  0  0  0
   64.4208   32.4859   50.7329 H   0  0  0  0  0  0  0  0  0  0  0  0
   62.4654   30.6744   49.2684 H   0  0  0  0  0  0  0  0  0  0  0  0
   62.8869   30.7302   51.0266 H   0  0  0  0  0  0  0  0  0  0  0  0
   59.3606   33.6705   50.8401 H   0  0  0  0  0  0  0  0  0  0  0  0
   57.1159   32.7503   51.4014 H   0  0  0  0  0  0  0  0  0  0  0  0
   55.3780   30.8562   53.1879 H   0  0  0  0  0  0  0  0  0  0  0  0
   55.4558   31.8793   51.7135 H   0  0  0  0  0  0  0  0  0  0  0  0
   54.4705   30.3774   51.7135 H   0  0  0  0  0  0  0  0  0  0  0  0
   58.7056   28.7304   51.1651 H   0  0  0  0  0  0  0  0  0  0  0  0
   60.9489   29.6479   50.6040 H   0  0  0  0  0  0  0  0  0  0  0  0
   60.9427   34.2353   50.5345 H   0  0  0  0  0  0  0  0  0  0  0  0
   62.4062   33.8060   51.5114 H   0  0  0  0  0  0  0  0  0  0  0  0
   62.1724   34.5777   48.6081 H   0  0  0  0  0  0  0  0  0  0  0  0
   63.4131   35.0200   49.8853 H   0  0  0  0  0  0  0  0  0  0  0  0
   61.7147   35.0294   46.5892 H   0  0  0  0  0  0  0  0  0  0  0  0
   59.2596   35.3473   46.2891 H   0  0  0  0  0  0  0  0  0  0  0  0
  1  2  1  0
  2  3  1  0
  3  4  2  0
  4  5  1  0
  5  6  2  0
  6  7  1  0
  7  8  2  0
  7  9  2  0
  7 10  1  0
 10 11  1  0
 11 12  1  0
 12 13  1  0
 13 14  1  0
 14 15  2  0
 15 16  1  0
 16 17  2  0
 17 18  1  0
 18 19  1  0
 17 20  1  0
 20 21  2  0
 13 22  1  0
 22 23  1  0
  6 24  1  0
 24 25  2  0
 25  3  1  0
 23 10  1  0
 21 14  1  0
  1 26  1  0
  1 27  1  0
  1 28  1  0
  2 29  1  0
  2 30  1  0
  4 31  1  0
  5 32  1  0
 10 33  1  0
 11 34  1  0
 11 35  1  0
 12 36  1  0
 12 37  1  0
 15 38  1  0
 16 39  1  0
 19 40  1  0
 19 41  1  0
 19 42  1  0
 20 43  1  0
 21 44  1  0
 22 45  1  0
 22 46  1  0
 23 47  1  0
 23 48  1  0
 24 49  1  0
 25 50  1  0
M  CHG  1  10   1
M  END
>  <UniqueID>  (14) 
13

>  <SMILES>  (14) 
CCc1ccc(S(=O)(=O)[NH+]2CCN(c3ccc(OC)cc3)CC2)cc1

>  <Energy>  (14) 
57.34270481973421

>  <Genealogy>  (14) 
CCc1ccc(S(=O)(=O)[NH+]2CCN(c3ccc(OC)cc3)CC2)cc1 (protonated)
CCc1ccc(S(=O)(=O)[NH+]2CCN(c3ccc(OC)cc3)CC2)cc1 (3D coordinates assigned)
CCc1ccc(S(=O)(=O)[NH+]2CCN(c3ccc(OC)cc3)CC2)cc1 (nonaromatic ring conformer: 57.34270481973421 kcal/mol)

>  <smiles>  (14) 
CCc1ccc(S(=O)(=O)N2CCN(c3ccc(OC)cc3)CC2)cc1

>  <score_type>  (14) 
oracle

>  <origin>  (14) 
adg

>  <m_score__min__energy>  (14) 
-6.2699999999999996

>  <m_primary>  (14) 
energy

$$$$
14:0
     RDKit          3D

 61 64  0  0  0  0  0  0  0  0999 V2000
   56.5960   30.4730   43.1330 C   0  0  0  0  0  0  0  0  0  0  0  0
   56.5100   30.8670   44.4970 O   0  0  0  0  0  0  0  0  0  0  0  0
   57.3930   31.7590   45.1260 C   0  0  0  0  0  0  0  0  0  0  0  0
   57.1420   33.1450   45.1740 C   0  0  0  0  0  0  0  0  0  0  0  0
   58.0270   34.0020   45.8340 C   0  0  0  0  0  0  0  0  0  0  0  0
   59.1660   33.4890   46.4550 C   0  0  0  0  0  0  0  0  0  0  0  0
   59.4290   32.1180   46.4110 C   0  0  0  0  0  0  0  0  0  0  0  0
   58.5540   31.2460   45.7410 C   0  0  0  0  0  0  0  0  0  0  0  0
   58.8320   29.8330   45.7100 N   0  0  0  0  0  0  0  0  0  0  0  0
   57.7420   28.8550   45.7710 C   0  0  0  0  0  0  0  0  0  0  0  0
   58.0700   27.7100   46.7590 C   0  0  0  0  0  0  0  0  0  0  0  0
   59.5270   27.5280   47.0200 N   0  0  0  0  0  0  0  0  0  0  0  0
   59.9380   28.2440   48.2580 C   0  0  0  0  0  0  0  0  0  0  0  0
   58.9160   29.3010   48.7110 C   0  0  0  0  0  0  0  0  0  0  0  0
   59.0170   29.5080   50.1760 N   0  0  0  0  0  0  0  0  0  0  0  0
   60.3640   29.1740   50.7000 C   0  0  0  0  0  0  0  0  0  0  0  0
   61.3570   30.3630   50.6750 C   0  0  0  0  0  0  0  0  0  0  0  0
   60.8710   31.4520   49.8230 N   0  0  0  0  0  0  0  0  0  0  0  0
   61.8060   32.2250   49.0500 C   0  0  0  0  0  0  0  0  0  0  0  0
   62.2570   33.4670   49.5220 C   0  0  0  0  0  0  0  0  0  0  0  0
   63.1750   34.2150   48.7750 C   0  0  0  0  0  0  0  0  0  0  0  0
   63.6580   33.7190   47.5590 C   0  0  0  0  0  0  0  0  0  0  0  0
   63.2210   32.4770   47.0860 C   0  0  0  0  0  0  0  0  0  0  0  0
   62.2960   31.7330   47.8260 C   0  0  0  0  0  0  0  0  0  0  0  0
   61.9070   30.5170   47.3660 F   0  0  0  0  0  0  0  0  0  0  0  0
   59.5000   31.9480   49.9920 C   0  0  0  0  0  0  0  0  0  0  0  0
   58.5970   30.8600   50.5940 C   0  0  0  0  0  0  0  0  0  0  0  0
   60.3340   27.8770   45.8250 C   0  0  0  0  0  0  0  0  0  0  0  0
   60.1990   29.3640   45.4620 C   0  0  0  0  0  0  0  0  0  0  0  0
   56.8303   29.3998   43.0754 H   0  0  0  0  0  0  0  0  0  0  0  0
   55.6346   30.6657   42.6344 H   0  0  0  0  0  0  0  0  0  0  0  0
   57.3896   31.0488   42.6344 H   0  0  0  0  0  0  0  0  0  0  0  0
   56.2438   33.5549   44.6889 H   0  0  0  0  0  0  0  0  0  0  0  0
   57.8251   35.0829   45.8638 H   0  0  0  0  0  0  0  0  0  0  0  0
   59.8575   34.1647   46.9797 H   0  0  0  0  0  0  0  0  0  0  0  0
   60.3272   31.7180   46.9042 H   0  0  0  0  0  0  0  0  0  0  0  0
   56.8236   29.3620   46.1019 H   0  0  0  0  0  0  0  0  0  0  0  0
   57.6073   28.4216   44.7690 H   0  0  0  0  0  0  0  0  0  0  0  0
   57.5723   27.9265   47.7158 H   0  0  0  0  0  0  0  0  0  0  0  0
   57.7128   26.7790   46.2946 H   0  0  0  0  0  0  0  0  0  0  0  0
   59.6780   26.5050   47.1990 H   0  0  0  0  0  0  0  0  0  0  0  0
   60.0600   27.5064   49.0649 H   0  0  0  0  0  0  0  0  0  0  0  0
   60.8780   28.7704   48.0359 H   0  0  0  0  0  0  0  0  0  0  0  0
   59.1200   30.2502   48.1939 H   0  0  0  0  0  0  0  0  0  0  0  0
   57.9022   28.9525   48.4643 H   0  0  0  0  0  0  0  0  0  0  0  0
   60.2568   28.8335   51.7405 H   0  0  0  0  0  0  0  0  0  0  0  0
   60.7795   28.3957   50.0431 H   0  0  0  0  0  0  0  0  0  0  0  0
   61.4868   30.7417   51.6996 H   0  0  0  0  0  0  0  0  0  0  0  0
   62.3131   30.0051   50.2653 H   0  0  0  0  0  0  0  0  0  0  0  0
   61.8878   33.8546   50.4829 H   0  0  0  0  0  0  0  0  0  0  0  0
   63.5168   35.1932   49.1443 H   0  0  0  0  0  0  0  0  0  0  0  0
   64.3818   34.3060   46.9746 H   0  0  0  0  0  0  0  0  0  0  0  0
   63.6047   32.0856   46.1323 H   0  0  0  0  0  0  0  0  0  0  0  0
   59.5118   32.8192   50.6634 H   0  0  0  0  0  0  0  0  0  0  0  0
   59.1028   32.2303   49.0058 H   0  0  0  0  0  0  0  0  0  0  0  0
   58.6442   30.9245   51.6911 H   0  0  0  0  0  0  0  0  0  0  0  0
   57.5716   31.0272   50.2327 H   0  0  0  0  0  0  0  0  0  0  0  0
   61.3914   27.6552   46.0318 H   0  0  0  0  0  0  0  0  0  0  0  0
   59.9649   27.2822   44.9765 H   0  0  0  0  0  0  0  0  0  0  0  0
   60.8994   29.9508   46.0745 H   0  0  0  0  0  0  0  0  0  0  0  0
   60.4296   29.4910   44.3940 H   0  0  0  0  0  0  0  0  0  0  0  0
  1  2  1  0
  2  3  1  0
  3  4  2  0
  4  5  1  0
  5  6  2  0
  6  7  1  0
  7  8  2  0
  8  9  1  0
  9 10  1  0
 10 11  1  0
 11 12  1  0
 12 13  1  0
 13 14  1  0
 14 15  1  0
 15 16  1  0
 16 17  1  0
 17 18  1  0
 18 19  1  0
 19 20  2  0
 20 21  1  0
 21 22  2  0
 22 23  1  0
 23 24  2  0
 24 25  1  0
 18 26  1  0
 26 27  1  0
 12 28  1  0
 28 29  1  0
  8  3  1  0
 29  9  1  0
 27 15  1  0
 24 19  1  0
  1 30  1  0
  1 31  1  0
  1 32  1  0
  4 33  1  0
  5 34  1  0
  6 35  1  0
  7 36  1  0
 10 37  1  0
 10 38  1  0
 11 39  1  0
 11 40  1  0
 12 41  1  0
 13 42  1  0
 13 43  1  0
 14 44  1  0
 14 45  1  0
 16 46  1  0
 16 47  1  0
 17 48  1  0
 17 49  1  0
 20 50  1  0
 21 51  1  0
 22 52  1  0
 23 53  1  0
 26 54  1  0
 26 55  1  0
 27 56  1  0
 27 57  1  0
 28 58  1  0
 28 59  1  0
 29 60  1  0
 29 61  1  0
M  CHG  1  12   1
M  END
>  <UniqueID>  (15) 
14

>  <SMILES>  (15) 
COc1ccccc1N1CC[NH+](CCN2CCN(c3ccccc3F)CC2)CC1

>  <Energy>  (15) 
89.22587414795453

>  <Genealogy>  (15) 
COc1ccccc1N1CC[NH+](CCN2CCN(c3ccccc3F)CC2)CC1 (protonated)
COc1ccccc1N1CC[NH+](CCN2CCN(c3ccccc3F)CC2)CC1 (3D coordinates assigned)
COc1ccccc1N1CC[NH+](CCN2CCN(c3ccccc3F)CC2)CC1 (nonaromatic ring conformer: 89.22587414795453 kcal/mol)

>  <smiles>  (15) 
COc1ccccc1N1CCN(CCN2CCN(c3ccccc3F)CC2)CC1

>  <score_type>  (15) 
oracle

>  <origin>  (15) 
adg

>  <m_score__min__energy>  (15) 
-6.3700000000000001

>  <m_primary>  (15) 
energy

$$$$
15:0
     RDKit          3D

 57 59  0  0  0  0  0  0  0  0999 V2000
   57.3860   30.6270   44.8250 C   0  0  0  0  0  0  0  0  0  0  0  0
   57.8990   30.4750   46.1310 O   0  0  0  0  0  0  0  0  0  0  0  0
   59.0370   29.6340   46.1190 C   0  0  0  0  0  0  0  0  0  0  0  0
   60.2880   30.4340   46.4720 C   0  0  0  0  0  0  0  0  0  0  0  0
   61.0170   29.7990   48.0170 S   0  0  0  0  0  0  0  0  0  0  0  0
   62.0870   31.2290   48.2460 C   0  0  0  0  0  0  0  0  0  0  0  0
   62.4090   31.9920   47.1160 C   0  0  0  0  0  0  0  0  0  0  0  0
   63.3000   33.0620   47.2130 C   0  0  0  0  0  0  0  0  0  0  0  0
   63.8870   33.3710   48.4390 C   0  0  0  0  0  0  0  0  0  0  0  0
   63.5740   32.6200   49.5740 C   0  0  0  0  0  0  0  0  0  0  0  0
   62.6480   31.5640   49.5040 C   0  0  0  0  0  0  0  0  0  0  0  0
   62.3420   30.8040   50.7400 C   0  0  0  0  0  0  0  0  0  0  0  0
   62.8250   29.6460   50.8770 O   0  0  0  0  0  0  0  0  0  0  0  0
   61.5040   31.3420   51.7780 N   0  0  0  0  0  0  0  0  0  0  0  0
   61.4730   30.6560   53.0710 C   0  0  0  0  0  0  0  0  0  0  0  0
   60.7390   32.5800   51.5690 C   0  0  0  0  0  0  0  0  0  0  0  0
   59.8760   32.4730   50.3380 C   0  0  0  0  0  0  0  0  0  0  0  0
   59.0290   31.4310   49.9740 C   0  0  0  0  0  0  0  0  0  0  0  0
   58.7410   30.1720   50.7270 C   0  0  0  0  0  0  0  0  0  0  0  0
   58.5310   31.6830   48.7500 N   0  0  0  0  0  0  0  0  0  0  0  0
   58.9980   32.8450   48.3240 N   0  0  0  0  0  0  0  0  0  0  0  0
   58.6770   33.3970   47.0380 C   0  0  0  0  0  0  0  0  0  0  0  0
   57.3420   33.4810   46.6100 C   0  0  0  0  0  0  0  0  0  0  0  0
   57.0410   33.9930   45.3440 C   0  0  0  0  0  0  0  0  0  0  0  0
   58.0700   34.4090   44.4950 C   0  0  0  0  0  0  0  0  0  0  0  0
   59.4020   34.3080   44.9070 C   0  0  0  0  0  0  0  0  0  0  0  0
   59.7060   33.7960   46.1720 C   0  0  0  0  0  0  0  0  0  0  0  0
   59.8200   33.3620   49.2670 C   0  0  0  0  0  0  0  0  0  0  0  0
   60.6840   34.5780   49.0890 C   0  0  0  0  0  0  0  0  0  0  0  0
   56.3326   30.9391   44.8789 H   0  0  0  0  0  0  0  0  0  0  0  0
   57.9679   31.3913   44.2891 H   0  0  0  0  0  0  0  0  0  0  0  0
   57.4576   29.6690   44.2891 H   0  0  0  0  0  0  0  0  0  0  0  0
   58.9011   28.8284   46.8556 H   0  0  0  0  0  0  0  0  0  0  0  0
   59.1566   29.2067   45.1125 H   0  0  0  0  0  0  0  0  0  0  0  0
   61.0217   30.3413   45.6577 H   0  0  0  0  0  0  0  0  0  0  0  0
   60.0148   31.4907   46.6087 H   0  0  0  0  0  0  0  0  0  0  0  0
   61.9559   31.7458   46.1444 H   0  0  0  0  0  0  0  0  0  0  0  0
   63.5389   33.6613   46.3221 H   0  0  0  0  0  0  0  0  0  0  0  0
   64.5976   34.2074   48.5125 H   0  0  0  0  0  0  0  0  0  0  0  0
   64.0571   32.8571   50.5334 H   0  0  0  0  0  0  0  0  0  0  0  0
   61.5066   31.3992   53.8813 H   0  0  0  0  0  0  0  0  0  0  0  0
   60.5473   30.0672   53.1516 H   0  0  0  0  0  0  0  0  0  0  0  0
   62.3418   29.9861   53.1516 H   0  0  0  0  0  0  0  0  0  0  0  0
   60.0980   32.7603   52.4446 H   0  0  0  0  0  0  0  0  0  0  0  0
   61.4449   33.4128   51.4341 H   0  0  0  0  0  0  0  0  0  0  0  0
   58.7868   30.3724   51.8076 H   0  0  0  0  0  0  0  0  0  0  0  0
   57.7366   29.8089   50.4637 H   0  0  0  0  0  0  0  0  0  0  0  0
   59.4877   29.4083   50.4637 H   0  0  0  0  0  0  0  0  0  0  0  0
   57.8810   31.0670   48.2100 H   0  0  0  0  0  0  0  0  0  0  0  0
   56.5312   33.1432   47.2722 H   0  0  0  0  0  0  0  0  0  0  0  0
   55.9937   34.0683   45.0163 H   0  0  0  0  0  0  0  0  0  0  0  0
   57.8316   34.8164   43.5014 H   0  0  0  0  0  0  0  0  0  0  0  0
   60.2112   34.6314   44.2357 H   0  0  0  0  0  0  0  0  0  0  0  0
   60.7554   33.7058   46.4892 H   0  0  0  0  0  0  0  0  0  0  0  0
   60.9660   34.9750   50.0753 H   0  0  0  0  0  0  0  0  0  0  0  0
   61.5914   34.3045   48.5307 H   0  0  0  0  0  0  0  0  0  0  0  0
   60.1271   35.3449   48.5307 H   0  0  0  0  0  0  0  0  0  0  0  0
  1  2  1  0
  2  3  1  0
  3  4  1  0
  4  5  1  0
  5  6  1  0
  6  7  2  0
  7  8  1  0
  8  9  2  0
  9 10  1  0
 10 11  2  0
 11 12  1  0
 12 13  2  0
 12 14  1  0
 14 15  1  0
 14 16  1  0
 16 17  1  0
 17 18  1  0
 18 19  1  0
 18 20  2  0
 20 21  1  0
 21 22  1  0
 22 23  2  0
 23 24  1  0
 24 25  2  0
 25 26  1  0
 26 27  2  0
 21 28  1  0
 28 29  1  0
 11  6  1  0
 28 17  2  0
 27 22  1  0
  1 30  1  0
  1 31  1  0
  1 32  1  0
  3 33  1  0
  3 34  1  0
  4 35  1  0
  4 36  1  0
  7 37  1  0
  8 38  1  0
  9 39  1  0
 10 40  1  0
 15 41  1  0
 15 42  1  0
 15 43  1  0
 16 44  1  0
 16 45  1  0
 19 46  1  0
 19 47  1  0
 19 48  1  0
 20 49  1  0
 23 50  1  0
 24 51  1  0
 25 52  1  0
 26 53  1  0
 27 54  1  0
 29 55  1  0
 29 56  1  0
 29 57  1  0
M  CHG  1  20   1
M  END
>  <UniqueID>  (16) 
15

>  <SMILES>  (16) 
COCCSc1ccccc1C(=O)N(C)Cc1c(C)[nH+]n(-c2ccccc2)c1C

>  <Energy>  (16) 
93.24794824737997

>  <Genealogy>  (16) 
COCCSc1ccccc1C(=O)N(C)Cc1c(C)[nH+]n(-c2ccccc2)c1C (protonated)
COCCSc1ccccc1C(=O)N(C)Cc1c(C)[nH+]n(-c2ccccc2)c1C (3D coordinates assigned)
COCCSc1ccccc1C(=O)N(C)Cc1c(C)[nH+]n(-c2ccccc2)c1C (optimized conformer: 93.24794824737997 kcal/mol)

>  <smiles>  (16) 
COCCSc1ccccc1C(=O)N(C)Cc1c(C)nn(-c2ccccc2)c1C

>  <score_type>  (16) 
oracle

>  <origin>  (16) 
adg

>  <m_score__min__energy>  (16) 
-7.8499999999999996

>  <m_primary>  (16) 
energy

$$$$
16:0
     RDKit          3D

 38 38  0  0  0  0  0  0  0  0999 V2000
   59.5994   33.8582   49.7971 H   0  0  0  0  0  0  0  0  0  0  0  0
   59.7610   33.8600   48.7090 C   0  0  0  0  0  0  0  0  0  0  0  0
   58.7110   33.5300   47.8470 C   0  0  0  0  0  0  0  0  0  0  0  0
   57.7226   33.2798   48.2599 H   0  0  0  0  0  0  0  0  0  0  0  0
   58.9110   33.5160   46.4550 C   0  0  0  0  0  0  0  0  0  0  0  0
   57.8040   33.1860   45.5300 C   0  0  0  0  0  0  0  0  0  0  0  0
   57.1030   34.1240   45.0610 O   0  0  0  0  0  0  0  0  0  0  0  0
   57.4810   31.7960   45.1400 C   0  0  0  0  0  0  0  0  0  0  0  0
   56.2750   31.5310   44.7360 N   0  0  0  0  0  0  0  0  0  0  0  0
   55.8530   30.2430   44.4910 O   0  0  0  0  0  0  0  0  0  0  0  0
   55.9140   29.7080   43.1800 C   0  0  0  0  0  0  0  0  0  0  0  0
   56.0385   28.6164   43.2349 H   0  0  0  0  0  0  0  0  0  0  0  0
   54.9831   29.9444   42.6438 H   0  0  0  0  0  0  0  0  0  0  0  0
   56.7678   30.1479   42.6438 H   0  0  0  0  0  0  0  0  0  0  0  0
   58.5530   30.7280   45.0940 C   0  0  0  0  0  0  0  0  0  0  0  0
   59.5415   31.2029   45.1796 H   0  0  0  0  0  0  0  0  0  0  0  0
   58.4751   30.1856   44.1402 H   0  0  0  0  0  0  0  0  0  0  0  0
   58.3750   29.7690   46.2070 N   0  0  0  0  0  0  0  0  0  0  0  0
   59.4010   29.9350   47.2630 C   0  0  0  0  0  0  0  0  0  0  0  0
   59.5480   28.9649   47.7603 H   0  0  0  0  0  0  0  0  0  0  0  0
   59.0310   30.7077   47.9530 H   0  0  0  0  0  0  0  0  0  0  0  0
   60.7590   30.4190   46.7320 C   0  0  0  0  0  0  0  0  0  0  0  0
   61.4207   30.6548   47.5784 H   0  0  0  0  0  0  0  0  0  0  0  0
   61.2158   29.6283   46.1187 H   0  0  0  0  0  0  0  0  0  0  0  0
   60.6128   31.3204   46.1187 H   0  0  0  0  0  0  0  0  0  0  0  0
   58.2400   28.3650   45.7500 C   0  0  0  0  0  0  0  0  0  0  0  0
   58.6898   27.6933   46.4960 H   0  0  0  0  0  0  0  0  0  0  0  0
   57.1737   28.1235   45.6288 H   0  0  0  0  0  0  0  0  0  0  0  0
   58.9520   28.1860   44.4130 C   0  0  0  0  0  0  0  0  0  0  0  0
   60.0048   27.9213   44.5908 H   0  0  0  0  0  0  0  0  0  0  0  0
   58.4634   27.3828   43.8420 H   0  0  0  0  0  0  0  0  0  0  0  0
   58.9013   29.1248   43.8420 H   0  0  0  0  0  0  0  0  0  0  0  0
   60.1730   33.8680   45.9430 C   0  0  0  0  0  0  0  0  0  0  0  0
   60.3371   33.8837   44.8554 H   0  0  0  0  0  0  0  0  0  0  0  0
   61.2200   34.1980   46.8090 C   0  0  0  0  0  0  0  0  0  0  0  0
   62.2068   34.4628   46.4015 H   0  0  0  0  0  0  0  0  0  0  0  0
   61.0150   34.1920   48.1910 C   0  0  0  0  0  0  0  0  0  0  0  0
   62.0320   34.5110   49.0280 F   0  0  0  0  0  0  0  0  0  0  0  0
  1  2  1  0
  2  3  2  0
  3  4  1  0
  3  5  1  0
  5  6  1  0
  6  7  2  0
  6  8  1  0
  8  9  2  0
  9 10  1  0
 10 11  1  0
 11 12  1  0
 11 13  1  0
 11 14  1  0
  8 15  1  0
 15 16  1  0
 15 17  1  0
 15 18  1  0
 18 19  1  0
 19 20  1  0
 19 21  1  0
 19 22  1  0
 22 23  1  0
 22 24  1  0
 22 25  1  0
 18 26  1  0
 26 27  1  0
 26 28  1  0
 26 29  1  0
 29 30  1  0
 29 31  1  0
 29 32  1  0
  5 33  2  0
 33 34  1  0
 33 35  1  0
 35 36  1  0
 35 37  2  0
 37 38  1  0
 37  2  1  0
M  END
>  <UniqueID>  (17) 
16

>  <SMILES>  (17) 
CCN(CC)C/C(=N\OC)C(=O)c1ccc(F)cc1

>  <Energy>  (17) 
37.14021227846156

>  <Genealogy>  (17) 
CCN(CC)C/C(=N\OC)C(=O)c1ccc(F)cc1 (cis-trans isomerization)
CCN(CC)C/C(=N\OC)C(=O)c1ccc(F)cc1 (3D coordinates assigned)
CCN(CC)C/C(=N\OC)C(=O)c1ccc(F)cc1 (optimized conformer: 37.14021227846156 kcal/mol)

>  <smiles>  (17) 
CCN(CC)CC(=NOC)C(=O)c1ccc(F)cc1

>  <score_type>  (17) 
oracle

>  <origin>  (17) 
adg

>  <m_score__min__energy>  (17) 
-6

>  <m_primary>  (17) 
energy

$$$$
17:0
     RDKit          3D

 49 50  0  0  0  0  0  0  0  0999 V2000
   57.8224   35.1048   44.3624 H   0  0  0  0  0  0  0  0  0  0  0  0
   58.1040   34.1850   44.8960 C   0  0  0  0  0  0  0  0  0  0  0  0
   59.0760   34.2320   45.8930 C   0  0  0  0  0  0  0  0  0  0  0  0
   59.6370   35.5490   46.3490 C   0  0  0  0  0  0  0  0  0  0  0  0
   59.6506   35.5808   47.4485 H   0  0  0  0  0  0  0  0  0  0  0  0
   60.6619   35.6632   45.9662 H   0  0  0  0  0  0  0  0  0  0  0  0
   59.0093   36.3672   45.9662 H   0  0  0  0  0  0  0  0  0  0  0  0
   59.4630   33.0500   46.5330 C   0  0  0  0  0  0  0  0  0  0  0  0
   60.1580   33.1007   47.3841 H   0  0  0  0  0  0  0  0  0  0  0  0
   58.9800   31.7940   46.1090 C   0  0  0  0  0  0  0  0  0  0  0  0
   59.4250   30.5680   46.6850 C   0  0  0  0  0  0  0  0  0  0  0  0
   60.6130   30.3480   47.1950 N   0  0  0  0  0  0  0  0  0  0  0  0
   61.0340   29.9550   48.5420 C   0  0  0  0  0  0  0  0  0  0  0  0
   60.1450   29.7063   49.1402 H   0  0  0  0  0  0  0  0  0  0  0  0
   61.6980   29.0814   48.4646 H   0  0  0  0  0  0  0  0  0  0  0  0
   61.8020   31.1030   49.2290 C   0  0  0  0  0  0  0  0  0  0  0  0
   61.2695   31.3568   50.1574 H   0  0  0  0  0  0  0  0  0  0  0  0
   62.8232   30.7260   49.3868 H   0  0  0  0  0  0  0  0  0  0  0  0
   61.9520   32.3560   48.4300 N   0  0  0  0  0  0  0  0  0  0  0  0
   61.2890   32.2540   47.6260 H   0  0  0  0  0  0  0  0  0  0  0  0
   61.5610   33.5880   49.1630 C   0  0  0  0  0  0  0  0  0  0  0  0
   62.2998   33.7716   49.9570 H   0  0  0  0  0  0  0  0  0  0  0  0
   61.5291   34.4078   48.4302 H   0  0  0  0  0  0  0  0  0  0  0  0
   60.1690   33.4950   49.8040 C   0  0  0  0  0  0  0  0  0  0  0  0
   60.2686   33.5017   50.8995 H   0  0  0  0  0  0  0  0  0  0  0  0
   59.5607   34.3545   49.4859 H   0  0  0  0  0  0  0  0  0  0  0  0
   59.6804   32.5622   49.4859 H   0  0  0  0  0  0  0  0  0  0  0  0
   63.3200   32.4850   47.8560 C   0  0  0  0  0  0  0  0  0  0  0  0
   64.0130   32.7778   48.6585 H   0  0  0  0  0  0  0  0  0  0  0  0
   63.5927   31.5123   47.4207 H   0  0  0  0  0  0  0  0  0  0  0  0
   63.3920   33.5340   46.7360 C   0  0  0  0  0  0  0  0  0  0  0  0
   63.4610   34.5387   47.1785 H   0  0  0  0  0  0  0  0  0  0  0  0
   64.2793   33.3457   46.1138 H   0  0  0  0  0  0  0  0  0  0  0  0
   62.4873   33.4687   46.1138 H   0  0  0  0  0  0  0  0  0  0  0  0
   58.5960   29.4540   46.5770 C   0  0  0  0  0  0  0  0  0  0  0  0
   58.7962   28.5613   47.1878 H   0  0  0  0  0  0  0  0  0  0  0  0
   57.5180   29.4650   45.7020 C   0  0  0  0  0  0  0  0  0  0  0  0
   56.8971   28.5628   45.5995 H   0  0  0  0  0  0  0  0  0  0  0  0
   57.2130   30.5780   44.9640 N   0  0  0  0  0  0  0  0  0  0  0  0
   56.1040   30.4510   43.9970 C   0  0  0  0  0  0  0  0  0  0  0  0
   55.7608   31.4551   43.7073 H   0  0  0  0  0  0  0  0  0  0  0  0
   55.2850   29.8894   44.4700 H   0  0  0  0  0  0  0  0  0  0  0  0
   56.5590   29.6980   42.7500 C   0  0  0  0  0  0  0  0  0  0  0  0
   57.1066   28.7918   43.0483 H   0  0  0  0  0  0  0  0  0  0  0  0
   55.6805   29.4152   42.1515 H   0  0  0  0  0  0  0  0  0  0  0  0
   57.2179   30.3442   42.1515 H   0  0  0  0  0  0  0  0  0  0  0  0
   57.8840   31.7650   45.1900 C   0  0  0  0  0  0  0  0  0  0  0  0
   57.4860   32.9770   44.5710 C   0  0  0  0  0  0  0  0  0  0  0  0
   56.6786   32.9647   43.8240 H   0  0  0  0  0  0  0  0  0  0  0  0
  1  2  1  0
  2  3  2  0
  3  4  1  0
  4  5  1  0
  4  6  1  0
  4  7  1  0
  3  8  1  0
  8  9  1  0
  8 10  2  0
 10 11  1  0
 11 12  2  0
 12 13  1  0
 13 14  1  0
 13 15  1  0
 13 16  1  0
 16 17  1  0
 16 18  1  0
 16 19  1  0
 19 20  1  0
 19 21  1  0
 21 22  1  0
 21 23  1  0
 21 24  1  0
 24 25  1  0
 24 26  1  0
 24 27  1  0
 19 28  1  0
 28 29  1  0
 28 30  1  0
 28 31  1  0
 31 32  1  0
 31 33  1  0
 31 34  1  0
 11 35  1  0
 35 36  1  0
 35 37  2  0
 37 38  1  0
 37 39  1  0
 39 40  1  0
 40 41  1  0
 40 42  1  0
 40 43  1  0
 43 44  1  0
 43 45  1  0
 43 46  1  0
 39 47  1  0
 47 48  2  0
 48 49  1  0
 48  2  1  0
 47 10  1  0
M  CHG  1  19   1
M  END
>  <UniqueID>  (18) 
17

>  <SMILES>  (18) 
CCn1cc/c(=N/CC[NH+](CC)CC)c2cc(C)ccc21

>  <Energy>  (18) 
78.11242395552543

>  <Genealogy>  (18) 
CCn1ccc(=NCC[NH+](CC)CC)c2cc(C)ccc21 (protonated)
CCn1cc/c(=N/CC[NH+](CC)CC)c2cc(C)ccc21 (cis-trans isomerization)
CCn1cc/c(=N/CC[NH+](CC)CC)c2cc(C)ccc21 (3D coordinates assigned)
CCn1cc/c(=N/CC[NH+](CC)CC)c2cc(C)ccc21 (optimized conformer: 78.11242395552543 kcal/mol)

>  <smiles>  (18) 
CCN(CC)CCN=c1ccn(CC)c2ccc(C)cc12

>  <score_type>  (18) 
oracle

>  <origin>  (18) 
adg

>  <m_score__min__energy>  (18) 
-4.71

>  <m_primary>  (18) 
energy

$$$$
18:0
     RDKit          3D

 43 44  0  0  0  0  0  0  0  0999 V2000
   56.6340   22.9720   43.9190 C   0  0  0  0  0  0  0  0  0  0  0  0
   55.9090   24.0750   44.1230 C   0  0  0  0  0  0  0  0  0  0  0  0
   54.9000   24.1550   45.2300 C   0  0  0  0  0  0  0  0  0  0  0  0
   55.4710   24.8690   46.3640 N   0  0  0  0  0  0  0  0  0  0  0  0
   56.1100   26.1440   46.2440 C   0  0  0  0  0  0  0  0  0  0  0  0
   55.5210   27.1040   45.6740 O   0  0  0  0  0  0  0  0  0  0  0  0
   57.4720   26.3490   46.8310 C   0  0  0  0  0  0  0  0  0  0  0  0
   57.9120   27.7460   46.6380 N   0  0  0  0  0  0  0  0  0  0  0  0
   58.8420   28.1690   47.7020 C   0  0  0  0  0  0  0  0  0  0  0  0
   58.9920   29.6910   47.6500 C   0  0  0  0  0  0  0  0  0  0  0  0
   59.0190   30.1600   46.2590 N   0  0  0  0  0  0  0  0  0  0  0  0
   58.7190   31.5340   45.9590 C   0  0  0  0  0  0  0  0  0  0  0  0
   59.6100   32.5370   46.3660 C   0  0  0  0  0  0  0  0  0  0  0  0
   59.3530   33.8750   46.0640 C   0  0  0  0  0  0  0  0  0  0  0  0
   58.2000   34.2230   45.3570 C   0  0  0  0  0  0  0  0  0  0  0  0
   57.2990   33.2330   44.9540 C   0  0  0  0  0  0  0  0  0  0  0  0
   57.5490   31.8790   45.2510 C   0  0  0  0  0  0  0  0  0  0  0  0
   56.6580   30.8600   44.8760 O   0  0  0  0  0  0  0  0  0  0  0  0
   56.5660   30.3080   43.5650 C   0  0  0  0  0  0  0  0  0  0  0  0
   59.3430   29.2230   45.1770 C   0  0  0  0  0  0  0  0  0  0  0  0
   58.5250   27.9180   45.3010 C   0  0  0  0  0  0  0  0  0  0  0  0
   57.3674   22.9396   43.0998 H   0  0  0  0  0  0  0  0  0  0  0  0
   56.4977   22.0960   44.5702 H   0  0  0  0  0  0  0  0  0  0  0  0
   56.0551   24.9440   43.4646 H   0  0  0  0  0  0  0  0  0  0  0  0
   54.0073   24.6896   44.8732 H   0  0  0  0  0  0  0  0  0  0  0  0
   54.6210   23.1380   45.5428 H   0  0  0  0  0  0  0  0  0  0  0  0
   57.4401   26.1247   47.9074 H   0  0  0  0  0  0  0  0  0  0  0  0
   58.1826   25.6785   46.3256 H   0  0  0  0  0  0  0  0  0  0  0  0
   58.4425   27.8702   48.6824 H   0  0  0  0  0  0  0  0  0  0  0  0
   59.8218   27.6917   47.5532 H   0  0  0  0  0  0  0  0  0  0  0  0
   58.1427   30.1561   48.1720 H   0  0  0  0  0  0  0  0  0  0  0  0
   59.9375   29.9712   48.1373 H   0  0  0  0  0  0  0  0  0  0  0  0
   60.5172   32.2677   46.9268 H   0  0  0  0  0  0  0  0  0  0  0  0
   60.0589   34.6560   46.3830 H   0  0  0  0  0  0  0  0  0  0  0  0
   58.0005   35.2778   45.1169 H   0  0  0  0  0  0  0  0  0  0  0  0
   56.3897   33.5130   44.4019 H   0  0  0  0  0  0  0  0  0  0  0  0
   56.3855   29.2252   43.6349 H   0  0  0  0  0  0  0  0  0  0  0  0
   55.7348   30.7841   43.0242 H   0  0  0  0  0  0  0  0  0  0  0  0
   57.5067   30.4888   43.0242 H   0  0  0  0  0  0  0  0  0  0  0  0
   59.1155   29.6982   44.2113 H   0  0  0  0  0  0  0  0  0  0  0  0
   60.4116   28.9708   45.2444 H   0  0  0  0  0  0  0  0  0  0  0  0
   57.7241   27.9330   44.5471 H   0  0  0  0  0  0  0  0  0  0  0  0
   59.2183   27.0782   45.1456 H   0  0  0  0  0  0  0  0  0  0  0  0
  1  2  2  0
  2  3  1  0
  3  4  1  0
  4  5  1  0
  5  6  2  0
  5  7  1  0
  7  8  1  0
  8  9  1  0
  9 10  1  0
 10 11  1  0
 11 12  1  0
 12 13  2  0
 13 14  1  0
 14 15  2  0
 15 16  1  0
 16 17  2  0
 17 18  1  0
 18 19  1  0
 11 20  1  0
 20 21  1  0
 21  8  1  0
 17 12  1  0
  1 22  1  0
  1 23  1  0
  2 24  1  0
  3 25  1  0
  3 26  1  0
  7 27  1  0
  7 28  1  0
  9 29  1  0
  9 30  1  0
 10 31  1  0
 10 32  1  0
 13 33  1  0
 14 34  1  0
 15 35  1  0
 16 36  1  0
 19 37  1  0
 19 38  1  0
 19 39  1  0
 20 40  1  0
 20 41  1  0
 21 42  1  0
 21 43  1  0
M  CHG  1   4  -1
M  END
>  <UniqueID>  (19) 
18

>  <SMILES>  (19) 
C=CC[N-]C(=O)CN1CCN(c2ccccc2OC)CC1

>  <Energy>  (19) 
45.66774142760599

>  <Genealogy>  (19) 
C=CC[N-]C(=O)CN1CCN(c2ccccc2OC)CC1 (protonated)
C=CC[N-]C(=O)CN1CCN(c2ccccc2OC)CC1 (3D coordinates assigned)
C=CC[N-]C(=O)CN1CCN(c2ccccc2OC)CC1 (nonaromatic ring conformer: 45.66774142760599 kcal/mol)

>  <smiles>  (19) 
C=CCNC(=O)CN1CCN(c2ccccc2OC)CC1

>  <score_type>  (19) 
oracle

>  <origin>  (19) 
adg

>  <m_score__min__energy>  (19) 
-9.0999999999999996

>  <m_primary>  (19) 
energy

$$$$
19:0
     RDKit          3D

 35 37  0  0  0  0  0  0  0  0999 V2000
   54.7890   29.3070   42.7420 H   0  0  0  0  0  0  0  0  0  0  0  0
   54.7720   29.6290   43.7370 N   0  0  0  0  0  0  0  0  0  0  0  0
   55.8570   29.7170   44.4350 C   0  0  0  0  0  0  0  0  0  0  0  0
   56.3880   28.6030   44.9980 N   0  0  0  0  0  0  0  0  0  0  0  0
   57.5270   28.6550   45.7410 C   0  0  0  0  0  0  0  0  0  0  0  0
   58.0690   27.4410   46.3090 N   0  0  0  0  0  0  0  0  0  0  0  0
   57.6290   26.1430   45.8640 C   0  0  0  0  0  0  0  0  0  0  0  0
   57.0330   25.2460   46.7660 C   0  0  0  0  0  0  0  0  0  0  0  0
   56.9031   25.5341   47.8196 H   0  0  0  0  0  0  0  0  0  0  0  0
   56.6040   23.9880   46.3300 C   0  0  0  0  0  0  0  0  0  0  0  0
   56.1366   23.2905   47.0407 H   0  0  0  0  0  0  0  0  0  0  0  0
   56.7680   23.6160   44.9940 C   0  0  0  0  0  0  0  0  0  0  0  0
   56.4290   22.6267   44.6529 H   0  0  0  0  0  0  0  0  0  0  0  0
   57.3630   24.5010   44.0900 C   0  0  0  0  0  0  0  0  0  0  0  0
   57.4922   24.2074   43.0378 H   0  0  0  0  0  0  0  0  0  0  0  0
   57.7940   25.7590   44.5220 C   0  0  0  0  0  0  0  0  0  0  0  0
   58.2644   26.4514   43.8083 H   0  0  0  0  0  0  0  0  0  0  0  0
   59.0850   27.5350   47.3630 C   0  0  0  0  0  0  0  0  0  0  0  0
   58.5970   27.4898   48.3478 H   0  0  0  0  0  0  0  0  0  0  0  0
   59.7927   26.6985   47.2658 H   0  0  0  0  0  0  0  0  0  0  0  0
   59.6272   28.4871   47.2658 H   0  0  0  0  0  0  0  0  0  0  0  0
   58.1740   29.8910   45.9100 C   0  0  0  0  0  0  0  0  0  0  0  0
   59.1103   29.9566   46.4836 H   0  0  0  0  0  0  0  0  0  0  0  0
   57.6080   31.0420   45.3360 C   0  0  0  0  0  0  0  0  0  0  0  0
   58.2370   32.3780   45.4870 C   0  0  0  0  0  0  0  0  0  0  0  0
   57.7660   33.4690   44.7330 C   0  0  0  0  0  0  0  0  0  0  0  0
   56.9348   33.3269   44.0267 H   0  0  0  0  0  0  0  0  0  0  0  0
   58.3320   34.6980   44.8720 N   0  0  0  0  0  0  0  0  0  0  0  0
   59.3560   34.9200   45.7370 C   0  0  0  0  0  0  0  0  0  0  0  0
   59.7956   35.9248   45.8218 H   0  0  0  0  0  0  0  0  0  0  0  0
   59.8500   33.8760   46.5170 C   0  0  0  0  0  0  0  0  0  0  0  0
   60.6748   34.0528   47.2230 H   0  0  0  0  0  0  0  0  0  0  0  0
   59.2880   32.6030   46.3940 C   0  0  0  0  0  0  0  0  0  0  0  0
   59.6687   31.7739   47.0085 H   0  0  0  0  0  0  0  0  0  0  0  0
   56.4660   30.9200   44.6070 N   0  0  0  0  0  0  0  0  0  0  0  0
  1  2  1  0
  2  3  2  0
  3  4  1  0
  4  5  2  0
  5  6  1  0
  6  7  1  0
  7  8  2  0
  8  9  1  0
  8 10  1  0
 10 11  1  0
 10 12  2  0
 12 13  1  0
 12 14  1  0
 14 15  1  0
 14 16  2  0
 16 17  1  0
  6 18  1  0
 18 19  1  0
 18 20  1  0
 18 21  1  0
  5 22  1  0
 22 23  1  0
 22 24  2  0
 24 25  1  0
 25 26  2  0
 26 27  1  0
 26 28  1  0
 28 29  2  0
 29 30  1  0
 29 31  1  0
 31 32  1  0
 31 33  2  0
 33 34  1  0
 24 35  1  0
 35  3  1  0
 16  7  1  0
 33 25  1  0
M  CHG  1  35  -1
M  END
>  <UniqueID>  (20) 
19

>  <SMILES>  (20) 
[H]/N=c1/nc(N(C)c2ccccc2)cc(-c2cccnc2)[n-]1

>  <Energy>  (20) 
49.69234707881481

>  <Genealogy>  (20) 
CN(c1ccccc1)c1cc(-c2cccnc2)[n-]c(=N)n1 (protonated)
[H]/N=c1/nc(N(C)c2ccccc2)cc(-c2cccnc2)[n-]1 (cis-trans isomerization)
[H]/N=c1/nc(N(C)c2ccccc2)cc(-c2cccnc2)[n-]1 (3D coordinates assigned)
[H]/N=c1/nc(N(C)c2ccccc2)cc(-c2cccnc2)[n-]1 (optimized conformer: 49.69234707881481 kcal/mol)

>  <smiles>  (20) 
CN(c1ccccc1)c1cc(-c2cccnc2)[nH]c(=N)n1

>  <score_type>  (20) 
oracle

>  <origin>  (20) 
adg

>  <m_score__min__energy>  (20) 
-9.0500000000000007

>  <m_primary>  (20) 
energy

$$$$
20:0
     RDKit          3D

 52 55  0  0  0  0  0  0  0  0999 V2000
   60.1947   33.8528   48.8102 H   0  0  0  0  0  0  0  0  0  0  0  0
   61.1860   33.6990   48.3590 C   0  0  0  0  0  0  0  0  0  0  0  0
   62.2650   33.3220   49.1640 C   0  0  0  0  0  0  0  0  0  0  0  0
   62.1222   33.1893   50.2466 H   0  0  0  0  0  0  0  0  0  0  0  0
   63.5270   33.1130   48.5950 C   0  0  0  0  0  0  0  0  0  0  0  0
   64.9090   32.6260   49.6280 S   0  0  0  0  0  0  0  0  0  0  0  0
   63.9510   31.3640   50.5230 C   0  0  0  0  0  0  0  0  0  0  0  0
   64.0664   31.5160   51.6063 H   0  0  0  0  0  0  0  0  0  0  0  0
   62.8884   31.4496   50.2518 H   0  0  0  0  0  0  0  0  0  0  0  0
   64.3191   30.3635   50.2518 H   0  0  0  0  0  0  0  0  0  0  0  0
   63.7030   33.2700   47.2150 C   0  0  0  0  0  0  0  0  0  0  0  0
   64.6909   33.0952   46.7638 H   0  0  0  0  0  0  0  0  0  0  0  0
   62.6240   33.6490   46.4090 C   0  0  0  0  0  0  0  0  0  0  0  0
   62.7645   33.7652   45.3242 H   0  0  0  0  0  0  0  0  0  0  0  0
   61.3600   33.8820   46.9810 C   0  0  0  0  0  0  0  0  0  0  0  0
   60.2510   34.2480   46.2060 O   0  0  0  0  0  0  0  0  0  0  0  0
   59.2810   33.3650   45.7090 C   0  0  0  0  0  0  0  0  0  0  0  0
   58.5560   33.7380   44.5520 C   0  0  0  0  0  0  0  0  0  0  0  0
   58.7572   34.7079   44.0737 H   0  0  0  0  0  0  0  0  0  0  0  0
   57.5800   32.8820   44.0060 C   0  0  0  0  0  0  0  0  0  0  0  0
   57.0054   33.1721   43.1140 H   0  0  0  0  0  0  0  0  0  0  0  0
   57.3660   31.6580   44.6310 C   0  0  0  0  0  0  0  0  0  0  0  0
   56.4900   30.6990   44.2780 N   0  0  0  0  0  0  0  0  0  0  0  0
   56.7080   29.7390   45.2180 C   0  0  0  0  0  0  0  0  0  0  0  0
   56.0660   28.6080   45.2460 N   0  0  0  0  0  0  0  0  0  0  0  0
   56.7060   27.2960   45.2940 C   0  0  0  0  0  0  0  0  0  0  0  0
   57.1936   27.1769   46.2728 H   0  0  0  0  0  0  0  0  0  0  0  0
   55.9254   26.5373   45.1361 H   0  0  0  0  0  0  0  0  0  0  0  0
   57.7670   27.1150   44.1870 C   0  0  0  0  0  0  0  0  0  0  0  0
   57.5635   26.1590   43.6823 H   0  0  0  0  0  0  0  0  0  0  0  0
   57.6698   28.0017   43.5433 H   0  0  0  0  0  0  0  0  0  0  0  0
   59.1850   27.1010   44.6240 N   0  0  0  0  0  0  0  0  0  0  0  0
   59.4830   26.5280   45.9420 C   0  0  0  0  0  0  0  0  0  0  0  0
   58.6681   26.7482   46.6473 H   0  0  0  0  0  0  0  0  0  0  0  0
   59.5847   25.4339   45.8912 H   0  0  0  0  0  0  0  0  0  0  0  0
   60.7690   27.1830   46.4030 C   0  0  0  0  0  0  0  0  0  0  0  0
   60.7967   27.2600   47.5000 H   0  0  0  0  0  0  0  0  0  0  0  0
   61.6622   26.6092   46.1149 H   0  0  0  0  0  0  0  0  0  0  0  0
   60.7310   28.5580   45.7680 C   0  0  0  0  0  0  0  0  0  0  0  0
   60.2609   29.2852   46.4464 H   0  0  0  0  0  0  0  0  0  0  0  0
   61.7382   28.9414   45.5476 H   0  0  0  0  0  0  0  0  0  0  0  0
   59.8950   28.3820   44.5080 C   0  0  0  0  0  0  0  0  0  0  0  0
   59.1714   29.2057   44.4194 H   0  0  0  0  0  0  0  0  0  0  0  0
   60.5357   28.3901   43.6139 H   0  0  0  0  0  0  0  0  0  0  0  0
   57.6740   30.0590   46.1160 N   0  0  0  0  0  0  0  0  0  0  0  0
   58.1450   29.2810   47.2600 C   0  0  0  0  0  0  0  0  0  0  0  0
   57.8427   29.7803   48.1924 H   0  0  0  0  0  0  0  0  0  0  0  0
   57.7051   28.2734   47.2243 H   0  0  0  0  0  0  0  0  0  0  0  0
   59.2417   29.2037   47.2243 H   0  0  0  0  0  0  0  0  0  0  0  0
   58.0760   31.2820   45.7360 C   0  0  0  0  0  0  0  0  0  0  0  0
   59.0480   32.1030   46.3060 C   0  0  0  0  0  0  0  0  0  0  0  0
   59.6156   31.7803   47.1913 H   0  0  0  0  0  0  0  0  0  0  0  0
  1  2  1  0
  2  3  2  0
  3  4  1  0
  3  5  1  0
  5  6  1  0
  6  7  1  0
  7  8  1  0
  7  9  1  0
  7 10  1  0
  5 11  2  0
 11 12  1  0
 11 13  1  0
 13 14  1  0
 13 15  2  0
 15 16  1  0
 16 17  1  0
 17 18  2  0
 18 19  1  0
 18 20  1  0
 20 21  1  0
 20 22  2  0
 22 23  1  0
 23 24  1  0
 24 25  2  0
 25 26  1  0
 26 27  1  0
 26 28  1  0
 26 29  1  0
 29 30  1  0
 29 31  1  0
 29 32  1  0
 32 33  1  0
 33 34  1  0
 33 35  1  0
 33 36  1  0
 36 37  1  0
 36 38  1  0
 36 39  1  0
 39 40  1  0
 39 41  1  0
 39 42  1  0
 42 43  1  0
 42 44  1  0
 24 45  1  0
 45 46  1  0
 46 47  1  0
 46 48  1  0
 46 49  1  0
 45 50  1  0
 50 51  2  0
 51 52  1  0
 15  2  1  0
 51 17  1  0
 50 22  1  0
 42 32  1  0
M  CHG  1  23  -1
M  END
>  <UniqueID>  (21) 
20

>  <SMILES>  (21) 
CSc1ccc(Oc2ccc3[n-]/c(=N\CCN4CCCC4)n(C)c3c2)cc1

>  <Energy>  (21) 
101.29593519910406

>  <Genealogy>  (21) 
CSc1ccc(Oc2ccc3[n-]c(=NCCN4CCCC4)n(C)c3c2)cc1 (protonated)
CSc1ccc(Oc2ccc3[n-]/c(=N\CCN4CCCC4)n(C)c3c2)cc1 (cis-trans isomerization)
CSc1ccc(Oc2ccc3[n-]/c(=N\CCN4CCCC4)n(C)c3c2)cc1 (3D coordinates assigned)
CSc1ccc(Oc2ccc3[n-]/c(=N\CCN4CCCC4)n(C)c3c2)cc1 (nonaromatic ring conformer: 101.29593519910406 kcal/mol)

>  <smiles>  (21) 
CSc1ccc(Oc2ccc3[nH]c(=NCCN4CCCC4)n(C)c3c2)cc1

>  <score_type>  (21) 
oracle

>  <origin>  (21) 
adg

>  <m_score__min__energy>  (21) 
-9.7599999999999998

>  <m_primary>  (21) 
energy

$$$$
21:0
     RDKit          3D

 52 55  0  0  0  0  0  0  0  0999 V2000
   56.8667   21.8521   43.0017 H   0  0  0  0  0  0  0  0  0  0  0  0
   57.2190   22.5700   43.7570 C   0  0  0  0  0  0  0  0  0  0  0  0
   56.5450   23.7800   43.9390 C   0  0  0  0  0  0  0  0  0  0  0  0
   55.6661   24.0174   43.3216 H   0  0  0  0  0  0  0  0  0  0  0  0
   56.9860   24.6900   44.9050 C   0  0  0  0  0  0  0  0  0  0  0  0
   56.4584   25.6458   45.0396 H   0  0  0  0  0  0  0  0  0  0  0  0
   58.1040   24.3860   45.7060 C   0  0  0  0  0  0  0  0  0  0  0  0
   58.5890   25.2780   46.6740 O   0  0  0  0  0  0  0  0  0  0  0  0
   58.8520   26.6400   46.4620 C   0  0  0  0  0  0  0  0  0  0  0  0
   58.0780   27.6490   47.0640 C   0  0  0  0  0  0  0  0  0  0  0  0
   57.2376   27.3779   47.7199 H   0  0  0  0  0  0  0  0  0  0  0  0
   58.3740   28.9940   46.8310 C   0  0  0  0  0  0  0  0  0  0  0  0
   57.7751   29.7788   47.3161 H   0  0  0  0  0  0  0  0  0  0  0  0
   59.4330   29.3480   45.9800 C   0  0  0  0  0  0  0  0  0  0  0  0
   59.7770   30.7230   45.7640 N   0  0  0  0  0  0  0  0  0  0  0  0
   59.2620   31.8180   46.2690 C   0  0  0  0  0  0  0  0  0  0  0  0
   58.1400   32.3780   45.6060 C   0  0  0  0  0  0  0  0  0  0  0  0
   57.4080   31.6560   44.5280 C   0  0  0  0  0  0  0  0  0  0  0  0
   57.7750   31.7810   43.3280 O   0  0  0  0  0  0  0  0  0  0  0  0
   56.2720   30.8390   44.8400 N   0  0  0  0  0  0  0  0  0  0  0  0
   56.1760   29.4210   44.5070 C   0  0  0  0  0  0  0  0  0  0  0  0
   55.1189   29.1536   44.3619 H   0  0  0  0  0  0  0  0  0  0  0  0
   56.6057   28.8315   45.3303 H   0  0  0  0  0  0  0  0  0  0  0  0
   56.9530   29.1200   43.2230 C   0  0  0  0  0  0  0  0  0  0  0  0
   57.6333   29.9578   43.0103 H   0  0  0  0  0  0  0  0  0  0  0  0
   56.2327   28.9880   42.4022 H   0  0  0  0  0  0  0  0  0  0  0  0
   57.7690   27.8390   43.3610 C   0  0  0  0  0  0  0  0  0  0  0  0
   57.9148   27.6102   44.4270 H   0  0  0  0  0  0  0  0  0  0  0  0
   57.2329   27.0089   42.8778 H   0  0  0  0  0  0  0  0  0  0  0  0
   58.7479   27.9740   42.8778 H   0  0  0  0  0  0  0  0  0  0  0  0
   57.7460   33.6850   45.9270 C   0  0  0  0  0  0  0  0  0  0  0  0
   56.9012   34.1425   45.3913 H   0  0  0  0  0  0  0  0  0  0  0  0
   58.3890   34.3930   46.8860 N   0  0  0  0  0  0  0  0  0  0  0  0
   58.0680   35.3700   47.0760 H   0  0  0  0  0  0  0  0  0  0  0  0
   59.3770   33.8420   47.6420 C   0  0  0  0  0  0  0  0  0  0  0  0
   59.9360   34.5810   48.6980 C   0  0  0  0  0  0  0  0  0  0  0  0
   59.6413   35.6302   48.8472 H   0  0  0  0  0  0  0  0  0  0  0  0
   60.8610   33.9930   49.5570 C   0  0  0  0  0  0  0  0  0  0  0  0
   61.3177   34.5863   50.3629 H   0  0  0  0  0  0  0  0  0  0  0  0
   61.2080   32.6540   49.3960 C   0  0  0  0  0  0  0  0  0  0  0  0
   61.9078   32.1802   50.1002 H   0  0  0  0  0  0  0  0  0  0  0  0
   60.6700   31.9110   48.3430 C   0  0  0  0  0  0  0  0  0  0  0  0
   60.9198   30.8438   48.2497 H   0  0  0  0  0  0  0  0  0  0  0  0
   59.8080   32.5110   47.3940 C   0  0  0  0  0  0  0  0  0  0  0  0
   60.2410   28.3450   45.4330 C   0  0  0  0  0  0  0  0  0  0  0  0
   61.1109   28.6168   44.8170 H   0  0  0  0  0  0  0  0  0  0  0  0
   59.9460   26.9980   45.6670 C   0  0  0  0  0  0  0  0  0  0  0  0
   60.5783   26.2150   45.2230 H   0  0  0  0  0  0  0  0  0  0  0  0
   58.7850   23.1790   45.5020 C   0  0  0  0  0  0  0  0  0  0  0  0
   59.6738   22.9435   46.1058 H   0  0  0  0  0  0  0  0  0  0  0  0
   58.3410   22.2720   44.5350 C   0  0  0  0  0  0  0  0  0  0  0  0
   58.8757   21.3223   44.3864 H   0  0  0  0  0  0  0  0  0  0  0  0
  1  2  1  0
  2  3  2  0
  3  4  1  0
  3  5  1  0
  5  6  1  0
  5  7  2  0
  7  8  1  0
  8  9  1  0
  9 10  2  0
 10 11  1  0
 10 12  1  0
 12 13  1  0
 12 14  2  0
 14 15  1  0
 15 16  2  0
 16 17  1  0
 17 18  1  0
 18 19  2  0
 18 20  1  0
 20 21  1  0
 21 22  1  0
 21 23  1  0
 21 24  1  0
 24 25  1  0
 24 26  1  0
 24 27  1  0
 27 28  1  0
 27 29  1  0
 27 30  1  0
 17 31  2  0
 31 32  1  0
 31 33  1  0
 33 34  1  0
 33 35  1  0
 35 36  2  0
 36 37  1  0
 36 38  1  0
 38 39  1  0
 38 40  2  0
 40 41  1  0
 40 42  1  0
 42 43  1  0
 42 44  2  0
 14 45  1  0
 45 46  1  0
 45 47  2  0
 47 48  1  0
  7 49  1  0
 49 50  1  0
 49 51  2  0
 51 52  1  0
 51  2  1  0
 47  9  1  0
 44 16  1  0
 44 35  1  0
M  CHG  1  20  -1
M  END
>  <UniqueID>  (22) 
21

>  <SMILES>  (22) 
CCC[N-]C(=O)c1c[nH]c2ccccc2/c1=N/c1ccc(Oc2ccccc2)cc1

>  <Energy>  (22) 
83.77601816436088

>  <Genealogy>  (22) 
CCC[N-]C(=O)c1c[nH]c2ccccc2c1=Nc1ccc(Oc2ccccc2)cc1 (protonated)
CCC[N-]C(=O)c1c[nH]c2ccccc2/c1=N/c1ccc(Oc2ccccc2)cc1 (cis-trans isomerization)
CCC[N-]C(=O)c1c[nH]c2ccccc2/c1=N/c1ccc(Oc2ccccc2)cc1 (3D coordinates assigned)
CCC[N-]C(=O)c1c[nH]c2ccccc2/c1=N/c1ccc(Oc2ccccc2)cc1 (optimized conformer: 83.77601816436088 kcal/mol)

>  <smiles>  (22) 
CCCNC(=O)c1c[nH]c2ccccc2c1=Nc1ccc(Oc2ccccc2)cc1

>  <score_type>  (22) 
oracle

>  <origin>  (22) 
adg

>  <m_score__min__energy>  (22) 
-9.3300000000000001

>  <m_primary>  (22) 
energy

$$$$
22:0
     RDKit          3D

 52 55  0  0  0  0  0  0  0  0999 V2000
   50.2580   21.0390   47.4790 C   0  0  0  0  0  0  0  0  0  0  0  0
   50.5320   21.8480   46.3400 O   0  0  0  0  0  0  0  0  0  0  0  0
   51.7020   22.6020   46.1670 C   0  0  0  0  0  0  0  0  0  0  0  0
   52.8270   22.2690   46.9300 C   0  0  0  0  0  0  0  0  0  0  0  0
   54.0180   22.9880   46.7930 C   0  0  0  0  0  0  0  0  0  0  0  0
   54.1020   24.0570   45.8860 C   0  0  0  0  0  0  0  0  0  0  0  0
   55.3550   24.8200   45.7320 C   0  0  0  0  0  0  0  0  0  0  0  0
   56.5210   24.2960   45.3040 N   0  0  0  0  0  0  0  0  0  0  0  0
   57.3960   25.2900   45.2980 N   0  0  0  0  0  0  0  0  0  0  0  0
   56.7340   26.3830   45.7240 C   0  0  0  0  0  0  0  0  0  0  0  0
   57.3340   27.7230   45.8660 C   0  0  0  0  0  0  0  0  0  0  0  0
   56.9790   28.7650   44.9920 C   0  0  0  0  0  0  0  0  0  0  0  0
   57.5470   30.0340   45.1390 C   0  0  0  0  0  0  0  0  0  0  0  0
   58.4780   30.2810   46.1580 C   0  0  0  0  0  0  0  0  0  0  0  0
   59.0860   31.6520   46.3090 C   0  0  0  0  0  0  0  0  0  0  0  0
   58.1640   32.5550   47.0330 N   0  0  0  0  0  0  0  0  0  0  0  0
   58.9080   33.3790   48.0090 C   0  0  0  0  0  0  0  0  0  0  0  0
   60.0170   34.2400   47.3700 C   0  0  0  0  0  0  0  0  0  0  0  0
   59.5760   35.1570   46.2040 C   0  0  0  0  0  0  0  0  0  0  0  0
   59.3040   34.4360   44.8680 C   0  0  0  0  0  0  0  0  0  0  0  0
   57.9330   33.7270   44.7730 C   0  0  0  0  0  0  0  0  0  0  0  0
   57.2820   33.3130   46.1110 C   0  0  0  0  0  0  0  0  0  0  0  0
   58.8350   29.2410   47.0300 C   0  0  0  0  0  0  0  0  0  0  0  0
   58.2680   27.9730   46.8850 C   0  0  0  0  0  0  0  0  0  0  0  0
   55.4800   26.1000   45.9910 O   0  0  0  0  0  0  0  0  0  0  0  0
   52.9750   24.3920   45.1200 C   0  0  0  0  0  0  0  0  0  0  0  0
   51.7840   23.6730   45.2580 C   0  0  0  0  0  0  0  0  0  0  0  0
   50.4536   21.6165   48.3945 H   0  0  0  0  0  0  0  0  0  0  0  0
   49.2037   20.7258   47.4612 H   0  0  0  0  0  0  0  0  0  0  0  0
   50.9050   20.1496   47.4612 H   0  0  0  0  0  0  0  0  0  0  0  0
   52.7736   21.4339   47.6440 H   0  0  0  0  0  0  0  0  0  0  0  0
   54.8944   22.7149   47.3991 H   0  0  0  0  0  0  0  0  0  0  0  0
   56.2507   28.5811   44.1884 H   0  0  0  0  0  0  0  0  0  0  0  0
   57.2618   30.8436   44.4511 H   0  0  0  0  0  0  0  0  0  0  0  0
   60.0274   31.5697   46.8720 H   0  0  0  0  0  0  0  0  0  0  0  0
   59.2755   32.0675   45.3083 H   0  0  0  0  0  0  0  0  0  0  0  0
   58.1958   34.0479   48.5143 H   0  0  0  0  0  0  0  0  0  0  0  0
   59.3991   32.6866   48.7086 H   0  0  0  0  0  0  0  0  0  0  0  0
   60.4434   34.8785   48.1577 H   0  0  0  0  0  0  0  0  0  0  0  0
   60.7316   33.5270   46.9330 H   0  0  0  0  0  0  0  0  0  0  0  0
   58.6525   35.6721   46.5068 H   0  0  0  0  0  0  0  0  0  0  0  0
   60.4185   35.8390   46.0167 H   0  0  0  0  0  0  0  0  0  0  0  0
   59.3588   35.1815   44.0610 H   0  0  0  0  0  0  0  0  0  0  0  0
   60.0643   33.6453   44.7860 H   0  0  0  0  0  0  0  0  0  0  0  0
   57.2386   34.4079   44.2591 H   0  0  0  0  0  0  0  0  0  0  0  0
   58.1263   32.7858   44.2375 H   0  0  0  0  0  0  0  0  0  0  0  0
   56.9544   34.2272   46.6277 H   0  0  0  0  0  0  0  0  0  0  0  0
   56.4551   32.6353   45.8523 H   0  0  0  0  0  0  0  0  0  0  0  0
   59.5651   29.4255   47.8318 H   0  0  0  0  0  0  0  0  0  0  0  0
   58.5548   27.1645   47.5735 H   0  0  0  0  0  0  0  0  0  0  0  0
   53.0291   25.2266   44.4055 H   0  0  0  0  0  0  0  0  0  0  0  0
   50.9067   23.9458   44.6531 H   0  0  0  0  0  0  0  0  0  0  0  0
  1  2  1  0
  2  3  1  0
  3  4  2  0
  4  5  1  0
  5  6  2  0
  6  7  1  0
  7  8  2  0
  8  9  1  0
  9 10  2  0
 10 11  1  0
 11 12  2  0
 12 13  1  0
 13 14  2  0
 14 15  1  0
 15 16  1  0
 16 17  1  0
 17 18  1  0
 18 19  1  0
 19 20  1  0
 20 21  1  0
 21 22  1  0
 14 23  1  0
 23 24  2  0
 10 25  1  0
  6 26  1  0
 26 27  2  0
 27  3  1  0
 25  7  1  0
 24 11  1  0
 22 16  1  0
  1 28  1  0
  1 29  1  0
  1 30  1  0
  4 31  1  0
  5 32  1  0
 12 33  1  0
 13 34  1  0
 15 35  1  0
 15 36  1  0
 17 37  1  0
 17 38  1  0
 18 39  1  0
 18 40  1  0
 19 41  1  0
 19 42  1  0
 20 43  1  0
 20 44  1  0
 21 45  1  0
 21 46  1  0
 22 47  1  0
 22 48  1  0
 23 49  1  0
 24 50  1  0
 26 51  1  0
 27 52  1  0
M  END
>  <UniqueID>  (23) 
22

>  <SMILES>  (23) 
COc1ccc(-c2nnc(-c3ccc(CN4CCCCCC4)cc3)o2)cc1

>  <Energy>  (23) 
103.72711316531056

>  <Genealogy>  (23) 
COc1ccc(-c2nnc(-c3ccc(CN4CCCCCC4)cc3)o2)cc1 (3D coordinates assigned)
COc1ccc(-c2nnc(-c3ccc(CN4CCCCCC4)cc3)o2)cc1 (nonaromatic ring conformer: 103.72711316531056 kcal/mol)

>  <smiles>  (23) 
COc1ccc(-c2nnc(-c3ccc(CN4CCCCCC4)cc3)o2)cc1

>  <score_type>  (23) 
oracle

>  <origin>  (23) 
adg

>  <m_score__min__energy>  (23) 
-5.8700000000000001

>  <m_primary>  (23) 
energy

$$$$
23:0
     RDKit          3D

 47 49  0  0  0  0  0  0  0  0999 V2000
   55.2660   29.7810   43.7060 C   0  0  0  0  0  0  0  0  0  0  0  0
   55.9960   29.5480   44.9050 O   0  0  0  0  0  0  0  0  0  0  0  0
   57.3250   29.0960   44.9560 C   0  0  0  0  0  0  0  0  0  0  0  0
   57.6970   27.8280   44.4620 C   0  0  0  0  0  0  0  0  0  0  0  0
   59.0220   27.3910   44.5660 C   0  0  0  0  0  0  0  0  0  0  0  0
   59.9830   28.2040   45.1670 C   0  0  0  0  0  0  0  0  0  0  0  0
   59.6260   29.4610   45.6580 C   0  0  0  0  0  0  0  0  0  0  0  0
   58.3080   29.9230   45.5360 C   0  0  0  0  0  0  0  0  0  0  0  0
   57.9740   31.2180   46.0560 N   0  0  0  0  0  0  0  0  0  0  0  0
   57.5110   32.2930   45.2260 C   0  0  0  0  0  0  0  0  0  0  0  0
   57.3720   32.1280   43.9830 O   0  0  0  0  0  0  0  0  0  0  0  0
   57.2850   33.6530   45.8150 C   0  0  0  0  0  0  0  0  0  0  0  0
   58.5190   34.1450   46.4240 N   0  0  0  0  0  0  0  0  0  0  0  0
   59.4750   34.9800   45.7940 C   0  0  0  0  0  0  0  0  0  0  0  0
   59.2120   35.7080   44.8000 O   0  0  0  0  0  0  0  0  0  0  0  0
   60.7720   34.9010   46.3710 N   0  0  0  0  0  0  0  0  0  0  0  0
   60.7170   33.9090   47.4480 C   0  0  2  0  0  0  0  0  0  0  0  0
   61.0880   34.5870   48.7960 C   0  0  0  0  0  0  0  0  0  0  0  0
   61.7510   33.5990   49.7600 C   0  0  0  0  0  0  0  0  0  0  0  0
   63.0790   33.0460   49.1810 C   0  0  1  0  0  0  0  0  0  0  0  0
   63.4330   31.7090   49.8460 C   0  0  0  0  0  0  0  0  0  0  0  0
   63.0550   32.9140   47.6330 C   0  0  0  0  0  0  0  0  0  0  0  0
   61.6340   32.7070   47.0980 C   0  0  0  0  0  0  0  0  0  0  0  0
   59.2710   33.4800   47.4300 C   0  0  0  0  0  0  0  0  0  0  0  0
   58.7710   32.6290   48.2130 O   0  0  0  0  0  0  0  0  0  0  0  0
   54.2454   30.1068   43.9555 H   0  0  0  0  0  0  0  0  0  0  0  0
   55.7672   30.5638   43.1178 H   0  0  0  0  0  0  0  0  0  0  0  0
   55.2210   28.8526   43.1178 H   0  0  0  0  0  0  0  0  0  0  0  0
   56.9419   27.1800   43.9930 H   0  0  0  0  0  0  0  0  0  0  0  0
   59.3066   26.4039   44.1729 H   0  0  0  0  0  0  0  0  0  0  0  0
   61.0224   27.8545   45.2540 H   0  0  0  0  0  0  0  0  0  0  0  0
   60.3838   30.0932   46.1438 H   0  0  0  0  0  0  0  0  0  0  0  0
   58.2710   31.4410   47.0330 H   0  0  0  0  0  0  0  0  0  0  0  0
   56.9690   34.3459   45.0212 H   0  0  0  0  0  0  0  0  0  0  0  0
   56.5030   33.5874   46.5858 H   0  0  0  0  0  0  0  0  0  0  0  0
   61.7843   35.4155   48.5992 H   0  0  0  0  0  0  0  0  0  0  0  0
   60.1622   34.9545   49.2627 H   0  0  0  0  0  0  0  0  0  0  0  0
   61.9613   34.1125   50.7098 H   0  0  0  0  0  0  0  0  0  0  0  0
   61.0638   32.7544   49.9159 H   0  0  0  0  0  0  0  0  0  0  0  0
   63.8643   33.7804   49.4132 H   0  0  0  0  0  0  0  0  0  0  0  0
   63.4026   31.8240   50.9396 H   0  0  0  0  0  0  0  0  0  0  0  0
   62.7069   30.9425   49.5376 H   0  0  0  0  0  0  0  0  0  0  0  0
   64.4433   31.4022   49.5376 H   0  0  0  0  0  0  0  0  0  0  0  0
   63.4708   33.8317   47.1915 H   0  0  0  0  0  0  0  0  0  0  0  0
   63.6542   32.0338   47.3571 H   0  0  0  0  0  0  0  0  0  0  0  0
   61.6759   32.5952   46.0045 H   0  0  0  0  0  0  0  0  0  0  0  0
   61.2155   31.8041   47.5667 H   0  0  0  0  0  0  0  0  0  0  0  0
  1  2  1  0
  2  3  1  0
  3  4  2  0
  4  5  1  0
  5  6  2  0
  6  7  1  0
  7  8  2  0
  8  9  1  0
  9 10  1  0
 10 11  2  0
 10 12  1  0
 12 13  1  0
 13 14  1  0
 14 15  2  0
 14 16  1  0
 17 16  1  6
 17 18  1  0
 18 19  1  0
 19 20  1  0
 20 21  1  0
 20 22  1  0
 22 23  1  0
 17 24  1  0
 24 25  2  0
  8  3  1  0
 24 13  1  0
 23 17  1  0
  1 26  1  0
  1 27  1  0
  1 28  1  0
  4 29  1  0
  5 30  1  0
  6 31  1  0
  7 32  1  0
  9 33  1  0
 12 34  1  0
 12 35  1  0
 18 36  1  0
 18 37  1  0
 19 38  1  0
 19 39  1  0
 20 40  1  6
 21 41  1  0
 21 42  1  0
 21 43  1  0
 22 44  1  0
 22 45  1  0
 23 46  1  0
 23 47  1  0
M  CHG  1  16  -1
M  END
>  <UniqueID>  (24) 
23

>  <SMILES>  (24) 
COc1ccccc1NC(=O)CN1C(=O)[N-]C2(CCC(C)CC2)C1=O

>  <Energy>  (24) 
70.00855024202342

>  <Genealogy>  (24) 
COc1ccccc1NC(=O)CN1C(=O)[N-]C2(CCC(C)CC2)C1=O (protonated)
COc1ccccc1NC(=O)CN1C(=O)[N-]C2(CCC(C)CC2)C1=O (3D coordinates assigned)
COc1ccccc1NC(=O)CN1C(=O)[N-]C2(CCC(C)CC2)C1=O (nonaromatic ring conformer: 70.00855024202342 kcal/mol)

>  <smiles>  (24) 
COc1ccccc1NC(=O)CN1C(=O)NC2(CCC(C)CC2)C1=O

>  <score_type>  (24) 
oracle

>  <origin>  (24) 
adg

>  <m_score__min__energy>  (24) 
-9.4199999999999999

>  <m_primary>  (24) 
energy

$$$$
24:0
     RDKit          3D

 55 55  0  0  0  0  0  0  0  0999 V2000
   59.3210   34.9050   46.1810 C   0  0  0  0  0  0  0  0  0  0  0  0
   59.3460   34.2220   44.8130 C   0  0  0  0  0  0  0  0  0  0  0  0
   58.2890   33.1870   44.7110 N   0  0  0  0  0  0  0  0  0  0  0  0
   57.0060   33.7030   45.2260 C   0  0  0  0  0  0  0  0  0  0  0  0
   58.1320   32.7190   43.3150 C   0  0  0  0  0  0  0  0  0  0  0  0
   57.1620   31.5320   43.2530 C   0  0  0  0  0  0  0  0  0  0  0  0
   57.8220   30.3150   43.7210 N   0  0  0  0  0  0  0  0  0  0  0  0
   57.9270   29.9870   45.1130 C   0  0  0  0  0  0  0  0  0  0  0  0
   57.7080   30.8700   45.9870 O   0  0  0  0  0  0  0  0  0  0  0  0
   58.3160   28.6250   45.5280 C   0  0  0  0  0  0  0  0  0  0  0  0
   57.7530   27.5350   44.8450 C   0  0  0  0  0  0  0  0  0  0  0  0
   58.0930   26.2240   45.1890 C   0  0  0  0  0  0  0  0  0  0  0  0
   57.4040   24.8730   44.2990 Cl  0  0  0  0  0  0  0  0  0  0  0  0
   58.9900   25.9890   46.2300 C   0  0  0  0  0  0  0  0  0  0  0  0
   59.5420   27.0600   46.9360 C   0  0  0  0  0  0  0  0  0  0  0  0
   59.2150   28.3900   46.6040 C   0  0  0  0  0  0  0  0  0  0  0  0
   59.7580   29.4880   47.3700 N   0  0  0  0  0  0  0  0  0  0  0  0
   60.5150   29.2960   48.6130 C   0  0  0  0  0  0  0  0  0  0  0  0
   61.2950   30.5670   49.0200 C   0  0  0  0  0  0  0  0  0  0  0  0
   61.1650   31.6500   48.0140 N   0  0  0  0  0  0  0  0  0  0  0  0
   62.4730   32.0400   47.4420 C   0  0  0  0  0  0  0  0  0  0  0  0
   62.3780   33.4060   46.7620 C   0  0  0  0  0  0  0  0  0  0  0  0
   60.4510   32.8170   48.5920 C   0  0  0  0  0  0  0  0  0  0  0  0
   58.9570   32.5280   48.6170 C   0  0  0  0  0  0  0  0  0  0  0  0
   59.3489   34.1416   46.9725 H   0  0  0  0  0  0  0  0  0  0  0  0
   60.1956   35.5652   46.2773 H   0  0  0  0  0  0  0  0  0  0  0  0
   58.4005   35.4995   46.2773 H   0  0  0  0  0  0  0  0  0  0  0  0
   59.1839   34.9786   44.0312 H   0  0  0  0  0  0  0  0  0  0  0  0
   60.3239   33.7350   44.6846 H   0  0  0  0  0  0  0  0  0  0  0  0
   57.0230   33.6962   46.3258 H   0  0  0  0  0  0  0  0  0  0  0  0
   56.8544   34.7320   44.8680 H   0  0  0  0  0  0  0  0  0  0  0  0
   56.1842   33.0655   44.8680 H   0  0  0  0  0  0  0  0  0  0  0  0
   57.7380   33.5412   42.6996 H   0  0  0  0  0  0  0  0  0  0  0  0
   59.1129   32.3976   42.9347 H   0  0  0  0  0  0  0  0  0  0  0  0
   56.2908   31.7411   43.8912 H   0  0  0  0  0  0  0  0  0  0  0  0
   56.8389   31.3869   42.2116 H   0  0  0  0  0  0  0  0  0  0  0  0
   58.2140   29.6580   43.0080 H   0  0  0  0  0  0  0  0  0  0  0  0
   57.0364   27.7151   44.0301 H   0  0  0  0  0  0  0  0  0  0  0  0
   59.2637   24.9573   46.4960 H   0  0  0  0  0  0  0  0  0  0  0  0
   60.2412   26.8629   47.7620 H   0  0  0  0  0  0  0  0  0  0  0  0
   59.5700   30.4650   47.0640 H   0  0  0  0  0  0  0  0  0  0  0  0
   59.8132   29.0369   49.4194 H   0  0  0  0  0  0  0  0  0  0  0  0
   61.2443   28.4899   48.4448 H   0  0  0  0  0  0  0  0  0  0  0  0
   60.9050   30.9290   49.9827 H   0  0  0  0  0  0  0  0  0  0  0  0
   62.3597   30.3008   49.0943 H   0  0  0  0  0  0  0  0  0  0  0  0
   63.2198   32.0888   48.2481 H   0  0  0  0  0  0  0  0  0  0  0  0
   62.7695   31.2911   46.6928 H   0  0  0  0  0  0  0  0  0  0  0  0
   62.3232   34.1938   47.5278 H   0  0  0  0  0  0  0  0  0  0  0  0
   63.2672   33.5658   46.1345 H   0  0  0  0  0  0  0  0  0  0  0  0
   61.4752   33.4412   46.1345 H   0  0  0  0  0  0  0  0  0  0  0  0
   60.8082   32.9961   49.6169 H   0  0  0  0  0  0  0  0  0  0  0  0
   60.6444   33.7093   47.9785 H   0  0  0  0  0  0  0  0  0  0  0  0
   58.6138   32.4616   49.6600 H   0  0  0  0  0  0  0  0  0  0  0  0
   58.4181   33.3386   48.1045 H   0  0  0  0  0  0  0  0  0  0  0  0
   58.7593   31.5750   48.1045 H   0  0  0  0  0  0  0  0  0  0  0  0
  1  2  1  0
  2  3  1  0
  3  4  1  0
  3  5  1  0
  5  6  1  0
  6  7  1  0
  7  8  1  0
  8  9  2  0
  8 10  1  0
 10 11  2  0
 11 12  1  0
 12 13  1  0
 12 14  2  0
 14 15  1  0
 15 16  2  0
 16 17  1  0
 17 18  1  0
 18 19  1  0
 19 20  1  0
 20 21  1  0
 21 22  1  0
 20 23  1  0
 23 24  1  0
 16 10  1  0
  1 25  1  0
  1 26  1  0
  1 27  1  0
  2 28  1  0
  2 29  1  0
  4 30  1  0
  4 31  1  0
  4 32  1  0
  5 33  1  0
  5 34  1  0
  6 35  1  0
  6 36  1  0
  7 37  1  0
 11 38  1  0
 14 39  1  0
 15 40  1  0
 17 41  1  0
 18 42  1  0
 18 43  1  0
 19 44  1  0
 19 45  1  0
 21 46  1  0
 21 47  1  0
 22 48  1  0
 22 49  1  0
 22 50  1  0
 23 51  1  0
 23 52  1  0
 24 53  1  0
 24 54  1  0
 24 55  1  0
M  END
>  <UniqueID>  (25) 
24

>  <SMILES>  (25) 
CCN(C)CCNC(=O)c1cc(Cl)ccc1NCCN(CC)CC

>  <Energy>  (25) 
54.59397550844011

>  <Genealogy>  (25) 
CCN(C)CCNC(=O)c1cc(Cl)ccc1NCCN(CC)CC (3D coordinates assigned)
CCN(C)CCNC(=O)c1cc(Cl)ccc1NCCN(CC)CC (optimized conformer: 54.59397550844011 kcal/mol)

>  <smiles>  (25) 
CCN(C)CCNC(=O)c1cc(Cl)ccc1NCCN(CC)CC

>  <score_type>  (25) 
oracle

>  <origin>  (25) 
adg

>  <m_score__min__energy>  (25) 
-7.6399999999999997

>  <m_primary>  (25) 
energy

$$$$
25:0
     RDKit          3D

 30 32  0  0  0  0  0  0  0  0999 V2000
   53.7040   24.3600   45.1550 C   0  0  0  0  0  0  0  0  0  0  0  0
   55.1630   24.4630   45.2320 N   0  0  0  0  0  0  0  0  0  0  0  0
   55.8280   25.5490   45.7270 C   0  0  0  0  0  0  0  0  0  0  0  0
   55.1810   26.6840   46.2140 O   0  0  0  0  0  0  0  0  0  0  0  0
   57.2190   25.4390   45.7060 C   0  0  0  0  0  0  0  0  0  0  0  0
   58.2010   26.4940   46.1100 C   0  0  0  0  0  0  0  0  0  0  0  0
   58.0720   27.6870   45.2130 C   0  0  0  0  0  0  0  0  0  0  0  0
   57.7310   27.6690   43.8630 C   0  0  0  0  0  0  0  0  0  0  0  0
   57.6200   28.9290   43.3860 N   0  0  0  0  0  0  0  0  0  0  0  0
   57.8770   29.7430   44.4250 C   0  0  0  0  0  0  0  0  0  0  0  0
   57.8660   31.1370   44.4270 C   0  0  0  0  0  0  0  0  0  0  0  0
   58.1510   31.7970   45.6370 C   0  0  0  0  0  0  0  0  0  0  0  0
   58.1500   33.7050   45.7000 Br  0  0  0  0  0  0  0  0  0  0  0  0
   58.4360   31.0540   46.8050 C   0  0  0  0  0  0  0  0  0  0  0  0
   58.4400   29.6480   46.7730 C   0  0  0  0  0  0  0  0  0  0  0  0
   58.1530   29.0220   45.5590 C   0  0  0  0  0  0  0  0  0  0  0  0
   57.6270   23.9550   45.0190 S   0  0  0  0  0  0  0  0  0  0  0  0
   56.0240   23.5070   44.8020 C   0  0  0  0  0  0  0  0  0  0  0  0
   55.6620   22.4130   44.2940 O   0  0  0  0  0  0  0  0  0  0  0  0
   53.2844   24.3304   46.1714 H   0  0  0  0  0  0  0  0  0  0  0  0
   53.3027   25.2321   44.6179 H   0  0  0  0  0  0  0  0  0  0  0  0
   53.4292   23.4402   44.6179 H   0  0  0  0  0  0  0  0  0  0  0  0
   54.7560   26.7100   47.1320 H   0  0  0  0  0  0  0  0  0  0  0  0
   58.0032   26.7967   47.1489 H   0  0  0  0  0  0  0  0  0  0  0  0
   59.2202   26.0887   46.0262 H   0  0  0  0  0  0  0  0  0  0  0  0
   57.5739   26.7572   43.2680 H   0  0  0  0  0  0  0  0  0  0  0  0
   57.3710   29.2090   42.4120 H   0  0  0  0  0  0  0  0  0  0  0  0
   57.6415   31.7036   43.5113 H   0  0  0  0  0  0  0  0  0  0  0  0
   58.6563   31.5793   47.7460 H   0  0  0  0  0  0  0  0  0  0  0  0
   58.6622   29.0604   47.6760 H   0  0  0  0  0  0  0  0  0  0  0  0
  1  2  1  0
  2  3  1  0
  3  4  1  0
  3  5  2  0
  5  6  1  0
  6  7  1  0
  7  8  2  0
  8  9  1  0
  9 10  1  0
 10 11  2  0
 11 12  1  0
 12 13  1  0
 12 14  2  0
 14 15  1  0
 15 16  2  0
  5 17  1  0
 17 18  1  0
 18 19  2  0
 18  2  1  0
 16  7  1  0
 16 10  1  0
  1 20  1  0
  1 21  1  0
  1 22  1  0
  4 23  1  0
  6 24  1  0
  6 25  1  0
  8 26  1  0
  9 27  1  0
 11 28  1  0
 14 29  1  0
 15 30  1  0
M  END
>  <UniqueID>  (26) 
25

>  <SMILES>  (26) 
Cn1c(O)c(Cc2c[nH]c3cc(Br)ccc23)sc1=O

>  <Energy>  (26) 
93.67265763934653

>  <Genealogy>  (26) 
Cn1c(O)c(Cc2c[nH]c3cc(Br)ccc23)sc1=O (3D coordinates assigned)
Cn1c(O)c(Cc2c[nH]c3cc(Br)ccc23)sc1=O (optimized conformer: 93.67265763934653 kcal/mol)

>  <smiles>  (26) 
Cn1c(O)c(Cc2c[nH]c3cc(Br)ccc23)sc1=O

>  <score_type>  (26) 
oracle

>  <origin>  (26) 
adg

>  <m_score__min__energy>  (26) 
-8.2599999999999998

>  <m_primary>  (26) 
energy

$$$$
26:0
     RDKit          3D

 44 46  0  0  0  0  0  0  0  0999 V2000
   65.2140   34.9590   52.0230 C   0  0  0  0  0  0  0  0  0  0  0  0
   64.0640   34.0330   51.6360 C   0  0  0  0  0  0  0  0  0  0  0  0
   64.4020   33.2400   50.4450 N   0  0  0  0  0  0  0  0  0  0  0  0
   65.4060   32.1740   50.5340 C   0  0  0  0  0  0  0  0  0  0  0  0
   66.7830   32.6870   50.1220 C   0  0  0  0  0  0  0  0  0  0  0  0
   63.6420   33.3870   49.2320 C   0  0  0  0  0  0  0  0  0  0  0  0
   64.2640   33.3090   48.0180 N   0  0  0  0  0  0  0  0  0  0  0  0
   63.5680   33.4340   46.8440 C   0  0  0  0  0  0  0  0  0  0  0  0
   62.2190   33.6470   46.8570 N   0  0  0  0  0  0  0  0  0  0  0  0
   61.5910   33.7330   48.0600 C   0  0  0  0  0  0  0  0  0  0  0  0
   62.2690   33.6160   49.2340 C   0  0  0  0  0  0  0  0  0  0  0  0
   61.3310   33.8350   50.2220 C   0  0  0  0  0  0  0  0  0  0  0  0
   60.1320   34.0580   49.6290 N   0  0  0  0  0  0  0  0  0  0  0  0
   60.2900   33.9960   48.3100 N   0  0  0  0  0  0  0  0  0  0  0  0
   59.1780   34.1800   47.3680 C   0  0  0  0  0  0  0  0  0  0  0  0
   58.6000   32.8230   46.9250 C   0  0  0  0  0  0  0  0  0  0  0  0
   57.3760   33.0000   46.0040 C   0  0  0  0  0  0  0  0  0  0  0  0
   57.4680   34.2330   45.0800 C   0  0  0  0  0  0  0  0  0  0  0  0
   58.9150   34.6800   44.8520 C   0  0  0  0  0  0  0  0  0  0  0  0
   59.5840   35.0880   46.1760 C   0  0  0  0  0  0  0  0  0  0  0  0
   65.2854   35.0165   53.1192 H   0  0  0  0  0  0  0  0  0  0  0  0
   66.1560   34.5644   51.6144 H   0  0  0  0  0  0  0  0  0  0  0  0
   65.0294   35.9635   51.6144 H   0  0  0  0  0  0  0  0  0  0  0  0
   63.8537   33.3517   52.4736 H   0  0  0  0  0  0  0  0  0  0  0  0
   63.1812   34.6482   51.4076 H   0  0  0  0  0  0  0  0  0  0  0  0
   65.4530   31.8091   51.5707 H   0  0  0  0  0  0  0  0  0  0  0  0
   65.1159   31.3603   49.8530 H   0  0  0  0  0  0  0  0  0  0  0  0
   67.3762   32.9080   51.0216 H   0  0  0  0  0  0  0  0  0  0  0  0
   67.2962   31.9197   49.5237 H   0  0  0  0  0  0  0  0  0  0  0  0
   66.6691   33.6030   49.5237 H   0  0  0  0  0  0  0  0  0  0  0  0
   64.1000   33.3622   45.8839 H   0  0  0  0  0  0  0  0  0  0  0  0
   61.7070   33.7600   45.9560 H   0  0  0  0  0  0  0  0  0  0  0  0
   61.5229   33.8296   51.3051 H   0  0  0  0  0  0  0  0  0  0  0  0
   58.3680   34.7108   47.8896 H   0  0  0  0  0  0  0  0  0  0  0  0
   59.3769   32.2642   46.3826 H   0  0  0  0  0  0  0  0  0  0  0  0
   58.2778   32.2767   47.8238 H   0  0  0  0  0  0  0  0  0  0  0  0
   57.2810   32.1018   45.3761 H   0  0  0  0  0  0  0  0  0  0  0  0
   56.5026   33.1509   46.6555 H   0  0  0  0  0  0  0  0  0  0  0  0
   57.0179   33.9816   44.1083 H   0  0  0  0  0  0  0  0  0  0  0  0
   56.9324   35.0607   45.5679 H   0  0  0  0  0  0  0  0  0  0  0  0
   59.4811   33.8499   44.4043 H   0  0  0  0  0  0  0  0  0  0  0  0
   58.9098   35.5511   44.1803 H   0  0  0  0  0  0  0  0  0  0  0  0
   60.6752   35.0319   46.0488 H   0  0  0  0  0  0  0  0  0  0  0  0
   59.2491   36.1088   46.4121 H   0  0  0  0  0  0  0  0  0  0  0  0
  1  2  1  0
  2  3  1  0
  3  4  1  0
  4  5  1  0
  3  6  1  0
  6  7  2  0
  7  8  1  0
  8  9  2  0
  9 10  1  0
 10 11  2  0
 11 12  1  0
 12 13  2  0
 13 14  1  0
 14 15  1  0
 15 16  1  0
 16 17  1  0
 17 18  1  0
 18 19  1  0
 19 20  1  0
 11  6  1  0
 20 15  1  0
 14 10  1  0
  1 21  1  0
  1 22  1  0
  1 23  1  0
  2 24  1  0
  2 25  1  0
  4 26  1  0
  4 27  1  0
  5 28  1  0
  5 29  1  0
  5 30  1  0
  8 31  1  0
  9 32  1  0
 12 33  1  0
 15 34  1  0
 16 35  1  0
 16 36  1  0
 17 37  1  0
 17 38  1  0
 18 39  1  0
 18 40  1  0
 19 41  1  0
 19 42  1  0
 20 43  1  0
 20 44  1  0
M  CHG  1   9   1
M  END
>  <UniqueID>  (27) 
26

>  <SMILES>  (27) 
CCN(CC)c1nc[nH+]c2c1cnn2C1CCCCC1

>  <Energy>  (27) 
86.96330825291747

>  <Genealogy>  (27) 
CCN(CC)c1nc[nH+]c2c1cnn2C1CCCCC1 (protonated)
CCN(CC)c1nc[nH+]c2c1cnn2C1CCCCC1 (3D coordinates assigned)
CCN(CC)c1nc[nH+]c2c1cnn2C1CCCCC1 (nonaromatic ring conformer: 86.96330825291747 kcal/mol)

>  <smiles>  (27) 
CCN(CC)c1ncnc2c1cnn2C1CCCCC1

>  <score_type>  (27) 
oracle

>  <origin>  (27) 
adg

>  <m_score__min__energy>  (27) 
-5.3300000000000001

>  <m_primary>  (27) 
energy

$$$$
27:0
     RDKit          3D

 43 46  0  0  0  0  0  0  0  0999 V2000
   56.8063   27.3113   47.1223 H   0  0  0  0  0  0  0  0  0  0  0  0
   56.8830   27.0140   46.0660 C   0  0  0  0  0  0  0  0  0  0  0  0
   57.5380   27.8150   45.2170 C   0  0  0  0  0  0  0  0  0  0  0  0
   58.2664   27.3675   44.5248 H   0  0  0  0  0  0  0  0  0  0  0  0
   57.3230   29.2710   45.1720 C   0  0  0  0  0  0  0  0  0  0  0  0
   56.1590   29.8290   44.7650 N   0  0  0  0  0  0  0  0  0  0  0  0
   56.2540   31.1520   44.8470 N   0  0  0  0  0  0  0  0  0  0  0  0
   57.4800   31.4370   45.3180 C   0  0  0  0  0  0  0  0  0  0  0  0
   58.0060   32.6940   45.6000 C   0  0  0  0  0  0  0  0  0  0  0  0
   57.4254   33.6073   45.4030 H   0  0  0  0  0  0  0  0  0  0  0  0
   59.3080   32.7640   46.1470 C   0  0  0  0  0  0  0  0  0  0  0  0
   59.8830   34.0410   46.4890 N   0  0  0  0  0  0  0  0  0  0  0  0
   60.0670   34.5960   45.6190 H   0  0  0  0  0  0  0  0  0  0  0  0
   59.2080   34.5970   47.0650 H   0  0  0  0  0  0  0  0  0  0  0  0
   61.1100   33.8390   47.2180 C   0  0  0  0  0  0  0  0  0  0  0  0
   61.0920   33.7010   48.6170 C   0  0  0  0  0  0  0  0  0  0  0  0
   60.1384   33.7730   49.1606 H   0  0  0  0  0  0  0  0  0  0  0  0
   62.2770   33.4730   49.3220 C   0  0  0  0  0  0  0  0  0  0  0  0
   62.2511   33.3621   50.4161 H   0  0  0  0  0  0  0  0  0  0  0  0
   63.5000   33.3850   48.6390 C   0  0  0  0  0  0  0  0  0  0  0  0
   64.7650   33.0990   49.3910 C   0  0  0  0  0  0  0  0  0  0  0  0
   64.5670   33.1438   50.4721 H   0  0  0  0  0  0  0  0  0  0  0  0
   65.1300   32.0957   49.1263 H   0  0  0  0  0  0  0  0  0  0  0  0
   65.5262   33.8477   49.1263 H   0  0  0  0  0  0  0  0  0  0  0  0
   63.5180   33.4960   47.2410 C   0  0  0  0  0  0  0  0  0  0  0  0
   64.4697   33.4030   46.6972 H   0  0  0  0  0  0  0  0  0  0  0  0
   62.3340   33.7240   46.5350 C   0  0  0  0  0  0  0  0  0  0  0  0
   62.3594   33.8140   45.4390 H   0  0  0  0  0  0  0  0  0  0  0  0
   60.0200   31.5630   46.4140 C   0  0  0  0  0  0  0  0  0  0  0  0
   61.0257   31.6154   46.8566 H   0  0  0  0  0  0  0  0  0  0  0  0
   59.4560   30.3090   46.1200 C   0  0  0  0  0  0  0  0  0  0  0  0
   59.9988   29.3766   46.3346 H   0  0  0  0  0  0  0  0  0  0  0  0
   58.1850   30.2880   45.5470 C   0  0  0  0  0  0  0  0  0  0  0  0
   56.2590   25.7450   45.6370 C   0  0  0  0  0  0  0  0  0  0  0  0
   54.9760   25.4460   45.9900 N   0  0  0  0  0  0  0  0  0  0  0  0
   54.3770   24.2850   45.6120 C   0  0  0  0  0  0  0  0  0  0  0  0
   53.3404   24.0772   45.9159 H   0  0  0  0  0  0  0  0  0  0  0  0
   55.0770   23.3560   44.8380 C   0  0  0  0  0  0  0  0  0  0  0  0
   54.5979   22.4153   44.5289 H   0  0  0  0  0  0  0  0  0  0  0  0
   56.3910   23.6360   44.4620 C   0  0  0  0  0  0  0  0  0  0  0  0
   56.9552   22.9148   43.8525 H   0  0  0  0  0  0  0  0  0  0  0  0
   56.9890   24.8340   44.8610 C   0  0  0  0  0  0  0  0  0  0  0  0
   58.0249   25.0606   44.5684 H   0  0  0  0  0  0  0  0  0  0  0  0
  1  2  1  0
  2  3  2  0
  3  4  1  0
  3  5  1  0
  5  6  1  0
  6  7  1  0
  7  8  2  0
  8  9  1  0
  9 10  1  0
  9 11  2  0
 11 12  1  0
 12 13  1  0
 12 14  1  0
 12 15  1  0
 15 16  2  0
 16 17  1  0
 16 18  1  0
 18 19  1  0
 18 20  2  0
 20 21  1  0
 21 22  1  0
 21 23  1  0
 21 24  1  0
 20 25  1  0
 25 26  1  0
 25 27  2  0
 27 28  1  0
 11 29  1  0
 29 30  1  0
 29 31  2  0
 31 32  1  0
 31 33  1  0
  2 34  1  0
 34 35  2  0
 35 36  1  0
 36 37  1  0
 36 38  2  0
 38 39  1  0
 38 40  1  0
 40 41  1  0
 40 42  2  0
 42 43  1  0
 33  5  2  0
 42 34  1  0
 33  8  1  0
 27 15  1  0
M  CHG  2   6  -1  12   1
M  END
>  <UniqueID>  (28) 
27

>  <SMILES>  (28) 
Cc1ccc([NH2+]c2ccc3c(/C=C/c4ccccn4)[n-]nc3c2)cc1

>  <Energy>  (28) 
89.80960633037087

>  <Genealogy>  (28) 
Cc1ccc([NH2+]c2ccc3c(C=Cc4ccccn4)[n-]nc3c2)cc1 (protonated)
Cc1ccc([NH2+]c2ccc3c(/C=C/c4ccccn4)[n-]nc3c2)cc1 (cis-trans isomerization)
Cc1ccc([NH2+]c2ccc3c(/C=C/c4ccccn4)[n-]nc3c2)cc1 (3D coordinates assigned)
Cc1ccc([NH2+]c2ccc3c(/C=C/c4ccccn4)[n-]nc3c2)cc1 (optimized conformer: 89.80960633037087 kcal/mol)

>  <smiles>  (28) 
Cc1ccc(Nc2ccc3c(C=Cc4ccccn4)[nH]nc3c2)cc1

>  <score_type>  (28) 
oracle

>  <origin>  (28) 
adg

>  <m_score__min__energy>  (28) 
-8.9299999999999997

>  <m_primary>  (28) 
energy

$$$$
28:0
     RDKit          3D

 37 39  0  0  0  0  0  0  0  0999 V2000
   59.8960   33.5030   50.6190 C   0  0  0  0  0  0  0  0  0  0  0  0
   61.2740   33.6010   49.4350 S   0  0  0  0  0  0  0  0  0  0  0  0
   60.2700   33.0680   48.0390 C   0  0  0  0  0  0  0  0  0  0  0  0
   59.2400   33.9000   47.6020 C   0  0  0  0  0  0  0  0  0  0  0  0
   58.4250   33.5310   46.5310 C   0  0  0  0  0  0  0  0  0  0  0  0
   57.3840   34.3930   46.1780 O   0  0  0  0  0  0  0  0  0  0  0  0
   58.6560   32.3080   45.8560 C   0  0  0  0  0  0  0  0  0  0  0  0
   59.6770   31.4490   46.3150 C   0  0  0  0  0  0  0  0  0  0  0  0
   60.4840   31.8300   47.4100 C   0  0  0  0  0  0  0  0  0  0  0  0
   61.7320   30.7420   48.0340 Cl  0  0  0  0  0  0  0  0  0  0  0  0
   59.8660   30.1290   45.6880 C   0  0  0  0  0  0  0  0  0  0  0  0
   60.9970   29.7860   45.2510 O   0  0  0  0  0  0  0  0  0  0  0  0
   58.7560   29.1660   45.6940 C   0  0  0  0  0  0  0  0  0  0  0  0
   58.9570   27.9340   46.3260 C   0  0  0  0  0  0  0  0  0  0  0  0
   57.9180   27.0020   46.4420 C   0  0  0  0  0  0  0  0  0  0  0  0
   58.1840   25.6950   47.1460 C   0  0  0  0  0  0  0  0  0  0  0  0
   56.6530   27.2970   45.8850 C   0  0  0  0  0  0  0  0  0  0  0  0
   55.5110   26.3150   46.0120 C   0  0  0  0  0  0  0  0  0  0  0  0
   56.4480   28.5400   45.2510 C   0  0  0  0  0  0  0  0  0  0  0  0
   55.1880   28.8540   44.7460 O   0  0  0  0  0  0  0  0  0  0  0  0
   57.4990   29.4770   45.1330 C   0  0  0  0  0  0  0  0  0  0  0  0
   57.3020   30.7010   44.3060 C   0  0  0  0  0  0  0  0  0  0  0  0
   56.5670   30.6220   43.2830 O   0  0  0  0  0  0  0  0  0  0  0  0
   57.9310   32.0090   44.5960 C   0  0  0  0  0  0  0  0  0  0  0  0
   57.8490   32.9150   43.7230 O   0  0  0  0  0  0  0  0  0  0  0  0
   60.2915   33.5311   51.6451 H   0  0  0  0  0  0  0  0  0  0  0  0
   59.2180   34.3552   50.4639 H   0  0  0  0  0  0  0  0  0  0  0  0
   59.3454   32.5634   50.4639 H   0  0  0  0  0  0  0  0  0  0  0  0
   59.0674   34.8610   48.1087 H   0  0  0  0  0  0  0  0  0  0  0  0
   56.9570   34.3990   45.2600 H   0  0  0  0  0  0  0  0  0  0  0  0
   59.9478   27.6933   46.7387 H   0  0  0  0  0  0  0  0  0  0  0  0
   58.1521   25.8516   48.2343 H   0  0  0  0  0  0  0  0  0  0  0  0
   57.4168   24.9609   46.8586 H   0  0  0  0  0  0  0  0  0  0  0  0
   59.1770   25.3192   46.8586 H   0  0  0  0  0  0  0  0  0  0  0  0
   55.3000   26.1336   47.0762 H   0  0  0  0  0  0  0  0  0  0  0  0
   54.6153   26.7294   45.5261 H   0  0  0  0  0  0  0  0  0  0  0  0
   55.7865   25.3674   45.5261 H   0  0  0  0  0  0  0  0  0  0  0  0
  1  2  1  0
  2  3  1  0
  3  4  2  0
  4  5  1  0
  5  6  1  0
  5  7  2  0
  7  8  1  0
  8  9  2  0
  9 10  1  0
  8 11  1  0
 11 12  2  0
 11 13  1  0
 13 14  2  0
 14 15  1  0
 15 16  1  0
 15 17  2  0
 17 18  1  0
 17 19  1  0
 19 20  1  0
 19 21  2  0
 21 22  1  0
 22 23  2  0
 22 24  1  0
 24 25  2  0
  9  3  1  0
 21 13  1  0
 24  7  1  0
  1 26  1  0
  1 27  1  0
  1 28  1  0
  4 29  1  0
  6 30  1  0
 14 31  1  0
 16 32  1  0
 16 33  1  0
 16 34  1  0
 18 35  1  0
 18 36  1  0
 18 37  1  0
M  CHG  1  20  -1
M  END
>  <UniqueID>  (29) 
28

>  <SMILES>  (29) 
CSc1cc(O)c2c(c1Cl)C(=O)c1cc(C)c(C)c([O-])c1C(=O)C2=O

>  <Energy>  (29) 
68.83394612165084

>  <Genealogy>  (29) 
CSc1cc(O)c2c(c1Cl)C(=O)c1cc(C)c(C)c([O-])c1C(=O)C2=O (protonated)
CSc1cc(O)c2c(c1Cl)C(=O)c1cc(C)c(C)c([O-])c1C(=O)C2=O (3D coordinates assigned)
CSc1cc(O)c2c(c1Cl)C(=O)c1cc(C)c(C)c([O-])c1C(=O)C2=O (nonaromatic ring conformer: 68.83394612165084 kcal/mol)

>  <smiles>  (29) 
CSc1cc(O)c2c(c1Cl)C(=O)c1cc(C)c(C)c(O)c1C(=O)C2=O

>  <score_type>  (29) 
oracle

>  <origin>  (29) 
adg

>  <m_score__min__energy>  (29) 
-9.3499999999999996

>  <m_primary>  (29) 
energy

$$$$
29:0
     RDKit          3D

 42 44  0  0  0  0  0  0  0  0999 V2000
   66.4630   33.4390   51.9150 C   0  0  0  0  0  0  0  0  0  0  0  0
   65.0660   33.7180   51.9180 O   0  0  0  0  0  0  0  0  0  0  0  0
   64.2450   33.6600   50.7820 C   0  0  0  0  0  0  0  0  0  0  0  0
   64.6940   32.9300   49.6740 C   0  0  0  0  0  0  0  0  0  0  0  0
   63.9140   32.8430   48.5180 C   0  0  0  0  0  0  0  0  0  0  0  0
   62.6730   33.4910   48.4550 C   0  0  0  0  0  0  0  0  0  0  0  0
   61.6830   33.3850   47.0020 S   0  0  0  0  0  0  0  0  0  0  0  0
   61.2660   31.9550   46.8080 O   0  0  0  0  0  0  0  0  0  0  0  0
   62.4870   33.8350   45.8130 O   0  0  0  0  0  0  0  0  0  0  0  0
   60.2740   34.4110   47.1890 N   0  0  0  0  0  0  0  0  0  0  0  0
   59.6880   34.7800   45.8760 C   0  0  0  0  0  0  0  0  0  0  0  0
   58.3520   34.0800   45.5690 C   0  0  0  0  0  0  0  0  0  0  0  0
   58.3410   32.7340   46.1470 N   0  0  0  0  0  0  0  0  0  0  0  0
   57.9480   31.5850   45.3740 C   0  0  0  0  0  0  0  0  0  0  0  0
   56.6880   31.5150   44.8630 N   0  0  0  0  0  0  0  0  0  0  0  0
   56.2780   30.4390   44.1440 C   0  0  0  0  0  0  0  0  0  0  0  0
   57.1520   29.3770   43.9260 C   0  0  0  0  0  0  0  0  0  0  0  0
   58.4330   29.4500   44.4680 C   0  0  0  0  0  0  0  0  0  0  0  0
   58.8100   30.5420   45.1840 N   0  0  0  0  0  0  0  0  0  0  0  0
   58.6150   32.5820   47.5790 C   0  0  0  0  0  0  0  0  0  0  0  0
   59.3010   33.8390   48.1400 C   0  0  0  0  0  0  0  0  0  0  0  0
   62.2160   34.2160   49.5610 C   0  0  0  0  0  0  0  0  0  0  0  0
   62.9950   34.3040   50.7190 C   0  0  0  0  0  0  0  0  0  0  0  0
   66.8247   33.3668   52.9513 H   0  0  0  0  0  0  0  0  0  0  0  0
   66.6456   32.4867   51.3957 H   0  0  0  0  0  0  0  0  0  0  0  0
   66.9974   34.2482   51.3957 H   0  0  0  0  0  0  0  0  0  0  0  0
   65.6684   32.4212   49.7143 H   0  0  0  0  0  0  0  0  0  0  0  0
   64.2750   32.2643   47.6550 H   0  0  0  0  0  0  0  0  0  0  0  0
   59.5197   35.8670   45.8653 H   0  0  0  0  0  0  0  0  0  0  0  0
   60.4026   34.4550   45.1054 H   0  0  0  0  0  0  0  0  0  0  0  0
   57.5271   34.6669   45.9993 H   0  0  0  0  0  0  0  0  0  0  0  0
   58.2296   34.0031   44.4785 H   0  0  0  0  0  0  0  0  0  0  0  0
   55.2576   30.4061   43.7345 H   0  0  0  0  0  0  0  0  0  0  0  0
   56.8381   28.5010   43.3395 H   0  0  0  0  0  0  0  0  0  0  0  0
   59.1411   28.6220   44.3162 H   0  0  0  0  0  0  0  0  0  0  0  0
   59.7600   30.5510   45.6150 H   0  0  0  0  0  0  0  0  0  0  0  0
   57.6667   32.4201   48.1125 H   0  0  0  0  0  0  0  0  0  0  0  0
   59.2855   31.7215   47.7204 H   0  0  0  0  0  0  0  0  0  0  0  0
   58.5324   34.5949   48.3589 H   0  0  0  0  0  0  0  0  0  0  0  0
   59.8466   33.5498   49.0503 H   0  0  0  0  0  0  0  0  0  0  0  0
   61.2388   34.7194   49.5194 H   0  0  0  0  0  0  0  0  0  0  0  0
   62.6298   34.8782   51.5832 H   0  0  0  0  0  0  0  0  0  0  0  0
  1  2  1  0
  2  3  1  0
  3  4  2  0
  4  5  1  0
  5  6  2  0
  6  7  1  0
  7  8  2  0
  7  9  2  0
  7 10  1  0
 10 11  1  0
 11 12  1  0
 12 13  1  0
 13 14  1  0
 14 15  2  0
 15 16  1  0
 16 17  2  0
 17 18  1  0
 18 19  2  0
 13 20  1  0
 20 21  1  0
  6 22  1  0
 22 23  2  0
 23  3  1  0
 21 10  1  0
 19 14  1  0
  1 24  1  0
  1 25  1  0
  1 26  1  0
  4 27  1  0
  5 28  1  0
 11 29  1  0
 11 30  1  0
 12 31  1  0
 12 32  1  0
 16 33  1  0
 17 34  1  0
 18 35  1  0
 19 36  1  0
 20 37  1  0
 20 38  1  0
 21 39  1  0
 21 40  1  0
 22 41  1  0
 23 42  1  0
M  CHG  1  19   1
M  END
>  <UniqueID>  (30) 
29

>  <SMILES>  (30) 
COc1ccc(S(=O)(=O)N2CCN(c3nccc[nH+]3)CC2)cc1

>  <Energy>  (30) 
52.56462982203954

>  <Genealogy>  (30) 
COc1ccc(S(=O)(=O)N2CCN(c3nccc[nH+]3)CC2)cc1 (protonated)
COc1ccc(S(=O)(=O)N2CCN(c3nccc[nH+]3)CC2)cc1 (3D coordinates assigned)
COc1ccc(S(=O)(=O)N2CCN(c3nccc[nH+]3)CC2)cc1 (nonaromatic ring conformer: 52.56462982203954 kcal/mol)

>  <smiles>  (30) 
COc1ccc(S(=O)(=O)N2CCN(c3ncccn3)CC2)cc1

>  <score_type>  (30) 
oracle

>  <origin>  (30) 
adg

>  <m_score__min__energy>  (30) 
-5.5700000000000003

>  <m_primary>  (30) 
energy

$$$$
30:0
     RDKit          3D

 48 50  0  0  0  0  0  0  0  0999 V2000
   55.8980   30.0990   43.5170 C   0  0  0  0  0  0  0  0  0  0  0  0
   56.3660   30.0830   44.8620 O   0  0  0  0  0  0  0  0  0  0  0  0
   57.6140   29.5830   45.2630 C   0  0  0  0  0  0  0  0  0  0  0  0
   58.3420   28.8100   44.3520 C   0  0  0  0  0  0  0  0  0  0  0  0
   59.5960   28.3020   44.6990 C   0  0  0  0  0  0  0  0  0  0  0  0
   60.1290   28.5530   45.9650 C   0  0  0  0  0  0  0  0  0  0  0  0
   59.4020   29.3000   46.9060 C   0  0  0  0  0  0  0  0  0  0  0  0
   59.9800   29.5640   48.2780 C   0  0  0  0  0  0  0  0  0  0  0  0
   61.3090   30.2180   48.2640 N   0  0  0  0  0  0  0  0  0  0  0  0
   61.6050   31.0750   47.1020 C   0  0  0  0  0  0  0  0  0  0  0  0
   61.4750   32.5860   47.3880 C   0  0  0  0  0  0  0  0  0  0  0  0
   60.7980   32.8610   48.6640 N   0  0  0  0  0  0  0  0  0  0  0  0
   59.9390   34.0170   48.8310 C   0  0  0  0  0  0  0  0  0  0  0  0
   59.4060   34.2340   49.9560 O   0  0  0  0  0  0  0  0  0  0  0  0
   59.6450   34.9580   47.6860 C   0  0  0  0  0  0  0  0  0  0  0  0
   58.9420   34.2730   46.5410 C   0  0  0  0  0  0  0  0  0  0  0  0
   57.7150   33.6200   46.7510 C   0  0  0  0  0  0  0  0  0  0  0  0
   57.0460   33.0170   45.6820 C   0  0  0  0  0  0  0  0  0  0  0  0
   57.5920   33.0690   44.3970 C   0  0  0  0  0  0  0  0  0  0  0  0
   58.8050   33.7280   44.1770 C   0  0  0  0  0  0  0  0  0  0  0  0
   59.4770   34.3330   45.2440 C   0  0  0  0  0  0  0  0  0  0  0  0
   61.2390   32.1420   49.8680 C   0  0  0  0  0  0  0  0  0  0  0  0
   61.7970   30.7480   49.5470 C   0  0  0  0  0  0  0  0  0  0  0  0
   58.1530   29.8320   46.5400 C   0  0  0  0  0  0  0  0  0  0  0  0
   54.7987   30.1366   43.5117 H   0  0  0  0  0  0  0  0  0  0  0  0
   56.2976   30.9840   43.0002 H   0  0  0  0  0  0  0  0  0  0  0  0
   56.2362   29.1888   43.0002 H   0  0  0  0  0  0  0  0  0  0  0  0
   57.9242   28.6010   43.3561 H   0  0  0  0  0  0  0  0  0  0  0  0
   60.1651   27.7027   43.9731 H   0  0  0  0  0  0  0  0  0  0  0  0
   61.1239   28.1634   46.2267 H   0  0  0  0  0  0  0  0  0  0  0  0
   59.2821   30.2136   48.8267 H   0  0  0  0  0  0  0  0  0  0  0  0
   60.1167   28.5829   48.7563 H   0  0  0  0  0  0  0  0  0  0  0  0
   62.6358   30.8720   46.7759 H   0  0  0  0  0  0  0  0  0  0  0  0
   60.8610   30.8319   46.3291 H   0  0  0  0  0  0  0  0  0  0  0  0
   62.4823   33.0268   47.4208 H   0  0  0  0  0  0  0  0  0  0  0  0
   60.8666   33.0272   46.5848 H   0  0  0  0  0  0  0  0  0  0  0  0
   59.0058   35.7736   48.0550 H   0  0  0  0  0  0  0  0  0  0  0  0
   60.6067   35.3364   47.3092 H   0  0  0  0  0  0  0  0  0  0  0  0
   57.2796   33.5834   47.7605 H   0  0  0  0  0  0  0  0  0  0  0  0
   56.0894   32.5014   45.8525 H   0  0  0  0  0  0  0  0  0  0  0  0
   57.0666   32.5907   43.5572 H   0  0  0  0  0  0  0  0  0  0  0  0
   59.2313   33.7708   43.1639 H   0  0  0  0  0  0  0  0  0  0  0  0
   60.4275   34.8574   45.0667 H   0  0  0  0  0  0  0  0  0  0  0  0
   62.0247   32.7314   50.3633 H   0  0  0  0  0  0  0  0  0  0  0  0
   60.3624   32.0101   50.5193 H   0  0  0  0  0  0  0  0  0  0  0  0
   62.8945   30.8099   49.5066 H   0  0  0  0  0  0  0  0  0  0  0  0
   61.4546   30.0649   50.3383 H   0  0  0  0  0  0  0  0  0  0  0  0
   57.5917   30.4483   47.2577 H   0  0  0  0  0  0  0  0  0  0  0  0
  1  2  1  0
  2  3  1  0
  3  4  2  0
  4  5  1  0
  5  6  2  0
  6  7  1  0
  7  8  1  0
  8  9  1  0
  9 10  1  0
 10 11  1  0
 11 12  1  0
 12 13  1  0
 13 14  2  0
 13 15  1  0
 15 16  1  0
 16 17  2  0
 17 18  1  0
 18 19  2  0
 19 20  1  0
 20 21  2  0
 12 22  1  0
 22 23  1  0
  7 24  2  0
 24  3  1  0
 23  9  1  0
 21 16  1  0
  1 25  1  0
  1 26  1  0
  1 27  1  0
  4 28  1  0
  5 29  1  0
  6 30  1  0
  8 31  1  0
  8 32  1  0
 10 33  1  0
 10 34  1  0
 11 35  1  0
 11 36  1  0
 15 37  1  0
 15 38  1  0
 17 39  1  0
 18 40  1  0
 19 41  1  0
 20 42  1  0
 21 43  1  0
 22 44  1  0
 22 45  1  0
 23 46  1  0
 23 47  1  0
 24 48  1  0
M  END
>  <UniqueID>  (31) 
30

>  <SMILES>  (31) 
COc1cccc(CN2CCN(C(=O)Cc3ccccc3)CC2)c1

>  <Energy>  (31) 
59.04356431037287

>  <Genealogy>  (31) 
COc1cccc(CN2CCN(C(=O)Cc3ccccc3)CC2)c1 (3D coordinates assigned)
COc1cccc(CN2CCN(C(=O)Cc3ccccc3)CC2)c1 (nonaromatic ring conformer: 59.04356431037287 kcal/mol)

>  <smiles>  (31) 
COc1cccc(CN2CCN(C(=O)Cc3ccccc3)CC2)c1

>  <score_type>  (31) 
oracle

>  <origin>  (31) 
adg

>  <m_score__min__energy>  (31) 
-7.7000000000000002

>  <m_primary>  (31) 
energy

$$$$
31:0
     RDKit          3D

 30 31  0  0  0  0  0  0  0  0999 V2000
   67.0080   32.4170   50.1200 C   0  0  0  0  0  0  0  0  0  0  0  0
   65.6830   33.0950   50.2320 C   0  0  0  0  0  0  0  0  0  0  0  0
   64.7480   33.0880   49.2590 N   0  0  0  0  0  0  0  0  0  0  0  0
   63.5910   33.7080   49.6340 C   0  0  0  0  0  0  0  0  0  0  0  0
   62.4230   33.8320   48.7270 C   0  0  0  0  0  0  0  0  0  0  0  0
   62.5770   33.7170   47.3360 C   0  0  0  0  0  0  0  0  0  0  0  0
   61.4760   33.8360   46.4840 C   0  0  0  0  0  0  0  0  0  0  0  0
   60.1850   34.0710   47.0000 C   0  0  0  0  0  0  0  0  0  0  0  0
   59.0400   34.1940   46.1150 N   0  0  0  0  0  0  0  0  0  0  0  0
   57.7700   33.5340   46.4410 C   0  0  0  0  0  0  0  0  0  0  0  0
   59.1330   34.9830   44.8800 C   0  0  0  0  0  0  0  0  0  0  0  0
   60.0360   34.1840   48.3970 C   0  0  0  0  0  0  0  0  0  0  0  0
   61.1400   34.0660   49.2470 C   0  0  0  0  0  0  0  0  0  0  0  0
   63.6070   34.2030   50.9410 C   0  0  0  0  0  0  0  0  0  0  0  0
   65.1060   33.8470   51.6180 S   0  0  0  0  0  0  0  0  0  0  0  0
   67.4028   32.2150   51.1267 H   0  0  0  0  0  0  0  0  0  0  0  0
   66.8897   31.4686   49.5754 H   0  0  0  0  0  0  0  0  0  0  0  0
   67.7080   33.0677   49.5754 H   0  0  0  0  0  0  0  0  0  0  0  0
   64.8950   32.6260   48.3330 H   0  0  0  0  0  0  0  0  0  0  0  0
   63.5751   33.5312   46.9126 H   0  0  0  0  0  0  0  0  0  0  0  0
   61.6182   33.7452   45.3970 H   0  0  0  0  0  0  0  0  0  0  0  0
   57.6571   33.4754   47.5336 H   0  0  0  0  0  0  0  0  0  0  0  0
   56.9364   34.1130   46.0168 H   0  0  0  0  0  0  0  0  0  0  0  0
   57.7647   32.5191   46.0168 H   0  0  0  0  0  0  0  0  0  0  0  0
   59.2583   36.0462   45.1327 H   0  0  0  0  0  0  0  0  0  0  0  0
   59.9971   34.6418   44.2911 H   0  0  0  0  0  0  0  0  0  0  0  0
   58.2132   34.8520   44.2911 H   0  0  0  0  0  0  0  0  0  0  0  0
   59.0389   34.3673   48.8239 H   0  0  0  0  0  0  0  0  0  0  0  0
   61.0018   34.1575   50.3345 H   0  0  0  0  0  0  0  0  0  0  0  0
   62.7828   34.7333   51.4405 H   0  0  0  0  0  0  0  0  0  0  0  0
  1  2  1  0
  2  3  2  0
  3  4  1  0
  4  5  1  0
  5  6  2  0
  6  7  1  0
  7  8  2  0
  8  9  1  0
  9 10  1  0
  9 11  1  0
  8 12  1  0
 12 13  2  0
  4 14  2  0
 14 15  1  0
 15  2  1  0
 13  5  1  0
  1 16  1  0
  1 17  1  0
  1 18  1  0
  3 19  1  0
  6 20  1  0
  7 21  1  0
 10 22  1  0
 10 23  1  0
 10 24  1  0
 11 25  1  0
 11 26  1  0
 11 27  1  0
 12 28  1  0
 13 29  1  0
 14 30  1  0
M  CHG  1   3   1
M  END
>  <UniqueID>  (32) 
31

>  <SMILES>  (32) 
Cc1[nH+]c(-c2ccc(N(C)C)cc2)cs1

>  <Energy>  (32) 
62.33721068662613

>  <Genealogy>  (32) 
Cc1[nH+]c(-c2ccc(N(C)C)cc2)cs1 (protonated)
Cc1[nH+]c(-c2ccc(N(C)C)cc2)cs1 (3D coordinates assigned)
Cc1[nH+]c(-c2ccc(N(C)C)cc2)cs1 (optimized conformer: 62.33721068662613 kcal/mol)

>  <smiles>  (32) 
Cc1nc(-c2ccc(N(C)C)cc2)cs1

>  <score_type>  (32) 
oracle

>  <origin>  (32) 
adg

>  <m_score__min__energy>  (32) 
-4.1500000000000004

>  <m_primary>  (32) 
energy

$$$$
32:0
     RDKit          3D

 55 57  0  0  0  0  0  0  0  0999 V2000
   62.7070   34.5700   50.1340 C   0  0  0  0  0  0  0  0  0  0  0  0
   63.2280   33.3060   49.4510 C   0  0  0  0  0  0  0  0  0  0  0  0
   62.2590   32.8000   48.4520 N   0  0  0  0  0  0  0  0  0  0  0  0
   62.9070   32.5320   47.1410 C   0  0  0  0  0  0  0  0  0  0  0  0
   63.3040   33.8500   46.4880 C   0  0  0  0  0  0  0  0  0  0  0  0
   61.5520   31.6070   48.9690 C   0  0  0  0  0  0  0  0  0  0  0  0
   60.0530   31.8930   49.1500 C   0  0  0  0  0  0  0  0  0  0  0  0
   59.3520   31.8520   47.8470 N   0  0  0  0  0  0  0  0  0  0  0  0
   59.0420   33.0040   47.1500 C   0  0  0  0  0  0  0  0  0  0  0  0
   58.3950   32.9220   45.9020 C   0  0  0  0  0  0  0  0  0  0  0  0
   58.0210   31.6580   45.4210 C   0  0  0  0  0  0  0  0  0  0  0  0
   57.1330   31.4510   43.8650 S   0  0  0  0  0  0  0  0  0  0  0  0
   57.2790   29.6280   43.8290 C   0  0  0  0  0  0  0  0  0  0  0  0
   56.3440   28.9740   44.8090 C   0  0  0  0  0  0  0  0  0  0  0  0
   55.1600   29.4000   44.8760 O   0  0  0  0  0  0  0  0  0  0  0  0
   56.7130   27.8660   45.6490 N   0  0  0  0  0  0  0  0  0  0  0  0
   57.9000   27.4590   45.9920 C   0  0  0  0  0  0  0  0  0  0  0  0
   59.0570   27.9450   45.4940 N   0  0  0  0  0  0  0  0  0  0  0  0
   60.1360   27.3250   46.0420 C   0  0  0  0  0  0  0  0  0  0  0  0
   59.8390   26.3420   46.9800 C   0  0  0  0  0  0  0  0  0  0  0  0
   58.1650   26.2510   47.1260 S   0  0  0  0  0  0  0  0  0  0  0  0
   58.3280   30.5520   46.1430 N   0  0  0  0  0  0  0  0  0  0  0  0
   58.9710   30.6330   47.3360 C   0  0  0  0  0  0  0  0  0  0  0  0
   59.2030   29.5680   47.9720 O   0  0  0  0  0  0  0  0  0  0  0  0
   58.0900   34.2050   45.1610 C   0  0  0  0  0  0  0  0  0  0  0  0
   59.3000   35.1500   45.2120 C   0  0  0  0  0  0  0  0  0  0  0  0
   59.9000   35.3200   46.6280 C   0  0  0  0  0  0  0  0  0  0  0  0
   59.2720   34.4060   47.6940 C   0  0  0  0  0  0  0  0  0  0  0  0
   62.7586   34.4447   51.2256 H   0  0  0  0  0  0  0  0  0  0  0  0
   63.3241   35.4298   49.8340 H   0  0  0  0  0  0  0  0  0  0  0  0
   61.6633   34.7453   49.8340 H   0  0  0  0  0  0  0  0  0  0  0  0
   64.1774   33.5364   48.9455 H   0  0  0  0  0  0  0  0  0  0  0  0
   63.3754   32.5309   50.2175 H   0  0  0  0  0  0  0  0  0  0  0  0
   63.8045   31.9151   47.2956 H   0  0  0  0  0  0  0  0  0  0  0  0
   62.2015   31.9984   46.4872 H   0  0  0  0  0  0  0  0  0  0  0  0
   63.5277   34.5928   47.2678 H   0  0  0  0  0  0  0  0  0  0  0  0
   64.1954   33.6954   45.8623 H   0  0  0  0  0  0  0  0  0  0  0  0
   62.4755   34.2134   45.8623 H   0  0  0  0  0  0  0  0  0  0  0  0
   61.6770   30.7778   48.2571 H   0  0  0  0  0  0  0  0  0  0  0  0
   61.9796   31.3417   49.9471 H   0  0  0  0  0  0  0  0  0  0  0  0
   59.6186   31.1345   49.8178 H   0  0  0  0  0  0  0  0  0  0  0  0
   59.9341   32.8966   49.5843 H   0  0  0  0  0  0  0  0  0  0  0  0
   57.0399   29.2715   42.8162 H   0  0  0  0  0  0  0  0  0  0  0  0
   58.3090   29.3616   44.1086 H   0  0  0  0  0  0  0  0  0  0  0  0
   61.1687   27.5822   45.7637 H   0  0  0  0  0  0  0  0  0  0  0  0
   60.5701   25.7312   47.5299 H   0  0  0  0  0  0  0  0  0  0  0  0
   58.0480   29.6140   45.7780 H   0  0  0  0  0  0  0  0  0  0  0  0
   57.8559   33.9714   44.1119 H   0  0  0  0  0  0  0  0  0  0  0  0
   57.2302   34.6982   45.6379 H   0  0  0  0  0  0  0  0  0  0  0  0
   60.0815   34.7488   44.5500 H   0  0  0  0  0  0  0  0  0  0  0  0
   58.9461   36.1414   44.8928 H   0  0  0  0  0  0  0  0  0  0  0  0
   60.9763   35.0991   46.5752 H   0  0  0  0  0  0  0  0  0  0  0  0
   59.6914   36.3549   46.9370 H   0  0  0  0  0  0  0  0  0  0  0  0
   59.9474   34.3484   48.5603 H   0  0  0  0  0  0  0  0  0  0  0  0
   58.3002   34.8296   47.9874 H   0  0  0  0  0  0  0  0  0  0  0  0
  1  2  1  0
  2  3  1  0
  3  4  1  0
  4  5  1  0
  3  6  1  0
  6  7  1  0
  7  8  1  0
  8  9  1  0
  9 10  2  0
 10 11  1  0
 11 12  1  0
 12 13  1  0
 13 14  1  0
 14 15  2  0
 14 16  1  0
 16 17  2  3
 17 18  1  0
 18 19  1  0
 19 20  2  0
 20 21  1  0
 11 22  2  0
 22 23  1  0
 23 24  2  0
 10 25  1  0
 25 26  1  0
 26 27  1  0
 27 28  1  0
 23  8  1  0
 28  9  1  0
 21 17  1  0
  1 29  1  0
  1 30  1  0
  1 31  1  0
  2 32  1  0
  2 33  1  0
  4 34  1  0
  4 35  1  0
  5 36  1  0
  5 37  1  0
  5 38  1  0
  6 39  1  0
  6 40  1  0
  7 41  1  0
  7 42  1  0
 13 43  1  0
 13 44  1  0
 19 45  1  0
 20 46  1  0
 22 47  1  0
 25 48  1  0
 25 49  1  0
 26 50  1  0
 26 51  1  0
 27 52  1  0
 27 53  1  0
 28 54  1  0
 28 55  1  0
M  CHG  2  18  -1  22   1
M  END
>  <UniqueID>  (33) 
32

>  <SMILES>  (33) 
CCN(CC)CCn1c2c(c(SCC(=O)N=c3[n-]ccs3)[nH+]c1=O)CCCC2

>  <Energy>  (33) 
94.97983082258695

>  <Genealogy>  (33) 
CCN(CC)CCn1c2c(c(SCC(=O)N=c3[n-]ccs3)[nH+]c1=O)CCCC2 (protonated)
CCN(CC)CCn1c2c(c(SCC(=O)N=c3[n-]ccs3)[nH+]c1=O)CCCC2 (3D coordinates assigned)
CCN(CC)CCn1c2c(c(SCC(=O)N=c3[n-]ccs3)[nH+]c1=O)CCCC2 (nonaromatic ring conformer: 94.97983082258695 kcal/mol)

>  <smiles>  (33) 
CCN(CC)CCn1c2c(c(SCC(=O)N=c3[nH]ccs3)nc1=O)CCCC2

>  <score_type>  (33) 
oracle

>  <origin>  (33) 
adg

>  <m_score__min__energy>  (33) 
-9.8900000000000006

>  <m_primary>  (33) 
energy

$$$$
33:0
     RDKit          3D

 54 57  0  0  0  0  0  0  0  0999 V2000
   53.3490   25.2290   44.8620 H   0  0  0  0  0  0  0  0  0  0  0  0
   53.9260   24.7840   45.6120 N   0  0  0  0  0  0  0  0  0  0  0  0
   55.1940   25.0160   45.7170 C   0  0  0  0  0  0  0  0  0  0  0  0
   55.6450   26.2770   45.9390 N   0  0  0  0  0  0  0  0  0  0  0  0
   56.9770   26.5280   46.0430 C   0  0  0  0  0  0  0  0  0  0  0  0
   57.4640   27.9160   46.2800 C   0  0  0  0  0  0  0  0  0  0  0  0
   56.9940   28.9710   45.4740 C   0  0  0  0  0  0  0  0  0  0  0  0
   56.2686   28.7590   44.6747 H   0  0  0  0  0  0  0  0  0  0  0  0
   57.4370   30.2930   45.6740 C   0  0  0  0  0  0  0  0  0  0  0  0
   56.9970   31.3540   44.8660 O   0  0  0  0  0  0  0  0  0  0  0  0
   57.4190   31.5820   43.5250 C   0  0  0  0  0  0  0  0  0  0  0  0
   58.3868   32.1049   43.5290 H   0  0  0  0  0  0  0  0  0  0  0  0
   57.5250   30.6184   43.0051 H   0  0  0  0  0  0  0  0  0  0  0  0
   56.6712   32.1988   43.0051 H   0  0  0  0  0  0  0  0  0  0  0  0
   58.3570   30.5640   46.7020 C   0  0  0  0  0  0  0  0  0  0  0  0
   58.8170   31.9060   46.9390 N   0  0  0  0  0  0  0  0  0  0  0  0
   58.4130   32.6190   48.1550 C   0  0  0  0  0  0  0  0  0  0  0  0
   57.6598   33.3791   47.9003 H   0  0  0  0  0  0  0  0  0  0  0  0
   57.9863   31.9031   48.8729 H   0  0  0  0  0  0  0  0  0  0  0  0
   59.6300   33.2990   48.7800 C   0  0  0  0  0  0  0  0  0  0  0  0
   59.2943   33.9090   49.6316 H   0  0  0  0  0  0  0  0  0  0  0  0
   60.3271   32.5094   49.0971 H   0  0  0  0  0  0  0  0  0  0  0  0
   60.3850   34.2200   47.7720 C   0  0  0  0  0  0  0  0  0  0  0  0
   60.0709   35.2322   48.0667 H   0  0  0  0  0  0  0  0  0  0  0  0
   61.8650   34.1770   47.9060 N   0  0  0  0  0  0  0  0  0  0  0  0
   62.3400   33.2970   48.9880 C   0  0  0  0  0  0  0  0  0  0  0  0
   62.8201   33.8968   49.7752 H   0  0  0  0  0  0  0  0  0  0  0  0
   61.4983   32.7487   49.4361 H   0  0  0  0  0  0  0  0  0  0  0  0
   63.3470   32.3290   48.3880 C   0  0  0  0  0  0  0  0  0  0  0  0
   64.1966   32.1800   49.0706 H   0  0  0  0  0  0  0  0  0  0  0  0
   62.9134   31.3339   48.2094 H   0  0  0  0  0  0  0  0  0  0  0  0
   63.8000   32.9930   47.1110 C   0  0  0  0  0  0  0  0  0  0  0  0
   64.6811   33.6260   47.2922 H   0  0  0  0  0  0  0  0  0  0  0  0
   64.0975   32.2654   46.3415 H   0  0  0  0  0  0  0  0  0  0  0  0
   62.6130   33.8340   46.6850 C   0  0  0  0  0  0  0  0  0  0  0  0
   62.9598   34.7504   46.1850 H   0  0  0  0  0  0  0  0  0  0  0  0
   61.9762   33.2826   45.9776 H   0  0  0  0  0  0  0  0  0  0  0  0
   59.9480   34.0320   46.2960 C   0  0  0  0  0  0  0  0  0  0  0  0
   59.0448   34.6355   46.1228 H   0  0  0  0  0  0  0  0  0  0  0  0
   60.7948   34.3493   45.6697 H   0  0  0  0  0  0  0  0  0  0  0  0
   59.6360   32.5750   45.9190 C   0  0  0  0  0  0  0  0  0  0  0  0
   59.0916   32.5642   44.9632 H   0  0  0  0  0  0  0  0  0  0  0  0
   60.5898   32.0328   45.8397 H   0  0  0  0  0  0  0  0  0  0  0  0
   58.8310   29.5180   47.5030 C   0  0  0  0  0  0  0  0  0  0  0  0
   59.5578   29.7307   48.3008 H   0  0  0  0  0  0  0  0  0  0  0  0
   58.3920   28.2080   47.3010 C   0  0  0  0  0  0  0  0  0  0  0  0
   58.8790   27.2360   48.1130 F   0  0  0  0  0  0  0  0  0  0  0  0
   57.8540   25.4950   45.9230 N   0  0  0  0  0  0  0  0  0  0  0  0
   57.4090   24.2290   45.7140 C   0  0  0  0  0  0  0  0  0  0  0  0
   58.3830   23.1120   45.5480 C   0  0  0  0  0  0  0  0  0  0  0  0
   58.6983   22.7504   46.5378 H   0  0  0  0  0  0  0  0  0  0  0  0
   57.9076   22.2906   44.9919 H   0  0  0  0  0  0  0  0  0  0  0  0
   59.2615   23.4711   44.9919 H   0  0  0  0  0  0  0  0  0  0  0  0
   56.0770   23.9930   45.5990 N   0  0  0  0  0  0  0  0  0  0  0  0
  1  2  1  0
  2  3  2  0
  3  4  1  0
  4  5  2  0
  5  6  1  0
  6  7  2  0
  7  8  1  0
  7  9  1  0
  9 10  1  0
 10 11  1  0
 11 12  1  0
 11 13  1  0
 11 14  1  0
  9 15  2  0
 15 16  1  0
 16 17  1  0
 17 18  1  0
 17 19  1  0
 17 20  1  0
 20 21  1  0
 20 22  1  0
 20 23  1  0
 23 24  1  0
 23 25  1  0
 25 26  1  0
 26 27  1  0
 26 28  1  0
 26 29  1  0
 29 30  1  0
 29 31  1  0
 29 32  1  0
 32 33  1  0
 32 34  1  0
 32 35  1  0
 35 36  1  0
 35 37  1  0
 23 38  1  0
 38 39  1  0
 38 40  1  0
 38 41  1  0
 41 42  1  0
 41 43  1  0
 15 44  1  0
 44 45  1  0
 44 46  2  0
 46 47  1  0
  5 48  1  0
 48 49  1  0
 49 50  1  0
 50 51  1  0
 50 52  1  0
 50 53  1  0
 49 54  2  0
 54  3  1  0
 46  6  1  0
 41 16  1  0
 35 25  1  0
M  CHG  1  48  -1
M  END
>  <UniqueID>  (34) 
33

>  <SMILES>  (34) 
[H]/N=c1/nc(C)[n-]c(-c2cc(OC)c(N3CCC(N4CCCC4)CC3)cc2F)n1

>  <Energy>  (34) 
71.65073302787287

>  <Genealogy>  (34) 
COc1cc(-c2nc(=N)nc(C)[n-]2)c(F)cc1N1CCC(N2CCCC2)CC1 (protonated)
[H]/N=c1/nc(C)[n-]c(-c2cc(OC)c(N3CCC(N4CCCC4)CC3)cc2F)n1 (cis-trans isomerization)
[H]/N=c1/nc(C)[n-]c(-c2cc(OC)c(N3CCC(N4CCCC4)CC3)cc2F)n1 (3D coordinates assigned)
[H]/N=c1/nc(C)[n-]c(-c2cc(OC)c(N3CCC(N4CCCC4)CC3)cc2F)n1 (nonaromatic ring conformer: 71.65073302787287 kcal/mol)

>  <smiles>  (34) 
COc1cc(-c2nc(=N)nc(C)[nH]2)c(F)cc1N1CCC(N2CCCC2)CC1

>  <score_type>  (34) 
oracle

>  <origin>  (34) 
adg

>  <m_score__min__energy>  (34) 
-9.9299999999999997

>  <m_primary>  (34) 
energy

$$$$
34:0
     RDKit          3D

 36 38  0  0  0  0  0  0  0  0999 V2000
   55.2000   28.9810   45.0090 O   0  0  0  0  0  0  0  0  0  0  0  0
   56.5080   28.5920   45.2760 C   0  0  0  0  0  0  0  0  0  0  0  0
   56.7880   27.2390   45.4950 C   0  0  0  0  0  0  0  0  0  0  0  0
   58.0920   26.8260   45.7820 C   0  0  0  0  0  0  0  0  0  0  0  0
   59.1230   27.7650   45.8510 C   0  0  0  0  0  0  0  0  0  0  0  0
   58.8530   29.1180   45.6310 C   0  0  0  0  0  0  0  0  0  0  0  0
   57.5470   29.5460   45.3280 C   0  0  0  0  0  0  0  0  0  0  0  0
   57.2790   30.9490   45.1210 N   0  0  0  0  0  0  0  0  0  0  0  0
   57.7090   31.3570   43.7720 C   0  0  0  0  0  0  0  0  0  0  0  0
   57.7730   32.8930   43.6340 C   0  0  0  0  0  0  0  0  0  0  0  0
   57.3630   33.6370   44.9140 C   0  0  0  0  0  0  0  0  0  0  0  0
   58.2850   33.3580   46.0080 N   0  0  0  0  0  0  0  0  0  0  0  0
   57.9150   33.1410   47.2580 N   0  0  0  0  0  0  0  0  0  0  0  0
   58.9960   33.0260   48.0120 N   0  0  0  0  0  0  0  0  0  0  0  0
   60.0290   33.1880   47.1610 C   0  0  0  0  0  0  0  0  0  0  0  0
   61.4390   33.1890   47.5600 C   0  0  0  0  0  0  0  0  0  0  0  0
   62.5160   33.5210   46.7450 C   0  0  0  0  0  0  0  0  0  0  0  0
   63.7520   33.4070   47.3930 C   0  0  0  0  0  0  0  0  0  0  0  0
   63.6430   32.9910   48.7130 C   0  0  0  0  0  0  0  0  0  0  0  0
   65.0900   32.6970   49.9190 Br  0  0  0  0  0  0  0  0  0  0  0  0
   62.0190   32.7580   49.0810 S   0  0  0  0  0  0  0  0  0  0  0  0
   59.6020   33.4000   45.9010 N   0  0  0  0  0  0  0  0  0  0  0  0
   55.9780   26.4967   45.4411 H   0  0  0  0  0  0  0  0  0  0  0  0
   58.3061   25.7608   45.9536 H   0  0  0  0  0  0  0  0  0  0  0  0
   60.1487   27.4392   46.0788 H   0  0  0  0  0  0  0  0  0  0  0  0
   59.6675   29.8545   45.6951 H   0  0  0  0  0  0  0  0  0  0  0  0
   57.7800   31.5230   45.8400 H   0  0  0  0  0  0  0  0  0  0  0  0
   56.2580   31.1220   45.2460 H   0  0  0  0  0  0  0  0  0  0  0  0
   58.7072   30.9393   43.5744 H   0  0  0  0  0  0  0  0  0  0  0  0
   56.9729   30.9778   43.0479 H   0  0  0  0  0  0  0  0  0  0  0  0
   58.8047   33.1778   43.3802 H   0  0  0  0  0  0  0  0  0  0  0  0
   57.0581   33.1790   42.8484 H   0  0  0  0  0  0  0  0  0  0  0  0
   57.3609   34.7187   44.7144 H   0  0  0  0  0  0  0  0  0  0  0  0
   56.3606   33.2933   45.2090 H   0  0  0  0  0  0  0  0  0  0  0  0
   62.4078   33.8406   45.6980 H   0  0  0  0  0  0  0  0  0  0  0  0
   64.7133   33.6253   46.9049 H   0  0  0  0  0  0  0  0  0  0  0  0
  1  2  1  0
  2  3  2  0
  3  4  1  0
  4  5  2  0
  5  6  1  0
  6  7  2  0
  7  8  1  0
  8  9  1  0
  9 10  1  0
 10 11  1  0
 11 12  1  0
 12 13  1  0
 13 14  2  0
 14 15  1  0
 15 16  1  0
 16 17  2  0
 17 18  1  0
 18 19  2  0
 19 20  1  0
 19 21  1  0
 15 22  2  0
  7  2  1  0
 22 12  1  0
 21 16  1  0
  3 23  1  0
  4 24  1  0
  5 25  1  0
  6 26  1  0
  8 27  1  0
  8 28  1  0
  9 29  1  0
  9 30  1  0
 10 31  1  0
 10 32  1  0
 11 33  1  0
 11 34  1  0
 17 35  1  0
 18 36  1  0
M  CHG  2   1  -1   8   1
M  END
>  <UniqueID>  (35) 
34

>  <SMILES>  (35) 
[O-]c1ccccc1[NH2+]CCCn1nnc(-c2ccc(Br)s2)n1

>  <Energy>  (35) 
99.04187357676986

>  <Genealogy>  (35) 
[O-]c1ccccc1[NH2+]CCCn1nnc(-c2ccc(Br)s2)n1 (protonated)
[O-]c1ccccc1[NH2+]CCCn1nnc(-c2ccc(Br)s2)n1 (3D coordinates assigned)
[O-]c1ccccc1[NH2+]CCCn1nnc(-c2ccc(Br)s2)n1 (optimized conformer: 99.04187357676986 kcal/mol)

>  <smiles>  (35) 
Oc1ccccc1NCCCn1nnc(-c2ccc(Br)s2)n1

>  <score_type>  (35) 
oracle

>  <origin>  (35) 
adg

>  <m_score__min__energy>  (35) 
-10.380000000000001

>  <m_primary>  (35) 
energy

$$$$
35:0
     RDKit          3D

 48 51  0  0  0  0  0  0  0  0999 V2000
   58.2260   34.5830   44.8510 C   0  0  0  0  0  0  0  0  0  0  0  0
   58.1780   33.1150   45.1860 C   0  0  0  0  0  0  0  0  0  0  0  0
   57.7450   32.2020   44.2130 C   0  0  0  0  0  0  0  0  0  0  0  0
   57.6940   30.8360   44.4910 C   0  0  0  0  0  0  0  0  0  0  0  0
   58.0800   30.3490   45.7510 C   0  0  0  0  0  0  0  0  0  0  0  0
   58.0220   28.8960   46.0480 C   0  0  0  0  0  0  0  0  0  0  0  0
   58.8840   28.3250   47.0030 C   0  0  0  0  0  0  0  0  0  0  0  0
   58.8320   26.9550   47.2750 C   0  0  0  0  0  0  0  0  0  0  0  0
   57.9340   26.1320   46.5890 C   0  0  0  0  0  0  0  0  0  0  0  0
   57.9060   24.7300   46.8880 N   0  0  0  0  0  0  0  0  0  0  0  0
   57.0160   24.0830   47.8090 C   0  0  0  0  0  0  0  0  0  0  0  0
   57.4600   23.7640   48.9440 O   0  0  0  0  0  0  0  0  0  0  0  0
   55.5710   23.7600   47.4650 C   0  0  2  0  0  0  0  0  0  0  0  0
   55.2360   22.3800   47.8450 N   0  0  0  0  0  0  0  0  0  0  0  0
   56.0830   21.2220   46.8570 S   0  0  0  0  0  0  0  0  0  0  0  0
   57.4260   20.9260   47.4630 O   0  0  0  0  0  0  0  0  0  0  0  0
   55.2730   19.9580   46.7860 O   0  0  0  0  0  0  0  0  0  0  0  0
   56.2920   21.8750   45.2400 C   0  0  0  0  0  0  0  0  0  0  0  0
   56.8810   21.0930   44.2380 C   0  0  0  0  0  0  0  0  0  0  0  0
   57.0130   21.5990   42.9420 C   0  0  0  0  0  0  0  0  0  0  0  0
   56.5530   22.8830   42.6420 C   0  0  0  0  0  0  0  0  0  0  0  0
   55.9630   23.6670   43.6380 C   0  0  0  0  0  0  0  0  0  0  0  0
   55.8350   23.1710   44.9460 C   0  0  0  0  0  0  0  0  0  0  0  0
   55.2350   24.0020   46.0100 C   0  0  0  0  0  0  0  0  0  0  0  0
   54.4410   24.9340   45.7060 O   0  0  0  0  0  0  0  0  0  0  0  0
   57.0510   26.6980   45.6570 C   0  0  0  0  0  0  0  0  0  0  0  0
   57.0990   28.0670   45.3830 C   0  0  0  0  0  0  0  0  0  0  0  0
   58.5200   31.2600   46.7260 C   0  0  0  0  0  0  0  0  0  0  0  0
   58.5810   32.6380   46.4550 C   0  0  0  0  0  0  0  0  0  0  0  0
   59.0500   33.5810   47.5310 C   0  0  0  0  0  0  0  0  0  0  0  0
   58.2452   35.1708   45.7806 H   0  0  0  0  0  0  0  0  0  0  0  0
   59.1316   34.7957   44.2639 H   0  0  0  0  0  0  0  0  0  0  0  0
   57.3363   34.8544   44.2639 H   0  0  0  0  0  0  0  0  0  0  0  0
   57.4425   32.5671   43.2204 H   0  0  0  0  0  0  0  0  0  0  0  0
   57.3487   30.1344   43.7174 H   0  0  0  0  0  0  0  0  0  0  0  0
   59.6036   28.9613   47.5390 H   0  0  0  0  0  0  0  0  0  0  0  0
   59.5013   26.5220   48.0330 H   0  0  0  0  0  0  0  0  0  0  0  0
   54.9549   24.4570   48.0521 H   0  0  0  0  0  0  0  0  0  0  0  0
   57.2399   20.0798   44.4715 H   0  0  0  0  0  0  0  0  0  0  0  0
   57.4797   20.9853   42.1574 H   0  0  0  0  0  0  0  0  0  0  0  0
   56.6550   23.2782   41.6205 H   0  0  0  0  0  0  0  0  0  0  0  0
   55.5977   24.6760   43.3964 H   0  0  0  0  0  0  0  0  0  0  0  0
   56.3180   26.0612   45.1400 H   0  0  0  0  0  0  0  0  0  0  0  0
   56.4107   28.5002   44.6424 H   0  0  0  0  0  0  0  0  0  0  0  0
   58.8214   30.8891   47.7168 H   0  0  0  0  0  0  0  0  0  0  0  0
   58.8342   33.1470   48.5185 H   0  0  0  0  0  0  0  0  0  0  0  0
   60.1334   33.7425   47.4303 H   0  0  0  0  0  0  0  0  0  0  0  0
   58.5251   34.5424   47.4303 H   0  0  0  0  0  0  0  0  0  0  0  0
  1  2  1  0
  2  3  2  0
  3  4  1  0
  4  5  2  0
  5  6  1  0
  6  7  2  0
  7  8  1  0
  8  9  2  0
  9 10  1  0
 10 11  1  0
 11 12  2  0
 11 13  1  0
 13 14  1  0
 14 15  1  0
 15 16  2  0
 15 17  2  0
 15 18  1  0
 18 19  2  0
 19 20  1  0
 20 21  2  0
 21 22  1  0
 22 23  2  0
 23 24  1  0
 24 25  2  0
  9 26  1  0
 26 27  2  0
  5 28  1  0
 28 29  2  0
 29 30  1  0
 29  2  1  0
 27  6  1  0
 24 13  1  0
 23 18  1  0
  1 31  1  0
  1 32  1  0
  1 33  1  0
  3 34  1  0
  4 35  1  0
  7 36  1  0
  8 37  1  0
 13 38  1  1
 19 39  1  0
 20 40  1  0
 21 41  1  0
 22 42  1  0
 26 43  1  0
 27 44  1  0
 28 45  1  0
 30 46  1  0
 30 47  1  0
 30 48  1  0
M  CHG  2  10  -1  14  -1
M  END
>  <UniqueID>  (36) 
35

>  <SMILES>  (36) 
Cc1ccc(-c2ccc([N-]C(=O)[C@@H]3[N-]S(=O)(=O)c4ccccc4C3=O)cc2)cc1C

>  <Energy>  (36) 
68.25613603116513

>  <Genealogy>  (36) 
Cc1ccc(-c2ccc([N-]C(=O)C3[N-]S(=O)(=O)c4ccccc4C3=O)cc2)cc1C (protonated)
Cc1ccc(-c2ccc([N-]C(=O)[C@@H]3[N-]S(=O)(=O)c4ccccc4C3=O)cc2)cc1C (chirality)
Cc1ccc(-c2ccc([N-]C(=O)[C@@H]3[N-]S(=O)(=O)c4ccccc4C3=O)cc2)cc1C (3D coordinates assigned)
Cc1ccc(-c2ccc([N-]C(=O)[C@@H]3[N-]S(=O)(=O)c4ccccc4C3=O)cc2)cc1C (nonaromatic ring conformer: 68.25613603116513 kcal/mol)

>  <smiles>  (36) 
Cc1ccc(-c2ccc(NC(=O)C3NS(=O)(=O)c4ccccc4C3=O)cc2)cc1C

>  <score_type>  (36) 
oracle

>  <origin>  (36) 
adg

>  <m_score__min__energy>  (36) 
-11.880000000000001

>  <m_primary>  (36) 
energy

$$$$
36:0
     RDKit          3D

 53 55  0  0  0  0  0  0  0  0999 V2000
   56.3520   28.7390   45.1680 C   0  0  0  0  0  0  0  0  0  0  0  0
   56.3700   30.1610   45.2410 O   0  0  0  0  0  0  0  0  0  0  0  0
   56.9390   31.0040   44.2740 C   0  0  0  0  0  0  0  0  0  0  0  0
   56.8110   30.7420   42.8970 C   0  0  0  0  0  0  0  0  0  0  0  0
   57.3990   31.5930   41.9590 C   0  0  0  0  0  0  0  0  0  0  0  0
   58.1260   32.7050   42.3810 C   0  0  0  0  0  0  0  0  0  0  0  0
   58.2590   32.9790   43.7430 C   0  0  0  0  0  0  0  0  0  0  0  0
   57.6580   32.1440   44.6980 C   0  0  0  0  0  0  0  0  0  0  0  0
   57.7470   32.4930   46.1690 C   0  0  0  0  0  0  0  0  0  0  0  0
   59.0380   32.0480   46.7260 N   0  0  0  0  0  0  0  0  0  0  0  0
   60.1370   33.0050   46.8950 C   0  0  0  0  0  0  0  0  0  0  0  0
   59.2850   30.6620   47.0420 C   0  0  0  0  0  0  0  0  0  0  0  0
   58.7570   30.1590   48.0700 O   0  0  0  0  0  0  0  0  0  0  0  0
   60.1240   29.7680   46.1590 C   0  0  0  0  0  0  0  0  0  0  0  0
   59.4190   28.5400   45.7340 N   0  0  0  0  0  0  0  0  0  0  0  0
   59.6470   28.2000   44.3220 C   0  0  0  0  0  0  0  0  0  0  0  0
   58.5610   27.2190   43.8710 C   0  0  0  0  0  0  0  0  0  0  0  0
   58.3000   26.2140   44.9130 N   0  0  0  0  0  0  0  0  0  0  0  0
   57.2370   25.2660   44.7090 C   0  0  0  0  0  0  0  0  0  0  0  0
   57.3430   24.3040   43.6900 C   0  0  0  0  0  0  0  0  0  0  0  0
   56.3220   23.3640   43.4960 C   0  0  0  0  0  0  0  0  0  0  0  0
   55.1920   23.3760   44.3190 C   0  0  0  0  0  0  0  0  0  0  0  0
   55.0790   24.3310   45.3350 C   0  0  0  0  0  0  0  0  0  0  0  0
   56.0940   25.2760   45.5310 C   0  0  0  0  0  0  0  0  0  0  0  0
   55.9750   26.1790   46.5390 F   0  0  0  0  0  0  0  0  0  0  0  0
   59.2430   26.0400   46.0270 C   0  0  0  0  0  0  0  0  0  0  0  0
   59.6590   27.3950   46.6410 C   0  0  0  0  0  0  0  0  0  0  0  0
   56.3467   28.3197   46.1849 H   0  0  0  0  0  0  0  0  0  0  0  0
   55.4496   28.4108   44.6313 H   0  0  0  0  0  0  0  0  0  0  0  0
   57.2458   28.3881   44.6313 H   0  0  0  0  0  0  0  0  0  0  0  0
   56.2447   29.8621   42.5579 H   0  0  0  0  0  0  0  0  0  0  0  0
   57.2883   31.3854   40.8845 H   0  0  0  0  0  0  0  0  0  0  0  0
   58.5957   33.3677   41.6392 H   0  0  0  0  0  0  0  0  0  0  0  0
   58.8385   33.8549   44.0702 H   0  0  0  0  0  0  0  0  0  0  0  0
   57.6568   33.5827   46.2890 H   0  0  0  0  0  0  0  0  0  0  0  0
   56.9326   31.9848   46.7061 H   0  0  0  0  0  0  0  0  0  0  0  0
   60.3216   33.1657   47.9674 H   0  0  0  0  0  0  0  0  0  0  0  0
   61.0465   32.6061   46.4221 H   0  0  0  0  0  0  0  0  0  0  0  0
   59.8669   33.9608   46.4221 H   0  0  0  0  0  0  0  0  0  0  0  0
   60.4115   30.3344   45.2609 H   0  0  0  0  0  0  0  0  0  0  0  0
   60.9984   29.4549   46.7484 H   0  0  0  0  0  0  0  0  0  0  0  0
   59.5991   29.1123   43.7093 H   0  0  0  0  0  0  0  0  0  0  0  0
   60.6394   27.7408   44.2029 H   0  0  0  0  0  0  0  0  0  0  0  0
   57.6345   27.7756   43.6665 H   0  0  0  0  0  0  0  0  0  0  0  0
   58.9063   26.7037   42.9626 H   0  0  0  0  0  0  0  0  0  0  0  0
   58.2315   24.2888   43.0417 H   0  0  0  0  0  0  0  0  0  0  0  0
   56.4098   22.6154   42.6948 H   0  0  0  0  0  0  0  0  0  0  0  0
   54.3928   22.6355   44.1679 H   0  0  0  0  0  0  0  0  0  0  0  0
   54.1897   24.3398   45.9823 H   0  0  0  0  0  0  0  0  0  0  0  0
   58.7654   25.4274   46.8059 H   0  0  0  0  0  0  0  0  0  0  0  0
   60.1467   25.5484   45.6374 H   0  0  0  0  0  0  0  0  0  0  0  0
   59.0827   27.5528   47.5646 H   0  0  0  0  0  0  0  0  0  0  0  0
   60.7410   27.3499   46.8342 H   0  0  0  0  0  0  0  0  0  0  0  0
  1  2  1  0
  2  3  1  0
  3  4  2  0
  4  5  1  0
  5  6  2  0
  6  7  1  0
  7  8  2  0
  8  9  1  0
  9 10  1  0
 10 11  1  0
 10 12  1  0
 12 13  2  0
 12 14  1  0
 14 15  1  0
 15 16  1  0
 16 17  1  0
 17 18  1  0
 18 19  1  0
 19 20  2  0
 20 21  1  0
 21 22  2  0
 22 23  1  0
 23 24  2  0
 24 25  1  0
 18 26  1  0
 26 27  1  0
  8  3  1  0
 27 15  1  0
 24 19  1  0
  1 28  1  0
  1 29  1  0
  1 30  1  0
  4 31  1  0
  5 32  1  0
  6 33  1  0
  7 34  1  0
  9 35  1  0
  9 36  1  0
 11 37  1  0
 11 38  1  0
 11 39  1  0
 14 40  1  0
 14 41  1  0
 16 42  1  0
 16 43  1  0
 17 44  1  0
 17 45  1  0
 20 46  1  0
 21 47  1  0
 22 48  1  0
 23 49  1  0
 26 50  1  0
 26 51  1  0
 27 52  1  0
 27 53  1  0
M  END
>  <UniqueID>  (37) 
36

>  <SMILES>  (37) 
COc1ccccc1CN(C)C(=O)CN1CCN(c2ccccc2F)CC1

>  <Energy>  (37) 
65.6669344064172

>  <Genealogy>  (37) 
COc1ccccc1CN(C)C(=O)CN1CCN(c2ccccc2F)CC1 (3D coordinates assigned)
COc1ccccc1CN(C)C(=O)CN1CCN(c2ccccc2F)CC1 (nonaromatic ring conformer: 65.6669344064172 kcal/mol)

>  <smiles>  (37) 
COc1ccccc1CN(C)C(=O)CN1CCN(c2ccccc2F)CC1

>  <score_type>  (37) 
oracle

>  <origin>  (37) 
adg

>  <m_score__min__energy>  (37) 
-7.6500000000000004

>  <m_primary>  (37) 
energy

$$$$
37:0
     RDKit          3D

 28 29  0  0  0  0  0  0  0  0999 V2000
   57.6160   31.9850   41.8420 C   0  0  0  0  0  0  0  0  0  0  0  0
   57.8130   32.1510   43.3190 C   0  0  0  0  0  0  0  0  0  0  0  0
   57.2500   31.2380   44.2200 C   0  0  0  0  0  0  0  0  0  0  0  0
   57.4010   31.4190   45.5580 N   0  0  0  0  0  0  0  0  0  0  0  0
   58.0810   32.4790   46.0710 C   0  0  0  0  0  0  0  0  0  0  0  0
   58.2270   32.6310   47.8540 S   0  0  0  0  0  0  0  0  0  0  0  0
   59.6470   31.4950   47.9560 C   0  0  0  0  0  0  0  0  0  0  0  0
   60.9210   32.2910   48.0090 C   0  0  0  0  0  0  0  0  0  0  0  0
   61.9710   31.9980   47.1210 C   0  0  0  0  0  0  0  0  0  0  0  0
   63.1460   32.7530   47.1440 C   0  0  0  0  0  0  0  0  0  0  0  0
   63.2790   33.8140   48.0450 C   0  0  0  0  0  0  0  0  0  0  0  0
   62.2350   34.1220   48.9210 C   0  0  0  0  0  0  0  0  0  0  0  0
   61.0550   33.3690   48.9020 C   0  0  0  0  0  0  0  0  0  0  0  0
   60.0470   33.6940   49.7500 F   0  0  0  0  0  0  0  0  0  0  0  0
   58.6500   33.4280   45.2050 C   0  0  0  0  0  0  0  0  0  0  0  0
   59.6140   34.9510   45.8580 Br  0  0  0  0  0  0  0  0  0  0  0  0
   58.5040   33.2600   43.8250 C   0  0  0  0  0  0  0  0  0  0  0  0
   56.7865   31.2861   41.6590 H   0  0  0  0  0  0  0  0  0  0  0  0
   57.3797   32.9604   41.3917 H   0  0  0  0  0  0  0  0  0  0  0  0
   58.5372   31.5868   41.3917 H   0  0  0  0  0  0  0  0  0  0  0  0
   56.6846   30.3728   43.8435 H   0  0  0  0  0  0  0  0  0  0  0  0
   59.5605   30.8801   48.8640 H   0  0  0  0  0  0  0  0  0  0  0  0
   59.6588   30.8416   47.0712 H   0  0  0  0  0  0  0  0  0  0  0  0
   61.8666   31.1699   46.4045 H   0  0  0  0  0  0  0  0  0  0  0  0
   63.9673   32.5127   46.4528 H   0  0  0  0  0  0  0  0  0  0  0  0
   64.2057   34.4063   48.0641 H   0  0  0  0  0  0  0  0  0  0  0  0
   62.3406   34.9585   49.6275 H   0  0  0  0  0  0  0  0  0  0  0  0
   58.9329   34.0007   43.1341 H   0  0  0  0  0  0  0  0  0  0  0  0
  1  2  1  0
  2  3  2  0
  3  4  1  0
  4  5  2  0
  5  6  1  0
  6  7  1  0
  7  8  1  0
  8  9  2  0
  9 10  1  0
 10 11  2  0
 11 12  1  0
 12 13  2  0
 13 14  1  0
  5 15  1  0
 15 16  1  0
 15 17  2  0
 17  2  1  0
 13  8  1  0
  1 18  1  0
  1 19  1  0
  1 20  1  0
  3 21  1  0
  7 22  1  0
  7 23  1  0
  9 24  1  0
 10 25  1  0
 11 26  1  0
 12 27  1  0
 17 28  1  0
M  END
>  <UniqueID>  (38) 
37

>  <SMILES>  (38) 
Cc1cnc(SCc2ccccc2F)c(Br)c1

>  <Energy>  (38) 
25.035318531647928

>  <Genealogy>  (38) 
Cc1cnc(SCc2ccccc2F)c(Br)c1 (3D coordinates assigned)
Cc1cnc(SCc2ccccc2F)c(Br)c1 (optimized conformer: 25.035318531647928 kcal/mol)

>  <smiles>  (38) 
Cc1cnc(SCc2ccccc2F)c(Br)c1

>  <score_type>  (38) 
oracle

>  <origin>  (38) 
adg

>  <m_score__min__energy>  (38) 
-7.2400000000000002

>  <m_primary>  (38) 
energy

$$$$
38:0
     RDKit          3D

 54 57  0  0  1  0  0  0  0  0999 V2000
   56.3680   29.7260   42.8320 C   0  0  0  0  0  0  0  0  0  0  0  0
   55.9740   30.4030   44.0940 C   0  0  0  0  0  0  0  0  0  0  0  0
   57.0010   30.8630   44.9520 N   0  0  0  0  0  0  0  0  0  0  0  0
   57.7420   29.9100   45.6940 C   0  0  0  0  0  0  0  0  0  0  0  0
   58.9340   29.3080   45.0410 C   0  0  0  0  0  0  0  0  0  0  0  0
   59.9570   28.9630   46.0160 N   0  0  0  0  0  0  0  0  0  0  0  0
   59.9750   29.3850   47.2080 C   0  0  0  0  0  0  0  0  0  0  0  0
   59.2100   28.8380   48.1600 N   0  0  0  0  0  0  0  0  0  0  0  0
   59.2760   29.3220   49.4050 C   0  0  0  0  0  0  0  0  0  0  0  0
   60.1050   30.3600   49.7300 N   0  0  0  0  0  0  0  0  0  0  0  0
   60.8760   30.9180   48.7950 C   0  0  0  0  0  0  0  0  0  0  0  0
   60.8150   30.4320   47.5200 C   0  0  0  0  0  0  0  0  0  0  0  0
   61.6460   31.1140   46.7540 O   0  0  0  0  0  0  0  0  0  0  0  0
   62.2690   32.0460   47.4590 C   0  0  0  0  0  0  0  0  0  0  0  0
   63.2060   32.9800   47.0920 C   0  0  0  0  0  0  0  0  0  0  0  0
   63.6720   33.8260   48.0730 C   0  0  0  0  0  0  0  0  0  0  0  0
   63.2260   33.7570   49.3880 C   0  0  0  0  0  0  0  0  0  0  0  0
   62.2710   32.7970   49.7410 C   0  0  0  0  0  0  0  0  0  0  0  0
   61.8100   31.9560   48.7590 C   0  0  0  0  0  0  0  0  0  0  0  0
   57.8280   31.8980   44.3600 C   0  0  0  0  0  0  0  0  0  0  0  0
   58.6280   32.5910   45.4310 C   0  0  0  0  0  0  0  0  0  0  0  0
   57.7150   32.9080   46.6190 C   0  0  0  0  0  0  0  0  0  0  0  0
   58.6200   33.4620   47.7060 C   0  0  0  0  0  0  0  0  0  0  0  0
   59.2870   34.7090   47.2020 C   0  0  0  0  0  0  0  0  0  0  0  0
   60.1370   34.3940   45.9990 C   0  0  0  0  0  0  0  0  0  0  0  0
   59.2030   33.8890   44.8930 C   0  0  0  0  0  0  0  0  0  0  0  0
   56.9085   28.7973   43.0674 H   0  0  0  0  0  0  0  0  0  0  0  0
   55.4674   29.4879   42.2470 H   0  0  0  0  0  0  0  0  0  0  0  0
   57.0199   30.3914   42.2470 H   0  0  0  0  0  0  0  0  0  0  0  0
   55.3624   31.2752   43.8197 H   0  0  0  0  0  0  0  0  0  0  0  0
   55.4611   29.6223   44.6749 H   0  0  0  0  0  0  0  0  0  0  0  0
   58.0851   30.4040   46.6150 H   0  0  0  0  0  0  0  0  0  0  0  0
   57.0485   29.0689   45.8415 H   0  0  0  0  0  0  0  0  0  0  0  0
   58.6272   28.3967   44.5068 H   0  0  0  0  0  0  0  0  0  0  0  0
   59.3561   30.0465   44.3436 H   0  0  0  0  0  0  0  0  0  0  0  0
   58.5880   28.0520   47.8830 H   0  0  0  0  0  0  0  0  0  0  0  0
   58.6470   28.8735   50.1881 H   0  0  0  0  0  0  0  0  0  0  0  0
   63.5696   33.0495   46.0562 H   0  0  0  0  0  0  0  0  0  0  0  0
   64.4239   34.5835   47.8070 H   0  0  0  0  0  0  0  0  0  0  0  0
   63.6205   34.4512   50.1446 H   0  0  0  0  0  0  0  0  0  0  0  0
   61.9010   32.7187   50.7740 H   0  0  0  0  0  0  0  0  0  0  0  0
   58.5134   31.4436   43.6294 H   0  0  0  0  0  0  0  0  0  0  0  0
   57.1826   32.6335   43.8575 H   0  0  0  0  0  0  0  0  0  0  0  0
   59.4488   31.9313   45.7488 H   0  0  0  0  0  0  0  0  0  0  0  0
   56.9603   33.6551   46.3324 H   0  0  0  0  0  0  0  0  0  0  0  0
   57.1744   32.0134   46.9618 H   0  0  0  0  0  0  0  0  0  0  0  0
   58.0216   33.6992   48.5980 H   0  0  0  0  0  0  0  0  0  0  0  0
   59.3828   32.7145   47.9696 H   0  0  0  0  0  0  0  0  0  0  0  0
   58.5184   35.4442   46.9215 H   0  0  0  0  0  0  0  0  0  0  0  0
   59.9273   35.1199   47.9964 H   0  0  0  0  0  0  0  0  0  0  0  0
   60.6617   35.3003   45.6624 H   0  0  0  0  0  0  0  0  0  0  0  0
   60.8910   33.6323   46.2466 H   0  0  0  0  0  0  0  0  0  0  0  0
   58.4013   34.6173   44.7007 H   0  0  0  0  0  0  0  0  0  0  0  0
   59.7308   33.7444   43.9388 H   0  0  0  0  0  0  0  0  0  0  0  0
  1  2  1  0
  2  3  1  0
  3  4  1  0
  4  5  1  0
  5  6  1  0
  6  7  2  0
  7  8  1  0
  8  9  1  0
  9 10  2  0
 10 11  1  0
 11 12  2  0
 12 13  1  0
 13 14  1  0
 14 15  2  0
 15 16  1  0
 16 17  2  0
 17 18  1  0
 18 19  2  0
  3 20  1  0
 20 21  1  0
 21 22  1  0
 22 23  1  0
 23 24  1  0
 24 25  1  0
 25 26  1  0
 12  7  1  0
 19 14  1  0
 26 21  1  0
 19 11  1  0
  1 27  1  0
  1 28  1  0
  1 29  1  0
  2 30  1  0
  2 31  1  0
  4 32  1  0
  4 33  1  0
  5 34  1  0
  5 35  1  0
  8 36  1  0
  9 37  1  0
 15 38  1  0
 16 39  1  0
 17 40  1  0
 18 41  1  0
 20 42  1  0
 20 43  1  0
 21 44  1  0
 22 45  1  0
 22 46  1  0
 23 47  1  0
 23 48  1  0
 24 49  1  0
 24 50  1  0
 25 51  1  0
 25 52  1  0
 26 53  1  0
 26 54  1  0
M  END
>  <smiles>  (39) 
CCN(CCN=c1[nH]cnc2c1oc1ccccc12)CC1CCCCC1

>  <score_type>  (39) 
oracle

>  <origin>  (39) 
adg

>  <m_score__min__energy>  (39) 
-8.2699999999999996

>  <m_primary>  (39) 
energy

$$$$
39:0
     RDKit          3D

 48 50  0  0  0  0  0  0  0  0999 V2000
   55.4160   29.9240   43.6930 C   0  0  0  0  0  0  0  0  0  0  0  0
   55.5050   28.9870   44.7610 O   0  0  0  0  0  0  0  0  0  0  0  0
   56.7110   28.4760   45.2670 C   0  0  0  0  0  0  0  0  0  0  0  0
   57.8890   29.1930   45.0270 C   0  0  0  0  0  0  0  0  0  0  0  0
   59.1150   28.7270   45.5090 C   0  0  0  0  0  0  0  0  0  0  0  0
   59.1810   27.5270   46.2350 C   0  0  0  0  0  0  0  0  0  0  0  0
   60.4950   27.0450   46.7940 C   0  0  0  0  0  0  0  0  0  0  0  0
   60.5310   27.1710   48.3180 C   0  0  0  0  0  0  0  0  0  0  0  0
   60.7860   28.5550   48.7010 N   0  0  0  0  0  0  0  0  0  0  0  0
   59.8410   29.6080   48.5010 C   0  0  0  0  0  0  0  0  0  0  0  0
   58.6150   29.3980   48.6950 O   0  0  0  0  0  0  0  0  0  0  0  0
   60.3210   30.9320   48.0610 C   0  0  0  0  0  0  0  0  0  0  0  0
   61.5750   31.3800   48.2810 N   0  0  0  0  0  0  0  0  0  0  0  0
   61.6430   32.6150   47.7320 C   0  0  0  0  0  0  0  0  0  0  0  0
   62.9100   33.4450   47.7770 C   0  0  0  0  0  0  0  0  0  0  0  0
   63.3910   33.8410   46.3770 C   0  0  0  0  0  0  0  0  0  0  0  0
   64.0110   32.7710   48.6030 C   0  0  0  0  0  0  0  0  0  0  0  0
   60.4600   32.9640   47.1680 N   0  0  0  0  0  0  0  0  0  0  0  0
   60.0700   34.0910   46.5110 C   0  0  0  0  0  0  0  0  0  0  0  0
   58.7560   34.1660   46.0280 C   0  0  0  0  0  0  0  0  0  0  0  0
   57.8790   33.0880   46.2290 C   0  0  0  0  0  0  0  0  0  0  0  0
   58.3130   31.9420   46.9080 C   0  0  0  0  0  0  0  0  0  0  0  0
   59.6330   31.9170   47.3700 C   0  0  0  0  0  0  0  0  0  0  0  0
   58.0000   26.8120   46.4860 C   0  0  0  0  0  0  0  0  0  0  0  0
   56.7740   27.2780   46.0020 C   0  0  0  0  0  0  0  0  0  0  0  0
   55.3195   30.9399   44.1036 H   0  0  0  0  0  0  0  0  0  0  0  0
   56.3240   29.8630   43.0751 H   0  0  0  0  0  0  0  0  0  0  0  0
   54.5357   29.6931   43.0751 H   0  0  0  0  0  0  0  0  0  0  0  0
   57.8493   30.1312   44.4541 H   0  0  0  0  0  0  0  0  0  0  0  0
   60.0327   29.3029   45.3188 H   0  0  0  0  0  0  0  0  0  0  0  0
   60.6359   25.9894   46.5184 H   0  0  0  0  0  0  0  0  0  0  0  0
   61.2994   27.6676   46.3753 H   0  0  0  0  0  0  0  0  0  0  0  0
   59.5635   26.8513   48.7324 H   0  0  0  0  0  0  0  0  0  0  0  0
   61.3363   26.5341   48.7128 H   0  0  0  0  0  0  0  0  0  0  0  0
   62.3450   30.8740   48.7740 H   0  0  0  0  0  0  0  0  0  0  0  0
   62.6581   34.3814   48.2963 H   0  0  0  0  0  0  0  0  0  0  0  0
   64.2376   34.5380   46.4637 H   0  0  0  0  0  0  0  0  0  0  0  0
   63.7112   32.9413   45.8312 H   0  0  0  0  0  0  0  0  0  0  0  0
   62.5695   34.3280   45.8312 H   0  0  0  0  0  0  0  0  0  0  0  0
   63.7977   32.9016   49.6742 H   0  0  0  0  0  0  0  0  0  0  0  0
   64.0439   31.6978   48.3638 H   0  0  0  0  0  0  0  0  0  0  0  0
   64.9817   33.2298   48.3638 H   0  0  0  0  0  0  0  0  0  0  0  0
   60.7713   34.9253   46.3623 H   0  0  0  0  0  0  0  0  0  0  0  0
   58.4138   35.0649   45.4942 H   0  0  0  0  0  0  0  0  0  0  0  0
   56.8472   33.1435   45.8519 H   0  0  0  0  0  0  0  0  0  0  0  0
   57.6376   31.0895   47.0725 H   0  0  0  0  0  0  0  0  0  0  0  0
   58.0391   25.8789   47.0673 H   0  0  0  0  0  0  0  0  0  0  0  0
   55.8550   26.7057   46.1966 H   0  0  0  0  0  0  0  0  0  0  0  0
  1  2  1  0
  2  3  1  0
  3  4  2  0
  4  5  1  0
  5  6  2  0
  6  7  1  0
  7  8  1  0
  8  9  1  0
  9 10  1  0
 10 11  2  0
 10 12  1  0
 12 13  1  0
 13 14  2  0
 14 15  1  0
 15 16  1  0
 15 17  1  0
 14 18  1  0
 18 19  1  0
 19 20  2  0
 20 21  1  0
 21 22  2  0
 22 23  1  0
  6 24  1  0
 24 25  2  0
 25  3  1  0
 23 12  2  0
 23 18  1  0
  1 26  1  0
  1 27  1  0
  1 28  1  0
  4 29  1  0
  5 30  1  0
  7 31  1  0
  7 32  1  0
  8 33  1  0
  8 34  1  0
 13 35  1  0
 15 36  1  0
 16 37  1  0
 16 38  1  0
 16 39  1  0
 17 40  1  0
 17 41  1  0
 17 42  1  0
 19 43  1  0
 20 44  1  0
 21 45  1  0
 22 46  1  0
 24 47  1  0
 25 48  1  0
M  CHG  2   9  -1  13   1
M  END
>  <UniqueID>  (40) 
38

>  <SMILES>  (40) 
COc1ccc(CC[N-]C(=O)c2[nH+]c(C(C)C)n3ccccc23)cc1

>  <Energy>  (40) 
78.7854069174112

>  <Genealogy>  (40) 
COc1ccc(CC[N-]C(=O)c2[nH+]c(C(C)C)n3ccccc23)cc1 (protonated)
COc1ccc(CC[N-]C(=O)c2[nH+]c(C(C)C)n3ccccc23)cc1 (3D coordinates assigned)
COc1ccc(CC[N-]C(=O)c2[nH+]c(C(C)C)n3ccccc23)cc1 (optimized conformer: 78.7854069174112 kcal/mol)

>  <smiles>  (40) 
COc1ccc(CCNC(=O)c2nc(C(C)C)n3ccccc23)cc1

>  <score_type>  (40) 
oracle

>  <origin>  (40) 
adg

>  <m_score__min__energy>  (40) 
-7.8499999999999996

>  <m_primary>  (40) 
energy

$$$$
40:0
     RDKit          3D

 60 65  0  0  0  0  0  0  0  0999 V2000
   66.0780   34.3280   51.9020 C   0  0  0  0  0  0  0  0  0  0  0  0
   64.7210   34.0120   52.1290 O   0  0  0  0  0  0  0  0  0  0  0  0
   64.3100   32.9440   51.2920 C   0  0  1  0  0  0  0  0  0  0  0  0
   62.9370   32.4290   51.7870 C   0  0  0  0  0  0  0  0  0  0  0  0
   61.7850   33.1990   51.1330 C   0  0  0  0  0  0  0  0  0  0  0  0
   61.7280   32.9780   49.5760 C   0  0  2  0  0  0  0  0  0  0  0  0
   63.1730   32.6780   49.0280 C   0  0  0  0  0  0  0  0  0  0  0  0
   64.2540   33.4270   49.8190 C   0  0  0  0  0  0  0  0  0  0  0  0
   61.2110   34.2770   48.8780 C   0  0  0  0  0  0  0  0  0  0  0  0
   60.4580   33.7740   47.6990 C   0  0  0  0  0  0  0  0  0  0  0  0
   60.0100   34.5240   46.6130 C   0  0  0  0  0  0  0  0  0  0  0  0
   59.2680   33.8850   45.6080 C   0  0  0  0  0  0  0  0  0  0  0  0
   58.9650   32.5060   45.7040 C   0  0  0  0  0  0  0  0  0  0  0  0
   58.1680   31.8330   44.6470 C   0  0  0  0  0  0  0  0  0  0  0  0
   57.4170   30.6800   44.9440 C   0  0  0  0  0  0  0  0  0  0  0  0
   56.6670   30.0480   43.9490 C   0  0  0  0  0  0  0  0  0  0  0  0
   56.6550   30.5570   42.6490 C   0  0  0  0  0  0  0  0  0  0  0  0
   57.3960   31.7020   42.3400 C   0  0  0  0  0  0  0  0  0  0  0  0
   57.3750   32.3450   40.7090 Cl  0  0  0  0  0  0  0  0  0  0  0  0
   58.1490   32.3380   43.3340 C   0  0  0  0  0  0  0  0  0  0  0  0
   59.4220   31.7790   46.8250 C   0  0  0  0  0  0  0  0  0  0  0  0
   60.1760   32.4360   47.8020 C   0  0  0  0  0  0  0  0  0  0  0  0
   60.6830   31.8790   49.0880 C   0  0  1  0  0  0  0  0  0  0  0  0
   61.2470   30.5280   48.9110 N   0  0  0  0  0  0  0  0  0  0  0  0
   60.6140   29.6650   49.6410 C   0  0  0  0  0  0  0  0  0  0  0  0
   60.8980   28.2670   49.6180 N   0  0  0  0  0  0  0  0  0  0  0  0
   59.5210   30.2860   50.3610 C   0  0  0  0  0  0  0  0  0  0  0  0
   58.5350   29.7350   51.1790 C   0  0  0  0  0  0  0  0  0  0  0  0
   57.5260   30.5850   51.6600 C   0  0  0  0  0  0  0  0  0  0  0  0
   57.5090   31.9470   51.2980 C   0  0  0  0  0  0  0  0  0  0  0  0
   58.5080   32.4710   50.4600 C   0  0  0  0  0  0  0  0  0  0  0  0
   59.5220   31.6150   50.0170 C   0  0  0  0  0  0  0  0  0  0  0  0
   66.5929   34.4479   52.8666 H   0  0  0  0  0  0  0  0  0  0  0  0
   66.5530   33.5164   51.3312 H   0  0  0  0  0  0  0  0  0  0  0  0
   66.1456   35.2659   51.3312 H   0  0  0  0  0  0  0  0  0  0  0  0
   65.0292   32.1129   51.3368 H   0  0  0  0  0  0  0  0  0  0  0  0
   62.8789   32.5557   52.8781 H   0  0  0  0  0  0  0  0  0  0  0  0
   62.8449   31.3676   51.5131 H   0  0  0  0  0  0  0  0  0  0  0  0
   61.9180   34.2724   51.3335 H   0  0  0  0  0  0  0  0  0  0  0  0
   60.8435   32.8244   51.5611 H   0  0  0  0  0  0  0  0  0  0  0  0
   63.2248   32.9884   47.9740 H   0  0  0  0  0  0  0  0  0  0  0  0
   63.3599   31.5992   49.1343 H   0  0  0  0  0  0  0  0  0  0  0  0
   64.0286   34.5035   49.8031 H   0  0  0  0  0  0  0  0  0  0  0  0
   65.2289   33.2269   49.3504 H   0  0  0  0  0  0  0  0  0  0  0  0
   60.5517   34.8463   49.5497 H   0  0  0  0  0  0  0  0  0  0  0  0
   62.0255   34.9622   48.6003 H   0  0  0  0  0  0  0  0  0  0  0  0
   60.2343   35.5987   46.5449 H   0  0  0  0  0  0  0  0  0  0  0  0
   58.9189   34.4608   44.7382 H   0  0  0  0  0  0  0  0  0  0  0  0
   57.4207   30.2739   45.9663 H   0  0  0  0  0  0  0  0  0  0  0  0
   56.0843   29.1468   44.1905 H   0  0  0  0  0  0  0  0  0  0  0  0
   56.0629   30.0575   41.8680 H   0  0  0  0  0  0  0  0  0  0  0  0
   58.7299   33.2388   43.0868 H   0  0  0  0  0  0  0  0  0  0  0  0
   59.1877   30.7092   46.9283 H   0  0  0  0  0  0  0  0  0  0  0  0
   61.9760   30.2610   48.2120 H   0  0  0  0  0  0  0  0  0  0  0  0
   60.3340   27.5990   50.1860 H   0  0  0  0  0  0  0  0  0  0  0  0
   61.6800   27.8970   49.0340 H   0  0  0  0  0  0  0  0  0  0  0  0
   58.5473   28.6664   51.4397 H   0  0  0  0  0  0  0  0  0  0  0  0
   56.7445   30.1856   52.3231 H   0  0  0  0  0  0  0  0  0  0  0  0
   56.7098   32.6031   51.6733 H   0  0  0  0  0  0  0  0  0  0  0  0
   58.4930   33.5291   50.1595 H   0  0  0  0  0  0  0  0  0  0  0  0
  1  2  1  0
  2  3  1  0
  3  4  1  0
  4  5  1  0
  6  5  1  1
  6  7  1  0
  7  8  1  0
  6  9  1  0
  9 10  1  0
 10 11  2  0
 11 12  1  0
 12 13  2  0
 13 14  1  0
 14 15  2  0
 15 16  1  0
 16 17  2  0
 17 18  1  0
 18 19  1  0
 18 20  2  0
 13 21  1  0
 21 22  2  0
 22 23  1  0
 23 24  1  6
 24 25  2  0
 25 26  1  0
 25 27  1  0
 27 28  2  0
 28 29  1  0
 29 30  2  0
 30 31  1  0
 31 32  2  0
  8  3  1  0
 22 10  1  0
 32 23  1  0
 23  6  1  0
 32 27  1  0
 20 14  1  0
  1 33  1  0
  1 34  1  0
  1 35  1  0
  3 36  1  6
  4 37  1  0
  4 38  1  0
  5 39  1  0
  5 40  1  0
  7 41  1  0
  7 42  1  0
  8 43  1  0
  8 44  1  0
  9 45  1  0
  9 46  1  0
 11 47  1  0
 12 48  1  0
 15 49  1  0
 16 50  1  0
 17 51  1  0
 20 52  1  0
 21 53  1  0
 24 54  1  0
 26 55  1  0
 26 56  1  0
 28 57  1  0
 29 58  1  0
 30 59  1  0
 31 60  1  0
M  CHG  1  24   1
M  END
>  <UniqueID>  (41) 
39

>  <SMILES>  (41) 
COC1CCC2(CC1)Cc1ccc(-c3cccc(Cl)c3)cc1[C@@]21[NH+]=C(N)c2ccccc21

>  <Energy>  (41) 
118.87784763061475

>  <Genealogy>  (41) 
COC1CCC2(CC1)Cc1ccc(-c3cccc(Cl)c3)cc1C21[NH+]=C(N)c2ccccc21 (protonated)
COC1CCC2(CC1)Cc1ccc(-c3cccc(Cl)c3)cc1[C@@]21[NH+]=C(N)c2ccccc21 (chirality)
COC1CCC2(CC1)Cc1ccc(-c3cccc(Cl)c3)cc1[C@@]21[NH+]=C(N)c2ccccc21 (3D coordinates assigned)
COC1CCC2(CC1)Cc1ccc(-c3cccc(Cl)c3)cc1[C@@]21[NH+]=C(N)c2ccccc21 (nonaromatic ring conformer: 118.87784763061475 kcal/mol)

>  <smiles>  (41) 
COC1CCC2(CC1)Cc1ccc(-c3cccc(Cl)c3)cc1C21N=C(N)c2ccccc21

>  <score_type>  (41) 
oracle

>  <origin>  (41) 
adg

>  <m_score__min__energy>  (41) 
-8.6799999999999997

>  <m_primary>  (41) 
energy

$$$$
41:0
     RDKit          3D

 54 57  0  0  0  0  0  0  0  0999 V2000
   59.0510   29.2590   52.6130 C   0  0  0  0  0  0  0  0  0  0  0  0
   59.4560   29.5000   51.1880 C   0  0  0  0  0  0  0  0  0  0  0  0
   60.3700   28.6470   50.5610 C   0  0  0  0  0  0  0  0  0  0  0  0
   60.7150   28.8510   49.2260 C   0  0  0  0  0  0  0  0  0  0  0  0
   60.1350   29.8900   48.4900 C   0  0  0  0  0  0  0  0  0  0  0  0
   59.2250   30.7710   49.1100 C   0  0  0  0  0  0  0  0  0  0  0  0
   58.8850   30.5540   50.4600 C   0  0  0  0  0  0  0  0  0  0  0  0
   58.7450   32.0080   48.4430 C   0  0  0  0  0  0  0  0  0  0  0  0
   58.5410   33.0170   49.1740 O   0  0  0  0  0  0  0  0  0  0  0  0
   58.5190   32.1200   47.0170 N   0  0  0  0  0  0  0  0  0  0  0  0
   58.3300   33.4630   46.4360 C   0  0  0  0  0  0  0  0  0  0  0  0
   59.5500   34.3650   46.6870 C   0  0  0  0  0  0  0  0  0  0  0  0
   60.8530   33.6620   46.2740 C   0  0  0  0  0  0  0  0  0  0  0  0
   61.9670   33.9990   47.1890 N   0  0  0  0  0  0  0  0  0  0  0  0
   61.4760   34.2370   48.5710 C   0  0  0  0  0  0  0  0  0  0  0  0
   61.6640   33.0060   49.4690 C   0  0  0  0  0  0  0  0  0  0  0  0
   63.0960   32.6560   49.6070 N   0  0  0  0  0  0  0  0  0  0  0  0
   63.2440   31.2450   49.9960 C   0  0  0  0  0  0  0  0  0  0  0  0
   63.9020   32.9730   48.4030 C   0  0  0  0  0  0  0  0  0  0  0  0
   63.0540   32.9890   47.1210 C   0  0  0  0  0  0  0  0  0  0  0  0
   58.4740   30.9740   46.1370 C   0  0  0  0  0  0  0  0  0  0  0  0
   57.4800   30.8850   45.1400 C   0  0  0  0  0  0  0  0  0  0  0  0
   57.5170   29.8670   44.1810 C   0  0  0  0  0  0  0  0  0  0  0  0
   56.2710   29.7770   42.9480 Cl  0  0  0  0  0  0  0  0  0  0  0  0
   58.5560   28.9380   44.1920 C   0  0  0  0  0  0  0  0  0  0  0  0
   59.5450   29.0120   45.1730 C   0  0  0  0  0  0  0  0  0  0  0  0
   59.4970   30.0080   46.1550 C   0  0  0  0  0  0  0  0  0  0  0  0
   60.4740   30.0020   47.1450 O   0  0  0  0  0  0  0  0  0  0  0  0
   59.7982   29.7036   53.2868 H   0  0  0  0  0  0  0  0  0  0  0  0
   58.0697   29.7202   52.7983 H   0  0  0  0  0  0  0  0  0  0  0  0
   58.9883   28.1765   52.7983 H   0  0  0  0  0  0  0  0  0  0  0  0
   60.8174   27.8136   51.1225 H   0  0  0  0  0  0  0  0  0  0  0  0
   61.4506   28.1885   48.7463 H   0  0  0  0  0  0  0  0  0  0  0  0
   58.1609   31.2213   50.9503 H   0  0  0  0  0  0  0  0  0  0  0  0
   58.1761   33.3643   45.3513 H   0  0  0  0  0  0  0  0  0  0  0  0
   57.4553   33.9258   46.9163 H   0  0  0  0  0  0  0  0  0  0  0  0
   59.4396   35.2896   46.1014 H   0  0  0  0  0  0  0  0  0  0  0  0
   59.6013   34.5917   47.7622 H   0  0  0  0  0  0  0  0  0  0  0  0
   60.6929   32.5739   46.2920 H   0  0  0  0  0  0  0  0  0  0  0  0
   61.1225   34.0025   45.2633 H   0  0  0  0  0  0  0  0  0  0  0  0
   62.0321   35.0811   49.0048 H   0  0  0  0  0  0  0  0  0  0  0  0
   60.3994   34.4556   48.5158 H   0  0  0  0  0  0  0  0  0  0  0  0
   61.2501   33.2222   50.4650 H   0  0  0  0  0  0  0  0  0  0  0  0
   61.1411   32.1555   49.0072 H   0  0  0  0  0  0  0  0  0  0  0  0
   63.2523   31.1661   51.0931 H   0  0  0  0  0  0  0  0  0  0  0  0
   62.4019   30.6633   49.5929 H   0  0  0  0  0  0  0  0  0  0  0  0
   64.1884   30.8506   49.5929 H   0  0  0  0  0  0  0  0  0  0  0  0
   64.3615   33.9636   48.5356 H   0  0  0  0  0  0  0  0  0  0  0  0
   64.6646   32.1881   48.2923 H   0  0  0  0  0  0  0  0  0  0  0  0
   63.7055   33.2245   46.2665 H   0  0  0  0  0  0  0  0  0  0  0  0
   62.5917   31.9976   47.0055 H   0  0  0  0  0  0  0  0  0  0  0  0
   56.6662   31.6247   45.1163 H   0  0  0  0  0  0  0  0  0  0  0  0
   58.5961   28.1475   43.4281 H   0  0  0  0  0  0  0  0  0  0  0  0
   60.3683   28.2825   45.1747 H   0  0  0  0  0  0  0  0  0  0  0  0
  1  2  1  0
  2  3  2  0
  3  4  1  0
  4  5  2  0
  5  6  1  0
  6  7  2  0
  6  8  1  0
  8  9  2  0
  8 10  1  0
 10 11  1  0
 11 12  1  0
 12 13  1  0
 13 14  1  0
 14 15  1  0
 15 16  1  0
 16 17  1  0
 17 18  1  0
 17 19  1  0
 19 20  1  0
 10 21  1  0
 21 22  2  0
 22 23  1  0
 23 24  1  0
 23 25  2  0
 25 26  1  0
 26 27  2  0
 27 28  1  0
  7  2  1  0
 20 14  1  0
 27 21  1  0
 28  5  1  0
  1 29  1  0
  1 30  1  0
  1 31  1  0
  3 32  1  0
  4 33  1  0
  7 34  1  0
 11 35  1  0
 11 36  1  0
 12 37  1  0
 12 38  1  0
 13 39  1  0
 13 40  1  0
 15 41  1  0
 15 42  1  0
 16 43  1  0
 16 44  1  0
 18 45  1  0
 18 46  1  0
 18 47  1  0
 19 48  1  0
 19 49  1  0
 20 50  1  0
 20 51  1  0
 22 52  1  0
 25 53  1  0
 26 54  1  0
M  END
>  <UniqueID>  (42) 
40

>  <SMILES>  (42) 
Cc1ccc2c(c1)C(=O)N(CCCN1CCN(C)CC1)c1cc(Cl)ccc1O2

>  <Energy>  (42) 
92.32883249601915

>  <Genealogy>  (42) 
Cc1ccc2c(c1)C(=O)N(CCCN1CCN(C)CC1)c1cc(Cl)ccc1O2 (3D coordinates assigned)
Cc1ccc2c(c1)C(=O)N(CCCN1CCN(C)CC1)c1cc(Cl)ccc1O2 (nonaromatic ring conformer: 92.32883249601915 kcal/mol)

>  <smiles>  (42) 
Cc1ccc2c(c1)C(=O)N(CCCN1CCN(C)CC1)c1cc(Cl)ccc1O2

>  <score_type>  (42) 
oracle

>  <origin>  (42) 
adg

>  <m_score__min__energy>  (42) 
-8.1699999999999999

>  <m_primary>  (42) 
energy

$$$$
42:0
     RDKit          3D

 54 57  0  0  0  0  0  0  0  0999 V2000
   57.0760   31.2180   42.8030 C   0  0  0  0  0  0  0  0  0  0  0  0
   57.0360   31.1360   44.3000 C   0  0  0  0  0  0  0  0  0  0  0  0
   55.9860   30.7000   44.8470 O   0  0  0  0  0  0  0  0  0  0  0  0
   58.1910   31.5500   45.1420 C   0  0  0  0  0  0  0  0  0  0  0  0
   59.0770   30.5820   45.6480 C   0  0  0  0  0  0  0  0  0  0  0  0
   60.1650   30.9560   46.4410 C   0  0  0  0  0  0  0  0  0  0  0  0
   60.3920   32.3070   46.7510 C   0  0  0  0  0  0  0  0  0  0  0  0
   61.5160   32.7000   47.5570 N   0  0  0  0  0  0  0  0  0  0  0  0
   61.5780   32.5420   49.0030 C   0  0  0  0  0  0  0  0  0  0  0  0
   62.9950   33.0400   49.4280 C   0  0  2  0  0  0  0  0  0  0  0  0
   63.9760   31.8250   49.5220 C   0  0  0  0  0  0  0  0  0  0  0  0
   64.0240   31.2480   50.9460 C   0  0  0  0  0  0  0  0  0  0  0  0
   64.4760   32.2440   51.9550 N   0  0  1  0  0  0  0  0  0  0  0  0
   66.1620   32.0160   52.3680 S   0  0  0  0  0  0  0  0  0  0  0  0
   66.6490   30.7230   51.7750 O   0  0  0  0  0  0  0  0  0  0  0  0
   66.3050   31.9250   53.8620 O   0  0  0  0  0  0  0  0  0  0  0  0
   67.1680   33.3390   51.7710 C   0  0  0  0  0  0  0  0  0  0  0  0
   67.8900   33.1960   50.5760 C   0  0  0  0  0  0  0  0  0  0  0  0
   68.7030   34.2360   50.1170 C   0  0  0  0  0  0  0  0  0  0  0  0
   68.7970   35.4250   50.8450 C   0  0  0  0  0  0  0  0  0  0  0  0
   68.0740   35.5760   52.0310 C   0  0  0  0  0  0  0  0  0  0  0  0
   67.2590   34.5390   52.4930 C   0  0  0  0  0  0  0  0  0  0  0  0
   64.2320   33.6550   51.5680 C   0  0  0  0  0  0  0  0  0  0  0  0
   62.9210   33.7990   50.7880 C   0  0  0  0  0  0  0  0  0  0  0  0
   63.4380   33.9770   48.2650 C   0  0  0  0  0  0  0  0  0  0  0  0
   62.5880   33.5310   47.1430 C   0  0  0  0  0  0  0  0  0  0  0  0
   62.8010   33.8420   45.9410 O   0  0  0  0  0  0  0  0  0  0  0  0
   59.5170   33.2760   46.2410 C   0  0  0  0  0  0  0  0  0  0  0  0
   58.4270   32.9040   45.4480 C   0  0  0  0  0  0  0  0  0  0  0  0
   57.5396   32.1684   42.5001 H   0  0  0  0  0  0  0  0  0  0  0  0
   57.6661   30.3791   42.4055 H   0  0  0  0  0  0  0  0  0  0  0  0
   56.0516   31.1666   42.4055 H   0  0  0  0  0  0  0  0  0  0  0  0
   58.9117   29.5193   45.4170 H   0  0  0  0  0  0  0  0  0  0  0  0
   60.8496   30.1858   46.8258 H   0  0  0  0  0  0  0  0  0  0  0  0
   60.7983   33.1479   49.4878 H   0  0  0  0  0  0  0  0  0  0  0  0
   61.4109   31.4968   49.3024 H   0  0  0  0  0  0  0  0  0  0  0  0
   63.6395   31.0396   48.8293 H   0  0  0  0  0  0  0  0  0  0  0  0
   64.9848   32.1749   49.2574 H   0  0  0  0  0  0  0  0  0  0  0  0
   63.0162   30.9025   51.2197 H   0  0  0  0  0  0  0  0  0  0  0  0
   64.7512   30.4227   50.9454 H   0  0  0  0  0  0  0  0  0  0  0  0
   63.9380   32.0630   52.8360 H   0  0  0  0  0  0  0  0  0  0  0  0
   67.8158   32.2625   49.9989 H   0  0  0  0  0  0  0  0  0  0  0  0
   69.2696   34.1184   49.1815 H   0  0  0  0  0  0  0  0  0  0  0  0
   69.4398   36.2416   50.4846 H   0  0  0  0  0  0  0  0  0  0  0  0
   68.1464   36.5132   52.6023 H   0  0  0  0  0  0  0  0  0  0  0  0
   66.6876   34.6636   53.4246 H   0  0  0  0  0  0  0  0  0  0  0  0
   64.1777   34.2718   52.4772 H   0  0  0  0  0  0  0  0  0  0  0  0
   65.0587   33.9861   50.9222 H   0  0  0  0  0  0  0  0  0  0  0  0
   62.0978   33.3834   51.3878 H   0  0  0  0  0  0  0  0  0  0  0  0
   62.7487   34.8663   50.5853 H   0  0  0  0  0  0  0  0  0  0  0  0
   63.2471   35.0319   48.5116 H   0  0  0  0  0  0  0  0  0  0  0  0
   64.5143   33.9193   48.0454 H   0  0  0  0  0  0  0  0  0  0  0  0
   59.6893   34.3387   46.4666 H   0  0  0  0  0  0  0  0  0  0  0  0
   57.7473   33.6767   45.0595 H   0  0  0  0  0  0  0  0  0  0  0  0
  1  2  1  0
  2  3  2  0
  2  4  1  0
  4  5  2  0
  5  6  1  0
  6  7  2  0
  7  8  1  0
  8  9  1  0
 10  9  1  6
 10 11  1  0
 11 12  1  0
 12 13  1  0
 13 14  1  0
 14 15  2  0
 14 16  2  0
 14 17  1  0
 17 18  2  0
 18 19  1  0
 19 20  2  0
 20 21  1  0
 21 22  2  0
 13 23  1  0
 23 24  1  0
 10 25  1  0
 25 26  1  0
 26 27  2  0
  7 28  1  0
 28 29  2  0
 29  4  1  0
 26  8  1  0
 24 10  1  0
 22 17  1  0
  1 30  1  0
  1 31  1  0
  1 32  1  0
  5 33  1  0
  6 34  1  0
  9 35  1  0
  9 36  1  0
 11 37  1  0
 11 38  1  0
 12 39  1  0
 12 40  1  0
 13 41  1  1
 18 42  1  0
 19 43  1  0
 20 44  1  0
 21 45  1  0
 22 46  1  0
 23 47  1  0
 23 48  1  0
 24 49  1  0
 24 50  1  0
 25 51  1  0
 25 52  1  0
 28 53  1  0
 29 54  1  0
M  CHG  1  13   1
M  END
>  <UniqueID>  (43) 
41

>  <SMILES>  (43) 
CC(=O)c1ccc(N2CC3(CC[NH+](S(=O)(=O)c4ccccc4)CC3)CC2=O)cc1

>  <Energy>  (43) 
78.75675279808655

>  <Genealogy>  (43) 
CC(=O)c1ccc(N2CC3(CC[NH+](S(=O)(=O)c4ccccc4)CC3)CC2=O)cc1 (protonated)
CC(=O)c1ccc(N2CC3(CC[NH+](S(=O)(=O)c4ccccc4)CC3)CC2=O)cc1 (3D coordinates assigned)
CC(=O)c1ccc(N2CC3(CC[NH+](S(=O)(=O)c4ccccc4)CC3)CC2=O)cc1 (nonaromatic ring conformer: 78.75675279808655 kcal/mol)

>  <smiles>  (43) 
CC(=O)c1ccc(N2CC3(CCN(S(=O)(=O)c4ccccc4)CC3)CC2=O)cc1

>  <score_type>  (43) 
oracle

>  <origin>  (43) 
adg

>  <m_score__min__energy>  (43) 
-7.8600000000000003

>  <m_primary>  (43) 
energy

$$$$
43:0
     RDKit          3D

 41 43  0  0  0  0  0  0  0  0999 V2000
   54.5610   25.3700   45.6240 C   0  0  0  0  0  0  0  0  0  0  0  0
   55.1690   26.6110   45.9680 O   0  0  0  0  0  0  0  0  0  0  0  0
   56.5290   26.7840   46.2820 C   0  0  0  0  0  0  0  0  0  0  0  0
   57.2380   25.7840   46.9720 C   0  0  0  0  0  0  0  0  0  0  0  0
   58.5790   25.9560   47.2940 C   0  0  0  0  0  0  0  0  0  0  0  0
   59.2450   27.1200   46.9260 C   0  0  0  0  0  0  0  0  0  0  0  0
   58.5750   28.1390   46.2180 C   0  0  0  0  0  0  0  0  0  0  0  0
   59.2530   29.3050   45.8010 C   0  0  0  0  0  0  0  0  0  0  0  0
   60.6860   29.5170   46.1120 C   0  0  0  0  0  0  0  0  0  0  0  0
   61.1480   30.0050   47.2310 N   0  0  0  0  0  0  0  0  0  0  0  0
   61.5130   31.3760   47.6230 C   0  0  2  0  0  0  0  0  0  0  0  0
   60.5340   32.4540   47.1270 C   0  0  0  0  0  0  0  0  0  0  0  0
   61.1660   33.8150   47.4170 C   0  0  0  0  0  0  0  0  0  0  0  0
   62.9120   33.5500   47.2880 S   0  0  0  0  0  0  0  0  0  0  0  0
   63.4690   34.1440   46.0250 O   0  0  0  0  0  0  0  0  0  0  0  0
   63.6410   34.0780   48.4910 O   0  0  0  0  0  0  0  0  0  0  0  0
   62.9340   31.7820   47.2360 C   0  0  0  0  0  0  0  0  0  0  0  0
   58.5180   30.3560   45.2290 C   0  0  0  0  0  0  0  0  0  0  0  0
   59.1050   31.4420   44.9590 O   0  0  0  0  0  0  0  0  0  0  0  0
   57.1820   30.2110   44.9600 N   0  0  0  0  0  0  0  0  0  0  0  0
   56.4460   31.2950   44.2870 C   0  0  0  0  0  0  0  0  0  0  0  0
   56.5310   29.0370   45.2420 C   0  0  0  0  0  0  0  0  0  0  0  0
   55.1940   28.8960   44.8710 O   0  0  0  0  0  0  0  0  0  0  0  0
   57.1980   27.9820   45.9080 C   0  0  0  0  0  0  0  0  0  0  0  0
   54.2942   24.8255   46.5418 H   0  0  0  0  0  0  0  0  0  0  0  0
   53.6530   25.5581   45.0322 H   0  0  0  0  0  0  0  0  0  0  0  0
   55.2661   24.7678   45.0322 H   0  0  0  0  0  0  0  0  0  0  0  0
   56.7249   24.8547   47.2602 H   0  0  0  0  0  0  0  0  0  0  0  0
   59.1159   25.1679   47.8423 H   0  0  0  0  0  0  0  0  0  0  0  0
   60.3053   27.2471   47.1899 H   0  0  0  0  0  0  0  0  0  0  0  0
   61.4184   29.2414   45.3389 H   0  0  0  0  0  0  0  0  0  0  0  0
   61.4533   31.3303   48.7204 H   0  0  0  0  0  0  0  0  0  0  0  0
   60.3661   32.3403   46.0459 H   0  0  0  0  0  0  0  0  0  0  0  0
   59.5634   32.3605   47.6362 H   0  0  0  0  0  0  0  0  0  0  0  0
   60.8330   34.5603   46.6797 H   0  0  0  0  0  0  0  0  0  0  0  0
   60.8797   34.1998   48.4069 H   0  0  0  0  0  0  0  0  0  0  0  0
   63.1798   31.4248   46.2251 H   0  0  0  0  0  0  0  0  0  0  0  0
   63.6919   31.3509   47.9066 H   0  0  0  0  0  0  0  0  0  0  0  0
   55.9966   31.9569   45.0420 H   0  0  0  0  0  0  0  0  0  0  0  0
   57.1389   31.8733   43.6582 H   0  0  0  0  0  0  0  0  0  0  0  0
   55.6528   30.8643   43.6582 H   0  0  0  0  0  0  0  0  0  0  0  0
  1  2  1  0
  2  3  1  0
  3  4  2  0
  4  5  1  0
  5  6  2  0
  6  7  1  0
  7  8  2  0
  8  9  1  0
  9 10  2  3
 10 11  1  0
 11 12  1  0
 12 13  1  0
 13 14  1  0
 14 15  2  0
 14 16  2  0
 14 17  1  0
  8 18  1  0
 18 19  2  0
 18 20  1  0
 20 21  1  0
 20 22  1  0
 22 23  1  0
 22 24  2  0
 24  3  1  0
 24  7  1  0
 17 11  1  0
  1 25  1  0
  1 26  1  0
  1 27  1  0
  4 28  1  0
  5 29  1  0
  6 30  1  0
  9 31  1  0
 11 32  1  1
 12 33  1  0
 12 34  1  0
 13 35  1  0
 13 36  1  0
 17 37  1  0
 17 38  1  0
 21 39  1  0
 21 40  1  0
 21 41  1  0
M  CHG  1  23  -1
M  END
>  <UniqueID>  (44) 
42

>  <SMILES>  (44) 
COc1cccc2c(C=N[C@@H]3CCS(=O)(=O)C3)c(=O)n(C)c([O-])c12

>  <Energy>  (44) 
65.83641837099498

>  <Genealogy>  (44) 
COc1cccc2c(C=NC3CCS(=O)(=O)C3)c(=O)n(C)c([O-])c12 (protonated)
COc1cccc2c(C=N[C@@H]3CCS(=O)(=O)C3)c(=O)n(C)c([O-])c12 (chirality)
COc1cccc2c(C=N[C@@H]3CCS(=O)(=O)C3)c(=O)n(C)c([O-])c12 (3D coordinates assigned)
COc1cccc2c(C=N[C@@H]3CCS(=O)(=O)C3)c(=O)n(C)c([O-])c12 (nonaromatic ring conformer: 65.83641837099498 kcal/mol)

>  <smiles>  (44) 
COc1cccc2c(C=NC3CCS(=O)(=O)C3)c(=O)n(C)c(O)c12

>  <score_type>  (44) 
oracle

>  <origin>  (44) 
adg

>  <m_score__min__energy>  (44) 
-11.49

>  <m_primary>  (44) 
energy

$$$$
44:0
     RDKit          3D

 46 46  0  0  0  0  0  0  0  0999 V2000
   65.0180   32.9420   49.7240 C   0  0  0  0  0  0  0  0  0  0  0  0
   63.8390   31.9910   49.5400 C   0  0  0  0  0  0  0  0  0  0  0  0
   62.9470   32.4910   48.4640 N   0  0  0  0  0  0  0  0  0  0  0  0
   63.6090   32.5260   47.1410 C   0  0  0  0  0  0  0  0  0  0  0  0
   63.3970   33.8420   46.3780 C   0  0  0  0  0  0  0  0  0  0  0  0
   61.6400   31.7980   48.4210 C   0  0  0  0  0  0  0  0  0  0  0  0
   60.5590   32.7360   47.9400 C   0  0  0  0  0  0  0  0  0  0  0  0
   59.5840   32.2540   47.0530 C   0  0  0  0  0  0  0  0  0  0  0  0
   58.6020   33.1060   46.5290 C   0  0  0  0  0  0  0  0  0  0  0  0
   57.6380   32.5790   45.5990 N   0  0  0  0  0  0  0  0  0  0  0  0
   57.8230   32.5590   44.1450 C   0  0  0  0  0  0  0  0  0  0  0  0
   57.3850   31.2120   43.5560 C   0  0  0  0  0  0  0  0  0  0  0  0
   56.6020   30.4300   44.5390 N   0  0  0  0  0  0  0  0  0  0  0  0
   55.4890   29.7310   43.8770 C   0  0  0  0  0  0  0  0  0  0  0  0
   57.4530   29.4530   45.2380 C   0  0  0  0  0  0  0  0  0  0  0  0
   58.5810   34.4520   46.9320 C   0  0  0  0  0  0  0  0  0  0  0  0
   59.5430   34.9390   47.8190 C   0  0  0  0  0  0  0  0  0  0  0  0
   60.5380   34.0920   48.3220 C   0  0  0  0  0  0  0  0  0  0  0  0
   61.5010   34.5960   49.1980 O   0  0  0  0  0  0  0  0  0  0  0  0
   65.2040   33.0920   50.7977 H   0  0  0  0  0  0  0  0  0  0  0  0
   65.9139   32.5107   49.2535 H   0  0  0  0  0  0  0  0  0  0  0  0
   64.7861   33.9089   49.2535 H   0  0  0  0  0  0  0  0  0  0  0  0
   64.2145   30.9935   49.2678 H   0  0  0  0  0  0  0  0  0  0  0  0
   63.2722   31.9321   50.4809 H   0  0  0  0  0  0  0  0  0  0  0  0
   64.6893   32.3810   47.2895 H   0  0  0  0  0  0  0  0  0  0  0  0
   63.1572   31.7271   46.5347 H   0  0  0  0  0  0  0  0  0  0  0  0
   63.2644   34.6648   47.0959 H   0  0  0  0  0  0  0  0  0  0  0  0
   64.2741   34.0447   45.7458 H   0  0  0  0  0  0  0  0  0  0  0  0
   62.5006   33.7590   45.7458 H   0  0  0  0  0  0  0  0  0  0  0  0
   61.7072   30.9410   47.7347 H   0  0  0  0  0  0  0  0  0  0  0  0
   61.3867   31.4536   49.4345 H   0  0  0  0  0  0  0  0  0  0  0  0
   59.5905   31.1924   46.7649 H   0  0  0  0  0  0  0  0  0  0  0  0
   56.8290   32.0390   45.9800 H   0  0  0  0  0  0  0  0  0  0  0  0
   57.2212   33.3619   43.6943 H   0  0  0  0  0  0  0  0  0  0  0  0
   58.8902   32.7087   43.9244 H   0  0  0  0  0  0  0  0  0  0  0  0
   56.7650   31.3937   42.6657 H   0  0  0  0  0  0  0  0  0  0  0  0
   58.2848   30.6379   43.2898 H   0  0  0  0  0  0  0  0  0  0  0  0
   54.8166   29.3087   44.6383 H   0  0  0  0  0  0  0  0  0  0  0  0
   54.9315   30.4415   43.2489 H   0  0  0  0  0  0  0  0  0  0  0  0
   55.8869   28.9203   43.2489 H   0  0  0  0  0  0  0  0  0  0  0  0
   57.3415   29.5810   46.3248 H   0  0  0  0  0  0  0  0  0  0  0  0
   57.1494   28.4341   44.9557 H   0  0  0  0  0  0  0  0  0  0  0  0
   58.5039   29.6139   44.9557 H   0  0  0  0  0  0  0  0  0  0  0  0
   57.8020   35.1260   46.5463 H   0  0  0  0  0  0  0  0  0  0  0  0
   59.5190   35.9954   48.1248 H   0  0  0  0  0  0  0  0  0  0  0  0
   62.3280   34.0640   49.4420 H   0  0  0  0  0  0  0  0  0  0  0  0
  1  2  1  0
  2  3  1  0
  3  4  1  0
  4  5  1  0
  3  6  1  0
  6  7  1  0
  7  8  2  0
  8  9  1  0
  9 10  1  0
 10 11  1  0
 11 12  1  0
 12 13  1  0
 13 14  1  0
 13 15  1  0
  9 16  2  0
 16 17  1  0
 17 18  2  0
 18 19  1  0
 18  7  1  0
  1 20  1  0
  1 21  1  0
  1 22  1  0
  2 23  1  0
  2 24  1  0
  4 25  1  0
  4 26  1  0
  5 27  1  0
  5 28  1  0
  5 29  1  0
  6 30  1  0
  6 31  1  0
  8 32  1  0
 10 33  1  0
 11 34  1  0
 11 35  1  0
 12 36  1  0
 12 37  1  0
 14 38  1  0
 14 39  1  0
 14 40  1  0
 15 41  1  0
 15 42  1  0
 15 43  1  0
 16 44  1  0
 17 45  1  0
 19 46  1  0
M  END
>  <UniqueID>  (45) 
43

>  <SMILES>  (45) 
CCN(CC)Cc1cc(NCCN(C)C)ccc1O

>  <Energy>  (45) 
41.69566958707551

>  <Genealogy>  (45) 
CCN(CC)Cc1cc(NCCN(C)C)ccc1O (3D coordinates assigned)
CCN(CC)Cc1cc(NCCN(C)C)ccc1O (optimized conformer: 41.69566958707551 kcal/mol)

>  <smiles>  (45) 
CCN(CC)Cc1cc(NCCN(C)C)ccc1O

>  <score_type>  (45) 
oracle

>  <origin>  (45) 
adg

>  <m_score__min__energy>  (45) 
-5.6500000000000004

>  <m_primary>  (45) 
energy

$$$$
45:0
     RDKit          3D

 43 45  0  0  0  0  0  0  0  0999 V2000
   59.2670   35.3110   44.9000 C   0  0  0  0  0  0  0  0  0  0  0  0
   59.4080   34.4420   46.1110 C   0  0  0  0  0  0  0  0  0  0  0  0
   60.3620   34.6340   47.0430 N   0  0  0  0  0  0  0  0  0  0  0  0
   60.2040   33.6890   47.9590 N   0  0  0  0  0  0  0  0  0  0  0  0
   59.1660   32.9300   47.5640 C   0  0  0  0  0  0  0  0  0  0  0  0
   58.5370   31.5510   48.5270 S   0  0  0  0  0  0  0  0  0  0  0  0
   60.0630   30.5670   48.3750 C   0  0  0  0  0  0  0  0  0  0  0  0
   59.7910   29.3430   47.5590 C   0  0  0  0  0  0  0  0  0  0  0  0
   60.6780   28.4520   47.4650 O   0  0  0  0  0  0  0  0  0  0  0  0
   58.5500   29.2250   46.8460 N   0  0  0  0  0  0  0  0  0  0  0  0
   58.1540   28.0660   46.0960 C   0  0  0  0  0  0  0  0  0  0  0  0
   57.3940   27.0670   46.7250 C   0  0  0  0  0  0  0  0  0  0  0  0
   57.0150   25.9180   46.0240 C   0  0  0  0  0  0  0  0  0  0  0  0
   57.4050   25.7490   44.6920 C   0  0  0  0  0  0  0  0  0  0  0  0
   56.8900   24.1780   43.7370 Br  0  0  0  0  0  0  0  0  0  0  0  0
   58.1820   26.7270   44.0630 C   0  0  0  0  0  0  0  0  0  0  0  0
   58.5610   27.8780   44.7620 C   0  0  0  0  0  0  0  0  0  0  0  0
   58.6440   33.3660   46.3990 N   0  0  0  0  0  0  0  0  0  0  0  0
   57.4790   32.8450   45.6720 C   0  0  0  0  0  0  0  0  0  0  0  0
   57.8030   31.5180   44.9650 C   0  0  2  0  0  0  0  0  0  0  0  0
   58.1210   31.7350   43.4840 C   0  0  0  0  0  0  0  0  0  0  0  0
   56.9920   31.0540   42.7710 C   0  0  0  0  0  0  0  0  0  0  0  0
   56.4750   30.0860   43.8080 C   0  0  0  0  0  0  0  0  0  0  0  0
   56.7090   30.6340   45.0810 O   0  0  0  0  0  0  0  0  0  0  0  0
   59.0981   36.3518   45.2133 H   0  0  0  0  0  0  0  0  0  0  0  0
   60.1862   35.2537   44.2985 H   0  0  0  0  0  0  0  0  0  0  0  0
   58.4131   34.9660   44.2985 H   0  0  0  0  0  0  0  0  0  0  0  0
   60.8401   31.1701   47.8827 H   0  0  0  0  0  0  0  0  0  0  0  0
   60.4075   30.2696   49.3765 H   0  0  0  0  0  0  0  0  0  0  0  0
   57.9380   30.0700   46.7960 H   0  0  0  0  0  0  0  0  0  0  0  0
   57.0947   27.1890   47.7764 H   0  0  0  0  0  0  0  0  0  0  0  0
   56.4092   25.1461   46.5211 H   0  0  0  0  0  0  0  0  0  0  0  0
   58.4955   26.5910   43.0174 H   0  0  0  0  0  0  0  0  0  0  0  0
   59.1804   28.6401   44.2664 H   0  0  0  0  0  0  0  0  0  0  0  0
   56.6578   32.6790   46.3848 H   0  0  0  0  0  0  0  0  0  0  0  0
   57.1912   33.5820   44.9077 H   0  0  0  0  0  0  0  0  0  0  0  0
   58.6905   31.0866   45.4509 H   0  0  0  0  0  0  0  0  0  0  0  0
   58.1467   32.8078   43.2420 H   0  0  0  0  0  0  0  0  0  0  0  0
   59.1058   31.3369   43.1981 H   0  0  0  0  0  0  0  0  0  0  0  0
   56.2144   31.7758   42.4805 H   0  0  0  0  0  0  0  0  0  0  0  0
   57.3005   30.5651   41.8352 H   0  0  0  0  0  0  0  0  0  0  0  0
   55.3959   29.9283   43.6639 H   0  0  0  0  0  0  0  0  0  0  0  0
   56.9896   29.1185   43.7122 H   0  0  0  0  0  0  0  0  0  0  0  0
  1  2  1  0
  2  3  2  0
  3  4  1  0
  4  5  2  0
  5  6  1  0
  6  7  1  0
  7  8  1  0
  8  9  2  0
  8 10  1  0
 10 11  1  0
 11 12  2  0
 12 13  1  0
 13 14  2  0
 14 15  1  0
 14 16  1  0
 16 17  2  0
  5 18  1  0
 18 19  1  0
 19 20  1  0
 20 21  1  0
 21 22  1  0
 22 23  1  0
 23 24  1  0
 18  2  1  0
 24 20  1  0
 17 11  1  0
  1 25  1  0
  1 26  1  0
  1 27  1  0
  7 28  1  0
  7 29  1  0
 10 30  1  0
 12 31  1  0
 13 32  1  0
 16 33  1  0
 17 34  1  0
 19 35  1  0
 19 36  1  0
 20 37  1  1
 21 38  1  0
 21 39  1  0
 22 40  1  0
 22 41  1  0
 23 42  1  0
 23 43  1  0
M  END
>  <UniqueID>  (46) 
44

>  <SMILES>  (46) 
Cc1nnc(SCC(=O)Nc2ccc(Br)cc2)n1C[C@@H]1CCCO1

>  <Energy>  (46) 
72.26508578768807

>  <Genealogy>  (46) 
Cc1nnc(SCC(=O)Nc2ccc(Br)cc2)n1C[C@@H]1CCCO1 (chirality)
Cc1nnc(SCC(=O)Nc2ccc(Br)cc2)n1C[C@@H]1CCCO1 (3D coordinates assigned)
Cc1nnc(SCC(=O)Nc2ccc(Br)cc2)n1C[C@@H]1CCCO1 (nonaromatic ring conformer: 72.26508578768807 kcal/mol)

>  <smiles>  (46) 
Cc1nnc(SCC(=O)Nc2ccc(Br)cc2)n1CC1CCCO1

>  <score_type>  (46) 
oracle

>  <origin>  (46) 
adg

>  <m_score__min__energy>  (46) 
-8.1300000000000008

>  <m_primary>  (46) 
energy

$$$$
46:0
     RDKit          3D

 41 42  0  0  0  0  0  0  0  0999 V2000
   60.6380   33.8510   48.8190 C   0  0  0  0  0  0  0  0  0  0  0  0
   60.1290   33.5960   47.4600 N   0  0  0  0  0  0  0  0  0  0  0  0
   61.1770   33.8350   46.4520 C   0  0  0  0  0  0  0  0  0  0  0  0
   58.8780   34.3370   47.1690 C   0  0  0  0  0  0  0  0  0  0  0  0
   57.6770   33.4460   46.7850 C   0  0  0  0  0  0  0  0  0  0  0  0
   57.9990   32.6600   45.5860 N   0  0  0  0  0  0  0  0  0  0  0  0
   57.6610   33.2380   44.2720 C   0  0  0  0  0  0  0  0  0  0  0  0
   57.9360   32.3000   43.0840 C   0  0  0  0  0  0  0  0  0  0  0  0
   57.7620   30.8160   43.4410 C   0  0  2  0  0  0  0  0  0  0  0  0
   56.2870   30.4660   43.7990 C   0  0  0  0  0  0  0  0  0  0  0  0
   56.1580   29.3470   44.8440 C   0  0  0  0  0  0  0  0  0  0  0  0
   57.2690   28.3120   44.6850 C   0  0  0  0  0  0  0  0  0  0  0  0
   58.6590   28.9290   44.9270 C   0  0  0  0  0  0  0  0  0  0  0  0
   58.7680   30.4350   44.5460 C   0  0  2  0  0  0  0  0  0  0  0  0
   58.6270   31.3660   45.7290 C   0  0  0  0  0  0  0  0  0  0  0  0
   59.1350   31.0400   46.8380 O   0  0  0  0  0  0  0  0  0  0  0  0
   59.9094   33.4860   49.5579 H   0  0  0  0  0  0  0  0  0  0  0  0
   61.5946   33.3257   48.9568 H   0  0  0  0  0  0  0  0  0  0  0  0
   60.7900   34.9317   48.9568 H   0  0  0  0  0  0  0  0  0  0  0  0
   59.8880   32.5760   47.4120 H   0  0  0  0  0  0  0  0  0  0  0  0
   62.1294   34.0522   46.9577 H   0  0  0  0  0  0  0  0  0  0  0  0
   61.2916   32.9399   45.8229 H   0  0  0  0  0  0  0  0  0  0  0  0
   60.8922   34.6913   45.8229 H   0  0  0  0  0  0  0  0  0  0  0  0
   58.6046   34.9137   48.0649 H   0  0  0  0  0  0  0  0  0  0  0  0
   59.0876   34.9709   46.2948 H   0  0  0  0  0  0  0  0  0  0  0  0
   57.4482   32.7641   47.6173 H   0  0  0  0  0  0  0  0  0  0  0  0
   56.8057   34.0840   46.5759 H   0  0  0  0  0  0  0  0  0  0  0  0
   56.5907   33.4919   44.2712 H   0  0  0  0  0  0  0  0  0  0  0  0
   58.3064   34.1185   44.1371 H   0  0  0  0  0  0  0  0  0  0  0  0
   57.2383   32.5495   42.2710 H   0  0  0  0  0  0  0  0  0  0  0  0
   58.9840   32.4465   42.7836 H   0  0  0  0  0  0  0  0  0  0  0  0
   57.9869   30.2031   42.5557 H   0  0  0  0  0  0  0  0  0  0  0  0
   55.8012   31.3699   44.1952 H   0  0  0  0  0  0  0  0  0  0  0  0
   55.8079   30.1042   42.8773 H   0  0  0  0  0  0  0  0  0  0  0  0
   56.2190   29.7871   45.8503 H   0  0  0  0  0  0  0  0  0  0  0  0
   55.1904   28.8444   44.6984 H   0  0  0  0  0  0  0  0  0  0  0  0
   57.1075   27.5010   45.4103 H   0  0  0  0  0  0  0  0  0  0  0  0
   57.2375   27.9298   43.6540 H   0  0  0  0  0  0  0  0  0  0  0  0
   58.9003   28.8258   45.9952 H   0  0  0  0  0  0  0  0  0  0  0  0
   59.3610   28.3881   44.2754 H   0  0  0  0  0  0  0  0  0  0  0  0
   59.7887   30.5655   44.1574 H   0  0  0  0  0  0  0  0  0  0  0  0
  1  2  1  0
  2  3  1  0
  2  4  1  0
  4  5  1  0
  5  6  1  0
  6  7  1  0
  7  8  1  0
  8  9  1  0
  9 10  1  0
 10 11  1  0
 11 12  1  0
 12 13  1  0
 13 14  1  0
 14 15  1  0
 15 16  2  0
 15  6  1  0
 14  9  1  0
  1 17  1  0
  1 18  1  0
  1 19  1  0
  2 20  1  0
  3 21  1  0
  3 22  1  0
  3 23  1  0
  4 24  1  0
  4 25  1  0
  5 26  1  0
  5 27  1  0
  7 28  1  0
  7 29  1  0
  8 30  1  0
  8 31  1  0
  9 32  1  6
 10 33  1  0
 10 34  1  0
 11 35  1  0
 11 36  1  0
 12 37  1  0
 12 38  1  0
 13 39  1  0
 13 40  1  0
 14 41  1  6
M  CHG  1   2   1
M  END
>  <UniqueID>  (47) 
45

>  <SMILES>  (47) 
C[NH+](C)CCN1CC[C@@H]2CCCC[C@@H]2C1=O

>  <Energy>  (47) 
45.87507364094176

>  <Genealogy>  (47) 
C[NH+](C)CCN1CCC2CCCCC2C1=O (protonated)
C[NH+](C)CCN1CC[C@@H]2CCCC[C@@H]2C1=O (chirality)
C[NH+](C)CCN1CC[C@@H]2CCCC[C@@H]2C1=O (3D coordinates assigned)
C[NH+](C)CCN1CC[C@@H]2CCCC[C@@H]2C1=O (nonaromatic ring conformer: 45.87507364094176 kcal/mol)

>  <smiles>  (47) 
CN(C)CCN1CCC2CCCCC2C1=O

>  <score_type>  (47) 
oracle

>  <origin>  (47) 
adg

>  <m_score__min__energy>  (47) 
-4.8700000000000001

>  <m_primary>  (47) 
energy

$$$$
47:0
     RDKit          3D

 45 46  0  0  0  0  0  0  0  0999 V2000
   57.8080   31.9690   42.5760 C   0  0  0  0  0  0  0  0  0  0  0  0
   57.9240   31.3830   43.9540 C   0  0  0  0  0  0  0  0  0  0  0  0
   58.0700   29.9120   43.9250 N   0  0  0  0  0  0  0  0  0  0  0  0
   56.8830   29.2880   44.4750 C   0  0  0  0  0  0  0  0  0  0  0  0
   55.6030   30.0170   44.1210 C   0  0  0  0  0  0  0  0  0  0  0  0
   59.2760   29.5870   44.6060 C   0  0  0  0  0  0  0  0  0  0  0  0
   59.2910   29.8930   46.0980 C   0  0  0  0  0  0  0  0  0  0  0  0
   60.2770   30.7150   46.5730 N   0  0  0  0  0  0  0  0  0  0  0  0
   61.2550   31.5280   47.0450 C   0  0  0  0  0  0  0  0  0  0  0  0
   62.5130   31.2830   47.5360 C   0  0  0  0  0  0  0  0  0  0  0  0
   63.3780   32.2370   48.0160 C   0  0  0  0  0  0  0  0  0  0  0  0
   62.9540   33.5350   48.0050 C   0  0  0  0  0  0  0  0  0  0  0  0
   61.7250   33.8810   47.5380 C   0  0  0  0  0  0  0  0  0  0  0  0
   60.8980   32.9120   47.0710 C   0  0  0  0  0  0  0  0  0  0  0  0
   59.6000   33.3450   46.5440 C   0  0  0  0  0  0  0  0  0  0  0  0
   58.4080   32.9950   47.2040 C   0  0  0  0  0  0  0  0  0  0  0  0
   57.2050   33.4580   46.6750 C   0  0  0  0  0  0  0  0  0  0  0  0
   57.1450   34.2290   45.5540 C   0  0  0  0  0  0  0  0  0  0  0  0
   58.3130   34.5820   44.8940 C   0  0  0  0  0  0  0  0  0  0  0  0
   59.5010   34.1360   45.3980 C   0  0  0  0  0  0  0  0  0  0  0  0
   57.5949   33.0455   42.6521 H   0  0  0  0  0  0  0  0  0  0  0  0
   58.7531   31.8198   42.0333 H   0  0  0  0  0  0  0  0  0  0  0  0
   56.9910   31.4709   42.0333 H   0  0  0  0  0  0  0  0  0  0  0  0
   58.8047   31.8167   44.4504 H   0  0  0  0  0  0  0  0  0  0  0  0
   56.9992   31.6198   44.5005 H   0  0  0  0  0  0  0  0  0  0  0  0
   58.1750   29.6890   42.9130 H   0  0  0  0  0  0  0  0  0  0  0  0
   56.8178   28.2604   44.0881 H   0  0  0  0  0  0  0  0  0  0  0  0
   56.9798   29.3135   45.5704 H   0  0  0  0  0  0  0  0  0  0  0  0
   55.0826   30.3134   45.0437 H   0  0  0  0  0  0  0  0  0  0  0  0
   55.8430   30.9139   43.5311 H   0  0  0  0  0  0  0  0  0  0  0  0
   54.9540   29.3530   43.5311 H   0  0  0  0  0  0  0  0  0  0  0  0
   59.4565   28.5093   44.4795 H   0  0  0  0  0  0  0  0  0  0  0  0
   60.0548   30.2231   44.1600 H   0  0  0  0  0  0  0  0  0  0  0  0
   58.3268   30.3606   46.3463 H   0  0  0  0  0  0  0  0  0  0  0  0
   59.4865   28.9222   46.5769 H   0  0  0  0  0  0  0  0  0  0  0  0
   60.2460   30.0240   47.7260 H   0  0  0  0  0  0  0  0  0  0  0  0
   62.8568   30.2382   47.5462 H   0  0  0  0  0  0  0  0  0  0  0  0
   64.3743   31.9652   48.3948 H   0  0  0  0  0  0  0  0  0  0  0  0
   63.6241   34.3208   48.3837 H   0  0  0  0  0  0  0  0  0  0  0  0
   61.4050   34.9334   47.5387 H   0  0  0  0  0  0  0  0  0  0  0  0
   58.4252   32.3737   48.1116 H   0  0  0  0  0  0  0  0  0  0  0  0
   56.2667   33.1902   47.1829 H   0  0  0  0  0  0  0  0  0  0  0  0
   56.1718   34.5714   45.1724 H   0  0  0  0  0  0  0  0  0  0  0  0
   58.2828   35.2051   43.9880 H   0  0  0  0  0  0  0  0  0  0  0  0
   60.4274   34.4142   44.8743 H   0  0  0  0  0  0  0  0  0  0  0  0
  1  2  1  0
  2  3  1  0
  3  4  1  0
  4  5  1  0
  3  6  1  0
  6  7  1  0
  7  8  1  0
  8  9  1  0
  9 10  2  0
 10 11  1  0
 11 12  2  0
 12 13  1  0
 13 14  2  0
 14 15  1  0
 15 16  2  0
 16 17  1  0
 17 18  2  0
 18 19  1  0
 19 20  2  0
 14  9  1  0
 20 15  1  0
  1 21  1  0
  1 22  1  0
  1 23  1  0
  2 24  1  0
  2 25  1  0
  3 26  1  0
  4 27  1  0
  4 28  1  0
  5 29  1  0
  5 30  1  0
  5 31  1  0
  6 32  1  0
  6 33  1  0
  7 34  1  0
  7 35  1  0
  8 36  1  0
 10 37  1  0
 11 38  1  0
 12 39  1  0
 13 40  1  0
 16 41  1  0
 17 42  1  0
 18 43  1  0
 19 44  1  0
 20 45  1  0
M  CHG  1   3   1
M  END
>  <UniqueID>  (48) 
46

>  <SMILES>  (48) 
CC[NH+](CC)CCNc1ccccc1-c1ccccc1

>  <Energy>  (48) 
274.80036032454257

>  <Genealogy>  (48) 
CC[NH+](CC)CCNc1ccccc1-c1ccccc1 (protonated)
CC[NH+](CC)CCNc1ccccc1-c1ccccc1 (3D coordinates assigned)
CC[NH+](CC)CCNc1ccccc1-c1ccccc1 (optimized conformer: 274.80036032454257 kcal/mol)

>  <smiles>  (48) 
CCN(CC)CCNc1ccccc1-c1ccccc1

>  <score_type>  (48) 
oracle

>  <origin>  (48) 
adg

>  <m_score__min__energy>  (48) 
-5.2000000000000002

>  <m_primary>  (48) 
energy

$$$$
48:0
     RDKit          3D

 38 39  0  0  0  0  0  0  0  0999 V2000
   59.8640   32.8800   49.1080 C   0  0  0  0  0  0  0  0  0  0  0  0
   60.9860   33.8230   48.6850 C   0  0  0  0  0  0  0  0  0  0  0  0
   60.8970   34.1370   47.2480 N   0  0  0  0  0  0  0  0  0  0  0  0
   62.0580   33.8460   46.3910 C   0  0  0  0  0  0  0  0  0  0  0  0
   63.0340   32.9160   47.1050 C   0  0  0  0  0  0  0  0  0  0  0  0
   59.7150   34.7990   46.7340 C   0  0  0  0  0  0  0  0  0  0  0  0
   58.8970   35.3200   47.5420 O   0  0  0  0  0  0  0  0  0  0  0  0
   59.4360   34.9380   45.2590 C   0  0  0  0  0  0  0  0  0  0  0  0
   57.6980   34.5310   44.8720 S   0  0  0  0  0  0  0  0  0  0  0  0
   58.0270   32.7970   44.5690 C   0  0  0  0  0  0  0  0  0  0  0  0
   58.5180   31.9380   45.4860 N   0  0  0  0  0  0  0  0  0  0  0  0
   58.6330   30.6680   44.9850 C   0  0  0  0  0  0  0  0  0  0  0  0
   59.1190   29.5500   45.8310 C   0  0  0  0  0  0  0  0  0  0  0  0
   59.7420   28.4370   45.2330 C   0  0  0  0  0  0  0  0  0  0  0  0
   60.2090   27.3790   46.0180 C   0  0  0  0  0  0  0  0  0  0  0  0
   60.0560   27.4150   47.4060 C   0  0  0  0  0  0  0  0  0  0  0  0
   60.5090   26.3860   48.1650 F   0  0  0  0  0  0  0  0  0  0  0  0
   59.4340   28.5090   48.0100 C   0  0  0  0  0  0  0  0  0  0  0  0
   58.9660   29.5720   47.2310 C   0  0  0  0  0  0  0  0  0  0  0  0
   58.2480   30.4970   43.6880 N   0  0  0  0  0  0  0  0  0  0  0  0
   57.7420   31.9830   43.1490 S   0  0  0  0  0  0  0  0  0  0  0  0
   59.8145   32.8384   50.2061 H   0  0  0  0  0  0  0  0  0  0  0  0
   58.9064   33.2484   48.7115 H   0  0  0  0  0  0  0  0  0  0  0  0
   60.0621   31.8733   48.7115 H   0  0  0  0  0  0  0  0  0  0  0  0
   60.9090   34.7559   49.2627 H   0  0  0  0  0  0  0  0  0  0  0  0
   61.9502   33.3297   48.8773 H   0  0  0  0  0  0  0  0  0  0  0  0
   61.7117   33.3642   45.4648 H   0  0  0  0  0  0  0  0  0  0  0  0
   62.5731   34.7901   46.1598 H   0  0  0  0  0  0  0  0  0  0  0  0
   62.9172   33.0273   48.1931 H   0  0  0  0  0  0  0  0  0  0  0  0
   62.8247   31.8748   46.8184 H   0  0  0  0  0  0  0  0  0  0  0  0
   64.0639   33.1753   46.8184 H   0  0  0  0  0  0  0  0  0  0  0  0
   59.6383   35.9748   44.9521 H   0  0  0  0  0  0  0  0  0  0  0  0
   60.0864   34.2375   44.7148 H   0  0  0  0  0  0  0  0  0  0  0  0
   59.8618   28.4003   44.1402 H   0  0  0  0  0  0  0  0  0  0  0  0
   60.6980   26.5163   45.5418 H   0  0  0  0  0  0  0  0  0  0  0  0
   59.3115   28.5351   49.1028 H   0  0  0  0  0  0  0  0  0  0  0  0
   58.4757   30.4300   47.7143 H   0  0  0  0  0  0  0  0  0  0  0  0
   58.2270   29.6120   43.1360 H   0  0  0  0  0  0  0  0  0  0  0  0
  1  2  1  0
  2  3  1  0
  3  4  1  0
  4  5  1  0
  3  6  1  0
  6  7  2  0
  6  8  1  0
  8  9  1  0
  9 10  1  0
 10 11  2  0
 11 12  1  0
 12 13  1  0
 13 14  2  0
 14 15  1  0
 15 16  2  0
 16 17  1  0
 16 18  1  0
 18 19  2  0
 12 20  2  0
 20 21  1  0
 21 10  1  0
 19 13  1  0
  1 22  1  0
  1 23  1  0
  1 24  1  0
  2 25  1  0
  2 26  1  0
  4 27  1  0
  4 28  1  0
  5 29  1  0
  5 30  1  0
  5 31  1  0
  8 32  1  0
  8 33  1  0
 14 34  1  0
 15 35  1  0
 18 36  1  0
 19 37  1  0
 20 38  1  0
M  CHG  1  20   1
M  END
>  <UniqueID>  (49) 
47

>  <SMILES>  (49) 
CCN(CC)C(=O)CSc1nc(-c2ccc(F)cc2)[nH+]s1

>  <Energy>  (49) 
66.64813417607002

>  <Genealogy>  (49) 
CCN(CC)C(=O)CSc1nc(-c2ccc(F)cc2)[nH+]s1 (protonated)
CCN(CC)C(=O)CSc1nc(-c2ccc(F)cc2)[nH+]s1 (3D coordinates assigned)
CCN(CC)C(=O)CSc1nc(-c2ccc(F)cc2)[nH+]s1 (optimized conformer: 66.64813417607002 kcal/mol)

>  <smiles>  (49) 
CCN(CC)C(=O)CSc1nc(-c2ccc(F)cc2)ns1

>  <score_type>  (49) 
oracle

>  <origin>  (49) 
adg

>  <m_score__min__energy>  (49) 
-5.71

>  <m_primary>  (49) 
energy

$$$$
