0:0
     RDKit          3D

 41 43  0  0  0  0  0  0  0  0999 V2000
   59.3810   35.1380   45.9310 O   0  0  0  0  0  0  0  0  0  0  0  0
   59.4220   34.1350   46.6950 C   0  0  0  0  0  0  0  0  0  0  0  0
   60.7520   33.5740   47.0950 C   0  0  0  0  0  0  0  0  0  0  0  0
   61.2630   34.1860   48.7420 S   0  0  0  0  0  0  0  0  0  0  0  0
   59.9750   33.3200   49.6400 C   0  0  0  0  0  0  0  0  0  0  0  0
   59.6030   33.7320   50.9200 C   0  0  0  0  0  0  0  0  0  0  0  0
   58.6260   33.0150   51.6060 C   0  0  0  0  0  0  0  0  0  0  0  0
   58.0340   31.9060   50.9930 C   0  0  0  0  0  0  0  0  0  0  0  0
   57.0120   31.1090   51.6920 C   0  0  0  0  0  0  0  0  0  0  0  0
   55.8950   31.6070   52.3340 C   0  0  0  0  0  0  0  0  0  0  0  0
   55.2310   30.5070   52.8330 C   0  0  0  0  0  0  0  0  0  0  0  0
   55.9810   29.4080   52.4670 C   0  0  0  0  0  0  0  0  0  0  0  0
   57.0350   29.7980   51.7880 O   0  0  0  0  0  0  0  0  0  0  0  0
   58.4230   31.5600   49.7360 N   0  0  0  0  0  0  0  0  0  0  0  0
   59.3630   32.2440   49.0810 N   0  0  0  0  0  0  0  0  0  0  0  0
   58.2050   33.5010   47.1120 N   0  0  0  0  0  0  0  0  0  0  0  0
   57.0150   33.4760   46.2610 C   0  0  0  0  0  0  0  0  0  0  0  0
   57.3830   33.0940   44.8210 C   0  0  0  0  0  0  0  0  0  0  0  0
   57.5330   31.6020   44.6570 C   0  0  0  0  0  0  0  0  0  0  0  0
   56.6660   30.8910   43.8120 C   0  0  0  0  0  0  0  0  0  0  0  0
   56.8550   29.5210   43.6020 C   0  0  0  0  0  0  0  0  0  0  0  0
   57.9110   28.8530   44.2320 C   0  0  0  0  0  0  0  0  0  0  0  0
   58.1550   27.1380   43.9560 Cl  0  0  0  0  0  0  0  0  0  0  0  0
   58.7750   29.5540   45.0780 C   0  0  0  0  0  0  0  0  0  0  0  0
   58.5880   30.9230   45.2900 C   0  0  0  0  0  0  0  0  0  0  0  0
   60.6835   32.4766   47.1259 H   0  0  0  0  0  0  0  0  0  0  0  0
   61.5012   33.8963   46.3569 H   0  0  0  0  0  0  0  0  0  0  0  0
   60.0753   34.6118   51.3813 H   0  0  0  0  0  0  0  0  0  0  0  0
   58.3231   33.3176   52.6192 H   0  0  0  0  0  0  0  0  0  0  0  0
   55.5973   32.6618   52.4276 H   0  0  0  0  0  0  0  0  0  0  0  0
   54.2927   30.5055   53.4071 H   0  0  0  0  0  0  0  0  0  0  0  0
   55.7334   28.3636   52.7076 H   0  0  0  0  0  0  0  0  0  0  0  0
   58.2140   32.8820   47.9530 H   0  0  0  0  0  0  0  0  0  0  0  0
   56.3025   32.7385   46.6589 H   0  0  0  0  0  0  0  0  0  0  0  0
   56.5643   34.4794   46.2555 H   0  0  0  0  0  0  0  0  0  0  0  0
   56.5907   33.4484   44.1453 H   0  0  0  0  0  0  0  0  0  0  0  0
   58.3483   33.5628   44.5795 H   0  0  0  0  0  0  0  0  0  0  0  0
   55.8357   31.4128   43.3137 H   0  0  0  0  0  0  0  0  0  0  0  0
   56.1722   28.9677   42.9404 H   0  0  0  0  0  0  0  0  0  0  0  0
   59.6023   29.0283   45.5771 H   0  0  0  0  0  0  0  0  0  0  0  0
   59.2703   31.4717   45.9559 H   0  0  0  0  0  0  0  0  0  0  0  0
  1  2  2  0
  2  3  1  0
  3  4  1  0
  4  5  1  0
  5  6  2  0
  6  7  1  0
  7  8  2  0
  8  9  1  0
  9 10  2  0
 10 11  1  0
 11 12  2  0
 12 13  1  0
  8 14  1  0
 14 15  2  0
  2 16  1  0
 16 17  1  0
 17 18  1  0
 18 19  1  0
 19 20  2  0
 20 21  1  0
 21 22  2  0
 22 23  1  0
 22 24  1  0
 24 25  2  0
 15  5  1  0
 25 19  1  0
 13  9  1  0
  3 26  1  0
  3 27  1  0
  6 28  1  0
  7 29  1  0
 10 30  1  0
 11 31  1  0
 12 32  1  0
 16 33  1  0
 17 34  1  0
 17 35  1  0
 18 36  1  0
 18 37  1  0
 20 38  1  0
 21 39  1  0
 24 40  1  0
 25 41  1  0
M  END
>  <UniqueID>  (1) 
1

>  <SMILES>  (1) 
O=C(CSc1ccc(-c2ccco2)nn1)NCCc1ccc(Cl)cc1

>  <Energy>  (1) 
61.02758654892166

>  <Genealogy>  (1) 
O=C(CSc1ccc(-c2ccco2)nn1)NCCc1ccc(Cl)cc1 (3D coordinates assigned)
O=C(CSc1ccc(-c2ccco2)nn1)NCCc1ccc(Cl)cc1 (optimized conformer: 61.02758654892166 kcal/mol)

>  <smiles>  (1) 
O=C(CSc1ccc(-c2ccco2)nn1)NCCc1ccc(Cl)cc1

>  <score_type>  (1) 
oracle

>  <origin>  (1) 
adg

>  <m_score__min__energy>  (1) 
-8.5600000000000005

>  <m_primary>  (1) 
energy

$$$$
1:0
     RDKit          3D

 48 49  0  0  0  0  0  0  0  0999 V2000
   59.2090   34.5900   45.6400 C   0  0  0  0  0  0  0  0  0  0  0  0
   57.8400   34.0140   45.7820 C   0  0  0  0  0  0  0  0  0  0  0  0
   57.8070   32.6550   46.4540 C   0  0  0  0  0  0  0  0  0  0  0  0
   57.9160   31.6040   45.5370 O   0  0  0  0  0  0  0  0  0  0  0  0
   57.8520   30.2530   45.8500 C   0  0  0  0  0  0  0  0  0  0  0  0
   56.8470   29.4720   45.2810 C   0  0  0  0  0  0  0  0  0  0  0  0
   55.9350   30.0740   44.4150 O   0  0  0  0  0  0  0  0  0  0  0  0
   56.2740   30.0980   43.0390 C   0  0  0  0  0  0  0  0  0  0  0  0
   56.7490   28.1250   45.5660 C   0  0  0  0  0  0  0  0  0  0  0  0
   57.6480   27.5150   46.4250 C   0  0  0  0  0  0  0  0  0  0  0  0
   57.5990   26.0950   46.7690 C   0  0  0  0  0  0  0  0  0  0  0  0
   57.0430   25.1980   45.7620 C   0  0  0  0  0  0  0  0  0  0  0  0
   57.9230   24.3330   45.1060 C   0  0  0  0  0  0  0  0  0  0  0  0
   57.5050   23.4710   44.1620 N   0  0  0  0  0  0  0  0  0  0  0  0
   56.1910   23.4190   43.8170 C   0  0  0  0  0  0  0  0  0  0  0  0
   55.8700   22.5690   42.9070 N   0  0  0  0  0  0  0  0  0  0  0  0
   55.3420   24.2370   44.4340 N   0  0  0  0  0  0  0  0  0  0  0  0
   55.7270   25.1160   45.3870 C   0  0  0  0  0  0  0  0  0  0  0  0
   54.8810   25.8950   45.9690 N   0  0  0  0  0  0  0  0  0  0  0  0
   58.6340   28.3120   46.9750 C   0  0  0  0  0  0  0  0  0  0  0  0
   58.7570   29.6590   46.7080 C   0  0  0  0  0  0  0  0  0  0  0  0
   59.7430   30.4650   47.2550 O   0  0  0  0  0  0  0  0  0  0  0  0
   61.0370   30.6400   46.7840 C   0  0  0  0  0  0  0  0  0  0  0  0
   61.5030   32.0370   47.1590 C   0  0  0  0  0  0  0  0  0  0  0  0
   59.6364   34.7698   46.6375 H   0  0  0  0  0  0  0  0  0  0  0  0
   59.8483   33.8846   45.0889 H   0  0  0  0  0  0  0  0  0  0  0  0
   59.1516   35.5403   45.0889 H   0  0  0  0  0  0  0  0  0  0  0  0
   57.2327   34.7098   46.3796 H   0  0  0  0  0  0  0  0  0  0  0  0
   57.4474   33.8742   44.7640 H   0  0  0  0  0  0  0  0  0  0  0  0
   58.6441   32.5919   47.1648 H   0  0  0  0  0  0  0  0  0  0  0  0
   56.8372   32.5563   46.9637 H   0  0  0  0  0  0  0  0  0  0  0  0
   57.3660   30.1753   42.9317 H   0  0  0  0  0  0  0  0  0  0  0  0
   55.9230   29.1728   42.5587 H   0  0  0  0  0  0  0  0  0  0  0  0
   55.7961   30.9646   42.5587 H   0  0  0  0  0  0  0  0  0  0  0  0
   55.9474   27.5290   45.1054 H   0  0  0  0  0  0  0  0  0  0  0  0
   58.6279   25.7663   46.9772 H   0  0  0  0  0  0  0  0  0  0  0  0
   56.9141   26.0279   47.6272 H   0  0  0  0  0  0  0  0  0  0  0  0
   58.9906   24.3579   45.3699 H   0  0  0  0  0  0  0  0  0  0  0  0
   58.1940   22.8240   43.6780 H   0  0  0  0  0  0  0  0  0  0  0  0
   56.0990   22.6150   41.9090 H   0  0  0  0  0  0  0  0  0  0  0  0
   54.3300   24.1850   44.1560 H   0  0  0  0  0  0  0  0  0  0  0  0
   55.1450   26.3230   46.8840 H   0  0  0  0  0  0  0  0  0  0  0  0
   59.3578   27.8478   47.6610 H   0  0  0  0  0  0  0  0  0  0  0  0
   61.7021   29.8922   47.2405 H   0  0  0  0  0  0  0  0  0  0  0  0
   61.0598   30.5162   45.6912 H   0  0  0  0  0  0  0  0  0  0  0  0
   61.5345   32.1313   48.2545 H   0  0  0  0  0  0  0  0  0  0  0  0
   62.5079   32.2113   46.7470 H   0  0  0  0  0  0  0  0  0  0  0  0
   60.8039   32.7797   46.7470 H   0  0  0  0  0  0  0  0  0  0  0  0
  1  2  1  0
  2  3  1  0
  3  4  1  0
  4  5  1  0
  5  6  2  0
  6  7  1  0
  7  8  1  0
  6  9  1  0
  9 10  2  0
 10 11  1  0
 11 12  1  0
 12 13  2  0
 13 14  1  0
 14 15  1  0
 15 16  2  3
 15 17  1  0
 17 18  1  0
 18 19  2  3
 10 20  1  0
 20 21  2  0
 21 22  1  0
 22 23  1  0
 23 24  1  0
 21  5  1  0
 18 12  1  0
  1 25  1  0
  1 26  1  0
  1 27  1  0
  2 28  1  0
  2 29  1  0
  3 30  1  0
  3 31  1  0
  8 32  1  0
  8 33  1  0
  8 34  1  0
  9 35  1  0
 11 36  1  0
 11 37  1  0
 13 38  1  0
 14 39  1  0
 16 40  1  0
 17 41  1  0
 19 42  1  0
 20 43  1  0
 23 44  1  0
 23 45  1  0
 24 46  1  0
 24 47  1  0
 24 48  1  0
M  END
>  <smiles>  (2) 
CCCOc1c(OC)cc(Cc2c[nH]c(=N)[nH]c2=N)cc1OCC

>  <score_type>  (2) 
oracle

>  <origin>  (2) 
adg

>  <m_score__min__energy>  (2) 
-6.9000000000000004

>  <m_primary>  (2) 
energy

$$$$
2:0
     RDKit          3D

 52 54  0  0  0  0  0  0  0  0999 V2000
   54.3030   24.9270   45.6130 C   0  0  0  0  0  0  0  0  0  0  0  0
   55.0470   26.0830   45.9860 O   0  0  0  0  0  0  0  0  0  0  0  0
   56.4460   26.1510   46.0490 C   0  0  0  0  0  0  0  0  0  0  0  0
   57.2230   24.9960   46.2830 C   0  0  0  0  0  0  0  0  0  0  0  0
   58.6170   25.0670   46.2970 C   0  0  0  0  0  0  0  0  0  0  0  0
   59.2560   26.2840   46.0740 C   0  0  0  0  0  0  0  0  0  0  0  0
   58.5040   27.4370   45.8490 C   0  0  0  0  0  0  0  0  0  0  0  0
   57.1030   27.3930   45.8530 C   0  0  0  0  0  0  0  0  0  0  0  0
   56.4060   28.6280   45.6230 N   0  0  0  0  0  0  0  0  0  0  0  0
   56.9960   30.0320   44.7900 S   0  0  0  0  0  0  0  0  0  0  0  0
   57.6890   29.5940   43.5300 O   0  0  0  0  0  0  0  0  0  0  0  0
   55.8500   30.9480   44.4610 O   0  0  0  0  0  0  0  0  0  0  0  0
   58.1280   30.8980   45.8360 C   0  0  0  0  0  0  0  0  0  0  0  0
   58.7280   30.2090   46.9030 C   0  0  0  0  0  0  0  0  0  0  0  0
   59.6540   30.8460   47.7460 C   0  0  0  0  0  0  0  0  0  0  0  0
   60.2920   30.1260   48.8740 C   0  0  0  0  0  0  0  0  0  0  0  0
   61.2550   30.6730   49.4780 O   0  0  0  0  0  0  0  0  0  0  0  0
   59.8240   28.8290   49.2900 N   0  0  0  0  0  0  0  0  0  0  0  0
   60.4220   28.0590   50.3470 C   0  0  0  0  0  0  0  0  0  0  0  0
   60.7070   28.6300   51.6020 C   0  0  0  0  0  0  0  0  0  0  0  0
   61.3130   27.8630   52.6020 C   0  0  0  0  0  0  0  0  0  0  0  0
   61.6530   26.5300   52.3570 C   0  0  0  0  0  0  0  0  0  0  0  0
   61.3960   25.9650   51.1050 C   0  0  0  0  0  0  0  0  0  0  0  0
   60.7890   26.7270   50.1030 C   0  0  0  0  0  0  0  0  0  0  0  0
   59.9520   32.2000   47.5270 C   0  0  0  0  0  0  0  0  0  0  0  0
   59.3530   32.8970   46.4770 C   0  0  0  0  0  0  0  0  0  0  0  0
   58.4380   32.2600   45.6290 C   0  0  0  0  0  0  0  0  0  0  0  0
   57.8190   33.0140   44.5770 N   0  0  0  0  0  0  0  0  0  0  0  0
   57.0480   34.2170   44.8880 C   0  0  0  0  0  0  0  0  0  0  0  0
   58.0740   32.6480   43.1840 C   0  0  0  0  0  0  0  0  0  0  0  0
   53.9645   24.4011   46.5179 H   0  0  0  0  0  0  0  0  0  0  0  0
   53.4297   25.2297   45.0165 H   0  0  0  0  0  0  0  0  0  0  0  0
   54.9402   24.2575   45.0165 H   0  0  0  0  0  0  0  0  0  0  0  0
   56.7251   24.0305   46.4560 H   0  0  0  0  0  0  0  0  0  0  0  0
   59.2114   24.1606   46.4844 H   0  0  0  0  0  0  0  0  0  0  0  0
   60.3548   26.3361   46.0753 H   0  0  0  0  0  0  0  0  0  0  0  0
   59.0168   28.3928   45.6661 H   0  0  0  0  0  0  0  0  0  0  0  0
   58.4690   29.1549   47.0812 H   0  0  0  0  0  0  0  0  0  0  0  0
   58.9660   28.4330   48.8460 H   0  0  0  0  0  0  0  0  0  0  0  0
   60.4523   29.6823   51.7964 H   0  0  0  0  0  0  0  0  0  0  0  0
   61.5227   28.3105   53.5847 H   0  0  0  0  0  0  0  0  0  0  0  0
   62.1220   25.9266   53.1481 H   0  0  0  0  0  0  0  0  0  0  0  0
   61.6720   24.9186   50.9078 H   0  0  0  0  0  0  0  0  0  0  0  0
   60.5977   26.2795   49.1165 H   0  0  0  0  0  0  0  0  0  0  0  0
   60.6635   32.7159   48.1885 H   0  0  0  0  0  0  0  0  0  0  0  0
   59.6015   33.9560   46.3138 H   0  0  0  0  0  0  0  0  0  0  0  0
   56.9737   34.3329   45.9793 H   0  0  0  0  0  0  0  0  0  0  0  0
   57.5513   35.0961   44.4593 H   0  0  0  0  0  0  0  0  0  0  0  0
   56.0390   34.1269   44.4593 H   0  0  0  0  0  0  0  0  0  0  0  0
   58.7025   31.7459   43.1511 H   0  0  0  0  0  0  0  0  0  0  0  0
   57.1187   32.4480   42.6767 H   0  0  0  0  0  0  0  0  0  0  0  0
   58.5925   33.4749   42.6767 H   0  0  0  0  0  0  0  0  0  0  0  0
  1  2  1  0
  2  3  1  0
  3  4  2  0
  4  5  1  0
  5  6  2  0
  6  7  1  0
  7  8  2  0
  8  9  1  0
  9 10  1  0
 10 11  2  0
 10 12  2  0
 10 13  1  0
 13 14  2  0
 14 15  1  0
 15 16  1  0
 16 17  2  0
 16 18  1  0
 18 19  1  0
 19 20  2  0
 20 21  1  0
 21 22  2  0
 22 23  1  0
 23 24  2  0
 15 25  2  0
 25 26  1  0
 26 27  2  0
 27 28  1  0
 28 29  1  0
 28 30  1  0
  8  3  1  0
 27 13  1  0
 24 19  1  0
  1 31  1  0
  1 32  1  0
  1 33  1  0
  4 34  1  0
  5 35  1  0
  6 36  1  0
  7 37  1  0
 14 38  1  0
 18 39  1  0
 20 40  1  0
 21 41  1  0
 22 42  1  0
 23 43  1  0
 24 44  1  0
 25 45  1  0
 26 46  1  0
 29 47  1  0
 29 48  1  0
 29 49  1  0
 30 50  1  0
 30 51  1  0
 30 52  1  0
M  CHG  1   9  -1
M  END
>  <UniqueID>  (3) 
2

>  <SMILES>  (3) 
COc1ccccc1[N-]S(=O)(=O)c1cc(C(=O)Nc2ccccc2)ccc1N(C)C

>  <Energy>  (3) 
72.43099311118627

>  <Genealogy>  (3) 
COc1ccccc1[N-]S(=O)(=O)c1cc(C(=O)Nc2ccccc2)ccc1N(C)C (protonated)
COc1ccccc1[N-]S(=O)(=O)c1cc(C(=O)Nc2ccccc2)ccc1N(C)C (3D coordinates assigned)
COc1ccccc1[N-]S(=O)(=O)c1cc(C(=O)Nc2ccccc2)ccc1N(C)C (optimized conformer: 72.43099311118627 kcal/mol)

>  <smiles>  (3) 
COc1ccccc1NS(=O)(=O)c1cc(C(=O)Nc2ccccc2)ccc1N(C)C

>  <score_type>  (3) 
oracle

>  <origin>  (3) 
adg

>  <m_score__min__energy>  (3) 
-10.16

>  <m_primary>  (3) 
energy

$$$$
3:0
     RDKit          3D

 33 34  0  0  0  0  0  0  0  0999 V2000
   60.2640   28.5540   44.8430 C   0  0  0  0  0  0  0  0  0  0  0  0
   59.5780   29.7230   45.5390 C   0  0  0  0  0  0  0  0  0  0  0  0
   58.1540   29.7540   45.2000 N   0  0  0  0  0  0  0  0  0  0  0  0
   57.4640   30.7220   44.5630 C   0  0  0  0  0  0  0  0  0  0  0  0
   58.0620   31.9620   43.9790 C   0  0  0  0  0  0  0  0  0  0  0  0
   56.1490   30.4290   44.5020 N   0  0  0  0  0  0  0  0  0  0  0  0
   55.9820   29.2680   45.1190 N   0  0  0  0  0  0  0  0  0  0  0  0
   57.1970   28.8700   45.5400 C   0  0  0  0  0  0  0  0  0  0  0  0
   57.4770   27.3540   46.4610 S   0  0  0  0  0  0  0  0  0  0  0  0
   57.3890   26.2680   44.9950 C   0  0  0  0  0  0  0  0  0  0  0  0
   56.5450   25.0580   45.2740 C   0  0  0  0  0  0  0  0  0  0  0  0
   55.5210   25.1930   45.9970 O   0  0  0  0  0  0  0  0  0  0  0  0
   56.8850   23.7510   44.7760 N   0  0  0  0  0  0  0  0  0  0  0  0
   56.6570   23.3170   43.3990 C   0  0  0  0  0  0  0  0  0  0  0  0
   57.1540   21.8510   43.3240 C   0  0  0  0  0  0  0  0  0  0  0  0
   57.6450   21.5300   44.6550 N   0  0  0  0  0  0  0  0  0  0  0  0
   57.4720   22.6640   45.4720 C   0  0  0  0  0  0  0  0  0  0  0  0
   57.8190   22.6940   46.6810 O   0  0  0  0  0  0  0  0  0  0  0  0
   60.6688   27.8641   45.5981 H   0  0  0  0  0  0  0  0  0  0  0  0
   59.5346   28.0224   44.2142 H   0  0  0  0  0  0  0  0  0  0  0  0
   61.0838   28.9315   44.2142 H   0  0  0  0  0  0  0  0  0  0  0  0
   59.6891   29.6125   46.6278 H   0  0  0  0  0  0  0  0  0  0  0  0
   60.0450   30.6612   45.2049 H   0  0  0  0  0  0  0  0  0  0  0  0
   58.3846   32.6308   44.7905 H   0  0  0  0  0  0  0  0  0  0  0  0
   58.9296   31.6935   43.3584 H   0  0  0  0  0  0  0  0  0  0  0  0
   57.3117   32.4738   43.3584 H   0  0  0  0  0  0  0  0  0  0  0  0
   56.9487   26.8288   44.1574 H   0  0  0  0  0  0  0  0  0  0  0  0
   58.4067   25.9357   44.7424 H   0  0  0  0  0  0  0  0  0  0  0  0
   55.5859   23.3702   43.1541 H   0  0  0  0  0  0  0  0  0  0  0  0
   57.1885   23.9593   42.6814 H   0  0  0  0  0  0  0  0  0  0  0  0
   56.3271   21.1799   43.0487 H   0  0  0  0  0  0  0  0  0  0  0  0
   57.9384   21.7281   42.5627 H   0  0  0  0  0  0  0  0  0  0  0  0
   58.0570   20.6180   44.9520 H   0  0  0  0  0  0  0  0  0  0  0  0
  1  2  1  0
  2  3  1  0
  3  4  1  0
  4  5  1  0
  4  6  2  0
  6  7  1  0
  7  8  2  0
  8  9  1  0
  9 10  1  0
 10 11  1  0
 11 12  2  0
 11 13  1  0
 13 14  1  0
 14 15  1  0
 15 16  1  0
 16 17  1  0
 17 18  2  0
  8  3  1  0
 17 13  1  0
  1 19  1  0
  1 20  1  0
  1 21  1  0
  2 22  1  0
  2 23  1  0
  5 24  1  0
  5 25  1  0
  5 26  1  0
 10 27  1  0
 10 28  1  0
 14 29  1  0
 14 30  1  0
 15 31  1  0
 15 32  1  0
 16 33  1  0
M  END
>  <UniqueID>  (4) 
3

>  <SMILES>  (4) 
CCn1c(C)nnc1SCC(=O)N1CCNC1=O

>  <Energy>  (4) 
71.09715604094725

>  <Genealogy>  (4) 
CCn1c(C)nnc1SCC(=O)N1CCNC1=O (3D coordinates assigned)
CCn1c(C)nnc1SCC(=O)N1CCNC1=O (nonaromatic ring conformer: 71.09715604094725 kcal/mol)

>  <smiles>  (4) 
CCn1c(C)nnc1SCC(=O)N1CCNC1=O

>  <score_type>  (4) 
oracle

>  <origin>  (4) 
adg

>  <m_score__min__energy>  (4) 
-7.0800000000000001

>  <m_primary>  (4) 
energy

$$$$
4:0
     RDKit          3D

 38 40  0  0  0  0  0  0  0  0999 V2000
   59.0540   35.0760   45.6620 O   0  0  0  0  0  0  0  0  0  0  0  0
   58.5710   33.9890   46.0800 C   0  0  0  0  0  0  0  0  0  0  0  0
   57.3010   33.4580   45.4780 C   0  0  0  0  0  0  0  0  0  0  0  0
   57.5550   32.2720   44.5350 C   0  0  0  0  0  0  0  0  0  0  0  0
   57.1200   30.9970   45.1130 N   0  0  0  0  0  0  0  0  0  0  0  0
   58.4440   30.0720   45.7660 S   0  0  0  0  0  0  0  0  0  0  0  0
   59.6470   30.1170   44.8640 O   0  0  0  0  0  0  0  0  0  0  0  0
   58.8290   30.6420   47.1010 O   0  0  0  0  0  0  0  0  0  0  0  0
   57.9150   28.4080   45.9910 C   0  0  0  0  0  0  0  0  0  0  0  0
   58.8010   27.4700   46.5810 C   0  0  0  0  0  0  0  0  0  0  0  0
   58.3940   26.1400   46.8000 C   0  0  0  0  0  0  0  0  0  0  0  0
   57.1000   25.7910   46.4280 C   0  0  0  0  0  0  0  0  0  0  0  0
   56.4950   24.5990   46.5690 N   0  0  0  0  0  0  0  0  0  0  0  0
   55.2630   24.8610   46.0610 C   0  0  0  0  0  0  0  0  0  0  0  0
   54.3520   23.9960   46.0010 O   0  0  0  0  0  0  0  0  0  0  0  0
   55.1030   26.1030   45.6400 O   0  0  0  0  0  0  0  0  0  0  0  0
   56.2460   26.6930   45.8660 C   0  0  0  0  0  0  0  0  0  0  0  0
   56.6130   28.0120   45.6210 C   0  0  0  0  0  0  0  0  0  0  0  0
   59.1850   33.2960   47.1770 N   0  0  0  0  0  0  0  0  0  0  0  0
   60.5850   33.3630   47.4940 C   0  0  0  0  0  0  0  0  0  0  0  0
   60.9980   34.0830   48.6260 C   0  0  0  0  0  0  0  0  0  0  0  0
   62.3470   34.1130   48.9950 C   0  0  0  0  0  0  0  0  0  0  0  0
   63.2940   33.4140   48.2420 C   0  0  0  0  0  0  0  0  0  0  0  0
   64.5990   33.4370   48.6050 F   0  0  0  0  0  0  0  0  0  0  0  0
   62.8930   32.6830   47.1210 C   0  0  0  0  0  0  0  0  0  0  0  0
   61.5450   32.6510   46.7480 C   0  0  0  0  0  0  0  0  0  0  0  0
   56.6354   33.1286   46.2895 H   0  0  0  0  0  0  0  0  0  0  0  0
   56.8445   34.2661   44.8875 H   0  0  0  0  0  0  0  0  0  0  0  0
   57.0046   32.4414   43.5978 H   0  0  0  0  0  0  0  0  0  0  0  0
   58.6390   32.2087   44.3592 H   0  0  0  0  0  0  0  0  0  0  0  0
   59.8147   27.7845   46.8699 H   0  0  0  0  0  0  0  0  0  0  0  0
   59.0755   25.4028   47.2495 H   0  0  0  0  0  0  0  0  0  0  0  0
   55.9127   28.7210   45.1553 H   0  0  0  0  0  0  0  0  0  0  0  0
   58.5720   32.6980   47.7770 H   0  0  0  0  0  0  0  0  0  0  0  0
   60.2553   34.6277   49.2274 H   0  0  0  0  0  0  0  0  0  0  0  0
   62.6625   34.6873   49.8786 H   0  0  0  0  0  0  0  0  0  0  0  0
   63.6390   32.1312   46.5302 H   0  0  0  0  0  0  0  0  0  0  0  0
   61.2334   32.0677   45.8689 H   0  0  0  0  0  0  0  0  0  0  0  0
  1  2  2  0
  2  3  1  0
  3  4  1  0
  4  5  1  0
  5  6  1  0
  6  7  2  0
  6  8  2  0
  6  9  1  0
  9 10  2  0
 10 11  1  0
 11 12  2  0
 12 13  1  0
 13 14  1  0
 14 15  2  0
 14 16  1  0
 16 17  1  0
 17 18  2  0
  2 19  1  0
 19 20  1  0
 20 21  2  0
 21 22  1  0
 22 23  2  0
 23 24  1  0
 23 25  1  0
 25 26  2  0
 18  9  1  0
 26 20  1  0
 17 12  1  0
  3 27  1  0
  3 28  1  0
  4 29  1  0
  4 30  1  0
 10 31  1  0
 11 32  1  0
 18 33  1  0
 19 34  1  0
 21 35  1  0
 22 36  1  0
 25 37  1  0
 26 38  1  0
M  CHG  2   5  -1  13  -1
M  END
>  <UniqueID>  (5) 
4

>  <SMILES>  (5) 
O=C(CC[N-]S(=O)(=O)c1ccc2[n-]c(=O)oc2c1)Nc1ccc(F)cc1

>  <Energy>  (5) 
74.3226196353933

>  <Genealogy>  (5) 
O=C(CC[N-]S(=O)(=O)c1ccc2[n-]c(=O)oc2c1)Nc1ccc(F)cc1 (protonated)
O=C(CC[N-]S(=O)(=O)c1ccc2[n-]c(=O)oc2c1)Nc1ccc(F)cc1 (3D coordinates assigned)
O=C(CC[N-]S(=O)(=O)c1ccc2[n-]c(=O)oc2c1)Nc1ccc(F)cc1 (optimized conformer: 74.3226196353933 kcal/mol)

>  <smiles>  (5) 
O=C(CCNS(=O)(=O)c1ccc2[nH]c(=O)oc2c1)Nc1ccc(F)cc1

>  <score_type>  (5) 
oracle

>  <origin>  (5) 
adg

>  <m_score__min__energy>  (5) 
-10.73

>  <m_primary>  (5) 
energy

$$$$
5:0
     RDKit          3D

 43 45  0  0  0  0  0  0  0  0999 V2000
   58.5190   24.3170   45.6250 C   0  0  0  0  0  0  0  0  0  0  0  0
   59.4580   25.1790   46.2590 O   0  0  0  0  0  0  0  0  0  0  0  0
   59.4490   26.5770   46.1500 C   0  0  0  0  0  0  0  0  0  0  0  0
   59.9910   27.3290   47.1980 C   0  0  0  0  0  0  0  0  0  0  0  0
   60.0040   28.7260   47.1380 C   0  0  0  0  0  0  0  0  0  0  0  0
   59.4660   29.3920   46.0260 C   0  0  0  0  0  0  0  0  0  0  0  0
   59.4860   30.8980   45.9680 C   0  0  0  0  0  0  0  0  0  0  0  0
   58.1360   31.4410   46.2050 N   0  0  0  0  0  0  0  0  0  0  0  0
   58.1480   32.6330   47.0830 C   0  0  0  0  0  0  0  0  0  0  0  0
   57.9300   33.9020   46.3300 N   0  0  0  0  0  0  0  0  0  0  0  0
   59.1990   34.5360   45.9110 C   0  0  0  0  0  0  0  0  0  0  0  0
   60.3130   34.2050   46.8710 C   0  0  0  0  0  0  0  0  0  0  0  0
   61.4860   33.5900   46.4020 C   0  0  0  0  0  0  0  0  0  0  0  0
   62.5260   33.2910   47.2870 C   0  0  0  0  0  0  0  0  0  0  0  0
   62.4050   33.6050   48.6430 C   0  0  0  0  0  0  0  0  0  0  0  0
   61.2420   34.2180   49.1170 C   0  0  0  0  0  0  0  0  0  0  0  0
   60.1990   34.5190   48.2350 C   0  0  0  0  0  0  0  0  0  0  0  0
   57.0660   33.6220   45.1760 C   0  0  0  0  0  0  0  0  0  0  0  0
   57.3720   31.9570   44.7440 S   0  0  0  0  0  0  0  0  0  0  0  0
   56.0950   31.2010   44.5120 O   0  0  0  0  0  0  0  0  0  0  0  0
   58.2720   31.8660   43.5430 O   0  0  0  0  0  0  0  0  0  0  0  0
   58.9280   28.6410   44.9690 C   0  0  0  0  0  0  0  0  0  0  0  0
   58.9160   27.2440   45.0290 C   0  0  0  0  0  0  0  0  0  0  0  0
   57.9369   23.7827   46.3903 H   0  0  0  0  0  0  0  0  0  0  0  0
   57.8399   24.9128   44.9974 H   0  0  0  0  0  0  0  0  0  0  0  0
   59.0546   23.5895   44.9974 H   0  0  0  0  0  0  0  0  0  0  0  0
   60.4104   26.8170   48.0766 H   0  0  0  0  0  0  0  0  0  0  0  0
   60.4379   29.3056   47.9662 H   0  0  0  0  0  0  0  0  0  0  0  0
   60.1709   31.2810   46.7389 H   0  0  0  0  0  0  0  0  0  0  0  0
   59.8257   31.2115   44.9698 H   0  0  0  0  0  0  0  0  0  0  0  0
   57.3500   32.5265   47.8326 H   0  0  0  0  0  0  0  0  0  0  0  0
   59.1409   32.6907   47.5530 H   0  0  0  0  0  0  0  0  0  0  0  0
   59.4686   34.1723   44.9085 H   0  0  0  0  0  0  0  0  0  0  0  0
   59.0584   35.6269   45.9012 H   0  0  0  0  0  0  0  0  0  0  0  0
   61.5863   33.3429   45.3348 H   0  0  0  0  0  0  0  0  0  0  0  0
   63.4414   32.8076   46.9150 H   0  0  0  0  0  0  0  0  0  0  0  0
   63.2250   33.3698   49.3374 H   0  0  0  0  0  0  0  0  0  0  0  0
   61.1467   34.4640   50.1849 H   0  0  0  0  0  0  0  0  0  0  0  0
   59.2859   35.0035   48.6112 H   0  0  0  0  0  0  0  0  0  0  0  0
   56.0088   33.7592   45.4470 H   0  0  0  0  0  0  0  0  0  0  0  0
   57.2770   34.3027   44.3381 H   0  0  0  0  0  0  0  0  0  0  0  0
   58.5136   29.1543   44.0888 H   0  0  0  0  0  0  0  0  0  0  0  0
   58.4889   26.6635   44.1980 H   0  0  0  0  0  0  0  0  0  0  0  0
  1  2  1  0
  2  3  1  0
  3  4  2  0
  4  5  1  0
  5  6  2  0
  6  7  1  0
  7  8  1  0
  8  9  1  0
  9 10  1  0
 10 11  1  0
 11 12  1  0
 12 13  2  0
 13 14  1  0
 14 15  2  0
 15 16  1  0
 16 17  2  0
 10 18  1  0
 18 19  1  0
 19 20  2  0
 19 21  2  0
  6 22  1  0
 22 23  2  0
 23  3  1  0
 19  8  1  0
 17 12  1  0
  1 24  1  0
  1 25  1  0
  1 26  1  0
  4 27  1  0
  5 28  1  0
  7 29  1  0
  7 30  1  0
  9 31  1  0
  9 32  1  0
 11 33  1  0
 11 34  1  0
 13 35  1  0
 14 36  1  0
 15 37  1  0
 16 38  1  0
 17 39  1  0
 18 40  1  0
 18 41  1  0
 22 42  1  0
 23 43  1  0
M  END
>  <UniqueID>  (6) 
5

>  <SMILES>  (6) 
COc1ccc(CN2CN(Cc3ccccc3)CS2(=O)=O)cc1

>  <Energy>  (6) 
50.84401455355186

>  <Genealogy>  (6) 
COc1ccc(CN2CN(Cc3ccccc3)CS2(=O)=O)cc1 (3D coordinates assigned)
COc1ccc(CN2CN(Cc3ccccc3)CS2(=O)=O)cc1 (nonaromatic ring conformer: 50.84401455355186 kcal/mol)

>  <smiles>  (6) 
COc1ccc(CN2CN(Cc3ccccc3)CS2(=O)=O)cc1

>  <score_type>  (6) 
oracle

>  <origin>  (6) 
adg

>  <m_score__min__energy>  (6) 
-7.5499999999999998

>  <m_primary>  (6) 
energy

$$$$
6:0
     RDKit          3D

 28 28  0  0  0  0  0  0  0  0999 V2000
   58.1510   26.8910   44.5020 C   0  0  0  0  0  0  0  0  0  0  0  0
   57.0900   28.0290   45.4440 S   0  0  0  0  0  0  0  0  0  0  0  0
   57.8180   29.5440   44.7220 C   0  0  0  0  0  0  0  0  0  0  0  0
   56.8870   30.1650   43.6600 C   0  0  2  0  0  0  0  0  0  0  0  0
   56.6380   29.2050   42.5760 N   0  0  0  0  0  0  0  0  0  0  0  0
   57.4080   31.5180   43.1050 C   0  0  0  0  0  0  0  0  0  0  0  0
   57.7550   32.5250   44.1750 C   0  0  0  0  0  0  0  0  0  0  0  0
   57.0380   32.5550   45.3830 C   0  0  0  0  0  0  0  0  0  0  0  0
   57.3550   33.4960   46.3680 C   0  0  0  0  0  0  0  0  0  0  0  0
   58.3900   34.4090   46.1580 C   0  0  0  0  0  0  0  0  0  0  0  0
   59.1130   34.3830   44.9630 C   0  0  0  0  0  0  0  0  0  0  0  0
   58.8000   33.4440   43.9750 C   0  0  0  0  0  0  0  0  0  0  0  0
   58.7312   26.2687   45.1993 H   0  0  0  0  0  0  0  0  0  0  0  0
   57.5248   26.2455   43.8685 H   0  0  0  0  0  0  0  0  0  0  0  0
   58.8387   27.4705   43.8685 H   0  0  0  0  0  0  0  0  0  0  0  0
   57.9856   30.2779   45.5241 H   0  0  0  0  0  0  0  0  0  0  0  0
   58.7668   29.2741   44.2353 H   0  0  0  0  0  0  0  0  0  0  0  0
   55.9357   30.3929   44.1630 H   0  0  0  0  0  0  0  0  0  0  0  0
   55.8890   29.5530   41.9360 H   0  0  0  0  0  0  0  0  0  0  0  0
   56.3570   28.2790   42.9720 H   0  0  0  0  0  0  0  0  0  0  0  0
   57.5150   29.0660   42.0220 H   0  0  0  0  0  0  0  0  0  0  0  0
   58.3106   31.3227   42.5073 H   0  0  0  0  0  0  0  0  0  0  0  0
   56.5928   31.9537   42.5087 H   0  0  0  0  0  0  0  0  0  0  0  0
   56.2240   31.8354   45.5547 H   0  0  0  0  0  0  0  0  0  0  0  0
   56.7876   33.5167   47.3101 H   0  0  0  0  0  0  0  0  0  0  0  0
   58.6363   35.1490   46.9337 H   0  0  0  0  0  0  0  0  0  0  0  0
   59.9293   35.1018   44.7990 H   0  0  0  0  0  0  0  0  0  0  0  0
   59.3742   33.4244   43.0369 H   0  0  0  0  0  0  0  0  0  0  0  0
  1  2  1  0
  2  3  1  0
  3  4  1  0
  4  5  1  0
  4  6  1  0
  6  7  1  0
  7  8  2  0
  8  9  1  0
  9 10  2  0
 10 11  1  0
 11 12  2  0
 12  7  1  0
  1 13  1  0
  1 14  1  0
  1 15  1  0
  3 16  1  0
  3 17  1  0
  4 18  1  1
  5 19  1  0
  5 20  1  0
  5 21  1  0
  6 22  1  0
  6 23  1  0
  8 24  1  0
  9 25  1  0
 10 26  1  0
 11 27  1  0
 12 28  1  0
M  CHG  1   5   1
M  END
>  <UniqueID>  (7) 
6

>  <SMILES>  (7) 
CSC[C@H]([NH3+])Cc1ccccc1

>  <Energy>  (7) 
19.240626499518385

>  <Genealogy>  (7) 
CSCC([NH3+])Cc1ccccc1 (protonated)
CSC[C@H]([NH3+])Cc1ccccc1 (chirality)
CSC[C@H]([NH3+])Cc1ccccc1 (3D coordinates assigned)
CSC[C@H]([NH3+])Cc1ccccc1 (optimized conformer: 19.240626499518385 kcal/mol)

>  <smiles>  (7) 
CSCC(N)Cc1ccccc1

>  <score_type>  (7) 
oracle

>  <origin>  (7) 
adg

>  <m_score__min__energy>  (7) 
-3.8799999999999999

>  <m_primary>  (7) 
energy

$$$$
7:0
     RDKit          3D

 40 42  0  0  0  0  0  0  0  0999 V2000
   60.5990   29.1390   50.4290 C   0  0  0  0  0  0  0  0  0  0  0  0
   60.6120   29.8900   49.2450 O   0  0  0  0  0  0  0  0  0  0  0  0
   60.2910   29.4090   47.9830 C   0  0  0  0  0  0  0  0  0  0  0  0
   59.5950   28.1970   47.8930 C   0  0  0  0  0  0  0  0  0  0  0  0
   59.2680   27.7040   46.6450 C   0  0  0  0  0  0  0  0  0  0  0  0
   59.6090   28.3780   45.4840 C   0  0  0  0  0  0  0  0  0  0  0  0
   59.2600   27.8540   44.1540 C   0  0  0  0  0  0  0  0  0  0  0  0
   57.7910   27.9570   43.8460 C   0  0  0  0  0  0  0  0  0  0  0  0
   57.3660   29.2320   43.3550 N   0  0  0  0  0  0  0  0  0  0  0  0
   56.6250   30.0610   44.7030 S   0  0  0  0  0  0  0  0  0  0  0  0
   56.7900   29.2620   45.9620 O   0  0  0  0  0  0  0  0  0  0  0  0
   55.1870   30.3400   44.4470 O   0  0  0  0  0  0  0  0  0  0  0  0
   57.4990   31.5770   44.9720 C   0  0  0  0  0  0  0  0  0  0  0  0
   57.8590   32.3850   43.8930 C   0  0  0  0  0  0  0  0  0  0  0  0
   58.5320   33.5550   44.0870 C   0  0  0  0  0  0  0  0  0  0  0  0
   58.8530   33.9300   45.3800 C   0  0  0  0  0  0  0  0  0  0  0  0
   59.5040   35.0170   45.8650 N   0  0  0  0  0  0  0  0  0  0  0  0
   59.5610   34.9190   47.1810 N   0  0  0  0  0  0  0  0  0  0  0  0
   58.9590   33.7820   47.5910 C   0  0  0  0  0  0  0  0  0  0  0  0
   58.5050   33.1430   46.4680 C   0  0  0  0  0  0  0  0  0  0  0  0
   57.8230   31.9600   46.2620 C   0  0  0  0  0  0  0  0  0  0  0  0
   60.2940   29.5750   45.5770 C   0  0  0  0  0  0  0  0  0  0  0  0
   60.6310   30.0830   46.8240 C   0  0  0  0  0  0  0  0  0  0  0  0
   60.6108   29.8182   51.2942 H   0  0  0  0  0  0  0  0  0  0  0  0
   59.6900   28.5204   50.4608 H   0  0  0  0  0  0  0  0  0  0  0  0
   61.4860   28.4893   50.4608 H   0  0  0  0  0  0  0  0  0  0  0  0
   59.3131   27.6461   48.8024 H   0  0  0  0  0  0  0  0  0  0  0  0
   58.7227   26.7515   46.5712 H   0  0  0  0  0  0  0  0  0  0  0  0
   59.8174   28.4237   43.3959 H   0  0  0  0  0  0  0  0  0  0  0  0
   59.5234   26.7861   44.1427 H   0  0  0  0  0  0  0  0  0  0  0  0
   57.5473   27.1998   43.0862 H   0  0  0  0  0  0  0  0  0  0  0  0
   57.2645   27.8026   44.7994 H   0  0  0  0  0  0  0  0  0  0  0  0
   58.1550   29.7900   42.9980 H   0  0  0  0  0  0  0  0  0  0  0  0
   57.5962   32.0738   42.8712 H   0  0  0  0  0  0  0  0  0  0  0  0
   58.8141   34.1881   43.2329 H   0  0  0  0  0  0  0  0  0  0  0  0
   59.9080   35.8210   45.3110 H   0  0  0  0  0  0  0  0  0  0  0  0
   58.8533   33.4350   48.6295 H   0  0  0  0  0  0  0  0  0  0  0  0
   57.5396   31.3273   47.1160 H   0  0  0  0  0  0  0  0  0  0  0  0
   60.5714   30.1237   44.6649 H   0  0  0  0  0  0  0  0  0  0  0  0
   61.1766   31.0358   46.8915 H   0  0  0  0  0  0  0  0  0  0  0  0
  1  2  1  0
  2  3  1  0
  3  4  2  0
  4  5  1  0
  5  6  2  0
  6  7  1  0
  7  8  1  0
  8  9  1  0
  9 10  1  0
 10 11  2  0
 10 12  2  0
 10 13  1  0
 13 14  2  0
 14 15  1  0
 15 16  2  0
 16 17  1  0
 17 18  1  0
 18 19  2  0
 19 20  1  0
 20 21  2  0
  6 22  1  0
 22 23  2  0
 23  3  1  0
 21 13  1  0
 20 16  1  0
  1 24  1  0
  1 25  1  0
  1 26  1  0
  4 27  1  0
  5 28  1  0
  7 29  1  0
  7 30  1  0
  8 31  1  0
  8 32  1  0
  9 33  1  0
 14 34  1  0
 15 35  1  0
 17 36  1  0
 19 37  1  0
 21 38  1  0
 22 39  1  0
 23 40  1  0
M  END
>  <smiles>  (8) 
COc1ccc(CCNS(=O)(=O)c2ccc3[nH]ncc3c2)cc1

>  <score_type>  (8) 
oracle

>  <origin>  (8) 
adg

>  <m_score__min__energy>  (8) 
-8.1500000000000004

>  <m_primary>  (8) 
energy

$$$$
8:0
     RDKit          3D

 38 40  0  0  1  0  0  0  0  0999 V2000
   60.3690   30.0420   46.5170 C   0  0  0  0  0  0  0  0  0  0  0  0
   60.7520   30.6740   47.7150 O   0  0  0  0  0  0  0  0  0  0  0  0
   61.6380   31.7340   47.7710 C   0  0  0  0  0  0  0  0  0  0  0  0
   62.8540   31.6840   47.1230 C   0  0  0  0  0  0  0  0  0  0  0  0
   63.7560   32.7370   47.1670 C   0  0  0  0  0  0  0  0  0  0  0  0
   63.3850   33.8490   47.8930 C   0  0  0  0  0  0  0  0  0  0  0  0
   62.1720   33.8970   48.5390 C   0  0  0  0  0  0  0  0  0  0  0  0
   61.2560   32.8530   48.5060 C   0  0  0  0  0  0  0  0  0  0  0  0
   59.9640   32.9490   49.2150 C   0  0  0  0  0  0  0  0  0  0  0  0
   59.0390   33.8890   48.6110 N   0  0  0  0  0  0  0  0  0  0  0  0
   58.9390   33.9220   47.3210 C   0  0  0  0  0  0  0  0  0  0  0  0
   58.3370   32.9170   46.5870 C   0  0  0  0  0  0  0  0  0  0  0  0
   58.2550   32.9990   45.1940 C   0  0  0  0  0  0  0  0  0  0  0  0
   57.6170   31.9190   44.4610 C   0  0  0  0  0  0  0  0  0  0  0  0
   57.5600   31.8850   43.1040 C   0  0  0  0  0  0  0  0  0  0  0  0
   56.9490   30.8480   42.3910 C   0  0  0  0  0  0  0  0  0  0  0  0
   56.3740   29.8050   43.0870 C   0  0  0  0  0  0  0  0  0  0  0  0
   56.4440   29.8620   44.4640 C   0  0  0  0  0  0  0  0  0  0  0  0
   57.0400   30.8770   45.1280 N   0  0  0  0  0  0  0  0  0  0  0  0
   58.7820   34.0860   44.6330 N   0  0  0  0  0  0  0  0  0  0  0  0
   59.3750   35.0840   45.3160 C   0  0  0  0  0  0  0  0  0  0  0  0
   59.4410   34.9790   46.6590 N   0  0  0  0  0  0  0  0  0  0  0  0
   59.8118   29.1225   46.7494 H   0  0  0  0  0  0  0  0  0  0  0  0
   59.7299   30.7203   45.9327 H   0  0  0  0  0  0  0  0  0  0  0  0
   61.2661   29.7893   45.9327 H   0  0  0  0  0  0  0  0  0  0  0  0
   63.1172   30.7807   46.5532 H   0  0  0  0  0  0  0  0  0  0  0  0
   64.7236   32.6871   46.6462 H   0  0  0  0  0  0  0  0  0  0  0  0
   64.0682   34.7088   47.9562 H   0  0  0  0  0  0  0  0  0  0  0  0
   61.9154   34.8030   49.1076 H   0  0  0  0  0  0  0  0  0  0  0  0
   59.4951   31.9540   49.2198 H   0  0  0  0  0  0  0  0  0  0  0  0
   60.1792   33.3148   50.2298 H   0  0  0  0  0  0  0  0  0  0  0  0
   57.9175   32.0422   47.1054 H   0  0  0  0  0  0  0  0  0  0  0  0
   58.0157   32.7118   42.5394 H   0  0  0  0  0  0  0  0  0  0  0  0
   56.9274   30.8641   41.2913 H   0  0  0  0  0  0  0  0  0  0  0  0
   55.8831   28.9678   42.5691 H   0  0  0  0  0  0  0  0  0  0  0  0
   55.9946   29.0448   45.0472 H   0  0  0  0  0  0  0  0  0  0  0  0
   58.7480   34.1970   43.5970 H   0  0  0  0  0  0  0  0  0  0  0  0
   59.7926   35.9578   44.7945 H   0  0  0  0  0  0  0  0  0  0  0  0
  1  2  1  0
  2  3  1  0
  3  4  2  0
  4  5  1  0
  5  6  2  0
  6  7  1  0
  7  8  2  0
  8  9  1  0
  9 10  1  0
 10 11  2  0
 11 12  1  0
 12 13  2  0
 13 14  1  0
 14 15  2  0
 15 16  1  0
 16 17  2  0
 17 18  1  0
 18 19  2  0
 13 20  1  0
 20 21  1  0
 21 22  2  0
  8  3  1  0
 22 11  1  0
 19 14  1  0
  1 23  1  0
  1 24  1  0
  1 25  1  0
  4 26  1  0
  5 27  1  0
  6 28  1  0
  7 29  1  0
  9 30  1  0
  9 31  1  0
 12 32  1  0
 15 33  1  0
 16 34  1  0
 17 35  1  0
 18 36  1  0
 20 37  1  0
 21 38  1  0
M  END
>  <smiles>  (9) 
COc1ccccc1CN=c1cc(-c2ccccn2)[nH]cn1

>  <score_type>  (9) 
oracle

>  <origin>  (9) 
adg

>  <m_score__min__energy>  (9) 
-7.5599999999999996

>  <m_primary>  (9) 
energy

$$$$
9:0
     RDKit          3D

 41 42  0  0  0  0  0  0  0  0999 V2000
   59.2820   35.3200   45.1550 C   0  0  0  0  0  0  0  0  0  0  0  0
   59.0660   34.1140   45.9790 N   0  0  0  0  0  0  0  0  0  0  0  0
   59.2720   34.4380   47.4090 C   0  0  0  0  0  0  0  0  0  0  0  0
   60.4830   33.6790   48.0070 C   0  0  0  0  0  0  0  0  0  0  0  0
   61.3540   32.9690   47.0300 N   0  0  0  0  0  0  0  0  0  0  0  0
   61.8680   31.6570   47.5210 C   0  0  0  0  0  0  0  0  0  0  0  0
   63.3950   31.5990   47.6290 C   0  0  0  0  0  0  0  0  0  0  0  0
   63.8970   32.8790   48.1160 N   0  0  0  0  0  0  0  0  0  0  0  0
   63.7320   33.9110   47.0890 C   0  0  0  0  0  0  0  0  0  0  0  0
   62.3620   33.8420   46.3730 C   0  0  0  0  0  0  0  0  0  0  0  0
   57.7060   33.5780   45.7360 C   0  0  0  0  0  0  0  0  0  0  0  0
   57.7820   32.1290   45.3410 C   0  0  0  0  0  0  0  0  0  0  0  0
   57.0760   31.6530   44.2230 C   0  0  0  0  0  0  0  0  0  0  0  0
   57.1740   30.3100   43.8470 C   0  0  0  0  0  0  0  0  0  0  0  0
   57.9810   29.4350   44.5790 C   0  0  0  0  0  0  0  0  0  0  0  0
   58.6880   29.9010   45.6900 C   0  0  0  0  0  0  0  0  0  0  0  0
   58.5920   31.2430   46.0700 C   0  0  0  0  0  0  0  0  0  0  0  0
   59.4377   36.1892   45.8109 H   0  0  0  0  0  0  0  0  0  0  0  0
   60.1687   35.1763   44.5201 H   0  0  0  0  0  0  0  0  0  0  0  0
   58.4005   35.4930   44.5201 H   0  0  0  0  0  0  0  0  0  0  0  0
   59.4473   35.5196   47.5065 H   0  0  0  0  0  0  0  0  0  0  0  0
   58.3716   34.1298   47.9605 H   0  0  0  0  0  0  0  0  0  0  0  0
   61.1057   34.4090   48.5450 H   0  0  0  0  0  0  0  0  0  0  0  0
   60.0548   32.8945   48.6482 H   0  0  0  0  0  0  0  0  0  0  0  0
   60.6880   32.7250   46.2570 H   0  0  0  0  0  0  0  0  0  0  0  0
   61.4413   31.4669   48.5169 H   0  0  0  0  0  0  0  0  0  0  0  0
   61.5672   30.8966   46.7853 H   0  0  0  0  0  0  0  0  0  0  0  0
   63.6830   30.8016   48.3299 H   0  0  0  0  0  0  0  0  0  0  0  0
   63.8249   31.3895   46.6384 H   0  0  0  0  0  0  0  0  0  0  0  0
   64.9200   32.7760   48.3120 H   0  0  0  0  0  0  0  0  0  0  0  0
   63.8285   34.8977   47.5656 H   0  0  0  0  0  0  0  0  0  0  0  0
   64.5084   33.7432   46.3280 H   0  0  0  0  0  0  0  0  0  0  0  0
   61.9508   34.8611   46.3238 H   0  0  0  0  0  0  0  0  0  0  0  0
   62.5535   33.4006   45.3838 H   0  0  0  0  0  0  0  0  0  0  0  0
   57.1083   33.6734   46.6545 H   0  0  0  0  0  0  0  0  0  0  0  0
   57.2357   34.1480   44.9212 H   0  0  0  0  0  0  0  0  0  0  0  0
   56.4437   32.3399   43.6413 H   0  0  0  0  0  0  0  0  0  0  0  0
   56.6152   29.9417   42.9740 H   0  0  0  0  0  0  0  0  0  0  0  0
   58.0595   28.3792   44.2803 H   0  0  0  0  0  0  0  0  0  0  0  0
   59.3213   29.2109   46.2668 H   0  0  0  0  0  0  0  0  0  0  0  0
   59.1532   31.6064   46.9435 H   0  0  0  0  0  0  0  0  0  0  0  0
  1  2  1  0
  2  3  1  0
  3  4  1  0
  4  5  1  0
  5  6  1  0
  6  7  1  0
  7  8  1  0
  8  9  1  0
  9 10  1  0
  2 11  1  0
 11 12  1  0
 12 13  2  0
 13 14  1  0
 14 15  2  0
 15 16  1  0
 16 17  2  0
 10  5  1  0
 17 12  1  0
  1 18  1  0
  1 19  1  0
  1 20  1  0
  3 21  1  0
  3 22  1  0
  4 23  1  0
  4 24  1  0
  5 25  1  0
  6 26  1  0
  6 27  1  0
  7 28  1  0
  7 29  1  0
  8 30  1  0
  9 31  1  0
  9 32  1  0
 10 33  1  0
 10 34  1  0
 11 35  1  0
 11 36  1  0
 13 37  1  0
 14 38  1  0
 15 39  1  0
 16 40  1  0
 17 41  1  0
M  CHG  1   5   1
M  END
>  <UniqueID>  (10) 
7

>  <SMILES>  (10) 
CN(CC[NH+]1CCNCC1)Cc1ccccc1

>  <Energy>  (10) 
56.671840748342525

>  <Genealogy>  (10) 
CN(CC[NH+]1CCNCC1)Cc1ccccc1 (protonated)
CN(CC[NH+]1CCNCC1)Cc1ccccc1 (3D coordinates assigned)
CN(CC[NH+]1CCNCC1)Cc1ccccc1 (nonaromatic ring conformer: 56.671840748342525 kcal/mol)

>  <smiles>  (10) 
CN(CCN1CCNCC1)Cc1ccccc1

>  <score_type>  (10) 
oracle

>  <origin>  (10) 
adg

>  <m_score__min__energy>  (10) 
-5.4199999999999999

>  <m_primary>  (10) 
energy

$$$$
10:0
     RDKit          3D

 32 33  0  0  0  0  0  0  0  0999 V2000
   59.6554   34.4661   44.1984 H   0  0  0  0  0  0  0  0  0  0  0  0
   59.1000   34.2460   45.1220 C   0  0  0  0  0  0  0  0  0  0  0  0
   57.2970   31.7120   45.2650 N   0  0  0  0  0  0  0  0  0  0  0  0
   56.7760   31.0670   44.1290 N   0  0  0  0  0  0  0  0  0  0  0  0
   57.0970   31.2200   42.8210 C   0  0  0  0  0  0  0  0  0  0  0  0
   58.0720   32.2130   42.2550 C   0  0  0  0  0  0  0  0  0  0  0  0
   59.0786   31.7694   42.2533 H   0  0  0  0  0  0  0  0  0  0  0  0
   58.0541   33.1193   42.8782 H   0  0  0  0  0  0  0  0  0  0  0  0
   57.6910   32.5930   40.8290 C   0  0  0  0  0  0  0  0  0  0  0  0
   56.9123   33.3696   40.8521 H   0  0  0  0  0  0  0  0  0  0  0  0
   58.5771   32.9777   40.3029 H   0  0  0  0  0  0  0  0  0  0  0  0
   57.3086   31.7059   40.3029 H   0  0  0  0  0  0  0  0  0  0  0  0
   56.4900   30.2800   42.0610 N   0  0  0  0  0  0  0  0  0  0  0  0
   55.7980   29.5120   42.8920 N   0  0  0  0  0  0  0  0  0  0  0  0
   55.2300   28.6830   42.6080 H   0  0  0  0  0  0  0  0  0  0  0  0
   55.9950   29.9780   44.1340 C   0  0  0  0  0  0  0  0  0  0  0  0
   55.5150   29.4500   45.1720 O   0  0  0  0  0  0  0  0  0  0  0  0
   57.0100   32.9380   45.5770 C   0  0  0  0  0  0  0  0  0  0  0  0
   56.1813   33.1376   46.2723 H   0  0  0  0  0  0  0  0  0  0  0  0
   57.7740   34.0710   45.0170 C   0  0  0  0  0  0  0  0  0  0  0  0
   57.2075   34.8368   44.4668 H   0  0  0  0  0  0  0  0  0  0  0  0
   59.8750   34.1670   46.3780 C   0  0  0  0  0  0  0  0  0  0  0  0
   61.2380   33.8130   46.3750 C   0  0  0  0  0  0  0  0  0  0  0  0
   61.7379   33.5648   45.4271 H   0  0  0  0  0  0  0  0  0  0  0  0
   61.9580   33.7760   47.5730 C   0  0  0  0  0  0  0  0  0  0  0  0
   63.0179   33.4819   47.5680 H   0  0  0  0  0  0  0  0  0  0  0  0
   61.3330   34.1120   48.7760 C   0  0  0  0  0  0  0  0  0  0  0  0
   61.8991   34.0757   49.7185 H   0  0  0  0  0  0  0  0  0  0  0  0
   59.9900   34.4940   48.7830 C   0  0  0  0  0  0  0  0  0  0  0  0
   59.5012   34.7655   49.7303 H   0  0  0  0  0  0  0  0  0  0  0  0
   59.2650   34.5320   47.5870 C   0  0  0  0  0  0  0  0  0  0  0  0
   58.2119   34.8496   47.5950 H   0  0  0  0  0  0  0  0  0  0  0  0
  1  2  1  0
  2  3  2  0
  3  4  1  0
  4  5  1  0
  5  6  1  0
  6  7  1  0
  6  8  1  0
  6  9  1  0
  9 10  1  0
  9 11  1  0
  9 12  1  0
  5 13  2  0
 13 14  1  0
 14 15  1  0
 14 16  1  0
 16 17  2  0
  2 18  1  0
 18 19  1  0
 18 20  2  0
 20 21  1  0
 20 22  1  0
 22 23  2  0
 23 24  1  0
 23 25  1  0
 25 26  1  0
 25 27  2  0
 27 28  1  0
 27 29  1  0
 29 30  1  0
 29 31  2  0
 31 32  1  0
 16  4  1  0
 31 22  1  0
M  END
>  <UniqueID>  (11) 
8

>  <SMILES>  (11) 
CCc1n[nH]c(=O)n1N=C/C=C\c1ccccc1

>  <Energy>  (11) 
78.93206137926991

>  <Genealogy>  (11) 
CCc1n[nH]c(=O)n1N=C/C=C\c1ccccc1 (cis-trans isomerization)
CCc1n[nH]c(=O)n1N=C/C=C\c1ccccc1 (3D coordinates assigned)
CCc1n[nH]c(=O)n1N=C/C=C\c1ccccc1 (optimized conformer: 78.93206137926991 kcal/mol)

>  <smiles>  (11) 
CCc1n[nH]c(=O)n1N=CC=Cc1ccccc1

>  <score_type>  (11) 
oracle

>  <origin>  (11) 
adg

>  <m_score__min__energy>  (11) 
-7.7999999999999998

>  <m_primary>  (11) 
energy

$$$$
11:0
     RDKit          3D

 50 54  0  0  0  0  0  0  0  0999 V2000
   60.4320   27.3090   48.4590 C   0  0  0  0  0  0  0  0  0  0  0  0
   60.1030   28.3720   48.9290 C   0  0  0  0  0  0  0  0  0  0  0  0
   59.7070   29.6580   49.5120 C   0  0  0  0  0  0  0  0  0  0  0  0
   60.6530   30.7060   49.0970 N   0  0  0  0  0  0  0  0  0  0  0  0
   61.8370   30.9240   49.7830 C   0  0  0  0  0  0  0  0  0  0  0  0
   62.0930   30.2440   50.8220 O   0  0  0  0  0  0  0  0  0  0  0  0
   62.7210   31.9140   49.3710 N   0  0  0  0  0  0  0  0  0  0  0  0
   63.9990   32.0900   50.0860 C   0  0  0  0  0  0  0  0  0  0  0  0
   62.4490   32.6690   48.2530 C   0  0  0  0  0  0  0  0  0  0  0  0
   63.2170   33.5990   47.8840 O   0  0  0  0  0  0  0  0  0  0  0  0
   61.3120   32.3710   47.5240 C   0  0  0  0  0  0  0  0  0  0  0  0
   60.4510   31.4050   47.9450 C   0  0  0  0  0  0  0  0  0  0  0  0
   59.2870   31.5160   47.2670 N   0  0  0  0  0  0  0  0  0  0  0  0
   59.5420   32.5030   46.3710 C   0  0  0  0  0  0  0  0  0  0  0  0
   60.7500   33.0460   46.5090 N   0  0  0  0  0  0  0  0  0  0  0  0
   60.7110   34.4750   46.2330 C   0  0  0  0  0  0  0  0  0  0  0  0
   59.2640   34.7100   45.7210 C   0  0  0  0  0  0  0  0  0  0  0  0
   58.5750   33.4330   45.9030 N   0  0  0  0  0  0  0  0  0  0  0  0
   57.2810   33.1040   45.3050 C   0  0  0  0  0  0  0  0  0  0  0  0
   57.4470   32.1660   44.0950 C   0  0  0  0  0  0  0  0  0  0  0  0
   57.1210   30.7380   44.4360 C   0  0  0  0  0  0  0  0  0  0  0  0
   55.8510   30.1640   44.4890 C   0  0  0  0  0  0  0  0  0  0  0  0
   55.9400   28.8530   44.8190 N   0  0  0  0  0  0  0  0  0  0  0  0
   57.2520   28.5970   44.9590 C   0  0  0  0  0  0  0  0  0  0  0  0
   57.8420   27.3810   45.3040 C   0  0  0  0  0  0  0  0  0  0  0  0
   59.2440   27.3390   45.4100 C   0  0  0  0  0  0  0  0  0  0  0  0
   60.0190   28.4990   45.1640 C   0  0  0  0  0  0  0  0  0  0  0  0
   59.3990   29.7090   44.8140 C   0  0  0  0  0  0  0  0  0  0  0  0
   58.0090   29.7190   44.7240 C   0  0  0  0  0  0  0  0  0  0  0  0
   60.7316   26.3410   48.0310 H   0  0  0  0  0  0  0  0  0  0  0  0
   58.6965   29.9203   49.1656 H   0  0  0  0  0  0  0  0  0  0  0  0
   59.7134   29.5767   50.6090 H   0  0  0  0  0  0  0  0  0  0  0  0
   63.8187   32.0652   51.1708 H   0  0  0  0  0  0  0  0  0  0  0  0
   64.6883   31.2783   49.8102 H   0  0  0  0  0  0  0  0  0  0  0  0
   64.4432   33.0578   49.8102 H   0  0  0  0  0  0  0  0  0  0  0  0
   58.3690   31.0690   47.4740 H   0  0  0  0  0  0  0  0  0  0  0  0
   60.9034   35.0566   47.1466 H   0  0  0  0  0  0  0  0  0  0  0  0
   61.4766   34.7910   45.5091 H   0  0  0  0  0  0  0  0  0  0  0  0
   58.7718   35.4998   46.3075 H   0  0  0  0  0  0  0  0  0  0  0  0
   59.2499   35.0362   44.6706 H   0  0  0  0  0  0  0  0  0  0  0  0
   56.6531   32.6079   46.0597 H   0  0  0  0  0  0  0  0  0  0  0  0
   56.8105   34.0365   44.9599 H   0  0  0  0  0  0  0  0  0  0  0  0
   56.7743   32.5011   43.2918 H   0  0  0  0  0  0  0  0  0  0  0  0
   58.4995   32.2062   43.7777 H   0  0  0  0  0  0  0  0  0  0  0  0
   54.9108   30.6995   44.2910 H   0  0  0  0  0  0  0  0  0  0  0  0
   55.1500   28.1800   44.9280 H   0  0  0  0  0  0  0  0  0  0  0  0
   57.2312   26.4847   45.4871 H   0  0  0  0  0  0  0  0  0  0  0  0
   59.7425   26.3981   45.6861 H   0  0  0  0  0  0  0  0  0  0  0  0
   61.1148   28.4513   45.2478 H   0  0  0  0  0  0  0  0  0  0  0  0
   59.9894   30.6162   44.6180 H   0  0  0  0  0  0  0  0  0  0  0  0
  1  2  3  0
  2  3  1  0
  3  4  1  0
  4  5  1  0
  5  6  2  0
  5  7  1  0
  7  8  1  0
  7  9  1  0
  9 10  2  0
  9 11  1  0
 11 12  2  0
 12 13  1  0
 13 14  2  0
 14 15  1  0
 15 16  1  0
 16 17  1  0
 17 18  1  0
 18 19  1  0
 19 20  1  0
 20 21  1  0
 21 22  2  0
 22 23  1  0
 23 24  1  0
 24 25  2  0
 25 26  1  0
 26 27  2  0
 27 28  1  0
 28 29  2  0
 12  4  1  0
 18 14  1  0
 29 21  1  0
 15 11  1  0
 29 24  1  0
  1 30  1  0
  3 31  1  0
  3 32  1  0
  8 33  1  0
  8 34  1  0
  8 35  1  0
 13 36  1  0
 16 37  1  0
 16 38  1  0
 17 39  1  0
 17 40  1  0
 19 41  1  0
 19 42  1  0
 20 43  1  0
 20 44  1  0
 22 45  1  0
 23 46  1  0
 25 47  1  0
 26 48  1  0
 27 49  1  0
 28 50  1  0
M  CHG  1  13   1
M  END
>  <UniqueID>  (12) 
9

>  <SMILES>  (12) 
C#CCn1c(=O)n(C)c(=O)c2c1[nH+]c1n2CCN1CCc1c[nH]c2ccccc12

>  <Energy>  (12) 
163.40478476445037

>  <Genealogy>  (12) 
C#CCn1c(=O)n(C)c(=O)c2c1[nH+]c1n2CCN1CCc1c[nH]c2ccccc12 (protonated)
C#CCn1c(=O)n(C)c(=O)c2c1[nH+]c1n2CCN1CCc1c[nH]c2ccccc12 (3D coordinates assigned)
C#CCn1c(=O)n(C)c(=O)c2c1[nH+]c1n2CCN1CCc1c[nH]c2ccccc12 (nonaromatic ring conformer: 163.40478476445037 kcal/mol)

>  <smiles>  (12) 
C#CCn1c(=O)n(C)c(=O)c2c1nc1n2CCN1CCc1c[nH]c2ccccc12

>  <score_type>  (12) 
oracle

>  <origin>  (12) 
adg

>  <m_score__min__energy>  (12) 
-6.9100000000000001

>  <m_primary>  (12) 
energy

$$$$
12:0
     RDKit          3D

 62 64  0  0  0  0  0  0  0  0999 V2000
   63.0590   33.1060   48.4760 C   0  0  0  0  0  0  0  0  0  0  0  0
   62.7270   33.4450   47.0220 C   0  0  0  0  0  0  0  0  0  0  0  0
   61.2430   33.2070   46.7170 C   0  0  0  0  0  0  0  0  0  0  0  0
   60.3480   34.3840   47.1760 C   0  0  0  0  0  0  0  0  0  0  0  0
   59.3000   34.7900   46.1260 C   0  0  0  0  0  0  0  0  0  0  0  0
   58.0860   33.8450   46.0630 C   0  0  0  0  0  0  0  0  0  0  0  0
   57.6970   33.4470   44.6190 C   0  0  0  0  0  0  0  0  0  0  0  0
   58.0150   31.9770   44.3160 C   0  0  0  0  0  0  0  0  0  0  0  0
   56.7630   31.2240   43.8500 C   0  0  0  0  0  0  0  0  0  0  0  0
   56.3470   30.2530   44.8580 N   0  0  0  0  0  0  0  0  0  0  0  0
   56.6750   28.8570   44.8110 C   0  0  0  0  0  0  0  0  0  0  0  0
   55.8940   28.0020   45.3110 O   0  0  0  0  0  0  0  0  0  0  0  0
   57.9810   28.4240   44.1970 C   0  0  0  0  0  0  0  0  0  0  0  0
   59.0930   28.3510   45.1710 N   0  0  0  0  0  0  0  0  0  0  0  0
   58.7780   27.5980   46.4110 C   0  0  0  0  0  0  0  0  0  0  0  0
   58.4130   28.5110   47.5960 C   0  0  0  0  0  0  0  0  0  0  0  0
   59.4250   29.6730   47.8450 C   0  0  0  0  0  0  0  0  0  0  0  0
   60.4840   29.7450   46.7200 C   0  0  0  0  0  0  0  0  0  0  0  0
   59.8110   29.6360   45.3460 C   0  0  0  0  0  0  0  0  0  0  0  0
   58.6730   30.9030   47.8040 O   0  0  0  0  0  0  0  0  0  0  0  0
   58.7720   31.9480   48.7290 C   0  0  0  0  0  0  0  0  0  0  0  0
   59.4730   31.8090   49.8470 C   0  0  0  0  0  0  0  0  0  0  0  0
   60.1470   30.5410   50.1370 C   0  0  0  0  0  0  0  0  0  0  0  0
   60.7950   30.3590   51.3630 C   0  0  0  0  0  0  0  0  0  0  0  0
   61.4150   29.1400   51.6390 C   0  0  0  0  0  0  0  0  0  0  0  0
   61.4010   28.1410   50.7150 N   0  0  0  0  0  0  0  0  0  0  0  0
   60.7890   28.2940   49.5120 C   0  0  0  0  0  0  0  0  0  0  0  0
   60.1280   29.4950   49.1930 C   0  0  0  0  0  0  0  0  0  0  0  0
   62.4488   33.7291   49.1463 H   0  0  0  0  0  0  0  0  0  0  0  0
   62.8418   32.0441   48.6637 H   0  0  0  0  0  0  0  0  0  0  0  0
   64.1252   33.3010   48.6637 H   0  0  0  0  0  0  0  0  0  0  0  0
   62.9651   34.5030   46.8378 H   0  0  0  0  0  0  0  0  0  0  0  0
   63.3239   32.7913   46.3690 H   0  0  0  0  0  0  0  0  0  0  0  0
   61.1226   33.0745   45.6317 H   0  0  0  0  0  0  0  0  0  0  0  0
   60.9271   32.3107   47.2710 H   0  0  0  0  0  0  0  0  0  0  0  0
   59.8244   34.0873   48.0968 H   0  0  0  0  0  0  0  0  0  0  0  0
   61.0044   35.2519   47.3370 H   0  0  0  0  0  0  0  0  0  0  0  0
   58.9404   35.8011   46.3676 H   0  0  0  0  0  0  0  0  0  0  0  0
   59.7944   34.7428   45.1445 H   0  0  0  0  0  0  0  0  0  0  0  0
   58.3255   32.9303   46.6252 H   0  0  0  0  0  0  0  0  0  0  0  0
   57.2299   34.3837   46.4953 H   0  0  0  0  0  0  0  0  0  0  0  0
   56.6175   33.6105   44.4854 H   0  0  0  0  0  0  0  0  0  0  0  0
   58.2853   34.0686   43.9279 H   0  0  0  0  0  0  0  0  0  0  0  0
   58.7773   31.9305   43.5243 H   0  0  0  0  0  0  0  0  0  0  0  0
   58.3839   31.5031   45.2376 H   0  0  0  0  0  0  0  0  0  0  0  0
   55.9485   31.9441   43.6828 H   0  0  0  0  0  0  0  0  0  0  0  0
   56.9947   30.6910   42.9161 H   0  0  0  0  0  0  0  0  0  0  0  0
   57.8430   27.4284   43.7501 H   0  0  0  0  0  0  0  0  0  0  0  0
   58.2547   29.1817   43.4480 H   0  0  0  0  0  0  0  0  0  0  0  0
   57.9276   26.9303   46.2086 H   0  0  0  0  0  0  0  0  0  0  0  0
   59.6822   27.0392   46.6940 H   0  0  0  0  0  0  0  0  0  0  0  0
   57.4240   28.9511   47.4004 H   0  0  0  0  0  0  0  0  0  0  0  0
   58.4286   27.8802   48.4970 H   0  0  0  0  0  0  0  0  0  0  0  0
   61.0193   30.7037   46.7866 H   0  0  0  0  0  0  0  0  0  0  0  0
   61.1896   28.9097   46.8395 H   0  0  0  0  0  0  0  0  0  0  0  0
   59.0912   30.4608   45.2384 H   0  0  0  0  0  0  0  0  0  0  0  0
   60.5992   29.6878   44.5804 H   0  0  0  0  0  0  0  0  0  0  0  0
   58.2603   32.9004   48.5261 H   0  0  0  0  0  0  0  0  0  0  0  0
   59.5481   32.6463   50.5564 H   0  0  0  0  0  0  0  0  0  0  0  0
   60.8157   31.1713   52.1045 H   0  0  0  0  0  0  0  0  0  0  0  0
   61.9164   28.9860   52.6059 H   0  0  0  0  0  0  0  0  0  0  0  0
   60.8102   27.4723   48.7809 H   0  0  0  0  0  0  0  0  0  0  0  0
  1  2  1  0
  2  3  1  0
  3  4  1  0
  4  5  1  0
  5  6  1  0
  6  7  1  0
  7  8  1  0
  8  9  1  0
  9 10  1  0
 10 11  1  0
 11 12  2  0
 11 13  1  0
 13 14  1  0
 14 15  1  0
 15 16  1  0
 16 17  1  0
 17 18  1  0
 18 19  1  0
 17 20  1  0
 20 21  1  0
 21 22  2  0
 22 23  1  0
 23 24  2  0
 24 25  1  0
 25 26  2  0
 26 27  1  0
 27 28  2  0
 19 14  1  0
 28 23  1  0
 28 17  1  0
  1 29  1  0
  1 30  1  0
  1 31  1  0
  2 32  1  0
  2 33  1  0
  3 34  1  0
  3 35  1  0
  4 36  1  0
  4 37  1  0
  5 38  1  0
  5 39  1  0
  6 40  1  0
  6 41  1  0
  7 42  1  0
  7 43  1  0
  8 44  1  0
  8 45  1  0
  9 46  1  0
  9 47  1  0
 13 48  1  0
 13 49  1  0
 15 50  1  0
 15 51  1  0
 16 52  1  0
 16 53  1  0
 18 54  1  0
 18 55  1  0
 19 56  1  0
 19 57  1  0
 21 58  1  0
 22 59  1  0
 24 60  1  0
 25 61  1  0
 27 62  1  0
M  CHG  1  10  -1
M  END
>  <UniqueID>  (13) 
10

>  <SMILES>  (13) 
CCCCCCCCC[N-]C(=O)CN1CCC2(CC1)OC=Cc1ccncc12

>  <Energy>  (13) 
65.18110499569286

>  <Genealogy>  (13) 
CCCCCCCCC[N-]C(=O)CN1CCC2(CC1)OC=Cc1ccncc12 (protonated)
CCCCCCCCC[N-]C(=O)CN1CCC2(CC1)OC=Cc1ccncc12 (3D coordinates assigned)
CCCCCCCCC[N-]C(=O)CN1CCC2(CC1)OC=Cc1ccncc12 (nonaromatic ring conformer: 65.18110499569286 kcal/mol)

>  <smiles>  (13) 
CCCCCCCCCNC(=O)CN1CCC2(CC1)OC=Cc1ccncc12

>  <score_type>  (13) 
oracle

>  <origin>  (13) 
adg

>  <m_score__min__energy>  (13) 
-9.6199999999999992

>  <m_primary>  (13) 
energy

$$$$
13:0
     RDKit          3D

 47 50  0  0  1  0  0  0  0  0999 V2000
   57.6710   31.9890   41.4840 C   0  0  0  0  0  0  0  0  0  0  0  0
   57.3440   31.4150   42.8580 C   0  0  0  0  0  0  0  0  0  0  0  0
   56.7230   30.0740   42.6620 C   0  0  0  0  0  0  0  0  0  0  0  0
   55.4670   30.0670   43.6700 C   0  0  0  0  0  0  0  0  0  0  0  0
   56.1490   30.0430   44.8530 N   0  0  0  0  0  0  0  0  0  0  0  0
   57.1260   29.4280   45.2550 C   0  0  0  0  0  0  0  0  0  0  0  0
   57.1130   28.0850   45.0510 N   0  0  0  0  0  0  0  0  0  0  0  0
   58.1530   27.2810   45.2770 C   0  0  0  0  0  0  0  0  0  0  0  0
   58.1510   25.8480   45.0650 C   0  0  0  0  0  0  0  0  0  0  0  0
   58.8800   24.9560   45.8330 C   0  0  0  0  0  0  0  0  0  0  0  0
   58.8600   23.5920   45.6110 C   0  0  0  0  0  0  0  0  0  0  0  0
   58.0800   23.1170   44.5830 C   0  0  0  0  0  0  0  0  0  0  0  0
   57.3350   23.9490   43.7860 C   0  0  0  0  0  0  0  0  0  0  0  0
   57.3900   25.2970   44.0500 C   0  0  0  0  0  0  0  0  0  0  0  0
   59.2620   27.8520   45.7310 N   0  0  0  0  0  0  0  0  0  0  0  0
   59.2850   29.1760   45.9410 C   0  0  0  0  0  0  0  0  0  0  0  0
   60.7180   30.0940   46.5520 S   0  0  0  0  0  0  0  0  0  0  0  0
   59.8640   31.6060   46.5150 C   0  0  0  0  0  0  0  0  0  0  0  0
   58.4980   31.3700   46.0370 C   0  0  0  0  0  0  0  0  0  0  0  0
   58.2750   30.0840   45.7470 C   0  0  0  0  0  0  0  0  0  0  0  0
   57.8210   32.6920   46.1960 C   0  0  0  0  0  0  0  0  0  0  0  0
   58.4430   33.7310   45.2770 C   0  0  0  0  0  0  0  0  0  0  0  0
   59.8530   34.0040   45.7620 C   0  0  0  0  0  0  0  0  0  0  0  0
   60.2760   33.0110   46.8240 C   0  0  0  0  0  0  0  0  0  0  0  0
   58.2123   32.9392   41.6029 H   0  0  0  0  0  0  0  0  0  0  0  0
   58.2987   31.2764   40.9289 H   0  0  0  0  0  0  0  0  0  0  0  0
   56.7379   32.1656   40.9289 H   0  0  0  0  0  0  0  0  0  0  0  0
   58.2657   31.3164   43.4502 H   0  0  0  0  0  0  0  0  0  0  0  0
   56.6528   32.0810   43.3954 H   0  0  0  0  0  0  0  0  0  0  0  0
   56.3887   29.9475   41.6217 H   0  0  0  0  0  0  0  0  0  0  0  0
   57.4262   29.2517   42.8605 H   0  0  0  0  0  0  0  0  0  0  0  0
   54.8494   30.9715   43.5672 H   0  0  0  0  0  0  0  0  0  0  0  0
   54.7436   29.2517   43.5220 H   0  0  0  0  0  0  0  0  0  0  0  0
   56.2400   27.6140   44.6920 H   0  0  0  0  0  0  0  0  0  0  0  0
   59.4998   25.3486   46.6526 H   0  0  0  0  0  0  0  0  0  0  0  0
   59.4502   22.9072   46.2377 H   0  0  0  0  0  0  0  0  0  0  0  0
   58.0524   22.0338   44.3933 H   0  0  0  0  0  0  0  0  0  0  0  0
   56.7171   23.5525   42.9669 H   0  0  0  0  0  0  0  0  0  0  0  0
   56.7960   25.9748   43.4192 H   0  0  0  0  0  0  0  0  0  0  0  0
   56.7548   32.5833   45.9481 H   0  0  0  0  0  0  0  0  0  0  0  0
   57.9398   33.0260   47.2373 H   0  0  0  0  0  0  0  0  0  0  0  0
   58.4707   33.3483   44.2461 H   0  0  0  0  0  0  0  0  0  0  0  0
   57.8490   34.6567   45.2908 H   0  0  0  0  0  0  0  0  0  0  0  0
   60.5445   33.9321   44.9096 H   0  0  0  0  0  0  0  0  0  0  0  0
   59.8778   35.0118   46.2021 H   0  0  0  0  0  0  0  0  0  0  0  0
   61.3718   33.0420   46.9150 H   0  0  0  0  0  0  0  0  0  0  0  0
   59.7753   33.3001   47.7598 H   0  0  0  0  0  0  0  0  0  0  0  0
  1  2  1  0
  2  3  1  0
  3  4  1  0
  4  5  1  0
  5  6  2  0
  6  7  1  0
  7  8  1  0
  8  9  1  0
  9 10  2  0
 10 11  1  0
 11 12  2  0
 12 13  1  0
 13 14  2  0
  8 15  2  0
 15 16  1  0
 16 17  1  0
 17 18  1  0
 18 19  2  0
 19 20  1  0
 19 21  1  0
 21 22  1  0
 22 23  1  0
 23 24  1  0
 20  6  1  0
 14  9  1  0
 20 16  2  0
 24 18  1  0
  1 25  1  0
  1 26  1  0
  1 27  1  0
  2 28  1  0
  2 29  1  0
  3 30  1  0
  3 31  1  0
  4 32  1  0
  4 33  1  0
  7 34  1  0
 10 35  1  0
 11 36  1  0
 12 37  1  0
 13 38  1  0
 14 39  1  0
 21 40  1  0
 21 41  1  0
 22 42  1  0
 22 43  1  0
 23 44  1  0
 23 45  1  0
 24 46  1  0
 24 47  1  0
M  END
>  <smiles>  (14) 
CCCCN=c1[nH]c(-c2ccccc2)nc2sc3c(c12)CCCC3

>  <score_type>  (14) 
oracle

>  <origin>  (14) 
adg

>  <m_score__min__energy>  (14) 
-8.6400000000000006

>  <m_primary>  (14) 
energy

$$$$
14:0
     RDKit          3D

 41 42  0  0  0  0  0  0  0  0999 V2000
   58.6610   26.4100   46.4140 C   0  0  0  0  0  0  0  0  0  0  0  0
   57.6370   26.2030   45.2930 C   0  0  0  0  0  0  0  0  0  0  0  0
   58.1330   26.8280   43.9860 C   0  0  0  0  0  0  0  0  0  0  0  0
   56.2970   26.7930   45.6730 C   0  0  0  0  0  0  0  0  0  0  0  0
   55.5530   26.1690   46.4760 O   0  0  0  0  0  0  0  0  0  0  0  0
   55.8990   28.1040   45.2490 N   0  0  0  0  0  0  0  0  0  0  0  0
   56.7110   29.2870   45.2590 C   0  0  0  0  0  0  0  0  0  0  0  0
   57.6630   29.4460   46.2720 C   0  0  0  0  0  0  0  0  0  0  0  0
   58.4490   30.6020   46.3290 C   0  0  0  0  0  0  0  0  0  0  0  0
   58.2670   31.6310   45.3880 C   0  0  0  0  0  0  0  0  0  0  0  0
   59.0780   32.8180   45.4070 N   0  0  0  0  0  0  0  0  0  0  0  0
   59.1470   33.7290   46.5160 C   0  0  0  0  0  0  0  0  0  0  0  0
   58.2950   33.6790   47.4430 O   0  0  0  0  0  0  0  0  0  0  0  0
   60.2400   34.7510   46.5760 C   0  0  0  0  0  0  0  0  0  0  0  0
   61.4690   34.1510   47.2030 C   0  0  0  0  0  0  0  0  0  0  0  0
   62.5760   33.8150   46.4070 C   0  0  0  0  0  0  0  0  0  0  0  0
   63.7330   33.2930   46.9940 C   0  0  0  0  0  0  0  0  0  0  0  0
   63.7950   33.1130   48.3790 C   0  0  0  0  0  0  0  0  0  0  0  0
   62.7020   33.4570   49.1800 C   0  0  0  0  0  0  0  0  0  0  0  0
   61.5440   33.9800   48.5950 C   0  0  0  0  0  0  0  0  0  0  0  0
   57.3070   31.4710   44.3790 C   0  0  0  0  0  0  0  0  0  0  0  0
   56.5220   30.3150   44.3240 C   0  0  0  0  0  0  0  0  0  0  0  0
   58.1624   26.3092   47.3893 H   0  0  0  0  0  0  0  0  0  0  0  0
   59.4558   25.6544   46.3287 H   0  0  0  0  0  0  0  0  0  0  0  0
   59.0999   27.4150   46.3287 H   0  0  0  0  0  0  0  0  0  0  0  0
   57.5137   25.1203   45.1430 H   0  0  0  0  0  0  0  0  0  0  0  0
   58.8020   27.6710   44.2134 H   0  0  0  0  0  0  0  0  0  0  0  0
   58.6802   26.0727   43.4028 H   0  0  0  0  0  0  0  0  0  0  0  0
   57.2731   27.1893   43.4028 H   0  0  0  0  0  0  0  0  0  0  0  0
   57.7942   28.6577   47.0278 H   0  0  0  0  0  0  0  0  0  0  0  0
   59.2129   30.7065   47.1136 H   0  0  0  0  0  0  0  0  0  0  0  0
   59.6030   33.0680   44.5380 H   0  0  0  0  0  0  0  0  0  0  0  0
   60.4788   35.0897   45.5571 H   0  0  0  0  0  0  0  0  0  0  0  0
   59.9042   35.6048   47.1828 H   0  0  0  0  0  0  0  0  0  0  0  0
   62.5329   33.9629   45.3178 H   0  0  0  0  0  0  0  0  0  0  0  0
   64.5948   33.0239   46.3656 H   0  0  0  0  0  0  0  0  0  0  0  0
   64.7049   32.7002   48.8391 H   0  0  0  0  0  0  0  0  0  0  0  0
   62.7526   33.3164   50.2698 H   0  0  0  0  0  0  0  0  0  0  0  0
   60.6885   34.2585   49.2279 H   0  0  0  0  0  0  0  0  0  0  0  0
   57.1702   32.2604   43.6252 H   0  0  0  0  0  0  0  0  0  0  0  0
   55.7531   30.2116   43.5442 H   0  0  0  0  0  0  0  0  0  0  0  0
  1  2  1  0
  2  3  1  0
  2  4  1  0
  4  5  2  0
  4  6  1  0
  6  7  1  0
  7  8  2  0
  8  9  1  0
  9 10  2  0
 10 11  1  0
 11 12  1  0
 12 13  2  0
 12 14  1  0
 14 15  1  0
 15 16  2  0
 16 17  1  0
 17 18  2  0
 18 19  1  0
 19 20  2  0
 10 21  1  0
 21 22  2  0
 22  7  1  0
 20 15  1  0
  1 23  1  0
  1 24  1  0
  1 25  1  0
  2 26  1  0
  3 27  1  0
  3 28  1  0
  3 29  1  0
  8 30  1  0
  9 31  1  0
 11 32  1  0
 14 33  1  0
 14 34  1  0
 16 35  1  0
 17 36  1  0
 18 37  1  0
 19 38  1  0
 20 39  1  0
 21 40  1  0
 22 41  1  0
M  CHG  1   6  -1
M  END
>  <UniqueID>  (15) 
11

>  <SMILES>  (15) 
CC(C)C(=O)[N-]c1ccc(NC(=O)Cc2ccccc2)cc1

>  <Energy>  (15) 
42.748641355340304

>  <Genealogy>  (15) 
CC(C)C(=O)[N-]c1ccc(NC(=O)Cc2ccccc2)cc1 (protonated)
CC(C)C(=O)[N-]c1ccc(NC(=O)Cc2ccccc2)cc1 (3D coordinates assigned)
CC(C)C(=O)[N-]c1ccc(NC(=O)Cc2ccccc2)cc1 (optimized conformer: 42.748641355340304 kcal/mol)

>  <smiles>  (15) 
CC(C)C(=O)Nc1ccc(NC(=O)Cc2ccccc2)cc1

>  <score_type>  (15) 
oracle

>  <origin>  (15) 
adg

>  <m_score__min__energy>  (15) 
-9.7100000000000009

>  <m_primary>  (15) 
energy

$$$$
15:0
     RDKit          3D

 37 39  0  0  0  0  0  0  0  0999 V2000
   58.7150   24.8530   46.3730 F   0  0  0  0  0  0  0  0  0  0  0  0
   58.5730   26.1520   46.0150 C   0  0  0  0  0  0  0  0  0  0  0  0
   59.6980   26.9690   45.8900 C   0  0  0  0  0  0  0  0  0  0  0  0
   59.5540   28.3090   45.5230 C   0  0  0  0  0  0  0  0  0  0  0  0
   58.2790   28.8490   45.2690 C   0  0  0  0  0  0  0  0  0  0  0  0
   58.1470   30.2680   44.8670 C   0  0  0  0  0  0  0  0  0  0  0  0
   58.1030   30.7050   43.5850 N   0  0  0  0  0  0  0  0  0  0  0  0
   58.0320   32.0580   43.4890 C   0  0  0  0  0  0  0  0  0  0  0  0
   58.0140   32.7210   44.7110 C   0  0  0  0  0  0  0  0  0  0  0  0
   58.0750   34.2030   44.9130 C   0  0  0  0  0  0  0  0  0  0  0  0
   58.4740   34.4970   46.2940 N   0  0  0  0  0  0  0  0  0  0  0  0
   59.9340   34.6260   46.4330 C   0  0  0  0  0  0  0  0  0  0  0  0
   60.3980   33.9070   47.6970 C   0  0  0  0  0  0  0  0  0  0  0  0
   61.7290   33.3330   47.5000 N   0  0  0  0  0  0  0  0  0  0  0  0
   62.1720   32.1470   47.9440 C   0  0  0  0  0  0  0  0  0  0  0  0
   63.4540   31.9740   47.4740 C   0  0  0  0  0  0  0  0  0  0  0  0
   63.8110   33.0390   46.7270 N   0  0  0  0  0  0  0  0  0  0  0  0
   62.7310   33.8470   46.7620 C   0  0  0  0  0  0  0  0  0  0  0  0
   58.1170   31.5740   45.9360 S   0  0  0  0  0  0  0  0  0  0  0  0
   57.1470   28.0190   45.4140 C   0  0  0  0  0  0  0  0  0  0  0  0
   55.8930   28.5080   45.2480 F   0  0  0  0  0  0  0  0  0  0  0  0
   57.3000   26.6780   45.7820 C   0  0  0  0  0  0  0  0  0  0  0  0
   60.6998   26.5567   46.0809 H   0  0  0  0  0  0  0  0  0  0  0  0
   60.4447   28.9480   45.4316 H   0  0  0  0  0  0  0  0  0  0  0  0
   58.1720   30.0870   42.7470 H   0  0  0  0  0  0  0  0  0  0  0  0
   57.9921   32.5854   42.5245 H   0  0  0  0  0  0  0  0  0  0  0  0
   58.8105   34.6367   44.2195 H   0  0  0  0  0  0  0  0  0  0  0  0
   57.0837   34.6385   44.7193 H   0  0  0  0  0  0  0  0  0  0  0  0
   58.0380   35.4070   46.5760 H   0  0  0  0  0  0  0  0  0  0  0  0
   60.4254   34.1780   45.5567 H   0  0  0  0  0  0  0  0  0  0  0  0
   60.1998   35.6912   46.5024 H   0  0  0  0  0  0  0  0  0  0  0  0
   60.4329   34.6248   48.5298 H   0  0  0  0  0  0  0  0  0  0  0  0
   59.6908   33.0960   47.9251 H   0  0  0  0  0  0  0  0  0  0  0  0
   61.6108   31.4392   48.5717 H   0  0  0  0  0  0  0  0  0  0  0  0
   64.0907   31.1002   47.6767 H   0  0  0  0  0  0  0  0  0  0  0  0
   62.6754   34.8167   46.2456 H   0  0  0  0  0  0  0  0  0  0  0  0
   56.4139   26.0349   45.8884 H   0  0  0  0  0  0  0  0  0  0  0  0
  1  2  1  0
  2  3  2  0
  3  4  1  0
  4  5  2  0
  5  6  1  0
  6  7  2  0
  7  8  1  0
  8  9  2  0
  9 10  1  0
 10 11  1  0
 11 12  1  0
 12 13  1  0
 13 14  1  0
 14 15  1  0
 15 16  2  0
 16 17  1  0
 17 18  2  0
  9 19  1  0
  5 20  1  0
 20 21  1  0
 20 22  2  0
 22  2  1  0
 19  6  1  0
 18 14  1  0
  3 23  1  0
  4 24  1  0
  7 25  1  0
  8 26  1  0
 10 27  1  0
 10 28  1  0
 11 29  1  0
 12 30  1  0
 12 31  1  0
 13 32  1  0
 13 33  1  0
 15 34  1  0
 16 35  1  0
 18 36  1  0
 22 37  1  0
M  CHG  1   7   1
M  END
>  <UniqueID>  (16) 
12

>  <SMILES>  (16) 
Fc1ccc(-c2[nH+]cc(CNCCn3ccnc3)s2)c(F)c1

>  <Energy>  (16) 
94.10220683215884

>  <Genealogy>  (16) 
Fc1ccc(-c2[nH+]cc(CNCCn3ccnc3)s2)c(F)c1 (protonated)
Fc1ccc(-c2[nH+]cc(CNCCn3ccnc3)s2)c(F)c1 (3D coordinates assigned)
Fc1ccc(-c2[nH+]cc(CNCCn3ccnc3)s2)c(F)c1 (optimized conformer: 94.10220683215884 kcal/mol)

>  <smiles>  (16) 
Fc1ccc(-c2ncc(CNCCn3ccnc3)s2)c(F)c1

>  <score_type>  (16) 
oracle

>  <origin>  (16) 
adg

>  <m_score__min__energy>  (16) 
-5.7000000000000002

>  <m_primary>  (16) 
energy

$$$$
16:0
     RDKit          3D

 44 46  0  0  0  0  0  0  0  0999 V2000
   62.4750   31.9510   50.7480 O   0  0  0  0  0  0  0  0  0  0  0  0
   61.5090   31.7560   49.9620 C   0  0  0  0  0  0  0  0  0  0  0  0
   61.7880   31.6580   48.5090 C   0  0  0  0  0  0  0  0  0  0  0  0
   61.5190   30.5250   47.8300 C   0  0  0  0  0  0  0  0  0  0  0  0
   60.2360   30.2570   47.1460 C   0  0  0  0  0  0  0  0  0  0  0  0
   59.4120   29.2270   47.6180 C   0  0  0  0  0  0  0  0  0  0  0  0
   58.1900   28.9580   46.9920 C   0  0  0  0  0  0  0  0  0  0  0  0
   57.7820   29.7030   45.8720 C   0  0  0  0  0  0  0  0  0  0  0  0
   56.5200   29.4360   45.2320 N   0  0  0  0  0  0  0  0  0  0  0  0
   55.9080   30.3400   44.6280 O   0  0  0  0  0  0  0  0  0  0  0  0
   55.9700   28.1750   45.2720 O   0  0  0  0  0  0  0  0  0  0  0  0
   58.6280   30.7130   45.3820 C   0  0  0  0  0  0  0  0  0  0  0  0
   59.8490   30.9800   46.0070 C   0  0  0  0  0  0  0  0  0  0  0  0
   62.3690   33.1430   47.6630 S   0  0  0  0  0  0  0  0  0  0  0  0
   61.0530   34.2220   48.3200 C   0  0  0  0  0  0  0  0  0  0  0  0
   59.8710   34.1700   47.3970 C   0  0  0  0  0  0  0  0  0  0  0  0
   59.9570   34.6940   46.0970 C   0  0  0  0  0  0  0  0  0  0  0  0
   58.8650   34.6050   45.2290 C   0  0  0  0  0  0  0  0  0  0  0  0
   57.6840   33.9850   45.6480 C   0  0  0  0  0  0  0  0  0  0  0  0
   56.6270   33.8980   44.8040 F   0  0  0  0  0  0  0  0  0  0  0  0
   57.5960   33.4480   46.9360 C   0  0  0  0  0  0  0  0  0  0  0  0
   58.6860   33.5350   47.8070 C   0  0  0  0  0  0  0  0  0  0  0  0
   60.1440   31.6200   50.5270 C   0  0  0  0  0  0  0  0  0  0  0  0
   59.5480   30.3500   50.6250 C   0  0  0  0  0  0  0  0  0  0  0  0
   58.2550   30.2120   51.1410 C   0  0  0  0  0  0  0  0  0  0  0  0
   57.5400   31.3410   51.5530 C   0  0  0  0  0  0  0  0  0  0  0  0
   55.9190   31.1660   52.1990 Cl  0  0  0  0  0  0  0  0  0  0  0  0
   58.1180   32.6090   51.4440 C   0  0  0  0  0  0  0  0  0  0  0  0
   59.4090   32.7510   50.9300 C   0  0  0  0  0  0  0  0  0  0  0  0
   62.3013   29.7532   47.7819 H   0  0  0  0  0  0  0  0  0  0  0  0
   59.7271   28.6272   48.4845 H   0  0  0  0  0  0  0  0  0  0  0  0
   57.5433   28.1570   47.3794 H   0  0  0  0  0  0  0  0  0  0  0  0
   58.3267   31.2974   44.5002 H   0  0  0  0  0  0  0  0  0  0  0  0
   60.5104   31.7611   45.6041 H   0  0  0  0  0  0  0  0  0  0  0  0
   60.7555   33.8734   49.3200 H   0  0  0  0  0  0  0  0  0  0  0  0
   61.4222   35.2557   48.3925 H   0  0  0  0  0  0  0  0  0  0  0  0
   60.8868   35.1761   45.7607 H   0  0  0  0  0  0  0  0  0  0  0  0
   58.9350   35.0236   44.2142 H   0  0  0  0  0  0  0  0  0  0  0  0
   56.6682   32.9566   47.2642 H   0  0  0  0  0  0  0  0  0  0  0  0
   58.6160   33.1049   48.8170 H   0  0  0  0  0  0  0  0  0  0  0  0
   60.1021   29.4593   50.2938 H   0  0  0  0  0  0  0  0  0  0  0  0
   57.8000   29.2138   51.2228 H   0  0  0  0  0  0  0  0  0  0  0  0
   57.5544   33.4978   51.7640 H   0  0  0  0  0  0  0  0  0  0  0  0
   59.8541   33.7528   50.8395 H   0  0  0  0  0  0  0  0  0  0  0  0
  1  2  2  0
  2  3  1  0
  3  4  2  3
  4  5  1  0
  5  6  2  0
  6  7  1  0
  7  8  2  0
  8  9  1  0
  9 10  2  0
  9 11  1  0
  8 12  1  0
 12 13  2  0
  3 14  1  0
 14 15  1  0
 15 16  1  0
 16 17  2  0
 17 18  1  0
 18 19  2  0
 19 20  1  0
 19 21  1  0
 21 22  2  0
  2 23  1  0
 23 24  2  0
 24 25  1  0
 25 26  2  0
 26 27  1  0
 26 28  1  0
 28 29  2  0
 13  5  1  0
 22 16  1  0
 29 23  1  0
  4 30  1  0
  6 31  1  0
  7 32  1  0
 12 33  1  0
 13 34  1  0
 15 35  1  0
 15 36  1  0
 17 37  1  0
 18 38  1  0
 21 39  1  0
 22 40  1  0
 24 41  1  0
 25 42  1  0
 28 43  1  0
 29 44  1  0
M  CHG  2   9   1  11  -1
M  END
>  <UniqueID>  (17) 
13

>  <SMILES>  (17) 
O=C(C(=Cc1ccc([N+](=O)[O-])cc1)SCc1ccc(F)cc1)c1ccc(Cl)cc1

>  <Energy>  (17) 
53.707486045041605

>  <Genealogy>  (17) 
O=C(C(=Cc1ccc([N+](=O)[O-])cc1)SCc1ccc(F)cc1)c1ccc(Cl)cc1 (3D coordinates assigned)
O=C(C(=Cc1ccc([N+](=O)[O-])cc1)SCc1ccc(F)cc1)c1ccc(Cl)cc1 (optimized conformer: 53.707486045041605 kcal/mol)

>  <smiles>  (17) 
O=C(C(=Cc1ccc([N+](=O)[O-])cc1)SCc1ccc(F)cc1)c1ccc(Cl)cc1

>  <score_type>  (17) 
oracle

>  <origin>  (17) 
adg

>  <m_score__min__energy>  (17) 
-9.1799999999999997

>  <m_primary>  (17) 
energy

$$$$
17:0
     RDKit          3D

 43 45  0  0  1  0  0  0  0  0999 V2000
   60.4840   28.9380   45.3180 C   0  0  0  0  0  0  0  0  0  0  0  0
   60.2260   27.6830   46.0950 C   0  0  0  0  0  0  0  0  0  0  0  0
   59.3020   27.7890   47.1440 N   0  0  0  0  0  0  0  0  0  0  0  0
   59.5420   28.6010   48.2480 C   0  0  0  0  0  0  0  0  0  0  0  0
   60.7090   28.1670   49.1070 C   0  0  0  0  0  0  0  0  0  0  0  0
   58.0680   27.1440   47.0290 C   0  0  0  0  0  0  0  0  0  0  0  0
   57.3300   27.4740   45.6610 C   0  0  0  0  0  0  0  0  0  0  0  0
   57.1150   28.8580   45.7880 N   0  0  0  0  0  0  0  0  0  0  0  0
   57.1550   29.7000   44.8810 C   0  0  0  0  0  0  0  0  0  0  0  0
   56.6440   29.2920   43.6820 N   0  0  0  0  0  0  0  0  0  0  0  0
   56.5670   30.0540   42.5960 C   0  0  0  0  0  0  0  0  0  0  0  0
   57.0190   31.2980   42.6890 N   0  0  0  0  0  0  0  0  0  0  0  0
   57.5260   31.7190   43.8540 C   0  0  0  0  0  0  0  0  0  0  0  0
   58.1690   33.3560   44.1080 S   0  0  0  0  0  0  0  0  0  0  0  0
   58.5890   32.9850   45.8490 C   0  0  0  0  0  0  0  0  0  0  0  0
   59.1700   33.8110   46.7780 C   0  0  0  0  0  0  0  0  0  0  0  0
   59.4790   34.9880   46.4770 O   0  0  0  0  0  0  0  0  0  0  0  0
   59.4140   33.3590   48.0180 N   0  0  0  0  0  0  0  0  0  0  0  0
   60.0190   34.2270   48.9960 C   0  0  0  0  0  0  0  0  0  0  0  0
   59.0590   32.0930   48.2590 C   0  0  0  0  0  0  0  0  0  0  0  0
   58.5120   31.3400   47.3670 N   0  0  0  0  0  0  0  0  0  0  0  0
   58.2030   31.6590   46.0730 C   0  0  0  0  0  0  0  0  0  0  0  0
   57.6500   31.0200   45.0230 C   0  0  0  0  0  0  0  0  0  0  0  0
   60.6554   29.7719   46.0146 H   0  0  0  0  0  0  0  0  0  0  0  0
   61.3727   28.8009   44.6845 H   0  0  0  0  0  0  0  0  0  0  0  0
   59.6132   29.1626   44.6845 H   0  0  0  0  0  0  0  0  0  0  0  0
   59.8524   26.9232   45.3928 H   0  0  0  0  0  0  0  0  0  0  0  0
   61.1846   27.4251   46.5689 H   0  0  0  0  0  0  0  0  0  0  0  0
   59.7422   29.6206   47.8870 H   0  0  0  0  0  0  0  0  0  0  0  0
   58.6463   28.5363   48.8832 H   0  0  0  0  0  0  0  0  0  0  0  0
   60.4399   28.2671   50.1689 H   0  0  0  0  0  0  0  0  0  0  0  0
   60.9548   27.1173   48.8884 H   0  0  0  0  0  0  0  0  0  0  0  0
   61.5809   28.8010   48.8884 H   0  0  0  0  0  0  0  0  0  0  0  0
   58.2316   26.0578   47.0877 H   0  0  0  0  0  0  0  0  0  0  0  0
   57.4272   27.5032   47.8478 H   0  0  0  0  0  0  0  0  0  0  0  0
   57.9672   27.2438   44.7944 H   0  0  0  0  0  0  0  0  0  0  0  0
   56.4130   26.8902   45.4928 H   0  0  0  0  0  0  0  0  0  0  0  0
   56.2810   28.3010   43.5690 H   0  0  0  0  0  0  0  0  0  0  0  0
   56.1449   29.6683   41.6563 H   0  0  0  0  0  0  0  0  0  0  0  0
   59.7704   33.8704   50.0065 H   0  0  0  0  0  0  0  0  0  0  0  0
   61.1111   34.2231   48.8641 H   0  0  0  0  0  0  0  0  0  0  0  0
   59.6374   35.2502   48.8641 H   0  0  0  0  0  0  0  0  0  0  0  0
   59.2413   31.6762   49.2605 H   0  0  0  0  0  0  0  0  0  0  0  0
  1  2  1  0
  2  3  1  0
  3  4  1  0
  4  5  1  0
  3  6  1  0
  6  7  1  0
  7  8  1  0
  8  9  2  0
  9 10  1  0
 10 11  1  0
 11 12  2  0
 12 13  1  0
 13 14  1  0
 14 15  1  0
 15 16  1  0
 16 17  2  0
 16 18  1  0
 18 19  1  0
 18 20  1  0
 20 21  2  0
 21 22  1  0
 22 23  1  0
 23  9  1  0
 23 13  2  0
 22 15  2  0
  1 24  1  0
  1 25  1  0
  1 26  1  0
  2 27  1  0
  2 28  1  0
  4 29  1  0
  4 30  1  0
  5 31  1  0
  5 32  1  0
  5 33  1  0
  6 34  1  0
  6 35  1  0
  7 36  1  0
  7 37  1  0
 10 38  1  0
 11 39  1  0
 19 40  1  0
 19 41  1  0
 19 42  1  0
 20 43  1  0
M  END
>  <smiles>  (18) 
CCN(CC)CCN=c1[nH]cnc2sc3c(=O)n(C)cnc3c12

>  <score_type>  (18) 
oracle

>  <origin>  (18) 
adg

>  <m_score__min__energy>  (18) 
-6.4199999999999999

>  <m_primary>  (18) 
energy

$$$$
18:0
     RDKit          3D

 42 44  0  0  0  0  0  0  0  0999 V2000
   57.0740   30.0050   44.2800 C   0  0  0  0  0  0  0  0  0  0  0  0
   57.3990   30.6100   45.5260 O   0  0  0  0  0  0  0  0  0  0  0  0
   57.8540   31.9310   45.6710 C   0  0  0  0  0  0  0  0  0  0  0  0
   57.4030   32.9690   44.8310 C   0  0  0  0  0  0  0  0  0  0  0  0
   57.8190   34.2850   45.0490 C   0  0  0  0  0  0  0  0  0  0  0  0
   58.6730   34.5820   46.1110 C   0  0  0  0  0  0  0  0  0  0  0  0
   59.1340   33.5600   46.9430 C   0  0  0  0  0  0  0  0  0  0  0  0
   58.7580   32.2300   46.7070 C   0  0  0  0  0  0  0  0  0  0  0  0
   59.3810   30.9240   47.7770 S   0  0  0  0  0  0  0  0  0  0  0  0
   59.3650   31.9400   49.2660 C   0  0  0  0  0  0  0  0  0  0  0  0
   58.2110   31.9330   50.0630 C   0  0  0  0  0  0  0  0  0  0  0  0
   58.1450   32.7120   51.2210 C   0  0  0  0  0  0  0  0  0  0  0  0
   59.2370   33.4910   51.6010 C   0  0  0  0  0  0  0  0  0  0  0  0
   60.4000   33.4880   50.8290 C   0  0  0  0  0  0  0  0  0  0  0  0
   60.4770   32.7160   49.6570 C   0  0  0  0  0  0  0  0  0  0  0  0
   61.7060   32.6840   48.9150 N   0  0  0  0  0  0  0  0  0  0  0  0
   62.0660   33.8390   48.0890 C   0  0  0  0  0  0  0  0  0  0  0  0
   63.5840   33.8690   47.8730 C   0  0  0  0  0  0  0  0  0  0  0  0
   64.1410   32.5900   47.3700 N   0  0  0  0  0  0  0  0  0  0  0  0
   63.2150   31.4420   47.4070 C   0  0  0  0  0  0  0  0  0  0  0  0
   62.3940   31.4040   48.7010 C   0  0  0  0  0  0  0  0  0  0  0  0
   56.5604   29.0490   44.4595 H   0  0  0  0  0  0  0  0  0  0  0  0
   56.4139   30.6742   43.7086 H   0  0  0  0  0  0  0  0  0  0  0  0
   57.9964   29.8241   43.7086 H   0  0  0  0  0  0  0  0  0  0  0  0
   56.7198   32.7419   43.9993 H   0  0  0  0  0  0  0  0  0  0  0  0
   57.4724   35.0881   44.3820 H   0  0  0  0  0  0  0  0  0  0  0  0
   58.9833   35.6215   46.2931 H   0  0  0  0  0  0  0  0  0  0  0  0
   59.7958   33.7995   47.7883 H   0  0  0  0  0  0  0  0  0  0  0  0
   57.3518   31.3098   49.7744 H   0  0  0  0  0  0  0  0  0  0  0  0
   57.2311   32.7107   51.8331 H   0  0  0  0  0  0  0  0  0  0  0  0
   59.1821   34.1084   52.5097 H   0  0  0  0  0  0  0  0  0  0  0  0
   61.2631   34.0947   51.1404 H   0  0  0  0  0  0  0  0  0  0  0  0
   61.5598   33.7638   47.1153 H   0  0  0  0  0  0  0  0  0  0  0  0
   61.7529   34.7622   48.5986 H   0  0  0  0  0  0  0  0  0  0  0  0
   63.8152   34.6590   47.1434 H   0  0  0  0  0  0  0  0  0  0  0  0
   64.0443   34.0556   48.8545 H   0  0  0  0  0  0  0  0  0  0  0  0
   64.4520   32.7210   46.3780 H   0  0  0  0  0  0  0  0  0  0  0  0
   64.9930   32.3470   47.9260 H   0  0  0  0  0  0  0  0  0  0  0  0
   62.5264   31.5142   46.5522 H   0  0  0  0  0  0  0  0  0  0  0  0
   63.8152   30.5214   47.3598 H   0  0  0  0  0  0  0  0  0  0  0  0
   61.6471   30.5994   48.6317 H   0  0  0  0  0  0  0  0  0  0  0  0
   63.0734   31.2210   49.5466 H   0  0  0  0  0  0  0  0  0  0  0  0
  1  2  1  0
  2  3  1  0
  3  4  2  0
  4  5  1  0
  5  6  2  0
  6  7  1  0
  7  8  2  0
  8  9  1  0
  9 10  1  0
 10 11  2  0
 11 12  1  0
 12 13  2  0
 13 14  1  0
 14 15  2  0
 15 16  1  0
 16 17  1  0
 17 18  1  0
 18 19  1  0
 19 20  1  0
 20 21  1  0
  8  3  1  0
 15 10  1  0
 21 16  1  0
  1 22  1  0
  1 23  1  0
  1 24  1  0
  4 25  1  0
  5 26  1  0
  6 27  1  0
  7 28  1  0
 11 29  1  0
 12 30  1  0
 13 31  1  0
 14 32  1  0
 17 33  1  0
 17 34  1  0
 18 35  1  0
 18 36  1  0
 19 37  1  0
 19 38  1  0
 20 39  1  0
 20 40  1  0
 21 41  1  0
 21 42  1  0
M  CHG  1  19   1
M  END
>  <UniqueID>  (19) 
14

>  <SMILES>  (19) 
COc1ccccc1Sc1ccccc1N1CC[NH2+]CC1

>  <Energy>  (19) 
48.438074164708794

>  <Genealogy>  (19) 
COc1ccccc1Sc1ccccc1N1CC[NH2+]CC1 (protonated)
COc1ccccc1Sc1ccccc1N1CC[NH2+]CC1 (3D coordinates assigned)
COc1ccccc1Sc1ccccc1N1CC[NH2+]CC1 (nonaromatic ring conformer: 48.438074164708794 kcal/mol)

>  <smiles>  (19) 
COc1ccccc1Sc1ccccc1N1CCNCC1

>  <score_type>  (19) 
oracle

>  <origin>  (19) 
adg

>  <m_score__min__energy>  (19) 
-5.7800000000000002

>  <m_primary>  (19) 
energy

$$$$
19:0
     RDKit          3D

 33 35  0  0  0  0  0  0  0  0999 V2000
   60.7700   28.9990   45.2530 C   0  0  0  0  0  0  0  0  0  0  0  0
   59.3320   29.1070   45.5240 N   0  0  0  0  0  0  0  0  0  0  0  0
   58.3950   28.2030   44.8440 C   0  0  0  0  0  0  0  0  0  0  0  0
   57.9040   27.1550   45.7960 C   0  0  0  0  0  0  0  0  0  0  0  0
   56.5400   26.7610   45.8550 C   0  0  0  0  0  0  0  0  0  0  0  0
   56.2320   25.7790   46.7400 N   0  0  0  0  0  0  0  0  0  0  0  0
   57.7180   25.4710   47.3870 S   0  0  0  0  0  0  0  0  0  0  0  0
   58.7580   26.5000   46.6260 N   0  0  0  0  0  0  0  0  0  0  0  0
   58.8470   30.0220   46.5300 C   0  0  0  0  0  0  0  0  0  0  0  0
   58.5650   29.6010   47.6860 O   0  0  0  0  0  0  0  0  0  0  0  0
   58.6910   31.4620   46.2530 C   0  0  0  0  0  0  0  0  0  0  0  0
   59.4160   32.3750   47.0350 C   0  0  0  0  0  0  0  0  0  0  0  0
   59.3590   33.7430   46.7630 C   0  0  0  0  0  0  0  0  0  0  0  0
   58.5860   34.2110   45.7020 C   0  0  0  0  0  0  0  0  0  0  0  0
   57.8600   33.3160   44.9140 C   0  0  0  0  0  0  0  0  0  0  0  0
   57.8920   31.9340   45.1800 C   0  0  0  0  0  0  0  0  0  0  0  0
   57.0930   31.0440   44.3740 N   0  0  0  0  0  0  0  0  0  0  0  0
   55.9940   30.4340   44.7950 N   0  0  0  0  0  0  0  0  0  0  0  0
   55.5240   29.7390   43.7450 C   0  0  0  0  0  0  0  0  0  0  0  0
   56.3700   29.9590   42.6830 C   0  0  0  0  0  0  0  0  0  0  0  0
   57.3450   30.7870   43.0990 N   0  0  0  0  0  0  0  0  0  0  0  0
   61.3203   28.9577   46.2045 H   0  0  0  0  0  0  0  0  0  0  0  0
   60.9666   28.0836   44.6757 H   0  0  0  0  0  0  0  0  0  0  0  0
   61.1011   29.8748   44.6757 H   0  0  0  0  0  0  0  0  0  0  0  0
   57.5388   28.7825   44.4684 H   0  0  0  0  0  0  0  0  0  0  0  0
   58.9130   27.7128   44.0065 H   0  0  0  0  0  0  0  0  0  0  0  0
   55.7744   27.2271   45.2173 H   0  0  0  0  0  0  0  0  0  0  0  0
   60.0338   32.0096   47.8686 H   0  0  0  0  0  0  0  0  0  0  0  0
   59.9243   34.4516   47.3861 H   0  0  0  0  0  0  0  0  0  0  0  0
   58.5478   35.2887   45.4848 H   0  0  0  0  0  0  0  0  0  0  0  0
   57.2564   33.6949   44.0761 H   0  0  0  0  0  0  0  0  0  0  0  0
   54.6236   29.1071   43.7365 H   0  0  0  0  0  0  0  0  0  0  0  0
   56.2675   29.5337   41.6737 H   0  0  0  0  0  0  0  0  0  0  0  0
  1  2  1  0
  2  3  1  0
  3  4  1  0
  4  5  1  0
  5  6  2  0
  6  7  1  0
  7  8  1  0
  2  9  1  0
  9 10  2  0
  9 11  1  0
 11 12  2  0
 12 13  1  0
 13 14  2  0
 14 15  1  0
 15 16  2  0
 16 17  1  0
 17 18  1  0
 18 19  2  0
 19 20  1  0
 20 21  2  0
  8  4  2  0
 16 11  1  0
 21 17  1  0
  1 22  1  0
  1 23  1  0
  1 24  1  0
  3 25  1  0
  3 26  1  0
  5 27  1  0
 12 28  1  0
 13 29  1  0
 14 30  1  0
 15 31  1  0
 19 32  1  0
 20 33  1  0
M  END
>  <UniqueID>  (20) 
15

>  <SMILES>  (20) 
CN(Cc1cnsn1)C(=O)c1ccccc1-n1nccn1

>  <Energy>  (20) 
110.04738539406732

>  <Genealogy>  (20) 
CN(Cc1cnsn1)C(=O)c1ccccc1-n1nccn1 (3D coordinates assigned)
CN(Cc1cnsn1)C(=O)c1ccccc1-n1nccn1 (optimized conformer: 110.04738539406732 kcal/mol)

>  <smiles>  (20) 
CN(Cc1cnsn1)C(=O)c1ccccc1-n1nccn1

>  <score_type>  (20) 
oracle

>  <origin>  (20) 
adg

>  <m_score__min__energy>  (20) 
-7.2599999999999998

>  <m_primary>  (20) 
energy

$$$$
20:0
     RDKit          3D

 49 51  0  0  0  0  0  0  0  0999 V2000
   57.3300   21.5100   43.6080 C   0  0  0  0  0  0  0  0  0  0  0  0
   57.9800   21.9840   44.9050 C   0  0  0  0  0  0  0  0  0  0  0  0
   57.1560   22.9490   45.5610 O   0  0  0  0  0  0  0  0  0  0  0  0
   57.2460   24.3430   45.4000 C   0  0  0  0  0  0  0  0  0  0  0  0
   57.7370   24.9480   44.2260 C   0  0  0  0  0  0  0  0  0  0  0  0
   57.7970   26.3410   44.1250 C   0  0  0  0  0  0  0  0  0  0  0  0
   57.3570   27.1520   45.1780 C   0  0  0  0  0  0  0  0  0  0  0  0
   57.4630   28.5760   45.0390 N   0  0  0  0  0  0  0  0  0  0  0  0
   56.4320   29.4720   44.6100 C   0  0  0  0  0  0  0  0  0  0  0  0
   55.2360   29.2910   44.9630 O   0  0  0  0  0  0  0  0  0  0  0  0
   56.7700   30.6170   43.6930 C   0  0  0  0  0  0  0  0  0  0  0  0
   57.8860   31.4490   44.1910 N   0  0  0  0  0  0  0  0  0  0  0  0
   58.0450   32.7130   43.4410 C   0  0  0  0  0  0  0  0  0  0  0  0
   58.9530   33.6810   44.2050 C   0  0  0  0  0  0  0  0  0  0  0  0
   58.3390   34.0750   45.4900 N   0  0  0  0  0  0  0  0  0  0  0  0
   59.5560   34.6930   46.5830 S   0  0  0  0  0  0  0  0  0  0  0  0
   60.1470   35.9590   46.0250 O   0  0  0  0  0  0  0  0  0  0  0  0
   58.9170   35.0160   47.9060 O   0  0  0  0  0  0  0  0  0  0  0  0
   60.8410   33.5220   46.8410 C   0  0  0  0  0  0  0  0  0  0  0  0
   60.6800   32.2330   47.3250 C   0  0  0  0  0  0  0  0  0  0  0  0
   61.8910   31.5420   47.4540 C   0  0  0  0  0  0  0  0  0  0  0  0
   63.0000   32.2860   47.0700 C   0  0  0  0  0  0  0  0  0  0  0  0
   62.4760   33.8060   46.5740 S   0  0  0  0  0  0  0  0  0  0  0  0
   57.5260   33.0120   46.1260 C   0  0  0  0  0  0  0  0  0  0  0  0
   57.9240   31.5960   45.6680 C   0  0  0  0  0  0  0  0  0  0  0  0
   56.8880   26.5480   46.3580 C   0  0  0  0  0  0  0  0  0  0  0  0
   56.8240   25.1550   46.4590 C   0  0  0  0  0  0  0  0  0  0  0  0
   56.4618   20.8768   43.8431 H   0  0  0  0  0  0  0  0  0  0  0  0
   57.0007   22.3815   43.0231 H   0  0  0  0  0  0  0  0  0  0  0  0
   58.0591   20.9301   43.0231 H   0  0  0  0  0  0  0  0  0  0  0  0
   58.1260   21.1213   45.5717 H   0  0  0  0  0  0  0  0  0  0  0  0
   58.9471   22.4501   44.6654 H   0  0  0  0  0  0  0  0  0  0  0  0
   58.0741   24.3223   43.3864 H   0  0  0  0  0  0  0  0  0  0  0  0
   58.1937   26.8043   43.2096 H   0  0  0  0  0  0  0  0  0  0  0  0
   57.0494   30.2081   42.7108 H   0  0  0  0  0  0  0  0  0  0  0  0
   55.8812   31.2624   43.6329 H   0  0  0  0  0  0  0  0  0  0  0  0
   58.4912   32.4973   42.4590 H   0  0  0  0  0  0  0  0  0  0  0  0
   57.0561   33.1781   43.3151 H   0  0  0  0  0  0  0  0  0  0  0  0
   59.9178   33.1907   44.4019 H   0  0  0  0  0  0  0  0  0  0  0  0
   59.0991   34.5835   43.5934 H   0  0  0  0  0  0  0  0  0  0  0  0
   59.7026   31.7982   47.5811 H   0  0  0  0  0  0  0  0  0  0  0  0
   61.9581   30.5083   47.8242 H   0  0  0  0  0  0  0  0  0  0  0  0
   64.0439   31.9398   47.0874 H   0  0  0  0  0  0  0  0  0  0  0  0
   57.6548   33.0771   47.2165 H   0  0  0  0  0  0  0  0  0  0  0  0
   56.4800   33.1734   45.8263 H   0  0  0  0  0  0  0  0  0  0  0  0
   58.9452   31.3851   46.0181 H   0  0  0  0  0  0  0  0  0  0  0  0
   57.1982   30.8882   46.0950 H   0  0  0  0  0  0  0  0  0  0  0  0
   56.5702   27.1739   47.2049 H   0  0  0  0  0  0  0  0  0  0  0  0
   56.4383   24.6928   47.3796 H   0  0  0  0  0  0  0  0  0  0  0  0
  1  2  1  0
  2  3  1  0
  3  4  1  0
  4  5  2  0
  5  6  1  0
  6  7  2  0
  7  8  1  0
  8  9  1  0
  9 10  2  0
  9 11  1  0
 11 12  1  0
 12 13  1  0
 13 14  1  0
 14 15  1  0
 15 16  1  0
 16 17  2  0
 16 18  2  0
 16 19  1  0
 19 20  2  0
 20 21  1  0
 21 22  2  0
 22 23  1  0
 15 24  1  0
 24 25  1  0
  7 26  1  0
 26 27  2  0
 27  4  1  0
 25 12  1  0
 23 19  1  0
  1 28  1  0
  1 29  1  0
  1 30  1  0
  2 31  1  0
  2 32  1  0
  5 33  1  0
  6 34  1  0
 11 35  1  0
 11 36  1  0
 13 37  1  0
 13 38  1  0
 14 39  1  0
 14 40  1  0
 20 41  1  0
 21 42  1  0
 22 43  1  0
 24 44  1  0
 24 45  1  0
 25 46  1  0
 25 47  1  0
 26 48  1  0
 27 49  1  0
M  CHG  1   8  -1
M  END
>  <UniqueID>  (21) 
16

>  <SMILES>  (21) 
CCOc1ccc([N-]C(=O)CN2CCN(S(=O)(=O)c3cccs3)CC2)cc1

>  <Energy>  (21) 
88.0302211361748

>  <Genealogy>  (21) 
CCOc1ccc([N-]C(=O)CN2CCN(S(=O)(=O)c3cccs3)CC2)cc1 (protonated)
CCOc1ccc([N-]C(=O)CN2CCN(S(=O)(=O)c3cccs3)CC2)cc1 (3D coordinates assigned)
CCOc1ccc([N-]C(=O)CN2CCN(S(=O)(=O)c3cccs3)CC2)cc1 (nonaromatic ring conformer: 88.0302211361748 kcal/mol)

>  <smiles>  (21) 
CCOc1ccc(NC(=O)CN2CCN(S(=O)(=O)c3cccs3)CC2)cc1

>  <score_type>  (21) 
oracle

>  <origin>  (21) 
adg

>  <m_score__min__energy>  (21) 
-10.31

>  <m_primary>  (21) 
energy

$$$$
21:0
     RDKit          3D

 26 28  0  0  1  0  0  0  0  0999 V2000
   58.4460   25.3090   46.8410 Cl  0  0  0  0  0  0  0  0  0  0  0  0
   58.1810   26.9110   46.2340 C   0  0  0  0  0  0  0  0  0  0  0  0
   56.9570   27.2190   45.7070 C   0  0  0  0  0  0  0  0  0  0  0  0
   56.7680   28.4850   45.2320 C   0  0  0  0  0  0  0  0  0  0  0  0
   55.6850   29.0340   44.6770 N   0  0  0  0  0  0  0  0  0  0  0  0
   56.0060   30.2730   44.3900 N   0  0  0  0  0  0  0  0  0  0  0  0
   57.2850   30.5410   44.7510 C   0  0  0  0  0  0  0  0  0  0  0  0
   57.8410   31.6160   44.5980 N   0  0  0  0  0  0  0  0  0  0  0  0
   58.1980   32.6590   45.3620 C   0  0  0  0  0  0  0  0  0  0  0  0
   58.1350   32.5620   46.7680 C   0  0  0  0  0  0  0  0  0  0  0  0
   58.6360   33.5970   47.5590 C   0  0  0  0  0  0  0  0  0  0  0  0
   59.1970   34.7260   46.9560 C   0  0  0  0  0  0  0  0  0  0  0  0
   59.2640   34.8330   45.5650 C   0  0  0  0  0  0  0  0  0  0  0  0
   58.7690   33.8070   44.7670 C   0  0  0  0  0  0  0  0  0  0  0  0
   57.8150   29.4120   45.3000 C   0  0  0  0  0  0  0  0  0  0  0  0
   59.0130   29.0840   45.8230 C   0  0  0  0  0  0  0  0  0  0  0  0
   60.4400   30.0240   46.0180 Cl  0  0  0  0  0  0  0  0  0  0  0  0
   59.1350   27.7980   46.2810 N   0  0  0  0  0  0  0  0  0  0  0  0
   56.1513   26.4712   45.6672 H   0  0  0  0  0  0  0  0  0  0  0  0
   54.7770   28.5920   44.5040 H   0  0  0  0  0  0  0  0  0  0  0  0
   55.3630   30.9450   43.9500 H   0  0  0  0  0  0  0  0  0  0  0  0
   57.6920   31.6726   47.2398 H   0  0  0  0  0  0  0  0  0  0  0  0
   58.5894   33.5242   48.6556 H   0  0  0  0  0  0  0  0  0  0  0  0
   59.5901   35.5393   47.5837 H   0  0  0  0  0  0  0  0  0  0  0  0
   59.7073   35.7268   45.1016 H   0  0  0  0  0  0  0  0  0  0  0  0
   58.8220   33.8891   43.6713 H   0  0  0  0  0  0  0  0  0  0  0  0
  1  2  1  0
  2  3  2  0
  3  4  1  0
  4  5  1  0
  5  6  1  0
  6  7  1  0
  7  8  2  0
  8  9  1  0
  9 10  2  0
 10 11  1  0
 11 12  2  0
 12 13  1  0
 13 14  2  0
  7 15  1  0
 15 16  1  0
 16 17  1  0
 16 18  2  0
 18  2  1  0
 15  4  2  0
 14  9  1  0
  3 19  1  0
  5 20  1  0
  6 21  1  0
 10 22  1  0
 11 23  1  0
 12 24  1  0
 13 25  1  0
 14 26  1  0
M  END
>  <smiles>  (22) 
Clc1cc2[nH][nH]c(=Nc3ccccc3)c2c(Cl)n1

>  <score_type>  (22) 
oracle

>  <origin>  (22) 
adg

>  <m_score__min__energy>  (22) 
-7.1699999999999999

>  <m_primary>  (22) 
energy

$$$$
22:0
     RDKit          3D

 49 52  0  0  0  0  0  0  0  0999 V2000
   58.8960   28.7550   47.8050 C   0  0  0  0  0  0  0  0  0  0  0  0
   58.5960   28.1620   46.4520 C   0  0  0  0  0  0  0  0  0  0  0  0
   58.7040   26.7680   46.2950 C   0  0  0  0  0  0  0  0  0  0  0  0
   58.4710   26.1700   45.0560 C   0  0  0  0  0  0  0  0  0  0  0  0
   58.1270   26.9520   43.9580 C   0  0  0  0  0  0  0  0  0  0  0  0
   58.0060   28.3360   44.0920 C   0  0  0  0  0  0  0  0  0  0  0  0
   58.2220   28.9620   45.3340 C   0  0  0  0  0  0  0  0  0  0  0  0
   58.0520   30.4360   45.4060 C   0  0  0  0  0  0  0  0  0  0  0  0
   58.9250   31.2810   45.9960 N   0  0  0  0  0  0  0  0  0  0  0  0
   58.3590   32.4890   45.8200 C   0  0  0  0  0  0  0  0  0  0  0  0
   58.9640   33.7830   46.2980 C   0  0  0  0  0  0  0  0  0  0  0  0
   60.2180   33.6090   47.0700 N   0  0  0  0  0  0  0  0  0  0  0  0
   61.3960   34.1770   46.3740 C   0  0  0  0  0  0  0  0  0  0  0  0
   62.6880   33.6790   47.0390 C   0  0  0  0  0  0  0  0  0  0  0  0
   62.5170   33.5770   48.4940 N   0  0  0  0  0  0  0  0  0  0  0  0
   63.4220   32.7700   49.2740 C   0  0  0  0  0  0  0  0  0  0  0  0
   64.7880   33.0950   49.3390 C   0  0  0  0  0  0  0  0  0  0  0  0
   65.6640   32.3210   50.1070 C   0  0  0  0  0  0  0  0  0  0  0  0
   65.1840   31.2170   50.8200 C   0  0  0  0  0  0  0  0  0  0  0  0
   66.2830   30.2470   51.7820 Cl  0  0  0  0  0  0  0  0  0  0  0  0
   63.8250   30.8920   50.7670 C   0  0  0  0  0  0  0  0  0  0  0  0
   62.9470   31.6650   50.0020 C   0  0  0  0  0  0  0  0  0  0  0  0
   61.4600   34.3650   49.1390 C   0  0  0  0  0  0  0  0  0  0  0  0
   60.0950   34.1190   48.4610 C   0  0  0  0  0  0  0  0  0  0  0  0
   57.1670   32.3430   45.1480 C   0  0  0  0  0  0  0  0  0  0  0  0
   57.0070   31.0650   44.9100 O   0  0  0  0  0  0  0  0  0  0  0  0
   58.5488   28.0686   48.5913 H   0  0  0  0  0  0  0  0  0  0  0  0
   59.9805   28.9091   47.9055 H   0  0  0  0  0  0  0  0  0  0  0  0
   58.3777   29.7200   47.9055 H   0  0  0  0  0  0  0  0  0  0  0  0
   58.9751   26.1427   47.1584 H   0  0  0  0  0  0  0  0  0  0  0  0
   58.5594   25.0790   44.9473 H   0  0  0  0  0  0  0  0  0  0  0  0
   57.9498   26.4781   42.9813 H   0  0  0  0  0  0  0  0  0  0  0  0
   57.7385   28.9451   43.2160 H   0  0  0  0  0  0  0  0  0  0  0  0
   59.1814   34.4092   45.4201 H   0  0  0  0  0  0  0  0  0  0  0  0
   58.2326   34.2471   46.9760 H   0  0  0  0  0  0  0  0  0  0  0  0
   60.3650   32.5720   47.1350 H   0  0  0  0  0  0  0  0  0  0  0  0
   61.3836   33.8620   45.3201 H   0  0  0  0  0  0  0  0  0  0  0  0
   61.3577   35.2746   46.4351 H   0  0  0  0  0  0  0  0  0  0  0  0
   62.9433   32.6882   46.6351 H   0  0  0  0  0  0  0  0  0  0  0  0
   63.4941   34.3968   46.8271 H   0  0  0  0  0  0  0  0  0  0  0  0
   65.1704   33.9634   48.7825 H   0  0  0  0  0  0  0  0  0  0  0  0
   66.7320   32.5807   50.1505 H   0  0  0  0  0  0  0  0  0  0  0  0
   63.4459   30.0256   51.3289 H   0  0  0  0  0  0  0  0  0  0  0  0
   61.8781   31.4073   49.9693 H   0  0  0  0  0  0  0  0  0  0  0  0
   61.3925   34.0773   50.1985 H   0  0  0  0  0  0  0  0  0  0  0  0
   61.7110   35.4318   49.0448 H   0  0  0  0  0  0  0  0  0  0  0  0
   59.5364   33.3815   49.0561 H   0  0  0  0  0  0  0  0  0  0  0  0
   59.5748   35.0869   48.4106 H   0  0  0  0  0  0  0  0  0  0  0  0
   56.4763   33.1504   44.8633 H   0  0  0  0  0  0  0  0  0  0  0  0
  1  2  1  0
  2  3  2  0
  3  4  1  0
  4  5  2  0
  5  6  1  0
  6  7  2  0
  7  8  1  0
  8  9  2  0
  9 10  1  0
 10 11  1  0
 11 12  1  0
 12 13  1  0
 13 14  1  0
 14 15  1  0
 15 16  1  0
 16 17  2  0
 17 18  1  0
 18 19  2  0
 19 20  1  0
 19 21  1  0
 21 22  2  0
 15 23  1  0
 23 24  1  0
 10 25  2  0
 25 26  1  0
  7  2  1  0
 26  8  1  0
 24 12  1  0
 22 16  1  0
  1 27  1  0
  1 28  1  0
  1 29  1  0
  3 30  1  0
  4 31  1  0
  5 32  1  0
  6 33  1  0
 11 34  1  0
 11 35  1  0
 12 36  1  0
 13 37  1  0
 13 38  1  0
 14 39  1  0
 14 40  1  0
 17 41  1  0
 18 42  1  0
 21 43  1  0
 22 44  1  0
 23 45  1  0
 23 46  1  0
 24 47  1  0
 24 48  1  0
 25 49  1  0
M  CHG  1  12   1
M  END
>  <UniqueID>  (23) 
17

>  <SMILES>  (23) 
Cc1ccccc1-c1nc(C[NH+]2CCN(c3ccc(Cl)cc3)CC2)co1

>  <Energy>  (23) 
97.01790395584865

>  <Genealogy>  (23) 
Cc1ccccc1-c1nc(C[NH+]2CCN(c3ccc(Cl)cc3)CC2)co1 (protonated)
Cc1ccccc1-c1nc(C[NH+]2CCN(c3ccc(Cl)cc3)CC2)co1 (3D coordinates assigned)
Cc1ccccc1-c1nc(C[NH+]2CCN(c3ccc(Cl)cc3)CC2)co1 (nonaromatic ring conformer: 97.01790395584865 kcal/mol)

>  <smiles>  (23) 
Cc1ccccc1-c1nc(CN2CCN(c3ccc(Cl)cc3)CC2)co1

>  <score_type>  (23) 
oracle

>  <origin>  (23) 
adg

>  <m_score__min__energy>  (23) 
-7.1900000000000004

>  <m_primary>  (23) 
energy

$$$$
23:0
     RDKit          3D

 31 33  0  0  0  0  0  0  0  0999 V2000
   55.5158   30.4174   43.1927 H   0  0  0  0  0  0  0  0  0  0  0  0
   56.4130   30.2440   43.8050 C   0  0  0  0  0  0  0  0  0  0  0  0
   56.7060   28.9730   44.1330 C   0  0  0  0  0  0  0  0  0  0  0  0
   56.0337   28.1832   43.7667 H   0  0  0  0  0  0  0  0  0  0  0  0
   57.8760   28.5580   44.9570 C   0  0  0  0  0  0  0  0  0  0  0  0
   59.1610   28.9170   44.5090 C   0  0  0  0  0  0  0  0  0  0  0  0
   59.2713   29.4876   43.5750 H   0  0  0  0  0  0  0  0  0  0  0  0
   60.2990   28.5570   45.2370 C   0  0  0  0  0  0  0  0  0  0  0  0
   61.2967   28.8446   44.8737 H   0  0  0  0  0  0  0  0  0  0  0  0
   60.1720   27.8340   46.4230 C   0  0  0  0  0  0  0  0  0  0  0  0
   61.0683   27.5519   46.9949 H   0  0  0  0  0  0  0  0  0  0  0  0
   58.9060   27.4690   46.8830 C   0  0  0  0  0  0  0  0  0  0  0  0
   58.8067   26.8988   47.8184 H   0  0  0  0  0  0  0  0  0  0  0  0
   57.7630   27.8250   46.1600 C   0  0  0  0  0  0  0  0  0  0  0  0
   56.7693   27.5325   46.5302 H   0  0  0  0  0  0  0  0  0  0  0  0
   57.2090   31.4300   44.2070 C   0  0  0  0  0  0  0  0  0  0  0  0
   57.3930   31.6400   45.5400 N   0  0  0  0  0  0  0  0  0  0  0  0
   58.1030   32.6920   46.0250 C   0  0  0  0  0  0  0  0  0  0  0  0
   58.2610   32.8590   47.4060 C   0  0  0  0  0  0  0  0  0  0  0  0
   57.8096   32.1372   48.1026 H   0  0  0  0  0  0  0  0  0  0  0  0
   58.9930   33.9440   47.9000 C   0  0  0  0  0  0  0  0  0  0  0  0
   59.1158   34.0737   48.9854 H   0  0  0  0  0  0  0  0  0  0  0  0
   59.5690   34.8640   47.0190 C   0  0  0  0  0  0  0  0  0  0  0  0
   60.1439   35.7150   47.4130 H   0  0  0  0  0  0  0  0  0  0  0  0
   59.4160   34.7050   45.6370 C   0  0  0  0  0  0  0  0  0  0  0  0
   59.8698   35.4304   44.9457 H   0  0  0  0  0  0  0  0  0  0  0  0
   58.6830   33.6190   45.1340 C   0  0  0  0  0  0  0  0  0  0  0  0
   58.5120   33.4300   43.7590 C   0  0  0  0  0  0  0  0  0  0  0  0
   58.9570   34.1408   43.0471 H   0  0  0  0  0  0  0  0  0  0  0  0
   57.7770   32.3400   43.2890 C   0  0  0  0  0  0  0  0  0  0  0  0
   57.6410   32.1908   42.2077 H   0  0  0  0  0  0  0  0  0  0  0  0
  1  2  1  0
  2  3  2  0
  3  4  1  0
  3  5  1  0
  5  6  2  0
  6  7  1  0
  6  8  1  0
  8  9  1  0
  8 10  2  0
 10 11  1  0
 10 12  1  0
 12 13  1  0
 12 14  2  0
 14 15  1  0
  2 16  1  0
 16 17  2  0
 17 18  1  0
 18 19  2  0
 19 20  1  0
 19 21  1  0
 21 22  1  0
 21 23  2  0
 23 24  1  0
 23 25  1  0
 25 26  1  0
 25 27  2  0
 27 28  1  0
 28 29  1  0
 28 30  2  0
 30 31  1  0
 14  5  1  0
 30 16  1  0
 27 18  1  0
M  END
>  <UniqueID>  (24) 
18

>  <SMILES>  (24) 
C(=C/c1ccc2ccccc2n1)\c1ccccc1

>  <Energy>  (24) 
42.00010218434872

>  <Genealogy>  (24) 
C(=C/c1ccc2ccccc2n1)\c1ccccc1 (cis-trans isomerization)
C(=C/c1ccc2ccccc2n1)\c1ccccc1 (3D coordinates assigned)
C(=C/c1ccc2ccccc2n1)\c1ccccc1 (optimized conformer: 42.00010218434872 kcal/mol)

>  <smiles>  (24) 
C(=Cc1ccc2ccccc2n1)c1ccccc1

>  <score_type>  (24) 
oracle

>  <origin>  (24) 
adg

>  <m_score__min__energy>  (24) 
-7.5

>  <m_primary>  (24) 
energy

$$$$
24:0
     RDKit          3D

 43 45  0  0  0  0  0  0  0  0999 V2000
   60.9610   30.7610   47.1050 C   0  0  0  0  0  0  0  0  0  0  0  0
   59.7760   30.0450   47.7470 C   0  0  0  0  0  0  0  0  0  0  0  0
   59.8990   28.5230   47.5900 C   0  0  0  0  0  0  0  0  0  0  0  0
   59.9450   28.0800   46.1170 C   0  0  0  0  0  0  0  0  0  0  0  0
   59.0420   26.8660   45.8010 C   0  0  1  0  0  0  0  0  0  0  0  0
   58.8370   25.9400   47.0290 C   0  0  0  0  0  0  0  0  0  0  0  0
   57.3330   25.6490   47.1330 C   0  0  0  0  0  0  0  0  0  0  0  0
   56.7400   26.5910   46.1670 C   0  0  0  0  0  0  0  0  0  0  0  0
   55.4980   26.7260   45.9970 O   0  0  0  0  0  0  0  0  0  0  0  0
   57.7060   27.3030   45.4160 N   0  0  0  0  0  0  0  0  0  0  0  0
   57.3960   28.0900   44.2210 C   0  0  0  0  0  0  0  0  0  0  0  0
   57.1970   29.5230   44.5950 C   0  0  0  0  0  0  0  0  0  0  0  0
   56.0120   30.1570   44.5090 N   0  0  0  0  0  0  0  0  0  0  0  0
   56.2670   31.3810   44.8560 O   0  0  0  0  0  0  0  0  0  0  0  0
   57.5430   31.5080   45.1330 C   0  0  0  0  0  0  0  0  0  0  0  0
   58.1790   32.7700   45.5580 C   0  0  0  0  0  0  0  0  0  0  0  0
   58.3340   33.0700   46.9230 C   0  0  0  0  0  0  0  0  0  0  0  0
   58.9390   34.2670   47.3180 C   0  0  0  0  0  0  0  0  0  0  0  0
   59.3930   35.1740   46.3560 C   0  0  0  0  0  0  0  0  0  0  0  0
   59.2430   34.8840   44.9980 C   0  0  0  0  0  0  0  0  0  0  0  0
   58.6380   33.6880   44.5980 C   0  0  0  0  0  0  0  0  0  0  0  0
   58.1990   30.3410   44.9760 N   0  0  0  0  0  0  0  0  0  0  0  0
   61.6191   31.1586   47.8916 H   0  0  0  0  0  0  0  0  0  0  0  0
   61.5235   30.0515   46.4803 H   0  0  0  0  0  0  0  0  0  0  0  0
   60.5945   31.5889   46.4803 H   0  0  0  0  0  0  0  0  0  0  0  0
   59.7429   30.2942   48.8179 H   0  0  0  0  0  0  0  0  0  0  0  0
   58.8546   30.3748   47.2447 H   0  0  0  0  0  0  0  0  0  0  0  0
   60.8230   28.1915   48.0863 H   0  0  0  0  0  0  0  0  0  0  0  0
   59.0070   28.0687   48.0460 H   0  0  0  0  0  0  0  0  0  0  0  0
   59.6218   28.9247   45.4908 H   0  0  0  0  0  0  0  0  0  0  0  0
   60.9800   27.7718   45.9078 H   0  0  0  0  0  0  0  0  0  0  0  0
   59.5557   26.3259   44.9920 H   0  0  0  0  0  0  0  0  0  0  0  0
   59.3936   25.0014   46.8902 H   0  0  0  0  0  0  0  0  0  0  0  0
   59.2056   26.4216   47.9467 H   0  0  0  0  0  0  0  0  0  0  0  0
   57.1125   24.6078   46.8548 H   0  0  0  0  0  0  0  0  0  0  0  0
   56.9394   25.7721   48.1528 H   0  0  0  0  0  0  0  0  0  0  0  0
   58.2284   28.0115   43.5062 H   0  0  0  0  0  0  0  0  0  0  0  0
   56.4744   27.7037   43.7612 H   0  0  0  0  0  0  0  0  0  0  0  0
   57.9776   32.3597   47.6836 H   0  0  0  0  0  0  0  0  0  0  0  0
   59.0579   34.4954   48.3874 H   0  0  0  0  0  0  0  0  0  0  0  0
   59.8681   36.1156   46.6684 H   0  0  0  0  0  0  0  0  0  0  0  0
   59.6014   35.5976   44.2415 H   0  0  0  0  0  0  0  0  0  0  0  0
   58.5210   33.4650   43.5272 H   0  0  0  0  0  0  0  0  0  0  0  0
  1  2  1  0
  2  3  1  0
  3  4  1  0
  4  5  1  0
  5  6  1  0
  6  7  1  0
  7  8  1  0
  8  9  2  0
  8 10  1  0
 10 11  1  0
 11 12  1  0
 12 13  2  0
 13 14  1  0
 14 15  1  0
 15 16  1  0
 16 17  2  0
 17 18  1  0
 18 19  2  0
 19 20  1  0
 20 21  2  0
 15 22  2  0
 10  5  1  0
 22 12  1  0
 21 16  1  0
  1 23  1  0
  1 24  1  0
  1 25  1  0
  2 26  1  0
  2 27  1  0
  3 28  1  0
  3 29  1  0
  4 30  1  0
  4 31  1  0
  5 32  1  6
  6 33  1  0
  6 34  1  0
  7 35  1  0
  7 36  1  0
 11 37  1  0
 11 38  1  0
 17 39  1  0
 18 40  1  0
 19 41  1  0
 20 42  1  0
 21 43  1  0
M  END
>  <UniqueID>  (25) 
19

>  <SMILES>  (25) 
CCCC[C@H]1CCC(=O)N1Cc1noc(-c2ccccc2)n1

>  <Energy>  (25) 
73.80954823802875

>  <Genealogy>  (25) 
CCCC[C@H]1CCC(=O)N1Cc1noc(-c2ccccc2)n1 (chirality)
CCCC[C@H]1CCC(=O)N1Cc1noc(-c2ccccc2)n1 (3D coordinates assigned)
CCCC[C@H]1CCC(=O)N1Cc1noc(-c2ccccc2)n1 (nonaromatic ring conformer: 73.80954823802875 kcal/mol)

>  <smiles>  (25) 
CCCCC1CCC(=O)N1Cc1noc(-c2ccccc2)n1

>  <score_type>  (25) 
oracle

>  <origin>  (25) 
adg

>  <m_score__min__energy>  (25) 
-8.4600000000000009

>  <m_primary>  (25) 
energy

$$$$
25:0
     RDKit          3D

 51 53  0  0  0  0  0  0  0  0999 V2000
   63.2930   33.8300   46.5770 C   0  0  0  0  0  0  0  0  0  0  0  0
   63.6180   33.7010   48.0700 C   0  0  0  0  0  0  0  0  0  0  0  0
   62.5580   32.9720   48.8200 N   0  0  0  0  0  0  0  0  0  0  0  0
   62.0340   33.8000   49.9370 C   0  0  0  0  0  0  0  0  0  0  0  0
   60.5020   33.8650   49.9690 C   0  0  0  0  0  0  0  0  0  0  0  0
   63.0280   31.6250   49.2480 C   0  0  0  0  0  0  0  0  0  0  0  0
   61.9180   30.6710   49.7540 C   0  0  0  0  0  0  0  0  0  0  0  0
   60.7660   30.6640   48.8520 N   0  0  0  0  0  0  0  0  0  0  0  0
   59.3990   30.7510   49.2150 C   0  0  0  0  0  0  0  0  0  0  0  0
   58.9870   30.6610   50.4010 O   0  0  0  0  0  0  0  0  0  0  0  0
   58.5350   30.9880   48.1120 N   0  0  0  0  0  0  0  0  0  0  0  0
   59.3620   31.0750   46.9010 C   0  0  0  0  0  0  0  0  0  0  0  0
   58.9500   29.9330   45.9710 C   0  0  0  0  0  0  0  0  0  0  0  0
   57.6020   29.5980   45.7140 C   0  0  0  0  0  0  0  0  0  0  0  0
   57.2840   28.5450   44.8510 C   0  0  0  0  0  0  0  0  0  0  0  0
   58.2980   27.8090   44.2370 C   0  0  0  0  0  0  0  0  0  0  0  0
   59.6350   28.1240   44.4830 C   0  0  0  0  0  0  0  0  0  0  0  0
   59.9600   29.1770   45.3420 C   0  0  0  0  0  0  0  0  0  0  0  0
   59.2100   32.4330   46.2190 C   0  0  0  0  0  0  0  0  0  0  0  0
   59.8700   33.5630   46.7470 C   0  0  0  0  0  0  0  0  0  0  0  0
   59.7160   34.8200   46.1560 C   0  0  0  0  0  0  0  0  0  0  0  0
   58.8900   34.9740   45.0420 C   0  0  0  0  0  0  0  0  0  0  0  0
   58.2070   33.8730   44.5220 C   0  0  0  0  0  0  0  0  0  0  0  0
   58.3560   32.6130   45.1090 C   0  0  0  0  0  0  0  0  0  0  0  0
   60.7630   30.9450   47.4580 C   0  0  0  0  0  0  0  0  0  0  0  0
   61.8170   31.1220   46.7900 O   0  0  0  0  0  0  0  0  0  0  0  0
   62.2767   34.2334   46.4565 H   0  0  0  0  0  0  0  0  0  0  0  0
   64.0159   34.5094   46.1017 H   0  0  0  0  0  0  0  0  0  0  0  0
   63.3532   32.8398   46.1017 H   0  0  0  0  0  0  0  0  0  0  0  0
   64.5669   33.1555   48.1793 H   0  0  0  0  0  0  0  0  0  0  0  0
   63.6868   34.7163   48.4876 H   0  0  0  0  0  0  0  0  0  0  0  0
   61.7620   32.7960   48.1600 H   0  0  0  0  0  0  0  0  0  0  0  0
   62.3863   33.3707   50.8865 H   0  0  0  0  0  0  0  0  0  0  0  0
   62.4032   34.8253   49.7871 H   0  0  0  0  0  0  0  0  0  0  0  0
   60.1574   33.8796   51.0135 H   0  0  0  0  0  0  0  0  0  0  0  0
   60.1630   34.7783   49.4582 H   0  0  0  0  0  0  0  0  0  0  0  0
   60.0869   32.9837   49.4582 H   0  0  0  0  0  0  0  0  0  0  0  0
   63.5217   31.1476   48.3887 H   0  0  0  0  0  0  0  0  0  0  0  0
   63.7001   31.7928   50.1025 H   0  0  0  0  0  0  0  0  0  0  0  0
   62.3258   29.6516   49.8211 H   0  0  0  0  0  0  0  0  0  0  0  0
   61.5824   31.0237   50.7404 H   0  0  0  0  0  0  0  0  0  0  0  0
   56.7960   30.1702   46.1967 H   0  0  0  0  0  0  0  0  0  0  0  0
   56.2306   28.2959   44.6554 H   0  0  0  0  0  0  0  0  0  0  0  0
   58.0436   26.9808   43.5593 H   0  0  0  0  0  0  0  0  0  0  0  0
   60.4341   27.5425   44.0000 H   0  0  0  0  0  0  0  0  0  0  0  0
   61.0165   29.4190   45.5297 H   0  0  0  0  0  0  0  0  0  0  0  0
   60.5125   33.4533   47.6331 H   0  0  0  0  0  0  0  0  0  0  0  0
   60.2471   35.6898   46.5699 H   0  0  0  0  0  0  0  0  0  0  0  0
   58.7770   35.9628   44.5735 H   0  0  0  0  0  0  0  0  0  0  0  0
   57.5501   33.9972   43.6484 H   0  0  0  0  0  0  0  0  0  0  0  0
   57.8027   31.7537   44.7023 H   0  0  0  0  0  0  0  0  0  0  0  0
  1  2  1  0
  2  3  1  0
  3  4  1  0
  4  5  1  0
  3  6  1  0
  6  7  1  0
  7  8  1  0
  8  9  1  0
  9 10  2  0
  9 11  1  0
 11 12  1  0
 12 13  1  0
 13 14  2  0
 14 15  1  0
 15 16  2  0
 16 17  1  0
 17 18  2  0
 12 19  1  0
 19 20  2  0
 20 21  1  0
 21 22  2  0
 22 23  1  0
 23 24  2  0
 12 25  1  0
 25 26  2  0
 25  8  1  0
 18 13  1  0
 24 19  1  0
  1 27  1  0
  1 28  1  0
  1 29  1  0
  2 30  1  0
  2 31  1  0
  3 32  1  0
  4 33  1  0
  4 34  1  0
  5 35  1  0
  5 36  1  0
  5 37  1  0
  6 38  1  0
  6 39  1  0
  7 40  1  0
  7 41  1  0
 14 42  1  0
 15 43  1  0
 16 44  1  0
 17 45  1  0
 18 46  1  0
 20 47  1  0
 21 48  1  0
 22 49  1  0
 23 50  1  0
 24 51  1  0
M  CHG  2   3   1  11  -1
M  END
>  <UniqueID>  (26) 
20

>  <SMILES>  (26) 
CC[NH+](CC)CCN1C(=O)[N-]C(c2ccccc2)(c2ccccc2)C1=O

>  <Energy>  (26) 
80.02888759714341

>  <Genealogy>  (26) 
CC[NH+](CC)CCN1C(=O)[N-]C(c2ccccc2)(c2ccccc2)C1=O (protonated)
CC[NH+](CC)CCN1C(=O)[N-]C(c2ccccc2)(c2ccccc2)C1=O (3D coordinates assigned)
CC[NH+](CC)CCN1C(=O)[N-]C(c2ccccc2)(c2ccccc2)C1=O (nonaromatic ring conformer: 80.02888759714341 kcal/mol)

>  <smiles>  (26) 
CCN(CC)CCN1C(=O)NC(c2ccccc2)(c2ccccc2)C1=O

>  <score_type>  (26) 
oracle

>  <origin>  (26) 
adg

>  <m_score__min__energy>  (26) 
-6.9800000000000004

>  <m_primary>  (26) 
energy

$$$$
26:0
     RDKit          3D

 50 52  0  0  0  0  0  0  0  0999 V2000
   58.8360   35.5832   45.9713 H   0  0  0  0  0  0  0  0  0  0  0  0
   59.2740   34.5850   46.1190 C   0  0  0  0  0  0  0  0  0  0  0  0
   60.3520   34.4750   46.9080 C   0  0  0  0  0  0  0  0  0  0  0  0
   61.3388   34.7482   46.5059 H   0  0  0  0  0  0  0  0  0  0  0  0
   60.2520   33.9960   48.3060 C   0  0  0  0  0  0  0  0  0  0  0  0
   59.0940   33.5050   48.8240 N   0  0  0  0  0  0  0  0  0  0  0  0
   59.4200   33.2120   50.0930 C   0  0  0  0  0  0  0  0  0  0  0  0
   58.5860   32.7010   51.0850 C   0  0  0  0  0  0  0  0  0  0  0  0
   57.5355   32.4535   50.8724 H   0  0  0  0  0  0  0  0  0  0  0  0
   59.1320   32.5120   52.3680 C   0  0  0  0  0  0  0  0  0  0  0  0
   58.3570   32.0190   53.3640 F   0  0  0  0  0  0  0  0  0  0  0  0
   60.4820   32.8450   52.6250 C   0  0  0  0  0  0  0  0  0  0  0  0
   60.8984   32.6987   53.6326 H   0  0  0  0  0  0  0  0  0  0  0  0
   61.2960   33.3620   51.6010 C   0  0  0  0  0  0  0  0  0  0  0  0
   62.3446   33.6345   51.7915 H   0  0  0  0  0  0  0  0  0  0  0  0
   60.7280   33.5180   50.3330 C   0  0  0  0  0  0  0  0  0  0  0  0
   61.2830   33.9960   49.2040 N   0  0  0  0  0  0  0  0  0  0  0  0
   62.6560   34.5000   49.0450 C   0  0  0  0  0  0  0  0  0  0  0  0
   63.2200   34.2790   49.9632 H   0  0  0  0  0  0  0  0  0  0  0  0
   62.5919   35.5817   48.8558 H   0  0  0  0  0  0  0  0  0  0  0  0
   63.3970   33.8580   47.8410 C   0  0  0  0  0  0  0  0  0  0  0  0
   64.3460   34.3973   47.7048 H   0  0  0  0  0  0  0  0  0  0  0  0
   62.7034   33.9398   46.9911 H   0  0  0  0  0  0  0  0  0  0  0  0
   63.7120   32.4070   47.9600 N   0  0  0  0  0  0  0  0  0  0  0  0
   64.6400   32.2860   47.4870 H   0  0  0  0  0  0  0  0  0  0  0  0
   63.8780   31.9420   49.3600 C   0  0  0  0  0  0  0  0  0  0  0  0
   63.8238   30.8434   49.3715 H   0  0  0  0  0  0  0  0  0  0  0  0
   63.0750   32.4035   49.9534 H   0  0  0  0  0  0  0  0  0  0  0  0
   65.2100   32.3700   49.9890 C   0  0  0  0  0  0  0  0  0  0  0  0
   65.1235   32.3422   51.0852 H   0  0  0  0  0  0  0  0  0  0  0  0
   66.0056   31.6823   49.6664 H   0  0  0  0  0  0  0  0  0  0  0  0
   65.4561   33.3924   49.6664 H   0  0  0  0  0  0  0  0  0  0  0  0
   62.7240   31.5700   47.2280 C   0  0  0  0  0  0  0  0  0  0  0  0
   62.1911   32.2052   46.5052 H   0  0  0  0  0  0  0  0  0  0  0  0
   63.2779   30.7622   46.7274 H   0  0  0  0  0  0  0  0  0  0  0  0
   61.6960   30.9190   48.1610 C   0  0  0  0  0  0  0  0  0  0  0  0
   61.9833   31.1009   49.2071 H   0  0  0  0  0  0  0  0  0  0  0  0
   60.7031   31.3533   47.9726 H   0  0  0  0  0  0  0  0  0  0  0  0
   61.6641   29.8357   47.9726 H   0  0  0  0  0  0  0  0  0  0  0  0
   58.6410   33.4320   45.4350 C   0  0  0  0  0  0  0  0  0  0  0  0
   58.3470   33.4390   44.0560 C   0  0  0  0  0  0  0  0  0  0  0  0
   58.5789   34.3285   43.4518 H   0  0  0  0  0  0  0  0  0  0  0  0
   57.7620   32.3210   43.4520 C   0  0  0  0  0  0  0  0  0  0  0  0
   57.5279   32.3377   42.3773 H   0  0  0  0  0  0  0  0  0  0  0  0
   57.4740   31.1820   44.2110 C   0  0  0  0  0  0  0  0  0  0  0  0
   56.7430   29.7820   43.4500 Cl  0  0  0  0  0  0  0  0  0  0  0  0
   57.7780   31.1590   45.5750 C   0  0  0  0  0  0  0  0  0  0  0  0
   57.5559   30.2622   46.1720 H   0  0  0  0  0  0  0  0  0  0  0  0
   58.3640   32.2740   46.1820 C   0  0  0  0  0  0  0  0  0  0  0  0
   58.6104   32.2447   47.2536 H   0  0  0  0  0  0  0  0  0  0  0  0
  1  2  1  0
  2  3  2  0
  3  4  1  0
  3  5  1  0
  5  6  2  0
  6  7  1  0
  7  8  2  0
  8  9  1  0
  8 10  1  0
 10 11  1  0
 10 12  2  0
 12 13  1  0
 12 14  1  0
 14 15  1  0
 14 16  2  0
 16 17  1  0
 17 18  1  0
 18 19  1  0
 18 20  1  0
 18 21  1  0
 21 22  1  0
 21 23  1  0
 21 24  1  0
 24 25  1  0
 24 26  1  0
 26 27  1  0
 26 28  1  0
 26 29  1  0
 29 30  1  0
 29 31  1  0
 29 32  1  0
 24 33  1  0
 33 34  1  0
 33 35  1  0
 33 36  1  0
 36 37  1  0
 36 38  1  0
 36 39  1  0
  2 40  1  0
 40 41  2  0
 41 42  1  0
 41 43  1  0
 43 44  1  0
 43 45  2  0
 45 46  1  0
 45 47  1  0
 47 48  1  0
 47 49  2  0
 49 50  1  0
 17  5  1  0
 49 40  1  0
 16  7  1  0
M  CHG  1  24   1
M  END
>  <UniqueID>  (27) 
21

>  <SMILES>  (27) 
CC[NH+](CC)CCn1c(/C=C/c2ccc(Cl)cc2)nc2cc(F)ccc21

>  <Energy>  (27) 
94.78628254041568

>  <Genealogy>  (27) 
CC[NH+](CC)CCn1c(C=Cc2ccc(Cl)cc2)nc2cc(F)ccc21 (protonated)
CC[NH+](CC)CCn1c(/C=C/c2ccc(Cl)cc2)nc2cc(F)ccc21 (cis-trans isomerization)
CC[NH+](CC)CCn1c(/C=C/c2ccc(Cl)cc2)nc2cc(F)ccc21 (3D coordinates assigned)
CC[NH+](CC)CCn1c(/C=C/c2ccc(Cl)cc2)nc2cc(F)ccc21 (optimized conformer: 94.78628254041568 kcal/mol)

>  <smiles>  (27) 
CCN(CC)CCn1c(C=Cc2ccc(Cl)cc2)nc2cc(F)ccc21

>  <score_type>  (27) 
oracle

>  <origin>  (27) 
adg

>  <m_score__min__energy>  (27) 
-6.0999999999999996

>  <m_primary>  (27) 
energy

$$$$
27:0
     RDKit          3D

 41 42  0  0  0  0  0  0  0  0999 V2000
   60.1290   28.9490   45.0070 C   0  0  0  0  0  0  0  0  0  0  0  0
   58.6560   28.7280   45.3520 C   0  0  0  0  0  0  0  0  0  0  0  0
   57.7290   28.9730   44.1550 C   0  0  0  0  0  0  0  0  0  0  0  0
   56.4440   29.6400   44.5740 C   0  0  0  0  0  0  0  0  0  0  0  0
   55.5560   28.9530   45.1430 O   0  0  0  0  0  0  0  0  0  0  0  0
   56.2660   31.0590   44.4760 N   0  0  0  0  0  0  0  0  0  0  0  0
   57.1260   32.0520   45.0450 C   0  0  0  0  0  0  0  0  0  0  0  0
   57.7820   31.8360   46.2650 C   0  0  0  0  0  0  0  0  0  0  0  0
   58.6470   32.8040   46.7830 C   0  0  0  0  0  0  0  0  0  0  0  0
   58.8930   33.9940   46.0770 C   0  0  0  0  0  0  0  0  0  0  0  0
   59.8140   35.0180   46.6210 C   0  0  0  0  0  0  0  0  0  0  0  0
   60.0080   36.0910   45.9870 O   0  0  0  0  0  0  0  0  0  0  0  0
   60.5220   34.7620   47.8430 N   0  0  0  0  0  0  0  0  0  0  0  0
   61.6810   33.9330   48.0310 C   0  0  0  0  0  0  0  0  0  0  0  0
   62.5620   33.6320   46.9750 C   0  0  0  0  0  0  0  0  0  0  0  0
   63.6910   32.8410   47.2000 C   0  0  0  0  0  0  0  0  0  0  0  0
   63.9590   32.3540   48.4800 C   0  0  0  0  0  0  0  0  0  0  0  0
   63.1090   32.6700   49.5420 C   0  0  0  0  0  0  0  0  0  0  0  0
   61.9690   33.4690   49.3270 C   0  0  0  0  0  0  0  0  0  0  0  0
   61.1020   33.8230   50.3750 O   0  0  0  0  0  0  0  0  0  0  0  0
   59.7380   33.4320   50.4550 C   0  0  0  0  0  0  0  0  0  0  0  0
   58.2570   34.1910   44.8360 C   0  0  0  0  0  0  0  0  0  0  0  0
   57.3900   33.2210   44.3230 C   0  0  0  0  0  0  0  0  0  0  0  0
   60.7137   29.0367   45.9346 H   0  0  0  0  0  0  0  0  0  0  0  0
   60.4998   28.0964   44.4191 H   0  0  0  0  0  0  0  0  0  0  0  0
   60.2333   29.8728   44.4191 H   0  0  0  0  0  0  0  0  0  0  0  0
   58.5254   27.6903   45.6927 H   0  0  0  0  0  0  0  0  0  0  0  0
   58.3850   29.4488   46.1375 H   0  0  0  0  0  0  0  0  0  0  0  0
   58.2460   29.6185   43.4297 H   0  0  0  0  0  0  0  0  0  0  0  0
   57.4806   27.9991   43.7080 H   0  0  0  0  0  0  0  0  0  0  0  0
   57.6151   30.8996   46.8176 H   0  0  0  0  0  0  0  0  0  0  0  0
   59.1395   32.6329   47.7516 H   0  0  0  0  0  0  0  0  0  0  0  0
   62.3600   34.0221   45.9665 H   0  0  0  0  0  0  0  0  0  0  0  0
   64.3693   32.6018   46.3677 H   0  0  0  0  0  0  0  0  0  0  0  0
   64.8413   31.7201   48.6527 H   0  0  0  0  0  0  0  0  0  0  0  0
   63.3308   32.2931   50.5513 H   0  0  0  0  0  0  0  0  0  0  0  0
   59.4422   33.3472   51.5111 H   0  0  0  0  0  0  0  0  0  0  0  0
   59.1105   34.1864   49.9579 H   0  0  0  0  0  0  0  0  0  0  0  0
   59.6055   32.4597   49.9579 H   0  0  0  0  0  0  0  0  0  0  0  0
   58.4433   35.1136   44.2667 H   0  0  0  0  0  0  0  0  0  0  0  0
   56.9121   33.3782   43.3448 H   0  0  0  0  0  0  0  0  0  0  0  0
  1  2  1  0
  2  3  1  0
  3  4  1  0
  4  5  2  0
  4  6  1  0
  6  7  1  0
  7  8  2  0
  8  9  1  0
  9 10  2  0
 10 11  1  0
 11 12  2  0
 11 13  1  0
 13 14  1  0
 14 15  2  0
 15 16  1  0
 16 17  2  0
 17 18  1  0
 18 19  2  0
 19 20  1  0
 20 21  1  0
 10 22  1  0
 22 23  2  0
 23  7  1  0
 19 14  1  0
  1 24  1  0
  1 25  1  0
  1 26  1  0
  2 27  1  0
  2 28  1  0
  3 29  1  0
  3 30  1  0
  8 31  1  0
  9 32  1  0
 15 33  1  0
 16 34  1  0
 17 35  1  0
 18 36  1  0
 21 37  1  0
 21 38  1  0
 21 39  1  0
 22 40  1  0
 23 41  1  0
M  CHG  2   6  -1  13  -1
M  END
>  <UniqueID>  (28) 
22

>  <SMILES>  (28) 
CCCC(=O)[N-]c1ccc(C(=O)[N-]c2ccccc2OC)cc1

>  <Energy>  (28) 
46.06160075535347

>  <Genealogy>  (28) 
CCCC(=O)[N-]c1ccc(C(=O)[N-]c2ccccc2OC)cc1 (protonated)
CCCC(=O)[N-]c1ccc(C(=O)[N-]c2ccccc2OC)cc1 (3D coordinates assigned)
CCCC(=O)[N-]c1ccc(C(=O)[N-]c2ccccc2OC)cc1 (optimized conformer: 46.06160075535347 kcal/mol)

>  <smiles>  (28) 
CCCC(=O)Nc1ccc(C(=O)Nc2ccccc2OC)cc1

>  <score_type>  (28) 
oracle

>  <origin>  (28) 
adg

>  <m_score__min__energy>  (28) 
-10.74

>  <m_primary>  (28) 
energy

$$$$
28:0
     RDKit          3D

 44 45  0  0  0  0  0  0  0  0999 V2000
   60.7060   27.5830   48.1410 C   0  0  0  0  0  0  0  0  0  0  0  0
   60.2250   27.0440   46.9130 O   0  0  0  0  0  0  0  0  0  0  0  0
   58.8680   26.8590   46.6060 C   0  0  0  0  0  0  0  0  0  0  0  0
   58.3010   25.6040   46.8450 C   0  0  0  0  0  0  0  0  0  0  0  0
   56.9520   25.3710   46.5720 C   0  0  0  0  0  0  0  0  0  0  0  0
   56.1460   26.3950   46.0390 C   0  0  0  0  0  0  0  0  0  0  0  0
   54.7840   26.1990   45.7580 O   0  0  0  0  0  0  0  0  0  0  0  0
   54.1670   24.9250   45.6020 C   0  0  0  0  0  0  0  0  0  0  0  0
   56.7120   27.6520   45.7710 C   0  0  0  0  0  0  0  0  0  0  0  0
   55.8730   28.6890   45.2420 N   0  0  0  0  0  0  0  0  0  0  0  0
   56.2830   29.7590   44.3820 C   0  0  0  0  0  0  0  0  0  0  0  0
   55.6920   29.9700   43.2890 O   0  0  0  0  0  0  0  0  0  0  0  0
   57.3780   30.6780   44.8250 C   0  0  0  0  0  0  0  0  0  0  0  0
   57.0570   32.0710   44.4470 N   0  0  0  0  0  0  0  0  0  0  0  0
   56.6640   32.8880   45.6140 C   0  0  0  0  0  0  0  0  0  0  0  0
   57.8470   33.1710   46.5620 C   0  0  0  0  0  0  0  0  0  0  0  0
   59.1800   33.3960   45.8080 C   0  0  0  0  0  0  0  0  0  0  0  0
   60.0460   34.4460   46.5150 C   0  0  0  0  0  0  0  0  0  0  0  0
   58.9290   33.7930   44.3470 C   0  0  0  0  0  0  0  0  0  0  0  0
   58.1150   32.7070   43.6150 C   0  0  0  0  0  0  0  0  0  0  0  0
   58.0660   27.8860   46.0760 C   0  0  0  0  0  0  0  0  0  0  0  0
   60.2346   27.0548   48.9829 H   0  0  0  0  0  0  0  0  0  0  0  0
   61.7975   27.4572   48.1941 H   0  0  0  0  0  0  0  0  0  0  0  0
   60.4573   28.6532   48.1941 H   0  0  0  0  0  0  0  0  0  0  0  0
   58.9231   24.7930   47.2517 H   0  0  0  0  0  0  0  0  0  0  0  0
   56.5161   24.3815   46.7745 H   0  0  0  0  0  0  0  0  0  0  0  0
   53.9586   24.4947   46.5927 H   0  0  0  0  0  0  0  0  0  0  0  0
   53.2246   25.0396   45.0464 H   0  0  0  0  0  0  0  0  0  0  0  0
   54.8412   24.2566   45.0464 H   0  0  0  0  0  0  0  0  0  0  0  0
   57.4871   30.6136   45.9177 H   0  0  0  0  0  0  0  0  0  0  0  0
   58.3175   30.3800   44.3365 H   0  0  0  0  0  0  0  0  0  0  0  0
   56.2630   33.8470   45.2543 H   0  0  0  0  0  0  0  0  0  0  0  0
   55.9101   32.3213   46.1801 H   0  0  0  0  0  0  0  0  0  0  0  0
   57.6188   34.0728   47.1491 H   0  0  0  0  0  0  0  0  0  0  0  0
   57.9752   32.2872   47.2043 H   0  0  0  0  0  0  0  0  0  0  0  0
   59.7294   32.4431   45.8127 H   0  0  0  0  0  0  0  0  0  0  0  0
   59.9489   34.3282   47.6044 H   0  0  0  0  0  0  0  0  0  0  0  0
   61.0980   34.3100   46.2239 H   0  0  0  0  0  0  0  0  0  0  0  0
   59.7122   35.4529   46.2239 H   0  0  0  0  0  0  0  0  0  0  0  0
   58.3704   34.7403   44.3218 H   0  0  0  0  0  0  0  0  0  0  0  0
   59.8993   33.9062   43.8414 H   0  0  0  0  0  0  0  0  0  0  0  0
   57.6344   33.1679   42.7394 H   0  0  0  0  0  0  0  0  0  0  0  0
   58.8238   31.9109   43.3432 H   0  0  0  0  0  0  0  0  0  0  0  0
   58.5008   28.8807   45.8984 H   0  0  0  0  0  0  0  0  0  0  0  0
  1  2  1  0
  2  3  1  0
  3  4  2  0
  4  5  1  0
  5  6  2  0
  6  7  1  0
  7  8  1  0
  6  9  1  0
  9 10  1  0
 10 11  1  0
 11 12  2  0
 11 13  1  0
 13 14  1  0
 14 15  1  0
 15 16  1  0
 16 17  1  0
 17 18  1  0
 17 19  1  0
 19 20  1  0
  9 21  2  0
 21  3  1  0
 20 14  1  0
  1 22  1  0
  1 23  1  0
  1 24  1  0
  4 25  1  0
  5 26  1  0
  8 27  1  0
  8 28  1  0
  8 29  1  0
 13 30  1  0
 13 31  1  0
 15 32  1  0
 15 33  1  0
 16 34  1  0
 16 35  1  0
 17 36  1  0
 18 37  1  0
 18 38  1  0
 18 39  1  0
 19 40  1  0
 19 41  1  0
 20 42  1  0
 20 43  1  0
 21 44  1  0
M  CHG  1  10  -1
M  END
>  <UniqueID>  (29) 
23

>  <SMILES>  (29) 
COc1ccc(OC)c([N-]C(=O)CN2CCC(C)CC2)c1

>  <Energy>  (29) 
51.07962486352873

>  <Genealogy>  (29) 
COc1ccc(OC)c([N-]C(=O)CN2CCC(C)CC2)c1 (protonated)
COc1ccc(OC)c([N-]C(=O)CN2CCC(C)CC2)c1 (3D coordinates assigned)
COc1ccc(OC)c([N-]C(=O)CN2CCC(C)CC2)c1 (nonaromatic ring conformer: 51.07962486352873 kcal/mol)

>  <smiles>  (29) 
COc1ccc(OC)c(NC(=O)CN2CCC(C)CC2)c1

>  <score_type>  (29) 
oracle

>  <origin>  (29) 
adg

>  <m_score__min__energy>  (29) 
-9.3000000000000007

>  <m_primary>  (29) 
energy

$$$$
29:0
     RDKit          3D

 35 35  0  0  0  0  0  0  0  0999 V2000
   58.8590   34.1045   47.8915 H   0  0  0  0  0  0  0  0  0  0  0  0
   59.4580   33.7470   47.0410 C   0  0  0  0  0  0  0  0  0  0  0  0
   59.6290   34.6520   45.8860 C   0  0  0  0  0  0  0  0  0  0  0  0
   60.4783   35.3508   45.8651 H   0  0  0  0  0  0  0  0  0  0  0  0
   59.4460   31.3160   46.4450 C   0  0  0  0  0  0  0  0  0  0  0  0
   58.1250   31.2740   45.9850 C   0  0  0  0  0  0  0  0  0  0  0  0
   57.4796   32.1573   46.1004 H   0  0  0  0  0  0  0  0  0  0  0  0
   57.6150   30.1140   45.3770 C   0  0  0  0  0  0  0  0  0  0  0  0
   56.3020   30.0550   44.8820 O   0  0  0  0  0  0  0  0  0  0  0  0
   55.9550   30.0850   43.5020 C   0  0  0  0  0  0  0  0  0  0  0  0
   54.8638   30.1793   43.4003 H   0  0  0  0  0  0  0  0  0  0  0  0
   56.4439   30.9442   43.0196 H   0  0  0  0  0  0  0  0  0  0  0  0
   56.2892   29.1546   43.0196 H   0  0  0  0  0  0  0  0  0  0  0  0
   58.4240   28.9730   45.2510 C   0  0  0  0  0  0  0  0  0  0  0  0
   57.8430   27.8520   44.6260 O   0  0  0  0  0  0  0  0  0  0  0  0
   58.1710   27.3290   43.3440 C   0  0  0  0  0  0  0  0  0  0  0  0
   58.7520   26.4026   43.4636 H   0  0  0  0  0  0  0  0  0  0  0  0
   57.2464   27.1128   42.7887 H   0  0  0  0  0  0  0  0  0  0  0  0
   58.7682   28.0672   42.7887 H   0  0  0  0  0  0  0  0  0  0  0  0
   59.7530   28.9940   45.7500 C   0  0  0  0  0  0  0  0  0  0  0  0
   60.5630   27.8520   45.6420 O   0  0  0  0  0  0  0  0  0  0  0  0
   60.3810   26.6470   46.3800 C   0  0  0  0  0  0  0  0  0  0  0  0
   60.4144   26.8681   47.4570 H   0  0  0  0  0  0  0  0  0  0  0  0
   59.4060   26.2054   46.1264 H   0  0  0  0  0  0  0  0  0  0  0  0
   61.1821   25.9371   46.1264 H   0  0  0  0  0  0  0  0  0  0  0  0
   60.2430   30.1710   46.3510 C   0  0  0  0  0  0  0  0  0  0  0  0
   61.2672   30.1890   46.7519 H   0  0  0  0  0  0  0  0  0  0  0  0
   59.9870   32.5170   47.1180 C   0  0  0  0  0  0  0  0  0  0  0  0
   60.8932   32.3916   47.7288 H   0  0  0  0  0  0  0  0  0  0  0  0
   58.7680   34.6330   44.8690 C   0  0  0  0  0  0  0  0  0  0  0  0
   59.1110   34.9163   43.8629 H   0  0  0  0  0  0  0  0  0  0  0  0
   57.3420   34.2320   45.0760 C   0  0  0  0  0  0  0  0  0  0  0  0
   57.1306   34.1726   46.1539 H   0  0  0  0  0  0  0  0  0  0  0  0
   56.6802   34.9789   44.6132 H   0  0  0  0  0  0  0  0  0  0  0  0
   57.1665   33.2497   44.6132 H   0  0  0  0  0  0  0  0  0  0  0  0
  1  2  1  0
  2  3  2  0
  3  4  1  0
  3  5  1  0
  5  6  2  0
  6  7  1  0
  6  8  1  0
  8  9  1  0
  9 10  1  0
 10 11  1  0
 10 12  1  0
 10 13  1  0
  8 14  2  0
 14 15  1  0
 15 16  1  0
 16 17  1  0
 16 18  1  0
 16 19  1  0
 14 20  1  0
 20 21  1  0
 21 22  1  0
 22 23  1  0
 22 24  1  0
 22 25  1  0
 20 26  2  0
 26 27  1  0
  2 28  1  0
 28 29  1  0
 28 30  2  0
 30 31  1  0
 30 32  1  0
 32 33  1  0
 32 34  1  0
 32 35  1  0
 26  5  1  0
M  END
>  <UniqueID>  (30) 
24

>  <SMILES>  (30) 
C/C=C/C=C\c1cc(OC)c(OC)c(OC)c1

>  <Energy>  (30) 
35.49166809317617

>  <Genealogy>  (30) 
C/C=C/C=C\c1cc(OC)c(OC)c(OC)c1 (cis-trans isomerization)
C/C=C/C=C\c1cc(OC)c(OC)c(OC)c1 (3D coordinates assigned)
C/C=C/C=C\c1cc(OC)c(OC)c(OC)c1 (optimized conformer: 35.49166809317617 kcal/mol)

>  <smiles>  (30) 
CC=CC=Cc1cc(OC)c(OC)c(OC)c1

>  <score_type>  (30) 
oracle

>  <origin>  (30) 
adg

>  <m_score__min__energy>  (30) 
-5.1399999999999997

>  <m_primary>  (30) 
energy

$$$$
30:0
     RDKit          3D

 47 49  0  0  0  0  0  0  0  0999 V2000
   64.3020   33.1210   48.5230 C   0  0  0  0  0  0  0  0  0  0  0  0
   63.4220   31.9280   48.1630 C   0  0  0  0  0  0  0  0  0  0  0  0
   62.0190   32.2230   48.4450 N   0  0  0  0  0  0  0  0  0  0  0  0
   61.2270   33.0700   47.6010 C   0  0  0  0  0  0  0  0  0  0  0  0
   61.7800   33.7570   46.6980 O   0  0  0  0  0  0  0  0  0  0  0  0
   59.7290   33.1340   47.7700 C   0  0  0  0  0  0  0  0  0  0  0  0
   58.9630   31.9200   47.1350 C   0  0  2  0  0  0  0  0  0  0  0  0
   58.5260   30.9950   48.2970 C   0  0  0  0  0  0  0  0  0  0  0  0
   60.1800   31.0900   46.0140 S   0  0  0  0  0  0  0  0  0  0  0  0
   59.5210   29.4310   46.0420 C   0  0  0  0  0  0  0  0  0  0  0  0
   60.3810   28.4330   46.5240 C   0  0  0  0  0  0  0  0  0  0  0  0
   59.9950   27.0960   46.5110 C   0  0  0  0  0  0  0  0  0  0  0  0
   58.7440   26.7420   46.0170 C   0  0  0  0  0  0  0  0  0  0  0  0
   57.8670   27.7290   45.5620 C   0  0  0  0  0  0  0  0  0  0  0  0
   58.2260   29.0980   45.5780 C   0  0  0  0  0  0  0  0  0  0  0  0
   57.1750   30.1030   45.2160 C   0  0  0  0  0  0  0  0  0  0  0  0
   56.0200   29.6620   44.9540 O   0  0  0  0  0  0  0  0  0  0  0  0
   57.3480   31.6160   45.1190 C   0  0  2  0  0  0  0  0  0  0  0  0
   58.1470   32.1050   43.8870 C   0  0  0  0  0  0  0  0  0  0  0  0
   58.7530   33.5050   44.1050 C   0  0  0  0  0  0  0  0  0  0  0  0
   57.8590   34.4160   44.9580 C   0  0  0  0  0  0  0  0  0  0  0  0
   57.3560   33.7570   46.2670 C   0  0  0  0  0  0  0  0  0  0  0  0
   57.7160   32.3170   46.3820 N   0  0  0  0  0  0  0  0  0  0  0  0
   64.3682   33.2108   49.6173 H   0  0  0  0  0  0  0  0  0  0  0  0
   65.3089   32.9731   48.1056 H   0  0  0  0  0  0  0  0  0  0  0  0
   63.8634   34.0394   48.1056 H   0  0  0  0  0  0  0  0  0  0  0  0
   63.5366   31.7038   47.0922 H   0  0  0  0  0  0  0  0  0  0  0  0
   63.7318   31.0625   48.7671 H   0  0  0  0  0  0  0  0  0  0  0  0
   61.5810   31.7970   49.2930 H   0  0  0  0  0  0  0  0  0  0  0  0
   59.5031   33.1610   48.8462 H   0  0  0  0  0  0  0  0  0  0  0  0
   59.3873   34.0370   47.2430 H   0  0  0  0  0  0  0  0  0  0  0  0
   58.7550   31.4797   49.2575 H   0  0  0  0  0  0  0  0  0  0  0  0
   57.4442   30.8077   48.2296 H   0  0  0  0  0  0  0  0  0  0  0  0
   59.0683   30.0404   48.2296 H   0  0  0  0  0  0  0  0  0  0  0  0
   61.3706   28.7101   46.9163 H   0  0  0  0  0  0  0  0  0  0  0  0
   60.6775   26.3213   46.8904 H   0  0  0  0  0  0  0  0  0  0  0  0
   58.4452   25.6839   45.9847 H   0  0  0  0  0  0  0  0  0  0  0  0
   56.8766   27.4364   45.1833 H   0  0  0  0  0  0  0  0  0  0  0  0
   56.3137   31.9428   44.9362 H   0  0  0  0  0  0  0  0  0  0  0  0
   58.9618   31.3933   43.6878 H   0  0  0  0  0  0  0  0  0  0  0  0
   57.4523   32.1662   43.0363 H   0  0  0  0  0  0  0  0  0  0  0  0
   59.7236   33.3927   44.6103 H   0  0  0  0  0  0  0  0  0  0  0  0
   58.8584   33.9769   43.1170 H   0  0  0  0  0  0  0  0  0  0  0  0
   58.4338   35.3159   45.2223 H   0  0  0  0  0  0  0  0  0  0  0  0
   56.9687   34.6450   44.3539 H   0  0  0  0  0  0  0  0  0  0  0  0
   57.7960   34.2953   47.1194 H   0  0  0  0  0  0  0  0  0  0  0  0
   56.2577   33.8168   46.2586 H   0  0  0  0  0  0  0  0  0  0  0  0
  1  2  1  0
  2  3  1  0
  3  4  1  0
  4  5  2  0
  4  6  1  0
  7  6  1  1
  7  8  1  0
  7  9  1  0
  9 10  1  0
 10 11  2  0
 11 12  1  0
 12 13  2  0
 13 14  1  0
 14 15  2  0
 15 16  1  0
 16 17  2  0
 16 18  1  0
 18 19  1  0
 19 20  1  0
 20 21  1  0
 21 22  1  0
 22 23  1  0
 23  7  1  0
 15 10  1  0
 23 18  1  0
  1 24  1  0
  1 25  1  0
  1 26  1  0
  2 27  1  0
  2 28  1  0
  3 29  1  0
  6 30  1  0
  6 31  1  0
  8 32  1  0
  8 33  1  0
  8 34  1  0
 11 35  1  0
 12 36  1  0
 13 37  1  0
 14 38  1  0
 18 39  1  6
 19 40  1  0
 19 41  1  0
 20 42  1  0
 20 43  1  0
 21 44  1  0
 21 45  1  0
 22 46  1  0
 22 47  1  0
M  END
>  <UniqueID>  (31) 
25

>  <SMILES>  (31) 
CCNC(=O)C[C@]1(C)Sc2ccccc2C(=O)[C@@H]2CCCCN21

>  <Energy>  (31) 
87.39123076530421

>  <Genealogy>  (31) 
CCNC(=O)C[C@]1(C)Sc2ccccc2C(=O)[C@@H]2CCCCN21 (chirality)
CCNC(=O)C[C@]1(C)Sc2ccccc2C(=O)[C@@H]2CCCCN21 (3D coordinates assigned)
CCNC(=O)C[C@]1(C)Sc2ccccc2C(=O)[C@@H]2CCCCN21 (nonaromatic ring conformer: 87.39123076530421 kcal/mol)

>  <smiles>  (31) 
CCNC(=O)CC1(C)Sc2ccccc2C(=O)C2CCCCN21

>  <score_type>  (31) 
oracle

>  <origin>  (31) 
adg

>  <m_score__min__energy>  (31) 
-6.5499999999999998

>  <m_primary>  (31) 
energy

$$$$
31:0
     RDKit          3D

 51 53  0  0  0  0  0  0  0  0999 V2000
   56.6870   29.3500   43.2010 C   0  0  0  0  0  0  0  0  0  0  0  0
   56.8610   30.7590   43.0890 O   0  0  0  0  0  0  0  0  0  0  0  0
   57.5910   31.5410   43.9950 C   0  0  0  0  0  0  0  0  0  0  0  0
   58.1410   32.7900   43.6450 C   0  0  0  0  0  0  0  0  0  0  0  0
   58.8640   33.5290   44.5850 C   0  0  0  0  0  0  0  0  0  0  0  0
   59.0600   33.0310   45.8800 C   0  0  0  0  0  0  0  0  0  0  0  0
   59.9800   33.9620   47.0620 S   0  0  0  0  0  0  0  0  0  0  0  0
   60.7120   35.0710   46.3560 O   0  0  0  0  0  0  0  0  0  0  0  0
   59.0230   34.5920   48.0360 O   0  0  0  0  0  0  0  0  0  0  0  0
   61.1360   32.9770   47.9350 N   0  0  0  0  0  0  0  0  0  0  0  0
   62.1600   33.7750   48.6390 C   0  0  0  0  0  0  0  0  0  0  0  0
   63.3780   34.1400   47.7660 C   0  0  0  0  0  0  0  0  0  0  0  0
   63.7630   33.0500   46.7560 C   0  0  0  0  0  0  0  0  0  0  0  0
   63.1590   31.7010   47.1240 C   0  0  0  0  0  0  0  0  0  0  0  0
   61.6180   31.8090   47.1550 C   0  0  1  0  0  0  0  0  0  0  0  0
   60.9850   30.5360   47.7450 C   0  0  0  0  0  0  0  0  0  0  0  0
   60.4200   30.7700   49.1160 C   0  0  0  0  0  0  0  0  0  0  0  0
   60.9030   30.1420   50.0960 O   0  0  0  0  0  0  0  0  0  0  0  0
   59.3960   31.7580   49.3130 N   0  0  0  0  0  0  0  0  0  0  0  0
   58.7060   31.9670   50.5570 C   0  0  0  0  0  0  0  0  0  0  0  0
   58.9820   33.0830   51.3710 C   0  0  0  0  0  0  0  0  0  0  0  0
   58.3130   33.2490   52.5880 C   0  0  0  0  0  0  0  0  0  0  0  0
   57.3750   32.3020   53.0090 C   0  0  0  0  0  0  0  0  0  0  0  0
   57.1120   31.1800   52.2170 C   0  0  0  0  0  0  0  0  0  0  0  0
   55.9450   29.9850   52.7520 Cl  0  0  0  0  0  0  0  0  0  0  0  0
   57.7810   31.0100   51.0000 C   0  0  0  0  0  0  0  0  0  0  0  0
   58.4990   31.7960   46.2340 C   0  0  0  0  0  0  0  0  0  0  0  0
   57.7750   31.0560   45.2960 C   0  0  0  0  0  0  0  0  0  0  0  0
   56.6522   29.0682   44.2637 H   0  0  0  0  0  0  0  0  0  0  0  0
   55.7458   29.0568   42.7129 H   0  0  0  0  0  0  0  0  0  0  0  0
   57.5286   28.8367   42.7129 H   0  0  0  0  0  0  0  0  0  0  0  0
   58.0007   33.1849   42.6279 H   0  0  0  0  0  0  0  0  0  0  0  0
   59.2819   34.5077   44.3067 H   0  0  0  0  0  0  0  0  0  0  0  0
   61.6925   34.7074   48.9883 H   0  0  0  0  0  0  0  0  0  0  0  0
   62.5349   33.1545   49.4662 H   0  0  0  0  0  0  0  0  0  0  0  0
   63.1440   35.0605   47.2110 H   0  0  0  0  0  0  0  0  0  0  0  0
   64.2341   34.2652   48.4453 H   0  0  0  0  0  0  0  0  0  0  0  0
   63.4001   33.3431   45.7598 H   0  0  0  0  0  0  0  0  0  0  0  0
   64.8583   32.9482   46.7628 H   0  0  0  0  0  0  0  0  0  0  0  0
   63.4576   30.9510   46.3768 H   0  0  0  0  0  0  0  0  0  0  0  0
   63.5222   31.3991   48.1175 H   0  0  0  0  0  0  0  0  0  0  0  0
   61.3096   31.9391   46.1072 H   0  0  0  0  0  0  0  0  0  0  0  0
   60.1752   30.2015   47.0799 H   0  0  0  0  0  0  0  0  0  0  0  0
   61.7731   29.7732   47.8289 H   0  0  0  0  0  0  0  0  0  0  0  0
   59.2110   32.4300   48.5350 H   0  0  0  0  0  0  0  0  0  0  0  0
   59.7260   33.8263   51.0485 H   0  0  0  0  0  0  0  0  0  0  0  0
   58.5256   34.1271   53.2155 H   0  0  0  0  0  0  0  0  0  0  0  0
   56.8441   32.4393   53.9626 H   0  0  0  0  0  0  0  0  0  0  0  0
   57.5802   30.1195   50.3862 H   0  0  0  0  0  0  0  0  0  0  0  0
   58.6295   31.4079   47.2549 H   0  0  0  0  0  0  0  0  0  0  0  0
   57.3458   30.0843   45.5816 H   0  0  0  0  0  0  0  0  0  0  0  0
  1  2  1  0
  2  3  1  0
  3  4  2  0
  4  5  1  0
  5  6  2  0
  6  7  1  0
  7  8  2  0
  7  9  2  0
  7 10  1  0
 10 11  1  0
 11 12  1  0
 12 13  1  0
 13 14  1  0
 14 15  1  0
 15 16  1  0
 16 17  1  0
 17 18  2  0
 17 19  1  0
 19 20  1  0
 20 21  2  0
 21 22  1  0
 22 23  2  0
 23 24  1  0
 24 25  1  0
 24 26  2  0
  6 27  1  0
 27 28  2  0
 28  3  1  0
 15 10  1  0
 26 20  1  0
  1 29  1  0
  1 30  1  0
  1 31  1  0
  4 32  1  0
  5 33  1  0
 11 34  1  0
 11 35  1  0
 12 36  1  0
 12 37  1  0
 13 38  1  0
 13 39  1  0
 14 40  1  0
 14 41  1  0
 15 42  1  6
 16 43  1  0
 16 44  1  0
 19 45  1  0
 21 46  1  0
 22 47  1  0
 23 48  1  0
 26 49  1  0
 27 50  1  0
 28 51  1  0
M  END
>  <UniqueID>  (32) 
26

>  <SMILES>  (32) 
COc1ccc(S(=O)(=O)N2CCCC[C@H]2CC(=O)Nc2cccc(Cl)c2)cc1

>  <Energy>  (32) 
59.16451737482957

>  <Genealogy>  (32) 
COc1ccc(S(=O)(=O)N2CCCC[C@H]2CC(=O)Nc2cccc(Cl)c2)cc1 (chirality)
COc1ccc(S(=O)(=O)N2CCCC[C@H]2CC(=O)Nc2cccc(Cl)c2)cc1 (3D coordinates assigned)
COc1ccc(S(=O)(=O)N2CCCC[C@H]2CC(=O)Nc2cccc(Cl)c2)cc1 (nonaromatic ring conformer: 59.16451737482957 kcal/mol)

>  <smiles>  (32) 
COc1ccc(S(=O)(=O)N2CCCCC2CC(=O)Nc2cccc(Cl)c2)cc1

>  <score_type>  (32) 
oracle

>  <origin>  (32) 
adg

>  <m_score__min__energy>  (32) 
-9.1300000000000008

>  <m_primary>  (32) 
energy

$$$$
32:0
     RDKit          3D

 47 50  0  0  0  0  0  0  0  0999 V2000
   60.4848   26.8186   45.8460 H   0  0  0  0  0  0  0  0  0  0  0  0
   59.4030   27.0030   45.7700 C   0  0  0  0  0  0  0  0  0  0  0  0
   58.5060   26.1950   46.4720 C   0  0  0  0  0  0  0  0  0  0  0  0
   58.8869   25.3784   47.1029 H   0  0  0  0  0  0  0  0  0  0  0  0
   57.1250   26.4150   46.3800 C   0  0  0  0  0  0  0  0  0  0  0  0
   56.2670   25.5800   47.1090 O   0  0  0  0  0  0  0  0  0  0  0  0
   56.5140   24.2010   47.3730 C   0  0  0  0  0  0  0  0  0  0  0  0
   56.5437   24.0354   48.4601 H   0  0  0  0  0  0  0  0  0  0  0  0
   55.7104   23.5934   46.9313 H   0  0  0  0  0  0  0  0  0  0  0  0
   57.4785   23.9101   46.9313 H   0  0  0  0  0  0  0  0  0  0  0  0
   56.6480   27.4640   45.5670 C   0  0  0  0  0  0  0  0  0  0  0  0
   55.5657   27.6417   45.4832 H   0  0  0  0  0  0  0  0  0  0  0  0
   57.5470   28.2840   44.8630 C   0  0  0  0  0  0  0  0  0  0  0  0
   57.0280   29.4340   44.0390 C   0  0  0  0  0  0  0  0  0  0  0  0
   57.7656   29.6854   43.2627 H   0  0  0  0  0  0  0  0  0  0  0  0
   56.0757   29.1386   43.5744 H   0  0  0  0  0  0  0  0  0  0  0  0
   56.8000   30.6050   44.8840 N   0  0  0  0  0  0  0  0  0  0  0  0
   57.7480   31.3370   45.3880 C   0  0  0  0  0  0  0  0  0  0  0  0
   58.6100   30.8670   46.3280 N   0  0  0  0  0  0  0  0  0  0  0  0
   59.3880   31.9500   46.5070 C   0  0  0  0  0  0  0  0  0  0  0  0
   60.4460   32.0280   47.3460 N   0  0  0  0  0  0  0  0  0  0  0  0
   61.1640   33.1930   47.4210 C   0  0  0  0  0  0  0  0  0  0  0  0
   62.3050   33.2690   48.3070 N   0  0  0  0  0  0  0  0  0  0  0  0
   63.5440   32.5720   47.9240 C   0  0  0  0  0  0  0  0  0  0  0  0
   63.2854   31.5887   47.5042 H   0  0  0  0  0  0  0  0  0  0  0  0
   64.0710   33.1895   47.1817 H   0  0  0  0  0  0  0  0  0  0  0  0
   64.4720   32.3710   49.1260 C   0  0  0  0  0  0  0  0  0  0  0  0
   64.0532   31.5893   49.7768 H   0  0  0  0  0  0  0  0  0  0  0  0
   65.4646   32.0743   48.7561 H   0  0  0  0  0  0  0  0  0  0  0  0
   64.6070   33.5630   49.8660 O   0  0  0  0  0  0  0  0  0  0  0  0
   63.3690   33.8780   50.4610 C   0  0  0  0  0  0  0  0  0  0  0  0
   63.0028   33.0027   51.0175 H   0  0  0  0  0  0  0  0  0  0  0  0
   63.5104   34.7310   51.1410 H   0  0  0  0  0  0  0  0  0  0  0  0
   62.3370   34.2640   49.3940 C   0  0  0  0  0  0  0  0  0  0  0  0
   61.3420   34.3206   49.8595 H   0  0  0  0  0  0  0  0  0  0  0  0
   62.6192   35.2387   48.9693 H   0  0  0  0  0  0  0  0  0  0  0  0
   60.7830   34.2960   46.6110 C   0  0  0  0  0  0  0  0  0  0  0  0
   61.3480   35.2388   46.6543 H   0  0  0  0  0  0  0  0  0  0  0  0
   59.6770   34.1700   45.7540 C   0  0  0  0  0  0  0  0  0  0  0  0
   59.2620   35.3060   44.8660 C   0  0  0  0  0  0  0  0  0  0  0  0
   58.9500   36.1601   45.4850 H   0  0  0  0  0  0  0  0  0  0  0  0
   60.1095   35.6035   44.2310 H   0  0  0  0  0  0  0  0  0  0  0  0
   58.4223   34.9872   44.2310 H   0  0  0  0  0  0  0  0  0  0  0  0
   59.0240   32.9800   45.7440 N   0  0  0  0  0  0  0  0  0  0  0  0
   57.9840   32.6200   45.0180 N   0  0  0  0  0  0  0  0  0  0  0  0
   58.9260   28.0470   44.9700 C   0  0  0  0  0  0  0  0  0  0  0  0
   59.6352   28.6850   44.4223 H   0  0  0  0  0  0  0  0  0  0  0  0
  1  2  1  0
  2  3  2  0
  3  4  1  0
  3  5  1  0
  5  6  1  0
  6  7  1  0
  7  8  1  0
  7  9  1  0
  7 10  1  0
  5 11  2  0
 11 12  1  0
 11 13  1  0
 13 14  1  0
 14 15  1  0
 14 16  1  0
 14 17  1  0
 17 18  2  0
 18 19  1  0
 19 20  2  0
 20 21  1  0
 21 22  2  0
 22 23  1  0
 23 24  1  0
 24 25  1  0
 24 26  1  0
 24 27  1  0
 27 28  1  0
 27 29  1  0
 27 30  1  0
 30 31  1  0
 31 32  1  0
 31 33  1  0
 31 34  1  0
 34 35  1  0
 34 36  1  0
 22 37  1  0
 37 38  1  0
 37 39  2  0
 39 40  1  0
 40 41  1  0
 40 42  1  0
 40 43  1  0
 39 44  1  0
 44 45  1  0
 13 46  2  0
 46 47  1  0
 46  2  1  0
 45 18  1  0
 44 20  1  0
 34 23  1  0
M  CHG  1  45  -1
M  END
>  <UniqueID>  (33) 
27

>  <SMILES>  (33) 
COc1cccc(C/N=c2/nc3nc(N4CCOCC4)cc(C)n3[n-]2)c1

>  <Energy>  (33) 
91.85589309055416

>  <Genealogy>  (33) 
COc1cccc(CN=c2nc3nc(N4CCOCC4)cc(C)n3[n-]2)c1 (protonated)
COc1cccc(C/N=c2/nc3nc(N4CCOCC4)cc(C)n3[n-]2)c1 (cis-trans isomerization)
COc1cccc(C/N=c2/nc3nc(N4CCOCC4)cc(C)n3[n-]2)c1 (3D coordinates assigned)
COc1cccc(C/N=c2/nc3nc(N4CCOCC4)cc(C)n3[n-]2)c1 (nonaromatic ring conformer: 91.85589309055416 kcal/mol)

>  <smiles>  (33) 
COc1cccc(CN=c2nc3nc(N4CCOCC4)cc(C)n3[nH]2)c1

>  <score_type>  (33) 
oracle

>  <origin>  (33) 
adg

>  <m_score__min__energy>  (33) 
-9.2699999999999996

>  <m_primary>  (33) 
energy

$$$$
33:0
     RDKit          3D

 31 32  0  0  0  0  0  0  0  0999 V2000
   58.5430   27.0830   44.7290 C   0  0  0  0  0  0  0  0  0  0  0  0
   57.8560   27.5960   43.4680 C   0  0  0  0  0  0  0  0  0  0  0  0
   57.5800   29.0270   43.5780 N   0  0  0  0  0  0  0  0  0  0  0  0
   56.5920   29.5610   44.4660 C   0  0  0  0  0  0  0  0  0  0  0  0
   55.8990   28.7870   45.1830 O   0  0  0  0  0  0  0  0  0  0  0  0
   56.3760   30.9450   44.4900 O   0  0  0  0  0  0  0  0  0  0  0  0
   57.2900   31.9010   44.9570 C   0  0  0  0  0  0  0  0  0  0  0  0
   57.0410   33.2830   44.8730 C   0  0  0  0  0  0  0  0  0  0  0  0
   57.9750   34.2030   45.3620 C   0  0  0  0  0  0  0  0  0  0  0  0
   59.1680   33.7520   45.9520 C   0  0  0  0  0  0  0  0  0  0  0  0
   60.1370   34.6350   46.4560 C   0  0  0  0  0  0  0  0  0  0  0  0
   59.9740   35.8840   46.3950 O   0  0  0  0  0  0  0  0  0  0  0  0
   61.2970   34.1190   47.0360 C   0  0  0  0  0  0  0  0  0  0  0  0
   61.4670   32.7300   47.1000 C   0  0  0  0  0  0  0  0  0  0  0  0
   62.7000   32.1510   47.7160 C   0  0  0  0  0  0  0  0  0  0  0  0
   60.5320   31.9180   46.6140 O   0  0  0  0  0  0  0  0  0  0  0  0
   59.4110   32.3640   46.0530 C   0  0  0  0  0  0  0  0  0  0  0  0
   58.4710   31.4530   45.5630 C   0  0  0  0  0  0  0  0  0  0  0  0
   58.0210   27.4728   45.6153 H   0  0  0  0  0  0  0  0  0  0  0  0
   58.5144   25.9834   44.7407 H   0  0  0  0  0  0  0  0  0  0  0  0
   59.5892   27.4227   44.7407 H   0  0  0  0  0  0  0  0  0  0  0  0
   58.5113   27.4198   42.6022 H   0  0  0  0  0  0  0  0  0  0  0  0
   56.9039   27.0602   43.3401 H   0  0  0  0  0  0  0  0  0  0  0  0
   58.1710   29.6940   43.0330 H   0  0  0  0  0  0  0  0  0  0  0  0
   56.1056   33.6429   44.4198 H   0  0  0  0  0  0  0  0  0  0  0  0
   57.7749   35.2819   45.2844 H   0  0  0  0  0  0  0  0  0  0  0  0
   62.0673   34.7939   47.4374 H   0  0  0  0  0  0  0  0  0  0  0  0
   62.6156   32.1906   48.8120 H   0  0  0  0  0  0  0  0  0  0  0  0
   62.8141   31.1052   47.3946 H   0  0  0  0  0  0  0  0  0  0  0  0
   63.5776   32.7311   47.3946 H   0  0  0  0  0  0  0  0  0  0  0  0
   58.6604   30.3733   45.6541 H   0  0  0  0  0  0  0  0  0  0  0  0
  1  2  1  0
  2  3  1  0
  3  4  1  0
  4  5  2  0
  4  6  1  0
  6  7  1  0
  7  8  2  0
  8  9  1  0
  9 10  2  0
 10 11  1  0
 11 12  2  0
 11 13  1  0
 13 14  2  0
 14 15  1  0
 14 16  1  0
 16 17  1  0
 17 18  2  0
 18  7  1  0
 17 10  1  0
  1 19  1  0
  1 20  1  0
  1 21  1  0
  2 22  1  0
  2 23  1  0
  3 24  1  0
  8 25  1  0
  9 26  1  0
 13 27  1  0
 15 28  1  0
 15 29  1  0
 15 30  1  0
 18 31  1  0
M  END
>  <UniqueID>  (34) 
28

>  <SMILES>  (34) 
CCNC(=O)Oc1ccc2c(=O)cc(C)oc2c1

>  <Energy>  (34) 
34.23420195375769

>  <Genealogy>  (34) 
CCNC(=O)Oc1ccc2c(=O)cc(C)oc2c1 (3D coordinates assigned)
CCNC(=O)Oc1ccc2c(=O)cc(C)oc2c1 (optimized conformer: 34.23420195375769 kcal/mol)

>  <smiles>  (34) 
CCNC(=O)Oc1ccc2c(=O)cc(C)oc2c1

>  <score_type>  (34) 
oracle

>  <origin>  (34) 
adg

>  <m_score__min__energy>  (34) 
-6.9199999999999999

>  <m_primary>  (34) 
energy

$$$$
34:0
     RDKit          3D

 48 50  0  0  0  0  0  0  0  0999 V2000
   57.7610   33.4900   47.1200 C   0  0  0  0  0  0  0  0  0  0  0  0
   58.6910   33.8980   48.1180 O   0  0  0  0  0  0  0  0  0  0  0  0
   60.0740   33.6630   48.0660 C   0  0  0  0  0  0  0  0  0  0  0  0
   60.7790   33.6480   46.8300 C   0  0  0  0  0  0  0  0  0  0  0  0
   62.1730   33.4750   46.7980 C   0  0  0  0  0  0  0  0  0  0  0  0
   62.8370   33.3140   48.0100 C   0  0  0  0  0  0  0  0  0  0  0  0
   64.1560   33.1440   48.1970 N   0  0  0  0  0  0  0  0  0  0  0  0
   64.3270   33.0300   49.5340 C   0  0  0  0  0  0  0  0  0  0  0  0
   63.1090   33.1270   50.1950 C   0  0  0  0  0  0  0  0  0  0  0  0
   62.1680   33.3100   49.2030 C   0  0  0  0  0  0  0  0  0  0  0  0
   60.7850   33.4580   49.2790 C   0  0  0  0  0  0  0  0  0  0  0  0
   60.1590   33.4430   50.5350 O   0  0  0  0  0  0  0  0  0  0  0  0
   59.0520   32.6530   50.8780 C   0  0  0  0  0  0  0  0  0  0  0  0
   58.8970   31.4070   50.2600 C   0  0  0  0  0  0  0  0  0  0  0  0
   57.8220   30.5790   50.5950 C   0  0  0  0  0  0  0  0  0  0  0  0
   56.8920   30.9850   51.5590 C   0  0  0  0  0  0  0  0  0  0  0  0
   55.8050   30.1100   51.8880 N   0  0  0  0  0  0  0  0  0  0  0  0
   54.5900   30.5130   52.5270 C   0  0  0  0  0  0  0  0  0  0  0  0
   54.2150   29.9580   53.5970 O   0  0  0  0  0  0  0  0  0  0  0  0
   53.7250   31.5600   51.8830 C   0  0  0  0  0  0  0  0  0  0  0  0
   52.3390   31.0230   51.4220 C   0  0  0  0  0  0  0  0  0  0  0  0
   51.6920   30.2540   52.5920 C   0  0  0  0  0  0  0  0  0  0  0  0
   52.5110   30.0470   50.2340 C   0  0  0  0  0  0  0  0  0  0  0  0
   51.4260   32.1780   51.0440 C   0  0  0  0  0  0  0  0  0  0  0  0
   51.0290   32.3050   49.8540 O   0  0  0  0  0  0  0  0  0  0  0  0
   50.9900   33.0920   51.9990 O   0  0  0  0  0  0  0  0  0  0  0  0
   57.0100   32.2610   52.1400 C   0  0  0  0  0  0  0  0  0  0  0  0
   58.0820   33.0900   51.7970 C   0  0  0  0  0  0  0  0  0  0  0  0
   56.8558   33.0929   47.6027 H   0  0  0  0  0  0  0  0  0  0  0  0
   57.4935   34.3534   46.4931 H   0  0  0  0  0  0  0  0  0  0  0  0
   58.2152   32.7085   46.4931 H   0  0  0  0  0  0  0  0  0  0  0  0
   60.2256   33.7734   45.8877 H   0  0  0  0  0  0  0  0  0  0  0  0
   62.7220   33.4671   45.8448 H   0  0  0  0  0  0  0  0  0  0  0  0
   64.9010   33.1040   47.4630 H   0  0  0  0  0  0  0  0  0  0  0  0
   65.2975   32.8809   50.0299 H   0  0  0  0  0  0  0  0  0  0  0  0
   62.9324   33.0700   51.2792 H   0  0  0  0  0  0  0  0  0  0  0  0
   59.6262   31.0770   49.5054 H   0  0  0  0  0  0  0  0  0  0  0  0
   57.7063   29.6041   50.0989 H   0  0  0  0  0  0  0  0  0  0  0  0
   53.5606   32.3702   52.6086 H   0  0  0  0  0  0  0  0  0  0  0  0
   54.2532   31.9069   50.9826 H   0  0  0  0  0  0  0  0  0  0  0  0
   52.0447   30.6732   53.5459 H   0  0  0  0  0  0  0  0  0  0  0  0
   50.5977   30.3484   52.5323 H   0  0  0  0  0  0  0  0  0  0  0  0
   51.9722   29.1920   52.5323 H   0  0  0  0  0  0  0  0  0  0  0  0
   52.6900   29.0314   50.6168 H   0  0  0  0  0  0  0  0  0  0  0  0
   51.5981   30.0519   49.6203 H   0  0  0  0  0  0  0  0  0  0  0  0
   53.3672   30.3637   49.6203 H   0  0  0  0  0  0  0  0  0  0  0  0
   56.2581   32.6065   52.8647 H   0  0  0  0  0  0  0  0  0  0  0  0
   58.1670   34.0895   52.2485 H   0  0  0  0  0  0  0  0  0  0  0  0
  1  2  1  0
  2  3  1  0
  3  4  2  0
  4  5  1  0
  5  6  2  0
  6  7  1  0
  7  8  1  0
  8  9  2  0
  9 10  1  0
 10 11  2  0
 11 12  1  0
 12 13  1  0
 13 14  2  0
 14 15  1  0
 15 16  2  0
 16 17  1  0
 17 18  1  0
 18 19  2  0
 18 20  1  0
 20 21  1  0
 21 22  1  0
 21 23  1  0
 21 24  1  0
 24 25  2  0
 24 26  1  0
 16 27  1  0
 27 28  2  0
 11  3  1  0
 28 13  1  0
 10  6  1  0
  1 29  1  0
  1 30  1  0
  1 31  1  0
  4 32  1  0
  5 33  1  0
  7 34  1  0
  8 35  1  0
  9 36  1  0
 14 37  1  0
 15 38  1  0
 20 39  1  0
 20 40  1  0
 22 41  1  0
 22 42  1  0
 22 43  1  0
 23 44  1  0
 23 45  1  0
 23 46  1  0
 27 47  1  0
 28 48  1  0
M  CHG  2  17  -1  26  -1
M  END
>  <UniqueID>  (35) 
29

>  <SMILES>  (35) 
COc1ccc2[nH]ccc2c1Oc1ccc([N-]C(=O)CC(C)(C)C(=O)[O-])cc1

>  <Energy>  (35) 
89.8749816791636

>  <Genealogy>  (35) 
COc1ccc2[nH]ccc2c1Oc1ccc([N-]C(=O)CC(C)(C)C(=O)[O-])cc1 (protonated)
COc1ccc2[nH]ccc2c1Oc1ccc([N-]C(=O)CC(C)(C)C(=O)[O-])cc1 (3D coordinates assigned)
COc1ccc2[nH]ccc2c1Oc1ccc([N-]C(=O)CC(C)(C)C(=O)[O-])cc1 (optimized conformer: 89.8749816791636 kcal/mol)

>  <smiles>  (35) 
COc1ccc2[nH]ccc2c1Oc1ccc(NC(=O)CC(C)(C)C(=O)O)cc1

>  <score_type>  (35) 
oracle

>  <origin>  (35) 
adg

>  <m_score__min__energy>  (35) 
-13.279999999999999

>  <m_primary>  (35) 
energy

$$$$
35:0
     RDKit          3D

 49 52  0  0  0  0  0  0  0  0999 V2000
   61.1160   27.0170   50.5260 C   0  0  0  0  0  0  0  0  0  0  0  0
   60.8220   26.6120   49.1930 O   0  0  0  0  0  0  0  0  0  0  0  0
   60.1720   27.4180   48.2460 C   0  0  0  0  0  0  0  0  0  0  0  0
   60.3990   27.1640   46.8880 C   0  0  0  0  0  0  0  0  0  0  0  0
   59.7770   27.9410   45.9060 C   0  0  0  0  0  0  0  0  0  0  0  0
   58.9280   28.9940   46.2730 C   0  0  0  0  0  0  0  0  0  0  0  0
   58.2650   29.8030   45.2270 C   0  0  0  0  0  0  0  0  0  0  0  0
   57.6380   29.1590   44.2010 N   0  0  0  0  0  0  0  0  0  0  0  0
   57.0140   29.8500   43.2150 C   0  0  0  0  0  0  0  0  0  0  0  0
   57.0130   31.2050   43.2270 N   0  0  0  0  0  0  0  0  0  0  0  0
   57.6200   31.9050   44.2200 C   0  0  0  0  0  0  0  0  0  0  0  0
   58.2900   31.2160   45.2540 C   0  0  0  0  0  0  0  0  0  0  0  0
   59.0010   31.9670   46.3640 C   0  0  0  0  0  0  0  0  0  0  0  0
   59.0960   33.4060   46.0910 N   0  0  0  0  0  0  0  0  0  0  0  0
   60.0820   34.1870   46.7930 C   0  0  0  0  0  0  0  0  0  0  0  0
   59.8800   35.4150   46.9990 O   0  0  0  0  0  0  0  0  0  0  0  0
   61.3420   33.5810   47.2710 C   0  0  0  0  0  0  0  0  0  0  0  0
   62.5120   33.7910   46.5290 C   0  0  0  0  0  0  0  0  0  0  0  0
   63.7150   33.2130   46.9290 C   0  0  0  0  0  0  0  0  0  0  0  0
   63.7670   32.4240   48.0760 C   0  0  0  0  0  0  0  0  0  0  0  0
   62.6130   32.2070   48.8530 C   0  0  0  0  0  0  0  0  0  0  0  0
   62.6890   31.3660   50.1100 C   0  0  0  0  0  0  0  0  0  0  0  0
   61.8270   30.2890   50.0040 F   0  0  0  0  0  0  0  0  0  0  0  0
   62.3290   32.1320   51.2030 F   0  0  0  0  0  0  0  0  0  0  0  0
   63.9650   30.8740   50.3250 F   0  0  0  0  0  0  0  0  0  0  0  0
   61.3920   32.8060   48.4520 C   0  0  0  0  0  0  0  0  0  0  0  0
   59.9520   32.6600   49.4690 Cl  0  0  0  0  0  0  0  0  0  0  0  0
   57.9500   34.0650   45.4590 C   0  0  0  0  0  0  0  0  0  0  0  0
   57.6490   33.4040   44.1170 C   0  0  0  0  0  0  0  0  0  0  0  0
   58.6840   29.2420   47.6310 C   0  0  0  0  0  0  0  0  0  0  0  0
   59.3060   28.4660   48.6120 C   0  0  0  0  0  0  0  0  0  0  0  0
   60.6213   26.3356   51.2338 H   0  0  0  0  0  0  0  0  0  0  0  0
   62.2037   26.9865   50.6870 H   0  0  0  0  0  0  0  0  0  0  0  0
   60.7501   28.0418   50.6870 H   0  0  0  0  0  0  0  0  0  0  0  0
   61.0723   26.3463   46.5912 H   0  0  0  0  0  0  0  0  0  0  0  0
   59.9545   27.7252   44.8421 H   0  0  0  0  0  0  0  0  0  0  0  0
   57.6230   28.1140   44.1690 H   0  0  0  0  0  0  0  0  0  0  0  0
   56.5069   29.3087   42.4027 H   0  0  0  0  0  0  0  0  0  0  0  0
   58.4455   31.8209   47.3021 H   0  0  0  0  0  0  0  0  0  0  0  0
   60.0243   31.5701   46.4370 H   0  0  0  0  0  0  0  0  0  0  0  0
   62.4805   34.4164   45.6246 H   0  0  0  0  0  0  0  0  0  0  0  0
   64.6269   33.3803   46.3370 H   0  0  0  0  0  0  0  0  0  0  0  0
   64.7202   31.9655   48.3780 H   0  0  0  0  0  0  0  0  0  0  0  0
   57.0711   33.9772   46.1146 H   0  0  0  0  0  0  0  0  0  0  0  0
   58.1862   35.1269   45.2959 H   0  0  0  0  0  0  0  0  0  0  0  0
   56.6690   33.7542   43.7608 H   0  0  0  0  0  0  0  0  0  0  0  0
   58.4501   33.6803   43.4156 H   0  0  0  0  0  0  0  0  0  0  0  0
   57.9997   30.0513   47.9254 H   0  0  0  0  0  0  0  0  0  0  0  0
   59.1183   28.6748   49.6756 H   0  0  0  0  0  0  0  0  0  0  0  0
  1  2  1  0
  2  3  1  0
  3  4  2  0
  4  5  1  0
  5  6  2  0
  6  7  1  0
  7  8  2  0
  8  9  1  0
  9 10  2  0
 10 11  1  0
 11 12  2  0
 12 13  1  0
 13 14  1  0
 14 15  1  0
 15 16  2  0
 15 17  1  0
 17 18  2  0
 18 19  1  0
 19 20  2  0
 20 21  1  0
 21 22  1  0
 22 23  1  0
 22 24  1  0
 22 25  1  0
 21 26  2  0
 26 27  1  0
 14 28  1  0
 28 29  1  0
  6 30  1  0
 30 31  2  0
 31  3  1  0
 12  7  1  0
 26 17  1  0
 29 11  1  0
  1 32  1  0
  1 33  1  0
  1 34  1  0
  4 35  1  0
  5 36  1  0
  8 37  1  0
  9 38  1  0
 13 39  1  0
 13 40  1  0
 18 41  1  0
 19 42  1  0
 20 43  1  0
 28 44  1  0
 28 45  1  0
 29 46  1  0
 29 47  1  0
 30 48  1  0
 31 49  1  0
M  CHG  1   8   1
M  END
>  <UniqueID>  (36) 
30

>  <SMILES>  (36) 
COc1ccc(-c2[nH+]cnc3c2CN(C(=O)c2cccc(C(F)(F)F)c2Cl)CC3)cc1

>  <Energy>  (36) 
71.82935168214568

>  <Genealogy>  (36) 
COc1ccc(-c2[nH+]cnc3c2CN(C(=O)c2cccc(C(F)(F)F)c2Cl)CC3)cc1 (protonated)
COc1ccc(-c2[nH+]cnc3c2CN(C(=O)c2cccc(C(F)(F)F)c2Cl)CC3)cc1 (3D coordinates assigned)
COc1ccc(-c2[nH+]cnc3c2CN(C(=O)c2cccc(C(F)(F)F)c2Cl)CC3)cc1 (nonaromatic ring conformer: 71.82935168214568 kcal/mol)

>  <smiles>  (36) 
COc1ccc(-c2ncnc3c2CN(C(=O)c2cccc(C(F)(F)F)c2Cl)CC3)cc1

>  <score_type>  (36) 
oracle

>  <origin>  (36) 
adg

>  <m_score__min__energy>  (36) 
-7.2000000000000002

>  <m_primary>  (36) 
energy

$$$$
36:0
     RDKit          3D

 34 36  0  0  0  0  0  0  0  0999 V2000
   59.3460   34.5250   46.0800 C   0  0  0  0  0  0  0  0  0  0  0  0
   59.4920   33.4030   47.1030 C   0  0  0  0  0  0  0  0  0  0  0  0
   60.9290   32.9390   47.1910 C   0  0  0  0  0  0  0  0  0  0  0  0
   61.9470   33.9070   47.2640 C   0  0  0  0  0  0  0  0  0  0  0  0
   63.2910   33.5270   47.2780 C   0  0  0  0  0  0  0  0  0  0  0  0
   63.6370   32.1790   47.2030 C   0  0  0  0  0  0  0  0  0  0  0  0
   62.6430   31.2050   47.1160 C   0  0  0  0  0  0  0  0  0  0  0  0
   61.2870   31.5680   47.1120 C   0  0  0  0  0  0  0  0  0  0  0  0
   60.2730   30.4990   47.0130 C   0  0  0  0  0  0  0  0  0  0  0  0
   60.4630   29.2800   47.6770 C   0  0  0  0  0  0  0  0  0  0  0  0
   59.5130   28.2630   47.5740 C   0  0  0  0  0  0  0  0  0  0  0  0
   58.3560   28.4480   46.7930 C   0  0  0  0  0  0  0  0  0  0  0  0
   57.3760   27.4430   46.6690 C   0  0  0  0  0  0  0  0  0  0  0  0
   57.5140   26.3390   47.2650 O   0  0  0  0  0  0  0  0  0  0  0  0
   56.2680   27.6600   45.9000 N   0  0  0  0  0  0  0  0  0  0  0  0
   55.3180   26.6680   45.7870 O   0  0  0  0  0  0  0  0  0  0  0  0
   56.0800   28.8360   45.2380 C   0  0  0  0  0  0  0  0  0  0  0  0
   54.9410   29.0260   44.4620 O   0  0  0  0  0  0  0  0  0  0  0  0
   57.0250   29.8590   45.3310 C   0  0  0  0  0  0  0  0  0  0  0  0
   58.1700   29.6720   46.1110 C   0  0  0  0  0  0  0  0  0  0  0  0
   59.1320   30.6880   46.2200 C   0  0  0  0  0  0  0  0  0  0  0  0
   59.2212   35.4844   46.6034 H   0  0  0  0  0  0  0  0  0  0  0  0
   60.2464   34.5657   45.4495 H   0  0  0  0  0  0  0  0  0  0  0  0
   58.4651   34.3340   45.4495 H   0  0  0  0  0  0  0  0  0  0  0  0
   59.1707   33.7700   48.0889 H   0  0  0  0  0  0  0  0  0  0  0  0
   58.8667   32.5549   46.7873 H   0  0  0  0  0  0  0  0  0  0  0  0
   61.6820   34.9736   47.3105 H   0  0  0  0  0  0  0  0  0  0  0  0
   64.0775   34.2928   47.3483 H   0  0  0  0  0  0  0  0  0  0  0  0
   64.6963   31.8829   47.2125 H   0  0  0  0  0  0  0  0  0  0  0  0
   62.9237   30.1435   47.0500 H   0  0  0  0  0  0  0  0  0  0  0  0
   61.3672   29.1235   48.2836 H   0  0  0  0  0  0  0  0  0  0  0  0
   59.6687   27.3125   48.1053 H   0  0  0  0  0  0  0  0  0  0  0  0
   56.8698   30.8064   44.7940 H   0  0  0  0  0  0  0  0  0  0  0  0
   58.9904   31.6365   45.6812 H   0  0  0  0  0  0  0  0  0  0  0  0
  1  2  1  0
  2  3  1  0
  3  4  2  0
  4  5  1  0
  5  6  2  0
  6  7  1  0
  7  8  2  0
  8  9  1  0
  9 10  2  0
 10 11  1  0
 11 12  2  0
 12 13  1  0
 13 14  2  0
 13 15  1  0
 15 16  1  0
 15 17  1  0
 17 18  1  0
 17 19  2  0
 19 20  1  0
 20 21  2  0
  8  3  1  0
 21  9  1  0
 20 12  1  0
  1 22  1  0
  1 23  1  0
  1 24  1  0
  2 25  1  0
  2 26  1  0
  4 27  1  0
  5 28  1  0
  6 29  1  0
  7 30  1  0
 10 31  1  0
 11 32  1  0
 19 33  1  0
 21 34  1  0
M  CHG  2  16  -1  18  -1
M  END
>  <UniqueID>  (37) 
31

>  <SMILES>  (37) 
CCc1ccccc1-c1ccc2c(=O)n([O-])c([O-])cc2c1

>  <Energy>  (37) 
47.24779849039666

>  <Genealogy>  (37) 
CCc1ccccc1-c1ccc2c(=O)n([O-])c([O-])cc2c1 (protonated)
CCc1ccccc1-c1ccc2c(=O)n([O-])c([O-])cc2c1 (3D coordinates assigned)
CCc1ccccc1-c1ccc2c(=O)n([O-])c([O-])cc2c1 (optimized conformer: 47.24779849039666 kcal/mol)

>  <smiles>  (37) 
CCc1ccccc1-c1ccc2c(=O)n(O)c(O)cc2c1

>  <score_type>  (37) 
oracle

>  <origin>  (37) 
adg

>  <m_score__min__energy>  (37) 
-14.289999999999999

>  <m_primary>  (37) 
energy

$$$$
37:0
     RDKit          3D

 43 44  0  0  0  0  0  0  0  0999 V2000
   56.8900   20.7950   42.9180 C   0  0  0  0  0  0  0  0  0  0  0  0
   55.9270   21.7810   43.2760 O   0  0  0  0  0  0  0  0  0  0  0  0
   56.2070   22.9240   44.0420 C   0  0  0  0  0  0  0  0  0  0  0  0
   57.5160   23.4120   44.2050 C   0  0  0  0  0  0  0  0  0  0  0  0
   57.7570   24.5490   44.9780 C   0  0  0  0  0  0  0  0  0  0  0  0
   56.6930   25.2260   45.5890 C   0  0  0  0  0  0  0  0  0  0  0  0
   56.9580   26.4270   46.4610 C   0  0  0  0  0  0  0  0  0  0  0  0
   57.1930   27.6880   45.6210 C   0  0  0  0  0  0  0  0  0  0  0  0
   55.9300   28.3090   45.2340 N   0  0  0  0  0  0  0  0  0  0  0  0
   55.8360   29.4600   44.3880 C   0  0  0  0  0  0  0  0  0  0  0  0
   54.7840   29.6790   43.7280 O   0  0  0  0  0  0  0  0  0  0  0  0
   56.9730   30.3890   44.2970 C   0  0  0  0  0  0  0  0  0  0  0  0
   57.9280   30.2770   45.1110 O   0  0  0  0  0  0  0  0  0  0  0  0
   56.9990   31.4170   43.2940 N   0  0  0  0  0  0  0  0  0  0  0  0
   58.1040   32.3650   43.1750 C   0  0  0  0  0  0  0  0  0  0  0  0
   58.2570   33.1450   44.4430 C   0  0  0  0  0  0  0  0  0  0  0  0
   57.3490   33.1840   45.4920 C   0  0  0  0  0  0  0  0  0  0  0  0
   57.7550   34.0210   46.5380 C   0  0  0  0  0  0  0  0  0  0  0  0
   58.9750   34.6460   46.3110 C   0  0  0  0  0  0  0  0  0  0  0  0
   59.5460   34.1600   44.8060 S   0  0  0  0  0  0  0  0  0  0  0  0
   55.3870   24.7390   45.4340 C   0  0  0  0  0  0  0  0  0  0  0  0
   55.1380   23.5870   44.6650 C   0  0  0  0  0  0  0  0  0  0  0  0
   53.8440   23.0680   44.5010 O   0  0  0  0  0  0  0  0  0  0  0  0
   52.6590   23.6870   44.9900 C   0  0  0  0  0  0  0  0  0  0  0  0
   57.3201   20.3546   43.8296 H   0  0  0  0  0  0  0  0  0  0  0  0
   56.4043   20.0068   42.3239 H   0  0  0  0  0  0  0  0  0  0  0  0
   57.6894   21.2619   42.3239 H   0  0  0  0  0  0  0  0  0  0  0  0
   58.3562   22.8937   43.7197 H   0  0  0  0  0  0  0  0  0  0  0  0
   58.7861   24.9150   45.1081 H   0  0  0  0  0  0  0  0  0  0  0  0
   56.0907   26.5909   47.1175 H   0  0  0  0  0  0  0  0  0  0  0  0
   57.8644   26.2316   47.0528 H   0  0  0  0  0  0  0  0  0  0  0  0
   57.7804   28.4073   46.2106 H   0  0  0  0  0  0  0  0  0  0  0  0
   57.7339   27.4012   44.7071 H   0  0  0  0  0  0  0  0  0  0  0  0
   56.2160   31.4870   42.6060 H   0  0  0  0  0  0  0  0  0  0  0  0
   59.0346   31.8143   42.9730 H   0  0  0  0  0  0  0  0  0  0  0  0
   57.8917   33.0608   42.3499 H   0  0  0  0  0  0  0  0  0  0  0  0
   56.4072   32.6157   45.5005 H   0  0  0  0  0  0  0  0  0  0  0  0
   57.1638   34.1699   47.4536 H   0  0  0  0  0  0  0  0  0  0  0  0
   59.4808   35.3401   46.9983 H   0  0  0  0  0  0  0  0  0  0  0  0
   54.5493   25.2624   45.9181 H   0  0  0  0  0  0  0  0  0  0  0  0
   52.6695   23.6815   46.0899 H   0  0  0  0  0  0  0  0  0  0  0  0
   52.6117   24.7250   44.6290 H   0  0  0  0  0  0  0  0  0  0  0  0
   51.7801   23.1328   44.6290 H   0  0  0  0  0  0  0  0  0  0  0  0
  1  2  1  0
  2  3  1  0
  3  4  2  0
  4  5  1  0
  5  6  2  0
  6  7  1  0
  7  8  1  0
  8  9  1  0
  9 10  1  0
 10 11  2  0
 10 12  1  0
 12 13  2  0
 12 14  1  0
 14 15  1  0
 15 16  1  0
 16 17  2  0
 17 18  1  0
 18 19  2  0
 19 20  1  0
  6 21  1  0
 21 22  2  0
 22 23  1  0
 23 24  1  0
 22  3  1  0
 20 16  1  0
  1 25  1  0
  1 26  1  0
  1 27  1  0
  4 28  1  0
  5 29  1  0
  7 30  1  0
  7 31  1  0
  8 32  1  0
  8 33  1  0
 14 34  1  0
 15 35  1  0
 15 36  1  0
 17 37  1  0
 18 38  1  0
 19 39  1  0
 21 40  1  0
 24 41  1  0
 24 42  1  0
 24 43  1  0
M  CHG  1   9  -1
M  END
>  <UniqueID>  (38) 
32

>  <SMILES>  (38) 
COc1ccc(CC[N-]C(=O)C(=O)NCc2cccs2)cc1OC

>  <Energy>  (38) 
56.19291447111199

>  <Genealogy>  (38) 
COc1ccc(CC[N-]C(=O)C(=O)NCc2cccs2)cc1OC (protonated)
COc1ccc(CC[N-]C(=O)C(=O)NCc2cccs2)cc1OC (3D coordinates assigned)
COc1ccc(CC[N-]C(=O)C(=O)NCc2cccs2)cc1OC (optimized conformer: 56.19291447111199 kcal/mol)

>  <smiles>  (38) 
COc1ccc(CCNC(=O)C(=O)NCc2cccs2)cc1OC

>  <score_type>  (38) 
oracle

>  <origin>  (38) 
adg

>  <m_score__min__energy>  (38) 
-9.1999999999999993

>  <m_primary>  (38) 
energy

$$$$
38:0
     RDKit          3D

 52 55  0  0  0  0  0  0  0  0999 V2000
   62.4540   33.9660   48.9420 C   0  0  0  0  0  0  0  0  0  0  0  0
   61.1850   34.5970   48.8060 O   0  0  0  0  0  0  0  0  0  0  0  0
   60.1950   34.1960   47.8970 C   0  0  0  0  0  0  0  0  0  0  0  0
   59.0780   33.4330   48.2850 C   0  0  0  0  0  0  0  0  0  0  0  0
   58.1210   33.0530   47.3400 C   0  0  0  0  0  0  0  0  0  0  0  0
   58.2700   33.4090   45.9890 C   0  0  0  0  0  0  0  0  0  0  0  0
   57.2370   32.9830   44.9660 C   0  0  0  0  0  0  0  0  0  0  0  0
   57.4840   31.6420   44.3860 N   0  0  0  0  0  0  0  0  0  0  0  0
   56.2450   30.8810   44.0980 C   0  0  0  0  0  0  0  0  0  0  0  0
   56.5270   29.3930   43.8780 C   0  0  0  0  0  0  0  0  0  0  0  0
   57.1940   28.8360   45.0600 N   0  0  0  0  0  0  0  0  0  0  0  0
   57.1820   27.4120   45.2640 C   0  0  0  0  0  0  0  0  0  0  0  0
   56.7620   26.8520   46.4290 N   0  0  0  0  0  0  0  0  0  0  0  0
   56.8890   25.5350   46.1930 C   0  0  0  0  0  0  0  0  0  0  0  0
   56.5900   24.4900   47.0620 C   0  0  0  0  0  0  0  0  0  0  0  0
   56.7900   23.1690   46.6050 C   0  0  0  0  0  0  0  0  0  0  0  0
   56.5190   22.0100   47.5180 C   0  0  0  0  0  0  0  0  0  0  0  0
   57.3070   22.9440   45.3040 C   0  0  0  0  0  0  0  0  0  0  0  0
   57.5990   24.0230   44.4510 C   0  0  0  0  0  0  0  0  0  0  0  0
   57.3750   25.3140   44.9360 C   0  0  0  0  0  0  0  0  0  0  0  0
   57.5830   26.4990   44.3350 N   0  0  0  0  0  0  0  0  0  0  0  0
   58.1480   26.7440   43.0090 C   0  0  0  0  0  0  0  0  0  0  0  0
   58.0480   29.7050   45.8810 C   0  0  0  0  0  0  0  0  0  0  0  0
   58.5720   30.8780   45.0430 C   0  0  0  0  0  0  0  0  0  0  0  0
   59.3710   34.1960   45.6130 C   0  0  0  0  0  0  0  0  0  0  0  0
   60.3280   34.5760   46.5580 C   0  0  0  0  0  0  0  0  0  0  0  0
   62.6921   33.8476   50.0094 H   0  0  0  0  0  0  0  0  0  0  0  0
   62.4253   32.9772   48.4609 H   0  0  0  0  0  0  0  0  0  0  0  0
   63.2251   34.5856   48.4609 H   0  0  0  0  0  0  0  0  0  0  0  0
   58.9576   33.1343   49.3368 H   0  0  0  0  0  0  0  0  0  0  0  0
   57.2435   32.4701   47.6567 H   0  0  0  0  0  0  0  0  0  0  0  0
   56.2507   32.9734   45.4530 H   0  0  0  0  0  0  0  0  0  0  0  0
   57.2918   33.7044   44.1374 H   0  0  0  0  0  0  0  0  0  0  0  0
   55.5550   30.9903   44.9477 H   0  0  0  0  0  0  0  0  0  0  0  0
   55.8042   31.2845   43.1745 H   0  0  0  0  0  0  0  0  0  0  0  0
   55.5785   28.8621   43.7093 H   0  0  0  0  0  0  0  0  0  0  0  0
   57.1794   29.2717   43.0007 H   0  0  0  0  0  0  0  0  0  0  0  0
   56.2091   24.6872   48.0749 H   0  0  0  0  0  0  0  0  0  0  0  0
   56.5965   22.3413   48.5640 H   0  0  0  0  0  0  0  0  0  0  0  0
   55.5063   21.6239   47.3297 H   0  0  0  0  0  0  0  0  0  0  0  0
   57.2555   21.2149   47.3297 H   0  0  0  0  0  0  0  0  0  0  0  0
   57.4815   21.9144   44.9583 H   0  0  0  0  0  0  0  0  0  0  0  0
   57.9904   23.8564   43.4366 H   0  0  0  0  0  0  0  0  0  0  0  0
   59.1527   27.1796   43.1133 H   0  0  0  0  0  0  0  0  0  0  0  0
   58.2155   25.7943   42.4580 H   0  0  0  0  0  0  0  0  0  0  0  0
   57.5009   27.4424   42.4580 H   0  0  0  0  0  0  0  0  0  0  0  0
   57.4627   30.0955   46.7266 H   0  0  0  0  0  0  0  0  0  0  0  0
   58.9021   29.1204   46.2534 H   0  0  0  0  0  0  0  0  0  0  0  0
   59.1321   31.5584   45.7012 H   0  0  0  0  0  0  0  0  0  0  0  0
   59.2112   30.4613   44.2507 H   0  0  0  0  0  0  0  0  0  0  0  0
   59.4809   34.5158   44.5663 H   0  0  0  0  0  0  0  0  0  0  0  0
   61.1932   35.1792   46.2457 H   0  0  0  0  0  0  0  0  0  0  0  0
  1  2  1  0
  2  3  1  0
  3  4  2  0
  4  5  1  0
  5  6  2  0
  6  7  1  0
  7  8  1  0
  8  9  1  0
  9 10  1  0
 10 11  1  0
 11 12  1  0
 12 13  2  0
 13 14  1  0
 14 15  2  0
 15 16  1  0
 16 17  1  0
 16 18  2  0
 18 19  1  0
 19 20  2  0
 20 21  1  0
 21 22  1  0
 11 23  1  0
 23 24  1  0
  6 25  1  0
 25 26  2  0
 26  3  1  0
 24  8  1  0
 21 12  1  0
 20 14  1  0
  1 27  1  0
  1 28  1  0
  1 29  1  0
  4 30  1  0
  5 31  1  0
  7 32  1  0
  7 33  1  0
  9 34  1  0
  9 35  1  0
 10 36  1  0
 10 37  1  0
 15 38  1  0
 17 39  1  0
 17 40  1  0
 17 41  1  0
 18 42  1  0
 19 43  1  0
 22 44  1  0
 22 45  1  0
 22 46  1  0
 23 47  1  0
 23 48  1  0
 24 49  1  0
 24 50  1  0
 25 51  1  0
 26 52  1  0
M  END
>  <UniqueID>  (39) 
33

>  <SMILES>  (39) 
COc1ccc(CN2CCN(c3nc4cc(C)ccc4n3C)CC2)cc1

>  <Energy>  (39) 
103.38907760129992

>  <Genealogy>  (39) 
COc1ccc(CN2CCN(c3nc4cc(C)ccc4n3C)CC2)cc1 (3D coordinates assigned)
COc1ccc(CN2CCN(c3nc4cc(C)ccc4n3C)CC2)cc1 (nonaromatic ring conformer: 103.38907760129992 kcal/mol)

>  <smiles>  (39) 
COc1ccc(CN2CCN(c3nc4cc(C)ccc4n3C)CC2)cc1

>  <score_type>  (39) 
oracle

>  <origin>  (39) 
adg

>  <m_score__min__energy>  (39) 
-7.4299999999999997

>  <m_primary>  (39) 
energy

$$$$
39:0
     RDKit          3D

 29 31  0  0  0  0  0  0  0  0999 V2000
   55.1530   28.9650   44.9070 O   0  0  0  0  0  0  0  0  0  0  0  0
   56.2530   29.8110   44.8390 C   0  0  0  0  0  0  0  0  0  0  0  0
   56.1550   31.1050   44.4880 N   0  0  0  0  0  0  0  0  0  0  0  0
   57.4100   31.5890   44.5820 C   0  0  0  0  0  0  0  0  0  0  0  0
   57.7800   32.9910   44.2140 C   0  0  0  0  0  0  0  0  0  0  0  0
   58.4380   33.6660   45.3740 C   0  0  0  0  0  0  0  0  0  0  0  0
   59.2660   34.7790   45.3040 C   0  0  0  0  0  0  0  0  0  0  0  0
   59.6710   35.2440   46.5610 C   0  0  0  0  0  0  0  0  0  0  0  0
   59.1520   34.5090   47.6200 C   0  0  0  0  0  0  0  0  0  0  0  0
   58.1870   33.2840   46.9930 S   0  0  0  0  0  0  0  0  0  0  0  0
   58.3030   30.6090   44.9740 C   0  0  0  0  0  0  0  0  0  0  0  0
   57.5590   29.4580   45.1410 C   0  0  0  0  0  0  0  0  0  0  0  0
   58.0770   28.1320   45.5580 C   0  0  0  0  0  0  0  0  0  0  0  0
   59.4590   27.9080   45.7080 C   0  0  0  0  0  0  0  0  0  0  0  0
   59.9330   26.6550   46.1060 C   0  0  0  0  0  0  0  0  0  0  0  0
   59.0380   25.6140   46.3620 C   0  0  0  0  0  0  0  0  0  0  0  0
   57.6650   25.8250   46.2240 C   0  0  0  0  0  0  0  0  0  0  0  0
   57.1850   27.0780   45.8270 C   0  0  0  0  0  0  0  0  0  0  0  0
   58.4744   32.9728   43.3610 H   0  0  0  0  0  0  0  0  0  0  0  0
   56.8699   33.5455   43.9416 H   0  0  0  0  0  0  0  0  0  0  0  0
   59.5724   35.2475   44.3571 H   0  0  0  0  0  0  0  0  0  0  0  0
   60.3368   36.1090   46.6973 H   0  0  0  0  0  0  0  0  0  0  0  0
   59.3407   34.6970   48.6873 H   0  0  0  0  0  0  0  0  0  0  0  0
   59.3869   30.7232   45.1227 H   0  0  0  0  0  0  0  0  0  0  0  0
   60.1697   28.7240   45.5108 H   0  0  0  0  0  0  0  0  0  0  0  0
   61.0145   26.4882   46.2180 H   0  0  0  0  0  0  0  0  0  0  0  0
   59.4148   24.6282   46.6722 H   0  0  0  0  0  0  0  0  0  0  0  0
   56.9599   25.0056   46.4275 H   0  0  0  0  0  0  0  0  0  0  0  0
   56.1018   27.2401   45.7245 H   0  0  0  0  0  0  0  0  0  0  0  0
  1  2  1  0
  2  3  1  0
  3  4  1  0
  4  5  1  0
  5  6  1  0
  6  7  2  0
  7  8  1  0
  8  9  2  0
  9 10  1  0
  4 11  2  0
 11 12  1  0
 12 13  1  0
 13 14  2  0
 14 15  1  0
 15 16  2  0
 16 17  1  0
 17 18  2  0
 12  2  2  0
 18 13  1  0
 10  6  1  0
  5 19  1  0
  5 20  1  0
  7 21  1  0
  8 22  1  0
  9 23  1  0
 11 24  1  0
 14 25  1  0
 15 26  1  0
 16 27  1  0
 17 28  1  0
 18 29  1  0
M  CHG  2   1  -1   3  -1
M  END
>  <UniqueID>  (40) 
34

>  <SMILES>  (40) 
[O-]c1[n-]c(Cc2cccs2)cc1-c1ccccc1

>  <Energy>  (40) 
84.07844429239822

>  <Genealogy>  (40) 
[O-]c1[n-]c(Cc2cccs2)cc1-c1ccccc1 (protonated)
[O-]c1[n-]c(Cc2cccs2)cc1-c1ccccc1 (3D coordinates assigned)
[O-]c1[n-]c(Cc2cccs2)cc1-c1ccccc1 (optimized conformer: 84.07844429239822 kcal/mol)

>  <smiles>  (40) 
Oc1[nH]c(Cc2cccs2)cc1-c1ccccc1

>  <score_type>  (40) 
oracle

>  <origin>  (40) 
adg

>  <m_score__min__energy>  (40) 
-12.640000000000001

>  <m_primary>  (40) 
energy

$$$$
40:0
     RDKit          3D

 37 39  0  0  0  0  0  0  0  0999 V2000
   56.9320   30.9070   44.8680 O   0  0  0  0  0  0  0  0  0  0  0  0
   57.4900   29.7920   44.6810 C   0  0  0  0  0  0  0  0  0  0  0  0
   57.1520   29.0520   43.5470 C   0  0  0  0  0  0  0  0  0  0  0  0
   57.7640   27.8190   43.3330 C   0  0  0  0  0  0  0  0  0  0  0  0
   58.6590   27.3520   44.1950 O   0  0  0  0  0  0  0  0  0  0  0  0
   59.0160   28.0170   45.2900 C   0  0  0  0  0  0  0  0  0  0  0  0
   59.9660   27.4550   46.1450 C   0  0  0  0  0  0  0  0  0  0  0  0
   60.3600   28.1310   47.2960 C   0  0  0  0  0  0  0  0  0  0  0  0
   59.8070   29.3730   47.6080 C   0  0  0  0  0  0  0  0  0  0  0  0
   58.8420   29.9690   46.7660 C   0  0  0  0  0  0  0  0  0  0  0  0
   58.2610   31.2190   47.0560 O   0  0  0  0  0  0  0  0  0  0  0  0
   58.8850   32.3500   47.6700 C   0  0  0  0  0  0  0  0  0  0  0  0
   58.1150   33.6500   47.3500 C   0  0  0  0  0  0  0  0  0  0  0  0
   57.0260   33.4690   46.2540 C   0  0  0  0  0  0  0  0  0  0  0  0
   57.4120   34.0440   44.8780 C   0  0  0  0  0  0  0  0  0  0  0  0
   58.9020   33.8610   44.5860 C   0  0  0  0  0  0  0  0  0  0  0  0
   59.7890   34.5690   45.6320 C   0  0  0  0  0  0  0  0  0  0  0  0
   59.0880   34.7930   46.9870 C   0  0  0  0  0  0  0  0  0  0  0  0
   58.4430   29.2800   45.5900 C   0  0  0  0  0  0  0  0  0  0  0  0
   56.4114   29.4377   42.8309 H   0  0  0  0  0  0  0  0  0  0  0  0
   57.5036   27.2277   42.4427 H   0  0  0  0  0  0  0  0  0  0  0  0
   60.4046   26.4745   45.9081 H   0  0  0  0  0  0  0  0  0  0  0  0
   61.1114   27.6835   47.9632 H   0  0  0  0  0  0  0  0  0  0  0  0
   60.1266   29.8952   48.5218 H   0  0  0  0  0  0  0  0  0  0  0  0
   58.9040   32.2024   48.7599 H   0  0  0  0  0  0  0  0  0  0  0  0
   59.9075   32.4427   47.2752 H   0  0  0  0  0  0  0  0  0  0  0  0
   57.5769   33.9237   48.2696 H   0  0  0  0  0  0  0  0  0  0  0  0
   56.8314   32.3928   46.1357 H   0  0  0  0  0  0  0  0  0  0  0  0
   56.1412   34.0279   46.5928 H   0  0  0  0  0  0  0  0  0  0  0  0
   56.8303   33.5278   44.1001 H   0  0  0  0  0  0  0  0  0  0  0  0
   57.1936   35.1221   44.8835 H   0  0  0  0  0  0  0  0  0  0  0  0
   59.1354   32.7861   44.5921 H   0  0  0  0  0  0  0  0  0  0  0  0
   59.1126   34.3091   43.6037 H   0  0  0  0  0  0  0  0  0  0  0  0
   60.6849   33.9537   45.8017 H   0  0  0  0  0  0  0  0  0  0  0  0
   60.0335   35.5623   45.2277 H   0  0  0  0  0  0  0  0  0  0  0  0
   59.8548   34.8653   47.7724 H   0  0  0  0  0  0  0  0  0  0  0  0
   58.4989   35.7186   46.9077 H   0  0  0  0  0  0  0  0  0  0  0  0
  1  2  2  0
  2  3  1  0
  3  4  2  0
  4  5  1  0
  5  6  1  0
  6  7  2  0
  7  8  1  0
  8  9  2  0
  9 10  1  0
 10 11  1  0
 11 12  1  0
 12 13  1  0
 13 14  1  0
 14 15  1  0
 15 16  1  0
 16 17  1  0
 17 18  1  0
 10 19  2  0
 19  2  1  0
 19  6  1  0
 18 13  1  0
  3 20  1  0
  4 21  1  0
  7 22  1  0
  8 23  1  0
  9 24  1  0
 12 25  1  0
 12 26  1  0
 13 27  1  0
 14 28  1  0
 14 29  1  0
 15 30  1  0
 15 31  1  0
 16 32  1  0
 16 33  1  0
 17 34  1  0
 17 35  1  0
 18 36  1  0
 18 37  1  0
M  END
>  <UniqueID>  (41) 
35

>  <SMILES>  (41) 
O=c1ccoc2cccc(OCC3CCCCC3)c12

>  <Energy>  (41) 
50.631189763958815

>  <Genealogy>  (41) 
O=c1ccoc2cccc(OCC3CCCCC3)c12 (3D coordinates assigned)
O=c1ccoc2cccc(OCC3CCCCC3)c12 (nonaromatic ring conformer: 50.631189763958815 kcal/mol)

>  <smiles>  (41) 
O=c1ccoc2cccc(OCC3CCCCC3)c12

>  <score_type>  (41) 
oracle

>  <origin>  (41) 
adg

>  <m_score__min__energy>  (41) 
-6.8200000000000003

>  <m_primary>  (41) 
energy

$$$$
41:0
     RDKit          3D

 40 42  0  0  0  0  0  0  0  0999 V2000
   64.8560   33.0860   49.3620 C   0  0  0  0  0  0  0  0  0  0  0  0
   63.5760   33.0020   48.5870 C   0  0  0  0  0  0  0  0  0  0  0  0
   63.3670   33.8150   47.4660 C   0  0  0  0  0  0  0  0  0  0  0  0
   62.1870   33.7000   46.7290 C   0  0  0  0  0  0  0  0  0  0  0  0
   61.2170   32.7620   47.1170 C   0  0  0  0  0  0  0  0  0  0  0  0
   59.9960   32.6040   46.3680 N   0  0  0  0  0  0  0  0  0  0  0  0
   59.1430   33.7560   46.0610 C   0  0  0  0  0  0  0  0  0  0  0  0
   58.7360   33.6990   44.5930 C   0  0  0  0  0  0  0  0  0  0  0  0
   58.1880   32.3440   44.2240 C   0  0  0  0  0  0  0  0  0  0  0  0
   57.4040   32.2260   43.1140 N   0  0  0  0  0  0  0  0  0  0  0  0
   56.9400   31.0170   42.7080 C   0  0  0  0  0  0  0  0  0  0  0  0
   57.2550   29.8970   43.4030 N   0  0  0  0  0  0  0  0  0  0  0  0
   58.0340   29.9510   44.5150 C   0  0  0  0  0  0  0  0  0  0  0  0
   58.3390   28.7390   45.2170 N   0  0  0  0  0  0  0  0  0  0  0  0
   59.6750   28.1650   45.0730 C   0  0  0  0  0  0  0  0  0  0  0  0
   57.2420   27.8600   45.6160 C   0  0  0  0  0  0  0  0  0  0  0  0
   58.5440   31.1880   44.9520 C   0  0  0  0  0  0  0  0  0  0  0  0
   59.4350   31.2630   46.1750 C   0  0  0  0  0  0  0  0  0  0  0  0
   61.4580   31.9600   48.1900 N   0  0  0  0  0  0  0  0  0  0  0  0
   62.6000   32.0550   48.9240 C   0  0  0  0  0  0  0  0  0  0  0  0
   64.6340   33.0714   50.4393 H   0  0  0  0  0  0  0  0  0  0  0  0
   65.4956   32.2279   49.1078 H   0  0  0  0  0  0  0  0  0  0  0  0
   65.3779   34.0203   49.1078 H   0  0  0  0  0  0  0  0  0  0  0  0
   64.1333   34.5449   47.1660 H   0  0  0  0  0  0  0  0  0  0  0  0
   62.0183   34.3399   45.8503 H   0  0  0  0  0  0  0  0  0  0  0  0
   58.2437   33.7273   46.6938 H   0  0  0  0  0  0  0  0  0  0  0  0
   59.6943   34.6876   46.2565 H   0  0  0  0  0  0  0  0  0  0  0  0
   57.9638   34.4598   44.4063 H   0  0  0  0  0  0  0  0  0  0  0  0
   59.6291   33.8889   43.9795 H   0  0  0  0  0  0  0  0  0  0  0  0
   57.1570   33.0730   42.5540 H   0  0  0  0  0  0  0  0  0  0  0  0
   56.3061   30.9459   41.8118 H   0  0  0  0  0  0  0  0  0  0  0  0
   60.1041   27.9806   46.0689 H   0  0  0  0  0  0  0  0  0  0  0  0
   59.6088   27.2159   44.5208 H   0  0  0  0  0  0  0  0  0  0  0  0
   60.3178   28.8663   44.5208 H   0  0  0  0  0  0  0  0  0  0  0  0
   57.1877   27.8165   46.7138 H   0  0  0  0  0  0  0  0  0  0  0  0
   56.2946   28.2518   45.2173 H   0  0  0  0  0  0  0  0  0  0  0  0
   57.4178   26.8500   45.2173 H   0  0  0  0  0  0  0  0  0  0  0  0
   58.8425   30.9954   47.0623 H   0  0  0  0  0  0  0  0  0  0  0  0
   60.2716   30.5641   46.0277 H   0  0  0  0  0  0  0  0  0  0  0  0
   62.7571   31.3869   49.7836 H   0  0  0  0  0  0  0  0  0  0  0  0
  1  2  1  0
  2  3  2  0
  3  4  1  0
  4  5  2  0
  5  6  1  0
  6  7  1  0
  7  8  1  0
  8  9  1  0
  9 10  2  0
 10 11  1  0
 11 12  2  0
 12 13  1  0
 13 14  1  0
 14 15  1  0
 14 16  1  0
 13 17  2  0
 17 18  1  0
  5 19  1  0
 19 20  2  0
 20  2  1  0
 18  6  1  0
 17  9  1  0
  1 21  1  0
  1 22  1  0
  1 23  1  0
  3 24  1  0
  4 25  1  0
  7 26  1  0
  7 27  1  0
  8 28  1  0
  8 29  1  0
 10 30  1  0
 11 31  1  0
 15 32  1  0
 15 33  1  0
 15 34  1  0
 16 35  1  0
 16 36  1  0
 16 37  1  0
 18 38  1  0
 18 39  1  0
 20 40  1  0
M  CHG  1  10   1
M  END
>  <UniqueID>  (42) 
36

>  <SMILES>  (42) 
Cc1ccc(N2CCc3[nH+]cnc(N(C)C)c3C2)nc1

>  <Energy>  (42) 
50.58592774094428

>  <Genealogy>  (42) 
Cc1ccc(N2CCc3[nH+]cnc(N(C)C)c3C2)nc1 (protonated)
Cc1ccc(N2CCc3[nH+]cnc(N(C)C)c3C2)nc1 (3D coordinates assigned)
Cc1ccc(N2CCc3[nH+]cnc(N(C)C)c3C2)nc1 (nonaromatic ring conformer: 50.58592774094428 kcal/mol)

>  <smiles>  (42) 
Cc1ccc(N2CCc3ncnc(N(C)C)c3C2)nc1

>  <score_type>  (42) 
oracle

>  <origin>  (42) 
adg

>  <m_score__min__energy>  (42) 
-4.7699999999999996

>  <m_primary>  (42) 
energy

$$$$
42:0
     RDKit          3D

 38 41  0  0  0  0  0  0  0  0999 V2000
   57.0510   34.1700   45.2380 C   0  0  0  0  0  0  0  0  0  0  0  0
   57.7640   33.1030   44.4370 C   0  0  0  0  0  0  0  0  0  0  0  0
   58.5360   32.2630   45.3430 N   0  0  0  0  0  0  0  0  0  0  0  0
   59.3910   32.6640   46.3220 C   0  0  0  0  0  0  0  0  0  0  0  0
   59.6740   33.8490   46.6270 O   0  0  0  0  0  0  0  0  0  0  0  0
   59.9020   31.5800   46.9320 N   0  0  0  0  0  0  0  0  0  0  0  0
   60.8490   31.4910   48.0260 C   0  0  0  0  0  0  0  0  0  0  0  0
   59.3610   30.5080   46.3270 C   0  0  0  0  0  0  0  0  0  0  0  0
   59.5250   29.1540   46.5410 C   0  0  0  0  0  0  0  0  0  0  0  0
   58.8330   28.2490   45.7610 C   0  0  0  0  0  0  0  0  0  0  0  0
   58.8270   26.9050   45.7790 N   0  0  0  0  0  0  0  0  0  0  0  0
   57.9980   26.4260   44.8310 C   0  0  0  0  0  0  0  0  0  0  0  0
   57.7650   24.9990   44.5890 C   0  0  0  0  0  0  0  0  0  0  0  0
   56.9560   24.5700   43.5470 C   0  0  0  0  0  0  0  0  0  0  0  0
   56.7650   23.2260   43.3560 C   0  0  0  0  0  0  0  0  0  0  0  0
   57.3670   22.3070   44.1880 C   0  0  0  0  0  0  0  0  0  0  0  0
   58.1800   22.7070   45.2370 C   0  0  0  0  0  0  0  0  0  0  0  0
   58.3740   24.0660   45.4290 C   0  0  0  0  0  0  0  0  0  0  0  0
   57.4880   27.4940   44.2230 N   0  0  0  0  0  0  0  0  0  0  0  0
   57.9670   28.6200   44.7550 C   0  0  0  0  0  0  0  0  0  0  0  0
   57.8040   29.9830   44.5410 C   0  0  0  0  0  0  0  0  0  0  0  0
   58.4960   30.8990   45.3230 C   0  0  0  0  0  0  0  0  0  0  0  0
   57.1833   33.9720   46.3119 H   0  0  0  0  0  0  0  0  0  0  0  0
   57.4724   35.1559   44.9923 H   0  0  0  0  0  0  0  0  0  0  0  0
   55.9789   34.1579   44.9923 H   0  0  0  0  0  0  0  0  0  0  0  0
   57.0249   32.4873   43.9036 H   0  0  0  0  0  0  0  0  0  0  0  0
   58.4366   33.5757   43.7061 H   0  0  0  0  0  0  0  0  0  0  0  0
   60.3093   31.5417   48.9832 H   0  0  0  0  0  0  0  0  0  0  0  0
   61.3941   30.5377   47.9625 H   0  0  0  0  0  0  0  0  0  0  0  0
   61.5622   32.3261   47.9625 H   0  0  0  0  0  0  0  0  0  0  0  0
   60.2041   28.7977   47.3296 H   0  0  0  0  0  0  0  0  0  0  0  0
   56.4730   25.3003   42.8812 H   0  0  0  0  0  0  0  0  0  0  0  0
   56.1256   22.8780   42.5313 H   0  0  0  0  0  0  0  0  0  0  0  0
   57.1988   21.2336   44.0160 H   0  0  0  0  0  0  0  0  0  0  0  0
   58.6570   21.9679   45.8975 H   0  0  0  0  0  0  0  0  0  0  0  0
   59.0152   24.4128   46.2528 H   0  0  0  0  0  0  0  0  0  0  0  0
   56.8010   27.4690   43.4310 H   0  0  0  0  0  0  0  0  0  0  0  0
   57.1257   30.3374   43.7509 H   0  0  0  0  0  0  0  0  0  0  0  0
  1  2  1  0
  2  3  1  0
  3  4  1  0
  4  5  2  0
  4  6  1  0
  6  7  1  0
  6  8  1  0
  8  9  2  0
  9 10  1  0
 10 11  1  0
 11 12  2  0
 12 13  1  0
 13 14  2  0
 14 15  1  0
 15 16  2  0
 16 17  1  0
 17 18  2  0
 12 19  1  0
 19 20  1  0
 20 21  1  0
 21 22  2  0
 22  3  1  0
 22  8  1  0
 20 10  2  0
 18 13  1  0
  1 23  1  0
  1 24  1  0
  1 25  1  0
  2 26  1  0
  2 27  1  0
  7 28  1  0
  7 29  1  0
  7 30  1  0
  9 31  1  0
 14 32  1  0
 15 33  1  0
 16 34  1  0
 17 35  1  0
 18 36  1  0
 19 37  1  0
 21 38  1  0
M  END
>  <smiles>  (43) 
CCn1c(=O)n(C)c2cc3nc(-c4ccccc4)[nH]c3cc21

>  <score_type>  (43) 
oracle

>  <origin>  (43) 
adg

>  <m_score__min__energy>  (43) 
-6.6100000000000003

>  <m_primary>  (43) 
energy

$$$$
43:0
     RDKit          3D

 40 42  0  0  0  0  0  0  0  0999 V2000
   57.4940   28.0510   45.1130 C   0  0  0  0  0  0  0  0  0  0  0  0
   57.6040   29.4810   44.6510 C   0  0  0  0  0  0  0  0  0  0  0  0
   57.0380   29.8360   43.4170 C   0  0  0  0  0  0  0  0  0  0  0  0
   57.1320   31.1430   42.9440 C   0  0  0  0  0  0  0  0  0  0  0  0
   57.7890   32.1130   43.6940 C   0  0  0  0  0  0  0  0  0  0  0  0
   58.3420   31.7990   44.9450 C   0  0  0  0  0  0  0  0  0  0  0  0
   59.0590   32.8080   45.6790 N   0  0  0  0  0  0  0  0  0  0  0  0
   58.4410   33.9970   46.1980 C   0  0  0  0  0  0  0  0  0  0  0  0
   57.2190   34.2290   45.9900 O   0  0  0  0  0  0  0  0  0  0  0  0
   59.2400   34.9590   47.0240 C   0  0  0  0  0  0  0  0  0  0  0  0
   59.7170   34.2220   48.6290 S   0  0  0  0  0  0  0  0  0  0  0  0
   61.4090   33.8340   48.1430 C   0  0  0  0  0  0  0  0  0  0  0  0
   61.6930   33.7720   46.8170 N   0  0  0  0  0  0  0  0  0  0  0  0
   62.9390   33.4710   46.3690 C   0  0  0  0  0  0  0  0  0  0  0  0
   63.9390   33.2240   47.2530 N   0  0  0  0  0  0  0  0  0  0  0  0
   63.7170   33.2710   48.5920 C   0  0  0  0  0  0  0  0  0  0  0  0
   64.7650   33.0160   49.4820 C   0  0  0  0  0  0  0  0  0  0  0  0
   64.5410   33.0620   50.8600 C   0  0  0  0  0  0  0  0  0  0  0  0
   63.2690   33.3590   51.3540 C   0  0  0  0  0  0  0  0  0  0  0  0
   62.2120   33.6160   50.4740 C   0  0  0  0  0  0  0  0  0  0  0  0
   62.4270   33.5770   49.0840 C   0  0  0  0  0  0  0  0  0  0  0  0
   58.2390   30.4740   45.4440 C   0  0  0  0  0  0  0  0  0  0  0  0
   58.8380   30.1140   46.7850 C   0  0  0  0  0  0  0  0  0  0  0  0
   57.4916   28.0201   46.2126 H   0  0  0  0  0  0  0  0  0  0  0  0
   56.5595   27.6134   44.7319 H   0  0  0  0  0  0  0  0  0  0  0  0
   58.3505   27.4756   44.7319 H   0  0  0  0  0  0  0  0  0  0  0  0
   56.5155   29.0756   42.8179 H   0  0  0  0  0  0  0  0  0  0  0  0
   56.6853   31.4088   41.9745 H   0  0  0  0  0  0  0  0  0  0  0  0
   57.8760   33.1372   43.3023 H   0  0  0  0  0  0  0  0  0  0  0  0
   60.0610   32.6310   45.9130 H   0  0  0  0  0  0  0  0  0  0  0  0
   60.1505   35.2348   46.4718 H   0  0  0  0  0  0  0  0  0  0  0  0
   58.6197   35.8459   47.2203 H   0  0  0  0  0  0  0  0  0  0  0  0
   63.1383   33.4273   45.2881 H   0  0  0  0  0  0  0  0  0  0  0  0
   65.7675   32.7788   49.0963 H   0  0  0  0  0  0  0  0  0  0  0  0
   65.3682   32.8639   51.5575 H   0  0  0  0  0  0  0  0  0  0  0  0
   63.0973   33.3910   52.4400 H   0  0  0  0  0  0  0  0  0  0  0  0
   61.2121   33.8487   50.8691 H   0  0  0  0  0  0  0  0  0  0  0  0
   58.1950   30.5005   47.5895 H   0  0  0  0  0  0  0  0  0  0  0  0
   58.9147   29.0200   46.8705 H   0  0  0  0  0  0  0  0  0  0  0  0
   59.8400   30.5596   46.8705 H   0  0  0  0  0  0  0  0  0  0  0  0
  1  2  1  0
  2  3  2  0
  3  4  1  0
  4  5  2  0
  5  6  1  0
  6  7  1  0
  7  8  1  0
  8  9  2  0
  8 10  1  0
 10 11  1  0
 11 12  1  0
 12 13  2  0
 13 14  1  0
 14 15  2  0
 15 16  1  0
 16 17  2  0
 17 18  1  0
 18 19  2  0
 19 20  1  0
 20 21  2  0
  6 22  2  0
 22 23  1  0
 22  2  1  0
 21 12  1  0
 21 16  1  0
  1 24  1  0
  1 25  1  0
  1 26  1  0
  3 27  1  0
  4 28  1  0
  5 29  1  0
  7 30  1  0
 10 31  1  0
 10 32  1  0
 14 33  1  0
 17 34  1  0
 18 35  1  0
 19 36  1  0
 20 37  1  0
 23 38  1  0
 23 39  1  0
 23 40  1  0
M  END
>  <UniqueID>  (44) 
37

>  <SMILES>  (44) 
Cc1cccc(NC(=O)CSc2ncnc3ccccc23)c1C

>  <Energy>  (44) 
47.20824412926181

>  <Genealogy>  (44) 
Cc1cccc(NC(=O)CSc2ncnc3ccccc23)c1C (3D coordinates assigned)
Cc1cccc(NC(=O)CSc2ncnc3ccccc23)c1C (optimized conformer: 47.20824412926181 kcal/mol)

>  <smiles>  (44) 
Cc1cccc(NC(=O)CSc2ncnc3ccccc23)c1C

>  <score_type>  (44) 
oracle

>  <origin>  (44) 
adg

>  <m_score__min__energy>  (44) 
-7.6699999999999999

>  <m_primary>  (44) 
energy

$$$$
44:0
     RDKit          3D

 30 31  0  0  0  0  0  0  0  0999 V2000
   59.6480   33.6210   49.0170 C   0  0  0  0  0  0  0  0  0  0  0  0
   60.4500   34.2800   47.9020 C   0  0  0  0  0  0  0  0  0  0  0  0
   59.3450   35.0160   46.6470 S   0  0  0  0  0  0  0  0  0  0  0  0
   58.6060   33.4580   46.1670 C   0  0  0  0  0  0  0  0  0  0  0  0
   57.2960   33.2990   45.8910 N   0  0  0  0  0  0  0  0  0  0  0  0
   57.1600   32.0200   45.5820 N   0  0  0  0  0  0  0  0  0  0  0  0
   58.3720   31.4460   45.6800 C   0  0  0  0  0  0  0  0  0  0  0  0
   58.6680   30.0330   45.3890 C   0  0  0  0  0  0  0  0  0  0  0  0
   59.7040   29.3980   45.9010 C   0  0  0  0  0  0  0  0  0  0  0  0
   59.8540   28.0470   45.2870 C   0  0  0  0  0  0  0  0  0  0  0  0
   58.7130   27.9840   44.2610 C   0  0  0  0  0  0  0  0  0  0  0  0
   57.9860   29.2360   44.4260 N   0  0  0  0  0  0  0  0  0  0  0  0
   56.6260   29.3890   43.9880 C   0  0  0  0  0  0  0  0  0  0  0  0
   56.2590   29.3650   42.5350 C   0  0  0  0  0  0  0  0  0  0  0  0
   55.7210   29.5950   44.8410 O   0  0  0  0  0  0  0  0  0  0  0  0
   59.2710   32.3320   46.0380 O   0  0  0  0  0  0  0  0  0  0  0  0
   60.0414   33.9443   49.9920 H   0  0  0  0  0  0  0  0  0  0  0  0
   58.5915   33.9154   48.9320 H   0  0  0  0  0  0  0  0  0  0  0  0
   59.7319   32.5275   48.9320 H   0  0  0  0  0  0  0  0  0  0  0  0
   61.0822   35.0706   48.3326 H   0  0  0  0  0  0  0  0  0  0  0  0
   61.0701   33.5125   47.4158 H   0  0  0  0  0  0  0  0  0  0  0  0
   56.2650   31.5750   45.2810 H   0  0  0  0  0  0  0  0  0  0  0  0
   60.3677   29.8090   46.6760 H   0  0  0  0  0  0  0  0  0  0  0  0
   60.8317   27.9472   44.7928 H   0  0  0  0  0  0  0  0  0  0  0  0
   59.8065   27.2349   46.0274 H   0  0  0  0  0  0  0  0  0  0  0  0
   59.1152   27.9024   43.2404 H   0  0  0  0  0  0  0  0  0  0  0  0
   58.0663   27.1078   44.4164 H   0  0  0  0  0  0  0  0  0  0  0  0
   55.1660   29.2935   42.4340 H   0  0  0  0  0  0  0  0  0  0  0  0
   56.6122   30.2882   42.0523 H   0  0  0  0  0  0  0  0  0  0  0  0
   56.7294   28.4957   42.0523 H   0  0  0  0  0  0  0  0  0  0  0  0
  1  2  1  0
  2  3  1  0
  3  4  1  0
  4  5  2  0
  5  6  1  0
  6  7  2  0
  7  8  1  0
  8  9  2  0
  9 10  1  0
 10 11  1  0
 11 12  1  0
 12 13  1  0
 13 14  1  0
 13 15  2  0
  7 16  1  0
 16  4  1  0
 12  8  1  0
  1 17  1  0
  1 18  1  0
  1 19  1  0
  2 20  1  0
  2 21  1  0
  6 22  1  0
  9 23  1  0
 10 24  1  0
 10 25  1  0
 11 26  1  0
 11 27  1  0
 14 28  1  0
 14 29  1  0
 14 30  1  0
M  CHG  1   6   1
M  END
>  <UniqueID>  (45) 
38

>  <SMILES>  (45) 
CCSc1n[nH+]c(C2=CCCN2C(C)=O)o1

>  <Energy>  (45) 
71.66808247810414

>  <Genealogy>  (45) 
CCSc1n[nH+]c(C2=CCCN2C(C)=O)o1 (protonated)
CCSc1n[nH+]c(C2=CCCN2C(C)=O)o1 (3D coordinates assigned)
CCSc1n[nH+]c(C2=CCCN2C(C)=O)o1 (nonaromatic ring conformer: 71.66808247810414 kcal/mol)

>  <smiles>  (45) 
CCSc1nnc(C2=CCCN2C(C)=O)o1

>  <score_type>  (45) 
oracle

>  <origin>  (45) 
adg

>  <m_score__min__energy>  (45) 
-4.8499999999999996

>  <m_primary>  (45) 
energy

$$$$
45:0
     RDKit          3D

 49 53  0  0  0  0  0  0  0  0999 V2000
   57.8950   25.7190   46.7580 C   0  0  0  0  0  0  0  0  0  0  0  0
   57.9890   27.1590   46.3460 C   0  0  0  0  0  0  0  0  0  0  0  0
   58.4800   28.1160   47.2420 C   0  0  0  0  0  0  0  0  0  0  0  0
   58.5390   29.4650   46.8830 C   0  0  0  0  0  0  0  0  0  0  0  0
   58.1140   29.8870   45.6100 C   0  0  0  0  0  0  0  0  0  0  0  0
   57.5510   28.9200   44.7230 C   0  0  0  0  0  0  0  0  0  0  0  0
   57.0220   29.3130   43.4740 C   0  0  0  0  0  0  0  0  0  0  0  0
   57.0320   30.6560   43.0860 C   0  0  0  0  0  0  0  0  0  0  0  0
   57.6030   31.5900   43.9420 C   0  0  0  0  0  0  0  0  0  0  0  0
   57.7140   32.9100   43.6970 N   0  0  0  0  0  0  0  0  0  0  0  0
   58.3710   33.4090   44.7580 C   0  0  0  0  0  0  0  0  0  0  0  0
   58.7390   34.7390   44.9410 C   0  0  0  0  0  0  0  0  0  0  0  0
   59.4690   35.0740   46.0890 C   0  0  0  0  0  0  0  0  0  0  0  0
   59.8570   34.0720   47.0110 C   0  0  0  0  0  0  0  0  0  0  0  0
   60.6020   34.3990   48.1940 N   0  0  0  0  0  0  0  0  0  0  0  0
   61.7230   33.8650   48.5890 C   0  0  0  0  0  0  0  0  0  0  0  0
   62.9560   33.8020   47.7190 C   0  0  0  0  0  0  0  0  0  0  0  0
   63.7710   32.5450   48.0590 C   0  0  0  0  0  0  0  0  0  0  0  0
   64.1190   32.4290   49.5010 N   0  0  0  0  0  0  0  0  0  0  0  0
   65.5230   32.7970   49.7430 C   0  0  0  0  0  0  0  0  0  0  0  0
   63.2260   33.1650   50.4280 C   0  0  0  0  0  0  0  0  0  0  0  0
   61.7760   33.2080   49.9350 C   0  0  0  0  0  0  0  0  0  0  0  0
   59.4490   32.7380   46.8150 C   0  0  0  0  0  0  0  0  0  0  0  0
   58.6840   32.4250   45.6800 C   0  0  0  0  0  0  0  0  0  0  0  0
   58.1620   31.2320   45.1650 C   0  0  0  0  0  0  0  0  0  0  0  0
   57.5020   27.5680   45.0990 C   0  0  0  0  0  0  0  0  0  0  0  0
   57.8906   25.6513   47.8559 H   0  0  0  0  0  0  0  0  0  0  0  0
   56.9665   25.2836   46.3600 H   0  0  0  0  0  0  0  0  0  0  0  0
   58.7590   25.1666   46.3600 H   0  0  0  0  0  0  0  0  0  0  0  0
   58.8229   27.8026   48.2391 H   0  0  0  0  0  0  0  0  0  0  0  0
   58.9213   30.2040   47.6025 H   0  0  0  0  0  0  0  0  0  0  0  0
   56.5978   28.5546   42.7995 H   0  0  0  0  0  0  0  0  0  0  0  0
   56.5975   30.9666   42.1244 H   0  0  0  0  0  0  0  0  0  0  0  0
   57.3830   33.4290   42.8530 H   0  0  0  0  0  0  0  0  0  0  0  0
   58.4638   35.5072   44.2033 H   0  0  0  0  0  0  0  0  0  0  0  0
   59.7427   36.1230   46.2753 H   0  0  0  0  0  0  0  0  0  0  0  0
   62.6551   33.7668   46.6616 H   0  0  0  0  0  0  0  0  0  0  0  0
   63.5733   34.6943   47.8999 H   0  0  0  0  0  0  0  0  0  0  0  0
   63.1823   31.6613   47.7718 H   0  0  0  0  0  0  0  0  0  0  0  0
   64.7184   32.6168   47.5047 H   0  0  0  0  0  0  0  0  0  0  0  0
   65.7079   32.8455   50.8263 H   0  0  0  0  0  0  0  0  0  0  0  0
   66.1831   32.0415   49.2918 H   0  0  0  0  0  0  0  0  0  0  0  0
   65.7276   33.7791   49.2918 H   0  0  0  0  0  0  0  0  0  0  0  0
   63.2504   32.6691   51.4096 H   0  0  0  0  0  0  0  0  0  0  0  0
   63.5891   34.2015   50.4896 H   0  0  0  0  0  0  0  0  0  0  0  0
   61.3848   32.1828   49.8578 H   0  0  0  0  0  0  0  0  0  0  0  0
   61.1646   33.7823   50.6466 H   0  0  0  0  0  0  0  0  0  0  0  0
   59.7247   31.9560   47.5378 H   0  0  0  0  0  0  0  0  0  0  0  0
   57.0776   26.8245   44.4083 H   0  0  0  0  0  0  0  0  0  0  0  0
  1  2  1  0
  2  3  2  0
  3  4  1  0
  4  5  2  0
  5  6  1  0
  6  7  1  0
  7  8  2  0
  8  9  1  0
  9 10  1  0
 10 11  1  0
 11 12  2  0
 12 13  1  0
 13 14  2  0
 14 15  1  0
 15 16  2  3
 16 17  1  0
 17 18  1  0
 18 19  1  0
 19 20  1  0
 19 21  1  0
 21 22  1  0
 14 23  1  0
 23 24  2  0
 24 25  1  0
  6 26  2  0
 26  2  1  0
 25  5  1  0
 25  9  2  0
 24 11  1  0
 22 16  1  0
  1 27  1  0
  1 28  1  0
  1 29  1  0
  3 30  1  0
  4 31  1  0
  7 32  1  0
  8 33  1  0
 10 34  1  0
 12 35  1  0
 13 36  1  0
 17 37  1  0
 17 38  1  0
 18 39  1  0
 18 40  1  0
 20 41  1  0
 20 42  1  0
 20 43  1  0
 21 44  1  0
 21 45  1  0
 22 46  1  0
 22 47  1  0
 23 48  1  0
 26 49  1  0
M  END
>  <UniqueID>  (46) 
39

>  <SMILES>  (46) 
Cc1ccc2c(ccc3[nH]c4ccc(N=C5CCN(C)CC5)cc4c32)c1

>  <Energy>  (46) 
115.25143614016665

>  <Genealogy>  (46) 
Cc1ccc2c(ccc3[nH]c4ccc(N=C5CCN(C)CC5)cc4c32)c1 (3D coordinates assigned)
Cc1ccc2c(ccc3[nH]c4ccc(N=C5CCN(C)CC5)cc4c32)c1 (nonaromatic ring conformer: 115.25143614016665 kcal/mol)

>  <smiles>  (46) 
Cc1ccc2c(ccc3[nH]c4ccc(N=C5CCN(C)CC5)cc4c32)c1

>  <score_type>  (46) 
oracle

>  <origin>  (46) 
adg

>  <m_score__min__energy>  (46) 
-9.5800000000000001

>  <m_primary>  (46) 
energy

$$$$
46:0
     RDKit          3D

 48 50  0  0  0  0  0  0  0  0999 V2000
   60.6830   33.6950   46.9360 C   0  0  0  0  0  0  0  0  0  0  0  0
   62.0580   33.2960   47.2400 N   0  0  0  0  0  0  0  0  0  0  0  0
   63.1460   33.7240   46.3610 C   0  0  0  0  0  0  0  0  0  0  0  0
   62.3450   32.4440   48.3650 C   0  0  0  0  0  0  0  0  0  0  0  0
   63.3450   32.8200   49.2770 C   0  0  0  0  0  0  0  0  0  0  0  0
   63.6120   32.0330   50.4000 C   0  0  0  0  0  0  0  0  0  0  0  0
   62.8860   30.8630   50.6240 C   0  0  0  0  0  0  0  0  0  0  0  0
   61.8950   30.4720   49.7210 C   0  0  0  0  0  0  0  0  0  0  0  0
   61.6210   31.2490   48.5850 C   0  0  0  0  0  0  0  0  0  0  0  0
   60.6350   30.7930   47.6470 N   0  0  0  0  0  0  0  0  0  0  0  0
   59.2090   30.8840   47.9820 C   0  0  0  0  0  0  0  0  0  0  0  0
   58.5440   29.5110   47.8340 C   0  0  0  0  0  0  0  0  0  0  0  0
   58.8970   28.8060   46.4940 C   0  0  0  0  0  0  0  0  0  0  0  0
   57.6910   28.4500   45.7420 N   0  0  0  0  0  0  0  0  0  0  0  0
   56.7510   29.3770   45.1770 C   0  0  0  0  0  0  0  0  0  0  0  0
   55.5210   29.0970   45.1650 O   0  0  0  0  0  0  0  0  0  0  0  0
   57.2250   30.6550   44.5990 C   0  0  0  0  0  0  0  0  0  0  0  0
   57.5410   31.7450   45.4330 C   0  0  0  0  0  0  0  0  0  0  0  0
   57.9940   32.9480   44.8840 C   0  0  0  0  0  0  0  0  0  0  0  0
   58.1360   33.0800   43.5010 C   0  0  0  0  0  0  0  0  0  0  0  0
   57.8240   32.0070   42.6630 C   0  0  0  0  0  0  0  0  0  0  0  0
   57.9660   32.1330   41.3200 F   0  0  0  0  0  0  0  0  0  0  0  0
   57.3720   30.8000   43.2060 C   0  0  0  0  0  0  0  0  0  0  0  0
   59.8730   29.6060   45.6060 C   0  0  0  0  0  0  0  0  0  0  0  0
   61.0700   30.1020   46.4250 C   0  0  0  0  0  0  0  0  0  0  0  0
   60.1317   33.8550   47.8743 H   0  0  0  0  0  0  0  0  0  0  0  0
   60.6923   34.6275   46.3526 H   0  0  0  0  0  0  0  0  0  0  0  0
   60.1917   32.9024   46.3526 H   0  0  0  0  0  0  0  0  0  0  0  0
   63.9987   34.0594   46.9696 H   0  0  0  0  0  0  0  0  0  0  0  0
   63.4575   32.8814   45.7262 H   0  0  0  0  0  0  0  0  0  0  0  0
   62.8000   34.5530   45.7262 H   0  0  0  0  0  0  0  0  0  0  0  0
   63.9220   33.7407   49.1057 H   0  0  0  0  0  0  0  0  0  0  0  0
   64.3963   32.3365   51.1091 H   0  0  0  0  0  0  0  0  0  0  0  0
   63.0942   30.2483   51.5121 H   0  0  0  0  0  0  0  0  0  0  0  0
   61.3252   29.5485   49.9015 H   0  0  0  0  0  0  0  0  0  0  0  0
   59.1007   31.2306   49.0203 H   0  0  0  0  0  0  0  0  0  0  0  0
   58.7232   31.5948   47.2973 H   0  0  0  0  0  0  0  0  0  0  0  0
   58.8743   28.8702   48.6648 H   0  0  0  0  0  0  0  0  0  0  0  0
   57.4556   29.6698   47.8454 H   0  0  0  0  0  0  0  0  0  0  0  0
   59.4250   27.8846   46.7808 H   0  0  0  0  0  0  0  0  0  0  0  0
   57.4306   31.6490   46.5232 H   0  0  0  0  0  0  0  0  0  0  0  0
   58.2394   33.7935   45.5435 H   0  0  0  0  0  0  0  0  0  0  0  0
   58.4931   34.0279   43.0721 H   0  0  0  0  0  0  0  0  0  0  0  0
   57.1297   29.9583   42.5405 H   0  0  0  0  0  0  0  0  0  0  0  0
   60.2349   28.9587   44.7936 H   0  0  0  0  0  0  0  0  0  0  0  0
   59.3423   30.4767   45.1934 H   0  0  0  0  0  0  0  0  0  0  0  0
   61.6942   29.2403   46.7041 H   0  0  0  0  0  0  0  0  0  0  0  0
   61.6394   30.8137   45.8092 H   0  0  0  0  0  0  0  0  0  0  0  0
  1  2  1  0
  2  3  1  0
  2  4  1  0
  4  5  2  0
  5  6  1  0
  6  7  2  0
  7  8  1  0
  8  9  2  0
  9 10  1  0
 10 11  1  0
 11 12  1  0
 12 13  1  0
 13 14  1  0
 14 15  1  0
 15 16  2  0
 15 17  1  0
 17 18  2  0
 18 19  1  0
 19 20  2  0
 20 21  1  0
 21 22  1  0
 21 23  2  0
 13 24  1  0
 24 25  1  0
  9  4  1  0
 25 10  1  0
 23 17  1  0
  1 26  1  0
  1 27  1  0
  1 28  1  0
  3 29  1  0
  3 30  1  0
  3 31  1  0
  5 32  1  0
  6 33  1  0
  7 34  1  0
  8 35  1  0
 11 36  1  0
 11 37  1  0
 12 38  1  0
 12 39  1  0
 13 40  1  0
 18 41  1  0
 19 42  1  0
 20 43  1  0
 23 44  1  0
 24 45  1  0
 24 46  1  0
 25 47  1  0
 25 48  1  0
M  CHG  1  14  -1
M  END
>  <UniqueID>  (47) 
40

>  <SMILES>  (47) 
CN(C)c1ccccc1N1CCC([N-]C(=O)c2cccc(F)c2)CC1

>  <Energy>  (47) 
58.67502889420046

>  <Genealogy>  (47) 
CN(C)c1ccccc1N1CCC([N-]C(=O)c2cccc(F)c2)CC1 (protonated)
CN(C)c1ccccc1N1CCC([N-]C(=O)c2cccc(F)c2)CC1 (3D coordinates assigned)
CN(C)c1ccccc1N1CCC([N-]C(=O)c2cccc(F)c2)CC1 (nonaromatic ring conformer: 58.67502889420046 kcal/mol)

>  <smiles>  (47) 
CN(C)c1ccccc1N1CCC(NC(=O)c2cccc(F)c2)CC1

>  <score_type>  (47) 
oracle

>  <origin>  (47) 
adg

>  <m_score__min__energy>  (47) 
-9.1899999999999995

>  <m_primary>  (47) 
energy

$$$$
47:0
     RDKit          3D

 37 40  0  0  0  0  0  0  0  0999 V2000
   55.1600   28.9700   44.8400 O   0  0  0  0  0  0  0  0  0  0  0  0
   56.4930   29.0700   45.2390 C   0  0  0  0  0  0  0  0  0  0  0  0
   57.1320   27.9650   45.8210 C   0  0  0  0  0  0  0  0  0  0  0  0
   56.4160   26.7670   46.0130 C   0  0  0  0  0  0  0  0  0  0  0  0
   57.0180   25.6680   46.6190 C   0  0  0  0  0  0  0  0  0  0  0  0
   58.3350   25.7500   47.0530 C   0  0  0  0  0  0  0  0  0  0  0  0
   59.0660   26.9230   46.8680 C   0  0  0  0  0  0  0  0  0  0  0  0
   58.4930   28.0520   46.2260 C   0  0  0  0  0  0  0  0  0  0  0  0
   59.2280   29.2590   45.9950 C   0  0  0  0  0  0  0  0  0  0  0  0
   60.6540   29.3380   46.2790 N   0  0  0  0  0  0  0  0  0  0  0  0
   60.9560   30.3130   47.3080 C   0  0  0  0  0  0  0  0  0  0  0  0
   60.1520   30.3850   48.4630 C   0  0  0  0  0  0  0  0  0  0  0  0
   60.4020   31.3460   49.4460 C   0  0  0  0  0  0  0  0  0  0  0  0
   61.4460   32.2600   49.2840 C   0  0  0  0  0  0  0  0  0  0  0  0
   61.7580   33.4660   50.5200 Cl  0  0  0  0  0  0  0  0  0  0  0  0
   62.2350   32.2190   48.1320 C   0  0  0  0  0  0  0  0  0  0  0  0
   61.9880   31.2610   47.1450 C   0  0  0  0  0  0  0  0  0  0  0  0
   58.5460   30.3880   45.4460 C   0  0  0  0  0  0  0  0  0  0  0  0
   59.1920   31.6360   45.2630 C   0  0  0  0  0  0  0  0  0  0  0  0
   58.5140   32.7250   44.7150 C   0  0  0  0  0  0  0  0  0  0  0  0
   57.1830   32.6030   44.3360 C   0  0  0  0  0  0  0  0  0  0  0  0
   56.5180   31.3920   44.5080 C   0  0  0  0  0  0  0  0  0  0  0  0
   57.1820   30.2790   45.0640 C   0  0  0  0  0  0  0  0  0  0  0  0
   55.3697   26.6994   45.6804 H   0  0  0  0  0  0  0  0  0  0  0  0
   56.4511   24.7350   46.7542 H   0  0  0  0  0  0  0  0  0  0  0  0
   58.8037   24.8851   47.5452 H   0  0  0  0  0  0  0  0  0  0  0  0
   60.1049   26.9744   47.2258 H   0  0  0  0  0  0  0  0  0  0  0  0
   61.1590   29.5660   45.3920 H   0  0  0  0  0  0  0  0  0  0  0  0
   61.0700   28.4230   46.5470 H   0  0  0  0  0  0  0  0  0  0  0  0
   59.3194   29.6778   48.5920 H   0  0  0  0  0  0  0  0  0  0  0  0
   59.7754   31.3829   50.3494 H   0  0  0  0  0  0  0  0  0  0  0  0
   63.0530   32.9428   48.0014 H   0  0  0  0  0  0  0  0  0  0  0  0
   62.6034   31.2460   46.2334 H   0  0  0  0  0  0  0  0  0  0  0  0
   60.2458   31.7479   45.5580 H   0  0  0  0  0  0  0  0  0  0  0  0
   59.0354   33.6844   44.5824 H   0  0  0  0  0  0  0  0  0  0  0  0
   56.6544   33.4635   43.8999 H   0  0  0  0  0  0  0  0  0  0  0  0
   55.4638   31.3024   44.2071 H   0  0  0  0  0  0  0  0  0  0  0  0
  1  2  1  0
  2  3  2  0
  3  4  1  0
  4  5  2  0
  5  6  1  0
  6  7  2  0
  7  8  1  0
  8  9  2  0
  9 10  1  0
 10 11  1  0
 11 12  2  0
 12 13  1  0
 13 14  2  0
 14 15  1  0
 14 16  1  0
 16 17  2  0
  9 18  1  0
 18 19  2  0
 19 20  1  0
 20 21  2  0
 21 22  1  0
 22 23  2  0
 23  2  1  0
  8  3  1  0
 17 11  1  0
 23 18  1  0
  4 24  1  0
  5 25  1  0
  6 26  1  0
  7 27  1  0
 10 28  1  0
 10 29  1  0
 12 30  1  0
 13 31  1  0
 16 32  1  0
 17 33  1  0
 19 34  1  0
 20 35  1  0
 21 36  1  0
 22 37  1  0
M  CHG  2   1  -1  10   1
M  END
>  <UniqueID>  (48) 
41

>  <SMILES>  (48) 
[O-]c1c2ccccc2c([NH2+]c2ccc(Cl)cc2)c2ccccc12

>  <Energy>  (48) 
62.769861944717725

>  <Genealogy>  (48) 
[O-]c1c2ccccc2c([NH2+]c2ccc(Cl)cc2)c2ccccc12 (protonated)
[O-]c1c2ccccc2c([NH2+]c2ccc(Cl)cc2)c2ccccc12 (3D coordinates assigned)
[O-]c1c2ccccc2c([NH2+]c2ccc(Cl)cc2)c2ccccc12 (optimized conformer: 62.769861944717725 kcal/mol)

>  <smiles>  (48) 
Oc1c2ccccc2c(Nc2ccc(Cl)cc2)c2ccccc12

>  <score_type>  (48) 
oracle

>  <origin>  (48) 
adg

>  <m_score__min__energy>  (48) 
-9.0399999999999991

>  <m_primary>  (48) 
energy

$$$$
