0:0
     RDKit          3D

 72 75  0  0  0  0  0  0  0  0999 V2000
   63.1610   33.5230   46.7450 C   0  0  0  0  0  0  0  0  0  0  0  0
   63.6220   32.1170   47.1220 C   0  0  0  0  0  0  0  0  0  0  0  0
   62.6500   31.5660   48.0220 N   0  0  0  0  0  0  0  0  0  0  0  0
   63.0180   31.8590   49.3820 C   0  0  0  0  0  0  0  0  0  0  0  0
   62.3000   31.0220   50.3990 C   0  0  0  0  0  0  0  0  0  0  0  0
   61.5320   29.9590   49.8640 N   0  0  0  0  0  0  0  0  0  0  0  0
   60.1580   29.9580   50.1760 C   0  0  0  0  0  0  0  0  0  0  0  0
   59.2670   29.8630   48.9320 C   0  0  0  0  0  0  0  0  0  0  0  0
   60.0660   30.1920   47.7650 N   0  0  0  0  0  0  0  0  0  0  0  0
   59.3980   30.7660   46.6720 C   0  0  0  0  0  0  0  0  0  0  0  0
   58.8730   29.8280   45.7570 C   0  0  0  0  0  0  0  0  0  0  0  0
   59.0180   28.4620   46.0220 C   0  0  0  0  0  0  0  0  0  0  0  0
   58.5490   27.4810   45.1960 C   0  0  0  0  0  0  0  0  0  0  0  0
   57.9010   27.8610   44.0480 C   0  0  0  0  0  0  0  0  0  0  0  0
   57.7430   29.2250   43.7590 C   0  0  0  0  0  0  0  0  0  0  0  0
   58.2260   30.2030   44.6090 C   0  0  0  0  0  0  0  0  0  0  0  0
   58.0750   31.5050   44.3250 N   0  0  0  0  0  0  0  0  0  0  0  0
   57.4070   31.9740   43.1540 C   0  0  0  0  0  0  0  0  0  0  0  0
   58.5670   32.3940   45.1880 C   0  0  0  0  0  0  0  0  0  0  0  0
   58.4060   33.7430   44.8470 C   0  0  0  0  0  0  0  0  0  0  0  0
   58.8990   34.7170   45.6810 C   0  0  0  0  0  0  0  0  0  0  0  0
   59.5470   34.3490   46.8410 C   0  0  0  0  0  0  0  0  0  0  0  0
   59.7330   33.0260   47.2220 C   0  0  0  0  0  0  0  0  0  0  0  0
   60.3070   32.7840   48.4850 N   0  0  0  0  0  0  0  0  0  0  0  0
   60.3780   33.8900   49.4680 C   0  0  0  0  0  0  0  0  0  0  0  0
   59.2970   33.8430   50.4860 C   0  0  0  0  0  0  0  0  0  0  0  0
   59.7080   33.0520   51.7230 C   0  0  0  0  0  0  0  0  0  0  0  0
   58.6480   32.1130   52.0930 N   0  0  0  0  0  0  0  0  0  0  0  0
   57.5780   31.9920   51.2860 C   0  0  0  0  0  0  0  0  0  0  0  0
   56.5850   31.0990   51.6460 C   0  0  0  0  0  0  0  0  0  0  0  0
   56.6790   30.3420   52.8070 C   0  0  0  0  0  0  0  0  0  0  0  0
   57.8000   30.4920   53.6190 C   0  0  0  0  0  0  0  0  0  0  0  0
   58.7680   31.3930   53.2250 C   0  0  0  0  0  0  0  0  0  0  0  0
   59.2310   32.0760   46.3670 C   0  0  0  0  0  0  0  0  0  0  0  0
   62.9705   34.1039   47.6595 H   0  0  0  0  0  0  0  0  0  0  0  0
   63.9436   34.0188   46.1520 H   0  0  0  0  0  0  0  0  0  0  0  0
   62.2367   33.4591   46.1520 H   0  0  0  0  0  0  0  0  0  0  0  0
   63.6940   31.4918   46.2198 H   0  0  0  0  0  0  0  0  0  0  0  0
   64.6127   32.1512   47.5987 H   0  0  0  0  0  0  0  0  0  0  0  0
   62.4690   30.5680   47.8610 H   0  0  0  0  0  0  0  0  0  0  0  0
   64.0989   31.6877   49.4931 H   0  0  0  0  0  0  0  0  0  0  0  0
   62.7349   32.9049   49.5715 H   0  0  0  0  0  0  0  0  0  0  0  0
   63.0505   30.5924   51.0788 H   0  0  0  0  0  0  0  0  0  0  0  0
   61.5883   31.6928   50.9025 H   0  0  0  0  0  0  0  0  0  0  0  0
   61.7440   29.9320   48.8340 H   0  0  0  0  0  0  0  0  0  0  0  0
   59.9459   29.0970   50.8269 H   0  0  0  0  0  0  0  0  0  0  0  0
   59.9306   30.9118   50.6745 H   0  0  0  0  0  0  0  0  0  0  0  0
   58.8730   28.8406   48.8353 H   0  0  0  0  0  0  0  0  0  0  0  0
   58.4228   30.5628   49.0195 H   0  0  0  0  0  0  0  0  0  0  0  0
   61.1170   30.0520   47.7290 H   0  0  0  0  0  0  0  0  0  0  0  0
   59.5372   28.1624   46.9443 H   0  0  0  0  0  0  0  0  0  0  0  0
   58.6866   26.4181   45.4436 H   0  0  0  0  0  0  0  0  0  0  0  0
   57.5074   27.1004   43.3577 H   0  0  0  0  0  0  0  0  0  0  0  0
   57.2236   29.5228   42.8362 H   0  0  0  0  0  0  0  0  0  0  0  0
   56.5391   32.5834   43.4462 H   0  0  0  0  0  0  0  0  0  0  0  0
   58.0997   32.5851   42.5567 H   0  0  0  0  0  0  0  0  0  0  0  0
   57.0675   31.1150   42.5567 H   0  0  0  0  0  0  0  0  0  0  0  0
   57.8880   34.0208   43.9172 H   0  0  0  0  0  0  0  0  0  0  0  0
   58.7779   35.7801   45.4258 H   0  0  0  0  0  0  0  0  0  0  0  0
   59.9358   35.1418   47.4970 H   0  0  0  0  0  0  0  0  0  0  0  0
   60.6780   31.9120   48.8710 H   0  0  0  0  0  0  0  0  0  0  0  0
   61.3472   33.8353   49.9854 H   0  0  0  0  0  0  0  0  0  0  0  0
   60.2582   34.8300   48.9094 H   0  0  0  0  0  0  0  0  0  0  0  0
   59.0497   34.8713   50.7885 H   0  0  0  0  0  0  0  0  0  0  0  0
   58.4289   33.3399   50.0352 H   0  0  0  0  0  0  0  0  0  0  0  0
   60.6307   32.4931   51.5078 H   0  0  0  0  0  0  0  0  0  0  0  0
   59.8793   33.7492   52.5564 H   0  0  0  0  0  0  0  0  0  0  0  0
   57.4953   32.5873   50.3647 H   0  0  0  0  0  0  0  0  0  0  0  0
   55.7023   30.9859   50.9994 H   0  0  0  0  0  0  0  0  0  0  0  0
   55.8811   29.6358   53.0802 H   0  0  0  0  0  0  0  0  0  0  0  0
   57.9106   29.9102   54.5460 H   0  0  0  0  0  0  0  0  0  0  0  0
   59.6617   31.5268   53.8522 H   0  0  0  0  0  0  0  0  0  0  0  0
  1  2  1  0
  2  3  1  0
  3  4  1  0
  4  5  1  0
  5  6  1  0
  6  7  1  0
  7  8  1  0
  8  9  1  0
  9 10  1  0
 10 11  2  0
 11 12  1  0
 12 13  2  0
 13 14  1  0
 14 15  2  0
 15 16  1  0
 16 17  2  0
 17 18  1  0
 17 19  1  0
 19 20  2  0
 20 21  1  0
 21 22  2  0
 22 23  1  0
 23 24  1  0
 24 25  1  0
 25 26  1  0
 26 27  1  0
 27 28  1  0
 28 29  2  0
 29 30  1  0
 30 31  2  0
 31 32  1  0
 32 33  2  0
 23 34  2  0
 34 10  1  0
 16 11  1  0
 34 19  1  0
 33 28  1  0
  1 35  1  0
  1 36  1  0
  1 37  1  0
  2 38  1  0
  2 39  1  0
  3 40  1  0
  4 41  1  0
  4 42  1  0
  5 43  1  0
  5 44  1  0
  6 45  1  0
  7 46  1  0
  7 47  1  0
  8 48  1  0
  8 49  1  0
  9 50  1  0
 12 51  1  0
 13 52  1  0
 14 53  1  0
 15 54  1  0
 18 55  1  0
 18 56  1  0
 18 57  1  0
 20 58  1  0
 21 59  1  0
 22 60  1  0
 24 61  1  0
 25 62  1  0
 25 63  1  0
 26 64  1  0
 26 65  1  0
 27 66  1  0
 27 67  1  0
 29 68  1  0
 30 69  1  0
 31 70  1  0
 32 71  1  0
 33 72  1  0
M  CHG  2  17   1  28   1
M  END
>  <smiles>  (1) 
CCNCCNCCNc1c2ccccc2[n+](C)c2cccc(NCCC[n+]3ccccc3)c12

>  <score_type>  (1) 
oracle

>  <origin>  (1) 
adg

>  <m_score__min__energy>  (1) 
-5.5700000000000003

>  <m_primary>  (1) 
energy

$$$$
1:0
     RDKit          3D

 24 24  0  0  0  0  0  0  0  0999 V2000
   57.4600   32.3240   44.4610 C   0  0  0  0  0  0  0  0  0  0  0  0
   58.3960   31.2190   44.8250 C   0  0  0  0  0  0  0  0  0  0  0  0
   58.2090   29.9970   44.0660 N   0  0  0  0  0  0  0  0  0  0  0  0
   58.0160   28.7270   44.6770 C   0  0  0  0  0  0  0  0  0  0  0  0
   59.0700   27.8630   44.8950 C   0  0  0  0  0  0  0  0  0  0  0  0
   58.8960   26.6490   45.4760 N   0  0  0  0  0  0  0  0  0  0  0  0
   57.7090   26.2170   45.8700 N   0  0  0  0  0  0  0  0  0  0  0  0
   57.4780   24.9420   46.4890 C   0  0  0  0  0  0  0  0  0  0  0  0
   56.6600   27.0280   45.6770 C   0  0  0  0  0  0  0  0  0  0  0  0
   55.4930   26.6670   46.0350 O   0  0  0  0  0  0  0  0  0  0  0  0
   56.7670   28.2790   45.0890 C   0  0  0  0  0  0  0  0  0  0  0  0
   55.6260   29.1130   44.9000 N   0  0  0  0  0  0  0  0  0  0  0  0
   57.0668   32.7883   45.3774 H   0  0  0  0  0  0  0  0  0  0  0  0
   57.9972   33.0794   43.8687 H   0  0  0  0  0  0  0  0  0  0  0  0
   56.6265   31.9184   43.8687 H   0  0  0  0  0  0  0  0  0  0  0  0
   59.4247   31.5719   44.6599 H   0  0  0  0  0  0  0  0  0  0  0  0
   58.1903   30.9686   45.8762 H   0  0  0  0  0  0  0  0  0  0  0  0
   58.2120   30.0160   43.0100 H   0  0  0  0  0  0  0  0  0  0  0  0
   60.0816   28.1676   44.5886 H   0  0  0  0  0  0  0  0  0  0  0  0
   57.4987   25.0563   47.5828 H   0  0  0  0  0  0  0  0  0  0  0  0
   56.4954   24.5566   46.1792 H   0  0  0  0  0  0  0  0  0  0  0  0
   58.2629   24.2364   46.1792 H   0  0  0  0  0  0  0  0  0  0  0  0
   54.7730   28.9730   45.4840 H   0  0  0  0  0  0  0  0  0  0  0  0
   55.7080   29.8440   44.1590 H   0  0  0  0  0  0  0  0  0  0  0  0
  1  2  1  0
  2  3  1  0
  3  4  1  0
  4  5  1  0
  5  6  2  0
  6  7  1  0
  7  8  1  0
  7  9  1  0
  9 10  2  0
  9 11  1  0
 11 12  1  0
 11  4  2  0
  1 13  1  0
  1 14  1  0
  1 15  1  0
  2 16  1  0
  2 17  1  0
  3 18  1  0
  5 19  1  0
  8 20  1  0
  8 21  1  0
  8 22  1  0
 12 23  1  0
 12 24  1  0
M  END
>  <smiles>  (2) 
CCNc1cnn(C)c(=O)c1N

>  <score_type>  (2) 
oracle

>  <origin>  (2) 
adg

>  <m_score__min__energy>  (2) 
-4.8099999999999996

>  <m_primary>  (2) 
energy

$$$$
2:0
     RDKit          3D

 60 62  0  0  0  0  0  0  0  0999 V2000
   57.4400   31.3380   43.7140 C   0  0  0  0  0  0  0  0  0  0  0  0
   57.3800   30.4580   44.9200 C   0  0  0  0  0  0  0  0  0  0  0  0
   58.3070   29.4090   45.0150 N   0  0  0  0  0  0  0  0  0  0  0  0
   59.6830   29.7270   45.1350 C   0  0  0  0  0  0  0  0  0  0  0  0
   60.0930   29.6420   46.5930 C   0  0  0  0  0  0  0  0  0  0  0  0
   59.9490   28.2740   47.0030 N   0  0  0  0  0  0  0  0  0  0  0  0
   60.3940   28.0080   48.3380 C   0  0  0  0  0  0  0  0  0  0  0  0
   60.1710   29.1270   49.2900 C   0  0  0  0  0  0  0  0  0  0  0  0
   61.1180   29.7340   49.8520 O   0  0  0  0  0  0  0  0  0  0  0  0
   58.8170   29.4910   49.5470 N   0  0  0  0  0  0  0  0  0  0  0  0
   58.4800   30.5520   50.4430 C   0  0  0  0  0  0  0  0  0  0  0  0
   58.4290   31.9020   49.8020 C   0  0  0  0  0  0  0  0  0  0  0  0
   59.5930   32.1610   48.9680 N   0  0  0  0  0  0  0  0  0  0  0  0
   59.4350   32.9660   47.8110 C   0  0  0  0  0  0  0  0  0  0  0  0
   58.1980   33.1350   47.2380 C   0  0  0  0  0  0  0  0  0  0  0  0
   57.9650   33.8900   46.1090 C   0  0  0  0  0  0  0  0  0  0  0  0
   59.0550   34.5070   45.5330 C   0  0  0  0  0  0  0  0  0  0  0  0
   60.3100   34.3550   46.0880 C   0  0  0  0  0  0  0  0  0  0  0  0
   60.5190   33.5830   47.2360 C   0  0  0  0  0  0  0  0  0  0  0  0
   61.8430   33.5100   47.7180 N   0  0  0  0  0  0  0  0  0  0  0  0
   62.9100   32.7550   47.0860 C   0  0  0  0  0  0  0  0  0  0  0  0
   63.7230   32.1090   48.2250 C   0  0  0  0  0  0  0  0  0  0  0  0
   62.9510   31.9780   49.3510 O   0  0  0  0  0  0  0  0  0  0  0  0
   62.5630   33.1450   49.9570 C   0  0  0  0  0  0  0  0  0  0  0  0
   62.2290   34.2250   48.9490 C   0  0  0  0  0  0  0  0  0  0  0  0
   58.5780   27.8070   46.8850 C   0  0  0  0  0  0  0  0  0  0  0  0
   57.9270   28.1840   45.6000 C   0  0  0  0  0  0  0  0  0  0  0  0
   57.5117   32.3891   44.0303 H   0  0  0  0  0  0  0  0  0  0  0  0
   58.3223   31.0753   43.1119 H   0  0  0  0  0  0  0  0  0  0  0  0
   56.5302   31.1975   43.1119 H   0  0  0  0  0  0  0  0  0  0  0  0
   57.5212   31.1006   45.8015 H   0  0  0  0  0  0  0  0  0  0  0  0
   56.4035   29.9569   44.8470 H   0  0  0  0  0  0  0  0  0  0  0  0
   60.2775   29.0146   44.5442 H   0  0  0  0  0  0  0  0  0  0  0  0
   59.8589   30.7468   44.7621 H   0  0  0  0  0  0  0  0  0  0  0  0
   61.1397   29.9603   46.7079 H   0  0  0  0  0  0  0  0  0  0  0  0
   59.4642   30.2998   47.2111 H   0  0  0  0  0  0  0  0  0  0  0  0
   59.8549   27.1249   48.7116 H   0  0  0  0  0  0  0  0  0  0  0  0
   61.4816   27.8525   48.2830 H   0  0  0  0  0  0  0  0  0  0  0  0
   58.0330   28.9630   49.0600 H   0  0  0  0  0  0  0  0  0  0  0  0
   57.4915   30.3377   50.8753 H   0  0  0  0  0  0  0  0  0  0  0  0
   59.2767   30.5914   51.2005 H   0  0  0  0  0  0  0  0  0  0  0  0
   57.5255   31.9633   49.1775 H   0  0  0  0  0  0  0  0  0  0  0  0
   58.4147   32.6551   50.6036 H   0  0  0  0  0  0  0  0  0  0  0  0
   60.4840   31.7290   49.2760 H   0  0  0  0  0  0  0  0  0  0  0  0
   57.3390   32.6360   47.7103 H   0  0  0  0  0  0  0  0  0  0  0  0
   56.9549   33.9956   45.6865 H   0  0  0  0  0  0  0  0  0  0  0  0
   58.9246   35.1213   44.6299 H   0  0  0  0  0  0  0  0  0  0  0  0
   61.1685   34.8542   45.6150 H   0  0  0  0  0  0  0  0  0  0  0  0
   62.4892   31.9777   46.4312 H   0  0  0  0  0  0  0  0  0  0  0  0
   63.5432   33.4052   46.4645 H   0  0  0  0  0  0  0  0  0  0  0  0
   64.0680   31.1148   47.9048 H   0  0  0  0  0  0  0  0  0  0  0  0
   64.5845   32.7525   48.4569 H   0  0  0  0  0  0  0  0  0  0  0  0
   61.6732   32.9465   50.5726 H   0  0  0  0  0  0  0  0  0  0  0  0
   63.4015   33.5029   50.5725 H   0  0  0  0  0  0  0  0  0  0  0  0
   61.3952   34.8443   49.3113 H   0  0  0  0  0  0  0  0  0  0  0  0
   63.0799   34.9009   48.7783 H   0  0  0  0  0  0  0  0  0  0  0  0
   58.5763   26.7100   46.9667 H   0  0  0  0  0  0  0  0  0  0  0  0
   58.0035   28.2881   47.6903 H   0  0  0  0  0  0  0  0  0  0  0  0
   58.1474   27.3887   44.8727 H   0  0  0  0  0  0  0  0  0  0  0  0
   56.8632   28.3097   45.8500 H   0  0  0  0  0  0  0  0  0  0  0  0
  1  2  1  0
  2  3  1  0
  3  4  1  0
  4  5  1  0
  5  6  1  0
  6  7  1  0
  7  8  1  0
  8  9  2  0
  8 10  1  0
 10 11  1  0
 11 12  1  0
 12 13  1  0
 13 14  1  0
 14 15  2  0
 15 16  1  0
 16 17  2  0
 17 18  1  0
 18 19  2  0
 19 20  1  0
 20 21  1  0
 21 22  1  0
 22 23  1  0
 23 24  1  0
 24 25  1  0
  6 26  1  0
 26 27  1  0
 27  3  1  0
 19 14  1  0
 25 20  1  0
  1 28  1  0
  1 29  1  0
  1 30  1  0
  2 31  1  0
  2 32  1  0
  4 33  1  0
  4 34  1  0
  5 35  1  0
  5 36  1  0
  7 37  1  0
  7 38  1  0
 10 39  1  0
 11 40  1  0
 11 41  1  0
 12 42  1  0
 12 43  1  0
 13 44  1  0
 15 45  1  0
 16 46  1  0
 17 47  1  0
 18 48  1  0
 21 49  1  0
 21 50  1  0
 22 51  1  0
 22 52  1  0
 24 53  1  0
 24 54  1  0
 25 55  1  0
 25 56  1  0
 26 57  1  0
 26 58  1  0
 27 59  1  0
 27 60  1  0
M  END
>  <smiles>  (3) 
CCN1CCN(CC(=O)NCCNc2ccccc2N2CCOCC2)CC1

>  <score_type>  (3) 
oracle

>  <origin>  (3) 
adg

>  <m_score__min__energy>  (3) 
-8.0800000000000001

>  <m_primary>  (3) 
energy

$$$$
3:0
     RDKit          3D

 48 50  0  0  0  0  0  0  0  0999 V2000
   57.7980   21.4140   45.8220 C   0  0  0  0  0  0  0  0  0  0  0  0
   56.9030   20.8170   44.7860 C   0  0  0  0  0  0  0  0  0  0  0  0
   57.2910   21.2960   43.3730 C   0  0  0  0  0  0  0  0  0  0  0  0
   56.1940   21.9370   42.8000 N   0  0  0  0  0  0  0  0  0  0  0  0
   55.9030   23.2910   42.9860 C   0  0  0  0  0  0  0  0  0  0  0  0
   56.4090   24.0320   44.1690 C   0  0  0  0  0  0  0  0  0  0  0  0
   55.4160   24.2130   45.2660 C   0  0  0  0  0  0  0  0  0  0  0  0
   55.5170   25.4390   45.9590 O   0  0  0  0  0  0  0  0  0  0  0  0
   56.6290   26.0930   46.3700 C   0  0  0  0  0  0  0  0  0  0  0  0
   57.6890   25.5950   47.0780 C   0  0  0  0  0  0  0  0  0  0  0  0
   58.7880   26.3780   47.4510 C   0  0  0  0  0  0  0  0  0  0  0  0
   58.8400   27.7110   47.1080 C   0  0  0  0  0  0  0  0  0  0  0  0
   59.9320   28.4570   47.4880 C   0  0  0  0  0  0  0  0  0  0  0  0
   60.8800   27.9640   48.1360 O   0  0  0  0  0  0  0  0  0  0  0  0
   59.9210   29.7950   47.1090 C   0  0  0  0  0  0  0  0  0  0  0  0
   58.8490   30.2860   46.3950 C   0  0  0  0  0  0  0  0  0  0  0  0
   58.7700   31.6780   45.9640 C   0  0  0  0  0  0  0  0  0  0  0  0
   57.8820   32.0230   44.9700 C   0  0  0  0  0  0  0  0  0  0  0  0
   57.7300   33.3070   44.4910 C   0  0  0  0  0  0  0  0  0  0  0  0
   58.5090   34.3160   45.0340 C   0  0  0  0  0  0  0  0  0  0  0  0
   59.3950   33.9650   46.0290 C   0  0  0  0  0  0  0  0  0  0  0  0
   59.5450   32.6830   46.5050 C   0  0  0  0  0  0  0  0  0  0  0  0
   57.8470   29.5030   46.0740 O   0  0  0  0  0  0  0  0  0  0  0  0
   57.7850   28.2330   46.3950 C   0  0  0  0  0  0  0  0  0  0  0  0
   56.7100   27.4570   46.0330 C   0  0  0  0  0  0  0  0  0  0  0  0
   57.4193   21.1614   46.8234 H   0  0  0  0  0  0  0  0  0  0  0  0
   58.8153   21.0130   45.7028 H   0  0  0  0  0  0  0  0  0  0  0  0
   57.8186   22.5073   45.7028 H   0  0  0  0  0  0  0  0  0  0  0  0
   56.9854   19.7209   44.8288 H   0  0  0  0  0  0  0  0  0  0  0  0
   55.8705   21.1360   44.9912 H   0  0  0  0  0  0  0  0  0  0  0  0
   58.1360   21.9971   43.4392 H   0  0  0  0  0  0  0  0  0  0  0  0
   57.5869   20.4358   42.7544 H   0  0  0  0  0  0  0  0  0  0  0  0
   55.5080   21.3740   42.2640 H   0  0  0  0  0  0  0  0  0  0  0  0
   56.2888   23.8171   42.1004 H   0  0  0  0  0  0  0  0  0  0  0  0
   54.8164   23.2809   43.1568 H   0  0  0  0  0  0  0  0  0  0  0  0
   57.2704   23.4813   44.5748 H   0  0  0  0  0  0  0  0  0  0  0  0
   56.6662   25.0412   43.8150 H   0  0  0  0  0  0  0  0  0  0  0  0
   54.4083   24.1484   44.8297 H   0  0  0  0  0  0  0  0  0  0  0  0
   55.6209   23.4226   46.0031 H   0  0  0  0  0  0  0  0  0  0  0  0
   57.6770   24.5336   47.3665 H   0  0  0  0  0  0  0  0  0  0  0  0
   59.6137   25.9266   48.0206 H   0  0  0  0  0  0  0  0  0  0  0  0
   60.7594   30.4550   47.3763 H   0  0  0  0  0  0  0  0  0  0  0  0
   57.2583   31.2292   44.5331 H   0  0  0  0  0  0  0  0  0  0  0  0
   57.0046   33.5260   43.6936 H   0  0  0  0  0  0  0  0  0  0  0  0
   58.4235   35.3556   44.6847 H   0  0  0  0  0  0  0  0  0  0  0  0
   60.0194   34.7567   46.4688 H   0  0  0  0  0  0  0  0  0  0  0  0
   60.2699   32.4632   47.3027 H   0  0  0  0  0  0  0  0  0  0  0  0
   55.8886   27.9156   45.4630 H   0  0  0  0  0  0  0  0  0  0  0  0
  1  2  1  0
  2  3  1  0
  3  4  1  0
  4  5  1  0
  5  6  1  0
  6  7  1  0
  7  8  1  0
  8  9  1  0
  9 10  2  0
 10 11  1  0
 11 12  2  0
 12 13  1  0
 13 14  2  0
 13 15  1  0
 15 16  2  0
 16 17  1  0
 17 18  2  0
 18 19  1  0
 19 20  2  0
 20 21  1  0
 21 22  2  0
 16 23  1  0
 23 24  1  0
 24 25  2  0
 25  9  1  0
 24 12  1  0
 22 17  1  0
  1 26  1  0
  1 27  1  0
  1 28  1  0
  2 29  1  0
  2 30  1  0
  3 31  1  0
  3 32  1  0
  4 33  1  0
  5 34  1  0
  5 35  1  0
  6 36  1  0
  6 37  1  0
  7 38  1  0
  7 39  1  0
 10 40  1  0
 11 41  1  0
 15 42  1  0
 18 43  1  0
 19 44  1  0
 20 45  1  0
 21 46  1  0
 22 47  1  0
 25 48  1  0
M  END
>  <smiles>  (4) 
CCCNCCCOc1ccc2c(=O)cc(-c3ccccc3)oc2c1

>  <score_type>  (4) 
oracle

>  <origin>  (4) 
adg

>  <m_score__min__energy>  (4) 
-7.8499999999999996

>  <m_primary>  (4) 
energy

$$$$
4:0
     RDKit          3D

 45 46  0  0  0  0  0  0  0  0999 V2000
   57.0280   31.0730   43.1400 C   0  0  0  0  0  0  0  0  0  0  0  0
   56.3840   29.8120   43.6660 C   0  0  0  0  0  0  0  0  0  0  0  0
   56.2460   29.8310   45.0460 O   0  0  0  0  0  0  0  0  0  0  0  0
   57.1180   28.9580   45.6400 N   0  0  0  0  0  0  0  0  0  0  0  0
   56.9430   27.5260   45.5870 C   0  0  0  0  0  0  0  0  0  0  0  0
   58.2220   29.5320   46.3250 C   0  0  0  0  0  0  0  0  0  0  0  0
   58.6110   29.1380   47.5950 C   0  0  0  0  0  0  0  0  0  0  0  0
   59.6840   29.6950   48.2580 C   0  0  0  0  0  0  0  0  0  0  0  0
   60.4040   30.6920   47.6330 C   0  0  0  0  0  0  0  0  0  0  0  0
   61.5590   31.2810   48.3710 C   0  0  0  0  0  0  0  0  0  0  0  0
   61.1090   32.3360   49.2760 N   0  0  0  0  0  0  0  0  0  0  0  0
   61.0000   33.5330   48.4950 C   0  0  0  0  0  0  0  0  0  0  0  0
   59.6340   34.1890   48.6390 C   0  0  0  0  0  0  0  0  0  0  0  0
   59.0050   34.1350   47.2910 C   0  0  0  0  0  0  0  0  0  0  0  0
   59.6040   34.6960   46.1870 C   0  0  0  0  0  0  0  0  0  0  0  0
   58.9430   34.5960   44.9750 C   0  0  0  0  0  0  0  0  0  0  0  0
   57.7200   33.9560   44.8650 C   0  0  0  0  0  0  0  0  0  0  0  0
   57.1290   33.3950   45.9810 C   0  0  0  0  0  0  0  0  0  0  0  0
   57.7710   33.4800   47.2170 C   0  0  0  0  0  0  0  0  0  0  0  0
   60.0530   31.1230   46.3570 C   0  0  0  0  0  0  0  0  0  0  0  0
   58.9590   30.5250   45.7300 C   0  0  0  0  0  0  0  0  0  0  0  0
   57.3486   31.7007   43.9845 H   0  0  0  0  0  0  0  0  0  0  0  0
   57.9021   30.8098   42.5262 H   0  0  0  0  0  0  0  0  0  0  0  0
   56.3023   31.6268   42.5262 H   0  0  0  0  0  0  0  0  0  0  0  0
   55.3877   29.7069   43.2117 H   0  0  0  0  0  0  0  0  0  0  0  0
   57.0350   28.9652   43.4032 H   0  0  0  0  0  0  0  0  0  0  0  0
   56.8939   27.1245   46.6099 H   0  0  0  0  0  0  0  0  0  0  0  0
   56.0093   27.2901   45.0553 H   0  0  0  0  0  0  0  0  0  0  0  0
   57.7924   27.0722   45.0553 H   0  0  0  0  0  0  0  0  0  0  0  0
   58.0378   28.3448   48.0972 H   0  0  0  0  0  0  0  0  0  0  0  0
   59.9605   29.3511   49.2656 H   0  0  0  0  0  0  0  0  0  0  0  0
   62.0551   30.4916   48.9548 H   0  0  0  0  0  0  0  0  0  0  0  0
   62.2603   31.7146   47.6428 H   0  0  0  0  0  0  0  0  0  0  0  0
   60.1470   32.0610   49.5920 H   0  0  0  0  0  0  0  0  0  0  0  0
   61.7714   34.2439   48.8261 H   0  0  0  0  0  0  0  0  0  0  0  0
   61.1350   33.2608   47.4378 H   0  0  0  0  0  0  0  0  0  0  0  0
   59.0214   33.6387   49.3683 H   0  0  0  0  0  0  0  0  0  0  0  0
   59.7219   35.2244   48.9999 H   0  0  0  0  0  0  0  0  0  0  0  0
   60.5752   35.2067   46.2647 H   0  0  0  0  0  0  0  0  0  0  0  0
   59.4007   35.0360   44.0767 H   0  0  0  0  0  0  0  0  0  0  0  0
   57.2183   33.8941   43.8880 H   0  0  0  0  0  0  0  0  0  0  0  0
   56.1584   32.8845   45.8955 H   0  0  0  0  0  0  0  0  0  0  0  0
   57.3153   33.0402   48.1164 H   0  0  0  0  0  0  0  0  0  0  0  0
   60.6248   31.9169   45.8542 H   0  0  0  0  0  0  0  0  0  0  0  0
   58.6770   30.8621   44.7216 H   0  0  0  0  0  0  0  0  0  0  0  0
  1  2  1  0
  2  3  1  0
  3  4  1  0
  4  5  1  0
  4  6  1  0
  6  7  2  0
  7  8  1  0
  8  9  2  0
  9 10  1  0
 10 11  1  0
 11 12  1  0
 12 13  1  0
 13 14  1  0
 14 15  2  0
 15 16  1  0
 16 17  2  0
 17 18  1  0
 18 19  2  0
  9 20  1  0
 20 21  2  0
 21  6  1  0
 19 14  1  0
  1 22  1  0
  1 23  1  0
  1 24  1  0
  2 25  1  0
  2 26  1  0
  5 27  1  0
  5 28  1  0
  5 29  1  0
  7 30  1  0
  8 31  1  0
 10 32  1  0
 10 33  1  0
 11 34  1  0
 12 35  1  0
 12 36  1  0
 13 37  1  0
 13 38  1  0
 15 39  1  0
 16 40  1  0
 17 41  1  0
 18 42  1  0
 19 43  1  0
 20 44  1  0
 21 45  1  0
M  END
>  <smiles>  (5) 
CCON(C)c1ccc(CNCCc2ccccc2)cc1

>  <score_type>  (5) 
oracle

>  <origin>  (5) 
adg

>  <m_score__min__energy>  (5) 
-6.4800000000000004

>  <m_primary>  (5) 
energy

$$$$
5:0
     RDKit          3D

 47 50  0  0  1  0  0  0  0  0999 V2000
   59.6060   29.4500   44.5200 C   0  0  0  0  0  0  0  0  0  0  0  0
   58.1770   29.5350   44.6760 N   0  0  0  0  0  0  0  0  0  0  0  0
   57.4450   30.3620   43.9130 N   0  0  0  0  0  0  0  0  0  0  0  0
   56.2190   30.2200   44.3020 N   0  0  0  0  0  0  0  0  0  0  0  0
   56.1330   29.3550   45.2610 N   0  0  0  0  0  0  0  0  0  0  0  0
   57.4010   28.8780   45.5380 C   0  0  0  0  0  0  0  0  0  0  0  0
   57.6680   27.6710   46.7710 S   0  0  0  0  0  0  0  0  0  0  0  0
   59.1740   26.7820   46.8150 C   0  0  0  0  0  0  0  0  0  0  0  0
   60.0500   26.8690   47.9900 C   0  0  0  0  0  0  0  0  0  0  0  0
   60.1370   28.0980   48.7960 C   0  0  0  0  0  0  0  0  0  0  0  0
   59.7480   29.3510   48.2620 N   0  0  0  0  0  0  0  0  0  0  0  0
   58.9810   30.1670   49.0590 C   0  0  0  0  0  0  0  0  0  0  0  0
   59.4890   31.6140   49.2710 C   0  0  0  0  0  0  0  0  0  0  0  0
   60.2610   31.9930   48.0860 C   0  0  1  0  0  0  0  0  0  0  0  0
   59.5740   32.8040   47.1540 C   0  0  0  0  0  0  0  0  0  0  0  0
   60.0040   34.0310   46.6930 C   0  0  0  0  0  0  0  0  0  0  0  0
   59.2850   34.7910   45.7820 C   0  0  0  0  0  0  0  0  0  0  0  0
   58.1090   34.2890   45.3330 C   0  0  0  0  0  0  0  0  0  0  0  0
   57.6170   33.0920   45.7340 C   0  0  0  0  0  0  0  0  0  0  0  0
   56.3940   32.5730   45.2660 O   0  0  0  0  0  0  0  0  0  0  0  0
   58.3380   32.3520   46.6360 C   0  0  0  0  0  0  0  0  0  0  0  0
   61.6910   32.3510   47.9950 C   0  0  0  0  0  0  0  0  0  0  0  0
   61.3430   31.0120   48.1070 C   0  0  2  0  0  0  0  0  0  0  0  0
   60.7820   29.8840   47.4040 C   0  0  0  0  0  0  0  0  0  0  0  0
   60.0820   29.4217   45.5113 H   0  0  0  0  0  0  0  0  0  0  0  0
   59.8605   28.5351   43.9648 H   0  0  0  0  0  0  0  0  0  0  0  0
   59.9671   30.3283   43.9648 H   0  0  0  0  0  0  0  0  0  0  0  0
   58.9181   25.7196   46.6892 H   0  0  0  0  0  0  0  0  0  0  0  0
   59.7696   27.2595   46.0230 H   0  0  0  0  0  0  0  0  0  0  0  0
   59.7298   26.0705   48.6755 H   0  0  0  0  0  0  0  0  0  0  0  0
   61.0528   26.8090   47.5419 H   0  0  0  0  0  0  0  0  0  0  0  0
   59.5148   27.9316   49.6877 H   0  0  0  0  0  0  0  0  0  0  0  0
   61.2215   28.2203   48.9332 H   0  0  0  0  0  0  0  0  0  0  0  0
   57.9803   30.2287   48.6065 H   0  0  0  0  0  0  0  0  0  0  0  0
   59.0086   29.7035   50.0562 H   0  0  0  0  0  0  0  0  0  0  0  0
   58.6352   32.2963   49.3959 H   0  0  0  0  0  0  0  0  0  0  0  0
   60.1146   31.6743   50.1738 H   0  0  0  0  0  0  0  0  0  0  0  0
   60.9613   34.4250   47.0650 H   0  0  0  0  0  0  0  0  0  0  0  0
   59.6564   35.7669   45.4362 H   0  0  0  0  0  0  0  0  0  0  0  0
   57.5275   34.8802   44.6102 H   0  0  0  0  0  0  0  0  0  0  0  0
   56.2410   31.5690   45.2580 H   0  0  0  0  0  0  0  0  0  0  0  0
   57.9438   31.3795   46.9659 H   0  0  0  0  0  0  0  0  0  0  0  0
   62.0999   32.7321   47.0476 H   0  0  0  0  0  0  0  0  0  0  0  0
   62.3541   33.0246   48.5577 H   0  0  0  0  0  0  0  0  0  0  0  0
   62.0554   30.3194   48.5790 H   0  0  0  0  0  0  0  0  0  0  0  0
   60.3527   30.2074   46.4443 H   0  0  0  0  0  0  0  0  0  0  0  0
   61.5488   29.1275   47.1811 H   0  0  0  0  0  0  0  0  0  0  0  0
  1  2  1  0
  2  3  1  0
  3  4  2  0
  4  5  1  0
  5  6  2  0
  6  7  1  0
  7  8  1  0
  8  9  1  0
  9 10  1  0
 10 11  1  0
 11 12  1  0
 12 13  1  0
 13 14  1  0
 14 15  1  6
 15 16  2  0
 16 17  1  0
 17 18  2  0
 18 19  1  0
 19 20  1  0
 19 21  2  0
 14 22  1  0
 22 23  1  0
 23 24  1  0
  6  2  1  0
 24 11  1  0
 23 14  1  0
 21 15  1  0
  1 25  1  0
  1 26  1  0
  1 27  1  0
  8 28  1  0
  8 29  1  0
  9 30  1  0
  9 31  1  0
 10 32  1  0
 10 33  1  0
 12 34  1  0
 12 35  1  0
 13 36  1  0
 13 37  1  0
 16 38  1  0
 17 39  1  0
 18 40  1  0
 20 41  1  0
 21 42  1  0
 22 43  1  0
 22 44  1  0
 23 45  1  1
 24 46  1  0
 24 47  1  0
M  END
>  <smiles>  (6) 
Cn1nnnc1SCCCN1CCC2(c3cccc(O)c3)CC2C1

>  <score_type>  (6) 
oracle

>  <origin>  (6) 
adg

>  <m_score__min__energy>  (6) 
-10.199999999999999

>  <m_primary>  (6) 
energy

$$$$
6:0
     RDKit          3D

 33 33  0  0  0  0  0  0  0  0999 V2000
   60.6880   30.1080   46.5820 C   0  0  0  0  0  0  0  0  0  0  0  0
   59.4620   29.7820   45.8670 C   0  0  0  0  0  0  0  0  0  0  0  0
   58.4570   29.5170   45.2570 C   0  0  0  0  0  0  0  0  0  0  0  0
   57.2160   29.1710   44.5220 C   0  0  0  0  0  0  0  0  0  0  0  0
   56.5630   30.4220   43.9880 C   0  0  0  0  0  0  0  0  0  0  0  0
   56.6470   31.5580   44.8790 N   0  0  0  0  0  0  0  0  0  0  0  0
   57.5050   32.5460   44.3210 C   0  0  0  0  0  0  0  0  0  0  0  0
   58.3980   33.2420   45.3200 C   0  0  0  0  0  0  0  0  0  0  0  0
   58.8870   34.5840   44.8860 C   0  0  0  0  0  0  0  0  0  0  0  0
   59.8380   35.0910   45.9500 C   0  0  0  0  0  0  0  0  0  0  0  0
   59.3020   35.0670   47.2740 N   0  0  0  0  0  0  0  0  0  0  0  0
   58.7000   33.8190   47.6410 C   0  0  0  0  0  0  0  0  0  0  0  0
   57.6370   33.4450   46.6210 C   0  0  0  0  0  0  0  0  0  0  0  0
   60.5046   30.0592   47.6655 H   0  0  0  0  0  0  0  0  0  0  0  0
   61.4736   29.3875   46.3103 H   0  0  0  0  0  0  0  0  0  0  0  0
   61.0120   31.1235   46.3103 H   0  0  0  0  0  0  0  0  0  0  0  0
   57.4640   28.5038   43.6833 H   0  0  0  0  0  0  0  0  0  0  0  0
   56.5200   28.6669   45.2086 H   0  0  0  0  0  0  0  0  0  0  0  0
   57.0525   30.6896   43.0400 H   0  0  0  0  0  0  0  0  0  0  0  0
   55.4940   30.1940   43.8644 H   0  0  0  0  0  0  0  0  0  0  0  0
   57.0260   31.2120   45.7900 H   0  0  0  0  0  0  0  0  0  0  0  0
   58.1447   32.0597   43.5698 H   0  0  0  0  0  0  0  0  0  0  0  0
   56.8511   33.3213   43.8953 H   0  0  0  0  0  0  0  0  0  0  0  0
   59.2744   32.5866   45.4311 H   0  0  0  0  0  0  0  0  0  0  0  0
   59.4123   34.4985   43.9233 H   0  0  0  0  0  0  0  0  0  0  0  0
   58.0443   35.2794   44.7580 H   0  0  0  0  0  0  0  0  0  0  0  0
   60.7416   34.4639   45.9322 H   0  0  0  0  0  0  0  0  0  0  0  0
   60.0458   36.1447   45.7121 H   0  0  0  0  0  0  0  0  0  0  0  0
   58.7520   35.9040   47.5330 H   0  0  0  0  0  0  0  0  0  0  0  0
   59.4713   33.0352   47.6699 H   0  0  0  0  0  0  0  0  0  0  0  0
   58.2354   33.9159   48.6334 H   0  0  0  0  0  0  0  0  0  0  0  0
   57.1243   32.5183   46.9182 H   0  0  0  0  0  0  0  0  0  0  0  0
   56.8598   34.2181   46.5301 H   0  0  0  0  0  0  0  0  0  0  0  0
  1  2  1  0
  2  3  3  0
  3  4  1  0
  4  5  1  0
  5  6  1  0
  6  7  1  0
  7  8  1  0
  8  9  1  0
  9 10  1  0
 10 11  1  0
 11 12  1  0
 12 13  1  0
 13  8  1  0
  1 14  1  0
  1 15  1  0
  1 16  1  0
  4 17  1  0
  4 18  1  0
  5 19  1  0
  5 20  1  0
  6 21  1  0
  7 22  1  0
  7 23  1  0
  8 24  1  0
  9 25  1  0
  9 26  1  0
 10 27  1  0
 10 28  1  0
 11 29  1  0
 12 30  1  0
 12 31  1  0
 13 32  1  0
 13 33  1  0
M  END
>  <smiles>  (7) 
CC#CCCNCC1CCNCC1

>  <score_type>  (7) 
oracle

>  <origin>  (7) 
adg

>  <m_score__min__energy>  (7) 
-5.1299999999999999

>  <m_primary>  (7) 
energy

$$$$
7:0
     RDKit          3D

 87 89  0  0  0  0  0  0  0  0999 V2000
   63.6510   33.1090   46.7950 C   0  0  0  0  0  0  0  0  0  0  0  0
   62.6650   31.9900   47.1250 C   0  0  0  0  0  0  0  0  0  0  0  0
   61.3450   32.4850   47.3790 N   0  0  0  0  0  0  0  0  0  0  0  0
   61.0590   33.7800   46.8520 C   0  0  0  0  0  0  0  0  0  0  0  0
   60.3090   31.5360   47.2610 C   0  0  0  0  0  0  0  0  0  0  0  0
   59.0060   31.8320   47.9240 C   0  0  0  0  0  0  0  0  0  0  0  0
   58.3270   32.8730   47.6280 O   0  0  0  0  0  0  0  0  0  0  0  0
   57.7230   33.5190   46.7000 C   0  0  0  0  0  0  0  0  0  0  0  0
   57.5640   32.9510   45.2970 C   0  0  0  0  0  0  0  0  0  0  0  0
   56.6360   31.9530   45.2370 O   0  0  0  0  0  0  0  0  0  0  0  0
   56.8130   30.9940   44.3550 N   0  0  0  0  0  0  0  0  0  0  0  0
   55.7660   30.0950   44.1150 C   0  0  0  0  0  0  0  0  0  0  0  0
   58.1180   30.7450   43.9230 C   0  0  0  0  0  0  0  0  0  0  0  0
   59.0420   29.9540   44.7670 C   0  0  0  0  0  0  0  0  0  0  0  0
   58.7410   28.6670   45.2040 N   0  0  0  0  0  0  0  0  0  0  0  0
   58.0200   27.7570   44.4130 C   0  0  0  0  0  0  0  0  0  0  0  0
   58.2790   28.6620   46.5600 C   0  0  0  0  0  0  0  0  0  0  0  0
   58.4930   27.3540   47.2880 C   0  0  0  0  0  0  0  0  0  0  0  0
   59.9360   26.9600   47.0660 C   0  0  0  0  0  0  0  0  0  0  0  0
   60.7450   26.9520   48.2400 N   0  0  0  0  0  0  0  0  0  0  0  0
   60.5750   28.1230   49.0850 C   0  0  0  0  0  0  0  0  0  0  0  0
   60.8710   27.6830   50.4890 C   0  0  0  0  0  0  0  0  0  0  0  0
   61.3000   28.7940   51.2980 N   0  0  0  0  0  0  0  0  0  0  0  0
   60.8440   30.1210   51.1660 C   0  0  0  0  0  0  0  0  0  0  0  0
   61.7780   31.0930   50.7850 C   0  0  0  0  0  0  0  0  0  0  0  0
   63.0850   30.7020   50.5680 C   0  0  0  0  0  0  0  0  0  0  0  0
   64.0600   31.6220   50.1900 C   0  0  0  0  0  0  0  0  0  0  0  0
   63.6540   32.9250   50.0460 C   0  0  0  0  0  0  0  0  0  0  0  0
   62.3370   33.3110   50.2660 C   0  0  0  0  0  0  0  0  0  0  0  0
   61.3730   32.4070   50.6400 C   0  0  0  0  0  0  0  0  0  0  0  0
   60.1310   32.8380   50.8390 N   0  0  0  0  0  0  0  0  0  0  0  0
   59.6540   34.1730   50.7040 C   0  0  0  0  0  0  0  0  0  0  0  0
   59.2090   31.8970   51.2150 C   0  0  0  0  0  0  0  0  0  0  0  0
   57.8900   32.2880   51.4590 C   0  0  0  0  0  0  0  0  0  0  0  0
   56.9190   31.3960   51.8570 C   0  0  0  0  0  0  0  0  0  0  0  0
   57.3110   30.0810   52.0060 C   0  0  0  0  0  0  0  0  0  0  0  0
   58.6070   29.6800   51.7700 C   0  0  0  0  0  0  0  0  0  0  0  0
   59.5680   30.5640   51.3740 C   0  0  0  0  0  0  0  0  0  0  0  0
   64.0358   33.5457   47.7284 H   0  0  0  0  0  0  0  0  0  0  0  0
   64.4875   32.6998   46.2095 H   0  0  0  0  0  0  0  0  0  0  0  0
   63.1398   33.8873   46.2095 H   0  0  0  0  0  0  0  0  0  0  0  0
   62.6238   31.2930   46.2750 H   0  0  0  0  0  0  0  0  0  0  0  0
   63.0180   31.4895   48.0387 H   0  0  0  0  0  0  0  0  0  0  0  0
   60.9029   34.4867   47.6804 H   0  0  0  0  0  0  0  0  0  0  0  0
   61.9038   34.1194   46.2347 H   0  0  0  0  0  0  0  0  0  0  0  0
   60.1498   33.7321   46.2347 H   0  0  0  0  0  0  0  0  0  0  0  0
   60.1069   31.4048   46.1877 H   0  0  0  0  0  0  0  0  0  0  0  0
   60.6892   30.6489   47.7888 H   0  0  0  0  0  0  0  0  0  0  0  0
   58.3535   30.9691   47.7248 H   0  0  0  0  0  0  0  0  0  0  0  0
   59.3098   32.0354   48.9614 H   0  0  0  0  0  0  0  0  0  0  0  0
   56.7059   33.7131   47.0712 H   0  0  0  0  0  0  0  0  0  0  0  0
   58.4001   34.3692   46.5307 H   0  0  0  0  0  0  0  0  0  0  0  0
   57.2534   33.7619   44.6218 H   0  0  0  0  0  0  0  0  0  0  0  0
   58.5327   32.5234   44.9990 H   0  0  0  0  0  0  0  0  0  0  0  0
   55.3571   29.7439   45.0739 H   0  0  0  0  0  0  0  0  0  0  0  0
   54.9742   30.5990   43.5413 H   0  0  0  0  0  0  0  0  0  0  0  0
   56.1444   29.2361   43.5413 H   0  0  0  0  0  0  0  0  0  0  0  0
   58.0382   30.2181   42.9607 H   0  0  0  0  0  0  0  0  0  0  0  0
   58.5762   31.7450   43.9176 H   0  0  0  0  0  0  0  0  0  0  0  0
   59.9800   29.8717   44.1984 H   0  0  0  0  0  0  0  0  0  0  0  0
   59.0269   30.5209   45.7095 H   0  0  0  0  0  0  0  0  0  0  0  0
   57.4692   27.0618   45.0636 H   0  0  0  0  0  0  0  0  0  0  0  0
   57.3092   28.3061   43.7780 H   0  0  0  0  0  0  0  0  0  0  0  0
   58.7171   27.1906   43.7780 H   0  0  0  0  0  0  0  0  0  0  0  0
   58.8128   29.4522   47.1083 H   0  0  0  0  0  0  0  0  0  0  0  0
   57.1919   28.8259   46.5219 H   0  0  0  0  0  0  0  0  0  0  0  0
   58.2968   27.4825   48.3627 H   0  0  0  0  0  0  0  0  0  0  0  0
   57.8102   26.5776   46.9126 H   0  0  0  0  0  0  0  0  0  0  0  0
   59.9511   25.9485   46.6341 H   0  0  0  0  0  0  0  0  0  0  0  0
   60.3651   27.7245   46.4017 H   0  0  0  0  0  0  0  0  0  0  0  0
   61.7420   26.7850   48.0570 H   0  0  0  0  0  0  0  0  0  0  0  0
   61.2737   28.9161   48.7802 H   0  0  0  0  0  0  0  0  0  0  0  0
   59.5558   28.5284   49.0021 H   0  0  0  0  0  0  0  0  0  0  0  0
   59.9616   27.2476   50.9289 H   0  0  0  0  0  0  0  0  0  0  0  0
   61.6796   26.9378   50.4597 H   0  0  0  0  0  0  0  0  0  0  0  0
   62.0050   28.5960   52.0400 H   0  0  0  0  0  0  0  0  0  0  0  0
   63.3607   29.6449   50.6961 H   0  0  0  0  0  0  0  0  0  0  0  0
   65.1031   31.3194   50.0156 H   0  0  0  0  0  0  0  0  0  0  0  0
   64.3913   33.6850   49.7482 H   0  0  0  0  0  0  0  0  0  0  0  0
   62.0597   34.3676   50.1373 H   0  0  0  0  0  0  0  0  0  0  0  0
   59.4981   34.6093   51.7017 H   0  0  0  0  0  0  0  0  0  0  0  0
   60.3935   34.7726   50.1530 H   0  0  0  0  0  0  0  0  0  0  0  0
   58.7019   34.1682   50.1530 H   0  0  0  0  0  0  0  0  0  0  0  0
   57.6174   33.3457   51.3286 H   0  0  0  0  0  0  0  0  0  0  0  0
   55.8836   31.7154   52.0465 H   0  0  0  0  0  0  0  0  0  0  0  0
   56.5684   29.3335   52.3217 H   0  0  0  0  0  0  0  0  0  0  0  0
   58.8740   28.6213   51.9040 H   0  0  0  0  0  0  0  0  0  0  0  0
  1  2  1  0
  2  3  1  0
  3  4  1  0
  3  5  1  0
  5  6  1  0
  6  7  1  0
  7  8  1  0
  8  9  1  0
  9 10  1  0
 10 11  1  0
 11 12  1  0
 11 13  1  0
 13 14  1  0
 14 15  1  0
 15 16  1  0
 15 17  1  0
 17 18  1  0
 18 19  1  0
 19 20  1  0
 20 21  1  0
 21 22  1  0
 22 23  1  0
 23 24  1  0
 24 25  2  0
 25 26  1  0
 26 27  2  0
 27 28  1  0
 28 29  2  0
 29 30  1  0
 30 31  2  0
 31 32  1  0
 31 33  1  0
 33 34  2  0
 34 35  1  0
 35 36  2  0
 36 37  1  0
 37 38  2  0
 38 24  1  0
 30 25  1  0
 38 33  1  0
  1 39  1  0
  1 40  1  0
  1 41  1  0
  2 42  1  0
  2 43  1  0
  4 44  1  0
  4 45  1  0
  4 46  1  0
  5 47  1  0
  5 48  1  0
  6 49  1  0
  6 50  1  0
  8 51  1  0
  8 52  1  0
  9 53  1  0
  9 54  1  0
 12 55  1  0
 12 56  1  0
 12 57  1  0
 13 58  1  0
 13 59  1  0
 14 60  1  0
 14 61  1  0
 16 62  1  0
 16 63  1  0
 16 64  1  0
 17 65  1  0
 17 66  1  0
 18 67  1  0
 18 68  1  0
 19 69  1  0
 19 70  1  0
 20 71  1  0
 21 72  1  0
 21 73  1  0
 22 74  1  0
 22 75  1  0
 23 76  1  0
 26 77  1  0
 27 78  1  0
 28 79  1  0
 29 80  1  0
 32 81  1  0
 32 82  1  0
 32 83  1  0
 34 84  1  0
 35 85  1  0
 36 86  1  0
 37 87  1  0
M  CHG  1  31   1
M  END
>  <smiles>  (8) 
CCN(C)CCOCCON(C)CCN(C)CCCNCCNc1c2ccccc2[n+](C)c2ccccc12

>  <score_type>  (8) 
oracle

>  <origin>  (8) 
adg

>  <m_score__min__energy>  (8) 
-5.7199999999999998

>  <m_primary>  (8) 
energy

$$$$
8:0
     RDKit          3D

 65 66  0  0  0  0  0  0  0  0999 V2000
   60.9350   30.4670   47.2180 C   0  0  0  0  0  0  0  0  0  0  0  0
   60.6270   30.2860   48.6700 C   0  0  0  0  0  0  0  0  0  0  0  0
   59.2000   30.6740   48.9800 C   0  0  0  0  0  0  0  0  0  0  0  0
   59.0710   30.9530   50.4510 C   0  0  0  0  0  0  0  0  0  0  0  0
   58.6890   32.2460   50.6950 O   0  0  0  0  0  0  0  0  0  0  0  0
   58.6600   32.5990   52.0480 C   0  0  0  0  0  0  0  0  0  0  0  0
   59.5150   33.8340   52.2150 C   0  0  0  0  0  0  0  0  0  0  0  0
   60.8750   33.6700   52.0680 O   0  0  0  0  0  0  0  0  0  0  0  0
   61.6520   33.4680   50.9800 C   0  0  0  0  0  0  0  0  0  0  0  0
   62.9470   33.0180   50.9460 C   0  0  0  0  0  0  0  0  0  0  0  0
   63.6650   32.8440   49.7650 C   0  0  0  0  0  0  0  0  0  0  0  0
   63.0710   33.1310   48.5650 C   0  0  0  0  0  0  0  0  0  0  0  0
   63.5420   33.0660   47.3060 N   0  0  0  0  0  0  0  0  0  0  0  0
   62.5740   33.4700   46.4730 C   0  0  0  0  0  0  0  0  0  0  0  0
   61.4560   33.8000   47.2090 C   0  0  0  0  0  0  0  0  0  0  0  0
   60.1410   34.2740   46.7230 C   0  0  0  0  0  0  0  0  0  0  0  0
   59.0390   33.5300   47.4410 C   0  0  0  0  0  0  0  0  0  0  0  0
   58.0710   33.0380   46.4790 N   0  0  0  0  0  0  0  0  0  0  0  0
   57.6710   34.1000   45.5790 C   0  0  0  0  0  0  0  0  0  0  0  0
   58.0200   33.7580   44.1550 C   0  0  0  0  0  0  0  0  0  0  0  0
   58.3350   32.5420   43.7910 O   0  0  0  0  0  0  0  0  0  0  0  0
   57.7470   31.6220   43.0440 C   0  0  0  0  0  0  0  0  0  0  0  0
   57.0090   30.5850   43.8110 C   0  0  0  0  0  0  0  0  0  0  0  0
   57.0350   30.6250   45.2220 N   0  0  0  0  0  0  0  0  0  0  0  0
   57.7670   29.6860   45.9620 C   0  0  0  0  0  0  0  0  0  0  0  0
   58.6940   28.8310   45.1510 C   0  0  0  0  0  0  0  0  0  0  0  0
   61.7760   33.5830   48.5550 C   0  0  0  0  0  0  0  0  0  0  0  0
   61.0790   33.7490   49.7290 C   0  0  0  0  0  0  0  0  0  0  0  0
   61.8788   31.0216   47.1097 H   0  0  0  0  0  0  0  0  0  0  0  0
   61.0315   29.4819   46.7381 H   0  0  0  0  0  0  0  0  0  0  0  0
   60.1214   31.0306   46.7381 H   0  0  0  0  0  0  0  0  0  0  0  0
   60.7781   29.2303   48.9397 H   0  0  0  0  0  0  0  0  0  0  0  0
   61.2980   30.9355   49.2513 H   0  0  0  0  0  0  0  0  0  0  0  0
   58.9320   31.5757   48.4098 H   0  0  0  0  0  0  0  0  0  0  0  0
   58.5248   29.8521   48.6996 H   0  0  0  0  0  0  0  0  0  0  0  0
   58.3181   30.2735   50.8770 H   0  0  0  0  0  0  0  0  0  0  0  0
   60.0558   30.7955   50.9151 H   0  0  0  0  0  0  0  0  0  0  0  0
   57.6265   32.8132   52.3579 H   0  0  0  0  0  0  0  0  0  0  0  0
   59.0422   31.7767   52.6707 H   0  0  0  0  0  0  0  0  0  0  0  0
   59.1855   34.5709   51.4678 H   0  0  0  0  0  0  0  0  0  0  0  0
   59.3728   34.1445   53.2606 H   0  0  0  0  0  0  0  0  0  0  0  0
   63.4436   32.7827   51.8989 H   0  0  0  0  0  0  0  0  0  0  0  0
   64.7021   32.4786   49.7962 H   0  0  0  0  0  0  0  0  0  0  0  0
   64.5170   32.7440   47.0810 H   0  0  0  0  0  0  0  0  0  0  0  0
   62.6577   33.5290   45.3778 H   0  0  0  0  0  0  0  0  0  0  0  0
   60.0443   35.3518   46.9202 H   0  0  0  0  0  0  0  0  0  0  0  0
   60.0625   34.0900   45.6413 H   0  0  0  0  0  0  0  0  0  0  0  0
   59.4702   32.6812   47.9920 H   0  0  0  0  0  0  0  0  0  0  0  0
   58.5383   34.2120   48.1439 H   0  0  0  0  0  0  0  0  0  0  0  0
   58.4080   32.2280   45.9280 H   0  0  0  0  0  0  0  0  0  0  0  0
   56.5839   34.2482   45.6576 H   0  0  0  0  0  0  0  0  0  0  0  0
   58.2057   35.0191   45.8606 H   0  0  0  0  0  0  0  0  0  0  0  0
   57.1494   34.0454   43.5472 H   0  0  0  0  0  0  0  0  0  0  0  0
   58.9703   34.2941   44.0153 H   0  0  0  0  0  0  0  0  0  0  0  0
   57.0345   32.1266   42.3749 H   0  0  0  0  0  0  0  0  0  0  0  0
   58.5491   31.0991   42.5025 H   0  0  0  0  0  0  0  0  0  0  0  0
   55.9539   30.6499   43.5068 H   0  0  0  0  0  0  0  0  0  0  0  0
   57.5369   29.6518   43.5653 H   0  0  0  0  0  0  0  0  0  0  0  0
   57.3010   31.5930   45.5170 H   0  0  0  0  0  0  0  0  0  0  0  0
   58.3666   30.2296   46.7070 H   0  0  0  0  0  0  0  0  0  0  0  0
   57.0305   29.0039   46.4118 H   0  0  0  0  0  0  0  0  0  0  0  0
   59.3330   28.2416   45.8250 H   0  0  0  0  0  0  0  0  0  0  0  0
   58.1056   28.1519   44.5165 H   0  0  0  0  0  0  0  0  0  0  0  0
   59.3235   29.4723   44.5165 H   0  0  0  0  0  0  0  0  0  0  0  0
   60.0417   34.1127   49.6868 H   0  0  0  0  0  0  0  0  0  0  0  0
  1  2  1  0
  2  3  1  0
  3  4  1  0
  4  5  1  0
  5  6  1  0
  6  7  1  0
  7  8  1  0
  8  9  1  0
  9 10  2  0
 10 11  1  0
 11 12  2  0
 12 13  1  0
 13 14  1  0
 14 15  2  0
 15 16  1  0
 16 17  1  0
 17 18  1  0
 18 19  1  0
 19 20  1  0
 20 21  1  0
 21 22  1  0
 22 23  1  0
 23 24  1  0
 24 25  1  0
 25 26  1  0
 15 27  1  0
 27 28  2  0
 28  9  1  0
 27 12  1  0
  1 29  1  0
  1 30  1  0
  1 31  1  0
  2 32  1  0
  2 33  1  0
  3 34  1  0
  3 35  1  0
  4 36  1  0
  4 37  1  0
  6 38  1  0
  6 39  1  0
  7 40  1  0
  7 41  1  0
 10 42  1  0
 11 43  1  0
 13 44  1  0
 14 45  1  0
 16 46  1  0
 16 47  1  0
 17 48  1  0
 17 49  1  0
 18 50  1  0
 19 51  1  0
 19 52  1  0
 20 53  1  0
 20 54  1  0
 22 55  1  0
 22 56  1  0
 23 57  1  0
 23 58  1  0
 24 59  1  0
 25 60  1  0
 25 61  1  0
 26 62  1  0
 26 63  1  0
 26 64  1  0
 28 65  1  0
M  END
>  <smiles>  (9) 
CCCCOCCOc1ccc2[nH]cc(CCNCCOCCNCC)c2c1

>  <score_type>  (9) 
oracle

>  <origin>  (9) 
adg

>  <m_score__min__energy>  (9) 
-6

>  <m_primary>  (9) 
energy

$$$$
10:0
     RDKit          3D

 43 46  0  0  0  0  0  0  0  0999 V2000
   57.2820   34.4310   44.9050 C   0  0  0  0  0  0  0  0  0  0  0  0
   57.6020   33.0320   45.2860 C   0  0  0  0  0  0  0  0  0  0  0  0
   57.0180   31.9510   44.6650 C   0  0  0  0  0  0  0  0  0  0  0  0
   57.3080   30.6910   45.0100 N   0  0  0  0  0  0  0  0  0  0  0  0
   58.2010   30.5090   45.9970 C   0  0  0  0  0  0  0  0  0  0  0  0
   58.8200   31.5630   46.6580 C   0  0  0  0  0  0  0  0  0  0  0  0
   58.5280   32.8640   46.3100 C   0  0  0  0  0  0  0  0  0  0  0  0
   59.7380   31.3520   47.6740 C   0  0  0  0  0  0  0  0  0  0  0  0
   60.3950   32.4550   48.3780 C   0  0  0  0  0  0  0  0  0  0  0  0
   61.7770   32.6540   47.9060 N   0  0  0  0  0  0  0  0  0  0  0  0
   61.8210   33.8230   47.0270 C   0  0  0  0  0  0  0  0  0  0  0  0
   63.2040   33.7760   46.3730 C   0  0  0  0  0  0  0  0  0  0  0  0
   64.1450   33.0290   47.1480 N   0  0  0  0  0  0  0  0  0  0  0  0
   64.0230   33.1530   48.5670 C   0  0  0  0  0  0  0  0  0  0  0  0
   62.6090   33.0490   49.0520 C   0  0  0  0  0  0  0  0  0  0  0  0
   60.0020   30.0280   47.9920 C   0  0  0  0  0  0  0  0  0  0  0  0
   59.3960   28.9700   47.3450 C   0  0  0  0  0  0  0  0  0  0  0  0
   59.7540   27.7030   47.7640 C   0  0  0  0  0  0  0  0  0  0  0  0
   59.1620   26.6030   47.1350 C   0  0  0  0  0  0  0  0  0  0  0  0
   58.2430   26.8340   46.1170 C   0  0  0  0  0  0  0  0  0  0  0  0
   57.9080   28.1280   45.7220 C   0  0  0  0  0  0  0  0  0  0  0  0
   58.4970   29.2050   46.3490 C   0  0  0  0  0  0  0  0  0  0  0  0
   57.1436   35.0359   45.8133 H   0  0  0  0  0  0  0  0  0  0  0  0
   58.1082   34.8470   44.3097 H   0  0  0  0  0  0  0  0  0  0  0  0
   56.3571   34.4465   44.3097 H   0  0  0  0  0  0  0  0  0  0  0  0
   56.2900   32.1286   43.8598 H   0  0  0  0  0  0  0  0  0  0  0  0
   59.0002   33.7206   46.8133 H   0  0  0  0  0  0  0  0  0  0  0  0
   59.8229   33.3788   48.2068 H   0  0  0  0  0  0  0  0  0  0  0  0
   60.4299   32.2070   49.4491 H   0  0  0  0  0  0  0  0  0  0  0  0
   61.0306   33.7631   46.2643 H   0  0  0  0  0  0  0  0  0  0  0  0
   61.6567   34.7606   47.5783 H   0  0  0  0  0  0  0  0  0  0  0  0
   63.1110   33.3079   45.3819 H   0  0  0  0  0  0  0  0  0  0  0  0
   63.5754   34.8085   46.2960 H   0  0  0  0  0  0  0  0  0  0  0  0
   64.3590   32.0780   46.8260 H   0  0  0  0  0  0  0  0  0  0  0  0
   64.6137   32.3542   49.0393 H   0  0  0  0  0  0  0  0  0  0  0  0
   64.3877   34.1545   48.8389 H   0  0  0  0  0  0  0  0  0  0  0  0
   62.5390   32.2909   49.8460 H   0  0  0  0  0  0  0  0  0  0  0  0
   62.2691   34.0104   49.4646 H   0  0  0  0  0  0  0  0  0  0  0  0
   60.7243   29.8122   48.7931 H   0  0  0  0  0  0  0  0  0  0  0  0
   60.4867   27.5629   48.5724 H   0  0  0  0  0  0  0  0  0  0  0  0
   59.4178   25.5772   47.4389 H   0  0  0  0  0  0  0  0  0  0  0  0
   57.7708   25.9778   45.6132 H   0  0  0  0  0  0  0  0  0  0  0  0
   57.1781   28.2888   44.9149 H   0  0  0  0  0  0  0  0  0  0  0  0
  1  2  1  0
  2  3  2  0
  3  4  1  0
  4  5  2  0
  5  6  1  0
  6  7  2  0
  6  8  1  0
  8  9  1  0
  9 10  1  0
 10 11  1  0
 11 12  1  0
 12 13  1  0
 13 14  1  0
 14 15  1  0
  8 16  2  0
 16 17  1  0
 17 18  2  0
 18 19  1  0
 19 20  2  0
 20 21  1  0
 21 22  2  0
  7  2  1  0
 15 10  1  0
 22 17  1  0
 22  5  1  0
  1 23  1  0
  1 24  1  0
  1 25  1  0
  3 26  1  0
  7 27  1  0
  9 28  1  0
  9 29  1  0
 11 30  1  0
 11 31  1  0
 12 32  1  0
 12 33  1  0
 13 34  1  0
 14 35  1  0
 14 36  1  0
 15 37  1  0
 15 38  1  0
 16 39  1  0
 18 40  1  0
 19 41  1  0
 20 42  1  0
 21 43  1  0
M  END
>  <smiles>  (10) 
Cc1cnc2c(c1)c(CN1CCNCC1)cc1ccccc12

>  <score_type>  (10) 
oracle

>  <origin>  (10) 
adg

>  <m_score__min__energy>  (10) 
-8.1400000000000006

>  <m_primary>  (10) 
energy

$$$$
11:0
     RDKit          3D

 33 34  0  0  0  0  0  0  0  0999 V2000
   57.4370   28.6850   43.7880 C   0  0  0  0  0  0  0  0  0  0  0  0
   56.4610   29.8330   43.8790 C   0  0  0  0  0  0  0  0  0  0  0  0
   57.1110   31.0950   44.2180 N   0  0  0  0  0  0  0  0  0  0  0  0
   57.2850   31.4850   45.4710 N   0  0  0  0  0  0  0  0  0  0  0  0
   57.8890   32.6590   45.7430 C   0  0  0  0  0  0  0  0  0  0  0  0
   58.1140   33.1530   47.1280 C   0  0  0  0  0  0  0  0  0  0  0  0
   58.9350   34.4390   47.0600 C   0  0  0  0  0  0  0  0  0  0  0  0
   60.3460   34.1520   47.4930 C   0  0  0  0  0  0  0  0  0  0  0  0
   60.7240   34.1950   48.8190 C   0  0  0  0  0  0  0  0  0  0  0  0
   62.0660   33.9070   49.0760 C   0  0  0  0  0  0  0  0  0  0  0  0
   62.9470   33.6010   48.0710 C   0  0  0  0  0  0  0  0  0  0  0  0
   62.5450   33.5630   46.7440 C   0  0  0  0  0  0  0  0  0  0  0  0
   61.2290   33.8440   46.4700 C   0  0  0  0  0  0  0  0  0  0  0  0
   58.3250   33.4480   44.6730 C   0  0  0  0  0  0  0  0  0  0  0  0
   58.1500   33.0550   43.3700 C   0  0  0  0  0  0  0  0  0  0  0  0
   57.5230   31.8410   43.1600 C   0  0  0  0  0  0  0  0  0  0  0  0
   57.3570   31.4680   41.9720 O   0  0  0  0  0  0  0  0  0  0  0  0
   57.7146   28.3585   44.8011 H   0  0  0  0  0  0  0  0  0  0  0  0
   56.9695   27.8482   43.2483 H   0  0  0  0  0  0  0  0  0  0  0  0
   58.3381   29.0117   43.2483 H   0  0  0  0  0  0  0  0  0  0  0  0
   55.9575   29.9456   42.9075 H   0  0  0  0  0  0  0  0  0  0  0  0
   55.7455   29.6000   44.6814 H   0  0  0  0  0  0  0  0  0  0  0  0
   57.1466   33.3562   47.6106 H   0  0  0  0  0  0  0  0  0  0  0  0
   58.6527   32.3941   47.7145 H   0  0  0  0  0  0  0  0  0  0  0  0
   58.9376   34.8190   46.0277 H   0  0  0  0  0  0  0  0  0  0  0  0
   58.4920   35.1943   47.7257 H   0  0  0  0  0  0  0  0  0  0  0  0
   60.0138   34.4404   49.6224 H   0  0  0  0  0  0  0  0  0  0  0  0
   62.4268   33.9262   50.1150 H   0  0  0  0  0  0  0  0  0  0  0  0
   63.9950   33.3809   48.3224 H   0  0  0  0  0  0  0  0  0  0  0  0
   63.2545   33.3167   45.9403 H   0  0  0  0  0  0  0  0  0  0  0  0
   60.8725   33.8245   45.4295 H   0  0  0  0  0  0  0  0  0  0  0  0
   58.8206   34.4076   44.8816 H   0  0  0  0  0  0  0  0  0  0  0  0
   58.4931   33.6777   42.5306 H   0  0  0  0  0  0  0  0  0  0  0  0
  1  2  1  0
  2  3  1  0
  3  4  1  0
  4  5  2  0
  5  6  1  0
  6  7  1  0
  7  8  1  0
  8  9  2  0
  9 10  1  0
 10 11  2  0
 11 12  1  0
 12 13  2  0
  5 14  1  0
 14 15  2  0
 15 16  1  0
 16 17  2  0
 16  3  1  0
 13  8  1  0
  1 18  1  0
  1 19  1  0
  1 20  1  0
  2 21  1  0
  2 22  1  0
  6 23  1  0
  6 24  1  0
  7 25  1  0
  7 26  1  0
  9 27  1  0
 10 28  1  0
 11 29  1  0
 12 30  1  0
 13 31  1  0
 14 32  1  0
 15 33  1  0
M  END
>  <smiles>  (11) 
CCn1nc(CCc2ccccc2)ccc1=O

>  <score_type>  (11) 
oracle

>  <origin>  (11) 
adg

>  <m_score__min__energy>  (11) 
-6.6399999999999997

>  <m_primary>  (11) 
energy

$$$$
13:0
     RDKit          3D

 70 73  0  0  1  0  0  0  0  0999 V2000
   64.9230   32.3240   50.3110 C   0  0  0  0  0  0  0  0  0  0  0  0
   63.7780   31.3870   50.5080 C   0  0  0  0  0  0  0  0  0  0  0  0
   62.9210   31.2640   49.3700 N   0  0  0  0  0  0  0  0  0  0  0  0
   63.3430   31.9700   48.2020 C   0  0  0  0  0  0  0  0  0  0  0  0
   62.2250   32.2220   47.2020 C   0  0  0  0  0  0  0  0  0  0  0  0
   60.9360   31.7950   47.7660 N   0  0  0  0  0  0  0  0  0  0  0  0
   59.8990   31.3900   46.9000 C   0  0  0  0  0  0  0  0  0  0  0  0
   59.2920   32.4200   46.1800 C   0  0  0  0  0  0  0  0  0  0  0  0
   59.7220   33.7350   46.3920 C   0  0  0  0  0  0  0  0  0  0  0  0
   59.1900   34.8130   45.7350 C   0  0  0  0  0  0  0  0  0  0  0  0
   58.1880   34.5930   44.8260 C   0  0  0  0  0  0  0  0  0  0  0  0
   57.7470   33.2830   44.6020 C   0  0  0  0  0  0  0  0  0  0  0  0
   58.2960   32.2230   45.2740 C   0  0  0  0  0  0  0  0  0  0  0  0
   57.8760   30.9660   45.0610 N   0  0  0  0  0  0  0  0  0  0  0  0
   56.8190   30.6410   44.1370 C   0  0  0  0  0  0  0  0  0  0  0  0
   58.4350   29.9350   45.7370 C   0  0  0  0  0  0  0  0  0  0  0  0
   57.9700   28.6620   45.4710 C   0  0  0  0  0  0  0  0  0  0  0  0
   58.5260   27.5970   46.1370 C   0  0  0  0  0  0  0  0  0  0  0  0
   59.5260   27.8140   47.0490 C   0  0  0  0  0  0  0  0  0  0  0  0
   60.0270   29.0880   47.3520 C   0  0  0  0  0  0  0  0  0  0  0  0
   60.9980   29.1670   48.3540 N   0  0  0  0  0  0  0  0  0  0  0  0
   60.6900   28.5170   49.6540 C   0  0  0  0  0  0  0  0  0  0  0  0
   60.8470   29.5340   50.7220 C   0  0  0  0  0  0  0  0  0  0  0  0
   60.1880   30.7710   50.5580 N   0  0  0  0  0  0  0  0  0  0  0  0
   58.8900   30.6960   49.9790 C   0  0  0  0  0  0  0  0  0  0  0  0
   57.8870   31.1720   50.9960 C   0  0  0  0  0  0  0  0  0  0  0  0
   58.6880   31.8880   52.0440 C   0  0  0  0  0  0  0  0  0  0  0  0
   60.1160   31.6290   51.7200 C   0  0  2  0  0  0  0  0  0  0  0  0
   60.7900   32.9260   51.3590 C   0  0  0  0  0  0  0  0  0  0  0  0
   60.7530   33.1360   50.0120 O   0  0  0  0  0  0  0  0  0  0  0  0
   59.9740   34.2060   49.6460 C   0  0  0  0  0  0  0  0  0  0  0  0
   59.4580   30.1270   46.6710 C   0  0  0  0  0  0  0  0  0  0  0  0
   65.3102   32.6409   51.2906 H   0  0  0  0  0  0  0  0  0  0  0  0
   65.7201   31.8158   49.7486 H   0  0  0  0  0  0  0  0  0  0  0  0
   64.5825   33.2059   49.7486 H   0  0  0  0  0  0  0  0  0  0  0  0
   64.1829   30.3919   50.7445 H   0  0  0  0  0  0  0  0  0  0  0  0
   63.1658   31.8016   51.3224 H   0  0  0  0  0  0  0  0  0  0  0  0
   61.9740   31.5830   49.6340 H   0  0  0  0  0  0  0  0  0  0  0  0
   63.7557   32.9409   48.5134 H   0  0  0  0  0  0  0  0  0  0  0  0
   64.0893   31.3389   47.6972 H   0  0  0  0  0  0  0  0  0  0  0  0
   62.1817   33.2959   46.9679 H   0  0  0  0  0  0  0  0  0  0  0  0
   62.4252   31.6467   46.2861 H   0  0  0  0  0  0  0  0  0  0  0  0
   60.7590   31.8170   48.8120 H   0  0  0  0  0  0  0  0  0  0  0  0
   60.5261   33.9114   47.1215 H   0  0  0  0  0  0  0  0  0  0  0  0
   59.5581   35.8306   45.9322 H   0  0  0  0  0  0  0  0  0  0  0  0
   57.7364   35.4342   44.2798 H   0  0  0  0  0  0  0  0  0  0  0  0
   56.9441   33.1016   43.8723 H   0  0  0  0  0  0  0  0  0  0  0  0
   55.9144   30.3629   44.6977 H   0  0  0  0  0  0  0  0  0  0  0  0
   56.6039   31.5145   43.5040 H   0  0  0  0  0  0  0  0  0  0  0  0
   57.1318   29.7975   43.5040 H   0  0  0  0  0  0  0  0  0  0  0  0
   57.1664   28.5033   44.7368 H   0  0  0  0  0  0  0  0  0  0  0  0
   58.1705   26.5750   45.9394 H   0  0  0  0  0  0  0  0  0  0  0  0
   59.9568   26.9456   47.5689 H   0  0  0  0  0  0  0  0  0  0  0  0
   61.9060   29.6320   48.3720 H   0  0  0  0  0  0  0  0  0  0  0  0
   59.6570   28.1390   49.6471 H   0  0  0  0  0  0  0  0  0  0  0  0
   61.3699   27.6702   49.8290 H   0  0  0  0  0  0  0  0  0  0  0  0
   60.4772   29.0872   51.6567 H   0  0  0  0  0  0  0  0  0  0  0  0
   61.9173   29.7875   50.7063 H   0  0  0  0  0  0  0  0  0  0  0  0
   58.8446   31.3354   49.0851 H   0  0  0  0  0  0  0  0  0  0  0  0
   58.6670   29.6598   49.6849 H   0  0  0  0  0  0  0  0  0  0  0  0
   57.1631   31.8571   50.5306 H   0  0  0  0  0  0  0  0  0  0  0  0
   57.3103   30.3378   51.4221 H   0  0  0  0  0  0  0  0  0  0  0  0
   58.4792   32.9675   52.0128 H   0  0  0  0  0  0  0  0  0  0  0  0
   58.4347   31.5348   53.0545 H   0  0  0  0  0  0  0  0  0  0  0  0
   60.6034   31.1632   52.5892 H   0  0  0  0  0  0  0  0  0  0  0  0
   60.2733   33.7538   51.8667 H   0  0  0  0  0  0  0  0  0  0  0  0
   61.8416   32.8759   51.6778 H   0  0  0  0  0  0  0  0  0  0  0  0
   59.6033   34.7152   50.5478 H   0  0  0  0  0  0  0  0  0  0  0  0
   60.5734   34.9086   49.0485 H   0  0  0  0  0  0  0  0  0  0  0  0
   59.1212   33.8513   49.0485 H   0  0  0  0  0  0  0  0  0  0  0  0
  1  2  1  0
  2  3  1  0
  3  4  1  0
  4  5  1  0
  5  6  1  0
  6  7  1  0
  7  8  2  0
  8  9  1  0
  9 10  2  0
 10 11  1  0
 11 12  2  0
 12 13  1  0
 13 14  2  0
 14 15  1  0
 14 16  1  0
 16 17  2  0
 17 18  1  0
 18 19  2  0
 19 20  1  0
 20 21  1  0
 21 22  1  0
 22 23  1  0
 23 24  1  0
 24 25  1  0
 25 26  1  0
 26 27  1  0
 27 28  1  0
 28 29  1  0
 29 30  1  0
 30 31  1  0
 20 32  2  0
 32  7  1  0
 13  8  1  0
 32 16  1  0
 28 24  1  0
  1 33  1  0
  1 34  1  0
  1 35  1  0
  2 36  1  0
  2 37  1  0
  3 38  1  0
  4 39  1  0
  4 40  1  0
  5 41  1  0
  5 42  1  0
  6 43  1  0
  9 44  1  0
 10 45  1  0
 11 46  1  0
 12 47  1  0
 15 48  1  0
 15 49  1  0
 15 50  1  0
 17 51  1  0
 18 52  1  0
 19 53  1  0
 21 54  1  0
 22 55  1  0
 22 56  1  0
 23 57  1  0
 23 58  1  0
 25 59  1  0
 25 60  1  0
 26 61  1  0
 26 62  1  0
 27 63  1  0
 27 64  1  0
 28 65  1  1
 29 66  1  0
 29 67  1  0
 31 68  1  0
 31 69  1  0
 31 70  1  0
M  CHG  1  14   1
M  END
>  <smiles>  (12) 
CCNCCNc1c2ccccc2[n+](C)c2cccc(NCCN3CCCC3COC)c12

>  <score_type>  (12) 
oracle

>  <origin>  (12) 
adg

>  <m_score__min__energy>  (12) 
-5.25

>  <m_primary>  (12) 
energy

$$$$
14:0
     RDKit          3D

 77 79  0  0  0  0  0  0  0  0999 V2000
   59.6930   29.3150   44.9410 C   0  0  0  0  0  0  0  0  0  0  0  0
   59.2270   27.9860   44.5910 N   0  0  0  0  0  0  0  0  0  0  0  0
   59.3380   27.1060   45.7590 C   0  0  0  0  0  0  0  0  0  0  0  0
   57.8020   28.0710   44.2310 C   0  0  0  0  0  0  0  0  0  0  0  0
   57.0360   28.6970   45.3490 C   0  0  0  0  0  0  0  0  0  0  0  0
   55.9770   29.4680   44.8920 O   0  0  0  0  0  0  0  0  0  0  0  0
   56.1550   29.9620   43.6240 C   0  0  0  0  0  0  0  0  0  0  0  0
   57.0300   31.2230   43.7610 C   0  0  0  0  0  0  0  0  0  0  0  0
   56.9300   31.6450   45.0680 O   0  0  0  0  0  0  0  0  0  0  0  0
   57.3460   32.9430   45.2270 C   0  0  0  0  0  0  0  0  0  0  0  0
   58.7990   33.0380   45.6130 C   0  0  0  0  0  0  0  0  0  0  0  0
   59.0460   34.3800   46.2770 C   0  0  0  0  0  0  0  0  0  0  0  0
   60.2250   34.2990   47.2620 C   0  0  0  0  0  0  0  0  0  0  0  0
   59.6570   34.5910   48.6150 C   0  0  0  0  0  0  0  0  0  0  0  0
   60.0670   33.6870   49.7100 C   0  0  0  0  0  0  0  0  0  0  0  0
   59.1960   33.4170   50.8610 C   0  0  0  0  0  0  0  0  0  0  0  0
   58.3630   32.2000   50.9150 C   0  0  0  0  0  0  0  0  0  0  0  0
   58.8980   31.1450   51.8790 C   0  0  0  0  0  0  0  0  0  0  0  0
   58.2980   29.8220   51.4770 C   0  0  0  0  0  0  0  0  0  0  0  0
   58.1260   29.7860   50.0810 O   0  0  0  0  0  0  0  0  0  0  0  0
   59.1350   29.3670   49.2580 C   0  0  0  0  0  0  0  0  0  0  0  0
   59.0510   28.3250   48.5460 O   0  0  0  0  0  0  0  0  0  0  0  0
   60.3400   30.1300   49.1860 C   0  0  0  0  0  0  0  0  0  0  0  0
   61.3870   30.3700   50.0420 C   0  0  0  0  0  0  0  0  0  0  0  0
   62.3920   31.1560   49.6490 C   0  0  0  0  0  0  0  0  0  0  0  0
   63.6120   31.6520   50.1710 C   0  0  0  0  0  0  0  0  0  0  0  0
   64.2750   31.5060   51.3630 C   0  0  0  0  0  0  0  0  0  0  0  0
   65.4840   32.1090   51.6340 C   0  0  0  0  0  0  0  0  0  0  0  0
   66.0280   32.8920   50.6400 C   0  0  0  0  0  0  0  0  0  0  0  0
   65.4200   33.0850   49.4180 C   0  0  0  0  0  0  0  0  0  0  0  0
   64.2090   32.4490   49.2140 C   0  0  0  0  0  0  0  0  0  0  0  0
   63.4290   32.4740   48.1350 N   0  0  0  0  0  0  0  0  0  0  0  0
   63.6720   33.1840   46.9030 C   0  0  0  0  0  0  0  0  0  0  0  0
   62.3600   31.7110   48.3950 C   0  0  0  0  0  0  0  0  0  0  0  0
   60.8110   31.1170   47.6520 S   0  0  0  0  0  0  0  0  0  0  0  0
   59.7280   29.4148   46.0359 H   0  0  0  0  0  0  0  0  0  0  0  0
   60.6997   29.4716   44.5262 H   0  0  0  0  0  0  0  0  0  0  0  0
   59.0046   30.0660   44.5262 H   0  0  0  0  0  0  0  0  0  0  0  0
   59.2624   27.7054   46.6782 H   0  0  0  0  0  0  0  0  0  0  0  0
   58.5263   26.3639   45.7374 H   0  0  0  0  0  0  0  0  0  0  0  0
   60.3085   26.5887   45.7374 H   0  0  0  0  0  0  0  0  0  0  0  0
   57.6901   28.6829   43.3238 H   0  0  0  0  0  0  0  0  0  0  0  0
   57.4127   27.0591   44.0450 H   0  0  0  0  0  0  0  0  0  0  0  0
   56.6407   27.9008   45.9969 H   0  0  0  0  0  0  0  0  0  0  0  0
   57.7217   29.3579   45.8995 H   0  0  0  0  0  0  0  0  0  0  0  0
   56.6608   29.2158   42.9936 H   0  0  0  0  0  0  0  0  0  0  0  0
   55.1902   30.1983   43.1515 H   0  0  0  0  0  0  0  0  0  0  0  0
   58.0765   30.9841   43.5206 H   0  0  0  0  0  0  0  0  0  0  0  0
   56.6946   32.0094   43.0688 H   0  0  0  0  0  0  0  0  0  0  0  0
   57.1967   33.4803   44.2788 H   0  0  0  0  0  0  0  0  0  0  0  0
   56.7535   33.3875   46.0403 H   0  0  0  0  0  0  0  0  0  0  0  0
   59.0482   32.2279   46.3142 H   0  0  0  0  0  0  0  0  0  0  0  0
   59.4291   32.9450   44.7161 H   0  0  0  0  0  0  0  0  0  0  0  0
   59.2745   35.1276   45.5031 H   0  0  0  0  0  0  0  0  0  0  0  0
   58.1423   34.6666   46.8348 H   0  0  0  0  0  0  0  0  0  0  0  0
   60.6692   33.2929   47.2436 H   0  0  0  0  0  0  0  0  0  0  0  0
   61.0192   35.0126   46.9973 H   0  0  0  0  0  0  0  0  0  0  0  0
   59.9607   35.6113   48.8922 H   0  0  0  0  0  0  0  0  0  0  0  0
   58.5709   34.4505   48.5120 H   0  0  0  0  0  0  0  0  0  0  0  0
   60.2733   32.7121   49.2441 H   0  0  0  0  0  0  0  0  0  0  0  0
   60.8959   34.2434   50.1719 H   0  0  0  0  0  0  0  0  0  0  0  0
   59.8478   33.3894   51.7467 H   0  0  0  0  0  0  0  0  0  0  0  0
   58.4472   34.2197   50.7912 H   0  0  0  0  0  0  0  0  0  0  0  0
   57.3499   32.4842   51.2356 H   0  0  0  0  0  0  0  0  0  0  0  0
   58.3698   31.7555   49.9088 H   0  0  0  0  0  0  0  0  0  0  0  0
   59.9949   31.0963   51.8122 H   0  0  0  0  0  0  0  0  0  0  0  0
   58.6293   31.3944   52.9161 H   0  0  0  0  0  0  0  0  0  0  0  0
   58.9699   29.0070   51.7841 H   0  0  0  0  0  0  0  0  0  0  0  0
   57.3216   29.6995   51.9685 H   0  0  0  0  0  0  0  0  0  0  0  0
   61.3974   29.9176   51.0446 H   0  0  0  0  0  0  0  0  0  0  0  0
   63.8189   30.8763   52.1411 H   0  0  0  0  0  0  0  0  0  0  0  0
   65.9915   31.9713   52.6001 H   0  0  0  0  0  0  0  0  0  0  0  0
   66.9922   33.3862   50.8301 H   0  0  0  0  0  0  0  0  0  0  0  0
   65.8769   33.7157   48.6411 H   0  0  0  0  0  0  0  0  0  0  0  0
   64.0206   34.2025   47.1294 H   0  0  0  0  0  0  0  0  0  0  0  0
   64.4401   32.6546   46.3201 H   0  0  0  0  0  0  0  0  0  0  0  0
   62.7406   33.2363   46.3201 H   0  0  0  0  0  0  0  0  0  0  0  0
  1  2  1  0
  2  3  1  0
  2  4  1  0
  4  5  1  0
  5  6  1  0
  6  7  1  0
  7  8  1  0
  8  9  1  0
  9 10  1  0
 10 11  1  0
 11 12  1  0
 12 13  1  0
 13 14  1  0
 14 15  1  0
 15 16  1  0
 16 17  1  0
 17 18  1  0
 18 19  1  0
 19 20  1  0
 20 21  1  0
 21 22  2  0
 21 23  1  0
 23 24  2  0
 24 25  1  0
 25 26  1  0
 26 27  2  0
 27 28  1  0
 28 29  2  0
 29 30  1  0
 30 31  2  0
 31 32  1  0
 32 33  1  0
 32 34  1  0
 34 35  1  0
 35 23  1  0
 34 25  2  0
 31 26  1  0
  1 36  1  0
  1 37  1  0
  1 38  1  0
  3 39  1  0
  3 40  1  0
  3 41  1  0
  4 42  1  0
  4 43  1  0
  5 44  1  0
  5 45  1  0
  7 46  1  0
  7 47  1  0
  8 48  1  0
  8 49  1  0
 10 50  1  0
 10 51  1  0
 11 52  1  0
 11 53  1  0
 12 54  1  0
 12 55  1  0
 13 56  1  0
 13 57  1  0
 14 58  1  0
 14 59  1  0
 15 60  1  0
 15 61  1  0
 16 62  1  0
 16 63  1  0
 17 64  1  0
 17 65  1  0
 18 66  1  0
 18 67  1  0
 19 68  1  0
 19 69  1  0
 24 70  1  0
 27 71  1  0
 28 72  1  0
 29 73  1  0
 30 74  1  0
 33 75  1  0
 33 76  1  0
 33 77  1  0
M  END
>  <smiles>  (13) 
CN(C)CCOCCOCCCCCCCCCCOC(=O)c1cc2c3ccccc3n(C)c2s1

>  <score_type>  (13) 
oracle

>  <origin>  (13) 
adg

>  <m_score__min__energy>  (13) 
-7.8300000000000001

>  <m_primary>  (13) 
energy

$$$$
15:0
     RDKit          3D

 49 51  0  0  0  0  0  0  0  0999 V2000
   56.6530   30.3720   42.9410 C   0  0  0  0  0  0  0  0  0  0  0  0
   55.6490   30.3590   44.0890 C   0  0  0  0  0  0  0  0  0  0  0  0
   55.9090   29.3030   45.0380 N   0  0  0  0  0  0  0  0  0  0  0  0
   57.0700   28.5720   44.7320 C   0  0  0  0  0  0  0  0  0  0  0  0
   58.3580   29.0370   45.3730 C   0  0  0  0  0  0  0  0  0  0  0  0
   58.1320   30.0220   46.4060 N   0  0  0  0  0  0  0  0  0  0  0  0
   59.0950   30.8930   46.9460 C   0  0  0  0  0  0  0  0  0  0  0  0
   59.0880   32.1830   46.3560 C   0  0  0  0  0  0  0  0  0  0  0  0
   58.1600   32.4610   45.3450 C   0  0  0  0  0  0  0  0  0  0  0  0
   58.0780   33.6960   44.7390 C   0  0  0  0  0  0  0  0  0  0  0  0
   58.9450   34.6720   45.1560 C   0  0  0  0  0  0  0  0  0  0  0  0
   59.8700   34.4000   46.1630 C   0  0  0  0  0  0  0  0  0  0  0  0
   59.9590   33.1610   46.7730 C   0  0  0  0  0  0  0  0  0  0  0  0
   60.8590   32.9160   47.7700 N   0  0  0  0  0  0  0  0  0  0  0  0
   61.7900   33.9650   48.0710 C   0  0  0  0  0  0  0  0  0  0  0  0
   60.8780   31.6930   48.3510 C   0  0  0  0  0  0  0  0  0  0  0  0
   61.7830   31.4800   49.3920 C   0  0  0  0  0  0  0  0  0  0  0  0
   62.6960   32.4660   49.9290 C   0  0  0  0  0  0  0  0  0  0  0  0
   61.7640   30.2100   49.9880 C   0  0  0  0  0  0  0  0  0  0  0  0
   60.9040   29.2230   49.5780 C   0  0  0  0  0  0  0  0  0  0  0  0
   59.9960   29.4350   48.5410 C   0  0  0  0  0  0  0  0  0  0  0  0
   59.1340   28.2970   48.1920 C   0  0  0  0  0  0  0  0  0  0  0  0
   59.9960   30.6710   47.9420 C   0  0  0  0  0  0  0  0  0  0  0  0
   57.6749   30.3852   43.3478 H   0  0  0  0  0  0  0  0  0  0  0  0
   56.5157   29.4720   42.3236 H   0  0  0  0  0  0  0  0  0  0  0  0
   56.4925   31.2681   42.3236 H   0  0  0  0  0  0  0  0  0  0  0  0
   55.6997   31.3248   44.6131 H   0  0  0  0  0  0  0  0  0  0  0  0
   54.6516   30.1843   43.6592 H   0  0  0  0  0  0  0  0  0  0  0  0
   55.8890   29.7170   45.9920 H   0  0  0  0  0  0  0  0  0  0  0  0
   56.8998   27.5312   45.0445 H   0  0  0  0  0  0  0  0  0  0  0  0
   57.2204   28.7105   43.6512 H   0  0  0  0  0  0  0  0  0  0  0  0
   58.8657   28.1683   45.8175 H   0  0  0  0  0  0  0  0  0  0  0  0
   58.9735   29.5050   44.5906 H   0  0  0  0  0  0  0  0  0  0  0  0
   57.1230   30.1160   46.7500 H   0  0  0  0  0  0  0  0  0  0  0  0
   57.4720   31.6654   45.0230 H   0  0  0  0  0  0  0  0  0  0  0  0
   57.3408   33.8920   43.9465 H   0  0  0  0  0  0  0  0  0  0  0  0
   58.9110   35.6706   44.6959 H   0  0  0  0  0  0  0  0  0  0  0  0
   60.5540   35.1993   46.4844 H   0  0  0  0  0  0  0  0  0  0  0  0
   61.8835   34.0704   49.1619 H   0  0  0  0  0  0  0  0  0  0  0  0
   62.7719   33.7183   47.6409 H   0  0  0  0  0  0  0  0  0  0  0  0
   61.4285   34.9107   47.6409 H   0  0  0  0  0  0  0  0  0  0  0  0
   62.6659   32.4334   51.0281 H   0  0  0  0  0  0  0  0  0  0  0  0
   63.7171   32.2468   49.5835 H   0  0  0  0  0  0  0  0  0  0  0  0
   62.3991   33.4672   49.5835 H   0  0  0  0  0  0  0  0  0  0  0  0
   62.4620   29.9987   50.8115 H   0  0  0  0  0  0  0  0  0  0  0  0
   60.9312   28.2435   50.0778 H   0  0  0  0  0  0  0  0  0  0  0  0
   58.7702   27.8168   49.1124 H   0  0  0  0  0  0  0  0  0  0  0  0
   58.2773   28.6535   47.6012 H   0  0  0  0  0  0  0  0  0  0  0  0
   59.7092   27.5689   47.6012 H   0  0  0  0  0  0  0  0  0  0  0  0
  1  2  1  0
  2  3  1  0
  3  4  1  0
  4  5  1  0
  5  6  1  0
  6  7  1  0
  7  8  2  0
  8  9  1  0
  9 10  2  0
 10 11  1  0
 11 12  2  0
 12 13  1  0
 13 14  2  0
 14 15  1  0
 14 16  1  0
 16 17  2  0
 17 18  1  0
 17 19  1  0
 19 20  2  0
 20 21  1  0
 21 22  1  0
 21 23  2  0
 23  7  1  0
 13  8  1  0
 23 16  1  0
  1 24  1  0
  1 25  1  0
  1 26  1  0
  2 27  1  0
  2 28  1  0
  3 29  1  0
  4 30  1  0
  4 31  1  0
  5 32  1  0
  5 33  1  0
  6 34  1  0
  9 35  1  0
 10 36  1  0
 11 37  1  0
 12 38  1  0
 15 39  1  0
 15 40  1  0
 15 41  1  0
 18 42  1  0
 18 43  1  0
 18 44  1  0
 19 45  1  0
 20 46  1  0
 22 47  1  0
 22 48  1  0
 22 49  1  0
M  CHG  1  14   1
M  END
>  <smiles>  (14) 
CCNCCNc1c2ccccc2[n+](C)c2c(C)ccc(C)c12

>  <score_type>  (14) 
oracle

>  <origin>  (14) 
adg

>  <m_score__min__energy>  (14) 
-6.2199999999999998

>  <m_primary>  (14) 
energy

$$$$
16:0
     RDKit          3D

 66 70  0  0  1  0  0  0  0  0999 V2000
   59.3140   29.2850   52.1480 C   0  0  0  0  0  0  0  0  0  0  0  0
   58.0190   29.8670   52.6210 C   0  0  0  0  0  0  0  0  0  0  0  0
   57.0230   29.7750   51.6360 O   0  0  0  0  0  0  0  0  0  0  0  0
   56.2150   30.9190   51.8260 C   0  0  0  0  0  0  0  0  0  0  0  0
   57.0770   32.0420   52.2970 C   0  0  0  0  0  0  0  0  0  0  0  0
   57.8350   32.6450   51.3320 O   0  0  0  0  0  0  0  0  0  0  0  0
   59.0650   33.1110   51.7030 C   0  0  0  0  0  0  0  0  0  0  0  0
   60.2320   32.5020   51.0150 C   0  0  0  0  0  0  0  0  0  0  0  0
   60.2040   32.3900   49.5970 N   0  0  0  0  0  0  0  0  0  0  0  0
   60.1000   31.3160   48.6930 C   0  0  0  0  0  0  0  0  0  0  0  0
   59.5930   30.0510   48.8250 C   0  0  0  0  0  0  0  0  0  0  0  0
   59.6080   29.1750   47.7680 C   0  0  0  0  0  0  0  0  0  0  0  0
   59.0870   27.9160   47.9520 C   0  0  0  0  0  0  0  0  0  0  0  0
   59.0880   27.0000   46.8950 C   0  0  0  0  0  0  0  0  0  0  0  0
   59.6070   27.3400   45.6630 C   0  0  0  0  0  0  0  0  0  0  0  0
   60.1210   28.6130   45.5140 C   0  0  0  0  0  0  0  0  0  0  0  0
   60.1380   29.5370   46.5250 C   0  0  0  0  0  0  0  0  0  0  0  0
   60.6500   30.8070   46.3850 C   0  0  0  0  0  0  0  0  0  0  0  0
   60.6230   31.6660   47.4590 C   0  0  0  0  0  0  0  0  0  0  0  0
   61.0940   33.0440   47.5830 C   0  0  1  0  0  0  0  0  0  0  0  0
   61.0850   33.8440   46.3270 C   0  0  0  0  0  0  0  0  0  0  0  0
   59.8970   34.5280   46.0260 N   0  0  0  0  0  0  0  0  0  0  0  0
   59.2740   34.3130   44.7810 C   0  0  0  0  0  0  0  0  0  0  0  0
   58.0950   33.4400   44.6940 C   0  0  0  0  0  0  0  0  0  0  0  0
   58.1100   32.3780   43.5800 C   0  0  0  0  0  0  0  0  0  0  0  0
   57.0820   31.6580   44.4760 C   0  0  0  0  0  0  0  0  0  0  0  0
   57.8780   32.3130   45.6330 C   0  0  0  0  0  0  0  0  0  0  0  0
   59.0530   34.9420   47.0920 C   0  0  0  0  0  0  0  0  0  0  0  0
   58.9310   33.9520   48.2190 C   0  0  0  0  0  0  0  0  0  0  0  0
   60.3060   33.5860   48.7220 C   0  0  1  0  0  0  0  0  0  0  0  0
   59.9303   29.0080   53.0160 H   0  0  0  0  0  0  0  0  0  0  0  0
   59.1136   28.3904   51.5401 H   0  0  0  0  0  0  0  0  0  0  0  0
   59.8500   30.0288   51.5401 H   0  0  0  0  0  0  0  0  0  0  0  0
   57.6876   29.3208   53.5164 H   0  0  0  0  0  0  0  0  0  0  0  0
   58.1817   30.9308   52.8488 H   0  0  0  0  0  0  0  0  0  0  0  0
   55.7348   31.1947   50.8755 H   0  0  0  0  0  0  0  0  0  0  0  0
   55.4355   30.7069   52.5726 H   0  0  0  0  0  0  0  0  0  0  0  0
   56.4241   32.8069   52.7427 H   0  0  0  0  0  0  0  0  0  0  0  0
   57.7893   31.5990   53.0086 H   0  0  0  0  0  0  0  0  0  0  0  0
   59.0870   34.1932   51.5069 H   0  0  0  0  0  0  0  0  0  0  0  0
   59.1746   32.8406   52.7636 H   0  0  0  0  0  0  0  0  0  0  0  0
   61.1135   33.1063   51.2752 H   0  0  0  0  0  0  0  0  0  0  0  0
   60.2367   31.4597   51.3664 H   0  0  0  0  0  0  0  0  0  0  0  0
   59.1689   29.7330   49.7888 H   0  0  0  0  0  0  0  0  0  0  0  0
   58.6701   27.6296   48.9288 H   0  0  0  0  0  0  0  0  0  0  0  0
   58.6691   25.9945   47.0483 H   0  0  0  0  0  0  0  0  0  0  0  0
   59.6113   26.6227   44.8290 H   0  0  0  0  0  0  0  0  0  0  0  0
   60.5367   28.8987   44.5365 H   0  0  0  0  0  0  0  0  0  0  0  0
   61.0763   31.1316   45.4243 H   0  0  0  0  0  0  0  0  0  0  0  0
   62.1736   33.0958   47.7874 H   0  0  0  0  0  0  0  0  0  0  0  0
   61.8900   34.5900   46.4007 H   0  0  0  0  0  0  0  0  0  0  0  0
   61.2115   33.1118   45.5159 H   0  0  0  0  0  0  0  0  0  0  0  0
   58.9678   35.2999   44.4037 H   0  0  0  0  0  0  0  0  0  0  0  0
   60.0369   33.7683   44.2054 H   0  0  0  0  0  0  0  0  0  0  0  0
   57.4200   34.3080   44.7258 H   0  0  0  0  0  0  0  0  0  0  0  0
   57.7317   32.7133   42.6030 H   0  0  0  0  0  0  0  0  0  0  0  0
   59.0284   31.9028   43.2049 H   0  0  0  0  0  0  0  0  0  0  0  0
   56.0413   31.9973   44.3674 H   0  0  0  0  0  0  0  0  0  0  0  0
   56.8713   30.5801   44.4158 H   0  0  0  0  0  0  0  0  0  0  0  0
   57.2848   32.5584   46.5262 H   0  0  0  0  0  0  0  0  0  0  0  0
   58.7038   31.8026   46.1502 H   0  0  0  0  0  0  0  0  0  0  0  0
   59.4546   35.8803   47.5023 H   0  0  0  0  0  0  0  0  0  0  0  0
   58.0452   35.0523   46.6652 H   0  0  0  0  0  0  0  0  0  0  0  0
   58.3486   34.3994   49.0379 H   0  0  0  0  0  0  0  0  0  0  0  0
   58.4215   33.0469   47.8568 H   0  0  0  0  0  0  0  0  0  0  0  0
   60.7365   34.4729   49.2100 H   0  0  0  0  0  0  0  0  0  0  0  0
  1  2  1  0
  2  3  1  0
  3  4  1  0
  4  5  1  0
  5  6  1  0
  6  7  1  0
  7  8  1  0
  8  9  1  0
  9 10  1  0
 10 11  2  0
 11 12  1  0
 12 13  2  0
 13 14  1  0
 14 15  2  0
 15 16  1  0
 16 17  2  0
 17 18  1  0
 18 19  2  0
 19 20  1  0
 20 21  1  0
 21 22  1  0
 22 23  1  0
 23 24  1  0
 24 25  1  0
 25 26  1  0
 26 27  1  0
 22 28  1  0
 28 29  1  0
 29 30  1  0
 30  9  1  0
 19 10  1  0
 30 20  1  0
 17 12  1  0
 27 24  1  0
  1 31  1  0
  1 32  1  0
  1 33  1  0
  2 34  1  0
  2 35  1  0
  4 36  1  0
  4 37  1  0
  5 38  1  0
  5 39  1  0
  7 40  1  0
  7 41  1  0
  8 42  1  0
  8 43  1  0
 11 44  1  0
 13 45  1  0
 14 46  1  0
 15 47  1  0
 16 48  1  0
 18 49  1  0
 20 50  1  1
 21 51  1  0
 21 52  1  0
 23 53  1  0
 23 54  1  0
 24 55  1  0
 25 56  1  0
 25 57  1  0
 26 58  1  0
 26 59  1  0
 27 60  1  0
 27 61  1  0
 28 62  1  0
 28 63  1  0
 29 64  1  0
 29 65  1  0
 30 66  1  1
M  END
>  <smiles>  (15) 
CCOCCOCCN1c2cc3ccccc3cc2C2CN(CC3CCC3)CCC21

>  <score_type>  (15) 
oracle

>  <origin>  (15) 
adg

>  <m_score__min__energy>  (15) 
-8.7799999999999994

>  <m_primary>  (15) 
energy

$$$$
17:0
     RDKit          3D

 29 30  0  0  0  0  0  0  0  0999 V2000
   60.3950   29.7310   45.9880 C   0  0  0  0  0  0  0  0  0  0  0  0
   59.1580   29.9970   46.8190 C   0  0  0  0  0  0  0  0  0  0  0  0
   58.0640   30.3660   45.9700 N   0  0  0  0  0  0  0  0  0  0  0  0
   57.1460   29.5180   45.4220 C   0  0  0  0  0  0  0  0  0  0  0  0
   57.0820   27.7340   45.6350 S   0  0  0  0  0  0  0  0  0  0  0  0
   58.5590   27.0040   44.8570 C   0  0  0  0  0  0  0  0  0  0  0  0
   58.3200   27.0390   43.3980 C   0  0  0  0  0  0  0  0  0  0  0  0
   58.1360   27.0630   42.2510 N   0  0  0  0  0  0  0  0  0  0  0  0
   56.2900   30.2670   44.6900 N   0  0  0  0  0  0  0  0  0  0  0  0
   56.6580   31.5460   44.7740 N   0  0  0  0  0  0  0  0  0  0  0  0
   57.7620   31.6120   45.5700 C   0  0  0  0  0  0  0  0  0  0  0  0
   58.4170   32.8780   45.8630 C   0  0  0  0  0  0  0  0  0  0  0  0
   58.7960   33.2750   47.1210 C   0  0  0  0  0  0  0  0  0  0  0  0
   59.4160   34.5010   47.3140 C   0  0  0  0  0  0  0  0  0  0  0  0
   59.6420   35.3150   46.2020 C   0  0  0  0  0  0  0  0  0  0  0  0
   59.2700   34.9390   44.9300 C   0  0  0  0  0  0  0  0  0  0  0  0
   58.6550   33.7130   44.7630 C   0  0  0  0  0  0  0  0  0  0  0  0
   61.2512   29.5469   46.6536 H   0  0  0  0  0  0  0  0  0  0  0  0
   60.2275   28.8483   45.3533 H   0  0  0  0  0  0  0  0  0  0  0  0
   60.6051   30.6045   45.3533 H   0  0  0  0  0  0  0  0  0  0  0  0
   58.8934   29.0878   47.3788 H   0  0  0  0  0  0  0  0  0  0  0  0
   59.3645   30.8206   47.5184 H   0  0  0  0  0  0  0  0  0  0  0  0
   59.4532   27.5923   45.1107 H   0  0  0  0  0  0  0  0  0  0  0  0
   58.7298   25.9761   45.2095 H   0  0  0  0  0  0  0  0  0  0  0  0
   58.6069   32.6168   47.9818 H   0  0  0  0  0  0  0  0  0  0  0  0
   59.7225   34.8244   48.3197 H   0  0  0  0  0  0  0  0  0  0  0  0
   60.1333   36.2885   46.3466 H   0  0  0  0  0  0  0  0  0  0  0  0
   59.4577   35.5978   44.0694 H   0  0  0  0  0  0  0  0  0  0  0  0
   58.3493   33.3894   43.7571 H   0  0  0  0  0  0  0  0  0  0  0  0
  1  2  1  0
  2  3  1  0
  3  4  1  0
  4  5  1  0
  5  6  1  0
  6  7  1  0
  7  8  3  0
  4  9  2  0
  9 10  1  0
 10 11  2  0
 11 12  1  0
 12 13  2  0
 13 14  1  0
 14 15  2  0
 15 16  1  0
 16 17  2  0
 11  3  1  0
 17 12  1  0
  1 18  1  0
  1 19  1  0
  1 20  1  0
  2 21  1  0
  2 22  1  0
  6 23  1  0
  6 24  1  0
 13 25  1  0
 14 26  1  0
 15 27  1  0
 16 28  1  0
 17 29  1  0
M  END
>  <smiles>  (16) 
CCn1c(SCC#N)nnc1-c1ccccc1

>  <score_type>  (16) 
oracle

>  <origin>  (16) 
adg

>  <m_score__min__energy>  (16) 
-7.21

>  <m_primary>  (16) 
energy

$$$$
