0:0
     RDKit          3D

 67 69  0  0  0  0  0  0  0  0999 V2000
   58.7553   35.6414   46.6338 H   0  0  0  0  0  0  0  0  0  0  0  0
   59.0820   34.6050   46.4630 C   0  0  0  0  0  0  0  0  0  0  0  0
   58.2590   33.6310   46.6310 N   0  0  0  0  0  0  0  0  0  0  0  0
   56.9980   33.5670   45.9320 C   0  0  0  0  0  0  0  0  0  0  0  0
   56.1760   33.5253   46.6617 H   0  0  0  0  0  0  0  0  0  0  0  0
   56.8829   34.4605   45.3007 H   0  0  0  0  0  0  0  0  0  0  0  0
   56.9740   32.6665   45.3007 H   0  0  0  0  0  0  0  0  0  0  0  0
   60.4890   34.3190   46.0330 C   0  0  0  0  0  0  0  0  0  0  0  0
   61.1639   35.0553   46.4939 H   0  0  0  0  0  0  0  0  0  0  0  0
   60.5432   34.3846   44.9363 H   0  0  0  0  0  0  0  0  0  0  0  0
   60.8930   32.9760   46.4430 N   0  0  0  0  0  0  0  0  0  0  0  0
   60.3160   32.1680   46.1220 H   0  0  0  0  0  0  0  0  0  0  0  0
   61.8150   32.7390   47.5160 C   0  0  0  0  0  0  0  0  0  0  0  0
   63.1730   32.6290   47.1900 C   0  0  0  0  0  0  0  0  0  0  0  0
   63.4704   32.4735   46.1424 H   0  0  0  0  0  0  0  0  0  0  0  0
   64.1450   32.7140   48.1730 C   0  0  0  0  0  0  0  0  0  0  0  0
   65.2028   32.5550   47.9165 H   0  0  0  0  0  0  0  0  0  0  0  0
   63.7830   33.0000   49.4820 C   0  0  0  0  0  0  0  0  0  0  0  0
   64.5661   33.1217   50.2448 H   0  0  0  0  0  0  0  0  0  0  0  0
   62.4230   33.1380   49.8530 C   0  0  0  0  0  0  0  0  0  0  0  0
   61.4160   32.8490   48.8860 C   0  0  0  0  0  0  0  0  0  0  0  0
   60.0810   32.6190   49.3420 C   0  0  0  0  0  0  0  0  0  0  0  0
   59.0950   31.9610   48.4930 N   0  0  0  0  0  0  0  0  0  0  0  0
   58.1940   32.4860   48.4660 H   0  0  0  0  0  0  0  0  0  0  0  0
   59.4210   32.0080   47.5020 H   0  0  0  0  0  0  0  0  0  0  0  0
   58.8630   30.5580   48.8940 C   0  0  0  0  0  0  0  0  0  0  0  0
   57.8275   30.4558   49.2508 H   0  0  0  0  0  0  0  0  0  0  0  0
   59.5805   30.3054   49.6886 H   0  0  0  0  0  0  0  0  0  0  0  0
   59.0840   29.5890   47.7240 C   0  0  0  0  0  0  0  0  0  0  0  0
   58.2184   28.9154   47.6409 H   0  0  0  0  0  0  0  0  0  0  0  0
   59.9969   29.0038   47.9084 H   0  0  0  0  0  0  0  0  0  0  0  0
   59.2400   30.3470   46.4570 N   0  0  0  0  0  0  0  0  0  0  0  0
   60.3190   29.7960   45.6060 C   0  0  0  0  0  0  0  0  0  0  0  0
   61.2831   30.2013   45.9469 H   0  0  0  0  0  0  0  0  0  0  0  0
   60.1139   30.0852   44.5647 H   0  0  0  0  0  0  0  0  0  0  0  0
   60.3730   28.2630   45.6730 C   0  0  0  0  0  0  0  0  0  0  0  0
   60.2713   27.9460   46.7214 H   0  0  0  0  0  0  0  0  0  0  0  0
   61.3361   27.9303   45.2584 H   0  0  0  0  0  0  0  0  0  0  0  0
   59.2510   27.6340   44.8520 C   0  0  0  0  0  0  0  0  0  0  0  0
   58.4947   27.2100   45.5289 H   0  0  0  0  0  0  0  0  0  0  0  0
   58.7856   28.4027   44.2176 H   0  0  0  0  0  0  0  0  0  0  0  0
   59.6640   26.8359   44.2176 H   0  0  0  0  0  0  0  0  0  0  0  0
   57.9470   30.5460   45.7560 C   0  0  0  0  0  0  0  0  0  0  0  0
   57.3512   29.6270   45.8585 H   0  0  0  0  0  0  0  0  0  0  0  0
   57.4596   31.4158   46.2207 H   0  0  0  0  0  0  0  0  0  0  0  0
   58.0990   30.8630   44.2540 C   0  0  0  0  0  0  0  0  0  0  0  0
   58.2811   31.9410   44.1322 H   0  0  0  0  0  0  0  0  0  0  0  0
   58.9431   30.2780   43.8600 H   0  0  0  0  0  0  0  0  0  0  0  0
   56.8430   30.4800   43.4750 C   0  0  0  0  0  0  0  0  0  0  0  0
   56.0352   30.2337   44.1799 H   0  0  0  0  0  0  0  0  0  0  0  0
   56.5325   31.3243   42.8419 H   0  0  0  0  0  0  0  0  0  0  0  0
   57.0564   29.6061   42.8419 H   0  0  0  0  0  0  0  0  0  0  0  0
   59.7840   32.8290   50.7200 C   0  0  0  0  0  0  0  0  0  0  0  0
   58.4900   32.5790   51.2500 C   0  0  0  0  0  0  0  0  0  0  0  0
   57.6910   32.2299   50.5794 H   0  0  0  0  0  0  0  0  0  0  0  0
   58.2130   32.7670   52.6010 C   0  0  0  0  0  0  0  0  0  0  0  0
   57.1988   32.5819   52.9845 H   0  0  0  0  0  0  0  0  0  0  0  0
   59.2130   33.1870   53.4640 C   0  0  0  0  0  0  0  0  0  0  0  0
   58.9937   33.3258   54.5329 H   0  0  0  0  0  0  0  0  0  0  0  0
   60.4930   33.4330   52.9800 C   0  0  0  0  0  0  0  0  0  0  0  0
   61.2815   33.7502   53.6783 H   0  0  0  0  0  0  0  0  0  0  0  0
   60.8030   33.2830   51.6020 C   0  0  0  0  0  0  0  0  0  0  0  0
   62.0760   33.5180   51.1300 N   0  0  0  0  0  0  0  0  0  0  0  0
   63.0650   34.2130   51.9870 C   0  0  0  0  0  0  0  0  0  0  0  0
   62.8190   34.0401   53.0451 H   0  0  0  0  0  0  0  0  0  0  0  0
   64.0715   33.8226   51.7761 H   0  0  0  0  0  0  0  0  0  0  0  0
   63.0387   35.2923   51.7761 H   0  0  0  0  0  0  0  0  0  0  0  0
  1  2  1  0
  2  3  2  0
  3  4  1  0
  4  5  1  0
  4  6  1  0
  4  7  1  0
  2  8  1  0
  8  9  1  0
  8 10  1  0
  8 11  1  0
 11 12  1  0
 11 13  1  0
 13 14  2  0
 14 15  1  0
 14 16  1  0
 16 17  1  0
 16 18  2  0
 18 19  1  0
 18 20  1  0
 20 21  2  0
 21 22  1  0
 22 23  1  0
 23 24  1  0
 23 25  1  0
 23 26  1  0
 26 27  1  0
 26 28  1  0
 26 29  1  0
 29 30  1  0
 29 31  1  0
 29 32  1  0
 32 33  1  0
 33 34  1  0
 33 35  1  0
 33 36  1  0
 36 37  1  0
 36 38  1  0
 36 39  1  0
 39 40  1  0
 39 41  1  0
 39 42  1  0
 32 43  1  0
 43 44  1  0
 43 45  1  0
 43 46  1  0
 46 47  1  0
 46 48  1  0
 46 49  1  0
 49 50  1  0
 49 51  1  0
 49 52  1  0
 22 53  2  0
 53 54  1  0
 54 55  1  0
 54 56  2  0
 56 57  1  0
 56 58  1  0
 58 59  1  0
 58 60  2  0
 60 61  1  0
 60 62  1  0
 62 63  2  0
 63 64  1  0
 64 65  1  0
 64 66  1  0
 64 67  1  0
 21 13  1  0
 62 53  1  0
 63 20  1  0
M  CHG  2  23   1  63   1
M  END
>  <UniqueID>  (1) 
1

>  <SMILES>  (1) 
CCCN(CCC)CC[NH2+]c1c2ccccc2[n+](C)c2cccc(NC/C=N/C)c12

>  <Energy>  (1) 
101.47997796834241

>  <Genealogy>  (1) 
CCCN(CCC)CC[NH2+]c1c2ccccc2[n+](C)c2cccc(NCC=NC)c12 (protonated)
CCCN(CCC)CC[NH2+]c1c2ccccc2[n+](C)c2cccc(NC/C=N/C)c12 (cis-trans isomerization)
CCCN(CCC)CC[NH2+]c1c2ccccc2[n+](C)c2cccc(NC/C=N/C)c12 (3D coordinates assigned)
CCCN(CCC)CC[NH2+]c1c2ccccc2[n+](C)c2cccc(NC/C=N/C)c12 (optimized conformer: 101.47997796834241 kcal/mol)

>  <smiles>  (1) 
CCCN(CCC)CCNc1c2ccccc2[n+](C)c2cccc(NCC=NC)c12

>  <score_type>  (1) 
oracle

>  <origin>  (1) 
adg

>  <m_score__min__energy>  (1) 
-3.21

>  <m_primary>  (1) 
energy

$$$$
1:0
     RDKit          3D

 41 43  0  0  0  0  0  0  0  0999 V2000
   57.6570   32.9110   52.6060 C   0  0  0  0  0  0  0  0  0  0  0  0
   58.7730   33.9460   52.5120 C   0  0  0  0  0  0  0  0  0  0  0  0
   59.1110   34.2130   51.1160 N   0  0  0  0  0  0  0  0  0  0  0  0
   59.5760   33.1880   50.2250 C   0  0  0  0  0  0  0  0  0  0  0  0
   59.6880   31.9990   50.6330 O   0  0  0  0  0  0  0  0  0  0  0  0
   59.8800   33.5090   48.8120 C   0  0  0  0  0  0  0  0  0  0  0  0
   58.8080   33.7540   47.9420 C   0  0  0  0  0  0  0  0  0  0  0  0
   59.0460   33.9970   46.5890 C   0  0  0  0  0  0  0  0  0  0  0  0
   57.6790   34.2470   45.4560 S   0  0  0  0  0  0  0  0  0  0  0  0
   58.4150   33.2610   44.1030 C   0  0  0  0  0  0  0  0  0  0  0  0
   57.7640   31.9060   44.0000 C   0  0  0  0  0  0  0  0  0  0  0  0
   57.7370   31.0480   45.1140 C   0  0  0  0  0  0  0  0  0  0  0  0
   57.1790   29.7710   45.0090 C   0  0  0  0  0  0  0  0  0  0  0  0
   56.6410   29.3400   43.7940 C   0  0  0  0  0  0  0  0  0  0  0  0
   56.6610   30.1860   42.6820 C   0  0  0  0  0  0  0  0  0  0  0  0
   57.2220   31.4630   42.7790 C   0  0  0  0  0  0  0  0  0  0  0  0
   57.2440   32.2650   41.6840 F   0  0  0  0  0  0  0  0  0  0  0  0
   60.3170   34.0140   46.1130 N   0  0  0  0  0  0  0  0  0  0  0  0
   61.3880   33.7960   46.9170 C   0  0  0  0  0  0  0  0  0  0  0  0
   62.6760   33.8230   46.3710 C   0  0  0  0  0  0  0  0  0  0  0  0
   63.7890   33.6210   47.1860 C   0  0  0  0  0  0  0  0  0  0  0  0
   63.6230   33.3990   48.5550 C   0  0  0  0  0  0  0  0  0  0  0  0
   62.3430   33.3640   49.1140 C   0  0  0  0  0  0  0  0  0  0  0  0
   61.2030   33.5420   48.3000 C   0  0  0  0  0  0  0  0  0  0  0  0
   57.4355   32.7056   53.6637 H   0  0  0  0  0  0  0  0  0  0  0  0
   56.7545   33.2989   52.1110 H   0  0  0  0  0  0  0  0  0  0  0  0
   57.9760   31.9819   52.1110 H   0  0  0  0  0  0  0  0  0  0  0  0
   58.4407   34.8801   52.9884 H   0  0  0  0  0  0  0  0  0  0  0  0
   59.6642   33.5537   53.0237 H   0  0  0  0  0  0  0  0  0  0  0  0
   58.9850   35.1860   50.7560 H   0  0  0  0  0  0  0  0  0  0  0  0
   57.7776   33.7546   48.3270 H   0  0  0  0  0  0  0  0  0  0  0  0
   58.2786   33.7978   43.1526 H   0  0  0  0  0  0  0  0  0  0  0  0
   59.4843   33.1183   44.3178 H   0  0  0  0  0  0  0  0  0  0  0  0
   58.1574   31.3839   46.0734 H   0  0  0  0  0  0  0  0  0  0  0  0
   57.1634   29.1046   45.8840 H   0  0  0  0  0  0  0  0  0  0  0  0
   56.2017   28.3348   43.7126 H   0  0  0  0  0  0  0  0  0  0  0  0
   56.2339   29.8461   41.7270 H   0  0  0  0  0  0  0  0  0  0  0  0
   62.8110   34.0043   45.2945 H   0  0  0  0  0  0  0  0  0  0  0  0
   64.7990   33.6365   46.7504 H   0  0  0  0  0  0  0  0  0  0  0  0
   64.5044   33.2510   49.1962 H   0  0  0  0  0  0  0  0  0  0  0  0
   62.2226   33.1968   50.1945 H   0  0  0  0  0  0  0  0  0  0  0  0
  1  2  1  0
  2  3  1  0
  3  4  1  0
  4  5  2  0
  4  6  1  0
  6  7  2  0
  7  8  1  0
  8  9  1  0
  9 10  1  0
 10 11  1  0
 11 12  2  0
 12 13  1  0
 13 14  2  0
 14 15  1  0
 15 16  2  0
 16 17  1  0
  8 18  2  0
 18 19  1  0
 19 20  2  0
 20 21  1  0
 21 22  2  0
 22 23  1  0
 23 24  2  0
 24  6  1  0
 16 11  1  0
 24 19  1  0
  1 25  1  0
  1 26  1  0
  1 27  1  0
  2 28  1  0
  2 29  1  0
  3 30  1  0
  7 31  1  0
 10 32  1  0
 10 33  1  0
 12 34  1  0
 13 35  1  0
 14 36  1  0
 15 37  1  0
 20 38  1  0
 21 39  1  0
 22 40  1  0
 23 41  1  0
M  END
>  <UniqueID>  (2) 
2

>  <SMILES>  (2) 
CCNC(=O)c1cc(SCc2ccccc2F)nc2ccccc12

>  <Energy>  (2) 
43.277500485984845

>  <Genealogy>  (2) 
CCNC(=O)c1cc(SCc2ccccc2F)nc2ccccc12 (3D coordinates assigned)
CCNC(=O)c1cc(SCc2ccccc2F)nc2ccccc12 (optimized conformer: 43.277500485984845 kcal/mol)

>  <smiles>  (2) 
CCNC(=O)c1cc(SCc2ccccc2F)nc2ccccc12

>  <score_type>  (2) 
oracle

>  <origin>  (2) 
adg

>  <m_score__min__energy>  (2) 
-8.1199999999999992

>  <m_primary>  (2) 
energy

$$$$
2:0
     RDKit          3D

 52 54  0  0  0  0  0  0  0  0999 V2000
   59.3210   34.9990   45.2670 C   0  0  0  0  0  0  0  0  0  0  0  0
   58.3900   34.4630   46.3520 C   0  0  0  0  0  0  0  0  0  0  0  0
   57.3320   33.6540   45.7370 N   0  0  0  0  0  0  0  0  0  0  0  0
   57.7620   33.1470   44.4270 C   0  0  0  0  0  0  0  0  0  0  0  0
   57.5300   31.6350   44.3460 C   0  0  0  0  0  0  0  0  0  0  0  0
   57.3900   31.0800   45.6380 O   0  0  0  0  0  0  0  0  0  0  0  0
   58.2900   30.0060   45.8330 C   0  0  0  0  0  0  0  0  0  0  0  0
   59.4170   30.4640   46.7540 C   0  0  0  0  0  0  0  0  0  0  0  0
   59.0810   31.7340   47.3930 N   0  0  0  0  0  0  0  0  0  0  0  0
   59.9100   32.2650   48.4350 C   0  0  0  0  0  0  0  0  0  0  0  0
   61.1690   32.8040   48.1290 C   0  0  0  0  0  0  0  0  0  0  0  0
   61.6030   32.9060   46.7890 C   0  0  0  0  0  0  0  0  0  0  0  0
   62.8430   33.4670   46.4850 C   0  0  0  0  0  0  0  0  0  0  0  0
   63.6570   33.9540   47.5030 C   0  0  0  0  0  0  0  0  0  0  0  0
   63.2450   33.8670   48.8340 C   0  0  0  0  0  0  0  0  0  0  0  0
   62.0070   33.2630   49.1810 C   0  0  0  0  0  0  0  0  0  0  0  0
   61.6020   33.1330   50.4970 N   0  0  0  0  0  0  0  0  0  0  0  0
   62.5730   33.3420   51.5930 C   0  0  0  0  0  0  0  0  0  0  0  0
   60.2960   32.7800   50.7860 C   0  0  0  0  0  0  0  0  0  0  0  0
   59.7640   32.8900   52.0960 C   0  0  0  0  0  0  0  0  0  0  0  0
   58.4620   32.4760   52.3840 C   0  0  0  0  0  0  0  0  0  0  0  0
   57.6490   31.9540   51.3790 C   0  0  0  0  0  0  0  0  0  0  0  0
   56.3180   31.5240   51.6810 N   0  0  0  0  0  0  0  0  0  0  0  0
   58.1360   31.8720   50.0710 C   0  0  0  0  0  0  0  0  0  0  0  0
   59.4420   32.3010   49.7580 C   0  0  0  0  0  0  0  0  0  0  0  0
   60.1833   35.4954   45.7361 H   0  0  0  0  0  0  0  0  0  0  0  0
   59.6734   34.1655   44.6416 H   0  0  0  0  0  0  0  0  0  0  0  0
   58.7771   35.7222   44.6416 H   0  0  0  0  0  0  0  0  0  0  0  0
   58.9653   33.8411   47.0536 H   0  0  0  0  0  0  0  0  0  0  0  0
   57.9368   35.3063   46.8938 H   0  0  0  0  0  0  0  0  0  0  0  0
   57.1570   32.8300   46.3620 H   0  0  0  0  0  0  0  0  0  0  0  0
   57.1839   33.6467   43.6358 H   0  0  0  0  0  0  0  0  0  0  0  0
   58.8341   33.3544   44.2948 H   0  0  0  0  0  0  0  0  0  0  0  0
   56.6140   31.4409   43.7687 H   0  0  0  0  0  0  0  0  0  0  0  0
   58.3974   31.1705   43.8543 H   0  0  0  0  0  0  0  0  0  0  0  0
   57.7595   29.1589   46.2923 H   0  0  0  0  0  0  0  0  0  0  0  0
   58.7061   29.6892   44.8653 H   0  0  0  0  0  0  0  0  0  0  0  0
   59.5806   29.7019   47.5302 H   0  0  0  0  0  0  0  0  0  0  0  0
   60.3287   30.6015   46.1541 H   0  0  0  0  0  0  0  0  0  0  0  0
   58.2040   32.2470   47.1440 H   0  0  0  0  0  0  0  0  0  0  0  0
   60.9570   32.5396   45.9776 H   0  0  0  0  0  0  0  0  0  0  0  0
   63.1781   33.5246   45.4389 H   0  0  0  0  0  0  0  0  0  0  0  0
   64.6281   34.4089   47.2583 H   0  0  0  0  0  0  0  0  0  0  0  0
   63.8898   34.2730   49.6273 H   0  0  0  0  0  0  0  0  0  0  0  0
   62.0624   33.2321   52.5611 H   0  0  0  0  0  0  0  0  0  0  0  0
   63.3783   32.5966   51.5165 H   0  0  0  0  0  0  0  0  0  0  0  0
   63.0004   34.3527   51.5165 H   0  0  0  0  0  0  0  0  0  0  0  0
   60.3880   33.3088   52.8993 H   0  0  0  0  0  0  0  0  0  0  0  0
   58.0754   32.5623   53.4102 H   0  0  0  0  0  0  0  0  0  0  0  0
   56.0830   31.1260   52.6180 H   0  0  0  0  0  0  0  0  0  0  0  0
   55.5540   31.6070   50.9730 H   0  0  0  0  0  0  0  0  0  0  0  0
   57.4921   31.4677   49.2761 H   0  0  0  0  0  0  0  0  0  0  0  0
  1  2  1  0
  2  3  1  0
  3  4  1  0
  4  5  1  0
  5  6  1  0
  6  7  1  0
  7  8  1  0
  8  9  1  0
  9 10  1  0
 10 11  2  0
 11 12  1  0
 12 13  2  0
 13 14  1  0
 14 15  2  0
 15 16  1  0
 16 17  2  0
 17 18  1  0
 17 19  1  0
 19 20  2  0
 20 21  1  0
 21 22  2  0
 22 23  1  0
 22 24  1  0
 24 25  2  0
 25 10  1  0
 16 11  1  0
 25 19  1  0
  1 26  1  0
  1 27  1  0
  1 28  1  0
  2 29  1  0
  2 30  1  0
  3 31  1  0
  4 32  1  0
  4 33  1  0
  5 34  1  0
  5 35  1  0
  7 36  1  0
  7 37  1  0
  8 38  1  0
  8 39  1  0
  9 40  1  0
 12 41  1  0
 13 42  1  0
 14 43  1  0
 15 44  1  0
 18 45  1  0
 18 46  1  0
 18 47  1  0
 20 48  1  0
 21 49  1  0
 23 50  1  0
 23 51  1  0
 24 52  1  0
M  CHG  1  17   1
M  END
>  <UniqueID>  (3) 
3

>  <SMILES>  (3) 
CCNCCOCCNc1c2ccccc2[n+](C)c2ccc(N)cc12

>  <Energy>  (3) 
71.0690715718958

>  <Genealogy>  (3) 
CCNCCOCCNc1c2ccccc2[n+](C)c2ccc(N)cc12 (3D coordinates assigned)
CCNCCOCCNc1c2ccccc2[n+](C)c2ccc(N)cc12 (optimized conformer: 71.0690715718958 kcal/mol)

>  <smiles>  (3) 
CCNCCOCCNc1c2ccccc2[n+](C)c2ccc(N)cc12

>  <score_type>  (3) 
oracle

>  <origin>  (3) 
adg

>  <m_score__min__energy>  (3) 
-5.0599999999999996

>  <m_primary>  (3) 
energy

$$$$
3:0
     RDKit          3D

 50 52  0  0  0  0  0  0  0  0999 V2000
   60.9670   30.3670   50.5180 C   0  0  0  0  0  0  0  0  0  0  0  0
   61.1750   28.8680   50.2880 C   0  0  0  0  0  0  0  0  0  0  0  0
   60.1210   28.2820   49.4410 N   0  0  0  0  0  0  0  0  0  0  0  0
   60.5410   27.0260   48.7970 C   0  0  0  0  0  0  0  0  0  0  0  0
   59.7200   26.7550   47.5230 C   0  0  0  0  0  0  0  0  0  0  0  0
   60.4770   27.0670   46.2200 C   0  0  0  0  0  0  0  0  0  0  0  0
   60.4810   28.5650   45.8720 C   0  0  0  0  0  0  0  0  0  0  0  0
   60.3880   29.4270   47.0710 N   0  0  0  0  0  0  0  0  0  0  0  0
   60.3780   30.8470   46.7370 C   0  0  0  0  0  0  0  0  0  0  0  0
   61.4590   31.7030   47.0970 C   0  0  0  0  0  0  0  0  0  0  0  0
   62.6330   31.2170   47.7270 C   0  0  0  0  0  0  0  0  0  0  0  0
   63.7010   32.0610   48.0190 C   0  0  0  0  0  0  0  0  0  0  0  0
   63.6380   33.4040   47.6860 C   0  0  0  0  0  0  0  0  0  0  0  0
   62.4930   33.9200   47.0880 C   0  0  0  0  0  0  0  0  0  0  0  0
   61.3690   33.0980   46.8170 C   0  0  0  0  0  0  0  0  0  0  0  0
   60.2150   33.6290   46.2810 N   0  0  0  0  0  0  0  0  0  0  0  0
   59.9940   35.0940   46.3050 C   0  0  0  0  0  0  0  0  0  0  0  0
   59.2530   32.7980   45.7470 C   0  0  0  0  0  0  0  0  0  0  0  0
   58.2160   33.3110   44.9250 C   0  0  0  0  0  0  0  0  0  0  0  0
   57.2090   32.4870   44.4340 C   0  0  0  0  0  0  0  0  0  0  0  0
   57.2080   31.1330   44.7360 C   0  0  0  0  0  0  0  0  0  0  0  0
   55.9320   30.1000   44.1180 Cl  0  0  0  0  0  0  0  0  0  0  0  0
   58.2350   30.5910   45.5060 C   0  0  0  0  0  0  0  0  0  0  0  0
   59.2910   31.4000   46.0020 C   0  0  0  0  0  0  0  0  0  0  0  0
   60.9386   30.5717   51.5984 H   0  0  0  0  0  0  0  0  0  0  0  0
   61.7961   30.9267   50.0604 H   0  0  0  0  0  0  0  0  0  0  0  0
   60.0168   30.6798   50.0604 H   0  0  0  0  0  0  0  0  0  0  0  0
   62.1480   28.7167   49.7978 H   0  0  0  0  0  0  0  0  0  0  0  0
   61.1373   28.3683   51.2672 H   0  0  0  0  0  0  0  0  0  0  0  0
   59.2620   28.1060   50.0130 H   0  0  0  0  0  0  0  0  0  0  0  0
   61.6057   27.0977   48.5299 H   0  0  0  0  0  0  0  0  0  0  0  0
   60.3744   26.1988   49.5026 H   0  0  0  0  0  0  0  0  0  0  0  0
   59.4352   25.6926   47.5131 H   0  0  0  0  0  0  0  0  0  0  0  0
   58.8472   27.4237   47.5552 H   0  0  0  0  0  0  0  0  0  0  0  0
   61.5182   26.7298   46.3301 H   0  0  0  0  0  0  0  0  0  0  0  0
   59.9594   26.5409   45.4044 H   0  0  0  0  0  0  0  0  0  0  0  0
   61.4144   28.8008   45.3399 H   0  0  0  0  0  0  0  0  0  0  0  0
   59.5974   28.7649   45.2481 H   0  0  0  0  0  0  0  0  0  0  0  0
   61.1220   29.1750   47.7650 H   0  0  0  0  0  0  0  0  0  0  0  0
   59.5130   29.1930   47.5910 H   0  0  0  0  0  0  0  0  0  0  0  0
   62.7011   30.1512   47.9904 H   0  0  0  0  0  0  0  0  0  0  0  0
   64.5971   31.6603   48.5154 H   0  0  0  0  0  0  0  0  0  0  0  0
   64.4938   34.0628   47.8945 H   0  0  0  0  0  0  0  0  0  0  0  0
   62.4584   34.9863   46.8200 H   0  0  0  0  0  0  0  0  0  0  0  0
   59.9418   35.4399   47.3479 H   0  0  0  0  0  0  0  0  0  0  0  0
   60.8262   35.5988   45.7925 H   0  0  0  0  0  0  0  0  0  0  0  0
   59.0500   35.3309   45.7925 H   0  0  0  0  0  0  0  0  0  0  0  0
   58.2086   34.3813   44.6713 H   0  0  0  0  0  0  0  0  0  0  0  0
   56.4117   32.9097   43.8049 H   0  0  0  0  0  0  0  0  0  0  0  0
   58.2275   29.5149   45.7341 H   0  0  0  0  0  0  0  0  0  0  0  0
  1  2  1  0
  2  3  1  0
  3  4  1  0
  4  5  1  0
  5  6  1  0
  6  7  1  0
  7  8  1  0
  8  9  1  0
  9 10  2  0
 10 11  1  0
 11 12  2  0
 12 13  1  0
 13 14  2  0
 14 15  1  0
 15 16  2  0
 16 17  1  0
 16 18  1  0
 18 19  2  0
 19 20  1  0
 20 21  2  0
 21 22  1  0
 21 23  1  0
 23 24  2  0
 24  9  1  0
 15 10  1  0
 24 18  1  0
  1 25  1  0
  1 26  1  0
  1 27  1  0
  2 28  1  0
  2 29  1  0
  3 30  1  0
  4 31  1  0
  4 32  1  0
  5 33  1  0
  5 34  1  0
  6 35  1  0
  6 36  1  0
  7 37  1  0
  7 38  1  0
  8 39  1  0
  8 40  1  0
 11 41  1  0
 12 42  1  0
 13 43  1  0
 14 44  1  0
 17 45  1  0
 17 46  1  0
 17 47  1  0
 19 48  1  0
 20 49  1  0
 23 50  1  0
M  CHG  2   8   1  16   1
M  END
>  <UniqueID>  (4) 
4

>  <SMILES>  (4) 
CCNCCCC[NH2+]c1c2ccccc2[n+](C)c2ccc(Cl)cc12

>  <Energy>  (4) 
76.5111530379573

>  <Genealogy>  (4) 
CCNCCCC[NH2+]c1c2ccccc2[n+](C)c2ccc(Cl)cc12 (protonated)
CCNCCCC[NH2+]c1c2ccccc2[n+](C)c2ccc(Cl)cc12 (3D coordinates assigned)
CCNCCCC[NH2+]c1c2ccccc2[n+](C)c2ccc(Cl)cc12 (optimized conformer: 76.5111530379573 kcal/mol)

>  <smiles>  (4) 
CCNCCCCNc1c2ccccc2[n+](C)c2ccc(Cl)cc12

>  <score_type>  (4) 
oracle

>  <origin>  (4) 
adg

>  <m_score__min__energy>  (4) 
-5.0199999999999996

>  <m_primary>  (4) 
energy

$$$$
4:0
     RDKit          3D

 59 61  0  0  0  0  0  0  0  0999 V2000
   61.1450   26.7800   50.6030 C   0  0  0  0  0  0  0  0  0  0  0  0
   60.7590   28.0330   49.8200 C   0  0  0  0  0  0  0  0  0  0  0  0
   61.5140   29.2370   50.3110 C   0  0  0  0  0  0  0  0  0  0  0  0
   62.3470   29.0820   51.2440 O   0  0  0  0  0  0  0  0  0  0  0  0
   61.3880   30.5740   49.6870 C   0  0  0  0  0  0  0  0  0  0  0  0
   62.4660   31.3390   49.2780 C   0  0  0  0  0  0  0  0  0  0  0  0
   62.0380   32.5000   48.7440 N   0  0  0  0  0  0  0  0  0  0  0  0
   62.9130   33.5460   48.2110 C   0  0  0  0  0  0  0  0  0  0  0  0
   62.9700   33.4700   46.6890 C   0  0  0  0  0  0  0  0  0  0  0  0
   60.6880   32.5040   48.8150 C   0  0  0  0  0  0  0  0  0  0  0  0
   59.8280   33.6160   48.3510 C   0  0  0  0  0  0  0  0  0  0  0  0
   59.6630   34.6110   49.1050 O   0  0  0  0  0  0  0  0  0  0  0  0
   59.1590   33.5860   47.0260 C   0  0  0  0  0  0  0  0  0  0  0  0
   59.3380   34.6350   46.1060 C   0  0  0  0  0  0  0  0  0  0  0  0
   58.7020   34.6000   44.8630 C   0  0  0  0  0  0  0  0  0  0  0  0
   57.8790   33.5240   44.5270 C   0  0  0  0  0  0  0  0  0  0  0  0
   57.6760   32.4770   45.4310 C   0  0  0  0  0  0  0  0  0  0  0  0
   56.8360   31.4220   45.0450 O   0  0  0  0  0  0  0  0  0  0  0  0
   57.0070   30.6400   43.8660 C   0  0  0  0  0  0  0  0  0  0  0  0
   56.9010   29.1470   44.1970 C   0  0  0  0  0  0  0  0  0  0  0  0
   58.1820   28.6030   44.7020 N   0  0  0  0  0  0  0  0  0  0  0  0
   59.2860   29.5870   44.5850 C   0  0  0  0  0  0  0  0  0  0  0  0
   60.4000   29.3000   45.6050 C   0  0  0  0  0  0  0  0  0  0  0  0
   59.9670   29.3720   46.9570 O   0  0  0  0  0  0  0  0  0  0  0  0
   58.5900   29.0600   47.1320 C   0  0  0  0  0  0  0  0  0  0  0  0
   58.0430   28.0750   46.0820 C   0  0  0  0  0  0  0  0  0  0  0  0
   58.3180   32.5130   46.6840 C   0  0  0  0  0  0  0  0  0  0  0  0
   60.2460   31.3280   49.4150 C   0  0  0  0  0  0  0  0  0  0  0  0
   58.8260   31.0070   49.7800 C   0  0  0  0  0  0  0  0  0  0  0  0
   61.0811   26.9873   51.6814 H   0  0  0  0  0  0  0  0  0  0  0  0
   60.4576   25.9606   50.3458 H   0  0  0  0  0  0  0  0  0  0  0  0
   62.1743   26.4895   50.3458 H   0  0  0  0  0  0  0  0  0  0  0  0
   60.9883   27.8755   48.7557 H   0  0  0  0  0  0  0  0  0  0  0  0
   59.6836   28.2148   49.9631 H   0  0  0  0  0  0  0  0  0  0  0  0
   63.5208   31.0422   49.3748 H   0  0  0  0  0  0  0  0  0  0  0  0
   62.5240   34.5305   48.5100 H   0  0  0  0  0  0  0  0  0  0  0  0
   63.9267   33.4009   48.6128 H   0  0  0  0  0  0  0  0  0  0  0  0
   63.6048   32.6237   46.3877 H   0  0  0  0  0  0  0  0  0  0  0  0
   61.9547   33.3268   46.2907 H   0  0  0  0  0  0  0  0  0  0  0  0
   63.3917   34.4047   46.2907 H   0  0  0  0  0  0  0  0  0  0  0  0
   59.9824   35.4875   46.3670 H   0  0  0  0  0  0  0  0  0  0  0  0
   58.8500   35.4222   44.1474 H   0  0  0  0  0  0  0  0  0  0  0  0
   57.3865   33.4996   43.5437 H   0  0  0  0  0  0  0  0  0  0  0  0
   56.2268   30.9064   43.1377 H   0  0  0  0  0  0  0  0  0  0  0  0
   58.0023   30.8428   43.4437 H   0  0  0  0  0  0  0  0  0  0  0  0
   56.1270   29.0069   44.9659 H   0  0  0  0  0  0  0  0  0  0  0  0
   56.6423   28.6096   43.2727 H   0  0  0  0  0  0  0  0  0  0  0  0
   59.7070   29.5343   43.5701 H   0  0  0  0  0  0  0  0  0  0  0  0
   58.8805   30.5895   44.7863 H   0  0  0  0  0  0  0  0  0  0  0  0
   60.7901   28.2886   45.4183 H   0  0  0  0  0  0  0  0  0  0  0  0
   61.1677   30.0763   45.4707 H   0  0  0  0  0  0  0  0  0  0  0  0
   58.4584   28.6142   48.1290 H   0  0  0  0  0  0  0  0  0  0  0  0
   58.0291   29.9992   47.0165 H   0  0  0  0  0  0  0  0  0  0  0  0
   58.5990   27.1289   46.1584 H   0  0  0  0  0  0  0  0  0  0  0  0
   56.9721   27.9232   46.2825 H   0  0  0  0  0  0  0  0  0  0  0  0
   58.1599   31.6942   47.4013 H   0  0  0  0  0  0  0  0  0  0  0  0
   58.7251   30.9842   50.8751 H   0  0  0  0  0  0  0  0  0  0  0  0
   58.1581   31.7768   49.3662 H   0  0  0  0  0  0  0  0  0  0  0  0
   58.5541   30.0247   49.3662 H   0  0  0  0  0  0  0  0  0  0  0  0
  1  2  1  0
  2  3  1  0
  3  4  2  0
  3  5  1  0
  5  6  2  0
  6  7  1  0
  7  8  1  0
  8  9  1  0
  7 10  1  0
 10 11  1  0
 11 12  2  0
 11 13  1  0
 13 14  2  0
 14 15  1  0
 15 16  2  0
 16 17  1  0
 17 18  1  0
 18 19  1  0
 19 20  1  0
 20 21  1  0
 21 22  1  0
 22 23  1  0
 23 24  1  0
 24 25  1  0
 25 26  1  0
 17 27  2  0
 10 28  2  0
 28 29  1  0
 28  5  1  0
 27 13  1  0
 26 21  1  0
  1 30  1  0
  1 31  1  0
  1 32  1  0
  2 33  1  0
  2 34  1  0
  6 35  1  0
  8 36  1  0
  8 37  1  0
  9 38  1  0
  9 39  1  0
  9 40  1  0
 14 41  1  0
 15 42  1  0
 16 43  1  0
 19 44  1  0
 19 45  1  0
 20 46  1  0
 20 47  1  0
 22 48  1  0
 22 49  1  0
 23 50  1  0
 23 51  1  0
 25 52  1  0
 25 53  1  0
 26 54  1  0
 26 55  1  0
 27 56  1  0
 29 57  1  0
 29 58  1  0
 29 59  1  0
M  END
>  <UniqueID>  (5) 
5

>  <SMILES>  (5) 
CCC(=O)c1cn(CC)c(C(=O)c2cccc(OCCN3CCOCC3)c2)c1C

>  <Energy>  (5) 
101.62423080522123

>  <Genealogy>  (5) 
CCC(=O)c1cn(CC)c(C(=O)c2cccc(OCCN3CCOCC3)c2)c1C (3D coordinates assigned)
CCC(=O)c1cn(CC)c(C(=O)c2cccc(OCCN3CCOCC3)c2)c1C (nonaromatic ring conformer: 101.62423080522123 kcal/mol)

>  <smiles>  (5) 
CCC(=O)c1cn(CC)c(C(=O)c2cccc(OCCN3CCOCC3)c2)c1C

>  <score_type>  (5) 
oracle

>  <origin>  (5) 
adg

>  <m_score__min__energy>  (5) 
-8.9499999999999993

>  <m_primary>  (5) 
energy

$$$$
5:0
     RDKit          3D

 46 48  0  0  0  0  0  0  0  0999 V2000
   63.4060   31.8800   47.1360 C   0  0  0  0  0  0  0  0  0  0  0  0
   62.6260   31.6140   48.4180 C   0  0  0  0  0  0  0  0  0  0  0  0
   62.1830   32.8970   49.0140 N   0  0  0  0  0  0  0  0  0  0  0  0
   63.2530   33.4820   49.8400 C   0  0  0  0  0  0  0  0  0  0  0  0
   60.9480   32.7360   49.8110 C   0  0  0  0  0  0  0  0  0  0  0  0
   59.8400   33.6360   49.2510 C   0  0  0  0  0  0  0  0  0  0  0  0
   60.3820   34.6000   48.1800 C   0  0  0  0  0  0  0  0  0  0  0  0
   60.6400   33.9200   46.8990 N   0  0  0  0  0  0  0  0  0  0  0  0
   59.4110   33.5440   46.2340 C   0  0  0  0  0  0  0  0  0  0  0  0
   58.6140   34.5310   45.6280 C   0  0  0  0  0  0  0  0  0  0  0  0
   57.4360   34.1860   44.9650 C   0  0  0  0  0  0  0  0  0  0  0  0
   57.0360   32.8530   44.8870 C   0  0  0  0  0  0  0  0  0  0  0  0
   57.8190   31.8420   45.4720 C   0  0  0  0  0  0  0  0  0  0  0  0
   57.4590   30.4850   45.3940 C   0  0  0  0  0  0  0  0  0  0  0  0
   56.4020   30.1370   44.7990 O   0  0  0  0  0  0  0  0  0  0  0  0
   58.2940   29.5190   45.9830 C   0  0  0  0  0  0  0  0  0  0  0  0
   58.0000   28.1430   45.9320 C   0  0  0  0  0  0  0  0  0  0  0  0
   58.8650   27.2180   46.5250 C   0  0  0  0  0  0  0  0  0  0  0  0
   60.0260   27.6550   47.1710 C   0  0  0  0  0  0  0  0  0  0  0  0
   60.3260   29.0180   47.2290 C   0  0  0  0  0  0  0  0  0  0  0  0
   59.4670   29.9530   46.6410 C   0  0  0  0  0  0  0  0  0  0  0  0
   59.7660   31.2450   46.7000 O   0  0  0  0  0  0  0  0  0  0  0  0
   59.0120   32.1920   46.1510 C   0  0  0  0  0  0  0  0  0  0  0  0
   64.4194   32.2256   47.3884 H   0  0  0  0  0  0  0  0  0  0  0  0
   63.4707   30.9531   46.5472 H   0  0  0  0  0  0  0  0  0  0  0  0
   62.8909   32.6533   46.5472 H   0  0  0  0  0  0  0  0  0  0  0  0
   61.7459   30.9955   48.1879 H   0  0  0  0  0  0  0  0  0  0  0  0
   63.2740   31.0867   49.1336 H   0  0  0  0  0  0  0  0  0  0  0  0
   63.0091   33.3486   50.9043 H   0  0  0  0  0  0  0  0  0  0  0  0
   64.2054   32.9791   49.6163 H   0  0  0  0  0  0  0  0  0  0  0  0
   63.3437   34.5552   49.6163 H   0  0  0  0  0  0  0  0  0  0  0  0
   60.6212   31.6866   49.7680 H   0  0  0  0  0  0  0  0  0  0  0  0
   61.1519   33.0214   50.8536 H   0  0  0  0  0  0  0  0  0  0  0  0
   59.0599   33.0043   48.8011 H   0  0  0  0  0  0  0  0  0  0  0  0
   59.4311   34.2346   50.0783 H   0  0  0  0  0  0  0  0  0  0  0  0
   59.6431   35.3980   48.0150 H   0  0  0  0  0  0  0  0  0  0  0  0
   61.3365   35.0076   48.5443 H   0  0  0  0  0  0  0  0  0  0  0  0
   61.2310   34.5250   46.2830 H   0  0  0  0  0  0  0  0  0  0  0  0
   61.1990   33.0560   47.0900 H   0  0  0  0  0  0  0  0  0  0  0  0
   58.9223   35.5858   45.6771 H   0  0  0  0  0  0  0  0  0  0  0  0
   56.8195   34.9702   44.5013 H   0  0  0  0  0  0  0  0  0  0  0  0
   56.1037   32.5907   44.3655 H   0  0  0  0  0  0  0  0  0  0  0  0
   57.0881   27.7949   45.4247 H   0  0  0  0  0  0  0  0  0  0  0  0
   58.6317   26.1438   46.4833 H   0  0  0  0  0  0  0  0  0  0  0  0
   60.7044   26.9236   47.6345 H   0  0  0  0  0  0  0  0  0  0  0  0
   61.2401   29.3572   47.7383 H   0  0  0  0  0  0  0  0  0  0  0  0
  1  2  1  0
  2  3  1  0
  3  4  1  0
  3  5  1  0
  5  6  1  0
  6  7  1  0
  7  8  1  0
  8  9  1  0
  9 10  2  0
 10 11  1  0
 11 12  2  0
 12 13  1  0
 13 14  1  0
 14 15  2  0
 14 16  1  0
 16 17  2  0
 17 18  1  0
 18 19  2  0
 19 20  1  0
 20 21  2  0
 21 22  1  0
 22 23  1  0
 23  9  1  0
 23 13  2  0
 21 16  1  0
  1 24  1  0
  1 25  1  0
  1 26  1  0
  2 27  1  0
  2 28  1  0
  4 29  1  0
  4 30  1  0
  4 31  1  0
  5 32  1  0
  5 33  1  0
  6 34  1  0
  6 35  1  0
  7 36  1  0
  7 37  1  0
  8 38  1  0
  8 39  1  0
 10 40  1  0
 11 41  1  0
 12 42  1  0
 17 43  1  0
 18 44  1  0
 19 45  1  0
 20 46  1  0
M  CHG  1   8   1
M  END
>  <UniqueID>  (6) 
6

>  <SMILES>  (6) 
CCN(C)CCC[NH2+]c1cccc2c(=O)c3ccccc3oc12

>  <Energy>  (6) 
53.64388834831283

>  <Genealogy>  (6) 
CCN(C)CCC[NH2+]c1cccc2c(=O)c3ccccc3oc12 (protonated)
CCN(C)CCC[NH2+]c1cccc2c(=O)c3ccccc3oc12 (3D coordinates assigned)
CCN(C)CCC[NH2+]c1cccc2c(=O)c3ccccc3oc12 (optimized conformer: 53.64388834831283 kcal/mol)

>  <smiles>  (6) 
CCN(C)CCCNc1cccc2c(=O)c3ccccc3oc12

>  <score_type>  (6) 
oracle

>  <origin>  (6) 
adg

>  <m_score__min__energy>  (6) 
-5.54

>  <m_primary>  (6) 
energy

$$$$
6:0
     RDKit          3D

 70 74  0  0  0  0  0  0  0  0999 V2000
   59.1610   33.8800   51.6150 C   0  0  0  0  0  0  0  0  0  0  0  0
   59.7400   32.5470   52.0860 C   0  0  0  0  0  0  0  0  0  0  0  0
   58.8220   31.4390   51.7500 N   0  0  0  0  0  0  0  0  0  0  0  0
   57.6760   31.2580   52.6690 C   0  0  0  0  0  0  0  0  0  0  0  0
   56.3120   31.1980   51.9760 C   0  0  0  0  0  0  0  0  0  0  0  0
   59.4660   30.2020   51.2500 C   0  0  0  0  0  0  0  0  0  0  0  0
   59.0100   29.7700   49.8350 C   0  0  0  0  0  0  0  0  0  0  0  0
   59.6660   28.4540   49.4050 C   0  0  0  0  0  0  0  0  0  0  0  0
   60.3140   28.5930   48.1010 N   0  0  0  0  0  0  0  0  0  0  0  0
   59.6170   29.0610   46.9330 C   0  0  0  0  0  0  0  0  0  0  0  0
   59.4910   30.4260   46.6700 C   0  0  0  0  0  0  0  0  0  0  0  0
   58.7800   30.8750   45.5730 C   0  0  0  0  0  0  0  0  0  0  0  0
   58.0750   30.0180   44.7650 N   0  0  0  0  0  0  0  0  0  0  0  0
   57.0660   30.5440   43.8290 C   0  0  0  0  0  0  0  0  0  0  0  0
   58.2760   28.6540   44.9110 C   0  0  0  0  0  0  0  0  0  0  0  0
   57.7670   27.7230   43.9740 C   0  0  0  0  0  0  0  0  0  0  0  0
   57.9370   26.3510   44.1610 C   0  0  0  0  0  0  0  0  0  0  0  0
   58.6210   25.8720   45.2730 C   0  0  0  0  0  0  0  0  0  0  0  0
   59.1660   26.7620   46.1960 C   0  0  0  0  0  0  0  0  0  0  0  0
   59.0220   28.1530   46.0260 C   0  0  0  0  0  0  0  0  0  0  0  0
   58.8260   32.3440   45.5800 C   0  0  0  0  0  0  0  0  0  0  0  0
   58.4710   33.2810   44.5990 C   0  0  0  0  0  0  0  0  0  0  0  0
   58.6800   34.6410   44.8610 C   0  0  0  0  0  0  0  0  0  0  0  0
   59.2650   35.0540   46.0680 C   0  0  0  0  0  0  0  0  0  0  0  0
   59.6810   34.1060   47.0240 C   0  0  0  0  0  0  0  0  0  0  0  0
   60.3440   34.5570   48.3040 C   0  0  0  0  0  0  0  0  0  0  0  0
   61.6930   33.9890   48.4290 N   0  0  0  0  0  0  0  0  0  0  0  0
   62.2010   33.6950   49.6670 C   0  0  0  0  0  0  0  0  0  0  0  0
   63.4870   33.1640   49.7990 C   0  0  0  0  0  0  0  0  0  0  0  0
   64.2590   32.9490   48.6590 C   0  0  0  0  0  0  0  0  0  0  0  0
   63.7400   33.2620   47.4040 C   0  0  0  0  0  0  0  0  0  0  0  0
   62.4490   33.7870   47.3060 C   0  0  0  0  0  0  0  0  0  0  0  0
   59.4740   32.7460   46.7380 C   0  0  0  0  0  0  0  0  0  0  0  0
   59.9680   31.5690   47.5180 C   0  0  0  0  0  0  0  0  0  0  0  0
   58.8947   34.4932   52.4885 H   0  0  0  0  0  0  0  0  0  0  0  0
   59.9095   34.4111   51.0087 H   0  0  0  0  0  0  0  0  0  0  0  0
   58.2619   33.6955   51.0087 H   0  0  0  0  0  0  0  0  0  0  0  0
   60.7083   32.3778   51.5923 H   0  0  0  0  0  0  0  0  0  0  0  0
   59.8730   32.5816   53.1774 H   0  0  0  0  0  0  0  0  0  0  0  0
   57.8230   30.3179   53.2210 H   0  0  0  0  0  0  0  0  0  0  0  0
   57.6565   32.1416   53.3238 H   0  0  0  0  0  0  0  0  0  0  0  0
   55.5164   31.1630   52.7348 H   0  0  0  0  0  0  0  0  0  0  0  0
   56.1804   32.0912   51.3477 H   0  0  0  0  0  0  0  0  0  0  0  0
   56.2593   30.2967   51.3477 H   0  0  0  0  0  0  0  0  0  0  0  0
   60.5534   30.3660   51.2258 H   0  0  0  0  0  0  0  0  0  0  0  0
   59.1690   29.3946   51.9355 H   0  0  0  0  0  0  0  0  0  0  0  0
   57.9177   29.6399   49.8368 H   0  0  0  0  0  0  0  0  0  0  0  0
   59.3128   30.5524   49.1236 H   0  0  0  0  0  0  0  0  0  0  0  0
   60.4200   28.1668   50.1526 H   0  0  0  0  0  0  0  0  0  0  0  0
   58.8860   27.6822   49.3283 H   0  0  0  0  0  0  0  0  0  0  0  0
   61.3190   28.3220   48.0060 H   0  0  0  0  0  0  0  0  0  0  0  0
   56.2307   30.9795   44.3970 H   0  0  0  0  0  0  0  0  0  0  0  0
   57.5222   31.3190   43.1956 H   0  0  0  0  0  0  0  0  0  0  0  0
   56.6918   29.7262   43.1956 H   0  0  0  0  0  0  0  0  0  0  0  0
   57.2297   28.0866   43.0857 H   0  0  0  0  0  0  0  0  0  0  0  0
   57.5276   25.6439   43.4245 H   0  0  0  0  0  0  0  0  0  0  0  0
   58.7320   24.7881   45.4242 H   0  0  0  0  0  0  0  0  0  0  0  0
   59.7147   26.3743   47.0670 H   0  0  0  0  0  0  0  0  0  0  0  0
   58.0369   32.9544   43.6425 H   0  0  0  0  0  0  0  0  0  0  0  0
   58.3830   35.3920   44.1141 H   0  0  0  0  0  0  0  0  0  0  0  0
   59.3999   36.1269   46.2695 H   0  0  0  0  0  0  0  0  0  0  0  0
   60.4148   35.6547   48.3046 H   0  0  0  0  0  0  0  0  0  0  0  0
   59.7379   34.2085   49.1532 H   0  0  0  0  0  0  0  0  0  0  0  0
   61.5917   33.8784   50.5643 H   0  0  0  0  0  0  0  0  0  0  0  0
   63.8863   32.9179   50.7940 H   0  0  0  0  0  0  0  0  0  0  0  0
   65.2737   32.5340   48.7493 H   0  0  0  0  0  0  0  0  0  0  0  0
   64.3418   33.0971   46.4981 H   0  0  0  0  0  0  0  0  0  0  0  0
   62.0367   34.0401   46.3181 H   0  0  0  0  0  0  0  0  0  0  0  0
   61.0646   31.5754   47.6036 H   0  0  0  0  0  0  0  0  0  0  0  0
   59.6085   31.5369   48.5571 H   0  0  0  0  0  0  0  0  0  0  0  0
  1  2  1  0
  2  3  1  0
  3  4  1  0
  4  5  1  0
  3  6  1  0
  6  7  1  0
  7  8  1  0
  8  9  1  0
  9 10  1  0
 10 11  2  0
 11 12  1  0
 12 13  2  0
 13 14  1  0
 13 15  1  0
 15 16  2  0
 16 17  1  0
 17 18  2  0
 18 19  1  0
 19 20  2  0
 12 21  1  0
 21 22  2  0
 22 23  1  0
 23 24  2  0
 24 25  1  0
 25 26  1  0
 26 27  1  0
 27 28  2  0
 28 29  1  0
 29 30  2  0
 30 31  1  0
 31 32  2  0
 25 33  2  0
 33 34  1  0
 20 10  1  0
 33 21  1  0
 34 11  1  0
 20 15  1  0
 32 27  1  0
  1 35  1  0
  1 36  1  0
  1 37  1  0
  2 38  1  0
  2 39  1  0
  4 40  1  0
  4 41  1  0
  5 42  1  0
  5 43  1  0
  5 44  1  0
  6 45  1  0
  6 46  1  0
  7 47  1  0
  7 48  1  0
  8 49  1  0
  8 50  1  0
  9 51  1  0
 14 52  1  0
 14 53  1  0
 14 54  1  0
 16 55  1  0
 17 56  1  0
 18 57  1  0
 19 58  1  0
 22 59  1  0
 23 60  1  0
 24 61  1  0
 26 62  1  0
 26 63  1  0
 28 64  1  0
 29 65  1  0
 30 66  1  0
 31 67  1  0
 32 68  1  0
 34 69  1  0
 34 70  1  0
M  CHG  2  13   1  27   1
M  END
>  <UniqueID>  (7) 
7

>  <SMILES>  (7) 
CCN(CC)CCCNc1c2c([n+](C)c3ccccc13)-c1cccc(C[n+]3ccccc3)c1C2

>  <Energy>  (7) 
120.23470034670265

>  <Genealogy>  (7) 
CCN(CC)CCCNc1c2c([n+](C)c3ccccc13)-c1cccc(C[n+]3ccccc3)c1C2 (3D coordinates assigned)
CCN(CC)CCCNc1c2c([n+](C)c3ccccc13)-c1cccc(C[n+]3ccccc3)c1C2 (nonaromatic ring conformer: 120.23470034670265 kcal/mol)

>  <smiles>  (7) 
CCN(CC)CCCNc1c2c([n+](C)c3ccccc13)-c1cccc(C[n+]3ccccc3)c1C2

>  <score_type>  (7) 
oracle

>  <origin>  (7) 
adg

>  <m_score__min__energy>  (7) 
-6.4400000000000004

>  <m_primary>  (7) 
energy

$$$$
7:0
     RDKit          3D

 82 84  0  0  0  0  0  0  0  0999 V2000
   60.8760   33.4110   51.4880 C   0  0  0  0  0  0  0  0  0  0  0  0
   59.6700   33.8990   50.6900 C   0  0  0  0  0  0  0  0  0  0  0  0
   59.6940   33.3240   49.3250 N   0  0  0  0  0  0  0  0  0  0  0  0
   58.4540   32.5730   49.0250 C   0  0  0  0  0  0  0  0  0  0  0  0
   58.1450   31.6000   50.1600 C   0  0  0  0  0  0  0  0  0  0  0  0
   59.9610   34.3590   48.2970 C   0  0  0  0  0  0  0  0  0  0  0  0
   60.0200   33.6940   46.9080 C   0  0  0  0  0  0  0  0  0  0  0  0
   61.1720   32.7820   46.6580 N   0  0  0  0  0  0  0  0  0  0  0  0
   61.4480   31.8140   47.7090 C   0  0  0  0  0  0  0  0  0  0  0  0
   62.5400   32.0590   48.5920 C   0  0  0  0  0  0  0  0  0  0  0  0
   63.4480   33.1300   48.3770 C   0  0  0  0  0  0  0  0  0  0  0  0
   64.5240   33.3490   49.2340 C   0  0  0  0  0  0  0  0  0  0  0  0
   64.7390   32.5050   50.3100 C   0  0  0  0  0  0  0  0  0  0  0  0
   63.8700   31.4440   50.5460 C   0  0  0  0  0  0  0  0  0  0  0  0
   62.7470   31.2130   49.7110 C   0  0  0  0  0  0  0  0  0  0  0  0
   61.8810   30.1750   49.9550 N   0  0  0  0  0  0  0  0  0  0  0  0
   61.8880   29.5120   51.2810 C   0  0  0  0  0  0  0  0  0  0  0  0
   61.0150   29.7480   48.9700 C   0  0  0  0  0  0  0  0  0  0  0  0
   60.4260   28.4630   49.0610 C   0  0  0  0  0  0  0  0  0  0  0  0
   59.5060   28.0220   48.1310 C   0  0  0  0  0  0  0  0  0  0  0  0
   59.1280   28.8470   47.0920 C   0  0  0  0  0  0  0  0  0  0  0  0
   59.6870   30.1230   46.9310 C   0  0  0  0  0  0  0  0  0  0  0  0
   59.1770   30.8930   45.8300 N   0  0  0  0  0  0  0  0  0  0  0  0
   57.7860   31.3540   45.8210 C   0  0  0  0  0  0  0  0  0  0  0  0
   57.0990   31.0960   44.4730 C   0  0  0  0  0  0  0  0  0  0  0  0
   56.1330   29.8930   44.4870 C   0  0  0  0  0  0  0  0  0  0  0  0
   56.8520   28.6380   44.7450 N   0  0  0  0  0  0  0  0  0  0  0  0
   58.1170   28.5800   43.9980 C   0  0  0  0  0  0  0  0  0  0  0  0
   58.3730   27.1490   43.5130 C   0  0  0  0  0  0  0  0  0  0  0  0
   57.6510   26.1860   44.3580 N   0  0  0  0  0  0  0  0  0  0  0  0
   58.2590   26.0480   45.6950 C   0  0  0  0  0  0  0  0  0  0  0  0
   57.3800   25.2150   46.6520 C   0  0  0  0  0  0  0  0  0  0  0  0
   55.8940   25.3200   46.2870 C   0  0  0  0  0  0  0  0  0  0  0  0
   55.5270   26.7040   46.0010 N   0  0  0  0  0  0  0  0  0  0  0  0
   60.7080   30.5850   47.8460 C   0  0  0  0  0  0  0  0  0  0  0  0
   60.6631   33.4972   52.5637 H   0  0  0  0  0  0  0  0  0  0  0  0
   61.0802   32.3595   51.2377 H   0  0  0  0  0  0  0  0  0  0  0  0
   61.7540   34.0246   51.2377 H   0  0  0  0  0  0  0  0  0  0  0  0
   58.7465   33.5870   51.1997 H   0  0  0  0  0  0  0  0  0  0  0  0
   59.7067   34.9961   50.6184 H   0  0  0  0  0  0  0  0  0  0  0  0
   57.6183   33.2795   48.9133 H   0  0  0  0  0  0  0  0  0  0  0  0
   58.5916   32.0071   48.0918 H   0  0  0  0  0  0  0  0  0  0  0  0
   58.3042   32.1012   51.1262 H   0  0  0  0  0  0  0  0  0  0  0  0
   57.0981   31.2707   50.0858 H   0  0  0  0  0  0  0  0  0  0  0  0
   58.8101   30.7270   50.0858 H   0  0  0  0  0  0  0  0  0  0  0  0
   59.1556   35.1080   48.3119 H   0  0  0  0  0  0  0  0  0  0  0  0
   60.9210   34.8516   48.5108 H   0  0  0  0  0  0  0  0  0  0  0  0
   59.0967   33.1106   46.7769 H   0  0  0  0  0  0  0  0  0  0  0  0
   60.1418   34.5211   46.1931 H   0  0  0  0  0  0  0  0  0  0  0  0
   62.0200   33.3080   46.3840 H   0  0  0  0  0  0  0  0  0  0  0  0
   61.0070   32.2750   45.7610 H   0  0  0  0  0  0  0  0  0  0  0  0
   63.2985   33.7994   47.5170 H   0  0  0  0  0  0  0  0  0  0  0  0
   65.2045   34.1946   49.0554 H   0  0  0  0  0  0  0  0  0  0  0  0
   65.5965   32.6730   50.9782 H   0  0  0  0  0  0  0  0  0  0  0  0
   64.0576   30.7718   51.3962 H   0  0  0  0  0  0  0  0  0  0  0  0
   61.8799   30.2756   52.0728 H   0  0  0  0  0  0  0  0  0  0  0  0
   60.9965   28.8748   51.3770 H   0  0  0  0  0  0  0  0  0  0  0  0
   62.7927   28.8937   51.3770 H   0  0  0  0  0  0  0  0  0  0  0  0
   60.7084   27.8007   49.8926 H   0  0  0  0  0  0  0  0  0  0  0  0
   59.0748   27.0138   48.2184 H   0  0  0  0  0  0  0  0  0  0  0  0
   58.3717   28.4964   46.3743 H   0  0  0  0  0  0  0  0  0  0  0  0
   59.6690   30.8190   44.9130 H   0  0  0  0  0  0  0  0  0  0  0  0
   57.2316   30.8228   46.6087 H   0  0  0  0  0  0  0  0  0  0  0  0
   57.7887   32.4399   45.9965 H   0  0  0  0  0  0  0  0  0  0  0  0
   56.5291   31.9953   44.1964 H   0  0  0  0  0  0  0  0  0  0  0  0
   57.8927   30.8613   43.7484 H   0  0  0  0  0  0  0  0  0  0  0  0
   55.3818   30.0450   45.2761 H   0  0  0  0  0  0  0  0  0  0  0  0
   55.6504   29.8219   43.5011 H   0  0  0  0  0  0  0  0  0  0  0  0
   56.2470   27.8500   44.4100 H   0  0  0  0  0  0  0  0  0  0  0  0
   58.0593   29.2540   43.1306 H   0  0  0  0  0  0  0  0  0  0  0  0
   58.9407   28.8910   44.6573 H   0  0  0  0  0  0  0  0  0  0  0  0
   58.0264   27.0508   42.4737 H   0  0  0  0  0  0  0  0  0  0  0  0
   59.4511   26.9389   43.5726 H   0  0  0  0  0  0  0  0  0  0  0  0
   56.6530   26.4890   44.4530 H   0  0  0  0  0  0  0  0  0  0  0  0
   59.2360   25.5535   45.5905 H   0  0  0  0  0  0  0  0  0  0  0  0
   58.3641   27.0555   46.1238 H   0  0  0  0  0  0  0  0  0  0  0  0
   57.6885   24.1607   46.5938 H   0  0  0  0  0  0  0  0  0  0  0  0
   57.5131   25.6069   47.6712 H   0  0  0  0  0  0  0  0  0  0  0  0
   55.6966   24.7034   45.3977 H   0  0  0  0  0  0  0  0  0  0  0  0
   55.2957   24.9654   47.1392 H   0  0  0  0  0  0  0  0  0  0  0  0
   55.5910   26.8450   44.9650 H   0  0  0  0  0  0  0  0  0  0  0  0
   56.2510   27.3260   46.4270 H   0  0  0  0  0  0  0  0  0  0  0  0
  1  2  1  0
  2  3  1  0
  3  4  1  0
  4  5  1  0
  3  6  1  0
  6  7  1  0
  7  8  1  0
  8  9  1  0
  9 10  2  0
 10 11  1  0
 11 12  2  0
 12 13  1  0
 13 14  2  0
 14 15  1  0
 15 16  2  0
 16 17  1  0
 16 18  1  0
 18 19  2  0
 19 20  1  0
 20 21  2  0
 21 22  1  0
 22 23  1  0
 23 24  1  0
 24 25  1  0
 25 26  1  0
 26 27  1  0
 27 28  1  0
 28 29  1  0
 29 30  1  0
 30 31  1  0
 31 32  1  0
 32 33  1  0
 33 34  1  0
 22 35  2  0
 35  9  1  0
 15 10  1  0
 35 18  1  0
  1 36  1  0
  1 37  1  0
  1 38  1  0
  2 39  1  0
  2 40  1  0
  4 41  1  0
  4 42  1  0
  5 43  1  0
  5 44  1  0
  5 45  1  0
  6 46  1  0
  6 47  1  0
  7 48  1  0
  7 49  1  0
  8 50  1  0
  8 51  1  0
 11 52  1  0
 12 53  1  0
 13 54  1  0
 14 55  1  0
 17 56  1  0
 17 57  1  0
 17 58  1  0
 19 59  1  0
 20 60  1  0
 21 61  1  0
 23 62  1  0
 24 63  1  0
 24 64  1  0
 25 65  1  0
 25 66  1  0
 26 67  1  0
 26 68  1  0
 27 69  1  0
 28 70  1  0
 28 71  1  0
 29 72  1  0
 29 73  1  0
 30 74  1  0
 31 75  1  0
 31 76  1  0
 32 77  1  0
 32 78  1  0
 33 79  1  0
 33 80  1  0
 34 81  1  0
 34 82  1  0
M  CHG  2   8   1  16   1
M  END
>  <UniqueID>  (8) 
8

>  <SMILES>  (8) 
CCN(CC)CC[NH2+]c1c2ccccc2[n+](C)c2cccc(NCCCNCCNCCCN)c12

>  <Energy>  (8) 
116.83863856227859

>  <Genealogy>  (8) 
CCN(CC)CC[NH2+]c1c2ccccc2[n+](C)c2cccc(NCCCNCCNCCCN)c12 (protonated)
CCN(CC)CC[NH2+]c1c2ccccc2[n+](C)c2cccc(NCCCNCCNCCCN)c12 (3D coordinates assigned)
CCN(CC)CC[NH2+]c1c2ccccc2[n+](C)c2cccc(NCCCNCCNCCCN)c12 (optimized conformer: 116.83863856227859 kcal/mol)

>  <smiles>  (8) 
CCN(CC)CCNc1c2ccccc2[n+](C)c2cccc(NCCCNCCNCCCN)c12

>  <score_type>  (8) 
oracle

>  <origin>  (8) 
adg

>  <m_score__min__energy>  (8) 
-4.4400000000000004

>  <m_primary>  (8) 
energy

$$$$
8:0
     RDKit          3D

 53 57  0  0  0  0  0  0  0  0999 V2000
   56.7540   23.4630   47.8550 C   0  0  0  0  0  0  0  0  0  0  0  0
   55.8500   24.4430   47.2340 N   0  0  0  0  0  0  0  0  0  0  0  0
   55.0890   23.7870   46.1540 C   0  0  0  0  0  0  0  0  0  0  0  0
   56.6220   25.5920   46.7110 C   0  0  0  0  0  0  0  0  0  0  0  0
   55.8080   26.3520   45.6560 C   0  0  0  0  0  0  0  0  0  0  0  0
   56.1840   27.7640   45.6230 N   0  0  0  0  0  0  0  0  0  0  0  0
   57.2410   28.3240   44.8290 C   0  0  0  0  0  0  0  0  0  0  0  0
   57.7390   27.6320   43.9030 O   0  0  0  0  0  0  0  0  0  0  0  0
   57.7150   29.7050   45.0230 C   0  0  0  0  0  0  0  0  0  0  0  0
   57.2780   30.7370   44.2160 C   0  0  0  0  0  0  0  0  0  0  0  0
   57.6910   31.9010   44.8050 C   0  0  0  0  0  0  0  0  0  0  0  0
   57.4350   33.2000   44.3780 C   0  0  0  0  0  0  0  0  0  0  0  0
   57.9190   34.2540   45.1530 C   0  0  0  0  0  0  0  0  0  0  0  0
   58.6310   33.9950   46.3350 C   0  0  0  0  0  0  0  0  0  0  0  0
   58.8830   32.6690   46.7720 C   0  0  0  0  0  0  0  0  0  0  0  0
   59.5670   32.5100   47.9840 C   0  0  0  0  0  0  0  0  0  0  0  0
   59.9490   31.3390   48.6340 C   0  0  0  0  0  0  0  0  0  0  0  0
   59.7730   30.0120   48.2280 C   0  0  0  0  0  0  0  0  0  0  0  0
   60.2920   28.9200   48.9280 C   0  0  0  0  0  0  0  0  0  0  0  0
   60.9790   28.9220   50.2380 C   0  0  0  0  0  0  0  0  0  0  0  0
   60.7620   27.8960   51.1680 C   0  0  0  0  0  0  0  0  0  0  0  0
   61.4420   27.9020   52.3860 C   0  0  0  0  0  0  0  0  0  0  0  0
   62.3480   28.9280   52.6590 C   0  0  0  0  0  0  0  0  0  0  0  0
   62.5670   29.9080   51.7410 N   0  0  0  0  0  0  0  0  0  0  0  0
   61.9140   29.9230   50.5460 C   0  0  0  0  0  0  0  0  0  0  0  0
   60.0590   27.7810   48.1930 C   0  0  0  0  0  0  0  0  0  0  0  0
   59.3690   28.1390   47.0630 C   0  0  0  0  0  0  0  0  0  0  0  0
   59.1570   29.5150   47.0790 C   0  0  0  0  0  0  0  0  0  0  0  0
   58.4590   30.2370   46.0950 C   0  0  0  0  0  0  0  0  0  0  0  0
   58.3980   31.6220   45.9620 C   0  0  0  0  0  0  0  0  0  0  0  0
   56.6825   23.5405   48.9499 H   0  0  0  0  0  0  0  0  0  0  0  0
   56.4676   22.4488   47.5398 H   0  0  0  0  0  0  0  0  0  0  0  0
   57.7880   23.6667   47.5398 H   0  0  0  0  0  0  0  0  0  0  0  0
   54.3247   23.1282   46.5919 H   0  0  0  0  0  0  0  0  0  0  0  0
   54.6010   24.5521   45.5323 H   0  0  0  0  0  0  0  0  0  0  0  0
   55.7738   23.1915   45.5323 H   0  0  0  0  0  0  0  0  0  0  0  0
   56.8643   26.2727   47.5404 H   0  0  0  0  0  0  0  0  0  0  0  0
   57.5453   25.2172   46.2452 H   0  0  0  0  0  0  0  0  0  0  0  0
   55.9948   25.9066   44.6677 H   0  0  0  0  0  0  0  0  0  0  0  0
   54.7416   26.2788   45.9158 H   0  0  0  0  0  0  0  0  0  0  0  0
   56.7078   30.6417   43.2801 H   0  0  0  0  0  0  0  0  0  0  0  0
   56.8671   33.3906   43.4554 H   0  0  0  0  0  0  0  0  0  0  0  0
   57.7421   35.2926   44.8367 H   0  0  0  0  0  0  0  0  0  0  0  0
   59.0016   34.8388   46.9355 H   0  0  0  0  0  0  0  0  0  0  0  0
   59.8419   33.4441   48.4958 H   0  0  0  0  0  0  0  0  0  0  0  0
   60.4590   31.4765   49.5989 H   0  0  0  0  0  0  0  0  0  0  0  0
   60.0550   27.0855   50.9372 H   0  0  0  0  0  0  0  0  0  0  0  0
   61.2659   27.1058   53.1242 H   0  0  0  0  0  0  0  0  0  0  0  0
   62.8861   28.9443   53.6183 H   0  0  0  0  0  0  0  0  0  0  0  0
   63.2520   30.6660   51.9570 H   0  0  0  0  0  0  0  0  0  0  0  0
   62.1200   30.7226   49.8192 H   0  0  0  0  0  0  0  0  0  0  0  0
   60.3713   26.7617   48.4640 H   0  0  0  0  0  0  0  0  0  0  0  0
   59.0369   27.4504   46.2721 H   0  0  0  0  0  0  0  0  0  0  0  0
  1  2  1  0
  2  3  1  0
  2  4  1  0
  4  5  1  0
  5  6  1  0
  6  7  1  0
  7  8  2  0
  7  9  1  0
  9 10  2  0
 10 11  1  0
 11 12  1  0
 12 13  2  0
 13 14  1  0
 14 15  2  0
 15 16  1  0
 16 17  2  0
 17 18  1  0
 18 19  2  0
 19 20  1  0
 20 21  2  0
 21 22  1  0
 22 23  2  0
 23 24  1  0
 24 25  2  0
 19 26  1  0
 26 27  2  0
 27 28  1  0
 28 29  2  0
 29 30  1  0
 29  9  1  0
 30 11  2  0
 30 15  1  0
 28 18  1  0
 25 20  1  0
  1 31  1  0
  1 32  1  0
  1 33  1  0
  3 34  1  0
  3 35  1  0
  3 36  1  0
  4 37  1  0
  4 38  1  0
  5 39  1  0
  5 40  1  0
 10 41  1  0
 12 42  1  0
 13 43  1  0
 14 44  1  0
 16 45  1  0
 17 46  1  0
 21 47  1  0
 22 48  1  0
 23 49  1  0
 24 50  1  0
 25 51  1  0
 26 52  1  0
 27 53  1  0
M  CHG  2   6  -1  24   1
M  END
>  <UniqueID>  (9) 
9

>  <SMILES>  (9) 
CN(C)CC[N-]C(=O)c1cc2cccc3ccc4c(-c5ccc[nH+]c5)ccc4c1c32

>  <Energy>  (9) 
134.46731309649502

>  <Genealogy>  (9) 
CN(C)CC[N-]C(=O)c1cc2cccc3ccc4c(-c5ccc[nH+]c5)ccc4c1c32 (protonated)
CN(C)CC[N-]C(=O)c1cc2cccc3ccc4c(-c5ccc[nH+]c5)ccc4c1c32 (3D coordinates assigned)
CN(C)CC[N-]C(=O)c1cc2cccc3ccc4c(-c5ccc[nH+]c5)ccc4c1c32 (optimized conformer: 134.46731309649502 kcal/mol)

>  <smiles>  (9) 
CN(C)CCNC(=O)c1cc2cccc3ccc4c(-c5cccnc5)ccc4c1c32

>  <score_type>  (9) 
oracle

>  <origin>  (9) 
adg

>  <m_score__min__energy>  (9) 
-9.1500000000000004

>  <m_primary>  (9) 
energy

$$$$
9:0
     RDKit          3D

 53 54  0  0  0  0  0  0  0  0999 V2000
   61.0906   34.3471   46.6477 H   0  0  0  0  0  0  0  0  0  0  0  0
   61.1950   33.2610   46.7870 C   0  0  0  0  0  0  0  0  0  0  0  0
   60.1300   32.4120   46.4700 C   0  0  0  0  0  0  0  0  0  0  0  0
   59.1917   32.8336   46.0802 H   0  0  0  0  0  0  0  0  0  0  0  0
   60.2520   31.0200   46.6470 C   0  0  0  0  0  0  0  0  0  0  0  0
   59.1230   30.1150   46.3100 C   0  0  0  0  0  0  0  0  0  0  0  0
   57.9970   30.6050   45.6320 C   0  0  0  0  0  0  0  0  0  0  0  0
   57.9526   31.6665   45.3468 H   0  0  0  0  0  0  0  0  0  0  0  0
   56.9240   29.7530   45.3130 C   0  0  0  0  0  0  0  0  0  0  0  0
   55.7850   30.2100   44.6310 O   0  0  0  0  0  0  0  0  0  0  0  0
   55.3530   29.7240   43.3640 C   0  0  0  0  0  0  0  0  0  0  0  0
   54.6288   28.9093   43.5113 H   0  0  0  0  0  0  0  0  0  0  0  0
   54.8770   30.5404   42.8010 H   0  0  0  0  0  0  0  0  0  0  0  0
   56.2196   29.3470   42.8010 H   0  0  0  0  0  0  0  0  0  0  0  0
   56.9840   28.4020   45.6790 C   0  0  0  0  0  0  0  0  0  0  0  0
   55.9220   27.5670   45.3410 O   0  0  0  0  0  0  0  0  0  0  0  0
   58.1070   27.8900   46.3620 C   0  0  0  0  0  0  0  0  0  0  0  0
   58.1780   26.4620   46.7670 C   0  0  0  0  0  0  0  0  0  0  0  0
   57.1130   25.8810   47.2300 N   0  0  0  0  0  0  0  0  0  0  0  0
   56.1480   25.3520   46.4010 O   0  0  0  0  0  0  0  0  0  0  0  0
   55.4820   24.1470   46.7450 C   0  0  0  0  0  0  0  0  0  0  0  0
   54.4582   24.3753   47.0762 H   0  0  0  0  0  0  0  0  0  0  0  0
   56.0268   23.6458   47.5586 H   0  0  0  0  0  0  0  0  0  0  0  0
   55.4300   23.2290   45.5250 C   0  0  0  0  0  0  0  0  0  0  0  0
   54.5893   23.5258   44.8807 H   0  0  0  0  0  0  0  0  0  0  0  0
   55.2933   22.1899   45.8589 H   0  0  0  0  0  0  0  0  0  0  0  0
   56.6960   23.3340   44.7610 N   0  0  0  0  0  0  0  0  0  0  0  0
   57.3150   22.0050   44.5540 C   0  0  0  0  0  0  0  0  0  0  0  0
   56.9694   21.5885   43.5963 H   0  0  0  0  0  0  0  0  0  0  0  0
   57.0224   21.3405   45.3804 H   0  0  0  0  0  0  0  0  0  0  0  0
   58.8350   22.1290   44.5300 C   0  0  0  0  0  0  0  0  0  0  0  0
   59.2167   22.1601   45.5612 H   0  0  0  0  0  0  0  0  0  0  0  0
   59.2653   21.2630   44.0057 H   0  0  0  0  0  0  0  0  0  0  0  0
   59.1192   23.0533   44.0057 H   0  0  0  0  0  0  0  0  0  0  0  0
   56.4930   24.0420   43.4760 C   0  0  0  0  0  0  0  0  0  0  0  0
   56.7253   23.3604   42.6445 H   0  0  0  0  0  0  0  0  0  0  0  0
   55.4458   24.3718   43.4084 H   0  0  0  0  0  0  0  0  0  0  0  0
   57.4060   25.2610   43.3990 C   0  0  0  0  0  0  0  0  0  0  0  0
   57.6569   25.5960   44.4163 H   0  0  0  0  0  0  0  0  0  0  0  0
   58.3287   24.9947   42.8626 H   0  0  0  0  0  0  0  0  0  0  0  0
   56.8910   26.0716   42.8626 H   0  0  0  0  0  0  0  0  0  0  0  0
   59.4880   25.7170   46.7190 C   0  0  0  0  0  0  0  0  0  0  0  0
   59.8353   25.5195   47.7439 H   0  0  0  0  0  0  0  0  0  0  0  0
   59.3482   24.7633   46.1890 H   0  0  0  0  0  0  0  0  0  0  0  0
   60.2362   26.3247   46.1890 H   0  0  0  0  0  0  0  0  0  0  0  0
   59.1690   28.7590   46.6720 C   0  0  0  0  0  0  0  0  0  0  0  0
   60.0487   28.3704   47.2060 H   0  0  0  0  0  0  0  0  0  0  0  0
   61.4600   30.5000   47.1480 C   0  0  0  0  0  0  0  0  0  0  0  0
   61.5688   29.4154   47.2959 H   0  0  0  0  0  0  0  0  0  0  0  0
   62.5230   31.3540   47.4590 C   0  0  0  0  0  0  0  0  0  0  0  0
   63.4654   30.9386   47.8455 H   0  0  0  0  0  0  0  0  0  0  0  0
   62.3910   32.7340   47.2800 C   0  0  0  0  0  0  0  0  0  0  0  0
   63.4240   33.5590   47.5810 F   0  0  0  0  0  0  0  0  0  0  0  0
  1  2  1  0
  2  3  2  0
  3  4  1  0
  3  5  1  0
  5  6  1  0
  6  7  2  0
  7  8  1  0
  7  9  1  0
  9 10  1  0
 10 11  1  0
 11 12  1  0
 11 13  1  0
 11 14  1  0
  9 15  2  0
 15 16  1  0
 15 17  1  0
 17 18  1  0
 18 19  2  0
 19 20  1  0
 20 21  1  0
 21 22  1  0
 21 23  1  0
 21 24  1  0
 24 25  1  0
 24 26  1  0
 24 27  1  0
 27 28  1  0
 28 29  1  0
 28 30  1  0
 28 31  1  0
 31 32  1  0
 31 33  1  0
 31 34  1  0
 27 35  1  0
 35 36  1  0
 35 37  1  0
 35 38  1  0
 38 39  1  0
 38 40  1  0
 38 41  1  0
 18 42  1  0
 42 43  1  0
 42 44  1  0
 42 45  1  0
 17 46  2  0
 46 47  1  0
  5 48  2  0
 48 49  1  0
 48 50  1  0
 50 51  1  0
 50 52  2  0
 52 53  1  0
 52  2  1  0
 46  6  1  0
M  CHG  1  16  -1
M  END
>  <UniqueID>  (10) 
10

>  <SMILES>  (10) 
CCN(CC)CCO/N=C(\C)c1cc(-c2ccc(F)cc2)cc(OC)c1[O-]

>  <Energy>  (10) 
54.1090729153093

>  <Genealogy>  (10) 
CCN(CC)CCON=C(C)c1cc(-c2ccc(F)cc2)cc(OC)c1[O-] (protonated)
CCN(CC)CCO/N=C(\C)c1cc(-c2ccc(F)cc2)cc(OC)c1[O-] (cis-trans isomerization)
CCN(CC)CCO/N=C(\C)c1cc(-c2ccc(F)cc2)cc(OC)c1[O-] (3D coordinates assigned)
CCN(CC)CCO/N=C(\C)c1cc(-c2ccc(F)cc2)cc(OC)c1[O-] (optimized conformer: 54.1090729153093 kcal/mol)

>  <smiles>  (10) 
CCN(CC)CCON=C(C)c1cc(-c2ccc(F)cc2)cc(OC)c1O

>  <score_type>  (10) 
oracle

>  <origin>  (10) 
adg

>  <m_score__min__energy>  (10) 
-9.4700000000000006

>  <m_primary>  (10) 
energy

$$$$
10:0
     RDKit          3D

 54 57  0  0  0  0  0  0  0  0999 V2000
   56.9400   30.5630   43.1030 C   0  0  0  0  0  0  0  0  0  0  0  0
   55.8460   29.9770   43.9870 C   0  0  0  0  0  0  0  0  0  0  0  0
   56.4040   29.5270   45.2700 N   0  0  0  0  0  0  0  0  0  0  0  0
   56.6520   28.0770   45.2660 C   0  0  0  0  0  0  0  0  0  0  0  0
   58.1340   27.7610   45.5100 C   0  0  0  0  0  0  0  0  0  0  0  0
   59.0440   28.9950   45.6680 C   0  0  0  0  0  0  0  0  0  0  0  0
   58.5330   30.0080   46.6060 N   0  0  0  0  0  0  0  0  0  0  0  0
   59.2700   31.1580   47.0670 C   0  0  0  0  0  0  0  0  0  0  0  0
   60.1180   31.0350   48.1860 C   0  0  0  0  0  0  0  0  0  0  0  0
   60.9160   32.1220   48.5800 C   0  0  0  0  0  0  0  0  0  0  0  0
   60.6110   33.3830   48.1060 N   0  0  0  0  0  0  0  0  0  0  0  0
   60.8650   34.5790   48.9360 C   0  0  0  0  0  0  0  0  0  0  0  0
   59.8550   33.5250   46.9600 C   0  0  0  0  0  0  0  0  0  0  0  0
   59.7340   34.7770   46.3100 C   0  0  0  0  0  0  0  0  0  0  0  0
   58.9080   34.9310   45.1990 C   0  0  0  0  0  0  0  0  0  0  0  0
   58.1670   33.8540   44.7260 C   0  0  0  0  0  0  0  0  0  0  0  0
   58.2750   32.6080   45.3410 C   0  0  0  0  0  0  0  0  0  0  0  0
   59.1520   32.4100   46.4290 C   0  0  0  0  0  0  0  0  0  0  0  0
   62.0630   31.8430   49.5180 C   0  0  0  0  0  0  0  0  0  0  0  0
   63.1350   32.7510   49.6580 C   0  0  0  0  0  0  0  0  0  0  0  0
   64.1440   32.5100   50.5850 C   0  0  0  0  0  0  0  0  0  0  0  0
   64.1290   31.3380   51.3280 C   0  0  0  0  0  0  0  0  0  0  0  0
   63.1430   30.3880   51.0760 C   0  0  0  0  0  0  0  0  0  0  0  0
   62.1550   30.6250   50.1560 N   0  0  0  0  0  0  0  0  0  0  0  0
   61.3840   29.4610   49.6980 C   0  0  0  0  0  0  0  0  0  0  0  0
   60.0340   29.8350   49.0990 C   0  0  0  0  0  0  0  0  0  0  0  0
   57.7336   30.9881   43.7350 H   0  0  0  0  0  0  0  0  0  0  0  0
   57.3622   29.7702   42.4679 H   0  0  0  0  0  0  0  0  0  0  0  0
   56.5140   31.3537   42.4679 H   0  0  0  0  0  0  0  0  0  0  0  0
   55.0821   30.7460   44.1747 H   0  0  0  0  0  0  0  0  0  0  0  0
   55.3983   29.1139   43.4725 H   0  0  0  0  0  0  0  0  0  0  0  0
   55.6810   29.7180   46.0020 H   0  0  0  0  0  0  0  0  0  0  0  0
   56.0510   27.6091   46.0596 H   0  0  0  0  0  0  0  0  0  0  0  0
   56.3718   27.6809   44.2788 H   0  0  0  0  0  0  0  0  0  0  0  0
   58.2086   27.1617   46.4294 H   0  0  0  0  0  0  0  0  0  0  0  0
   58.4875   27.2301   44.6138 H   0  0  0  0  0  0  0  0  0  0  0  0
   60.0258   28.6551   46.0292 H   0  0  0  0  0  0  0  0  0  0  0  0
   59.0954   29.4772   44.6806 H   0  0  0  0  0  0  0  0  0  0  0  0
   57.6150   29.8060   47.0620 H   0  0  0  0  0  0  0  0  0  0  0  0
   60.8070   34.3060   50.0000 H   0  0  0  0  0  0  0  0  0  0  0  0
   61.8671   34.9741   48.7129 H   0  0  0  0  0  0  0  0  0  0  0  0
   60.1100   35.3472   48.7129 H   0  0  0  0  0  0  0  0  0  0  0  0
   60.3006   35.6408   46.6879 H   0  0  0  0  0  0  0  0  0  0  0  0
   58.8419   35.9065   44.6950 H   0  0  0  0  0  0  0  0  0  0  0  0
   57.4947   33.9854   43.8654 H   0  0  0  0  0  0  0  0  0  0  0  0
   57.6684   31.7673   44.9734 H   0  0  0  0  0  0  0  0  0  0  0  0
   63.1726   33.6539   49.0308 H   0  0  0  0  0  0  0  0  0  0  0  0
   64.9498   33.2449   50.7283 H   0  0  0  0  0  0  0  0  0  0  0  0
   64.8864   31.1619   52.1060 H   0  0  0  0  0  0  0  0  0  0  0  0
   63.1570   29.4337   51.6229 H   0  0  0  0  0  0  0  0  0  0  0  0
   61.9713   28.9312   48.9335 H   0  0  0  0  0  0  0  0  0  0  0  0
   61.1885   28.8308   50.5781 H   0  0  0  0  0  0  0  0  0  0  0  0
   59.6549   28.9787   48.5219 H   0  0  0  0  0  0  0  0  0  0  0  0
   59.3604   30.0937   49.9293 H   0  0  0  0  0  0  0  0  0  0  0  0
  1  2  1  0
  2  3  1  0
  3  4  1  0
  4  5  1  0
  5  6  1  0
  6  7  1  0
  7  8  1  0
  8  9  2  0
  9 10  1  0
 10 11  2  0
 11 12  1  0
 11 13  1  0
 13 14  2  0
 14 15  1  0
 15 16  2  0
 16 17  1  0
 17 18  2  0
 10 19  1  0
 19 20  2  0
 20 21  1  0
 21 22  2  0
 22 23  1  0
 23 24  2  0
 24 25  1  0
 25 26  1  0
 18  8  1  0
 24 19  1  0
 26  9  1  0
 18 13  1  0
  1 27  1  0
  1 28  1  0
  1 29  1  0
  2 30  1  0
  2 31  1  0
  3 32  1  0
  4 33  1  0
  4 34  1  0
  5 35  1  0
  5 36  1  0
  6 37  1  0
  6 38  1  0
  7 39  1  0
 12 40  1  0
 12 41  1  0
 12 42  1  0
 14 43  1  0
 15 44  1  0
 16 45  1  0
 17 46  1  0
 20 47  1  0
 21 48  1  0
 22 49  1  0
 23 50  1  0
 25 51  1  0
 25 52  1  0
 26 53  1  0
 26 54  1  0
M  CHG  2  11   1  24   1
M  END
>  <UniqueID>  (11) 
11

>  <SMILES>  (11) 
CCNCCCNc1c2c([n+](C)c3ccccc13)-c1cccc[n+]1CC2

>  <Energy>  (11) 
94.49270935473238

>  <Genealogy>  (11) 
CCNCCCNc1c2c([n+](C)c3ccccc13)-c1cccc[n+]1CC2 (3D coordinates assigned)
CCNCCCNc1c2c([n+](C)c3ccccc13)-c1cccc[n+]1CC2 (nonaromatic ring conformer: 94.49270935473238 kcal/mol)

>  <smiles>  (11) 
CCNCCCNc1c2c([n+](C)c3ccccc13)-c1cccc[n+]1CC2

>  <score_type>  (11) 
oracle

>  <origin>  (11) 
adg

>  <m_score__min__energy>  (11) 
-5.5499999999999998

>  <m_primary>  (11) 
energy

$$$$
11:0
     RDKit          3D

 58 62  0  0  0  0  0  0  0  0999 V2000
   62.5430   33.8350   46.3920 C   0  0  0  0  0  0  0  0  0  0  0  0
   63.7890   33.2980   47.1030 C   0  0  0  0  0  0  0  0  0  0  0  0
   63.5850   31.9520   47.6600 N   0  0  0  0  0  0  0  0  0  0  0  0
   63.2100   31.9870   49.0810 C   0  0  0  0  0  0  0  0  0  0  0  0
   61.6940   32.1740   49.2390 C   0  0  0  0  0  0  0  0  0  0  0  0
   60.8620   30.9610   48.7960 C   0  0  0  0  0  0  0  0  0  0  0  0
   61.0820   30.6510   47.3840 N   0  0  0  0  0  0  0  0  0  0  0  0
   59.9890   30.3780   46.4940 C   0  0  0  0  0  0  0  0  0  0  0  0
   59.6330   29.0640   46.2070 C   0  0  0  0  0  0  0  0  0  0  0  0
   58.5580   28.7910   45.3840 C   0  0  0  0  0  0  0  0  0  0  0  0
   57.7710   29.7770   44.8430 N   0  0  0  0  0  0  0  0  0  0  0  0
   56.5490   29.4200   44.1010 C   0  0  0  0  0  0  0  0  0  0  0  0
   58.1540   31.0970   45.0230 C   0  0  0  0  0  0  0  0  0  0  0  0
   57.5010   32.1590   44.3550 C   0  0  0  0  0  0  0  0  0  0  0  0
   57.8700   33.4860   44.5750 C   0  0  0  0  0  0  0  0  0  0  0  0
   58.9090   33.8050   45.4590 C   0  0  0  0  0  0  0  0  0  0  0  0
   59.2820   35.1780   45.6870 N   0  0  0  0  0  0  0  0  0  0  0  0
   59.3510   35.9850   44.7380 O   0  0  0  0  0  0  0  0  0  0  0  0
   59.5670   35.6240   46.9580 O   0  0  0  0  0  0  0  0  0  0  0  0
   59.5940   32.7670   46.1050 C   0  0  0  0  0  0  0  0  0  0  0  0
   59.2490   31.4190   45.8890 C   0  0  0  0  0  0  0  0  0  0  0  0
   58.4510   27.3410   45.2800 C   0  0  0  0  0  0  0  0  0  0  0  0
   57.6350   26.5960   44.4920 N   0  0  0  0  0  0  0  0  0  0  0  0
   57.7380   25.2350   44.4980 C   0  0  0  0  0  0  0  0  0  0  0  0
   56.8860   24.4640   43.7010 C   0  0  0  0  0  0  0  0  0  0  0  0
   56.9940   23.0700   43.7050 C   0  0  0  0  0  0  0  0  0  0  0  0
   57.9540   22.4390   44.5040 C   0  0  0  0  0  0  0  0  0  0  0  0
   58.8150   23.1960   45.3050 C   0  0  0  0  0  0  0  0  0  0  0  0
   58.7170   24.5950   45.3110 C   0  0  0  0  0  0  0  0  0  0  0  0
   59.5780   25.3800   46.1000 C   0  0  0  0  0  0  0  0  0  0  0  0
   59.4260   26.7640   46.0630 C   0  0  0  0  0  0  0  0  0  0  0  0
   60.2610   27.8020   46.7440 C   0  0  0  0  0  0  0  0  0  0  0  0
   61.8027   34.1541   47.1404 H   0  0  0  0  0  0  0  0  0  0  0  0
   62.8212   34.6931   45.7625 H   0  0  0  0  0  0  0  0  0  0  0  0
   62.1103   33.0435   45.7625 H   0  0  0  0  0  0  0  0  0  0  0  0
   64.6177   33.2587   46.3807 H   0  0  0  0  0  0  0  0  0  0  0  0
   64.0133   33.9752   47.9403 H   0  0  0  0  0  0  0  0  0  0  0  0
   64.4750   31.4090   47.5550 H   0  0  0  0  0  0  0  0  0  0  0  0
   63.5084   31.0410   49.5564 H   0  0  0  0  0  0  0  0  0  0  0  0
   63.7222   32.8341   49.5607 H   0  0  0  0  0  0  0  0  0  0  0  0
   61.4791   32.3713   50.2996 H   0  0  0  0  0  0  0  0  0  0  0  0
   61.4080   33.0104   48.5843 H   0  0  0  0  0  0  0  0  0  0  0  0
   61.1486   30.0894   49.4028 H   0  0  0  0  0  0  0  0  0  0  0  0
   59.7977   31.2009   48.9364 H   0  0  0  0  0  0  0  0  0  0  0  0
   62.0530   30.4570   47.0530 H   0  0  0  0  0  0  0  0  0  0  0  0
   55.7437   29.1847   44.8124 H   0  0  0  0  0  0  0  0  0  0  0  0
   56.2437   30.2665   43.4684 H   0  0  0  0  0  0  0  0  0  0  0  0
   56.7474   28.5423   43.4684 H   0  0  0  0  0  0  0  0  0  0  0  0
   56.6876   31.9344   43.6494 H   0  0  0  0  0  0  0  0  0  0  0  0
   57.3386   34.2921   44.0479 H   0  0  0  0  0  0  0  0  0  0  0  0
   60.4166   33.0099   46.7937 H   0  0  0  0  0  0  0  0  0  0  0  0
   56.1301   24.9547   43.0703 H   0  0  0  0  0  0  0  0  0  0  0  0
   56.3215   22.4668   43.0774 H   0  0  0  0  0  0  0  0  0  0  0  0
   58.0319   21.3418   44.5021 H   0  0  0  0  0  0  0  0  0  0  0  0
   59.5686   22.6944   45.9299 H   0  0  0  0  0  0  0  0  0  0  0  0
   60.3503   24.9132   46.7290 H   0  0  0  0  0  0  0  0  0  0  0  0
   60.1722   27.7393   47.8386 H   0  0  0  0  0  0  0  0  0  0  0  0
   61.3412   27.7141   46.5557 H   0  0  0  0  0  0  0  0  0  0  0  0
  1  2  1  0
  2  3  1  0
  3  4  1  0
  4  5  1  0
  5  6  1  0
  6  7  1  0
  7  8  1  0
  8  9  2  0
  9 10  1  0
 10 11  2  0
 11 12  1  0
 11 13  1  0
 13 14  2  0
 14 15  1  0
 15 16  2  0
 16 17  1  0
 17 18  2  0
 17 19  1  0
 16 20  1  0
 20 21  2  0
 10 22  1  0
 22 23  2  0
 23 24  1  0
 24 25  2  0
 25 26  1  0
 26 27  2  0
 27 28  1  0
 28 29  2  0
 29 30  1  0
 30 31  2  0
 31 32  1  0
 21  8  1  0
 31 22  1  0
 32  9  1  0
 21 13  1  0
 29 24  1  0
  1 33  1  0
  1 34  1  0
  1 35  1  0
  2 36  1  0
  2 37  1  0
  3 38  1  0
  4 39  1  0
  4 40  1  0
  5 41  1  0
  5 42  1  0
  6 43  1  0
  6 44  1  0
  7 45  1  0
 12 46  1  0
 12 47  1  0
 12 48  1  0
 14 49  1  0
 15 50  1  0
 20 51  1  0
 25 52  1  0
 26 53  1  0
 27 54  1  0
 28 55  1  0
 30 56  1  0
 32 57  1  0
 32 58  1  0
M  CHG  3  11   1  17   1  19  -1
M  END
>  <UniqueID>  (12) 
12

>  <SMILES>  (12) 
CCNCCCNc1c2c([n+](C)c3ccc([N+](=O)[O-])cc13)-c1nc3ccccc3cc1C2

>  <Energy>  (12) 
103.21074002059244

>  <Genealogy>  (12) 
CCNCCCNc1c2c([n+](C)c3ccc([N+](=O)[O-])cc13)-c1nc3ccccc3cc1C2 (3D coordinates assigned)
CCNCCCNc1c2c([n+](C)c3ccc([N+](=O)[O-])cc13)-c1nc3ccccc3cc1C2 (nonaromatic ring conformer: 103.21074002059244 kcal/mol)

>  <smiles>  (12) 
CCNCCCNc1c2c([n+](C)c3ccc([N+](=O)[O-])cc13)-c1nc3ccccc3cc1C2

>  <score_type>  (12) 
oracle

>  <origin>  (12) 
adg

>  <m_score__min__energy>  (12) 
-7.6100000000000003

>  <m_primary>  (12) 
energy

$$$$
12:0
     RDKit          3D

 36 37  0  0  0  0  0  0  0  0999 V2000
   60.3821   35.2516   49.3297 H   0  0  0  0  0  0  0  0  0  0  0  0
   59.8800   34.5960   48.6030 C   0  0  0  0  0  0  0  0  0  0  0  0
   59.2800   33.4030   49.0340 C   0  0  0  0  0  0  0  0  0  0  0  0
   59.3370   32.9300   50.8840 Br  0  0  0  0  0  0  0  0  0  0  0  0
   58.6370   32.5520   48.1170 C   0  0  0  0  0  0  0  0  0  0  0  0
   58.1631   31.6232   48.4674 H   0  0  0  0  0  0  0  0  0  0  0  0
   58.6000   32.8900   46.7480 C   0  0  0  0  0  0  0  0  0  0  0  0
   58.0190   32.2010   45.6190 C   0  0  0  0  0  0  0  0  0  0  0  0
   57.4100   31.0400   45.6050 N   0  0  0  0  0  0  0  0  0  0  0  0
   57.8190   29.6550   45.8540 C   0  0  2  0  0  0  0  0  0  0  0  0
   57.7413   29.4307   46.9281 H   0  0  0  0  0  0  0  0  0  0  0  0
   59.3250   29.4410   45.5810 C   0  0  0  0  0  0  0  0  0  0  0  0
   59.8637   29.3645   46.5370 H   0  0  0  0  0  0  0  0  0  0  0  0
   59.4653   28.5139   45.0058 H   0  0  0  0  0  0  0  0  0  0  0  0
   59.7180   30.2923   45.0058 H   0  0  0  0  0  0  0  0  0  0  0  0
   56.8290   28.6530   45.2180 C   0  0  0  0  0  0  0  0  0  0  0  0
   56.6726   27.8129   45.9106 H   0  0  0  0  0  0  0  0  0  0  0  0
   57.2536   28.2952   44.2684 H   0  0  0  0  0  0  0  0  0  0  0  0
   55.5360   29.2950   44.9410 N   0  0  0  0  0  0  0  0  0  0  0  0
   55.4200   30.0810   45.6230 H   0  0  0  0  0  0  0  0  0  0  0  0
   55.4930   29.8620   43.5860 C   0  0  0  0  0  0  0  0  0  0  0  0
   55.5600   30.9581   43.6498 H   0  0  0  0  0  0  0  0  0  0  0  0
   54.5478   29.5674   43.1066 H   0  0  0  0  0  0  0  0  0  0  0  0
   56.6570   29.3350   42.7490 C   0  0  0  0  0  0  0  0  0  0  0  0
   57.4541   28.9741   43.4156 H   0  0  0  0  0  0  0  0  0  0  0  0
   56.3071   28.5075   42.1143 H   0  0  0  0  0  0  0  0  0  0  0  0
   57.0480   30.1439   42.1143 H   0  0  0  0  0  0  0  0  0  0  0  0
   58.1630   32.8790   44.4430 N   0  0  0  0  0  0  0  0  0  0  0  0
   57.7250   32.4340   43.1230 C   0  0  0  0  0  0  0  0  0  0  0  0
   56.9574   31.6541   43.2350 H   0  0  0  0  0  0  0  0  0  0  0  0
   57.3037   33.2864   42.5698 H   0  0  0  0  0  0  0  0  0  0  0  0
   58.5839   32.0263   42.5698 H   0  0  0  0  0  0  0  0  0  0  0  0
   59.0060   34.2790   44.7290 S   0  0  0  0  0  0  0  0  0  0  0  0
   59.2030   34.0930   46.3660 C   0  0  0  0  0  0  0  0  0  0  0  0
   59.8410   34.9530   47.2520 C   0  0  0  0  0  0  0  0  0  0  0  0
   60.3020   35.8877   46.9002 H   0  0  0  0  0  0  0  0  0  0  0  0
  1  2  1  0
  2  3  2  0
  3  4  1  0
  3  5  1  0
  5  6  1  0
  5  7  2  0
  7  8  1  0
  8  9  2  0
  9 10  1  0
 10 11  1  1
 10 12  1  0
 12 13  1  0
 12 14  1  0
 12 15  1  0
 10 16  1  0
 16 17  1  0
 16 18  1  0
 16 19  1  0
 19 20  1  0
 19 21  1  0
 21 22  1  0
 21 23  1  0
 21 24  1  0
 24 25  1  0
 24 26  1  0
 24 27  1  0
  8 28  1  0
 28 29  1  0
 29 30  1  0
 29 31  1  0
 29 32  1  0
 28 33  1  0
 33 34  1  0
 34 35  2  0
 35 36  1  0
 35  2  1  0
 34  7  1  0
M  END
>  <UniqueID>  (13) 
13

>  <SMILES>  (13) 
CCNC[C@@H](C)/N=c1\c2cc(Br)ccc2sn1C

>  <Energy>  (13) 
86.43588451673169

>  <Genealogy>  (13) 
CCNC[C@@H](C)N=c1c2cc(Br)ccc2sn1C (chirality)
CCNC[C@@H](C)/N=c1\c2cc(Br)ccc2sn1C (cis-trans isomerization)
CCNC[C@@H](C)/N=c1\c2cc(Br)ccc2sn1C (3D coordinates assigned)
CCNC[C@@H](C)/N=c1\c2cc(Br)ccc2sn1C (optimized conformer: 86.43588451673169 kcal/mol)

>  <smiles>  (13) 
CCNCC(C)N=c1c2cc(Br)ccc2sn1C

>  <score_type>  (13) 
oracle

>  <origin>  (13) 
adg

>  <m_score__min__energy>  (13) 
-7.6500000000000004

>  <m_primary>  (13) 
energy

$$$$
13:0
     RDKit          3D

 47 49  0  0  1  0  0  0  0  0999 V2000
   62.4110   33.4650   47.0130 C   0  0  0  0  0  0  0  0  0  0  0  0
   62.2490   33.7940   48.4920 C   0  0  0  0  0  0  0  0  0  0  0  0
   60.8600   34.0760   48.7040 N   0  0  0  0  0  0  0  0  0  0  0  0
   60.2530   33.3600   49.7940 C   0  0  0  0  0  0  0  0  0  0  0  0
   58.9430   32.6760   49.4000 C   0  0  0  0  0  0  0  0  0  0  0  0
   58.6650   32.6240   48.1310 O   0  0  0  0  0  0  0  0  0  0  0  0
   58.4020   32.5510   46.8830 C   0  0  0  0  0  0  0  0  0  0  0  0
   57.8530   31.3800   46.3050 C   0  0  0  0  0  0  0  0  0  0  0  0
   57.5800   31.3280   44.9690 C   0  0  0  0  0  0  0  0  0  0  0  0
   57.0540   30.2020   44.4120 C   0  0  0  0  0  0  0  0  0  0  0  0
   56.7800   29.2080   45.0720 N   0  0  0  0  0  0  0  0  0  0  0  0
   57.4710   28.1060   45.4900 C   0  0  0  0  0  0  0  0  0  0  0  0
   58.8880   28.1910   45.5220 C   0  0  0  0  0  0  0  0  0  0  0  0
   59.6460   27.1680   46.0290 C   0  0  0  0  0  0  0  0  0  0  0  0
   59.0530   26.0180   46.5270 C   0  0  0  0  0  0  0  0  0  0  0  0
   57.6600   25.9150   46.5050 C   0  0  0  0  0  0  0  0  0  0  0  0
   56.8650   26.9260   46.0020 C   0  0  0  0  0  0  0  0  0  0  0  0
   55.5070   26.8510   45.9670 F   0  0  0  0  0  0  0  0  0  0  0  0
   56.8020   30.1950   43.0740 N   0  0  0  0  0  0  0  0  0  0  0  0
   57.0420   31.2400   42.2730 C   0  0  0  0  0  0  0  0  0  0  0  0
   57.5600   32.3420   42.8380 N   0  0  0  0  0  0  0  0  0  0  0  0
   57.8220   32.3840   44.1520 C   0  0  0  0  0  0  0  0  0  0  0  0
   58.3490   33.5370   44.6570 C   0  0  0  0  0  0  0  0  0  0  0  0
   58.6190   33.5770   45.9970 C   0  0  0  0  0  0  0  0  0  0  0  0
   59.1540   34.7360   46.5410 O   0  0  0  0  0  0  0  0  0  0  0  0
   59.6490   35.6710   45.6010 C   0  0  0  0  0  0  0  0  0  0  0  0
   62.8947   32.4828   46.9067 H   0  0  0  0  0  0  0  0  0  0  0  0
   61.4219   33.4406   46.5323 H   0  0  0  0  0  0  0  0  0  0  0  0
   63.0334   34.2341   46.5323 H   0  0  0  0  0  0  0  0  0  0  0  0
   62.5594   32.9363   49.1069 H   0  0  0  0  0  0  0  0  0  0  0  0
   62.8739   34.6536   48.7758 H   0  0  0  0  0  0  0  0  0  0  0  0
   60.2970   34.0280   47.8270 H   0  0  0  0  0  0  0  0  0  0  0  0
   60.9580   32.5923   50.1456 H   0  0  0  0  0  0  0  0  0  0  0  0
   60.0196   34.0923   50.5809 H   0  0  0  0  0  0  0  0  0  0  0  0
   58.9822   31.6424   49.7742 H   0  0  0  0  0  0  0  0  0  0  0  0
   58.1506   33.2980   49.8419 H   0  0  0  0  0  0  0  0  0  0  0  0
   57.6450   30.5051   46.9385 H   0  0  0  0  0  0  0  0  0  0  0  0
   59.3852   29.0922   45.1337 H   0  0  0  0  0  0  0  0  0  0  0  0
   60.7420   27.2608   46.0410 H   0  0  0  0  0  0  0  0  0  0  0  0
   59.6684   25.2012   46.9322 H   0  0  0  0  0  0  0  0  0  0  0  0
   57.1839   25.0048   46.8986 H   0  0  0  0  0  0  0  0  0  0  0  0
   56.8237   31.1976   41.1957 H   0  0  0  0  0  0  0  0  0  0  0  0
   57.7470   33.1550   42.2120 H   0  0  0  0  0  0  0  0  0  0  0  0
   58.5495   34.4033   44.0094 H   0  0  0  0  0  0  0  0  0  0  0  0
   60.0995   36.5220   46.1327 H   0  0  0  0  0  0  0  0  0  0  0  0
   60.4099   35.1886   44.9698 H   0  0  0  0  0  0  0  0  0  0  0  0
   58.8223   36.0291   44.9698 H   0  0  0  0  0  0  0  0  0  0  0  0
  1  2  1  0
  2  3  1  0
  3  4  1  0
  4  5  1  0
  5  6  1  0
  6  7  1  0
  7  8  2  0
  8  9  1  0
  9 10  1  0
 10 11  2  0
 11 12  1  0
 12 13  2  0
 13 14  1  0
 14 15  2  0
 15 16  1  0
 16 17  2  0
 17 18  1  0
 10 19  1  0
 19 20  2  0
 20 21  1  0
 21 22  1  0
 22 23  1  0
 23 24  2  0
 24 25  1  0
 25 26  1  0
 24  7  1  0
 22  9  2  0
 17 12  1  0
  1 27  1  0
  1 28  1  0
  1 29  1  0
  2 30  1  0
  2 31  1  0
  3 32  1  0
  4 33  1  0
  4 34  1  0
  5 35  1  0
  5 36  1  0
  8 37  1  0
 13 38  1  0
 14 39  1  0
 15 40  1  0
 16 41  1  0
 20 42  1  0
 21 43  1  0
 23 44  1  0
 26 45  1  0
 26 46  1  0
 26 47  1  0
M  END
>  <smiles>  (14) 
CCNCCOc1cc2c(=Nc3ccccc3F)nc[nH]c2cc1OC

>  <score_type>  (14) 
oracle

>  <origin>  (14) 
adg

>  <m_score__min__energy>  (14) 
-6.7199999999999998

>  <m_primary>  (14) 
energy

$$$$
14:0
     RDKit          3D

 36 37  0  0  0  0  0  0  0  0999 V2000
   58.8042   35.8112   44.3932 H   0  0  0  0  0  0  0  0  0  0  0  0
   58.8710   34.9420   45.0640 C   0  0  0  0  0  0  0  0  0  0  0  0
   59.6310   35.0310   46.2490 C   0  0  0  0  0  0  0  0  0  0  0  0
   60.1625   35.9637   46.4892 H   0  0  0  0  0  0  0  0  0  0  0  0
   59.7130   33.9340   47.1250 C   0  0  0  0  0  0  0  0  0  0  0  0
   60.2855   33.9968   48.0622 H   0  0  0  0  0  0  0  0  0  0  0  0
   59.0440   32.7630   46.7660 C   0  0  0  0  0  0  0  0  0  0  0  0
   58.3300   32.6570   45.5960 C   0  0  0  0  0  0  0  0  0  0  0  0
   58.1980   33.7530   44.7320 C   0  0  0  0  0  0  0  0  0  0  0  0
   57.5857   33.6848   43.8207 H   0  0  0  0  0  0  0  0  0  0  0  0
   57.7780   31.3750   45.6510 C   0  0  0  0  0  0  0  0  0  0  0  0
   57.0100   30.7710   44.7900 N   0  0  0  0  0  0  0  0  0  0  0  0
   56.4010   29.4790   44.8960 C   0  0  0  0  0  0  0  0  0  0  0  0
   55.1480   29.3580   44.8540 O   0  0  0  0  0  0  0  0  0  0  0  0
   57.2690   28.2510   44.8590 C   0  0  0  0  0  0  0  0  0  0  0  0
   57.4062   27.9449   43.8114 H   0  0  0  0  0  0  0  0  0  0  0  0
   56.7682   27.4640   45.4420 H   0  0  0  0  0  0  0  0  0  0  0  0
   58.6020   28.4920   45.4660 N   0  0  1  0  0  0  0  0  0  0  0  0
   58.6710   29.4860   45.7920 H   0  0  0  0  0  0  0  0  0  0  0  0
   58.7870   27.6250   46.6480 C   0  0  0  0  0  0  0  0  0  0  0  0
   58.6598   28.2212   47.5636 H   0  0  0  0  0  0  0  0  0  0  0  0
   58.0411   26.8167   46.6302 H   0  0  0  0  0  0  0  0  0  0  0  0
   59.7978   27.1916   46.6302 H   0  0  0  0  0  0  0  0  0  0  0  0
   59.6890   28.2310   44.4890 C   0  0  0  0  0  0  0  0  0  0  0  0
   59.3685   28.5916   43.5005 H   0  0  0  0  0  0  0  0  0  0  0  0
   59.8791   27.1476   44.4831 H   0  0  0  0  0  0  0  0  0  0  0  0
   61.0000   28.9310   44.8660 C   0  0  0  0  0  0  0  0  0  0  0  0
   61.0886   28.9783   45.9614 H   0  0  0  0  0  0  0  0  0  0  0  0
   61.8490   28.3662   44.4535 H   0  0  0  0  0  0  0  0  0  0  0  0
   61.0030   29.9507   44.4535 H   0  0  0  0  0  0  0  0  0  0  0  0
   58.1360   30.7850   46.8150 N   0  0  0  0  0  0  0  0  0  0  0  0
   58.9170   31.6280   47.4790 N   0  0  0  0  0  0  0  0  0  0  0  0
   59.4740   31.3530   48.7980 C   0  0  0  0  0  0  0  0  0  0  0  0
   58.7728   31.6992   49.5716 H   0  0  0  0  0  0  0  0  0  0  0  0
   59.6371   30.2708   48.9088 H   0  0  0  0  0  0  0  0  0  0  0  0
   60.4323   31.8815   48.9088 H   0  0  0  0  0  0  0  0  0  0  0  0
  1  2  1  0
  2  3  2  0
  3  4  1  0
  3  5  1  0
  5  6  1  0
  5  7  2  0
  7  8  1  0
  8  9  2  0
  9 10  1  0
  8 11  1  0
 11 12  2  0
 12 13  1  0
 13 14  2  0
 13 15  1  0
 15 16  1  0
 15 17  1  0
 15 18  1  0
 18 19  1  1
 18 20  1  0
 20 21  1  0
 20 22  1  0
 20 23  1  0
 18 24  1  0
 24 25  1  0
 24 26  1  0
 24 27  1  0
 27 28  1  0
 27 29  1  0
 27 30  1  0
 11 31  1  0
 31 32  1  0
 32 33  1  0
 33 34  1  0
 33 35  1  0
 33 36  1  0
  9  2  1  0
 32  7  1  0
M  CHG  2  18   1  31  -1
M  END
>  <UniqueID>  (15) 
14

>  <SMILES>  (15) 
CC[N@H+](C)CC(=O)/N=c1/[n-]n(C)c2ccccc12

>  <Energy>  (15) 
85.1304685314365

>  <Genealogy>  (15) 
CC[NH+](C)CC(=O)N=c1[n-]n(C)c2ccccc12 (protonated)
CC[N@H+](C)CC(=O)N=c1[n-]n(C)c2ccccc12 (chirality)
CC[N@H+](C)CC(=O)/N=c1/[n-]n(C)c2ccccc12 (cis-trans isomerization)
CC[N@H+](C)CC(=O)/N=c1/[n-]n(C)c2ccccc12 (3D coordinates assigned)
CC[N@H+](C)CC(=O)/N=c1/[n-]n(C)c2ccccc12 (optimized conformer: 85.1304685314365 kcal/mol)

>  <smiles>  (15) 
CCN(C)CC(=O)N=c1[nH]n(C)c2ccccc12

>  <score_type>  (15) 
oracle

>  <origin>  (15) 
adg

>  <m_score__min__energy>  (15) 
-6.1900000000000004

>  <m_primary>  (15) 
energy

$$$$
15:0
     RDKit          3D

 54 56  0  0  0  0  0  0  0  0999 V2000
   60.8140   26.4440   46.3950 C   0  0  0  0  0  0  0  0  0  0  0  0
   59.5720   26.3850   47.2790 C   0  0  0  0  0  0  0  0  0  0  0  0
   58.9230   27.7020   47.3480 N   0  0  0  0  0  0  0  0  0  0  0  0
   59.1790   28.3590   48.6370 C   0  0  0  0  0  0  0  0  0  0  0  0
   60.0400   29.6130   48.4200 C   0  0  0  0  0  0  0  0  0  0  0  0
   60.3810   29.8240   47.0000 N   0  0  0  0  0  0  0  0  0  0  0  0
   59.6070   30.9100   46.4070 C   0  0  0  0  0  0  0  0  0  0  0  0
   59.7880   32.2620   46.8230 C   0  0  0  0  0  0  0  0  0  0  0  0
   60.7050   32.6270   47.8440 C   0  0  0  0  0  0  0  0  0  0  0  0
   60.9220   33.9600   48.1790 C   0  0  0  0  0  0  0  0  0  0  0  0
   60.2460   34.9660   47.5100 C   0  0  0  0  0  0  0  0  0  0  0  0
   59.3120   34.6440   46.5310 C   0  0  0  0  0  0  0  0  0  0  0  0
   59.0250   33.2930   46.2010 C   0  0  0  0  0  0  0  0  0  0  0  0
   58.0390   32.9800   45.2890 N   0  0  0  0  0  0  0  0  0  0  0  0
   57.0400   34.0050   44.9030 C   0  0  0  0  0  0  0  0  0  0  0  0
   57.9540   31.7070   44.7680 C   0  0  0  0  0  0  0  0  0  0  0  0
   57.1490   31.4340   43.6340 C   0  0  0  0  0  0  0  0  0  0  0  0
   56.9920   30.1400   43.1500 C   0  0  0  0  0  0  0  0  0  0  0  0
   57.6340   29.0680   43.7740 C   0  0  0  0  0  0  0  0  0  0  0  0
   57.4750   27.7100   43.3140 N   0  0  0  0  0  0  0  0  0  0  0  0
   58.1490   26.5460   43.8920 C   0  0  0  0  0  0  0  0  0  0  0  0
   57.3260   25.9600   45.0420 C   0  0  0  0  0  0  0  0  0  0  0  0
   56.5320   27.0080   45.6760 N   0  0  0  0  0  0  0  0  0  0  0  0
   58.4820   29.3250   44.8580 C   0  0  0  0  0  0  0  0  0  0  0  0
   58.6880   30.6400   45.3510 C   0  0  0  0  0  0  0  0  0  0  0  0
   61.7128   26.4867   47.0278 H   0  0  0  0  0  0  0  0  0  0  0  0
   60.8550   25.5468   45.7599 H   0  0  0  0  0  0  0  0  0  0  0  0
   60.7698   27.3411   45.7599 H   0  0  0  0  0  0  0  0  0  0  0  0
   58.8642   25.6547   46.8597 H   0  0  0  0  0  0  0  0  0  0  0  0
   59.8728   26.0843   48.2935 H   0  0  0  0  0  0  0  0  0  0  0  0
   57.8890   27.5490   47.2730 H   0  0  0  0  0  0  0  0  0  0  0  0
   58.2220   28.6480   49.0960 H   0  0  0  0  0  0  0  0  0  0  0  0
   59.7127   27.6623   49.3002 H   0  0  0  0  0  0  0  0  0  0  0  0
   59.4844   30.4899   48.7837 H   0  0  0  0  0  0  0  0  0  0  0  0
   60.9806   29.4731   48.9730 H   0  0  0  0  0  0  0  0  0  0  0  0
   61.4090   29.9360   46.8890 H   0  0  0  0  0  0  0  0  0  0  0  0
   60.2120   28.9400   46.4700 H   0  0  0  0  0  0  0  0  0  0  0  0
   61.2549   31.8400   48.3809 H   0  0  0  0  0  0  0  0  0  0  0  0
   61.6333   34.2154   48.9783 H   0  0  0  0  0  0  0  0  0  0  0  0
   60.4475   36.0198   47.7527 H   0  0  0  0  0  0  0  0  0  0  0  0
   58.7852   35.4518   46.0019 H   0  0  0  0  0  0  0  0  0  0  0  0
   56.6044   34.4519   45.8088 H   0  0  0  0  0  0  0  0  0  0  0  0
   57.5303   34.7887   44.3069 H   0  0  0  0  0  0  0  0  0  0  0  0
   56.2440   33.5350   44.3069 H   0  0  0  0  0  0  0  0  0  0  0  0
   56.6370   32.2642   43.1254 H   0  0  0  0  0  0  0  0  0  0  0  0
   56.3578   29.9593   42.2696 H   0  0  0  0  0  0  0  0  0  0  0  0
   56.8300   27.5290   42.5100 H   0  0  0  0  0  0  0  0  0  0  0  0
   58.2780   25.7799   43.1133 H   0  0  0  0  0  0  0  0  0  0  0  0
   59.1276   26.8618   44.2825 H   0  0  0  0  0  0  0  0  0  0  0  0
   56.6546   25.1822   44.6493 H   0  0  0  0  0  0  0  0  0  0  0  0
   58.0080   25.5246   45.7872 H   0  0  0  0  0  0  0  0  0  0  0  0
   56.0140   27.5150   44.9220 H   0  0  0  0  0  0  0  0  0  0  0  0
   57.1880   27.7030   46.1020 H   0  0  0  0  0  0  0  0  0  0  0  0
   59.0028   28.4849   45.3408 H   0  0  0  0  0  0  0  0  0  0  0  0
  1  2  1  0
  2  3  1  0
  3  4  1  0
  4  5  1  0
  5  6  1  0
  6  7  1  0
  7  8  2  0
  8  9  1  0
  9 10  2  0
 10 11  1  0
 11 12  2  0
 12 13  1  0
 13 14  2  0
 14 15  1  0
 14 16  1  0
 16 17  2  0
 17 18  1  0
 18 19  2  0
 19 20  1  0
 20 21  1  0
 21 22  1  0
 22 23  1  0
 19 24  1  0
 24 25  2  0
 25  7  1  0
 13  8  1  0
 25 16  1  0
  1 26  1  0
  1 27  1  0
  1 28  1  0
  2 29  1  0
  2 30  1  0
  3 31  1  0
  4 32  1  0
  4 33  1  0
  5 34  1  0
  5 35  1  0
  6 36  1  0
  6 37  1  0
  9 38  1  0
 10 39  1  0
 11 40  1  0
 12 41  1  0
 15 42  1  0
 15 43  1  0
 15 44  1  0
 17 45  1  0
 18 46  1  0
 20 47  1  0
 21 48  1  0
 21 49  1  0
 22 50  1  0
 22 51  1  0
 23 52  1  0
 23 53  1  0
 24 54  1  0
M  CHG  2   6   1  14   1
M  END
>  <UniqueID>  (16) 
15

>  <SMILES>  (16) 
CCNCC[NH2+]c1c2ccccc2[n+](C)c2ccc(NCCN)cc12

>  <Energy>  (16) 
77.04884635109957

>  <Genealogy>  (16) 
CCNCC[NH2+]c1c2ccccc2[n+](C)c2ccc(NCCN)cc12 (protonated)
CCNCC[NH2+]c1c2ccccc2[n+](C)c2ccc(NCCN)cc12 (3D coordinates assigned)
CCNCC[NH2+]c1c2ccccc2[n+](C)c2ccc(NCCN)cc12 (optimized conformer: 77.04884635109957 kcal/mol)

>  <smiles>  (16) 
CCNCCNc1c2ccccc2[n+](C)c2ccc(NCCN)cc12

>  <score_type>  (16) 
oracle

>  <origin>  (16) 
adg

>  <m_score__min__energy>  (16) 
-4.4800000000000004

>  <m_primary>  (16) 
energy

$$$$
16:0
     RDKit          3D

 58 61  0  0  0  0  0  0  0  0999 V2000
   61.5100   33.4850   51.5510 C   0  0  0  0  0  0  0  0  0  0  0  0
   62.2380   34.1910   50.4100 C   0  0  0  0  0  0  0  0  0  0  0  0
   62.4500   33.2550   49.2830 N   0  0  0  0  0  0  0  0  0  0  0  0
   63.3350   33.8470   48.2520 C   0  0  0  0  0  0  0  0  0  0  0  0
   62.8600   33.4590   46.8540 C   0  0  0  0  0  0  0  0  0  0  0  0
   62.9800   31.9560   49.7590 C   0  0  0  0  0  0  0  0  0  0  0  0
   62.0390   30.8090   49.3640 C   0  0  0  0  0  0  0  0  0  0  0  0
   60.6290   31.2280   49.4230 N   0  0  0  0  0  0  0  0  0  0  0  0
   59.9580   30.9430   48.1660 C   0  0  0  0  0  0  0  0  0  0  0  0
   59.4720   31.9990   47.3500 C   0  0  0  0  0  0  0  0  0  0  0  0
   59.4170   33.3380   47.8070 C   0  0  0  0  0  0  0  0  0  0  0  0
   59.0140   34.3680   46.9580 C   0  0  0  0  0  0  0  0  0  0  0  0
   58.6580   34.0910   45.6440 C   0  0  0  0  0  0  0  0  0  0  0  0
   58.6810   32.7790   45.1750 C   0  0  0  0  0  0  0  0  0  0  0  0
   59.0690   31.7110   46.0190 C   0  0  0  0  0  0  0  0  0  0  0  0
   59.0630   30.4120   45.5670 N   0  0  0  0  0  0  0  0  0  0  0  0
   59.2220   30.1570   44.1190 C   0  0  0  0  0  0  0  0  0  0  0  0
   59.1320   29.3730   46.4720 C   0  0  0  0  0  0  0  0  0  0  0  0
   59.7510   29.6050   47.7300 C   0  0  0  0  0  0  0  0  0  0  0  0
   60.1590   28.4950   48.5010 C   0  0  0  0  0  0  0  0  0  0  0  0
   59.9740   27.1970   48.0400 C   0  0  0  0  0  0  0  0  0  0  0  0
   59.2290   26.9590   46.8860 C   0  0  0  0  0  0  0  0  0  0  0  0
   58.9770   25.6400   46.4830 C   0  0  0  0  0  0  0  0  0  0  0  0
   58.1230   25.3850   45.4150 C   0  0  0  0  0  0  0  0  0  0  0  0
   57.4430   26.4350   44.8020 C   0  0  0  0  0  0  0  0  0  0  0  0
   57.6590   27.7640   45.2060 C   0  0  0  0  0  0  0  0  0  0  0  0
   56.7200   28.7700   44.7830 N   0  0  0  0  0  0  0  0  0  0  0  0
   56.2560   29.5860   45.6060 O   0  0  0  0  0  0  0  0  0  0  0  0
   56.4910   28.9780   43.4410 O   0  0  0  0  0  0  0  0  0  0  0  0
   58.6820   28.0480   46.1600 C   0  0  0  0  0  0  0  0  0  0  0  0
   61.8916   33.8551   52.5140 H   0  0  0  0  0  0  0  0  0  0  0  0
   60.4316   33.6903   51.4806 H   0  0  0  0  0  0  0  0  0  0  0  0
   61.6822   32.4008   51.4806 H   0  0  0  0  0  0  0  0  0  0  0  0
   61.6340   35.0435   50.0658 H   0  0  0  0  0  0  0  0  0  0  0  0
   63.2147   34.5449   50.7716 H   0  0  0  0  0  0  0  0  0  0  0  0
   63.3206   34.9427   48.3482 H   0  0  0  0  0  0  0  0  0  0  0  0
   64.3568   33.4672   48.3991 H   0  0  0  0  0  0  0  0  0  0  0  0
   62.0104   32.7650   46.9349 H   0  0  0  0  0  0  0  0  0  0  0  0
   62.5455   34.3618   46.3099 H   0  0  0  0  0  0  0  0  0  0  0  0
   63.6819   32.9706   46.3099 H   0  0  0  0  0  0  0  0  0  0  0  0
   63.9690   31.7829   49.3096 H   0  0  0  0  0  0  0  0  0  0  0  0
   63.0595   31.9867   50.8557 H   0  0  0  0  0  0  0  0  0  0  0  0
   62.2750   30.4893   48.3383 H   0  0  0  0  0  0  0  0  0  0  0  0
   62.1846   29.9811   50.0735 H   0  0  0  0  0  0  0  0  0  0  0  0
   60.1440   30.7590   50.2190 H   0  0  0  0  0  0  0  0  0  0  0  0
   60.5530   32.2420   49.6590 H   0  0  0  0  0  0  0  0  0  0  0  0
   59.6959   33.5688   48.8457 H   0  0  0  0  0  0  0  0  0  0  0  0
   58.9778   35.4027   47.3296 H   0  0  0  0  0  0  0  0  0  0  0  0
   58.3574   34.9088   44.9726 H   0  0  0  0  0  0  0  0  0  0  0  0
   58.3935   32.5703   44.1339 H   0  0  0  0  0  0  0  0  0  0  0  0
   59.7987   29.2321   43.9707 H   0  0  0  0  0  0  0  0  0  0  0  0
   58.2307   30.0494   43.6546 H   0  0  0  0  0  0  0  0  0  0  0  0
   59.7549   30.9998   43.6546 H   0  0  0  0  0  0  0  0  0  0  0  0
   60.6303   28.6599   49.4811 H   0  0  0  0  0  0  0  0  0  0  0  0
   60.4177   26.3531   48.5886 H   0  0  0  0  0  0  0  0  0  0  0  0
   59.4563   24.8039   47.0132 H   0  0  0  0  0  0  0  0  0  0  0  0
   57.9847   24.3549   45.0547 H   0  0  0  0  0  0  0  0  0  0  0  0
   56.7291   26.2218   43.9928 H   0  0  0  0  0  0  0  0  0  0  0  0
  1  2  1  0
  2  3  1  0
  3  4  1  0
  4  5  1  0
  3  6  1  0
  6  7  1  0
  7  8  1  0
  8  9  1  0
  9 10  2  0
 10 11  1  0
 11 12  2  0
 12 13  1  0
 13 14  2  0
 14 15  1  0
 15 16  2  0
 16 17  1  0
 16 18  1  0
 18 19  2  0
 19 20  1  0
 20 21  2  0
 21 22  1  0
 22 23  2  0
 23 24  1  0
 24 25  2  0
 25 26  1  0
 26 27  1  0
 27 28  2  0
 27 29  1  0
 26 30  2  0
 19  9  1  0
 30 22  1  0
 15 10  1  0
 30 18  1  0
  1 31  1  0
  1 32  1  0
  1 33  1  0
  2 34  1  0
  2 35  1  0
  4 36  1  0
  4 37  1  0
  5 38  1  0
  5 39  1  0
  5 40  1  0
  6 41  1  0
  6 42  1  0
  7 43  1  0
  7 44  1  0
  8 45  1  0
  8 46  1  0
 11 47  1  0
 12 48  1  0
 13 49  1  0
 14 50  1  0
 17 51  1  0
 17 52  1  0
 17 53  1  0
 20 54  1  0
 21 55  1  0
 23 56  1  0
 24 57  1  0
 25 58  1  0
M  CHG  4   8   1  16   1  27   1  29  -1
M  END
>  <UniqueID>  (17) 
16

>  <SMILES>  (17) 
CCN(CC)CC[NH2+]c1c2ccccc2[n+](C)c2c1ccc1cccc([N+](=O)[O-])c12

>  <Energy>  (17) 
109.94127046252599

>  <Genealogy>  (17) 
CCN(CC)CC[NH2+]c1c2ccccc2[n+](C)c2c1ccc1cccc([N+](=O)[O-])c12 (protonated)
CCN(CC)CC[NH2+]c1c2ccccc2[n+](C)c2c1ccc1cccc([N+](=O)[O-])c12 (3D coordinates assigned)
CCN(CC)CC[NH2+]c1c2ccccc2[n+](C)c2c1ccc1cccc([N+](=O)[O-])c12 (optimized conformer: 109.94127046252599 kcal/mol)

>  <smiles>  (17) 
CCN(CC)CCNc1c2ccccc2[n+](C)c2c1ccc1cccc([N+](=O)[O-])c12

>  <score_type>  (17) 
oracle

>  <origin>  (17) 
adg

>  <m_score__min__energy>  (17) 
-5.25

>  <m_primary>  (17) 
energy

$$$$
17:0
     RDKit          3D

 36 37  0  0  0  0  0  0  0  0999 V2000
   63.3940   33.4450   46.8050 C   0  0  0  0  0  0  0  0  0  0  0  0
   62.9090   33.1840   48.2340 C   0  0  0  0  0  0  0  0  0  0  0  0
   62.0760   34.2900   48.7490 N   0  0  0  0  0  0  0  0  0  0  0  0
   61.0140   33.8300   49.6710 C   0  0  0  0  0  0  0  0  0  0  0  0
   59.6260   33.7670   49.0130 C   0  0  0  0  0  0  0  0  0  0  0  0
   59.6630   34.2260   47.6600 O   0  0  0  0  0  0  0  0  0  0  0  0
   59.1100   33.5870   46.5370 C   0  0  0  0  0  0  0  0  0  0  0  0
   59.3720   34.1420   45.2800 C   0  0  0  0  0  0  0  0  0  0  0  0
   58.8460   33.5740   44.1190 C   0  0  0  0  0  0  0  0  0  0  0  0
   58.0410   32.4210   44.1940 C   0  0  0  0  0  0  0  0  0  0  0  0
   57.4790   31.8050   43.0530 C   0  0  0  0  0  0  0  0  0  0  0  0
   57.6990   32.3430   41.6620 C   0  0  0  0  0  0  0  0  0  0  0  0
   56.6940   30.6570   43.2280 C   0  0  0  0  0  0  0  0  0  0  0  0
   56.4900   30.1540   44.5150 C   0  0  0  0  0  0  0  0  0  0  0  0
   55.7870   29.1230   44.6820 O   0  0  0  0  0  0  0  0  0  0  0  0
   57.0310   30.7570   45.5670 O   0  0  0  0  0  0  0  0  0  0  0  0
   57.7820   31.8480   45.4610 C   0  0  0  0  0  0  0  0  0  0  0  0
   58.3170   32.4260   46.6190 C   0  0  0  0  0  0  0  0  0  0  0  0
   64.3623   33.9661   46.8358 H   0  0  0  0  0  0  0  0  0  0  0  0
   63.5097   32.4873   46.2764 H   0  0  0  0  0  0  0  0  0  0  0  0
   62.6584   34.0691   46.2764 H   0  0  0  0  0  0  0  0  0  0  0  0
   62.3148   32.2584   48.2433 H   0  0  0  0  0  0  0  0  0  0  0  0
   63.7940   33.0968   48.8814 H   0  0  0  0  0  0  0  0  0  0  0  0
   62.6860   34.9780   49.2490 H   0  0  0  0  0  0  0  0  0  0  0  0
   61.6600   34.8080   47.9430 H   0  0  0  0  0  0  0  0  0  0  0  0
   61.2758   32.8244   50.0318 H   0  0  0  0  0  0  0  0  0  0  0  0
   60.9541   34.5607   50.4910 H   0  0  0  0  0  0  0  0  0  0  0  0
   59.2714   32.7258   49.0270 H   0  0  0  0  0  0  0  0  0  0  0  0
   58.9471   34.4213   49.5795 H   0  0  0  0  0  0  0  0  0  0  0  0
   60.0026   35.0403   45.2056 H   0  0  0  0  0  0  0  0  0  0  0  0
   59.0611   34.0289   43.1409 H   0  0  0  0  0  0  0  0  0  0  0  0
   58.1147   33.3596   41.7235 H   0  0  0  0  0  0  0  0  0  0  0  0
   58.4027   31.6910   41.1238 H   0  0  0  0  0  0  0  0  0  0  0  0
   56.7401   32.3709   41.1238 H   0  0  0  0  0  0  0  0  0  0  0  0
   56.2423   30.1563   42.3589 H   0  0  0  0  0  0  0  0  0  0  0  0
   58.1164   31.9699   47.5997 H   0  0  0  0  0  0  0  0  0  0  0  0
  1  2  1  0
  2  3  1  0
  3  4  1  0
  4  5  1  0
  5  6  1  0
  6  7  1  0
  7  8  2  0
  8  9  1  0
  9 10  2  0
 10 11  1  0
 11 12  1  0
 11 13  2  0
 13 14  1  0
 14 15  2  0
 14 16  1  0
 16 17  1  0
 17 18  2  0
 18  7  1  0
 17 10  1  0
  1 19  1  0
  1 20  1  0
  1 21  1  0
  2 22  1  0
  2 23  1  0
  3 24  1  0
  3 25  1  0
  4 26  1  0
  4 27  1  0
  5 28  1  0
  5 29  1  0
  8 30  1  0
  9 31  1  0
 12 32  1  0
 12 33  1  0
 12 34  1  0
 13 35  1  0
 18 36  1  0
M  CHG  1   3   1
M  END
>  <UniqueID>  (18) 
17

>  <SMILES>  (18) 
CC[NH2+]CCOc1ccc2c(C)cc(=O)oc2c1

>  <Energy>  (18) 
42.54734271631241

>  <Genealogy>  (18) 
CC[NH2+]CCOc1ccc2c(C)cc(=O)oc2c1 (protonated)
CC[NH2+]CCOc1ccc2c(C)cc(=O)oc2c1 (3D coordinates assigned)
CC[NH2+]CCOc1ccc2c(C)cc(=O)oc2c1 (optimized conformer: 42.54734271631241 kcal/mol)

>  <smiles>  (18) 
CCNCCOc1ccc2c(C)cc(=O)oc2c1

>  <score_type>  (18) 
oracle

>  <origin>  (18) 
adg

>  <m_score__min__energy>  (18) 
-5.1900000000000004

>  <m_primary>  (18) 
energy

$$$$
18:0
     RDKit          3D

 55 58  0  0  0  0  0  0  0  0999 V2000
   59.3090   35.0750   46.0960 C   0  0  0  0  0  0  0  0  0  0  0  0
   59.0190   34.4560   47.4580 C   0  0  0  0  0  0  0  0  0  0  0  0
   59.7880   33.2230   47.6300 N   0  0  0  0  0  0  0  0  0  0  0  0
   59.2710   31.9990   47.8900 C   0  0  0  0  0  0  0  0  0  0  0  0
   60.2790   31.0420   47.9020 C   0  0  0  0  0  0  0  0  0  0  0  0
   60.0880   29.5650   48.0750 C   0  0  0  0  0  0  0  0  0  0  0  0
   59.2030   29.0410   47.0190 N   0  0  0  0  0  0  0  0  0  0  0  0
   58.4470   27.8680   47.5070 C   0  0  0  0  0  0  0  0  0  0  0  0
   57.7830   27.0830   46.3530 C   0  0  0  0  0  0  0  0  0  0  0  0
   57.6610   27.8870   45.1180 N   0  0  0  0  0  0  0  0  0  0  0  0
   56.6680   28.9820   45.2280 C   0  0  0  0  0  0  0  0  0  0  0  0
   57.1400   30.2230   44.5030 C   0  0  0  0  0  0  0  0  0  0  0  0
   57.7630   31.2460   45.2420 C   0  0  0  0  0  0  0  0  0  0  0  0
   58.1930   32.4170   44.6140 C   0  0  0  0  0  0  0  0  0  0  0  0
   58.0110   32.5810   43.2420 C   0  0  0  0  0  0  0  0  0  0  0  0
   57.3950   31.5770   42.4910 C   0  0  0  0  0  0  0  0  0  0  0  0
   56.9470   30.3950   43.1080 C   0  0  0  0  0  0  0  0  0  0  0  0
   56.2910   29.3310   42.2660 C   0  0  0  0  0  0  0  0  0  0  0  0
   58.9840   28.3650   44.6500 C   0  0  0  0  0  0  0  0  0  0  0  0
   59.9570   28.6950   45.8010 C   0  0  0  0  0  0  0  0  0  0  0  0
   61.4490   31.7220   47.6130 C   0  0  0  0  0  0  0  0  0  0  0  0
   62.7590   31.2690   47.4520 C   0  0  0  0  0  0  0  0  0  0  0  0
   63.7480   32.2140   47.1260 C   0  0  0  0  0  0  0  0  0  0  0  0
   63.4080   33.5740   46.9590 C   0  0  0  0  0  0  0  0  0  0  0  0
   62.0770   34.0020   47.1170 C   0  0  0  0  0  0  0  0  0  0  0  0
   61.1150   33.0450   47.4520 C   0  0  0  0  0  0  0  0  0  0  0  0
   59.7720   36.0633   46.2335 H   0  0  0  0  0  0  0  0  0  0  0  0
   59.9955   34.4232   45.5357 H   0  0  0  0  0  0  0  0  0  0  0  0
   58.3688   35.1853   45.5357 H   0  0  0  0  0  0  0  0  0  0  0  0
   59.2967   35.1699   48.2475 H   0  0  0  0  0  0  0  0  0  0  0  0
   57.9464   34.2206   47.5228 H   0  0  0  0  0  0  0  0  0  0  0  0
   58.2053   31.7915   48.0666 H   0  0  0  0  0  0  0  0  0  0  0  0
   61.0645   29.0623   48.0138 H   0  0  0  0  0  0  0  0  0  0  0  0
   59.6293   29.3740   49.0564 H   0  0  0  0  0  0  0  0  0  0  0  0
   59.1373   27.1981   48.0406 H   0  0  0  0  0  0  0  0  0  0  0  0
   57.6498   28.2316   48.1720 H   0  0  0  0  0  0  0  0  0  0  0  0
   58.3917   26.1929   46.1358 H   0  0  0  0  0  0  0  0  0  0  0  0
   56.7675   26.8096   46.6756 H   0  0  0  0  0  0  0  0  0  0  0  0
   55.7165   28.6492   44.7876 H   0  0  0  0  0  0  0  0  0  0  0  0
   56.5375   29.2285   46.2921 H   0  0  0  0  0  0  0  0  0  0  0  0
   57.9127   31.1221   46.3247 H   0  0  0  0  0  0  0  0  0  0  0  0
   58.6759   33.2107   45.2029 H   0  0  0  0  0  0  0  0  0  0  0  0
   58.3532   33.5031   42.7494 H   0  0  0  0  0  0  0  0  0  0  0  0
   57.2591   31.7119   41.4078 H   0  0  0  0  0  0  0  0  0  0  0  0
   55.8273   28.5789   42.9213 H   0  0  0  0  0  0  0  0  0  0  0  0
   55.5189   29.7901   41.6311 H   0  0  0  0  0  0  0  0  0  0  0  0
   57.0480   28.8474   41.6311 H   0  0  0  0  0  0  0  0  0  0  0  0
   59.4366   27.5817   44.0242 H   0  0  0  0  0  0  0  0  0  0  0  0
   58.8140   29.2967   44.0905 H   0  0  0  0  0  0  0  0  0  0  0  0
   60.5920   27.8197   46.0027 H   0  0  0  0  0  0  0  0  0  0  0  0
   60.5819   29.5519   45.5092 H   0  0  0  0  0  0  0  0  0  0  0  0
   63.0103   30.2053   47.5763 H   0  0  0  0  0  0  0  0  0  0  0  0
   64.7922   31.8918   47.0004 H   0  0  0  0  0  0  0  0  0  0  0  0
   64.1896   34.3046   46.7034 H   0  0  0  0  0  0  0  0  0  0  0  0
   61.8018   35.0583   46.9809 H   0  0  0  0  0  0  0  0  0  0  0  0
  1  2  1  0
  2  3  1  0
  3  4  1  0
  4  5  2  0
  5  6  1  0
  6  7  1  0
  7  8  1  0
  8  9  1  0
  9 10  1  0
 10 11  1  0
 11 12  1  0
 12 13  2  0
 13 14  1  0
 14 15  2  0
 15 16  1  0
 16 17  2  0
 17 18  1  0
 10 19  1  0
 19 20  1  0
  5 21  1  0
 21 22  2  0
 22 23  1  0
 23 24  2  0
 24 25  1  0
 25 26  2  0
 26  3  1  0
 20  7  1  0
 26 21  1  0
 17 12  1  0
  1 27  1  0
  1 28  1  0
  1 29  1  0
  2 30  1  0
  2 31  1  0
  4 32  1  0
  6 33  1  0
  6 34  1  0
  8 35  1  0
  8 36  1  0
  9 37  1  0
  9 38  1  0
 11 39  1  0
 11 40  1  0
 13 41  1  0
 14 42  1  0
 15 43  1  0
 16 44  1  0
 18 45  1  0
 18 46  1  0
 18 47  1  0
 19 48  1  0
 19 49  1  0
 20 50  1  0
 20 51  1  0
 22 52  1  0
 23 53  1  0
 24 54  1  0
 25 55  1  0
M  END
>  <UniqueID>  (19) 
18

>  <SMILES>  (19) 
CCn1cc(CN2CCN(Cc3ccccc3C)CC2)c2ccccc21

>  <Energy>  (19) 
99.06523398796888

>  <Genealogy>  (19) 
CCn1cc(CN2CCN(Cc3ccccc3C)CC2)c2ccccc21 (3D coordinates assigned)
CCn1cc(CN2CCN(Cc3ccccc3C)CC2)c2ccccc21 (nonaromatic ring conformer: 99.06523398796888 kcal/mol)

>  <smiles>  (19) 
CCn1cc(CN2CCN(Cc3ccccc3C)CC2)c2ccccc21

>  <score_type>  (19) 
oracle

>  <origin>  (19) 
adg

>  <m_score__min__energy>  (19) 
-8.0899999999999999

>  <m_primary>  (19) 
energy

$$$$
19:0
     RDKit          3D

 43 45  0  0  0  0  0  0  0  0999 V2000
   60.1690   28.5670   44.5770 C   0  0  0  0  0  0  0  0  0  0  0  0
   59.5620   29.8680   45.0930 C   0  0  0  0  0  0  0  0  0  0  0  0
   58.0980   29.8180   45.0460 N   0  0  0  0  0  0  0  0  0  0  0  0
   57.2720   30.6970   44.4340 C   0  0  0  0  0  0  0  0  0  0  0  0
   57.7940   32.2290   43.6600 S   0  0  0  0  0  0  0  0  0  0  0  0
   57.8830   33.1360   45.2410 C   0  0  0  0  0  0  0  0  0  0  0  0
   58.0600   34.6330   44.9860 C   0  0  0  0  0  0  0  0  0  0  0  0
   59.2760   35.1140   45.5640 O   0  0  0  0  0  0  0  0  0  0  0  0
   59.9390   34.5460   46.6630 C   0  0  0  0  0  0  0  0  0  0  0  0
   59.3770   34.5030   47.9550 C   0  0  0  0  0  0  0  0  0  0  0  0
   60.0830   33.9180   49.0100 C   0  0  0  0  0  0  0  0  0  0  0  0
   61.3510   33.3750   48.7920 C   0  0  0  0  0  0  0  0  0  0  0  0
   61.9290   33.4230   47.5140 C   0  0  0  0  0  0  0  0  0  0  0  0
   63.2730   32.8030   47.2690 C   0  0  0  0  0  0  0  0  0  0  0  0
   61.2090   33.9950   46.4540 C   0  0  0  0  0  0  0  0  0  0  0  0
   55.9930   30.2770   44.4410 N   0  0  0  0  0  0  0  0  0  0  0  0
   55.9940   29.1150   45.0730 N   0  0  0  0  0  0  0  0  0  0  0  0
   57.2570   28.8340   45.4460 C   0  0  0  0  0  0  0  0  0  0  0  0
   57.6270   27.5890   46.1500 C   0  0  0  0  0  0  0  0  0  0  0  0
   58.4790   27.4520   47.2430 C   0  0  0  0  0  0  0  0  0  0  0  0
   58.5700   26.1370   47.7160 C   0  0  0  0  0  0  0  0  0  0  0  0
   57.7830   25.2340   47.0140 C   0  0  0  0  0  0  0  0  0  0  0  0
   56.9720   26.0760   45.8090 S   0  0  0  0  0  0  0  0  0  0  0  0
   60.4632   27.9364   45.4289 H   0  0  0  0  0  0  0  0  0  0  0  0
   59.4268   28.0335   43.9650 H   0  0  0  0  0  0  0  0  0  0  0  0
   61.0547   28.7930   43.9650 H   0  0  0  0  0  0  0  0  0  0  0  0
   59.8835   30.0277   46.1328 H   0  0  0  0  0  0  0  0  0  0  0  0
   59.9057   30.6939   44.4528 H   0  0  0  0  0  0  0  0  0  0  0  0
   56.9537   32.9718   45.8061 H   0  0  0  0  0  0  0  0  0  0  0  0
   58.7449   32.7672   45.8165 H   0  0  0  0  0  0  0  0  0  0  0  0
   58.0826   34.8123   43.9009 H   0  0  0  0  0  0  0  0  0  0  0  0
   57.2178   35.1680   45.4491 H   0  0  0  0  0  0  0  0  0  0  0  0
   58.3796   34.9312   48.1335 H   0  0  0  0  0  0  0  0  0  0  0  0
   59.6382   33.8852   50.0155 H   0  0  0  0  0  0  0  0  0  0  0  0
   61.8983   32.9084   49.6243 H   0  0  0  0  0  0  0  0  0  0  0  0
   63.7553   32.5805   48.2323 H   0  0  0  0  0  0  0  0  0  0  0  0
   63.1484   31.8714   46.6975 H   0  0  0  0  0  0  0  0  0  0  0  0
   63.9008   33.5025   46.6975 H   0  0  0  0  0  0  0  0  0  0  0  0
   61.6482   34.0107   45.4456 H   0  0  0  0  0  0  0  0  0  0  0  0
   55.1430   28.5340   45.2400 H   0  0  0  0  0  0  0  0  0  0  0  0
   59.0268   28.2942   47.6909 H   0  0  0  0  0  0  0  0  0  0  0  0
   59.2061   25.8465   48.5651 H   0  0  0  0  0  0  0  0  0  0  0  0
   57.7045   24.1549   47.2127 H   0  0  0  0  0  0  0  0  0  0  0  0
  1  2  1  0
  2  3  1  0
  3  4  1  0
  4  5  1  0
  5  6  1  0
  6  7  1  0
  7  8  1  0
  8  9  1  0
  9 10  2  0
 10 11  1  0
 11 12  2  0
 12 13  1  0
 13 14  1  0
 13 15  2  0
  4 16  2  0
 16 17  1  0
 17 18  2  0
 18 19  1  0
 19 20  2  0
 20 21  1  0
 21 22  2  0
 22 23  1  0
 18  3  1  0
 23 19  1  0
 15  9  1  0
  1 24  1  0
  1 25  1  0
  1 26  1  0
  2 27  1  0
  2 28  1  0
  6 29  1  0
  6 30  1  0
  7 31  1  0
  7 32  1  0
 10 33  1  0
 11 34  1  0
 12 35  1  0
 14 36  1  0
 14 37  1  0
 14 38  1  0
 15 39  1  0
 17 40  1  0
 20 41  1  0
 21 42  1  0
 22 43  1  0
M  CHG  1  17   1
M  END
>  <UniqueID>  (20) 
19

>  <SMILES>  (20) 
CCn1c(SCCOc2cccc(C)c2)n[nH+]c1-c1cccs1

>  <Energy>  (20) 
100.6648888832987

>  <Genealogy>  (20) 
CCn1c(SCCOc2cccc(C)c2)n[nH+]c1-c1cccs1 (protonated)
CCn1c(SCCOc2cccc(C)c2)n[nH+]c1-c1cccs1 (3D coordinates assigned)
CCn1c(SCCOc2cccc(C)c2)n[nH+]c1-c1cccs1 (optimized conformer: 100.6648888832987 kcal/mol)

>  <smiles>  (20) 
CCn1c(SCCOc2cccc(C)c2)nnc1-c1cccs1

>  <score_type>  (20) 
oracle

>  <origin>  (20) 
adg

>  <m_score__min__energy>  (20) 
-6.5599999999999996

>  <m_primary>  (20) 
energy

$$$$
20:0
     RDKit          3D

 50 52  0  0  0  0  0  0  0  0999 V2000
   59.9330   33.1960   49.4170 C   0  0  0  0  0  0  0  0  0  0  0  0
   60.7610   34.1690   48.5610 C   0  0  0  0  0  0  0  0  0  0  0  0
   60.8190   33.8120   47.1230 N   0  0  0  0  0  0  0  0  0  0  0  0
   62.2120   33.7170   46.6300 C   0  0  0  0  0  0  0  0  0  0  0  0
   63.0160   32.7160   47.4550 C   0  0  0  0  0  0  0  0  0  0  0  0
   59.9530   34.6720   46.2790 C   0  0  0  0  0  0  0  0  0  0  0  0
   58.4690   34.3230   46.4810 C   0  0  0  0  0  0  0  0  0  0  0  0
   58.1820   32.8100   46.6040 C   0  0  0  0  0  0  0  0  0  0  0  0
   59.3350   31.9560   46.2500 N   0  0  0  0  0  0  0  0  0  0  0  0
   58.9330   30.6220   45.8310 C   0  0  0  0  0  0  0  0  0  0  0  0
   59.2950   29.4400   46.5490 C   0  0  0  0  0  0  0  0  0  0  0  0
   60.0330   29.4890   47.7580 C   0  0  0  0  0  0  0  0  0  0  0  0
   60.3410   28.3290   48.4620 C   0  0  0  0  0  0  0  0  0  0  0  0
   59.9230   27.0940   47.9940 C   0  0  0  0  0  0  0  0  0  0  0  0
   59.2200   27.0010   46.7970 C   0  0  0  0  0  0  0  0  0  0  0  0
   58.9190   28.1570   46.0290 C   0  0  0  0  0  0  0  0  0  0  0  0
   58.2770   28.0520   44.8100 N   0  0  0  0  0  0  0  0  0  0  0  0
   58.0940   26.7410   44.1530 C   0  0  0  0  0  0  0  0  0  0  0  0
   57.8100   29.1870   44.1990 C   0  0  0  0  0  0  0  0  0  0  0  0
   56.9940   29.2160   43.0620 C   0  0  0  0  0  0  0  0  0  0  0  0
   56.7190   30.8200   42.6590 S   0  0  0  0  0  0  0  0  0  0  0  0
   57.6060   31.5030   43.9070 C   0  0  0  0  0  0  0  0  0  0  0  0
   58.1340   30.4660   44.6820 C   0  0  0  0  0  0  0  0  0  0  0  0
   60.1097   33.4036   50.4827 H   0  0  0  0  0  0  0  0  0  0  0  0
   58.8645   33.3263   49.1903 H   0  0  0  0  0  0  0  0  0  0  0  0
   60.2325   32.1621   49.1903 H   0  0  0  0  0  0  0  0  0  0  0  0
   60.3169   35.1714   48.6504 H   0  0  0  0  0  0  0  0  0  0  0  0
   61.7927   34.1258   48.9402 H   0  0  0  0  0  0  0  0  0  0  0  0
   62.2006   33.3908   45.5796 H   0  0  0  0  0  0  0  0  0  0  0  0
   62.6845   34.7062   46.7207 H   0  0  0  0  0  0  0  0  0  0  0  0
   62.8581   32.9126   48.5257 H   0  0  0  0  0  0  0  0  0  0  0  0
   62.6845   31.6945   47.2170 H   0  0  0  0  0  0  0  0  0  0  0  0
   64.0849   32.8194   47.2170 H   0  0  0  0  0  0  0  0  0  0  0  0
   60.1157   35.7251   46.5520 H   0  0  0  0  0  0  0  0  0  0  0  0
   60.2129   34.5041   45.2234 H   0  0  0  0  0  0  0  0  0  0  0  0
   58.1216   34.8153   47.4013 H   0  0  0  0  0  0  0  0  0  0  0  0
   57.9386   34.6719   45.5827 H   0  0  0  0  0  0  0  0  0  0  0  0
   57.8963   32.5941   47.6441 H   0  0  0  0  0  0  0  0  0  0  0  0
   57.3778   32.5763   45.8908 H   0  0  0  0  0  0  0  0  0  0  0  0
   59.9420   31.8650   47.0940 H   0  0  0  0  0  0  0  0  0  0  0  0
   59.9530   32.4430   45.5700 H   0  0  0  0  0  0  0  0  0  0  0  0
   60.3684   30.4618   48.1469 H   0  0  0  0  0  0  0  0  0  0  0  0
   60.9196   28.3930   49.3953 H   0  0  0  0  0  0  0  0  0  0  0  0
   60.1475   26.1844   48.5703 H   0  0  0  0  0  0  0  0  0  0  0  0
   58.8914   26.0142   46.4390 H   0  0  0  0  0  0  0  0  0  0  0  0
   57.9849   25.9591   44.9189 H   0  0  0  0  0  0  0  0  0  0  0  0
   57.1909   26.7682   43.5255 H   0  0  0  0  0  0  0  0  0  0  0  0
   58.9700   26.5199   43.5255 H   0  0  0  0  0  0  0  0  0  0  0  0
   56.6015   28.3391   42.5262 H   0  0  0  0  0  0  0  0  0  0  0  0
   57.7478   32.5792   44.0850 H   0  0  0  0  0  0  0  0  0  0  0  0
  1  2  1  0
  2  3  1  0
  3  4  1  0
  4  5  1  0
  3  6  1  0
  6  7  1  0
  7  8  1  0
  8  9  1  0
  9 10  1  0
 10 11  2  0
 11 12  1  0
 12 13  2  0
 13 14  1  0
 14 15  2  0
 15 16  1  0
 16 17  2  0
 17 18  1  0
 17 19  1  0
 19 20  2  0
 20 21  1  0
 21 22  1  0
 22 23  2  0
 23 10  1  0
 16 11  1  0
 23 19  1  0
  1 24  1  0
  1 25  1  0
  1 26  1  0
  2 27  1  0
  2 28  1  0
  4 29  1  0
  4 30  1  0
  5 31  1  0
  5 32  1  0
  5 33  1  0
  6 34  1  0
  6 35  1  0
  7 36  1  0
  7 37  1  0
  8 38  1  0
  8 39  1  0
  9 40  1  0
  9 41  1  0
 12 42  1  0
 13 43  1  0
 14 44  1  0
 15 45  1  0
 18 46  1  0
 18 47  1  0
 18 48  1  0
 20 49  1  0
 22 50  1  0
M  CHG  2   9   1  17   1
M  END
>  <UniqueID>  (21) 
20

>  <SMILES>  (21) 
CCN(CC)CCC[NH2+]c1c2ccccc2[n+](C)c2cscc12

>  <Energy>  (21) 
98.8094031196236

>  <Genealogy>  (21) 
CCN(CC)CCC[NH2+]c1c2ccccc2[n+](C)c2cscc12 (protonated)
CCN(CC)CCC[NH2+]c1c2ccccc2[n+](C)c2cscc12 (3D coordinates assigned)
CCN(CC)CCC[NH2+]c1c2ccccc2[n+](C)c2cscc12 (optimized conformer: 98.8094031196236 kcal/mol)

>  <smiles>  (21) 
CCN(CC)CCCNc1c2ccccc2[n+](C)c2cscc12

>  <score_type>  (21) 
oracle

>  <origin>  (21) 
adg

>  <m_score__min__energy>  (21) 
-3.7000000000000002

>  <m_primary>  (21) 
energy

$$$$
21:0
     RDKit          3D

 41 42  0  0  0  0  0  0  0  0999 V2000
   63.2020   32.7340   47.1560 C   0  0  0  0  0  0  0  0  0  0  0  0
   62.1760   31.7050   47.3220 C   0  0  0  0  0  0  0  0  0  0  0  0
   61.3260   30.8630   47.4680 C   0  0  0  0  0  0  0  0  0  0  0  0
   60.2980   29.8360   47.6350 C   0  0  0  0  0  0  0  0  0  0  0  0
   60.6210   28.7350   46.8160 O   0  0  0  0  0  0  0  0  0  0  0  0
   59.9430   28.8490   45.5830 C   0  0  0  0  0  0  0  0  0  0  0  0
   58.4510   28.5890   45.7890 C   0  0  0  0  0  0  0  0  0  0  0  0
   57.7360   28.6300   44.5020 N   0  0  0  0  0  0  0  0  0  0  0  0
   58.0480   27.6410   43.4650 C   0  0  0  0  0  0  0  0  0  0  0  0
   56.6720   29.5860   44.3020 C   0  0  0  0  0  0  0  0  0  0  0  0
   55.5580   29.4100   44.8670 O   0  0  0  0  0  0  0  0  0  0  0  0
   56.8710   30.8420   43.5000 C   0  0  0  0  0  0  0  0  0  0  0  0
   57.6290   31.8520   44.3190 C   0  0  0  0  0  0  0  0  0  0  0  0
   58.1380   33.0160   43.7170 C   0  0  0  0  0  0  0  0  0  0  0  0
   58.7900   33.9850   44.4850 C   0  0  0  0  0  0  0  0  0  0  0  0
   58.9250   33.8080   45.8640 C   0  0  0  0  0  0  0  0  0  0  0  0
   59.5280   34.7550   46.6300 N   0  0  0  0  0  0  0  0  0  0  0  0
   59.6540   34.5930   47.9740 C   0  0  0  0  0  0  0  0  0  0  0  0
   59.1610   33.4320   48.5810 C   0  0  0  0  0  0  0  0  0  0  0  0
   58.5520   32.4840   47.8210 N   0  0  0  0  0  0  0  0  0  0  0  0
   58.4180   32.6420   46.4770 C   0  0  0  0  0  0  0  0  0  0  0  0
   57.7690   31.6730   45.7060 C   0  0  0  0  0  0  0  0  0  0  0  0
   63.5423   33.0753   48.1448 H   0  0  0  0  0  0  0  0  0  0  0  0
   64.0537   32.3161   46.5992 H   0  0  0  0  0  0  0  0  0  0  0  0
   62.7817   33.5845   46.5992 H   0  0  0  0  0  0  0  0  0  0  0  0
   60.2615   29.5166   48.6870 H   0  0  0  0  0  0  0  0  0  0  0  0
   59.3154   30.2397   47.3495 H   0  0  0  0  0  0  0  0  0  0  0  0
   60.0852   29.8626   45.1800 H   0  0  0  0  0  0  0  0  0  0  0  0
   60.3471   28.1099   44.8756 H   0  0  0  0  0  0  0  0  0  0  0  0
   58.3164   27.5976   46.2461 H   0  0  0  0  0  0  0  0  0  0  0  0
   58.0422   29.3697   46.4473 H   0  0  0  0  0  0  0  0  0  0  0  0
   58.3466   26.6944   43.9391 H   0  0  0  0  0  0  0  0  0  0  0  0
   57.1592   27.4732   42.8391 H   0  0  0  0  0  0  0  0  0  0  0  0
   58.8722   28.0136   42.8391 H   0  0  0  0  0  0  0  0  0  0  0  0
   57.4414   30.6077   42.5891 H   0  0  0  0  0  0  0  0  0  0  0  0
   55.8905   31.2579   43.2251 H   0  0  0  0  0  0  0  0  0  0  0  0
   58.0223   33.1654   42.6333 H   0  0  0  0  0  0  0  0  0  0  0  0
   59.1966   34.8866   44.0036 H   0  0  0  0  0  0  0  0  0  0  0  0
   60.1409   35.3703   48.5813 H   0  0  0  0  0  0  0  0  0  0  0  0
   59.2658   33.2878   49.6665 H   0  0  0  0  0  0  0  0  0  0  0  0
   57.3671   30.7685   46.1860 H   0  0  0  0  0  0  0  0  0  0  0  0
  1  2  1  0
  2  3  3  0
  3  4  1  0
  4  5  1  0
  5  6  1  0
  6  7  1  0
  7  8  1  0
  8  9  1  0
  8 10  1  0
 10 11  2  0
 10 12  1  0
 12 13  1  0
 13 14  2  0
 14 15  1  0
 15 16  2  0
 16 17  1  0
 17 18  2  0
 18 19  1  0
 19 20  2  0
 20 21  1  0
 21 22  2  0
 22 13  1  0
 21 16  1  0
  1 23  1  0
  1 24  1  0
  1 25  1  0
  4 26  1  0
  4 27  1  0
  6 28  1  0
  6 29  1  0
  7 30  1  0
  7 31  1  0
  9 32  1  0
  9 33  1  0
  9 34  1  0
 12 35  1  0
 12 36  1  0
 14 37  1  0
 15 38  1  0
 18 39  1  0
 19 40  1  0
 22 41  1  0
M  END
>  <UniqueID>  (22) 
21

>  <SMILES>  (22) 
CC#CCOCCN(C)C(=O)Cc1ccc2nccnc2c1

>  <Energy>  (22) 
30.859365171482136

>  <Genealogy>  (22) 
CC#CCOCCN(C)C(=O)Cc1ccc2nccnc2c1 (3D coordinates assigned)
CC#CCOCCN(C)C(=O)Cc1ccc2nccnc2c1 (optimized conformer: 30.859365171482136 kcal/mol)

>  <smiles>  (22) 
CC#CCOCCN(C)C(=O)Cc1ccc2nccnc2c1

>  <score_type>  (22) 
oracle

>  <origin>  (22) 
adg

>  <m_score__min__energy>  (22) 
-7.1299999999999999

>  <m_primary>  (22) 
energy

$$$$
22:0
     RDKit          3D

 52 54  0  0  0  0  0  0  0  0999 V2000
   57.8290   32.1400   43.1630 C   0  0  0  0  0  0  0  0  0  0  0  0
   58.2920   30.9760   44.0400 C   0  0  0  0  0  0  0  0  0  0  0  0
   57.2040   30.4790   44.9160 N   0  0  0  0  0  0  0  0  0  0  0  0
   55.9230   30.4620   44.1700 C   0  0  0  0  0  0  0  0  0  0  0  0
   56.0430   29.6280   42.8960 C   0  0  0  0  0  0  0  0  0  0  0  0
   57.5180   29.1390   45.4840 C   0  0  0  0  0  0  0  0  0  0  0  0
   59.0230   28.8750   45.4200 C   0  0  0  0  0  0  0  0  0  0  0  0
   59.5020   28.5260   46.7030 O   0  0  0  0  0  0  0  0  0  0  0  0
   60.0420   29.6590   47.3570 C   0  0  0  0  0  0  0  0  0  0  0  0
   59.2630   29.9510   48.6400 C   0  0  0  0  0  0  0  0  0  0  0  0
   59.4200   31.3180   49.0230 O   0  0  0  0  0  0  0  0  0  0  0  0
   60.0360   32.2620   48.1870 C   0  0  0  0  0  0  0  0  0  0  0  0
   59.2670   32.9720   47.2460 C   0  0  0  0  0  0  0  0  0  0  0  0
   57.8900   32.7300   47.0890 C   0  0  0  0  0  0  0  0  0  0  0  0
   57.1450   33.4590   46.1590 C   0  0  0  0  0  0  0  0  0  0  0  0
   57.7620   34.4370   45.3770 C   0  0  0  0  0  0  0  0  0  0  0  0
   59.1270   34.6890   45.5180 C   0  0  0  0  0  0  0  0  0  0  0  0
   59.8910   33.9600   46.4460 C   0  0  0  0  0  0  0  0  0  0  0  0
   61.2260   34.2050   46.5780 N   0  0  0  0  0  0  0  0  0  0  0  0
   62.0020   33.5020   47.4530 C   0  0  0  0  0  0  0  0  0  0  0  0
   63.3810   33.7600   47.5380 C   0  0  0  0  0  0  0  0  0  0  0  0
   64.1850   33.0240   48.4120 C   0  0  0  0  0  0  0  0  0  0  0  0
   63.6240   32.0190   49.2000 C   0  0  0  0  0  0  0  0  0  0  0  0
   62.2540   31.7510   49.1300 C   0  0  0  0  0  0  0  0  0  0  0  0
   61.4240   32.5010   48.2720 C   0  0  0  0  0  0  0  0  0  0  0  0
   57.4981   32.9718   43.8023 H   0  0  0  0  0  0  0  0  0  0  0  0
   58.6624   32.4747   42.5279 H   0  0  0  0  0  0  0  0  0  0  0  0
   56.9933   31.8108   42.5279 H   0  0  0  0  0  0  0  0  0  0  0  0
   58.6302   30.1544   43.3915 H   0  0  0  0  0  0  0  0  0  0  0  0
   59.1097   31.3360   44.6817 H   0  0  0  0  0  0  0  0  0  0  0  0
   55.1395   30.0303   44.8102 H   0  0  0  0  0  0  0  0  0  0  0  0
   55.6664   31.4944   43.8903 H   0  0  0  0  0  0  0  0  0  0  0  0
   56.1950   28.5716   43.1623 H   0  0  0  0  0  0  0  0  0  0  0  0
   55.1212   29.7280   42.3041 H   0  0  0  0  0  0  0  0  0  0  0  0
   56.8992   29.9838   42.3041 H   0  0  0  0  0  0  0  0  0  0  0  0
   57.1875   29.1028   46.5325 H   0  0  0  0  0  0  0  0  0  0  0  0
   56.9945   28.3699   44.8972 H   0  0  0  0  0  0  0  0  0  0  0  0
   59.2197   28.0499   44.7197 H   0  0  0  0  0  0  0  0  0  0  0  0
   59.5372   29.7841   45.0748 H   0  0  0  0  0  0  0  0  0  0  0  0
   61.0954   29.4657   47.6078 H   0  0  0  0  0  0  0  0  0  0  0  0
   59.9682   30.5284   46.6872 H   0  0  0  0  0  0  0  0  0  0  0  0
   58.1962   29.7432   48.4705 H   0  0  0  0  0  0  0  0  0  0  0  0
   59.6521   29.3101   49.4449 H   0  0  0  0  0  0  0  0  0  0  0  0
   57.3968   31.9617   47.7026 H   0  0  0  0  0  0  0  0  0  0  0  0
   56.0691   33.2618   46.0425 H   0  0  0  0  0  0  0  0  0  0  0  0
   57.1706   35.0103   44.6479 H   0  0  0  0  0  0  0  0  0  0  0  0
   59.6077   35.4618   44.9001 H   0  0  0  0  0  0  0  0  0  0  0  0
   61.6700   34.9430   45.9820 H   0  0  0  0  0  0  0  0  0  0  0  0
   63.8298   34.5459   46.9128 H   0  0  0  0  0  0  0  0  0  0  0  0
   65.2620   33.2374   48.4788 H   0  0  0  0  0  0  0  0  0  0  0  0
   64.2624   31.4350   49.8793 H   0  0  0  0  0  0  0  0  0  0  0  0
   61.8210   30.9505   49.7478 H   0  0  0  0  0  0  0  0  0  0  0  0
  1  2  1  0
  2  3  1  0
  3  4  1  0
  4  5  1  0
  3  6  1  0
  6  7  1  0
  7  8  1  0
  8  9  1  0
  9 10  1  0
 10 11  1  0
 11 12  1  0
 12 13  2  0
 13 14  1  0
 14 15  2  0
 15 16  1  0
 16 17  2  0
 17 18  1  0
 18 19  2  0
 19 20  1  0
 20 21  2  0
 21 22  1  0
 22 23  2  0
 23 24  1  0
 24 25  2  0
 25 12  1  0
 18 13  1  0
 25 20  1  0
  1 26  1  0
  1 27  1  0
  1 28  1  0
  2 29  1  0
  2 30  1  0
  4 31  1  0
  4 32  1  0
  5 33  1  0
  5 34  1  0
  5 35  1  0
  6 36  1  0
  6 37  1  0
  7 38  1  0
  7 39  1  0
  9 40  1  0
  9 41  1  0
 10 42  1  0
 10 43  1  0
 14 44  1  0
 15 45  1  0
 16 46  1  0
 17 47  1  0
 19 48  1  0
 21 49  1  0
 22 50  1  0
 23 51  1  0
 24 52  1  0
M  CHG  1  19   1
M  END
>  <UniqueID>  (23) 
22

>  <SMILES>  (23) 
CCN(CC)CCOCCOc1c2ccccc2[nH+]c2ccccc12

>  <Energy>  (23) 
64.98376365537052

>  <Genealogy>  (23) 
CCN(CC)CCOCCOc1c2ccccc2[nH+]c2ccccc12 (protonated)
CCN(CC)CCOCCOc1c2ccccc2[nH+]c2ccccc12 (3D coordinates assigned)
CCN(CC)CCOCCOc1c2ccccc2[nH+]c2ccccc12 (optimized conformer: 64.98376365537052 kcal/mol)

>  <smiles>  (23) 
CCN(CC)CCOCCOc1c2ccccc2nc2ccccc12

>  <score_type>  (23) 
oracle

>  <origin>  (23) 
adg

>  <m_score__min__energy>  (23) 
-5.7300000000000004

>  <m_primary>  (23) 
energy

$$$$
23:0
     RDKit          3D

 31 33  0  0  0  0  0  0  0  0999 V2000
   58.3420   25.7330   46.4370 C   0  0  0  0  0  0  0  0  0  0  0  0
   56.9630   26.3820   46.4900 C   0  0  0  0  0  0  0  0  0  0  0  0
   56.7410   27.2280   45.3180 N   0  0  0  0  0  0  0  0  0  0  0  0
   57.1110   28.6180   45.2230 C   0  0  0  0  0  0  0  0  0  0  0  0
   56.6520   29.4460   44.1650 C   0  0  0  0  0  0  0  0  0  0  0  0
   57.0300   30.7960   44.0950 C   0  0  0  0  0  0  0  0  0  0  0  0
   57.8680   31.2990   45.0860 C   0  0  0  0  0  0  0  0  0  0  0  0
   58.3290   30.5080   46.1190 C   0  0  0  0  0  0  0  0  0  0  0  0
   57.9640   29.1650   46.2060 C   0  0  0  0  0  0  0  0  0  0  0  0
   59.2160   31.2790   47.0540 C   0  0  0  0  0  0  0  0  0  0  0  0
   59.1940   32.6300   46.4000 C   0  0  0  0  0  0  0  0  0  0  0  0
   59.8490   33.7910   46.8150 C   0  0  0  0  0  0  0  0  0  0  0  0
   59.6930   34.9600   46.0520 C   0  0  0  0  0  0  0  0  0  0  0  0
   58.8940   34.9530   44.8920 C   0  0  0  0  0  0  0  0  0  0  0  0
   58.2410   33.7780   44.4850 C   0  0  0  0  0  0  0  0  0  0  0  0
   58.4110   32.6300   45.2600 C   0  0  0  0  0  0  0  0  0  0  0  0
   58.7062   25.5616   47.4607 H   0  0  0  0  0  0  0  0  0  0  0  0
   58.2748   24.7720   45.9060 H   0  0  0  0  0  0  0  0  0  0  0  0
   59.0397   26.3973   45.9060 H   0  0  0  0  0  0  0  0  0  0  0  0
   56.1950   25.5950   46.5172 H   0  0  0  0  0  0  0  0  0  0  0  0
   56.9026   27.0078   47.3927 H   0  0  0  0  0  0  0  0  0  0  0  0
   56.2710   26.7840   44.4950 H   0  0  0  0  0  0  0  0  0  0  0  0
   55.9928   29.0249   43.3916 H   0  0  0  0  0  0  0  0  0  0  0  0
   56.6730   31.4400   43.2778 H   0  0  0  0  0  0  0  0  0  0  0  0
   58.3362   28.5393   47.0306 H   0  0  0  0  0  0  0  0  0  0  0  0
   58.8005   31.3137   48.0719 H   0  0  0  0  0  0  0  0  0  0  0  0
   60.2205   30.8517   47.1898 H   0  0  0  0  0  0  0  0  0  0  0  0
   60.4739   33.7903   47.7202 H   0  0  0  0  0  0  0  0  0  0  0  0
   60.1979   35.8867   46.3623 H   0  0  0  0  0  0  0  0  0  0  0  0
   58.7807   35.8738   44.3010 H   0  0  0  0  0  0  0  0  0  0  0  0
   57.6137   33.7631   43.5815 H   0  0  0  0  0  0  0  0  0  0  0  0
  1  2  1  0
  2  3  1  0
  3  4  1  0
  4  5  2  0
  5  6  1  0
  6  7  2  0
  7  8  1  0
  8  9  2  0
  8 10  1  0
 10 11  1  0
 11 12  2  0
 12 13  1  0
 13 14  2  0
 14 15  1  0
 15 16  2  0
  9  4  1  0
 16 11  1  0
 16  7  1  0
  1 17  1  0
  1 18  1  0
  1 19  1  0
  2 20  1  0
  2 21  1  0
  3 22  1  0
  5 23  1  0
  6 24  1  0
  9 25  1  0
 10 26  1  0
 10 27  1  0
 12 28  1  0
 13 29  1  0
 14 30  1  0
 15 31  1  0
M  END
>  <UniqueID>  (24) 
23

>  <SMILES>  (24) 
CCNc1ccc2c(c1)Cc1ccccc1-2

>  <Energy>  (24) 
52.36406601253628

>  <Genealogy>  (24) 
CCNc1ccc2c(c1)Cc1ccccc1-2 (3D coordinates assigned)
CCNc1ccc2c(c1)Cc1ccccc1-2 (nonaromatic ring conformer: 52.36406601253628 kcal/mol)

>  <smiles>  (24) 
CCNc1ccc2c(c1)Cc1ccccc1-2

>  <score_type>  (24) 
oracle

>  <origin>  (24) 
adg

>  <m_score__min__energy>  (24) 
-6.6600000000000001

>  <m_primary>  (24) 
energy

$$$$
24:0
     RDKit          3D

 84 87  0  0  0  0  0  0  0  0999 V2000
   59.3220   33.3690   51.7550 C   0  0  0  0  0  0  0  0  0  0  0  0
   58.5550   32.4750   50.7780 C   0  0  0  0  0  0  0  0  0  0  0  0
   58.4620   31.0920   51.2660 N   0  0  0  0  0  0  0  0  0  0  0  0
   57.1310   30.5570   51.6180 C   0  0  0  0  0  0  0  0  0  0  0  0
   56.2270   31.5380   52.3710 C   0  0  0  0  0  0  0  0  0  0  0  0
   59.6040   30.5710   52.0400 C   0  0  0  0  0  0  0  0  0  0  0  0
   60.1130   29.1830   51.6090 C   0  0  0  0  0  0  0  0  0  0  0  0
   60.1880   29.1090   50.1970 O   0  0  0  0  0  0  0  0  0  0  0  0
   61.3030   29.8520   49.7490 C   0  0  0  0  0  0  0  0  0  0  0  0
   60.9120   30.6700   48.5350 C   0  0  0  0  0  0  0  0  0  0  0  0
   59.4610   30.6910   48.3380 N   0  0  0  0  0  0  0  0  0  0  0  0
   58.8830   30.4910   47.0390 C   0  0  0  0  0  0  0  0  0  0  0  0
   58.8780   29.1770   46.4950 C   0  0  0  0  0  0  0  0  0  0  0  0
   59.5560   28.1500   47.1760 C   0  0  0  0  0  0  0  0  0  0  0  0
   59.5060   26.8460   46.6840 C   0  0  0  0  0  0  0  0  0  0  0  0
   58.8190   26.5650   45.5220 C   0  0  0  0  0  0  0  0  0  0  0  0
   58.1840   27.5840   44.8110 C   0  0  0  0  0  0  0  0  0  0  0  0
   58.2140   28.9360   45.2770 C   0  0  0  0  0  0  0  0  0  0  0  0
   57.6300   29.9680   44.5640 N   0  0  0  0  0  0  0  0  0  0  0  0
   56.8300   29.6450   43.3600 C   0  0  0  0  0  0  0  0  0  0  0  0
   57.8040   31.2800   44.9760 C   0  0  0  0  0  0  0  0  0  0  0  0
   57.4440   32.3860   44.1440 C   0  0  0  0  0  0  0  0  0  0  0  0
   57.5170   33.6840   44.6100 C   0  0  0  0  0  0  0  0  0  0  0  0
   57.9910   33.9630   45.8760 C   0  0  0  0  0  0  0  0  0  0  0  0
   58.4290   32.9290   46.7140 C   0  0  0  0  0  0  0  0  0  0  0  0
   58.9270   33.2300   47.9780 O   0  0  0  0  0  0  0  0  0  0  0  0
   59.7370   34.3290   48.3050 C   0  0  0  0  0  0  0  0  0  0  0  0
   61.1060   34.2090   47.6570 C   0  0  0  0  0  0  0  0  0  0  0  0
   62.0610   33.4860   48.5030 N   0  0  0  0  0  0  0  0  0  0  0  0
   62.1950   34.0690   49.8520 C   0  0  0  0  0  0  0  0  0  0  0  0
   63.5740   33.8860   50.5220 C   0  0  0  0  0  0  0  0  0  0  0  0
   64.3960   32.6780   50.0340 N   0  0  0  0  0  0  0  0  0  0  0  0
   65.8470   33.0190   50.1650 C   0  0  0  0  0  0  0  0  0  0  0  0
   64.0680   31.5080   50.9150 C   0  0  0  0  0  0  0  0  0  0  0  0
   64.1210   32.3220   48.5970 C   0  0  0  0  0  0  0  0  0  0  0  0
   63.3750   33.3870   47.8500 C   0  0  0  0  0  0  0  0  0  0  0  0
   58.3580   31.5580   46.2650 C   0  0  0  0  0  0  0  0  0  0  0  0
   59.0747   33.0807   52.7873 H   0  0  0  0  0  0  0  0  0  0  0  0
   60.4030   33.2496   51.5900 H   0  0  0  0  0  0  0  0  0  0  0  0
   59.0397   34.4193   51.5900 H   0  0  0  0  0  0  0  0  0  0  0  0
   57.5391   32.8768   50.6493 H   0  0  0  0  0  0  0  0  0  0  0  0
   59.0990   32.4657   49.8220 H   0  0  0  0  0  0  0  0  0  0  0  0
   56.6214   30.2661   50.6876 H   0  0  0  0  0  0  0  0  0  0  0  0
   57.3058   29.7101   52.2979 H   0  0  0  0  0  0  0  0  0  0  0  0
   56.3561   31.3979   53.4544 H   0  0  0  0  0  0  0  0  0  0  0  0
   56.4984   32.5689   52.0997 H   0  0  0  0  0  0  0  0  0  0  0  0
   55.1774   31.3516   52.0997 H   0  0  0  0  0  0  0  0  0  0  0  0
   60.4357   31.2840   51.9402 H   0  0  0  0  0  0  0  0  0  0  0  0
   59.2439   30.4555   53.0729 H   0  0  0  0  0  0  0  0  0  0  0  0
   61.1125   29.0134   52.0358 H   0  0  0  0  0  0  0  0  0  0  0  0
   59.4152   28.4146   51.9732 H   0  0  0  0  0  0  0  0  0  0  0  0
   61.6410   30.5249   50.5508 H   0  0  0  0  0  0  0  0  0  0  0  0
   62.1174   29.1634   49.4796 H   0  0  0  0  0  0  0  0  0  0  0  0
   61.2678   31.7019   48.6712 H   0  0  0  0  0  0  0  0  0  0  0  0
   61.3708   30.2075   47.6487 H   0  0  0  0  0  0  0  0  0  0  0  0
   58.8440   30.5580   49.1670 H   0  0  0  0  0  0  0  0  0  0  0  0
   60.1227   28.3741   48.0918 H   0  0  0  0  0  0  0  0  0  0  0  0
   60.0176   26.0370   47.2261 H   0  0  0  0  0  0  0  0  0  0  0  0
   58.7712   25.5299   45.1528 H   0  0  0  0  0  0  0  0  0  0  0  0
   57.6525   27.3440   43.8783 H   0  0  0  0  0  0  0  0  0  0  0  0
   55.8503   29.2494   43.6660 H   0  0  0  0  0  0  0  0  0  0  0  0
   56.6866   30.5557   42.7599 H   0  0  0  0  0  0  0  0  0  0  0  0
   57.3591   28.8900   42.7599 H   0  0  0  0  0  0  0  0  0  0  0  0
   57.1030   32.1996   43.1149 H   0  0  0  0  0  0  0  0  0  0  0  0
   57.1916   34.5102   43.9607 H   0  0  0  0  0  0  0  0  0  0  0  0
   58.0251   35.0041   46.2294 H   0  0  0  0  0  0  0  0  0  0  0  0
   59.2517   35.2510   47.9523 H   0  0  0  0  0  0  0  0  0  0  0  0
   59.8675   34.3553   49.3969 H   0  0  0  0  0  0  0  0  0  0  0  0
   61.0001   33.6708   46.7035 H   0  0  0  0  0  0  0  0  0  0  0  0
   61.4957   35.2261   47.5032 H   0  0  0  0  0  0  0  0  0  0  0  0
   61.9958   35.1481   49.7760 H   0  0  0  0  0  0  0  0  0  0  0  0
   61.4771   33.5289   50.4868 H   0  0  0  0  0  0  0  0  0  0  0  0
   64.1645   34.7950   50.3348 H   0  0  0  0  0  0  0  0  0  0  0  0
   63.3690   33.7002   51.5866 H   0  0  0  0  0  0  0  0  0  0  0  0
   66.1142   33.0818   51.2302 H   0  0  0  0  0  0  0  0  0  0  0  0
   66.4522   32.2386   49.6805 H   0  0  0  0  0  0  0  0  0  0  0  0
   66.0413   33.9873   49.6805 H   0  0  0  0  0  0  0  0  0  0  0  0
   64.1522   31.8083   51.9699 H   0  0  0  0  0  0  0  0  0  0  0  0
   63.0409   31.1715   50.7104 H   0  0  0  0  0  0  0  0  0  0  0  0
   64.7705   30.6866   50.7104 H   0  0  0  0  0  0  0  0  0  0  0  0
   65.0823   32.1497   48.0907 H   0  0  0  0  0  0  0  0  0  0  0  0
   63.4856   31.4241   48.6016 H   0  0  0  0  0  0  0  0  0  0  0  0
   63.9088   34.3466   47.9153 H   0  0  0  0  0  0  0  0  0  0  0  0
   63.2798   33.1423   46.7818 H   0  0  0  0  0  0  0  0  0  0  0  0
  1  2  1  0
  2  3  1  0
  3  4  1  0
  4  5  1  0
  3  6  1  0
  6  7  1  0
  7  8  1  0
  8  9  1  0
  9 10  1  0
 10 11  1  0
 11 12  1  0
 12 13  2  0
 13 14  1  0
 14 15  2  0
 15 16  1  0
 16 17  2  0
 17 18  1  0
 18 19  2  0
 19 20  1  0
 19 21  1  0
 21 22  2  0
 22 23  1  0
 23 24  2  0
 24 25  1  0
 25 26  1  0
 26 27  1  0
 27 28  1  0
 28 29  1  0
 29 30  1  0
 30 31  1  0
 31 32  1  0
 32 33  1  0
 32 34  1  0
 32 35  1  0
 35 36  1  0
 25 37  2  0
 37 12  1  0
 18 13  1  0
 37 21  1  0
 36 29  1  0
  1 38  1  0
  1 39  1  0
  1 40  1  0
  2 41  1  0
  2 42  1  0
  4 43  1  0
  4 44  1  0
  5 45  1  0
  5 46  1  0
  5 47  1  0
  6 48  1  0
  6 49  1  0
  7 50  1  0
  7 51  1  0
  9 52  1  0
  9 53  1  0
 10 54  1  0
 10 55  1  0
 11 56  1  0
 14 57  1  0
 15 58  1  0
 16 59  1  0
 17 60  1  0
 20 61  1  0
 20 62  1  0
 20 63  1  0
 22 64  1  0
 23 65  1  0
 24 66  1  0
 27 67  1  0
 27 68  1  0
 28 69  1  0
 28 70  1  0
 30 71  1  0
 30 72  1  0
 31 73  1  0
 31 74  1  0
 33 75  1  0
 33 76  1  0
 33 77  1  0
 34 78  1  0
 34 79  1  0
 34 80  1  0
 35 81  1  0
 35 82  1  0
 36 83  1  0
 36 84  1  0
M  CHG  2  19   1  32   1
M  END
>  <UniqueID>  (25) 
24

>  <SMILES>  (25) 
CCN(CC)CCOCCNc1c2ccccc2[n+](C)c2cccc(OCCN3CC[N+](C)(C)CC3)c12

>  <Energy>  (25) 
159.74219371094327

>  <Genealogy>  (25) 
CCN(CC)CCOCCNc1c2ccccc2[n+](C)c2cccc(OCCN3CC[N+](C)(C)CC3)c12 (protonated)
CCN(CC)CCOCCNc1c2ccccc2[n+](C)c2cccc(OCCN3CC[N+](C)(C)CC3)c12 (3D coordinates assigned)
CCN(CC)CCOCCNc1c2ccccc2[n+](C)c2cccc(OCCN3CC[N+](C)(C)CC3)c12 (nonaromatic ring conformer: 159.74219371094327 kcal/mol)

>  <smiles>  (25) 
CCN(CC)CCOCCNc1c2ccccc2[n+](C)c2cccc(OCC[N+]3CC[N+](C)(C)CC3)c12

>  <score_type>  (25) 
oracle

>  <origin>  (25) 
adg

>  <m_score__min__energy>  (25) 
-5.5700000000000003

>  <m_primary>  (25) 
energy

$$$$
25:0
     RDKit          3D

 61 63  0  0  0  0  0  0  0  0999 V2000
   57.6130   19.8740   46.9030 C   0  0  0  0  0  0  0  0  0  0  0  0
   57.0290   20.8220   45.8500 C   0  0  0  0  0  0  0  0  0  0  0  0
   57.7310   20.7210   44.5560 N   0  0  0  0  0  0  0  0  0  0  0  0
   57.5790   21.9510   43.7560 C   0  0  0  0  0  0  0  0  0  0  0  0
   57.7690   23.2240   44.6040 C   0  0  0  0  0  0  0  0  0  0  0  0
   57.4040   24.5220   43.8650 C   0  0  0  0  0  0  0  0  0  0  0  0
   57.8850   25.7420   44.5690 N   0  0  0  0  0  0  0  0  0  0  0  0
   56.9190   26.1300   45.6290 C   0  0  0  0  0  0  0  0  0  0  0  0
   57.3570   25.6270   47.0070 C   0  0  0  0  0  0  0  0  0  0  0  0
   58.1070   26.8700   43.6210 C   0  0  0  0  0  0  0  0  0  0  0  0
   57.4300   28.1630   44.0990 C   0  0  0  0  0  0  0  0  0  0  0  0
   58.3660   29.2880   44.1510 N   0  0  0  0  0  0  0  0  0  0  0  0
   58.6570   29.9910   45.3720 C   0  0  0  0  0  0  0  0  0  0  0  0
   59.2710   29.3210   46.4430 C   0  0  0  0  0  0  0  0  0  0  0  0
   59.7780   28.0150   46.2840 C   0  0  0  0  0  0  0  0  0  0  0  0
   60.3910   27.3540   47.3460 C   0  0  0  0  0  0  0  0  0  0  0  0
   60.5250   27.9870   48.5760 C   0  0  0  0  0  0  0  0  0  0  0  0
   60.0400   29.2830   48.7550 C   0  0  0  0  0  0  0  0  0  0  0  0
   59.3870   29.9720   47.7010 C   0  0  0  0  0  0  0  0  0  0  0  0
   58.8880   31.2500   47.8660 N   0  0  0  0  0  0  0  0  0  0  0  0
   58.7500   31.8210   49.2250 C   0  0  0  0  0  0  0  0  0  0  0  0
   58.5290   31.9970   46.7590 C   0  0  0  0  0  0  0  0  0  0  0  0
   58.3200   33.3980   46.8390 C   0  0  0  0  0  0  0  0  0  0  0  0
   57.9710   34.1390   45.7100 C   0  0  0  0  0  0  0  0  0  0  0  0
   57.8400   33.5140   44.4750 C   0  0  0  0  0  0  0  0  0  0  0  0
   58.0620   32.1440   44.3600 C   0  0  0  0  0  0  0  0  0  0  0  0
   58.3950   31.3690   45.4910 C   0  0  0  0  0  0  0  0  0  0  0  0
   57.3790   20.2539   47.9084 H   0  0  0  0  0  0  0  0  0  0  0  0
   57.1749   18.8727   46.7782 H   0  0  0  0  0  0  0  0  0  0  0  0
   58.7043   19.8149   46.7782 H   0  0  0  0  0  0  0  0  0  0  0  0
   55.9687   20.5719   45.6979 H   0  0  0  0  0  0  0  0  0  0  0  0
   57.1496   21.8511   46.2193 H   0  0  0  0  0  0  0  0  0  0  0  0
   58.7500   20.5710   44.7450 H   0  0  0  0  0  0  0  0  0  0  0  0
   57.3740   19.8930   44.0270 H   0  0  0  0  0  0  0  0  0  0  0  0
   58.3296   21.9457   42.9519 H   0  0  0  0  0  0  0  0  0  0  0  0
   56.5570   21.9654   43.3494 H   0  0  0  0  0  0  0  0  0  0  0  0
   57.1332   23.1433   45.4980 H   0  0  0  0  0  0  0  0  0  0  0  0
   58.8387   23.2867   44.8525 H   0  0  0  0  0  0  0  0  0  0  0  0
   57.8552   24.4941   42.8622 H   0  0  0  0  0  0  0  0  0  0  0  0
   56.3065   24.5784   43.8176 H   0  0  0  0  0  0  0  0  0  0  0  0
   56.8431   27.2270   45.6577 H   0  0  0  0  0  0  0  0  0  0  0  0
   55.9471   25.6733   45.3906 H   0  0  0  0  0  0  0  0  0  0  0  0
   56.8489   26.2105   47.7889 H   0  0  0  0  0  0  0  0  0  0  0  0
   57.0911   24.5647   47.1111 H   0  0  0  0  0  0  0  0  0  0  0  0
   58.4458   25.7443   47.1111 H   0  0  0  0  0  0  0  0  0  0  0  0
   59.1884   27.0485   43.5280 H   0  0  0  0  0  0  0  0  0  0  0  0
   57.6655   26.5926   42.6524 H   0  0  0  0  0  0  0  0  0  0  0  0
   56.6132   28.4129   43.4059 H   0  0  0  0  0  0  0  0  0  0  0  0
   57.0508   27.9905   45.1170 H   0  0  0  0  0  0  0  0  0  0  0  0
   58.8240   29.6040   43.2670 H   0  0  0  0  0  0  0  0  0  0  0  0
   59.6884   27.5121   45.3098 H   0  0  0  0  0  0  0  0  0  0  0  0
   60.7694   26.3300   47.2109 H   0  0  0  0  0  0  0  0  0  0  0  0
   61.0149   27.4647   49.4110 H   0  0  0  0  0  0  0  0  0  0  0  0
   60.1661   29.7783   49.7290 H   0  0  0  0  0  0  0  0  0  0  0  0
   58.9395   31.0371   49.9731 H   0  0  0  0  0  0  0  0  0  0  0  0
   59.4770   32.6361   49.3558 H   0  0  0  0  0  0  0  0  0  0  0  0
   57.7310   32.2141   49.3558 H   0  0  0  0  0  0  0  0  0  0  0  0
   58.4350   33.9080   47.8068 H   0  0  0  0  0  0  0  0  0  0  0  0
   57.7988   35.2219   45.7971 H   0  0  0  0  0  0  0  0  0  0  0  0
   57.5608   34.1020   43.5882 H   0  0  0  0  0  0  0  0  0  0  0  0
   57.9767   31.6604   43.3757 H   0  0  0  0  0  0  0  0  0  0  0  0
  1  2  1  0
  2  3  1  0
  3  4  1  0
  4  5  1  0
  5  6  1  0
  6  7  1  0
  7  8  1  0
  8  9  1  0
  7 10  1  0
 10 11  1  0
 11 12  1  0
 12 13  1  0
 13 14  2  0
 14 15  1  0
 15 16  2  0
 16 17  1  0
 17 18  2  0
 18 19  1  0
 19 20  2  0
 20 21  1  0
 20 22  1  0
 22 23  2  0
 23 24  1  0
 24 25  2  0
 25 26  1  0
 26 27  2  0
 27 13  1  0
 19 14  1  0
 27 22  1  0
  1 28  1  0
  1 29  1  0
  1 30  1  0
  2 31  1  0
  2 32  1  0
  3 33  1  0
  3 34  1  0
  4 35  1  0
  4 36  1  0
  5 37  1  0
  5 38  1  0
  6 39  1  0
  6 40  1  0
  8 41  1  0
  8 42  1  0
  9 43  1  0
  9 44  1  0
  9 45  1  0
 10 46  1  0
 10 47  1  0
 11 48  1  0
 11 49  1  0
 12 50  1  0
 15 51  1  0
 16 52  1  0
 17 53  1  0
 18 54  1  0
 21 55  1  0
 21 56  1  0
 21 57  1  0
 23 58  1  0
 24 59  1  0
 25 60  1  0
 26 61  1  0
M  CHG  2   3   1  20   1
M  END
>  <UniqueID>  (26) 
25

>  <SMILES>  (26) 
CC[NH2+]CCCN(CC)CCNc1c2ccccc2[n+](C)c2ccccc12

>  <Energy>  (26) 
83.58467291710585

>  <Genealogy>  (26) 
CC[NH2+]CCCN(CC)CCNc1c2ccccc2[n+](C)c2ccccc12 (protonated)
CC[NH2+]CCCN(CC)CCNc1c2ccccc2[n+](C)c2ccccc12 (3D coordinates assigned)
CC[NH2+]CCCN(CC)CCNc1c2ccccc2[n+](C)c2ccccc12 (optimized conformer: 83.58467291710585 kcal/mol)

>  <smiles>  (26) 
CCNCCCN(CC)CCNc1c2ccccc2[n+](C)c2ccccc12

>  <score_type>  (26) 
oracle

>  <origin>  (26) 
adg

>  <m_score__min__energy>  (26) 
-4.9900000000000002

>  <m_primary>  (26) 
energy

$$$$
26:0
     RDKit          3D

 51 51  0  0  0  0  0  0  0  0999 V2000
   58.9620   31.0520   47.3640 C   0  0  0  0  0  0  0  0  0  0  0  0
   59.5680   32.4180   47.6950 C   0  0  0  0  0  0  0  0  0  0  0  0
   59.4740   33.3970   46.5900 N   0  0  0  0  0  0  0  0  0  0  0  0
   60.7150   34.1770   46.3450 C   0  0  0  0  0  0  0  0  0  0  0  0
   62.0160   33.4820   46.7750 C   0  0  0  0  0  0  0  0  0  0  0  0
   58.1950   34.1410   46.5500 C   0  0  0  0  0  0  0  0  0  0  0  0
   57.3700   33.7750   45.3110 C   0  0  0  0  0  0  0  0  0  0  0  0
   57.9010   32.5570   44.6800 N   0  0  0  0  0  0  0  0  0  0  0  0
   58.0690   32.7330   43.2290 C   0  0  0  0  0  0  0  0  0  0  0  0
   57.4020   31.5850   42.4540 C   0  0  0  0  0  0  0  0  0  0  0  0
   56.9020   30.4510   43.3650 C   0  0  0  0  0  0  0  0  0  0  0  0
   57.9470   29.9640   44.2700 N   0  0  0  0  0  0  0  0  0  0  0  0
   57.9040   28.7090   44.9920 C   0  0  0  0  0  0  0  0  0  0  0  0
   56.6740   28.0940   45.2540 C   0  0  0  0  0  0  0  0  0  0  0  0
   56.6390   26.8950   45.9510 C   0  0  0  0  0  0  0  0  0  0  0  0
   55.5220   26.3520   46.1720 O   0  0  0  0  0  0  0  0  0  0  0  0
   57.7980   26.3130   46.3820 N   0  0  0  0  0  0  0  0  0  0  0  0
   57.7600   25.0300   47.1030 C   0  0  0  0  0  0  0  0  0  0  0  0
   59.0060   26.8890   46.0750 C   0  0  0  0  0  0  0  0  0  0  0  0
   60.0740   26.2990   46.4060 O   0  0  0  0  0  0  0  0  0  0  0  0
   59.0630   28.0940   45.4120 N   0  0  0  0  0  0  0  0  0  0  0  0
   60.3690   28.7260   45.1430 C   0  0  0  0  0  0  0  0  0  0  0  0
   58.7259   30.5198   48.2973 H   0  0  0  0  0  0  0  0  0  0  0  0
   58.0413   31.1915   46.7784 H   0  0  0  0  0  0  0  0  0  0  0  0
   59.6833   30.4631   46.7784 H   0  0  0  0  0  0  0  0  0  0  0  0
   59.0402   32.8290   48.5682 H   0  0  0  0  0  0  0  0  0  0  0  0
   60.6386   32.2550   47.8881 H   0  0  0  0  0  0  0  0  0  0  0  0
   60.7798   34.3849   45.2668 H   0  0  0  0  0  0  0  0  0  0  0  0
   60.6337   35.0844   46.9614 H   0  0  0  0  0  0  0  0  0  0  0  0
   62.0705   33.4529   47.8733 H   0  0  0  0  0  0  0  0  0  0  0  0
   62.0313   32.4556   46.3798 H   0  0  0  0  0  0  0  0  0  0  0  0
   62.8777   34.0399   46.3798 H   0  0  0  0  0  0  0  0  0  0  0  0
   57.6126   33.8992   47.4513 H   0  0  0  0  0  0  0  0  0  0  0  0
   58.4227   35.2163   46.5074 H   0  0  0  0  0  0  0  0  0  0  0  0
   56.3255   33.6021   45.6097 H   0  0  0  0  0  0  0  0  0  0  0  0
   57.4258   34.6030   44.5890 H   0  0  0  0  0  0  0  0  0  0  0  0
   58.8470   32.3740   45.0910 H   0  0  0  0  0  0  0  0  0  0  0  0
   57.6097   33.6857   42.9266 H   0  0  0  0  0  0  0  0  0  0  0  0
   59.1445   32.7333   42.9982 H   0  0  0  0  0  0  0  0  0  0  0  0
   56.5443   31.9906   41.8974 H   0  0  0  0  0  0  0  0  0  0  0  0
   58.1625   31.1563   41.7848 H   0  0  0  0  0  0  0  0  0  0  0  0
   56.0597   30.8249   43.9656 H   0  0  0  0  0  0  0  0  0  0  0  0
   56.5955   29.6127   42.7221 H   0  0  0  0  0  0  0  0  0  0  0  0
   58.7810   30.5850   44.3600 H   0  0  0  0  0  0  0  0  0  0  0  0
   55.7391   28.5595   44.9086 H   0  0  0  0  0  0  0  0  0  0  0  0
   57.7656   25.2181   48.1868 H   0  0  0  0  0  0  0  0  0  0  0  0
   56.8453   24.4832   46.8305 H   0  0  0  0  0  0  0  0  0  0  0  0
   58.6408   24.4300   46.8305 H   0  0  0  0  0  0  0  0  0  0  0  0
   60.8637   28.9654   46.0959 H   0  0  0  0  0  0  0  0  0  0  0  0
   60.9997   28.0334   44.5663 H   0  0  0  0  0  0  0  0  0  0  0  0
   60.2172   29.6503   44.5663 H   0  0  0  0  0  0  0  0  0  0  0  0
  1  2  1  0
  2  3  1  0
  3  4  1  0
  4  5  1  0
  3  6  1  0
  6  7  1  0
  7  8  1  0
  8  9  1  0
  9 10  1  0
 10 11  1  0
 11 12  1  0
 12 13  1  0
 13 14  2  0
 14 15  1  0
 15 16  2  0
 15 17  1  0
 17 18  1  0
 17 19  1  0
 19 20  2  0
 19 21  1  0
 21 22  1  0
 21 13  1  0
  1 23  1  0
  1 24  1  0
  1 25  1  0
  2 26  1  0
  2 27  1  0
  4 28  1  0
  4 29  1  0
  5 30  1  0
  5 31  1  0
  5 32  1  0
  6 33  1  0
  6 34  1  0
  7 35  1  0
  7 36  1  0
  8 37  1  0
  9 38  1  0
  9 39  1  0
 10 40  1  0
 10 41  1  0
 11 42  1  0
 11 43  1  0
 12 44  1  0
 14 45  1  0
 18 46  1  0
 18 47  1  0
 18 48  1  0
 22 49  1  0
 22 50  1  0
 22 51  1  0
M  END
>  <UniqueID>  (27) 
26

>  <SMILES>  (27) 
CCN(CC)CCNCCCNc1cc(=O)n(C)c(=O)n1C

>  <Energy>  (27) 
54.03869299417177

>  <Genealogy>  (27) 
CCN(CC)CCNCCCNc1cc(=O)n(C)c(=O)n1C (3D coordinates assigned)
CCN(CC)CCNCCCNc1cc(=O)n(C)c(=O)n1C (optimized conformer: 54.03869299417177 kcal/mol)

>  <smiles>  (27) 
CCN(CC)CCNCCCNc1cc(=O)n(C)c(=O)n1C

>  <score_type>  (27) 
oracle

>  <origin>  (27) 
adg

>  <m_score__min__energy>  (27) 
-5.6399999999999997

>  <m_primary>  (27) 
energy

$$$$
27:0
     RDKit          3D

 56 58  0  0  0  0  0  0  0  0999 V2000
   58.6420   32.4300   50.7510 C   0  0  0  0  0  0  0  0  0  0  0  0
   59.6640   33.5320   51.0480 C   0  0  0  0  0  0  0  0  0  0  0  0
   60.8160   33.4970   50.1330 N   0  0  0  0  0  0  0  0  0  0  0  0
   62.0820   33.2560   50.8390 C   0  0  0  0  0  0  0  0  0  0  0  0
   63.2830   33.6280   49.9540 C   0  0  0  0  0  0  0  0  0  0  0  0
   62.8840   34.2140   48.6610 N   0  0  0  0  0  0  0  0  0  0  0  0
   63.3460   33.4360   47.4990 C   0  0  0  0  0  0  0  0  0  0  0  0
   62.5820   32.1110   47.4150 C   0  0  0  0  0  0  0  0  0  0  0  0
   61.2270   32.2300   47.9820 N   0  0  0  0  0  0  0  0  0  0  0  0
   60.2350   31.7330   47.0380 C   0  0  0  0  0  0  0  0  0  0  0  0
   59.5530   32.6280   46.1720 C   0  0  0  0  0  0  0  0  0  0  0  0
   58.5550   32.1280   45.2900 C   0  0  0  0  0  0  0  0  0  0  0  0
   58.3410   30.7680   45.1800 N   0  0  0  0  0  0  0  0  0  0  0  0
   57.4600   30.2390   44.1120 C   0  0  0  0  0  0  0  0  0  0  0  0
   58.9350   29.8900   46.0650 C   0  0  0  0  0  0  0  0  0  0  0  0
   58.5690   28.5180   46.1010 C   0  0  0  0  0  0  0  0  0  0  0  0
   59.2140   27.6180   46.9450 C   0  0  0  0  0  0  0  0  0  0  0  0
   60.2320   28.0550   47.7780 C   0  0  0  0  0  0  0  0  0  0  0  0
   60.5880   29.4000   47.7990 C   0  0  0  0  0  0  0  0  0  0  0  0
   59.9280   30.3470   46.9750 C   0  0  0  0  0  0  0  0  0  0  0  0
   57.7570   33.0990   44.4200 C   0  0  0  0  0  0  0  0  0  0  0  0
   57.8070   34.5460   44.8950 C   0  0  0  0  0  0  0  0  0  0  0  0
   59.2510   34.9480   45.1200 C   0  0  0  0  0  0  0  0  0  0  0  0
   59.8370   34.1250   46.2620 C   0  0  0  0  0  0  0  0  0  0  0  0
   58.2607   32.0188   51.6973 H   0  0  0  0  0  0  0  0  0  0  0  0
   57.8072   32.8507   50.1712 H   0  0  0  0  0  0  0  0  0  0  0  0
   59.1243   31.6292   50.1712 H   0  0  0  0  0  0  0  0  0  0  0  0
   59.1671   34.5086   50.9516 H   0  0  0  0  0  0  0  0  0  0  0  0
   60.0433   33.3686   52.0675 H   0  0  0  0  0  0  0  0  0  0  0  0
   60.8750   34.4130   49.6320 H   0  0  0  0  0  0  0  0  0  0  0  0
   62.1060   33.8663   51.7539 H   0  0  0  0  0  0  0  0  0  0  0  0
   62.1472   32.1867   51.0887 H   0  0  0  0  0  0  0  0  0  0  0  0
   63.9036   34.3584   50.4937 H   0  0  0  0  0  0  0  0  0  0  0  0
   63.8346   32.7007   49.7397 H   0  0  0  0  0  0  0  0  0  0  0  0
   61.8440   34.3360   48.6200 H   0  0  0  0  0  0  0  0  0  0  0  0
   63.1713   34.0155   46.5805 H   0  0  0  0  0  0  0  0  0  0  0  0
   64.4200   33.2258   47.6105 H   0  0  0  0  0  0  0  0  0  0  0  0
   62.5024   31.8109   46.3597 H   0  0  0  0  0  0  0  0  0  0  0  0
   63.1338   31.3579   47.9967 H   0  0  0  0  0  0  0  0  0  0  0  0
   61.0470   33.2230   48.2440 H   0  0  0  0  0  0  0  0  0  0  0  0
   61.1550   31.7220   48.8900 H   0  0  0  0  0  0  0  0  0  0  0  0
   56.6013   29.7234   44.5669 H   0  0  0  0  0  0  0  0  0  0  0  0
   57.1000   31.0705   43.4882 H   0  0  0  0  0  0  0  0  0  0  0  0
   58.0247   29.5305   43.4882 H   0  0  0  0  0  0  0  0  0  0  0  0
   57.7593   28.1592   45.4486 H   0  0  0  0  0  0  0  0  0  0  0  0
   58.9155   26.5593   46.9508 H   0  0  0  0  0  0  0  0  0  0  0  0
   60.7594   27.3373   48.4236 H   0  0  0  0  0  0  0  0  0  0  0  0
   61.3957   29.7347   48.4666 H   0  0  0  0  0  0  0  0  0  0  0  0
   58.1597   33.0572   43.3972 H   0  0  0  0  0  0  0  0  0  0  0  0
   56.7048   32.7833   44.4759 H   0  0  0  0  0  0  0  0  0  0  0  0
   57.3580   35.1992   44.1323 H   0  0  0  0  0  0  0  0  0  0  0  0
   57.2452   34.6455   45.8355 H   0  0  0  0  0  0  0  0  0  0  0  0
   59.8294   34.7654   44.2024 H   0  0  0  0  0  0  0  0  0  0  0  0
   59.2978   36.0165   45.3772 H   0  0  0  0  0  0  0  0  0  0  0  0
   60.9276   34.2685   46.2649 H   0  0  0  0  0  0  0  0  0  0  0  0
   59.3547   34.4807   47.1844 H   0  0  0  0  0  0  0  0  0  0  0  0
  1  2  1  0
  2  3  1  0
  3  4  1  0
  4  5  1  0
  5  6  1  0
  6  7  1  0
  7  8  1  0
  8  9  1  0
  9 10  1  0
 10 11  2  0
 11 12  1  0
 12 13  2  0
 13 14  1  0
 13 15  1  0
 15 16  2  0
 16 17  1  0
 17 18  2  0
 18 19  1  0
 19 20  2  0
 12 21  1  0
 21 22  1  0
 22 23  1  0
 23 24  1  0
 20 10  1  0
 24 11  1  0
 20 15  1  0
  1 25  1  0
  1 26  1  0
  1 27  1  0
  2 28  1  0
  2 29  1  0
  3 30  1  0
  4 31  1  0
  4 32  1  0
  5 33  1  0
  5 34  1  0
  6 35  1  0
  7 36  1  0
  7 37  1  0
  8 38  1  0
  8 39  1  0
  9 40  1  0
  9 41  1  0
 14 42  1  0
 14 43  1  0
 14 44  1  0
 16 45  1  0
 17 46  1  0
 18 47  1  0
 19 48  1  0
 21 49  1  0
 21 50  1  0
 22 51  1  0
 22 52  1  0
 23 53  1  0
 23 54  1  0
 24 55  1  0
 24 56  1  0
M  CHG  2   9   1  13   1
M  END
>  <UniqueID>  (28) 
27

>  <SMILES>  (28) 
CCNCCNCC[NH2+]c1c2c([n+](C)c3ccccc13)CCCC2

>  <Energy>  (28) 
75.05256133665854

>  <Genealogy>  (28) 
CCNCCNCC[NH2+]c1c2c([n+](C)c3ccccc13)CCCC2 (protonated)
CCNCCNCC[NH2+]c1c2c([n+](C)c3ccccc13)CCCC2 (3D coordinates assigned)
CCNCCNCC[NH2+]c1c2c([n+](C)c3ccccc13)CCCC2 (nonaromatic ring conformer: 75.05256133665854 kcal/mol)

>  <smiles>  (28) 
CCNCCNCCNc1c2c([n+](C)c3ccccc13)CCCC2

>  <score_type>  (28) 
oracle

>  <origin>  (28) 
adg

>  <m_score__min__energy>  (28) 
-4.3499999999999996

>  <m_primary>  (28) 
energy

$$$$
