0:0
     RDKit          3D

 43 44  0  0  0  0  0  0  0  0999 V2000
   59.9110   29.6460   48.6130 C   0  0  0  0  0  0  0  0  0  0  0  0
   59.9620   30.6350   47.5910 O   0  0  0  0  0  0  0  0  0  0  0  0
   60.9780   31.5960   47.4600 C   0  0  0  0  0  0  0  0  0  0  0  0
   62.3160   31.3100   47.7990 C   0  0  0  0  0  0  0  0  0  0  0  0
   63.3080   32.2780   47.6420 C   0  0  0  0  0  0  0  0  0  0  0  0
   62.9840   33.5370   47.1380 C   0  0  0  0  0  0  0  0  0  0  0  0
   61.6640   33.8360   46.7980 C   0  0  0  0  0  0  0  0  0  0  0  0
   60.6490   32.8800   46.9710 C   0  0  0  0  0  0  0  0  0  0  0  0
   59.2400   33.2140   46.5480 C   0  0  0  0  0  0  0  0  0  0  0  0
   58.7180   32.1490   45.6970 N   0  0  0  0  0  0  0  0  0  0  0  0
   58.2660   32.3980   44.3600 C   0  0  0  0  0  0  0  0  0  0  0  0
   58.7750   33.3290   43.6800 O   0  0  0  0  0  0  0  0  0  0  0  0
   57.1270   31.6100   43.7910 C   0  0  0  0  0  0  0  0  0  0  0  0
   56.4420   30.9040   44.8670 N   0  0  0  0  0  0  0  0  0  0  0  0
   56.2550   29.4830   44.8880 C   0  0  0  0  0  0  0  0  0  0  0  0
   55.1380   29.0030   44.5550 O   0  0  0  0  0  0  0  0  0  0  0  0
   57.3770   28.5880   45.2770 C   0  0  0  0  0  0  0  0  0  0  0  0
   58.7020   29.0480   45.1410 C   0  0  0  0  0  0  0  0  0  0  0  0
   59.7810   28.2220   45.4530 C   0  0  0  0  0  0  0  0  0  0  0  0
   59.5590   26.9250   45.9110 C   0  0  0  0  0  0  0  0  0  0  0  0
   58.2570   26.4490   46.0610 C   0  0  0  0  0  0  0  0  0  0  0  0
   57.1530   27.2680   45.7480 C   0  0  0  0  0  0  0  0  0  0  0  0
   55.8370   26.7980   45.8900 O   0  0  0  0  0  0  0  0  0  0  0  0
   55.4680   25.4240   45.9610 C   0  0  0  0  0  0  0  0  0  0  0  0
   59.9362   30.1350   49.5980 H   0  0  0  0  0  0  0  0  0  0  0  0
   58.9817   29.0655   48.5155 H   0  0  0  0  0  0  0  0  0  0  0  0
   60.7756   28.9730   48.5155 H   0  0  0  0  0  0  0  0  0  0  0  0
   62.5798   30.3163   48.1902 H   0  0  0  0  0  0  0  0  0  0  0  0
   64.3480   32.0476   47.9164 H   0  0  0  0  0  0  0  0  0  0  0  0
   63.7699   34.2956   47.0082 H   0  0  0  0  0  0  0  0  0  0  0  0
   61.4163   34.8276   46.3915 H   0  0  0  0  0  0  0  0  0  0  0  0
   58.6042   33.3145   47.4400 H   0  0  0  0  0  0  0  0  0  0  0  0
   59.2417   34.1608   45.9881 H   0  0  0  0  0  0  0  0  0  0  0  0
   58.4390   31.2550   46.1600 H   0  0  0  0  0  0  0  0  0  0  0  0
   56.4222   32.2914   43.2921 H   0  0  0  0  0  0  0  0  0  0  0  0
   57.5116   30.8829   43.0606 H   0  0  0  0  0  0  0  0  0  0  0  0
   58.8874   30.0719   44.7841 H   0  0  0  0  0  0  0  0  0  0  0  0
   60.8094   28.5949   45.3374 H   0  0  0  0  0  0  0  0  0  0  0  0
   60.4125   26.2753   46.1547 H   0  0  0  0  0  0  0  0  0  0  0  0
   58.0898   25.4252   46.4269 H   0  0  0  0  0  0  0  0  0  0  0  0
   55.3864   25.1202   47.0151 H   0  0  0  0  0  0  0  0  0  0  0  0
   54.4989   25.2783   45.4614 H   0  0  0  0  0  0  0  0  0  0  0  0
   56.2337   24.8124   45.4614 H   0  0  0  0  0  0  0  0  0  0  0  0
  1  2  1  0
  2  3  1  0
  3  4  2  0
  4  5  1  0
  5  6  2  0
  6  7  1  0
  7  8  2  0
  8  9  1  0
  9 10  1  0
 10 11  1  0
 11 12  2  0
 11 13  1  0
 13 14  1  0
 14 15  1  0
 15 16  2  0
 15 17  1  0
 17 18  2  0
 18 19  1  0
 19 20  2  0
 20 21  1  0
 21 22  2  0
 22 23  1  0
 23 24  1  0
  8  3  1  0
 22 17  1  0
  1 25  1  0
  1 26  1  0
  1 27  1  0
  4 28  1  0
  5 29  1  0
  6 30  1  0
  7 31  1  0
  9 32  1  0
  9 33  1  0
 10 34  1  0
 13 35  1  0
 13 36  1  0
 18 37  1  0
 19 38  1  0
 20 39  1  0
 21 40  1  0
 24 41  1  0
 24 42  1  0
 24 43  1  0
M  CHG  1  14  -1
M  END
>  <UniqueID>  (1) 
1

>  <SMILES>  (1) 
COc1ccccc1CNC(=O)C[N-]C(=O)c1ccccc1OC

>  <Energy>  (1) 
34.63979643018513

>  <Genealogy>  (1) 
COc1ccccc1CNC(=O)C[N-]C(=O)c1ccccc1OC (protonated)
COc1ccccc1CNC(=O)C[N-]C(=O)c1ccccc1OC (3D coordinates assigned)
COc1ccccc1CNC(=O)C[N-]C(=O)c1ccccc1OC (optimized conformer: 34.63979643018513 kcal/mol)

>  <smiles>  (1) 
COc1ccccc1CNC(=O)CNC(=O)c1ccccc1OC

>  <score_type>  (1) 
oracle

>  <origin>  (1) 
adg

>  <m_score__min__energy>  (1) 
-8.9100000000000001

>  <m_primary>  (1) 
energy

$$$$
1:0
     RDKit          3D

 26 27  0  0  0  0  0  0  0  0999 V2000
   56.3040   29.8280   42.7200 C   0  0  0  0  0  0  0  0  0  0  0  0
   57.0510   30.9490   43.4180 C   0  0  0  0  0  0  0  0  0  0  0  0
   57.2520   30.8780   44.8220 C   0  0  0  0  0  0  0  0  0  0  0  0
   56.8060   29.7250   45.5580 N   0  0  0  0  0  0  0  0  0  0  0  0
   57.8940   31.9510   45.4830 C   0  0  0  0  0  0  0  0  0  0  0  0
   58.1510   31.9390   46.8730 C   0  0  0  0  0  0  0  0  0  0  0  0
   58.7780   33.0250   47.4900 C   0  0  0  0  0  0  0  0  0  0  0  0
   59.1660   34.1320   46.7380 C   0  0  0  0  0  0  0  0  0  0  0  0
   58.9440   34.1530   45.3620 C   0  0  0  0  0  0  0  0  0  0  0  0
   58.3180   33.0670   44.7290 C   0  0  0  0  0  0  0  0  0  0  0  0
   58.1370   33.0720   43.3450 C   0  0  0  0  0  0  0  0  0  0  0  0
   57.5500   32.0180   42.7050 N   0  0  0  0  0  0  0  0  0  0  0  0
   57.4370   32.0840   41.2390 C   0  0  0  0  0  0  0  0  0  0  0  0
   55.8589   29.1600   43.4721 H   0  0  0  0  0  0  0  0  0  0  0  0
   55.5084   30.2536   42.0909 H   0  0  0  0  0  0  0  0  0  0  0  0
   57.0032   29.2576   42.0909 H   0  0  0  0  0  0  0  0  0  0  0  0
   57.4200   28.8960   45.7070 H   0  0  0  0  0  0  0  0  0  0  0  0
   55.8670   29.7050   46.0160 H   0  0  0  0  0  0  0  0  0  0  0  0
   57.8548   31.0669   47.4745 H   0  0  0  0  0  0  0  0  0  0  0  0
   58.9659   33.0058   48.5737 H   0  0  0  0  0  0  0  0  0  0  0  0
   59.6477   34.9897   47.2303 H   0  0  0  0  0  0  0  0  0  0  0  0
   59.2605   35.0240   44.7695 H   0  0  0  0  0  0  0  0  0  0  0  0
   58.4731   33.9403   42.7594 H   0  0  0  0  0  0  0  0  0  0  0  0
   56.5169   32.6214   40.9660 H   0  0  0  0  0  0  0  0  0  0  0  0
   58.3078   32.6155   40.8277 H   0  0  0  0  0  0  0  0  0  0  0  0
   57.4019   31.0644   40.8277 H   0  0  0  0  0  0  0  0  0  0  0  0
  1  2  1  0
  2  3  2  0
  3  4  1  0
  3  5  1  0
  5  6  2  0
  6  7  1  0
  7  8  2  0
  8  9  1  0
  9 10  2  0
 10 11  1  0
 11 12  2  0
 12 13  1  0
 12  2  1  0
 10  5  1  0
  1 14  1  0
  1 15  1  0
  1 16  1  0
  4 17  1  0
  4 18  1  0
  6 19  1  0
  7 20  1  0
  8 21  1  0
  9 22  1  0
 11 23  1  0
 13 24  1  0
 13 25  1  0
 13 26  1  0
M  CHG  1  12   1
M  END
>  <UniqueID>  (2) 
2

>  <SMILES>  (2) 
Cc1c(N)c2ccccc2c[n+]1C

>  <Energy>  (2) 
38.89100588191756

>  <Genealogy>  (2) 
Cc1c(N)c2ccccc2c[n+]1C (3D coordinates assigned)
Cc1c(N)c2ccccc2c[n+]1C (optimized conformer: 38.89100588191756 kcal/mol)

>  <smiles>  (2) 
Cc1c(N)c2ccccc2c[n+]1C

>  <score_type>  (2) 
oracle

>  <origin>  (2) 
adg

>  <m_score__min__energy>  (2) 
-4.0499999999999998

>  <m_primary>  (2) 
energy

$$$$
2:0
     RDKit          3D

 22 23  0  0  0  0  0  0  0  0999 V2000
   57.3870   32.5110   44.5330 C   0  0  0  0  0  0  0  0  0  0  0  0
   56.6540   31.2900   44.5230 O   0  0  0  0  0  0  0  0  0  0  0  0
   57.1890   30.0390   44.8690 C   0  0  0  0  0  0  0  0  0  0  0  0
   58.5790   29.8830   44.8330 C   0  0  0  0  0  0  0  0  0  0  0  0
   59.1670   28.6610   45.1670 C   0  0  0  0  0  0  0  0  0  0  0  0
   58.3690   27.5720   45.5420 C   0  0  0  0  0  0  0  0  0  0  0  0
   58.9570   26.3440   45.8780 C   0  0  0  0  0  0  0  0  0  0  0  0
   58.1580   25.2610   46.2510 C   0  0  0  0  0  0  0  0  0  0  0  0
   56.7680   25.3950   46.2930 C   0  0  0  0  0  0  0  0  0  0  0  0
   56.1640   26.6130   45.9610 C   0  0  0  0  0  0  0  0  0  0  0  0
   54.7780   26.7150   46.0120 O   0  0  0  0  0  0  0  0  0  0  0  0
   56.9590   27.7130   45.5820 C   0  0  0  0  0  0  0  0  0  0  0  0
   56.3790   28.9490   45.2440 C   0  0  0  0  0  0  0  0  0  0  0  0
   57.5720   32.8191   45.5726 H   0  0  0  0  0  0  0  0  0  0  0  0
   58.3476   32.3662   44.0170 H   0  0  0  0  0  0  0  0  0  0  0  0
   56.8076   33.2908   44.0170 H   0  0  0  0  0  0  0  0  0  0  0  0
   59.2148   30.7310   44.5388 H   0  0  0  0  0  0  0  0  0  0  0  0
   60.2612   28.5530   45.1355 H   0  0  0  0  0  0  0  0  0  0  0  0
   60.0510   26.2334   45.8477 H   0  0  0  0  0  0  0  0  0  0  0  0
   58.6244   24.2997   46.5125 H   0  0  0  0  0  0  0  0  0  0  0  0
   56.1447   24.5382   46.5887 H   0  0  0  0  0  0  0  0  0  0  0  0
   55.2855   29.0654   45.2727 H   0  0  0  0  0  0  0  0  0  0  0  0
  1  2  1  0
  2  3  1  0
  3  4  2  0
  4  5  1  0
  5  6  2  0
  6  7  1  0
  7  8  2  0
  8  9  1  0
  9 10  2  0
 10 11  1  0
 10 12  1  0
 12 13  2  0
 13  3  1  0
 12  6  1  0
  1 14  1  0
  1 15  1  0
  1 16  1  0
  4 17  1  0
  5 18  1  0
  7 19  1  0
  8 20  1  0
  9 21  1  0
 13 22  1  0
M  CHG  1  11  -1
M  END
>  <UniqueID>  (3) 
3

>  <SMILES>  (3) 
COc1ccc2cccc([O-])c2c1

>  <Energy>  (3) 
26.007821309019626

>  <Genealogy>  (3) 
COc1ccc2cccc([O-])c2c1 (protonated)
COc1ccc2cccc([O-])c2c1 (3D coordinates assigned)
COc1ccc2cccc([O-])c2c1 (optimized conformer: 26.007821309019626 kcal/mol)

>  <smiles>  (3) 
COc1ccc2cccc(O)c2c1

>  <score_type>  (3) 
oracle

>  <origin>  (3) 
adg

>  <m_score__min__energy>  (3) 
-9.3800000000000008

>  <m_primary>  (3) 
energy

$$$$
3:0
     RDKit          3D

 46 47  0  0  0  0  0  0  0  0999 V2000
   58.9080   31.1630   48.4940 C   0  0  0  0  0  0  0  0  0  0  0  0
   58.4160   31.5260   47.2070 O   0  0  0  0  0  0  0  0  0  0  0  0
   58.7170   32.7270   46.5430 C   0  0  0  0  0  0  0  0  0  0  0  0
   59.2540   33.8330   47.2350 C   0  0  0  0  0  0  0  0  0  0  0  0
   59.5380   35.0220   46.5610 C   0  0  0  0  0  0  0  0  0  0  0  0
   59.2880   35.1290   45.1940 C   0  0  0  0  0  0  0  0  0  0  0  0
   58.7600   34.0430   44.4940 C   0  0  0  0  0  0  0  0  0  0  0  0
   58.4770   32.8300   45.1510 C   0  0  0  0  0  0  0  0  0  0  0  0
   57.8880   31.6670   44.3680 C   0  0  2  0  0  0  0  0  0  0  0  0
   56.6350   31.3030   44.8990 O   0  0  0  0  0  0  0  0  0  0  0  0
   58.8680   30.4720   44.3220 C   0  0  0  0  0  0  0  0  0  0  0  0
   58.7980   29.6760   45.5660 N   0  0  0  0  0  0  0  0  0  0  0  0
   58.8410   28.2050   45.3770 C   0  0  0  0  0  0  0  0  0  0  0  0
   58.3800   27.4110   46.6300 C   0  0  0  0  0  0  0  0  0  0  0  0
   56.9820   26.8030   46.4570 C   0  0  0  0  0  0  0  0  0  0  0  0
   56.9380   25.9450   45.2600 N   0  0  0  0  0  0  0  0  0  0  0  0
   56.0500   24.8060   45.2340 C   0  0  0  0  0  0  0  0  0  0  0  0
   56.1490   23.7560   44.1680 C   0  0  0  0  0  0  0  0  0  0  0  0
   55.1510   24.6890   46.1110 O   0  0  0  0  0  0  0  0  0  0  0  0
   57.7760   26.2700   44.0920 C   0  0  0  0  0  0  0  0  0  0  0  0
   58.1340   27.7590   44.0690 C   0  0  0  0  0  0  0  0  0  0  0  0
   58.2808   31.6257   49.2702 H   0  0  0  0  0  0  0  0  0  0  0  0
   58.8783   30.0688   48.6027 H   0  0  0  0  0  0  0  0  0  0  0  0
   59.9447   31.5142   48.6027 H   0  0  0  0  0  0  0  0  0  0  0  0
   59.4505   33.7578   48.3147 H   0  0  0  0  0  0  0  0  0  0  0  0
   59.9601   35.8766   47.1101 H   0  0  0  0  0  0  0  0  0  0  0  0
   59.5068   36.0693   44.6668 H   0  0  0  0  0  0  0  0  0  0  0  0
   58.5625   34.1358   43.4159 H   0  0  0  0  0  0  0  0  0  0  0  0
   57.7291   31.9885   43.3281 H   0  0  0  0  0  0  0  0  0  0  0  0
   56.6610   31.4370   45.8810 H   0  0  0  0  0  0  0  0  0  0  0  0
   58.6090   29.8280   43.4687 H   0  0  0  0  0  0  0  0  0  0  0  0
   59.8905   30.8635   44.2156 H   0  0  0  0  0  0  0  0  0  0  0  0
   57.9060   29.9160   46.0610 H   0  0  0  0  0  0  0  0  0  0  0  0
   59.5860   29.9480   46.2000 H   0  0  0  0  0  0  0  0  0  0  0  0
   59.9021   27.9429   45.2529 H   0  0  0  0  0  0  0  0  0  0  0  0
   59.0977   26.5986   46.8169 H   0  0  0  0  0  0  0  0  0  0  0  0
   58.3372   28.1141   47.4749 H   0  0  0  0  0  0  0  0  0  0  0  0
   56.7369   26.2002   47.3439 H   0  0  0  0  0  0  0  0  0  0  0  0
   56.2517   27.6170   46.3388 H   0  0  0  0  0  0  0  0  0  0  0  0
   56.2424   22.7653   44.6367 H   0  0  0  0  0  0  0  0  0  0  0  0
   55.2444   23.7819   43.5426 H   0  0  0  0  0  0  0  0  0  0  0  0
   57.0328   23.9506   43.5426 H   0  0  0  0  0  0  0  0  0  0  0  0
   58.7021   25.6783   44.1382 H   0  0  0  0  0  0  0  0  0  0  0  0
   57.2109   26.0318   43.1788 H   0  0  0  0  0  0  0  0  0  0  0  0
   58.8054   27.9502   43.2189 H   0  0  0  0  0  0  0  0  0  0  0  0
   57.2002   28.3325   43.9738 H   0  0  0  0  0  0  0  0  0  0  0  0
  1  2  1  0
  2  3  1  0
  3  4  2  0
  4  5  1  0
  5  6  2  0
  6  7  1  0
  7  8  2  0
  8  9  1  0
  9 10  1  0
  9 11  1  0
 11 12  1  0
 12 13  1  0
 13 14  1  0
 14 15  1  0
 15 16  1  0
 16 17  1  0
 17 18  1  0
 17 19  2  0
 16 20  1  0
 20 21  1  0
  8  3  1  0
 21 13  1  0
  1 22  1  0
  1 23  1  0
  1 24  1  0
  4 25  1  0
  5 26  1  0
  6 27  1  0
  7 28  1  0
  9 29  1  6
 10 30  1  0
 11 31  1  0
 11 32  1  0
 12 33  1  0
 12 34  1  0
 13 35  1  0
 14 36  1  0
 14 37  1  0
 15 38  1  0
 15 39  1  0
 18 40  1  0
 18 41  1  0
 18 42  1  0
 20 43  1  0
 20 44  1  0
 21 45  1  0
 21 46  1  0
M  CHG  1  12   1
M  END
>  <UniqueID>  (4) 
4

>  <SMILES>  (4) 
COc1ccccc1[C@H](O)C[NH2+]C1CCN(C(C)=O)CC1

>  <Energy>  (4) 
51.26953361155316

>  <Genealogy>  (4) 
COc1ccccc1C(O)C[NH2+]C1CCN(C(C)=O)CC1 (protonated)
COc1ccccc1[C@H](O)C[NH2+]C1CCN(C(C)=O)CC1 (chirality)
COc1ccccc1[C@H](O)C[NH2+]C1CCN(C(C)=O)CC1 (3D coordinates assigned)
COc1ccccc1[C@H](O)C[NH2+]C1CCN(C(C)=O)CC1 (nonaromatic ring conformer: 51.26953361155316 kcal/mol)

>  <smiles>  (4) 
COc1ccccc1C(O)CNC1CCN(C(C)=O)CC1

>  <score_type>  (4) 
oracle

>  <origin>  (4) 
adg

>  <m_score__min__energy>  (4) 
-5.6699999999999999

>  <m_primary>  (4) 
energy

$$$$
4:0
     RDKit          3D

 57 61  0  0  0  0  0  0  0  0999 V2000
   51.2820   23.7410   44.1740 C   0  0  0  0  0  0  0  0  0  0  0  0
   51.5010   22.5190   44.8700 O   0  0  0  0  0  0  0  0  0  0  0  0
   51.5740   22.4000   46.2690 C   0  0  0  0  0  0  0  0  0  0  0  0
   50.4720   22.6980   47.0990 C   0  0  0  0  0  0  0  0  0  0  0  0
   50.5840   22.5970   48.4880 C   0  0  0  0  0  0  0  0  0  0  0  0
   51.7890   22.1970   49.0660 C   0  0  0  0  0  0  0  0  0  0  0  0
   52.8870   21.8950   48.2560 C   0  0  0  0  0  0  0  0  0  0  0  0
   52.7880   21.9840   46.8570 C   0  0  0  0  0  0  0  0  0  0  0  0
   54.0190   21.7680   46.0100 C   0  0  0  0  0  0  0  0  0  0  0  0
   54.1010   22.7980   44.9800 N   0  0  0  0  0  0  0  0  0  0  0  0
   55.3350   23.0890   44.3170 C   0  0  0  0  0  0  0  0  0  0  0  0
   55.8070   22.2510   43.5000 O   0  0  0  0  0  0  0  0  0  0  0  0
   56.0820   24.3280   44.6380 C   0  0  0  0  0  0  0  0  0  0  0  0
   57.1460   24.7510   43.8220 C   0  0  0  0  0  0  0  0  0  0  0  0
   57.7960   25.9600   44.0780 C   0  0  0  0  0  0  0  0  0  0  0  0
   57.4010   26.7640   45.1540 C   0  0  0  0  0  0  0  0  0  0  0  0
   58.0710   28.0100   45.4010 N   0  0  0  0  0  0  0  0  0  0  0  0
   58.6790   28.7330   44.2850 C   0  0  0  0  0  0  0  0  0  0  0  0
   58.7420   30.2590   44.5270 C   0  0  1  0  0  0  0  0  0  0  0  0
   57.5140   31.0130   43.9980 C   0  0  0  0  0  0  0  0  0  0  0  0
   57.7620   32.5360   44.0570 C   0  0  0  0  0  0  0  0  0  0  0  0
   58.3940   33.0070   45.3590 C   0  0  0  0  0  0  0  0  0  0  0  0
   58.4310   34.3800   45.6420 C   0  0  0  0  0  0  0  0  0  0  0  0
   59.0240   34.8450   46.8190 C   0  0  0  0  0  0  0  0  0  0  0  0
   59.5880   33.9440   47.7240 C   0  0  0  0  0  0  0  0  0  0  0  0
   59.5690   32.5740   47.4550 C   0  0  0  0  0  0  0  0  0  0  0  0
   58.9900   32.0970   46.2660 C   0  0  0  0  0  0  0  0  0  0  0  0
   58.9250   30.6530   45.9770 C   0  0  0  0  0  0  0  0  0  0  0  0
   58.7380   29.8140   46.9520 N   0  0  0  0  0  0  0  0  0  0  0  0
   58.3450   28.4610   46.7350 C   0  0  0  0  0  0  0  0  0  0  0  0
   58.1640   27.7010   47.7250 O   0  0  0  0  0  0  0  0  0  0  0  0
   56.3580   26.3340   45.9890 C   0  0  0  0  0  0  0  0  0  0  0  0
   55.7030   25.1260   45.7310 C   0  0  0  0  0  0  0  0  0  0  0  0
   51.1361   24.5550   44.8993 H   0  0  0  0  0  0  0  0  0  0  0  0
   52.1544   23.9647   43.5424 H   0  0  0  0  0  0  0  0  0  0  0  0
   50.3863   23.6478   43.5424 H   0  0  0  0  0  0  0  0  0  0  0  0
   49.5185   23.0119   46.6492 H   0  0  0  0  0  0  0  0  0  0  0  0
   49.7204   22.8333   49.1270 H   0  0  0  0  0  0  0  0  0  0  0  0
   51.8749   22.1193   50.1599 H   0  0  0  0  0  0  0  0  0  0  0  0
   53.8364   21.5851   48.7172 H   0  0  0  0  0  0  0  0  0  0  0  0
   54.9138   21.8182   46.6478 H   0  0  0  0  0  0  0  0  0  0  0  0
   53.9590   20.7801   45.5298 H   0  0  0  0  0  0  0  0  0  0  0  0
   57.4684   24.1255   42.9765 H   0  0  0  0  0  0  0  0  0  0  0  0
   58.6240   26.2829   43.4299 H   0  0  0  0  0  0  0  0  0  0  0  0
   59.7024   28.3573   44.1379 H   0  0  0  0  0  0  0  0  0  0  0  0
   58.0520   28.5627   43.3974 H   0  0  0  0  0  0  0  0  0  0  0  0
   59.6373   30.5517   43.9588 H   0  0  0  0  0  0  0  0  0  0  0  0
   57.3248   30.7151   42.9562 H   0  0  0  0  0  0  0  0  0  0  0  0
   56.6424   30.7652   44.6217 H   0  0  0  0  0  0  0  0  0  0  0  0
   58.4308   32.8105   43.2280 H   0  0  0  0  0  0  0  0  0  0  0  0
   56.7784   33.0231   43.9845 H   0  0  0  0  0  0  0  0  0  0  0  0
   57.9902   35.0959   44.9327 H   0  0  0  0  0  0  0  0  0  0  0  0
   59.0464   35.9238   47.0329 H   0  0  0  0  0  0  0  0  0  0  0  0
   60.0487   34.3144   48.6517 H   0  0  0  0  0  0  0  0  0  0  0  0
   60.0077   31.8669   48.1744 H   0  0  0  0  0  0  0  0  0  0  0  0
   56.0550   26.9493   46.8490 H   0  0  0  0  0  0  0  0  0  0  0  0
   54.8847   24.7976   46.3886 H   0  0  0  0  0  0  0  0  0  0  0  0
  1  2  1  0
  2  3  1  0
  3  4  2  0
  4  5  1  0
  5  6  2  0
  6  7  1  0
  7  8  2  0
  8  9  1  0
  9 10  1  0
 10 11  1  0
 11 12  2  0
 11 13  1  0
 13 14  2  0
 14 15  1  0
 15 16  2  0
 16 17  1  0
 17 18  1  0
 18 19  1  0
 19 20  1  0
 20 21  1  0
 21 22  1  0
 22 23  2  0
 23 24  1  0
 24 25  2  0
 25 26  1  0
 26 27  2  0
 27 28  1  0
 28 29  2  0
 29 30  1  0
 30 31  2  0
 16 32  1  0
 32 33  2  0
  8  3  1  0
 33 13  1  0
 30 17  1  0
 28 19  1  0
 27 22  1  0
  1 34  1  0
  1 35  1  0
  1 36  1  0
  4 37  1  0
  5 38  1  0
  6 39  1  0
  7 40  1  0
  9 41  1  0
  9 42  1  0
 14 43  1  0
 15 44  1  0
 18 45  1  0
 18 46  1  0
 19 47  1  6
 20 48  1  0
 20 49  1  0
 21 50  1  0
 21 51  1  0
 23 52  1  0
 24 53  1  0
 25 54  1  0
 26 55  1  0
 32 56  1  0
 33 57  1  0
M  CHG  1  10  -1
M  END
>  <UniqueID>  (5) 
5

>  <SMILES>  (5) 
COc1ccccc1C[N-]C(=O)c1ccc(N2C[C@H]3CCc4ccccc4C3=NC2=O)cc1

>  <Energy>  (5) 
82.29386281388997

>  <Genealogy>  (5) 
COc1ccccc1C[N-]C(=O)c1ccc(N2CC3CCc4ccccc4C3=NC2=O)cc1 (protonated)
COc1ccccc1C[N-]C(=O)c1ccc(N2C[C@H]3CCc4ccccc4C3=NC2=O)cc1 (chirality)
COc1ccccc1C[N-]C(=O)c1ccc(N2C[C@H]3CCc4ccccc4C3=NC2=O)cc1 (3D coordinates assigned)
COc1ccccc1C[N-]C(=O)c1ccc(N2C[C@H]3CCc4ccccc4C3=NC2=O)cc1 (nonaromatic ring conformer: 82.29386281388997 kcal/mol)

>  <smiles>  (5) 
COc1ccccc1CNC(=O)c1ccc(N2CC3CCc4ccccc4C3=NC2=O)cc1

>  <score_type>  (5) 
oracle

>  <origin>  (5) 
adg

>  <m_score__min__energy>  (5) 
-11.26

>  <m_primary>  (5) 
energy

$$$$
5:0
     RDKit          3D

 40 41  0  0  0  0  0  0  0  0999 V2000
   58.3510   26.1020   44.9740 C   0  0  0  0  0  0  0  0  0  0  0  0
   58.2580   27.5900   44.8040 C   0  0  0  0  0  0  0  0  0  0  0  0
   59.0200   28.4330   45.6180 C   0  0  0  0  0  0  0  0  0  0  0  0
   58.9050   29.8190   45.4810 C   0  0  0  0  0  0  0  0  0  0  0  0
   59.6760   30.6740   46.2850 C   0  0  0  0  0  0  0  0  0  0  0  0
   59.5820   32.0640   46.1490 C   0  0  0  0  0  0  0  0  0  0  0  0
   60.3970   32.9060   46.9870 N   0  0  0  0  0  0  0  0  0  0  0  0
   61.2200   34.0190   46.5050 C   0  0  0  0  0  0  0  0  0  0  0  0
   62.6790   33.8550   46.9460 C   0  0  0  0  0  0  0  0  0  0  0  0
   62.8020   32.8350   48.0100 N   0  0  0  0  0  0  0  0  0  0  0  0
   63.6140   33.3430   49.1270 C   0  0  0  0  0  0  0  0  0  0  0  0
   63.4000   31.5950   47.4880 C   0  0  0  0  0  0  0  0  0  0  0  0
   58.6810   32.5990   45.2150 C   0  0  0  0  0  0  0  0  0  0  0  0
   57.9080   31.7590   44.4100 C   0  0  0  0  0  0  0  0  0  0  0  0
   58.0100   30.3590   44.5290 C   0  0  0  0  0  0  0  0  0  0  0  0
   57.2430   29.4710   43.7350 C   0  0  0  0  0  0  0  0  0  0  0  0
   56.2640   29.9800   42.7070 C   0  0  0  0  0  0  0  0  0  0  0  0
   57.3860   28.1220   43.9020 N   0  0  0  0  0  0  0  0  0  0  0  0
   58.3664   25.8557   46.0460 H   0  0  0  0  0  0  0  0  0  0  0  0
   57.4810   25.6237   44.5003 H   0  0  0  0  0  0  0  0  0  0  0  0
   59.2738   25.7358   44.5003 H   0  0  0  0  0  0  0  0  0  0  0  0
   59.7075   28.0071   46.3636 H   0  0  0  0  0  0  0  0  0  0  0  0
   60.3622   30.2462   47.0308 H   0  0  0  0  0  0  0  0  0  0  0  0
   60.4900   32.6550   47.9980 H   0  0  0  0  0  0  0  0  0  0  0  0
   61.1775   34.0482   45.4062 H   0  0  0  0  0  0  0  0  0  0  0  0
   60.8283   34.9545   46.9310 H   0  0  0  0  0  0  0  0  0  0  0  0
   63.2834   33.5460   46.0804 H   0  0  0  0  0  0  0  0  0  0  0  0
   63.0347   34.8177   47.3419 H   0  0  0  0  0  0  0  0  0  0  0  0
   63.1489   33.0520   50.0804 H   0  0  0  0  0  0  0  0  0  0  0  0
   64.6264   32.9170   49.0678 H   0  0  0  0  0  0  0  0  0  0  0  0
   63.6737   34.4398   49.0678 H   0  0  0  0  0  0  0  0  0  0  0  0
   63.7086   30.9550   48.3277 H   0  0  0  0  0  0  0  0  0  0  0  0
   62.6601   31.0616   46.8731 H   0  0  0  0  0  0  0  0  0  0  0  0
   64.2781   31.8419   46.8731 H   0  0  0  0  0  0  0  0  0  0  0  0
   58.5827   33.6901   45.1161 H   0  0  0  0  0  0  0  0  0  0  0  0
   57.2134   32.1946   43.6766 H   0  0  0  0  0  0  0  0  0  0  0  0
   55.3987   30.4299   43.2159 H   0  0  0  0  0  0  0  0  0  0  0  0
   56.7539   30.7376   42.0777 H   0  0  0  0  0  0  0  0  0  0  0  0
   55.9253   29.1438   42.0777 H   0  0  0  0  0  0  0  0  0  0  0  0
   56.8100   27.4710   43.3210 H   0  0  0  0  0  0  0  0  0  0  0  0
  1  2  1  0
  2  3  2  0
  3  4  1  0
  4  5  2  0
  5  6  1  0
  6  7  1  0
  7  8  1  0
  8  9  1  0
  9 10  1  0
 10 11  1  0
 10 12  1  0
  6 13  2  0
 13 14  1  0
 14 15  2  0
 15 16  1  0
 16 17  1  0
 16 18  2  0
 18  2  1  0
 15  4  1  0
  1 19  1  0
  1 20  1  0
  1 21  1  0
  3 22  1  0
  5 23  1  0
  7 24  1  0
  8 25  1  0
  8 26  1  0
  9 27  1  0
  9 28  1  0
 11 29  1  0
 11 30  1  0
 11 31  1  0
 12 32  1  0
 12 33  1  0
 12 34  1  0
 13 35  1  0
 14 36  1  0
 17 37  1  0
 17 38  1  0
 17 39  1  0
 18 40  1  0
M  CHG  1  18   1
M  END
>  <UniqueID>  (6) 
6

>  <SMILES>  (6) 
Cc1cc2cc(NCCN(C)C)ccc2c(C)[nH+]1

>  <Energy>  (6) 
42.40218148391403

>  <Genealogy>  (6) 
Cc1cc2cc(NCCN(C)C)ccc2c(C)[nH+]1 (protonated)
Cc1cc2cc(NCCN(C)C)ccc2c(C)[nH+]1 (3D coordinates assigned)
Cc1cc2cc(NCCN(C)C)ccc2c(C)[nH+]1 (optimized conformer: 42.40218148391403 kcal/mol)

>  <smiles>  (6) 
Cc1cc2cc(NCCN(C)C)ccc2c(C)n1

>  <score_type>  (6) 
oracle

>  <origin>  (6) 
adg

>  <m_score__min__energy>  (6) 
-5.1299999999999999

>  <m_primary>  (6) 
energy

$$$$
6:0
     RDKit          3D

 39 41  0  0  0  0  0  0  0  0999 V2000
   59.3510   34.6270   48.0650 C   0  0  0  0  0  0  0  0  0  0  0  0
   58.8990   33.9130   46.8270 C   0  0  0  0  0  0  0  0  0  0  0  0
   59.0960   34.5060   45.5530 C   0  0  0  0  0  0  0  0  0  0  0  0
   58.7110   33.8290   44.3810 C   0  0  0  0  0  0  0  0  0  0  0  0
   58.1450   32.5600   44.5200 C   0  0  0  0  0  0  0  0  0  0  0  0
   57.9730   31.9800   45.7400 C   0  0  0  0  0  0  0  0  0  0  0  0
   58.3410   32.6190   46.9210 C   0  0  0  0  0  0  0  0  0  0  0  0
   57.4420   30.7540   45.6060 N   0  0  0  0  0  0  0  0  0  0  0  0
   57.3040   30.6140   44.2610 C   0  0  0  0  0  0  0  0  0  0  0  0
   56.7590   29.3400   43.6480 C   0  0  0  0  0  0  0  0  0  0  0  0
   57.3850   28.1100   44.1840 N   0  0  0  0  0  0  0  0  0  0  0  0
   58.8260   27.9640   43.8590 C   0  0  0  0  0  0  0  0  0  0  0  0
   59.7260   28.2330   45.0730 C   0  0  0  0  0  0  0  0  0  0  0  0
   59.4040   27.2710   46.2320 C   0  0  0  0  0  0  0  0  0  0  0  0
   57.9440   26.7840   46.2200 C   0  0  0  0  0  0  0  0  0  0  0  0
   57.0180   27.8320   45.5940 C   0  0  0  0  0  0  0  0  0  0  0  0
   57.7110   31.7180   43.5670 N   0  0  0  0  0  0  0  0  0  0  0  0
   57.7500   31.9580   42.1230 C   0  0  0  0  0  0  0  0  0  0  0  0
   59.0034   34.0779   48.9525 H   0  0  0  0  0  0  0  0  0  0  0  0
   60.4495   34.6831   48.0755 H   0  0  0  0  0  0  0  0  0  0  0  0
   58.9318   35.6439   48.0755 H   0  0  0  0  0  0  0  0  0  0  0  0
   59.5537   35.5037   45.4809 H   0  0  0  0  0  0  0  0  0  0  0  0
   58.8511   34.2838   43.3893 H   0  0  0  0  0  0  0  0  0  0  0  0
   58.2015   32.1311   47.8970 H   0  0  0  0  0  0  0  0  0  0  0  0
   55.6777   29.2942   43.8448 H   0  0  0  0  0  0  0  0  0  0  0  0
   56.9871   29.3760   42.5725 H   0  0  0  0  0  0  0  0  0  0  0  0
   59.0068   26.9384   43.5047 H   0  0  0  0  0  0  0  0  0  0  0  0
   59.0737   28.7053   43.0850 H   0  0  0  0  0  0  0  0  0  0  0  0
   60.7768   28.0984   44.7769 H   0  0  0  0  0  0  0  0  0  0  0  0
   59.5475   29.2627   45.4164 H   0  0  0  0  0  0  0  0  0  0  0  0
   60.0662   26.3960   46.1558 H   0  0  0  0  0  0  0  0  0  0  0  0
   59.5596   27.8226   47.1709 H   0  0  0  0  0  0  0  0  0  0  0  0
   57.8803   25.8538   45.6363 H   0  0  0  0  0  0  0  0  0  0  0  0
   57.6247   26.6114   47.2584 H   0  0  0  0  0  0  0  0  0  0  0  0
   55.9834   27.4600   45.6272 H   0  0  0  0  0  0  0  0  0  0  0  0
   57.1174   28.7659   46.1667 H   0  0  0  0  0  0  0  0  0  0  0  0
   57.9238   33.0275   41.9336 H   0  0  0  0  0  0  0  0  0  0  0  0
   58.5643   31.3693   41.6753 H   0  0  0  0  0  0  0  0  0  0  0  0
   56.7912   31.6574   41.6753 H   0  0  0  0  0  0  0  0  0  0  0  0
  1  2  1  0
  2  3  2  0
  3  4  1  0
  4  5  2  0
  5  6  1  0
  6  7  2  0
  6  8  1  0
  8  9  2  0
  9 10  1  0
 10 11  1  0
 11 12  1  0
 12 13  1  0
 13 14  1  0
 14 15  1  0
 15 16  1  0
  9 17  1  0
 17 18  1  0
  7  2  1  0
 16 11  1  0
 17  5  1  0
  1 19  1  0
  1 20  1  0
  1 21  1  0
  3 22  1  0
  4 23  1  0
  7 24  1  0
 10 25  1  0
 10 26  1  0
 12 27  1  0
 12 28  1  0
 13 29  1  0
 13 30  1  0
 14 31  1  0
 14 32  1  0
 15 33  1  0
 15 34  1  0
 16 35  1  0
 16 36  1  0
 18 37  1  0
 18 38  1  0
 18 39  1  0
M  END
>  <UniqueID>  (7) 
7

>  <SMILES>  (7) 
Cc1ccc2c(c1)nc(CN1CCCCC1)n2C

>  <Energy>  (7) 
85.58792598040543

>  <Genealogy>  (7) 
Cc1ccc2c(c1)nc(CN1CCCCC1)n2C (3D coordinates assigned)
Cc1ccc2c(c1)nc(CN1CCCCC1)n2C (nonaromatic ring conformer: 85.58792598040543 kcal/mol)

>  <smiles>  (7) 
Cc1ccc2c(c1)nc(CN1CCCCC1)n2C

>  <score_type>  (7) 
oracle

>  <origin>  (7) 
adg

>  <m_score__min__energy>  (7) 
-7.0599999999999996

>  <m_primary>  (7) 
energy

$$$$
7:0
     RDKit          3D

 47 50  0  0  0  0  0  0  0  0999 V2000
   57.1580   34.1860   45.2190 C   0  0  0  0  0  0  0  0  0  0  0  0
   57.2400   32.6620   45.2170 C   0  0  0  0  0  0  0  0  0  0  0  0
   58.4570   32.2060   45.8950 N   0  0  0  0  0  0  0  0  0  0  0  0
   59.5270   32.9860   46.1510 C   0  0  0  0  0  0  0  0  0  0  0  0
   60.4850   32.2220   46.7810 C   0  0  0  0  0  0  0  0  0  0  0  0
   61.8120   32.6710   47.2320 C   0  0  0  0  0  0  0  0  0  0  0  0
   62.5180   33.7680   46.7500 C   0  0  0  0  0  0  0  0  0  0  0  0
   63.7590   33.9460   47.3750 C   0  0  0  0  0  0  0  0  0  0  0  0
   64.0340   32.9950   48.3490 C   0  0  0  0  0  0  0  0  0  0  0  0
   62.7340   31.9330   48.4310 S   0  0  0  0  0  0  0  0  0  0  0  0
   60.0200   30.9660   46.9140 N   0  0  0  0  0  0  0  0  0  0  0  0
   58.7840   30.9730   46.3710 C   0  0  0  0  0  0  0  0  0  0  0  0
   57.9550   29.7090   46.2610 C   0  0  0  0  0  0  0  0  0  0  0  0
   57.6050   29.3330   44.7970 C   0  0  0  0  0  0  0  0  0  0  0  0
   57.8040   27.8430   44.4720 C   0  0  0  0  0  0  0  0  0  0  0  0
   57.3420   26.9840   45.5760 N   0  0  0  0  0  0  0  0  0  0  0  0
   56.6460   25.7480   45.3170 C   0  0  0  0  0  0  0  0  0  0  0  0
   57.1260   24.8180   44.3760 C   0  0  0  0  0  0  0  0  0  0  0  0
   56.4270   23.6260   44.1680 C   0  0  0  0  0  0  0  0  0  0  0  0
   55.2670   23.3630   44.8960 C   0  0  0  0  0  0  0  0  0  0  0  0
   54.8240   24.2980   45.8330 C   0  0  0  0  0  0  0  0  0  0  0  0
   55.5160   25.4530   46.0230 N   0  0  0  0  0  0  0  0  0  0  0  0
   57.6920   27.3090   46.9680 C   0  0  0  0  0  0  0  0  0  0  0  0
   58.5810   28.5540   47.0600 C   0  0  0  0  0  0  0  0  0  0  0  0
   57.1384   34.5508   46.2566 H   0  0  0  0  0  0  0  0  0  0  0  0
   58.0351   34.6011   44.7009 H   0  0  0  0  0  0  0  0  0  0  0  0
   56.2414   34.5046   44.7009 H   0  0  0  0  0  0  0  0  0  0  0  0
   56.3619   32.2528   45.7380 H   0  0  0  0  0  0  0  0  0  0  0  0
   57.2642   32.3113   44.1747 H   0  0  0  0  0  0  0  0  0  0  0  0
   59.6194   34.0528   45.8992 H   0  0  0  0  0  0  0  0  0  0  0  0
   62.1397   34.4299   45.9571 H   0  0  0  0  0  0  0  0  0  0  0  0
   64.4505   34.7621   47.1185 H   0  0  0  0  0  0  0  0  0  0  0  0
   64.9462   32.9454   48.9617 H   0  0  0  0  0  0  0  0  0  0  0  0
   60.5190   30.1500   47.3340 H   0  0  0  0  0  0  0  0  0  0  0  0
   56.9830   29.9218   46.7299 H   0  0  0  0  0  0  0  0  0  0  0  0
   56.5506   29.5892   44.6162 H   0  0  0  0  0  0  0  0  0  0  0  0
   58.2933   29.8959   44.1494 H   0  0  0  0  0  0  0  0  0  0  0  0
   57.2342   27.5958   43.5641 H   0  0  0  0  0  0  0  0  0  0  0  0
   58.8786   27.6630   44.3206 H   0  0  0  0  0  0  0  0  0  0  0  0
   58.0446   25.0279   43.8085 H   0  0  0  0  0  0  0  0  0  0  0  0
   56.7915   22.8957   43.4306 H   0  0  0  0  0  0  0  0  0  0  0  0
   54.7077   22.4298   44.7338 H   0  0  0  0  0  0  0  0  0  0  0  0
   53.9140   24.1002   46.4184 H   0  0  0  0  0  0  0  0  0  0  0  0
   56.7664   27.4908   47.5339 H   0  0  0  0  0  0  0  0  0  0  0  0
   58.2525   26.4593   47.3850 H   0  0  0  0  0  0  0  0  0  0  0  0
   58.6812   28.8527   48.1139 H   0  0  0  0  0  0  0  0  0  0  0  0
   59.5714   28.3215   46.6417 H   0  0  0  0  0  0  0  0  0  0  0  0
  1  2  1  0
  2  3  1  0
  3  4  1  0
  4  5  2  0
  5  6  1  0
  6  7  2  0
  7  8  1  0
  8  9  2  0
  9 10  1  0
  5 11  1  0
 11 12  2  0
 12 13  1  0
 13 14  1  0
 14 15  1  0
 15 16  1  0
 16 17  1  0
 17 18  2  0
 18 19  1  0
 19 20  2  0
 20 21  1  0
 21 22  2  0
 16 23  1  0
 23 24  1  0
 12  3  1  0
 24 13  1  0
 10  6  1  0
 22 17  1  0
  1 25  1  0
  1 26  1  0
  1 27  1  0
  2 28  1  0
  2 29  1  0
  4 30  1  0
  7 31  1  0
  8 32  1  0
  9 33  1  0
 11 34  1  0
 13 35  1  0
 14 36  1  0
 14 37  1  0
 15 38  1  0
 15 39  1  0
 18 40  1  0
 19 41  1  0
 20 42  1  0
 21 43  1  0
 23 44  1  0
 23 45  1  0
 24 46  1  0
 24 47  1  0
M  CHG  1  11   1
M  END
>  <UniqueID>  (8) 
8

>  <SMILES>  (8) 
CCn1cc(-c2cccs2)[nH+]c1C1CCN(c2ccccn2)CC1

>  <Energy>  (8) 
110.16970620923048

>  <Genealogy>  (8) 
CCn1cc(-c2cccs2)[nH+]c1C1CCN(c2ccccn2)CC1 (protonated)
CCn1cc(-c2cccs2)[nH+]c1C1CCN(c2ccccn2)CC1 (3D coordinates assigned)
CCn1cc(-c2cccs2)[nH+]c1C1CCN(c2ccccn2)CC1 (nonaromatic ring conformer: 110.16970620923048 kcal/mol)

>  <smiles>  (8) 
CCn1cc(-c2cccs2)nc1C1CCN(c2ccccn2)CC1

>  <score_type>  (8) 
oracle

>  <origin>  (8) 
adg

>  <m_score__min__energy>  (8) 
-6.1799999999999997

>  <m_primary>  (8) 
energy

$$$$
8:0
     RDKit          3D

 44 46  0  0  0  0  0  0  0  0999 V2000
   61.6160   34.2360   48.9700 C   0  0  0  0  0  0  0  0  0  0  0  0
   61.9950   33.2590   47.9420 N   0  0  0  0  0  0  0  0  0  0  0  0
   63.2880   33.4130   47.2610 C   0  0  0  0  0  0  0  0  0  0  0  0
   61.1100   32.1590   47.6050 C   0  0  0  0  0  0  0  0  0  0  0  0
   59.7130   32.2820   47.7560 C   0  0  0  0  0  0  0  0  0  0  0  0
   58.8610   31.2230   47.4280 C   0  0  0  0  0  0  0  0  0  0  0  0
   59.3790   30.0210   46.9310 C   0  0  0  0  0  0  0  0  0  0  0  0
   58.4690   28.9050   46.5960 C   0  0  0  0  0  0  0  0  0  0  0  0
   58.2340   27.5590   47.5830 S   0  0  0  0  0  0  0  0  0  0  0  0
   57.2470   26.7750   46.4670 C   0  0  0  0  0  0  0  0  0  0  0  0
   56.6450   25.4820   46.6540 N   0  0  0  0  0  0  0  0  0  0  0  0
   57.0970   24.6340   47.7590 C   0  0  0  0  0  0  0  0  0  0  0  0
   55.5890   25.0260   45.7440 C   0  0  0  0  0  0  0  0  0  0  0  0
   57.0800   27.5160   45.3490 N   0  0  0  0  0  0  0  0  0  0  0  0
   57.7460   28.7030   45.4080 C   0  0  0  0  0  0  0  0  0  0  0  0
   57.6270   29.6830   44.3060 C   0  0  0  0  0  0  0  0  0  0  0  0
   56.6780   29.4790   43.2910 C   0  0  0  0  0  0  0  0  0  0  0  0
   56.5470   30.4040   42.2510 C   0  0  0  0  0  0  0  0  0  0  0  0
   57.3510   31.5470   42.2230 C   0  0  0  0  0  0  0  0  0  0  0  0
   57.1850   32.7060   40.9170 Cl  0  0  0  0  0  0  0  0  0  0  0  0
   58.2830   31.7690   43.2420 C   0  0  0  0  0  0  0  0  0  0  0  0
   58.4170   30.8470   44.2830 C   0  0  0  0  0  0  0  0  0  0  0  0
   60.7680   29.8810   46.7970 C   0  0  0  0  0  0  0  0  0  0  0  0
   61.6230   30.9360   47.1230 C   0  0  0  0  0  0  0  0  0  0  0  0
   61.7840   33.8029   49.9671 H   0  0  0  0  0  0  0  0  0  0  0  0
   62.2274   35.1434   48.8566 H   0  0  0  0  0  0  0  0  0  0  0  0
   60.5527   34.4938   48.8566 H   0  0  0  0  0  0  0  0  0  0  0  0
   64.0879   33.5083   48.0101 H   0  0  0  0  0  0  0  0  0  0  0  0
   63.4782   32.5312   46.6316 H   0  0  0  0  0  0  0  0  0  0  0  0
   63.2658   34.3148   46.6316 H   0  0  0  0  0  0  0  0  0  0  0  0
   59.2885   33.2228   48.1365 H   0  0  0  0  0  0  0  0  0  0  0  0
   57.7749   31.3352   47.5615 H   0  0  0  0  0  0  0  0  0  0  0  0
   56.8421   25.1123   48.7162 H   0  0  0  0  0  0  0  0  0  0  0  0
   56.6016   23.6539   47.6954 H   0  0  0  0  0  0  0  0  0  0  0  0
   58.1868   24.4988   47.6954 H   0  0  0  0  0  0  0  0  0  0  0  0
   54.7343   24.6569   46.3298 H   0  0  0  0  0  0  0  0  0  0  0  0
   55.2643   25.8641   45.1098 H   0  0  0  0  0  0  0  0  0  0  0  0
   55.9764   24.2150   45.1098 H   0  0  0  0  0  0  0  0  0  0  0  0
   56.0347   28.5871   43.3144 H   0  0  0  0  0  0  0  0  0  0  0  0
   55.8097   30.2319   41.4531 H   0  0  0  0  0  0  0  0  0  0  0  0
   58.9118   32.6714   43.2237 H   0  0  0  0  0  0  0  0  0  0  0  0
   59.1433   31.0319   45.0882 H   0  0  0  0  0  0  0  0  0  0  0  0
   61.1876   28.9320   46.4320 H   0  0  0  0  0  0  0  0  0  0  0  0
   62.7094   30.8121   47.0026 H   0  0  0  0  0  0  0  0  0  0  0  0
  1  2  1  0
  2  3  1  0
  2  4  1  0
  4  5  2  0
  5  6  1  0
  6  7  2  0
  7  8  1  0
  8  9  1  0
  9 10  1  0
 10 11  1  0
 11 12  1  0
 11 13  1  0
 10 14  2  0
 14 15  1  0
 15 16  1  0
 16 17  2  0
 17 18  1  0
 18 19  2  0
 19 20  1  0
 19 21  1  0
 21 22  2  0
  7 23  1  0
 23 24  2  0
 24  4  1  0
 15  8  2  0
 22 16  1  0
  1 25  1  0
  1 26  1  0
  1 27  1  0
  3 28  1  0
  3 29  1  0
  3 30  1  0
  5 31  1  0
  6 32  1  0
 12 33  1  0
 12 34  1  0
 12 35  1  0
 13 36  1  0
 13 37  1  0
 13 38  1  0
 17 39  1  0
 18 40  1  0
 21 41  1  0
 22 42  1  0
 23 43  1  0
 24 44  1  0
M  END
>  <UniqueID>  (9) 
9

>  <SMILES>  (9) 
CN(C)c1ccc(-c2sc(N(C)C)nc2-c2ccc(Cl)cc2)cc1

>  <Energy>  (9) 
82.63649846218684

>  <Genealogy>  (9) 
CN(C)c1ccc(-c2sc(N(C)C)nc2-c2ccc(Cl)cc2)cc1 (3D coordinates assigned)
CN(C)c1ccc(-c2sc(N(C)C)nc2-c2ccc(Cl)cc2)cc1 (optimized conformer: 82.63649846218684 kcal/mol)

>  <smiles>  (9) 
CN(C)c1ccc(-c2sc(N(C)C)nc2-c2ccc(Cl)cc2)cc1

>  <score_type>  (9) 
oracle

>  <origin>  (9) 
adg

>  <m_score__min__energy>  (9) 
-6.75

>  <m_primary>  (9) 
energy

$$$$
9:0
     RDKit          3D

 38 38  0  0  0  0  0  0  0  0999 V2000
   58.1070   27.8330   44.3540 C   0  0  0  0  0  0  0  0  0  0  0  0
   57.2320   28.1410   45.5620 C   0  0  0  0  0  0  0  0  0  0  0  0
   56.3440   29.2050   45.2710 O   0  0  0  0  0  0  0  0  0  0  0  0
   56.2420   29.4000   43.8740 C   0  0  0  0  0  0  0  0  0  0  0  0
   56.6060   30.8400   43.5260 C   0  0  0  0  0  0  0  0  0  0  0  0
   57.0360   31.5600   44.7310 N   0  0  0  0  0  0  0  0  0  0  0  0
   57.7390   32.8120   44.3990 C   0  0  0  0  0  0  0  0  0  0  0  0
   57.4170   33.8820   45.4480 C   0  0  0  0  0  0  0  0  0  0  0  0
   57.4570   33.3310   46.8120 N   0  0  0  0  0  0  0  0  0  0  0  0
   58.8120   33.3350   47.3140 C   0  0  0  0  0  0  0  0  0  0  0  0
   59.3220   34.5220   47.8770 C   0  0  0  0  0  0  0  0  0  0  0  0
   60.6370   34.5910   48.3350 C   0  0  0  0  0  0  0  0  0  0  0  0
   61.4700   33.4800   48.2320 C   0  0  0  0  0  0  0  0  0  0  0  0
   60.9860   32.2910   47.6870 C   0  0  0  0  0  0  0  0  0  0  0  0
   59.6550   32.1900   47.2390 C   0  0  0  0  0  0  0  0  0  0  0  0
   59.1910   30.9330   46.7130 N   0  0  0  0  0  0  0  0  0  0  0  0
   58.1310   30.4310   47.1410 O   0  0  0  0  0  0  0  0  0  0  0  0
   59.7810   30.3770   45.6040 O   0  0  0  0  0  0  0  0  0  0  0  0
   59.0935   27.4857   44.6948 H   0  0  0  0  0  0  0  0  0  0  0  0
   57.6315   27.0482   43.7474 H   0  0  0  0  0  0  0  0  0  0  0  0
   58.2279   28.7426   43.7474 H   0  0  0  0  0  0  0  0  0  0  0  0
   56.6502   27.2454   45.8257 H   0  0  0  0  0  0  0  0  0  0  0  0
   57.8767   28.4348   46.4034 H   0  0  0  0  0  0  0  0  0  0  0  0
   56.9304   28.7144   43.3582 H   0  0  0  0  0  0  0  0  0  0  0  0
   55.2093   29.1985   43.5533 H   0  0  0  0  0  0  0  0  0  0  0  0
   57.4245   30.8404   42.7911 H   0  0  0  0  0  0  0  0  0  0  0  0
   55.7224   31.3416   43.1045 H   0  0  0  0  0  0  0  0  0  0  0  0
   57.6940   30.9430   45.2640 H   0  0  0  0  0  0  0  0  0  0  0  0
   58.8236   32.6291   44.3849 H   0  0  0  0  0  0  0  0  0  0  0  0
   57.4093   33.1623   43.4098 H   0  0  0  0  0  0  0  0  0  0  0  0
   58.1553   34.6935   45.3688 H   0  0  0  0  0  0  0  0  0  0  0  0
   56.4005   34.2566   45.2573 H   0  0  0  0  0  0  0  0  0  0  0  0
   56.8180   33.8600   47.4480 H   0  0  0  0  0  0  0  0  0  0  0  0
   57.1110   32.3440   46.7960 H   0  0  0  0  0  0  0  0  0  0  0  0
   58.6732   35.4068   47.9562 H   0  0  0  0  0  0  0  0  0  0  0  0
   61.0166   35.5236   48.7779 H   0  0  0  0  0  0  0  0  0  0  0  0
   62.5114   33.5402   48.5810 H   0  0  0  0  0  0  0  0  0  0  0  0
   61.6532   31.4202   47.6060 H   0  0  0  0  0  0  0  0  0  0  0  0
  1  2  1  0
  2  3  1  0
  3  4  1  0
  4  5  1  0
  5  6  1  0
  6  7  1  0
  7  8  1  0
  8  9  1  0
  9 10  1  0
 10 11  2  0
 11 12  1  0
 12 13  2  0
 13 14  1  0
 14 15  2  0
 15 16  1  0
 16 17  2  0
 16 18  1  0
 15 10  1  0
  1 19  1  0
  1 20  1  0
  1 21  1  0
  2 22  1  0
  2 23  1  0
  4 24  1  0
  4 25  1  0
  5 26  1  0
  5 27  1  0
  6 28  1  0
  7 29  1  0
  7 30  1  0
  8 31  1  0
  8 32  1  0
  9 33  1  0
  9 34  1  0
 11 35  1  0
 12 36  1  0
 13 37  1  0
 14 38  1  0
M  CHG  3   9   1  16   1  18  -1
M  END
>  <UniqueID>  (10) 
10

>  <SMILES>  (10) 
CCOCCNCC[NH2+]c1ccccc1[N+](=O)[O-]

>  <Energy>  (10) 
38.786117659228175

>  <Genealogy>  (10) 
CCOCCNCC[NH2+]c1ccccc1[N+](=O)[O-] (protonated)
CCOCCNCC[NH2+]c1ccccc1[N+](=O)[O-] (3D coordinates assigned)
CCOCCNCC[NH2+]c1ccccc1[N+](=O)[O-] (optimized conformer: 38.786117659228175 kcal/mol)

>  <smiles>  (10) 
CCOCCNCCNc1ccccc1[N+](=O)[O-]

>  <score_type>  (10) 
oracle

>  <origin>  (10) 
adg

>  <m_score__min__energy>  (10) 
-3.6499999999999999

>  <m_primary>  (10) 
energy

$$$$
10:0
     RDKit          3D

 37 39  0  0  0  0  0  0  0  0999 V2000
   56.5716   33.8287   44.9654 H   0  0  0  0  0  0  0  0  0  0  0  0
   57.3600   33.1960   45.3990 C   0  0  0  0  0  0  0  0  0  0  0  0
   57.6830   32.0930   44.7870 N   0  0  0  0  0  0  0  0  0  0  0  0
   58.1670   30.9090   45.4350 C   0  0  0  0  0  0  0  0  0  0  0  0
   59.4560   30.9100   45.9810 C   0  0  0  0  0  0  0  0  0  0  0  0
   60.0789   31.8140   45.9119 H   0  0  0  0  0  0  0  0  0  0  0  0
   59.9550   29.7690   46.6130 C   0  0  0  0  0  0  0  0  0  0  0  0
   60.9640   29.7795   47.0509 H   0  0  0  0  0  0  0  0  0  0  0  0
   59.1730   28.6150   46.6890 C   0  0  0  0  0  0  0  0  0  0  0  0
   59.5634   27.7194   47.1944 H   0  0  0  0  0  0  0  0  0  0  0  0
   57.8950   28.5960   46.1240 C   0  0  0  0  0  0  0  0  0  0  0  0
   57.2854   27.6821   46.1811 H   0  0  0  0  0  0  0  0  0  0  0  0
   57.3830   29.7400   45.4820 C   0  0  0  0  0  0  0  0  0  0  0  0
   56.1180   29.7490   44.8710 O   0  0  0  0  0  0  0  0  0  0  0  0
   55.9030   29.7440   43.4640 C   0  0  0  0  0  0  0  0  0  0  0  0
   54.8227   29.7189   43.2582 H   0  0  0  0  0  0  0  0  0  0  0  0
   56.3392   30.6525   43.0232 H   0  0  0  0  0  0  0  0  0  0  0  0
   56.3810   28.8567   43.0232 H   0  0  0  0  0  0  0  0  0  0  0  0
   58.0230   33.6410   46.6780 C   0  0  0  0  0  0  0  0  0  0  0  0
   57.3293   34.2849   47.2386 H   0  0  0  0  0  0  0  0  0  0  0  0
   58.2816   32.7502   47.2692 H   0  0  0  0  0  0  0  0  0  0  0  0
   59.2830   34.4090   46.3880 C   0  0  0  0  0  0  0  0  0  0  0  0
   59.2410   35.3110   45.5070 O   0  0  0  0  0  0  0  0  0  0  0  0
   60.5670   34.1240   47.0860 C   0  0  0  0  0  0  0  0  0  0  0  0
   61.7160   33.7630   46.3290 C   0  0  0  0  0  0  0  0  0  0  0  0
   61.6459   33.7003   45.2330 H   0  0  0  0  0  0  0  0  0  0  0  0
   62.9410   33.4850   46.9630 C   0  0  0  0  0  0  0  0  0  0  0  0
   63.8316   33.2063   46.3806 H   0  0  0  0  0  0  0  0  0  0  0  0
   62.9890   33.5740   48.3480 C   0  0  0  0  0  0  0  0  0  0  0  0
   61.9030   33.9140   49.0840 C   0  0  0  0  0  0  0  0  0  0  0  0
   60.6720   34.1970   48.4980 C   0  0  0  0  0  0  0  0  0  0  0  0
   59.8032   34.4702   49.1148 H   0  0  0  0  0  0  0  0  0  0  0  0
   62.2380   33.9200   50.4240 O   0  0  0  0  0  0  0  0  0  0  0  0
   63.6230   33.5620   50.5360 C   0  0  0  0  0  0  0  0  0  0  0  0
   64.1955   34.3753   51.0059 H   0  0  0  0  0  0  0  0  0  0  0  0
   63.7692   32.6700   51.1629 H   0  0  0  0  0  0  0  0  0  0  0  0
   64.0630   33.3500   49.1880 O   0  0  0  0  0  0  0  0  0  0  0  0
  1  2  1  0
  2  3  2  0
  3  4  1  0
  4  5  2  0
  5  6  1  0
  5  7  1  0
  7  8  1  0
  7  9  2  0
  9 10  1  0
  9 11  1  0
 11 12  1  0
 11 13  2  0
 13 14  1  0
 14 15  1  0
 15 16  1  0
 15 17  1  0
 15 18  1  0
  2 19  1  0
 19 20  1  0
 19 21  1  0
 19 22  1  0
 22 23  2  0
 22 24  1  0
 24 25  2  0
 25 26  1  0
 25 27  1  0
 27 28  1  0
 27 29  2  0
 29 30  1  0
 30 31  2  0
 31 32  1  0
 30 33  1  0
 33 34  1  0
 34 35  1  0
 34 36  1  0
 34 37  1  0
 13  4  1  0
 31 24  1  0
 37 29  1  0
M  END
>  <UniqueID>  (11) 
11

>  <SMILES>  (11) 
COc1ccccc1/N=C\CC(=O)c1ccc2c(c1)OCO2

>  <Energy>  (11) 
74.3342633849924

>  <Genealogy>  (11) 
COc1ccccc1/N=C\CC(=O)c1ccc2c(c1)OCO2 (cis-trans isomerization)
COc1ccccc1/N=C\CC(=O)c1ccc2c(c1)OCO2 (3D coordinates assigned)
COc1ccccc1/N=C\CC(=O)c1ccc2c(c1)OCO2 (nonaromatic ring conformer: 74.3342633849924 kcal/mol)

>  <smiles>  (11) 
COc1ccccc1N=CCC(=O)c1ccc2c(c1)OCO2

>  <score_type>  (11) 
oracle

>  <origin>  (11) 
adg

>  <m_score__min__energy>  (11) 
-7.4299999999999997

>  <m_primary>  (11) 
energy

$$$$
11:0
     RDKit          3D

 57 60  0  0  0  0  0  0  0  0999 V2000
   63.3260   33.6250   46.7450 C   0  0  0  0  0  0  0  0  0  0  0  0
   63.7210   32.6060   47.8050 C   0  0  0  0  0  0  0  0  0  0  0  0
   62.6210   31.6780   48.0500 N   0  0  0  0  0  0  0  0  0  0  0  0
   61.7340   31.2430   47.1350 C   0  0  0  0  0  0  0  0  0  0  0  0
   60.8090   30.4510   47.7810 C   0  0  0  0  0  0  0  0  0  0  0  0
   59.6830   29.7270   47.1520 C   0  0  0  0  0  0  0  0  0  0  0  0
   59.6390   28.3720   47.2880 N   0  0  0  0  0  0  0  0  0  0  0  0
   58.6100   27.6340   46.7950 C   0  0  0  0  0  0  0  0  0  0  0  0
   58.5850   26.2450   46.9490 C   0  0  0  0  0  0  0  0  0  0  0  0
   57.5010   25.5100   46.4260 C   0  0  0  0  0  0  0  0  0  0  0  0
   57.4290   24.0700   46.5530 N   0  0  0  0  0  0  0  0  0  0  0  0
   57.0350   23.4470   47.8240 C   0  0  0  0  0  0  0  0  0  0  0  0
   57.6980   23.2200   45.3790 C   0  0  0  0  0  0  0  0  0  0  0  0
   56.5720   22.1970   45.1940 C   0  0  0  0  0  0  0  0  0  0  0  0
   56.2810   22.0050   43.7570 N   0  0  0  0  0  0  0  0  0  0  0  0
   57.3150   21.1640   43.1320 C   0  0  0  0  0  0  0  0  0  0  0  0
   56.2110   23.3000   43.0570 C   0  0  0  0  0  0  0  0  0  0  0  0
   56.5030   26.1790   45.7770 N   0  0  0  0  0  0  0  0  0  0  0  0
   56.5060   27.5280   45.6190 C   0  0  0  0  0  0  0  0  0  0  0  0
   57.5610   28.2820   46.1290 C   0  0  0  0  0  0  0  0  0  0  0  0
   57.6010   29.6280   45.9700 N   0  0  0  0  0  0  0  0  0  0  0  0
   58.6340   30.3760   46.4490 C   0  0  0  0  0  0  0  0  0  0  0  0
   58.6380   31.8200   46.1400 C   0  0  0  0  0  0  0  0  0  0  0  0
   58.6960   32.7600   47.1850 C   0  0  0  0  0  0  0  0  0  0  0  0
   58.6600   34.1290   46.9050 C   0  0  0  0  0  0  0  0  0  0  0  0
   58.5530   34.5700   45.5820 C   0  0  0  0  0  0  0  0  0  0  0  0
   58.4740   33.6430   44.5380 C   0  0  0  0  0  0  0  0  0  0  0  0
   58.5090   32.2730   44.8150 C   0  0  0  0  0  0  0  0  0  0  0  0
   61.2130   30.4310   49.1070 C   0  0  0  0  0  0  0  0  0  0  0  0
   62.3120   31.2000   49.2460 N   0  0  0  0  0  0  0  0  0  0  0  0
   62.9699   34.5436   47.2342 H   0  0  0  0  0  0  0  0  0  0  0  0
   64.1988   33.8584   46.1175 H   0  0  0  0  0  0  0  0  0  0  0  0
   62.5239   33.2092   46.1175 H   0  0  0  0  0  0  0  0  0  0  0  0
   64.6001   32.0433   47.4578 H   0  0  0  0  0  0  0  0  0  0  0  0
   63.9578   33.1353   48.7398 H   0  0  0  0  0  0  0  0  0  0  0  0
   61.7455   31.4784   46.0605 H   0  0  0  0  0  0  0  0  0  0  0  0
   59.4034   25.7299   47.4733 H   0  0  0  0  0  0  0  0  0  0  0  0
   57.4162   24.0498   48.6615 H   0  0  0  0  0  0  0  0  0  0  0  0
   55.9378   23.3925   47.8810 H   0  0  0  0  0  0  0  0  0  0  0  0
   57.4560   22.4324   47.8810 H   0  0  0  0  0  0  0  0  0  0  0  0
   57.7653   23.8520   44.4812 H   0  0  0  0  0  0  0  0  0  0  0  0
   58.6461   22.6844   45.5346 H   0  0  0  0  0  0  0  0  0  0  0  0
   56.8793   21.2364   45.6331 H   0  0  0  0  0  0  0  0  0  0  0  0
   55.6661   22.5690   45.6949 H   0  0  0  0  0  0  0  0  0  0  0  0
   57.9141   20.6767   43.9153 H   0  0  0  0  0  0  0  0  0  0  0  0
   56.8350   20.3967   42.5068 H   0  0  0  0  0  0  0  0  0  0  0  0
   57.9685   21.7902   42.5068 H   0  0  0  0  0  0  0  0  0  0  0  0
   56.1670   24.1141   43.7955 H   0  0  0  0  0  0  0  0  0  0  0  0
   57.1037   23.4247   42.4265 H   0  0  0  0  0  0  0  0  0  0  0  0
   55.3100   23.3278   42.4265 H   0  0  0  0  0  0  0  0  0  0  0  0
   55.6785   28.0236   45.0903 H   0  0  0  0  0  0  0  0  0  0  0  0
   58.7700   32.4161   48.2272 H   0  0  0  0  0  0  0  0  0  0  0  0
   58.7158   34.8597   47.7254 H   0  0  0  0  0  0  0  0  0  0  0  0
   58.5310   35.6476   45.3624 H   0  0  0  0  0  0  0  0  0  0  0  0
   58.3843   33.9917   43.4986 H   0  0  0  0  0  0  0  0  0  0  0  0
   58.4353   31.5461   43.9927 H   0  0  0  0  0  0  0  0  0  0  0  0
   60.7163   29.8763   49.9167 H   0  0  0  0  0  0  0  0  0  0  0  0
  1  2  1  0
  2  3  1  0
  3  4  1  0
  4  5  2  0
  5  6  1  0
  6  7  2  0
  7  8  1  0
  8  9  2  0
  9 10  1  0
 10 11  1  0
 11 12  1  0
 11 13  1  0
 13 14  1  0
 14 15  1  0
 15 16  1  0
 15 17  1  0
 10 18  2  0
 18 19  1  0
 19 20  2  0
 20 21  1  0
 21 22  2  0
 22 23  1  0
 23 24  2  0
 24 25  1  0
 25 26  2  0
 26 27  1  0
 27 28  2  0
  5 29  1  0
 29 30  2  0
 30  3  1  0
 22  6  1  0
 28 23  1  0
 20  8  1  0
  1 31  1  0
  1 32  1  0
  1 33  1  0
  2 34  1  0
  2 35  1  0
  4 36  1  0
  9 37  1  0
 12 38  1  0
 12 39  1  0
 12 40  1  0
 13 41  1  0
 13 42  1  0
 14 43  1  0
 14 44  1  0
 16 45  1  0
 16 46  1  0
 16 47  1  0
 17 48  1  0
 17 49  1  0
 17 50  1  0
 19 51  1  0
 24 52  1  0
 25 53  1  0
 26 54  1  0
 27 55  1  0
 28 56  1  0
 29 57  1  0
M  END
>  <UniqueID>  (12) 
12

>  <SMILES>  (12) 
CCn1cc(-c2nc3cc(N(C)CCN(C)C)ncc3nc2-c2ccccc2)cn1

>  <Energy>  (12) 
99.84263067138703

>  <Genealogy>  (12) 
CCn1cc(-c2nc3cc(N(C)CCN(C)C)ncc3nc2-c2ccccc2)cn1 (3D coordinates assigned)
CCn1cc(-c2nc3cc(N(C)CCN(C)C)ncc3nc2-c2ccccc2)cn1 (optimized conformer: 99.84263067138703 kcal/mol)

>  <smiles>  (12) 
CCn1cc(-c2nc3cc(N(C)CCN(C)C)ncc3nc2-c2ccccc2)cn1

>  <score_type>  (12) 
oracle

>  <origin>  (12) 
adg

>  <m_score__min__energy>  (12) 
-7.7199999999999998

>  <m_primary>  (12) 
energy

$$$$
12:0
     RDKit          3D

 51 53  0  0  0  0  0  0  0  0999 V2000
   58.4890   31.9100   50.3480 C   0  0  0  0  0  0  0  0  0  0  0  0
   58.5350   30.3950   50.4770 C   0  0  0  0  0  0  0  0  0  0  0  0
   58.8350   29.8130   49.2130 O   0  0  0  0  0  0  0  0  0  0  0  0
   60.1080   29.3270   48.8950 C   0  0  0  0  0  0  0  0  0  0  0  0
   61.1440   29.9600   49.2450 O   0  0  0  0  0  0  0  0  0  0  0  0
   60.2400   28.0180   48.1800 C   0  0  0  0  0  0  0  0  0  0  0  0
   59.5000   28.0450   46.8690 C   0  0  0  0  0  0  0  0  0  0  0  0
   58.1220   27.7830   46.8250 C   0  0  0  0  0  0  0  0  0  0  0  0
   57.4240   27.8580   45.6150 C   0  0  0  0  0  0  0  0  0  0  0  0
   58.0980   28.1950   44.4280 C   0  0  0  0  0  0  0  0  0  0  0  0
   57.3820   28.2980   43.1780 N   0  0  0  0  0  0  0  0  0  0  0  0
   56.3830   29.3810   43.2180 C   0  0  0  0  0  0  0  0  0  0  0  0
   57.0120   30.7240   43.5050 C   0  0  0  0  0  0  0  0  0  0  0  0
   57.4950   31.5160   42.4500 C   0  0  0  0  0  0  0  0  0  0  0  0
   58.1370   32.7270   42.7150 C   0  0  0  0  0  0  0  0  0  0  0  0
   58.2930   33.1650   44.0320 C   0  0  0  0  0  0  0  0  0  0  0  0
   57.7780   32.4090   45.0890 C   0  0  0  0  0  0  0  0  0  0  0  0
   57.9360   32.8690   46.4000 O   0  0  0  0  0  0  0  0  0  0  0  0
   59.1790   33.0760   47.0140 C   0  0  0  0  0  0  0  0  0  0  0  0
   60.2710   32.2230   46.7720 C   0  0  0  0  0  0  0  0  0  0  0  0
   61.4780   32.4200   47.4500 C   0  0  0  0  0  0  0  0  0  0  0  0
   61.6100   33.4760   48.3550 C   0  0  0  0  0  0  0  0  0  0  0  0
   60.5310   34.3300   48.5930 C   0  0  0  0  0  0  0  0  0  0  0  0
   59.3170   34.1260   47.9310 C   0  0  0  0  0  0  0  0  0  0  0  0
   57.1390   31.1870   44.8260 C   0  0  0  0  0  0  0  0  0  0  0  0
   59.4800   28.4500   44.4750 C   0  0  0  0  0  0  0  0  0  0  0  0
   60.1740   28.3820   45.6850 C   0  0  0  0  0  0  0  0  0  0  0  0
   58.4752   32.3631   51.3503 H   0  0  0  0  0  0  0  0  0  0  0  0
   59.3770   32.2585   49.8002 H   0  0  0  0  0  0  0  0  0  0  0  0
   57.5815   32.2040   49.8002 H   0  0  0  0  0  0  0  0  0  0  0  0
   59.3125   30.1136   51.2025 H   0  0  0  0  0  0  0  0  0  0  0  0
   57.5566   30.0297   50.8224 H   0  0  0  0  0  0  0  0  0  0  0  0
   61.3046   27.8179   47.9886 H   0  0  0  0  0  0  0  0  0  0  0  0
   59.8080   27.2275   48.8113 H   0  0  0  0  0  0  0  0  0  0  0  0
   57.5870   27.5168   47.7485 H   0  0  0  0  0  0  0  0  0  0  0  0
   56.3436   27.6525   45.5921 H   0  0  0  0  0  0  0  0  0  0  0  0
   58.0730   28.5060   42.4190 H   0  0  0  0  0  0  0  0  0  0  0  0
   56.9260   27.3880   42.9320 H   0  0  0  0  0  0  0  0  0  0  0  0
   55.8728   29.4290   42.2447 H   0  0  0  0  0  0  0  0  0  0  0  0
   55.6745   29.1585   44.0295 H   0  0  0  0  0  0  0  0  0  0  0  0
   57.3667   31.1804   41.4103 H   0  0  0  0  0  0  0  0  0  0  0  0
   58.5209   33.3377   41.8846 H   0  0  0  0  0  0  0  0  0  0  0  0
   58.8223   34.1070   44.2380 H   0  0  0  0  0  0  0  0  0  0  0  0
   60.1753   31.4000   46.0485 H   0  0  0  0  0  0  0  0  0  0  0  0
   62.3254   31.7420   47.2704 H   0  0  0  0  0  0  0  0  0  0  0  0
   62.5635   33.6348   48.8800 H   0  0  0  0  0  0  0  0  0  0  0  0
   60.6366   35.1642   49.3022 H   0  0  0  0  0  0  0  0  0  0  0  0
   58.4657   34.7933   48.1311 H   0  0  0  0  0  0  0  0  0  0  0  0
   56.7361   30.5895   45.6570 H   0  0  0  0  0  0  0  0  0  0  0  0
   60.0191   28.7052   43.5508 H   0  0  0  0  0  0  0  0  0  0  0  0
   61.2532   28.5934   45.7102 H   0  0  0  0  0  0  0  0  0  0  0  0
  1  2  1  0
  2  3  1  0
  3  4  1  0
  4  5  2  0
  4  6  1  0
  6  7  1  0
  7  8  2  0
  8  9  1  0
  9 10  2  0
 10 11  1  0
 11 12  1  0
 12 13  1  0
 13 14  2  0
 14 15  1  0
 15 16  2  0
 16 17  1  0
 17 18  1  0
 18 19  1  0
 19 20  2  0
 20 21  1  0
 21 22  2  0
 22 23  1  0
 23 24  2  0
 17 25  2  0
 10 26  1  0
 26 27  2  0
 27  7  1  0
 25 13  1  0
 24 19  1  0
  1 28  1  0
  1 29  1  0
  1 30  1  0
  2 31  1  0
  2 32  1  0
  6 33  1  0
  6 34  1  0
  8 35  1  0
  9 36  1  0
 11 37  1  0
 11 38  1  0
 12 39  1  0
 12 40  1  0
 14 41  1  0
 15 42  1  0
 16 43  1  0
 20 44  1  0
 21 45  1  0
 22 46  1  0
 23 47  1  0
 24 48  1  0
 25 49  1  0
 26 50  1  0
 27 51  1  0
M  CHG  1  11   1
M  END
>  <UniqueID>  (13) 
13

>  <SMILES>  (13) 
CCOC(=O)Cc1ccc([NH2+]Cc2cccc(Oc3ccccc3)c2)cc1

>  <Energy>  (13) 
51.166114157968295

>  <Genealogy>  (13) 
CCOC(=O)Cc1ccc([NH2+]Cc2cccc(Oc3ccccc3)c2)cc1 (protonated)
CCOC(=O)Cc1ccc([NH2+]Cc2cccc(Oc3ccccc3)c2)cc1 (3D coordinates assigned)
CCOC(=O)Cc1ccc([NH2+]Cc2cccc(Oc3ccccc3)c2)cc1 (optimized conformer: 51.166114157968295 kcal/mol)

>  <smiles>  (13) 
CCOC(=O)Cc1ccc(NCc2cccc(Oc3ccccc3)c2)cc1

>  <score_type>  (13) 
oracle

>  <origin>  (13) 
adg

>  <m_score__min__energy>  (13) 
-6.5800000000000001

>  <m_primary>  (13) 
energy

$$$$
13:0
     RDKit          3D

 35 36  0  0  0  0  0  0  0  0999 V2000
   57.8240   26.1740   44.3960 C   0  0  0  0  0  0  0  0  0  0  0  0
   56.6740   26.1130   45.3960 C   0  0  0  0  0  0  0  0  0  0  0  0
   56.1920   27.4670   45.7030 N   0  0  0  0  0  0  0  0  0  0  0  0
   57.1390   28.4940   45.2490 C   0  0  0  0  0  0  0  0  0  0  0  0
   56.4040   29.6780   44.6800 C   0  0  0  0  0  0  0  0  0  0  0  0
   55.1470   29.7130   44.7590 O   0  0  0  0  0  0  0  0  0  0  0  0
   57.1020   30.7790   44.0720 N   0  0  0  0  0  0  0  0  0  0  0  0
   56.8710   30.9920   42.6350 C   0  0  0  0  0  0  0  0  0  0  0  0
   57.9370   31.9110   42.0310 C   0  0  0  0  0  0  0  0  0  0  0  0
   58.0860   33.0820   42.8280 O   0  0  0  0  0  0  0  0  0  0  0  0
   58.1550   32.9970   44.2190 C   0  0  0  0  0  0  0  0  0  0  0  0
   58.6550   34.0700   44.9590 C   0  0  0  0  0  0  0  0  0  0  0  0
   58.7840   33.9640   46.3460 C   0  0  0  0  0  0  0  0  0  0  0  0
   58.4390   32.7720   46.9970 C   0  0  0  0  0  0  0  0  0  0  0  0
   58.5620   32.6650   48.4880 C   0  0  0  0  0  0  0  0  0  0  0  0
   57.9070   31.7050   46.2540 C   0  0  0  0  0  0  0  0  0  0  0  0
   57.7220   31.8240   44.8630 C   0  0  0  0  0  0  0  0  0  0  0  0
   58.7795   26.2247   44.9387 H   0  0  0  0  0  0  0  0  0  0  0  0
   57.8085   25.2738   43.7641 H   0  0  0  0  0  0  0  0  0  0  0  0
   57.7134   27.0675   43.7641 H   0  0  0  0  0  0  0  0  0  0  0  0
   55.8506   25.5235   44.9664 H   0  0  0  0  0  0  0  0  0  0  0  0
   57.0313   25.6417   46.3235 H   0  0  0  0  0  0  0  0  0  0  0  0
   55.2920   27.6150   45.1890 H   0  0  0  0  0  0  0  0  0  0  0  0
   57.7507   28.8239   46.1016 H   0  0  0  0  0  0  0  0  0  0  0  0
   57.7795   28.0640   44.4649 H   0  0  0  0  0  0  0  0  0  0  0  0
   56.9010   30.0208   42.1193 H   0  0  0  0  0  0  0  0  0  0  0  0
   55.8882   31.4694   42.5080 H   0  0  0  0  0  0  0  0  0  0  0  0
   58.8969   31.3755   41.9891 H   0  0  0  0  0  0  0  0  0  0  0  0
   57.6257   32.2040   41.0174 H   0  0  0  0  0  0  0  0  0  0  0  0
   58.9477   34.9999   44.4494 H   0  0  0  0  0  0  0  0  0  0  0  0
   59.1575   34.8188   46.9289 H   0  0  0  0  0  0  0  0  0  0  0  0
   57.8142   33.3155   48.9652 H   0  0  0  0  0  0  0  0  0  0  0  0
   58.3915   31.6229   48.7961 H   0  0  0  0  0  0  0  0  0  0  0  0
   59.5705   32.9782   48.7961 H   0  0  0  0  0  0  0  0  0  0  0  0
   57.6328   30.7691   46.7628 H   0  0  0  0  0  0  0  0  0  0  0  0
  1  2  1  0
  2  3  1  0
  3  4  1  0
  4  5  1  0
  5  6  2  0
  5  7  1  0
  7  8  1  0
  8  9  1  0
  9 10  1  0
 10 11  1  0
 11 12  2  0
 12 13  1  0
 13 14  2  0
 14 15  1  0
 14 16  1  0
 16 17  2  0
 17  7  1  0
 17 11  1  0
  1 18  1  0
  1 19  1  0
  1 20  1  0
  2 21  1  0
  2 22  1  0
  3 23  1  0
  4 24  1  0
  4 25  1  0
  8 26  1  0
  8 27  1  0
  9 28  1  0
  9 29  1  0
 12 30  1  0
 13 31  1  0
 15 32  1  0
 15 33  1  0
 15 34  1  0
 16 35  1  0
M  END
>  <UniqueID>  (14) 
14

>  <SMILES>  (14) 
CCNCC(=O)N1CCOc2ccc(C)cc21

>  <Energy>  (14) 
37.12221200648573

>  <Genealogy>  (14) 
CCNCC(=O)N1CCOc2ccc(C)cc21 (3D coordinates assigned)
CCNCC(=O)N1CCOc2ccc(C)cc21 (nonaromatic ring conformer: 37.12221200648573 kcal/mol)

>  <smiles>  (14) 
CCNCC(=O)N1CCOc2ccc(C)cc21

>  <score_type>  (14) 
oracle

>  <origin>  (14) 
adg

>  <m_score__min__energy>  (14) 
-6.3600000000000003

>  <m_primary>  (14) 
energy

$$$$
14:0
     RDKit          3D

 44 46  0  0  0  0  0  0  0  0999 V2000
   54.1600   23.7410   44.8620 C   0  0  0  0  0  0  0  0  0  0  0  0
   54.0770   23.5210   46.3680 C   0  0  0  0  0  0  0  0  0  0  0  0
   55.1360   24.2010   47.0410 O   0  0  0  0  0  0  0  0  0  0  0  0
   56.3190   24.6800   46.4470 C   0  0  0  0  0  0  0  0  0  0  0  0
   56.4190   25.9780   45.9200 C   0  0  0  0  0  0  0  0  0  0  0  0
   57.6110   26.4260   45.3370 C   0  0  0  0  0  0  0  0  0  0  0  0
   57.6840   27.8040   44.7950 C   0  0  0  0  0  0  0  0  0  0  0  0
   57.7070   28.1990   43.4700 C   0  0  0  0  0  0  0  0  0  0  0  0
   57.7830   29.5410   43.4370 N   0  0  0  0  0  0  0  0  0  0  0  0
   57.8010   29.9220   44.7320 C   0  0  0  0  0  0  0  0  0  0  0  0
   57.8980   31.3190   45.2120 C   0  0  0  0  0  0  0  0  0  0  0  0
   58.1450   31.5540   46.5770 C   0  0  0  0  0  0  0  0  0  0  0  0
   58.2480   32.8590   47.0670 C   0  0  0  0  0  0  0  0  0  0  0  0
   58.0960   33.9440   46.2030 C   0  0  0  0  0  0  0  0  0  0  0  0
   57.8340   33.7270   44.8480 C   0  0  0  0  0  0  0  0  0  0  0  0
   57.7310   32.4230   44.3500 C   0  0  0  0  0  0  0  0  0  0  0  0
   57.4200   32.2550   43.0400 F   0  0  0  0  0  0  0  0  0  0  0  0
   57.7460   28.8850   45.5410 O   0  0  0  0  0  0  0  0  0  0  0  0
   58.7100   25.5580   45.2780 C   0  0  0  0  0  0  0  0  0  0  0  0
   58.6320   24.2500   45.7940 C   0  0  0  0  0  0  0  0  0  0  0  0
   59.7340   23.3830   45.7300 O   0  0  0  0  0  0  0  0  0  0  0  0
   59.8370   22.2500   44.8730 C   0  0  0  0  0  0  0  0  0  0  0  0
   57.4190   23.8090   46.3840 C   0  0  0  0  0  0  0  0  0  0  0  0
   57.2370   22.5230   46.9290 O   0  0  0  0  0  0  0  0  0  0  0  0
   56.6110   22.2040   48.1660 C   0  0  0  0  0  0  0  0  0  0  0  0
   54.5417   24.7526   44.6597 H   0  0  0  0  0  0  0  0  0  0  0  0
   54.8394   22.9975   44.4197 H   0  0  0  0  0  0  0  0  0  0  0  0
   53.1588   23.6316   44.4197 H   0  0  0  0  0  0  0  0  0  0  0  0
   53.1130   23.9029   46.7352 H   0  0  0  0  0  0  0  0  0  0  0  0
   54.1659   22.4436   46.5713 H   0  0  0  0  0  0  0  0  0  0  0  0
   55.5502   26.6512   45.9657 H   0  0  0  0  0  0  0  0  0  0  0  0
   57.6697   27.5321   42.5960 H   0  0  0  0  0  0  0  0  0  0  0  0
   57.8600   30.1320   42.5820 H   0  0  0  0  0  0  0  0  0  0  0  0
   58.2581   30.7030   47.2648 H   0  0  0  0  0  0  0  0  0  0  0  0
   58.4491   33.0308   48.1347 H   0  0  0  0  0  0  0  0  0  0  0  0
   58.1825   34.9705   46.5888 H   0  0  0  0  0  0  0  0  0  0  0  0
   57.7082   34.5841   44.1700 H   0  0  0  0  0  0  0  0  0  0  0  0
   59.6488   25.9042   44.8211 H   0  0  0  0  0  0  0  0  0  0  0  0
   59.9200   21.3369   45.4807 H   0  0  0  0  0  0  0  0  0  0  0  0
   58.9408   22.1877   44.2382 H   0  0  0  0  0  0  0  0  0  0  0  0
   60.7297   22.3504   44.2382 H   0  0  0  0  0  0  0  0  0  0  0  0
   57.2531   22.5312   48.9970 H   0  0  0  0  0  0  0  0  0  0  0  0
   55.6401   22.7173   48.2287 H   0  0  0  0  0  0  0  0  0  0  0  0
   56.4557   21.1168   48.2287 H   0  0  0  0  0  0  0  0  0  0  0  0
  1  2  1  0
  2  3  1  0
  3  4  1  0
  4  5  2  0
  5  6  1  0
  6  7  1  0
  7  8  2  0
  8  9  1  0
  9 10  2  0
 10 11  1  0
 11 12  2  0
 12 13  1  0
 13 14  2  0
 14 15  1  0
 15 16  2  0
 16 17  1  0
 10 18  1  0
  6 19  2  0
 19 20  1  0
 20 21  1  0
 21 22  1  0
 20 23  2  0
 23 24  1  0
 24 25  1  0
 23  4  1  0
 18  7  1  0
 16 11  1  0
  1 26  1  0
  1 27  1  0
  1 28  1  0
  2 29  1  0
  2 30  1  0
  5 31  1  0
  8 32  1  0
  9 33  1  0
 12 34  1  0
 13 35  1  0
 14 36  1  0
 15 37  1  0
 19 38  1  0
 22 39  1  0
 22 40  1  0
 22 41  1  0
 25 42  1  0
 25 43  1  0
 25 44  1  0
M  CHG  1   9   1
M  END
>  <UniqueID>  (15) 
15

>  <SMILES>  (15) 
CCOc1cc(-c2c[nH+]c(-c3ccccc3F)o2)cc(OC)c1OC

>  <Energy>  (15) 
81.11476994565646

>  <Genealogy>  (15) 
CCOc1cc(-c2c[nH+]c(-c3ccccc3F)o2)cc(OC)c1OC (protonated)
CCOc1cc(-c2c[nH+]c(-c3ccccc3F)o2)cc(OC)c1OC (3D coordinates assigned)
CCOc1cc(-c2c[nH+]c(-c3ccccc3F)o2)cc(OC)c1OC (optimized conformer: 81.11476994565646 kcal/mol)

>  <smiles>  (15) 
CCOc1cc(-c2cnc(-c3ccccc3F)o2)cc(OC)c1OC

>  <score_type>  (15) 
oracle

>  <origin>  (15) 
adg

>  <m_score__min__energy>  (15) 
-4.9500000000000002

>  <m_primary>  (15) 
energy

$$$$
15:0
     RDKit          3D

 49 51  0  0  0  0  0  0  0  0999 V2000
   56.6989   24.0229   45.4214 H   0  0  0  0  0  0  0  0  0  0  0  0
   57.0780   25.0520   45.3360 C   0  0  0  0  0  0  0  0  0  0  0  0
   56.9630   25.9310   46.4140 C   0  0  0  0  0  0  0  0  0  0  0  0
   56.4885   25.5945   47.3476 H   0  0  0  0  0  0  0  0  0  0  0  0
   57.4490   27.2380   46.3110 C   0  0  0  0  0  0  0  0  0  0  0  0
   57.3462   27.9274   47.1619 H   0  0  0  0  0  0  0  0  0  0  0  0
   58.0690   27.6780   45.1260 C   0  0  0  0  0  0  0  0  0  0  0  0
   58.5700   29.0780   45.0170 C   0  0  0  0  0  0  0  0  0  0  0  0
   59.3310   29.6290   46.1080 N   0  0  0  0  0  0  0  0  0  0  0  0
   60.7900   29.7080   46.0260 C   0  0  0  0  0  0  0  0  0  0  0  0
   61.0945   29.8632   44.9804 H   0  0  0  0  0  0  0  0  0  0  0  0
   61.2382   28.7727   46.3926 H   0  0  0  0  0  0  0  0  0  0  0  0
   61.2640   30.8850   46.8810 C   0  0  0  0  0  0  0  0  0  0  0  0
   60.8254   31.8112   46.4812 H   0  0  0  0  0  0  0  0  0  0  0  0
   62.3630   30.9085   46.8394 H   0  0  0  0  0  0  0  0  0  0  0  0
   60.8680   30.7460   48.3050 N   0  0  0  0  0  0  0  0  0  0  0  0
   60.7370   32.0670   48.9570 C   0  0  0  0  0  0  0  0  0  0  0  0
   61.1542   32.0119   49.9733 H   0  0  0  0  0  0  0  0  0  0  0  0
   59.6719   32.3390   48.9981 H   0  0  0  0  0  0  0  0  0  0  0  0
   61.4880   33.1330   48.1630 C   0  0  0  0  0  0  0  0  0  0  0  0
   61.9790   33.8300   48.8581 H   0  0  0  0  0  0  0  0  0  0  0  0
   62.2473   32.6513   47.5294 H   0  0  0  0  0  0  0  0  0  0  0  0
   60.7788   33.6858   47.5294 H   0  0  0  0  0  0  0  0  0  0  0  0
   59.6840   29.8760   48.5450 C   0  0  0  0  0  0  0  0  0  0  0  0
   59.1781   30.2200   49.4592 H   0  0  0  0  0  0  0  0  0  0  0  0
   60.0527   28.8438   48.6373 H   0  0  0  0  0  0  0  0  0  0  0  0
   58.6700   29.8940   47.3910 C   0  0  0  0  0  0  0  0  0  0  0  0
   58.1882   30.8821   47.3505 H   0  0  0  0  0  0  0  0  0  0  0  0
   57.9213   29.1081   47.5692 H   0  0  0  0  0  0  0  0  0  0  0  0
   58.3050   29.7940   43.9550 N   0  0  0  0  0  0  0  0  0  0  0  0
   58.7410   29.5510   43.0380 H   0  0  0  0  0  0  0  0  0  0  0  0
   57.2210   31.1540   43.9220 S   0  0  0  0  0  0  0  0  0  0  0  0
   57.0220   31.5790   42.4940 O   0  0  0  0  0  0  0  0  0  0  0  0
   55.8860   30.7570   44.4870 O   0  0  0  0  0  0  0  0  0  0  0  0
   57.8970   32.5060   44.8210 C   0  0  0  0  0  0  0  0  0  0  0  0
   57.6290   32.6550   46.1900 C   0  0  0  0  0  0  0  0  0  0  0  0
   56.9821   31.9297   46.7053 H   0  0  0  0  0  0  0  0  0  0  0  0
   58.1830   33.7240   46.9000 C   0  0  0  0  0  0  0  0  0  0  0  0
   57.9771   33.8344   47.9749 H   0  0  0  0  0  0  0  0  0  0  0  0
   58.9980   34.6530   46.2470 C   0  0  0  0  0  0  0  0  0  0  0  0
   59.4353   35.4917   46.8085 H   0  0  0  0  0  0  0  0  0  0  0  0
   59.2570   34.5160   44.8810 C   0  0  0  0  0  0  0  0  0  0  0  0
   59.8941   35.2503   44.3663 H   0  0  0  0  0  0  0  0  0  0  0  0
   58.7070   33.4460   44.1670 C   0  0  0  0  0  0  0  0  0  0  0  0
   58.9101   33.3417   43.0910 H   0  0  0  0  0  0  0  0  0  0  0  0
   58.1640   26.7860   44.0390 C   0  0  0  0  0  0  0  0  0  0  0  0
   58.6260   27.1188   43.0978 H   0  0  0  0  0  0  0  0  0  0  0  0
   57.6750   25.4810   44.1490 C   0  0  0  0  0  0  0  0  0  0  0  0
   57.7608   24.7898   43.2976 H   0  0  0  0  0  0  0  0  0  0  0  0
  1  2  1  0
  2  3  2  0
  3  4  1  0
  3  5  1  0
  5  6  1  0
  5  7  2  0
  7  8  1  0
  8  9  1  0
  9 10  1  0
 10 11  1  0
 10 12  1  0
 10 13  1  0
 13 14  1  0
 13 15  1  0
 13 16  1  0
 16 17  1  0
 17 18  1  0
 17 19  1  0
 17 20  1  0
 20 21  1  0
 20 22  1  0
 20 23  1  0
 16 24  1  0
 24 25  1  0
 24 26  1  0
 24 27  1  0
 27 28  1  0
 27 29  1  0
  8 30  2  0
 30 31  1  0
 30 32  1  0
 32 33  2  0
 32 34  2  0
 32 35  1  0
 35 36  2  0
 36 37  1  0
 36 38  1  0
 38 39  1  0
 38 40  2  0
 40 41  1  0
 40 42  1  0
 42 43  1  0
 42 44  2  0
 44 45  1  0
  7 46  1  0
 46 47  1  0
 46 48  2  0
 48 49  1  0
 48  2  1  0
 27  9  1  0
 44 35  1  0
M  CHG  1  30   1
M  END
>  <UniqueID>  (16) 
16

>  <SMILES>  (16) 
CCN1CCN(/C(=[NH+]\S(=O)(=O)c2ccccc2)c2ccccc2)CC1

>  <Energy>  (16) 
66.28264226475297

>  <Genealogy>  (16) 
CCN1CCN(C(=[NH+]S(=O)(=O)c2ccccc2)c2ccccc2)CC1 (protonated)
CCN1CCN(/C(=[NH+]\S(=O)(=O)c2ccccc2)c2ccccc2)CC1 (cis-trans isomerization)
CCN1CCN(/C(=[NH+]\S(=O)(=O)c2ccccc2)c2ccccc2)CC1 (3D coordinates assigned)
CCN1CCN(/C(=[NH+]\S(=O)(=O)c2ccccc2)c2ccccc2)CC1 (nonaromatic ring conformer: 66.28264226475297 kcal/mol)

>  <smiles>  (16) 
CCN1CCN(C(=NS(=O)(=O)c2ccccc2)c2ccccc2)CC1

>  <score_type>  (16) 
oracle

>  <origin>  (16) 
adg

>  <m_score__min__energy>  (16) 
-7.3300000000000001

>  <m_primary>  (16) 
energy

$$$$
16:0
     RDKit          3D

 42 43  0  0  0  0  0  0  0  0999 V2000
   61.3210   33.8370   46.8350 C   0  0  0  0  0  0  0  0  0  0  0  0
   60.1510   33.8900   47.7400 N   0  0  0  0  0  0  0  0  0  0  0  0
   59.9300   32.5330   48.2860 C   0  0  0  0  0  0  0  0  0  0  0  0
   58.9480   34.4190   47.0240 C   0  0  0  0  0  0  0  0  0  0  0  0
   59.2810   35.0020   45.6140 C   0  0  0  0  0  0  0  0  0  0  0  0
   59.2090   33.9230   44.5310 C   0  0  0  0  0  0  0  0  0  0  0  0
   57.8320   33.3930   44.3960 N   0  0  0  0  0  0  0  0  0  0  0  0
   57.7490   32.1310   43.6240 C   0  0  0  0  0  0  0  0  0  0  0  0
   56.6060   31.1900   44.0480 C   0  0  0  0  0  0  0  0  0  0  0  0
   56.9630   30.4690   45.2240 O   0  0  0  0  0  0  0  0  0  0  0  0
   58.0940   29.6500   45.3430 C   0  0  0  0  0  0  0  0  0  0  0  0
   59.2590   30.2010   45.8910 C   0  0  0  0  0  0  0  0  0  0  0  0
   60.4160   29.4270   46.0240 C   0  0  0  0  0  0  0  0  0  0  0  0
   60.4150   28.0930   45.6090 C   0  0  0  0  0  0  0  0  0  0  0  0
   59.2590   27.5310   45.0620 C   0  0  0  0  0  0  0  0  0  0  0  0
   58.0990   28.3030   44.9280 C   0  0  0  0  0  0  0  0  0  0  0  0
   57.0070   33.4430   45.6260 C   0  0  0  0  0  0  0  0  0  0  0  0
   57.8580   33.3080   46.8970 C   0  0  0  0  0  0  0  0  0  0  0  0
   62.2443   33.7952   47.4314 H   0  0  0  0  0  0  0  0  0  0  0  0
   61.2535   32.9410   46.2005 H   0  0  0  0  0  0  0  0  0  0  0  0
   61.3347   34.7354   46.2005 H   0  0  0  0  0  0  0  0  0  0  0  0
   59.9368   32.5745   49.3852 H   0  0  0  0  0  0  0  0  0  0  0  0
   58.9580   32.1521   47.9394 H   0  0  0  0  0  0  0  0  0  0  0  0
   60.7309   31.8634   47.9394 H   0  0  0  0  0  0  0  0  0  0  0  0
   58.5641   35.2511   47.6325 H   0  0  0  0  0  0  0  0  0  0  0  0
   58.5586   35.7966   45.3758 H   0  0  0  0  0  0  0  0  0  0  0  0
   60.3062   35.4000   45.6378 H   0  0  0  0  0  0  0  0  0  0  0  0
   59.5226   34.3571   43.5701 H   0  0  0  0  0  0  0  0  0  0  0  0
   59.8750   33.0957   44.8176 H   0  0  0  0  0  0  0  0  0  0  0  0
   57.6064   32.3869   42.5637 H   0  0  0  0  0  0  0  0  0  0  0  0
   58.6858   31.5875   43.8164 H   0  0  0  0  0  0  0  0  0  0  0  0
   55.7028   31.7851   44.2485 H   0  0  0  0  0  0  0  0  0  0  0  0
   56.4155   30.4733   43.2356 H   0  0  0  0  0  0  0  0  0  0  0  0
   59.2640   31.2508   46.2194 H   0  0  0  0  0  0  0  0  0  0  0  0
   61.3266   29.8683   46.4552 H   0  0  0  0  0  0  0  0  0  0  0  0
   61.3255   27.4845   45.7131 H   0  0  0  0  0  0  0  0  0  0  0  0
   59.2602   26.4804   44.7361 H   0  0  0  0  0  0  0  0  0  0  0  0
   57.1897   27.8576   44.4981 H   0  0  0  0  0  0  0  0  0  0  0  0
   56.4735   34.4045   45.6566 H   0  0  0  0  0  0  0  0  0  0  0  0
   56.3038   32.5976   45.5973 H   0  0  0  0  0  0  0  0  0  0  0  0
   57.1934   33.3677   47.7715 H   0  0  0  0  0  0  0  0  0  0  0  0
   58.3795   32.3410   46.8419 H   0  0  0  0  0  0  0  0  0  0  0  0
  1  2  1  0
  2  3  1  0
  2  4  1  0
  4  5  1  0
  5  6  1  0
  6  7  1  0
  7  8  1  0
  8  9  1  0
  9 10  1  0
 10 11  1  0
 11 12  2  0
 12 13  1  0
 13 14  2  0
 14 15  1  0
 15 16  2  0
  7 17  1  0
 17 18  1  0
 18  4  1  0
 16 11  1  0
  1 19  1  0
  1 20  1  0
  1 21  1  0
  3 22  1  0
  3 23  1  0
  3 24  1  0
  4 25  1  0
  5 26  1  0
  5 27  1  0
  6 28  1  0
  6 29  1  0
  8 30  1  0
  8 31  1  0
  9 32  1  0
  9 33  1  0
 12 34  1  0
 13 35  1  0
 14 36  1  0
 15 37  1  0
 16 38  1  0
 17 39  1  0
 17 40  1  0
 18 41  1  0
 18 42  1  0
M  END
>  <UniqueID>  (17) 
17

>  <SMILES>  (17) 
CN(C)C1CCN(CCOc2ccccc2)CC1

>  <Energy>  (17) 
58.04059037467855

>  <Genealogy>  (17) 
CN(C)C1CCN(CCOc2ccccc2)CC1 (3D coordinates assigned)
CN(C)C1CCN(CCOc2ccccc2)CC1 (nonaromatic ring conformer: 58.04059037467855 kcal/mol)

>  <smiles>  (17) 
CN(C)C1CCN(CCOc2ccccc2)CC1

>  <score_type>  (17) 
oracle

>  <origin>  (17) 
adg

>  <m_score__min__energy>  (17) 
-6.5899999999999999

>  <m_primary>  (17) 
energy

$$$$
17:0
     RDKit          3D

 50 51  0  0  0  0  0  0  0  0999 V2000
   59.2150   31.0230   49.1260 C   0  0  0  0  0  0  0  0  0  0  0  0
   60.2750   30.1730   49.8150 C   0  0  0  0  0  0  0  0  0  0  0  0
   60.9810   29.3760   48.8640 O   0  0  0  0  0  0  0  0  0  0  0  0
   60.4300   28.2510   48.2350 C   0  0  0  0  0  0  0  0  0  0  0  0
   60.6830   27.0930   48.6710 O   0  0  0  0  0  0  0  0  0  0  0  0
   59.5570   28.4240   47.0530 C   0  0  0  0  0  0  0  0  0  0  0  0
   58.2230   27.9820   47.0730 C   0  0  0  0  0  0  0  0  0  0  0  0
   57.4010   28.1510   45.9550 C   0  0  0  0  0  0  0  0  0  0  0  0
   57.8950   28.7740   44.7920 C   0  0  0  0  0  0  0  0  0  0  0  0
   57.0740   28.9760   43.6250 N   0  0  0  0  0  0  0  0  0  0  0  0
   56.7600   30.2860   43.0510 C   0  0  0  0  0  0  0  0  0  0  0  0
   57.0100   31.3430   44.0360 C   0  0  0  0  0  0  0  0  0  0  0  0
   57.1970   32.2040   44.8580 C   0  0  0  0  0  0  0  0  0  0  0  0
   57.4500   33.2430   45.8610 C   0  0  0  0  0  0  0  0  0  0  0  0
   58.4270   34.2890   45.3040 C   0  0  0  0  0  0  0  0  0  0  0  0
   59.7160   34.4030   46.1390 C   0  0  0  0  0  0  0  0  0  0  0  0
   60.3380   33.0500   46.5320 C   0  0  0  0  0  0  0  0  0  0  0  0
   61.5580   33.2100   47.4040 C   0  0  0  0  0  0  0  0  0  0  0  0
   61.4740   33.8890   48.6280 C   0  0  0  0  0  0  0  0  0  0  0  0
   62.6010   34.0050   49.4410 C   0  0  0  0  0  0  0  0  0  0  0  0
   63.8070   33.4340   49.0250 C   0  0  0  0  0  0  0  0  0  0  0  0
   63.8770   32.7720   47.8380 N   0  0  0  0  0  0  0  0  0  0  0  0
   62.7880   32.6470   47.0280 C   0  0  0  0  0  0  0  0  0  0  0  0
   59.2290   29.2080   44.7730 C   0  0  0  0  0  0  0  0  0  0  0  0
   60.0510   29.0380   45.8900 C   0  0  0  0  0  0  0  0  0  0  0  0
   58.5939   31.5210   49.8851 H   0  0  0  0  0  0  0  0  0  0  0  0
   59.7047   31.7816   48.4977 H   0  0  0  0  0  0  0  0  0  0  0  0
   58.5810   30.3802   48.4977 H   0  0  0  0  0  0  0  0  0  0  0  0
   60.9870   30.8332   50.3320 H   0  0  0  0  0  0  0  0  0  0  0  0
   59.7792   29.5062   50.5358 H   0  0  0  0  0  0  0  0  0  0  0  0
   57.8222   27.4989   47.9763 H   0  0  0  0  0  0  0  0  0  0  0  0
   56.3606   27.7949   45.9836 H   0  0  0  0  0  0  0  0  0  0  0  0
   56.6730   28.1370   43.1450 H   0  0  0  0  0  0  0  0  0  0  0  0
   57.3919   30.4563   42.1669 H   0  0  0  0  0  0  0  0  0  0  0  0
   55.6985   30.3069   42.7633 H   0  0  0  0  0  0  0  0  0  0  0  0
   56.5013   33.7345   46.1227 H   0  0  0  0  0  0  0  0  0  0  0  0
   57.8912   32.7793   46.7557 H   0  0  0  0  0  0  0  0  0  0  0  0
   58.6975   34.0056   44.2762 H   0  0  0  0  0  0  0  0  0  0  0  0
   57.9223   35.2658   45.3374 H   0  0  0  0  0  0  0  0  0  0  0  0
   60.4575   34.9658   45.5530 H   0  0  0  0  0  0  0  0  0  0  0  0
   59.4403   34.9074   47.0769 H   0  0  0  0  0  0  0  0  0  0  0  0
   59.5870   32.4617   47.0796 H   0  0  0  0  0  0  0  0  0  0  0  0
   60.6508   32.5433   45.6071 H   0  0  0  0  0  0  0  0  0  0  0  0
   60.5184   34.3305   48.9471 H   0  0  0  0  0  0  0  0  0  0  0  0
   62.5415   34.5405   50.4000 H   0  0  0  0  0  0  0  0  0  0  0  0
   64.7020   33.5199   49.6587 H   0  0  0  0  0  0  0  0  0  0  0  0
   64.7840   32.3470   47.5430 H   0  0  0  0  0  0  0  0  0  0  0  0
   62.8731   32.1028   46.0758 H   0  0  0  0  0  0  0  0  0  0  0  0
   59.6322   29.6874   43.8688 H   0  0  0  0  0  0  0  0  0  0  0  0
   61.0934   29.3878   45.8585 H   0  0  0  0  0  0  0  0  0  0  0  0
  1  2  1  0
  2  3  1  0
  3  4  1  0
  4  5  2  0
  4  6  1  0
  6  7  2  0
  7  8  1  0
  8  9  2  0
  9 10  1  0
 10 11  1  0
 11 12  1  0
 12 13  3  0
 13 14  1  0
 14 15  1  0
 15 16  1  0
 16 17  1  0
 17 18  1  0
 18 19  2  0
 19 20  1  0
 20 21  2  0
 21 22  1  0
 22 23  2  0
  9 24  1  0
 24 25  2  0
 25  6  1  0
 23 18  1  0
  1 26  1  0
  1 27  1  0
  1 28  1  0
  2 29  1  0
  2 30  1  0
  7 31  1  0
  8 32  1  0
 10 33  1  0
 11 34  1  0
 11 35  1  0
 14 36  1  0
 14 37  1  0
 15 38  1  0
 15 39  1  0
 16 40  1  0
 16 41  1  0
 17 42  1  0
 17 43  1  0
 19 44  1  0
 20 45  1  0
 21 46  1  0
 22 47  1  0
 23 48  1  0
 24 49  1  0
 25 50  1  0
M  CHG  1  22   1
M  END
>  <UniqueID>  (18) 
18

>  <SMILES>  (18) 
CCOC(=O)c1ccc(NCC#CCCCCc2ccc[nH+]c2)cc1

>  <Energy>  (18) 
34.41664614503684

>  <Genealogy>  (18) 
CCOC(=O)c1ccc(NCC#CCCCCc2ccc[nH+]c2)cc1 (protonated)
CCOC(=O)c1ccc(NCC#CCCCCc2ccc[nH+]c2)cc1 (3D coordinates assigned)
CCOC(=O)c1ccc(NCC#CCCCCc2ccc[nH+]c2)cc1 (optimized conformer: 34.41664614503684 kcal/mol)

>  <smiles>  (18) 
CCOC(=O)c1ccc(NCC#CCCCCc2cccnc2)cc1

>  <score_type>  (18) 
oracle

>  <origin>  (18) 
adg

>  <m_score__min__energy>  (18) 
-6.0700000000000003

>  <m_primary>  (18) 
energy

$$$$
18:0
     RDKit          3D

 50 53  0  0  0  0  0  0  0  0999 V2000
   58.0590   32.1740   41.9090 C   0  0  0  0  0  0  0  0  0  0  0  0
   56.9870   31.2020   42.3850 C   0  0  0  0  0  0  0  0  0  0  0  0
   57.5330   30.2650   43.3130 O   0  0  0  0  0  0  0  0  0  0  0  0
   57.3350   30.3450   44.6970 C   0  0  0  0  0  0  0  0  0  0  0  0
   56.2850   29.8780   45.2190 O   0  0  0  0  0  0  0  0  0  0  0  0
   58.3860   30.9240   45.5630 C   0  0  0  0  0  0  0  0  0  0  0  0
   59.1440   30.0490   46.3550 C   0  0  0  0  0  0  0  0  0  0  0  0
   60.1770   30.5100   47.1000 N   0  0  0  0  0  0  0  0  0  0  0  0
   60.5250   31.8220   47.1330 C   0  0  0  0  0  0  0  0  0  0  0  0
   61.6530   32.2210   47.9270 N   0  0  0  0  0  0  0  0  0  0  0  0
   62.9840   32.1600   47.3270 C   0  0  0  0  0  0  0  0  0  0  0  0
   63.9300   33.1670   47.9910 C   0  0  0  0  0  0  0  0  0  0  0  0
   63.8460   33.2180   49.4730 N   0  0  0  0  0  0  0  0  0  0  0  0
   64.7990   32.3540   50.1570 C   0  0  0  0  0  0  0  0  0  0  0  0
   64.4460   31.1760   50.4440 O   0  0  0  0  0  0  0  0  0  0  0  0
   66.1690   32.7620   50.5440 C   0  0  0  0  0  0  0  0  0  0  0  0
   67.1440   31.9050   51.0240 C   0  0  0  0  0  0  0  0  0  0  0  0
   68.2550   32.6850   51.2560 C   0  0  0  0  0  0  0  0  0  0  0  0
   67.8970   33.9680   50.9060 C   0  0  0  0  0  0  0  0  0  0  0  0
   66.6530   33.9790   50.4870 O   0  0  0  0  0  0  0  0  0  0  0  0
   62.4760   33.1780   50.0390 C   0  0  0  0  0  0  0  0  0  0  0  0
   61.5430   32.1570   49.3810 C   0  0  0  0  0  0  0  0  0  0  0  0
   59.7730   32.7630   46.4000 C   0  0  0  0  0  0  0  0  0  0  0  0
   60.0640   34.1400   46.4680 C   0  0  0  0  0  0  0  0  0  0  0  0
   59.2900   35.0610   45.7620 C   0  0  0  0  0  0  0  0  0  0  0  0
   58.2080   34.6280   45.0010 C   0  0  0  0  0  0  0  0  0  0  0  0
   57.8960   33.2690   44.9290 C   0  0  0  0  0  0  0  0  0  0  0  0
   58.6820   32.3110   45.6080 C   0  0  0  0  0  0  0  0  0  0  0  0
   58.5571   32.6256   42.7796 H   0  0  0  0  0  0  0  0  0  0  0  0
   58.8003   31.6338   41.3018 H   0  0  0  0  0  0  0  0  0  0  0  0
   57.5937   32.9645   41.3018 H   0  0  0  0  0  0  0  0  0  0  0  0
   56.1793   31.7662   42.8742 H   0  0  0  0  0  0  0  0  0  0  0  0
   56.5960   30.6527   41.5159 H   0  0  0  0  0  0  0  0  0  0  0  0
   58.8969   28.9772   46.3712 H   0  0  0  0  0  0  0  0  0  0  0  0
   63.3904   31.1458   47.4546 H   0  0  0  0  0  0  0  0  0  0  0  0
   62.8997   32.4086   46.2588 H   0  0  0  0  0  0  0  0  0  0  0  0
   64.9611   32.9005   47.7158 H   0  0  0  0  0  0  0  0  0  0  0  0
   63.6270   34.1608   47.6296 H   0  0  0  0  0  0  0  0  0  0  0  0
   64.1750   34.1880   49.7010 H   0  0  0  0  0  0  0  0  0  0  0  0
   67.0505   30.8212   51.1870 H   0  0  0  0  0  0  0  0  0  0  0  0
   69.2295   32.3514   51.6421 H   0  0  0  0  0  0  0  0  0  0  0  0
   68.5531   34.8487   50.9681 H   0  0  0  0  0  0  0  0  0  0  0  0
   62.5538   32.9322   51.1084 H   0  0  0  0  0  0  0  0  0  0  0  0
   62.0338   34.1682   49.8545 H   0  0  0  0  0  0  0  0  0  0  0  0
   61.8164   31.1468   49.7199 H   0  0  0  0  0  0  0  0  0  0  0  0
   60.5066   32.3879   49.6682 H   0  0  0  0  0  0  0  0  0  0  0  0
   60.9068   34.4909   47.0817 H   0  0  0  0  0  0  0  0  0  0  0  0
   59.5354   36.1323   45.8068 H   0  0  0  0  0  0  0  0  0  0  0  0
   57.5958   35.3599   44.4537 H   0  0  0  0  0  0  0  0  0  0  0  0
   57.0289   32.9405   44.3372 H   0  0  0  0  0  0  0  0  0  0  0  0
  1  2  1  0
  2  3  1  0
  3  4  1  0
  4  5  2  0
  4  6  1  0
  6  7  2  0
  7  8  1  0
  8  9  2  0
  9 10  1  0
 10 11  1  0
 11 12  1  0
 12 13  1  0
 13 14  1  0
 14 15  2  0
 14 16  1  0
 16 17  2  0
 17 18  1  0
 18 19  2  0
 19 20  1  0
 13 21  1  0
 21 22  1  0
  9 23  1  0
 23 24  2  0
 24 25  1  0
 25 26  2  0
 26 27  1  0
 27 28  2  0
 28  6  1  0
 22 10  1  0
 28 23  1  0
 20 16  1  0
  1 29  1  0
  1 30  1  0
  1 31  1  0
  2 32  1  0
  2 33  1  0
  7 34  1  0
 11 35  1  0
 11 36  1  0
 12 37  1  0
 12 38  1  0
 13 39  1  0
 17 40  1  0
 18 41  1  0
 19 42  1  0
 21 43  1  0
 21 44  1  0
 22 45  1  0
 22 46  1  0
 24 47  1  0
 25 48  1  0
 26 49  1  0
 27 50  1  0
M  CHG  1  13   1
M  END
>  <UniqueID>  (19) 
19

>  <SMILES>  (19) 
CCOC(=O)c1cnc(N2CC[NH+](C(=O)c3ccco3)CC2)c2ccccc12

>  <Energy>  (19) 
104.21672352649638

>  <Genealogy>  (19) 
CCOC(=O)c1cnc(N2CC[NH+](C(=O)c3ccco3)CC2)c2ccccc12 (protonated)
CCOC(=O)c1cnc(N2CC[NH+](C(=O)c3ccco3)CC2)c2ccccc12 (3D coordinates assigned)
CCOC(=O)c1cnc(N2CC[NH+](C(=O)c3ccco3)CC2)c2ccccc12 (nonaromatic ring conformer: 104.21672352649638 kcal/mol)

>  <smiles>  (19) 
CCOC(=O)c1cnc(N2CCN(C(=O)c3ccco3)CC2)c2ccccc12

>  <score_type>  (19) 
oracle

>  <origin>  (19) 
adg

>  <m_score__min__energy>  (19) 
-6.6100000000000003

>  <m_primary>  (19) 
energy

$$$$
19:0
     RDKit          3D

 52 56  0  0  0  0  0  0  0  0999 V2000
   58.5700   32.3670   49.7160 C   0  0  0  0  0  0  0  0  0  0  0  0
   59.3690   33.5190   49.4640 O   0  0  0  0  0  0  0  0  0  0  0  0
   60.6800   33.4840   48.9620 C   0  0  0  0  0  0  0  0  0  0  0  0
   61.8070   33.5320   49.8040 C   0  0  0  0  0  0  0  0  0  0  0  0
   63.1070   33.4910   49.2690 C   0  0  0  0  0  0  0  0  0  0  0  0
   64.2820   33.5410   50.1740 C   0  0  0  0  0  0  0  0  0  0  0  0
   65.4410   32.8020   49.8740 C   0  0  0  0  0  0  0  0  0  0  0  0
   66.5520   32.8550   50.7210 C   0  0  0  0  0  0  0  0  0  0  0  0
   66.5190   33.6480   51.8720 C   0  0  0  0  0  0  0  0  0  0  0  0
   67.6000   33.6970   52.6900 F   0  0  0  0  0  0  0  0  0  0  0  0
   65.3740   34.3910   52.1760 C   0  0  0  0  0  0  0  0  0  0  0  0
   65.3440   35.1660   53.2890 F   0  0  0  0  0  0  0  0  0  0  0  0
   64.2610   34.3400   51.3310 C   0  0  0  0  0  0  0  0  0  0  0  0
   63.2720   33.4070   47.8740 C   0  0  0  0  0  0  0  0  0  0  0  0
   64.5110   33.4090   47.3190 F   0  0  0  0  0  0  0  0  0  0  0  0
   62.1560   33.3590   47.0370 C   0  0  0  0  0  0  0  0  0  0  0  0
   60.8640   33.3980   47.5730 C   0  0  0  0  0  0  0  0  0  0  0  0
   59.7240   33.3530   46.6910 N   0  0  0  0  0  0  0  0  0  0  0  0
   59.1270   34.5360   46.3340 C   0  0  0  0  0  0  0  0  0  0  0  0
   59.5640   35.6350   46.7750 O   0  0  0  0  0  0  0  0  0  0  0  0
   58.0290   34.5460   45.4720 C   0  0  0  0  0  0  0  0  0  0  0  0
   57.5340   33.3500   44.9670 C   0  0  0  0  0  0  0  0  0  0  0  0
   58.1340   32.1410   45.3260 C   0  0  0  0  0  0  0  0  0  0  0  0
   57.6370   30.9290   44.8240 C   0  0  0  0  0  0  0  0  0  0  0  0
   58.2290   29.7170   45.1910 C   0  0  0  0  0  0  0  0  0  0  0  0
   57.5820   28.2030   44.5660 S   0  0  0  0  0  0  0  0  0  0  0  0
   58.6590   27.1600   44.4780 O   0  0  0  0  0  0  0  0  0  0  0  0
   57.0200   28.4440   43.1930 O   0  0  0  0  0  0  0  0  0  0  0  0
   56.3160   27.6250   45.6040 N   0  0  0  0  0  0  0  0  0  0  0  0
   56.0340   26.3720   45.7840 C   0  0  0  0  0  0  0  0  0  0  0  0
   54.7670   25.9070   45.7370 N   0  0  0  0  0  0  0  0  0  0  0  0
   54.7180   24.5660   45.9600 C   0  0  0  0  0  0  0  0  0  0  0  0
   55.9480   23.9560   46.1840 C   0  0  0  0  0  0  0  0  0  0  0  0
   57.1410   25.1390   46.1010 S   0  0  0  0  0  0  0  0  0  0  0  0
   59.3250   29.7150   46.0600 C   0  0  0  0  0  0  0  0  0  0  0  0
   59.8280   30.9150   46.5660 C   0  0  0  0  0  0  0  0  0  0  0  0
   59.2460   32.1520   46.2070 C   0  0  0  0  0  0  0  0  0  0  0  0
   58.4689   32.2212   50.8016 H   0  0  0  0  0  0  0  0  0  0  0  0
   57.5740   32.5069   49.2705 H   0  0  0  0  0  0  0  0  0  0  0  0
   59.0501   31.4832   49.2705 H   0  0  0  0  0  0  0  0  0  0  0  0
   61.6693   33.6024   50.8931 H   0  0  0  0  0  0  0  0  0  0  0  0
   65.4732   32.1790   48.9680 H   0  0  0  0  0  0  0  0  0  0  0  0
   67.4535   32.2719   50.4815 H   0  0  0  0  0  0  0  0  0  0  0  0
   63.3636   34.9284   51.5728 H   0  0  0  0  0  0  0  0  0  0  0  0
   62.2932   33.2900   45.9478 H   0  0  0  0  0  0  0  0  0  0  0  0
   57.5564   35.4993   45.1930 H   0  0  0  0  0  0  0  0  0  0  0  0
   56.6707   33.3553   44.2853 H   0  0  0  0  0  0  0  0  0  0  0  0
   56.7771   30.9324   44.1381 H   0  0  0  0  0  0  0  0  0  0  0  0
   53.7726   24.0037   45.9630 H   0  0  0  0  0  0  0  0  0  0  0  0
   56.1119   22.8863   46.3811 H   0  0  0  0  0  0  0  0  0  0  0  0
   59.7936   28.7619   46.3465 H   0  0  0  0  0  0  0  0  0  0  0  0
   60.6875   30.8976   47.2523 H   0  0  0  0  0  0  0  0  0  0  0  0
  1  2  1  0
  2  3  1  0
  3  4  2  0
  4  5  1  0
  5  6  1  0
  6  7  2  0
  7  8  1  0
  8  9  2  0
  9 10  1  0
  9 11  1  0
 11 12  1  0
 11 13  2  0
  5 14  2  0
 14 15  1  0
 14 16  1  0
 16 17  2  0
 17 18  1  0
 18 19  1  0
 19 20  2  0
 19 21  1  0
 21 22  2  0
 22 23  1  0
 23 24  2  0
 24 25  1  0
 25 26  1  0
 26 27  2  0
 26 28  2  0
 26 29  1  0
 29 30  2  3
 30 31  1  0
 31 32  1  0
 32 33  2  0
 33 34  1  0
 25 35  2  0
 35 36  1  0
 36 37  2  0
 17  3  1  0
 37 18  1  0
 13  6  1  0
 37 23  1  0
 34 30  1  0
  1 38  1  0
  1 39  1  0
  1 40  1  0
  4 41  1  0
  7 42  1  0
  8 43  1  0
 13 44  1  0
 16 45  1  0
 21 46  1  0
 22 47  1  0
 24 48  1  0
 32 49  1  0
 33 50  1  0
 35 51  1  0
 36 52  1  0
M  CHG  1  31  -1
M  END
>  <UniqueID>  (20) 
20

>  <SMILES>  (20) 
COc1cc(-c2ccc(F)c(F)c2)c(F)cc1-n1c(=O)ccc2cc(S(=O)(=O)N=c3[n-]ccs3)ccc21

>  <Energy>  (20) 
112.9582660303115

>  <Genealogy>  (20) 
COc1cc(-c2ccc(F)c(F)c2)c(F)cc1-n1c(=O)ccc2cc(S(=O)(=O)N=c3[n-]ccs3)ccc21 (protonated)
COc1cc(-c2ccc(F)c(F)c2)c(F)cc1-n1c(=O)ccc2cc(S(=O)(=O)N=c3[n-]ccs3)ccc21 (3D coordinates assigned)
COc1cc(-c2ccc(F)c(F)c2)c(F)cc1-n1c(=O)ccc2cc(S(=O)(=O)N=c3[n-]ccs3)ccc21 (optimized conformer: 112.9582660303115 kcal/mol)

>  <smiles>  (20) 
COc1cc(-c2ccc(F)c(F)c2)c(F)cc1-n1c(=O)ccc2cc(S(=O)(=O)N=c3[nH]ccs3)ccc21

>  <score_type>  (20) 
oracle

>  <origin>  (20) 
adg

>  <m_score__min__energy>  (20) 
-12.52

>  <m_primary>  (20) 
energy

$$$$
20:0
     RDKit          3D

 53 55  0  0  0  0  0  0  0  0999 V2000
   55.6160   30.0900   44.1210 C   0  0  0  0  0  0  0  0  0  0  0  0
   55.5750   29.0300   45.0700 O   0  0  0  0  0  0  0  0  0  0  0  0
   56.6990   28.3230   45.5250 C   0  0  0  0  0  0  0  0  0  0  0  0
   57.9570   28.9350   45.6660 C   0  0  0  0  0  0  0  0  0  0  0  0
   59.0620   28.2230   46.1680 C   0  0  0  0  0  0  0  0  0  0  0  0
   60.3500   28.9840   46.4380 C   0  0  0  0  0  0  0  0  0  0  0  0
   60.6920   29.1580   47.8780 N   0  0  0  0  0  0  0  0  0  0  0  0
   59.5230   29.1390   48.7940 C   0  0  0  0  0  0  0  0  0  0  0  0
   58.8820   30.5230   49.0430 C   0  0  0  0  0  0  0  0  0  0  0  0
   59.5720   31.5800   48.2930 N   0  0  0  0  0  0  0  0  0  0  0  0
   58.9370   32.9100   48.4290 C   0  0  0  0  0  0  0  0  0  0  0  0
   58.6200   33.5760   47.1070 C   0  0  0  0  0  0  0  0  0  0  0  0
   59.5740   34.3940   46.4770 C   0  0  0  0  0  0  0  0  0  0  0  0
   59.2810   35.0050   45.2540 C   0  0  0  0  0  0  0  0  0  0  0  0
   58.0330   34.8120   44.6550 C   0  0  0  0  0  0  0  0  0  0  0  0
   57.0750   34.0090   45.2800 C   0  0  0  0  0  0  0  0  0  0  0  0
   57.3650   33.3950   46.5020 C   0  0  0  0  0  0  0  0  0  0  0  0
   61.0070   31.5810   48.5980 C   0  0  0  0  0  0  0  0  0  0  0  0
   61.6580   30.2560   48.1560 C   0  0  0  0  0  0  0  0  0  0  0  0
   58.9130   26.8410   46.4520 C   0  0  0  0  0  0  0  0  0  0  0  0
   60.0190   26.0280   46.8740 N   0  0  0  0  0  0  0  0  0  0  0  0
   60.2200   24.9210   46.3340 O   0  0  0  0  0  0  0  0  0  0  0  0
   60.6490   26.3050   48.0650 O   0  0  0  0  0  0  0  0  0  0  0  0
   57.6540   26.2400   46.3150 C   0  0  0  0  0  0  0  0  0  0  0  0
   56.5450   26.9730   45.8600 C   0  0  0  0  0  0  0  0  0  0  0  0
   55.2720   26.3960   45.7260 O   0  0  0  0  0  0  0  0  0  0  0  0
   55.0290   24.9980   45.6030 C   0  0  0  0  0  0  0  0  0  0  0  0
   55.6533   31.0540   44.6495 H   0  0  0  0  0  0  0  0  0  0  0  0
   56.5107   29.9829   43.4901 H   0  0  0  0  0  0  0  0  0  0  0  0
   54.7157   30.0523   43.4901 H   0  0  0  0  0  0  0  0  0  0  0  0
   58.0796   29.9897   45.3786 H   0  0  0  0  0  0  0  0  0  0  0  0
   61.1750   28.4395   45.9553 H   0  0  0  0  0  0  0  0  0  0  0  0
   60.1977   29.9962   46.0351 H   0  0  0  0  0  0  0  0  0  0  0  0
   61.2180   28.2790   48.1070 H   0  0  0  0  0  0  0  0  0  0  0  0
   58.7574   28.4787   48.3605 H   0  0  0  0  0  0  0  0  0  0  0  0
   59.8939   28.7860   49.7676 H   0  0  0  0  0  0  0  0  0  0  0  0
   57.8287   30.4907   48.7276 H   0  0  0  0  0  0  0  0  0  0  0  0
   58.9635   30.7524   50.1157 H   0  0  0  0  0  0  0  0  0  0  0  0
   57.9986   32.7901   48.9903 H   0  0  0  0  0  0  0  0  0  0  0  0
   59.6594   33.5574   48.9477 H   0  0  0  0  0  0  0  0  0  0  0  0
   60.5550   34.5540   46.9481 H   0  0  0  0  0  0  0  0  0  0  0  0
   60.0339   35.6386   44.7624 H   0  0  0  0  0  0  0  0  0  0  0  0
   57.8049   35.2920   43.6919 H   0  0  0  0  0  0  0  0  0  0  0  0
   56.0917   33.8599   44.8099 H   0  0  0  0  0  0  0  0  0  0  0  0
   56.6067   32.7669   46.9924 H   0  0  0  0  0  0  0  0  0  0  0  0
   61.4887   32.4150   48.0666 H   0  0  0  0  0  0  0  0  0  0  0  0
   61.1379   31.6946   49.6843 H   0  0  0  0  0  0  0  0  0  0  0  0
   62.2360   30.4458   47.2395 H   0  0  0  0  0  0  0  0  0  0  0  0
   62.2833   29.9184   48.9957 H   0  0  0  0  0  0  0  0  0  0  0  0
   57.5322   25.1764   46.5680 H   0  0  0  0  0  0  0  0  0  0  0  0
   54.9511   24.5499   46.6046 H   0  0  0  0  0  0  0  0  0  0  0  0
   54.0892   24.8360   45.0547 H   0  0  0  0  0  0  0  0  0  0  0  0
   55.8590   24.5284   45.0547 H   0  0  0  0  0  0  0  0  0  0  0  0
  1  2  1  0
  2  3  1  0
  3  4  2  0
  4  5  1  0
  5  6  1  0
  6  7  1  0
  7  8  1  0
  8  9  1  0
  9 10  1  0
 10 11  1  0
 11 12  1  0
 12 13  2  0
 13 14  1  0
 14 15  2  0
 15 16  1  0
 16 17  2  0
 10 18  1  0
 18 19  1  0
  5 20  2  0
 20 21  1  0
 21 22  2  0
 21 23  1  0
 20 24  1  0
 24 25  2  0
 25 26  1  0
 26 27  1  0
 25  3  1  0
 19  7  1  0
 17 12  1  0
  1 28  1  0
  1 29  1  0
  1 30  1  0
  4 31  1  0
  6 32  1  0
  6 33  1  0
  7 34  1  0
  8 35  1  0
  8 36  1  0
  9 37  1  0
  9 38  1  0
 11 39  1  0
 11 40  1  0
 13 41  1  0
 14 42  1  0
 15 43  1  0
 16 44  1  0
 17 45  1  0
 18 46  1  0
 18 47  1  0
 19 48  1  0
 19 49  1  0
 24 50  1  0
 27 51  1  0
 27 52  1  0
 27 53  1  0
M  CHG  3   7   1  21   1  23  -1
M  END
>  <UniqueID>  (21) 
21

>  <SMILES>  (21) 
COc1cc(C[NH+]2CCN(Cc3ccccc3)CC2)c([N+](=O)[O-])cc1OC

>  <Energy>  (21) 
77.01252357246705

>  <Genealogy>  (21) 
COc1cc(C[NH+]2CCN(Cc3ccccc3)CC2)c([N+](=O)[O-])cc1OC (protonated)
COc1cc(C[NH+]2CCN(Cc3ccccc3)CC2)c([N+](=O)[O-])cc1OC (3D coordinates assigned)
COc1cc(C[NH+]2CCN(Cc3ccccc3)CC2)c([N+](=O)[O-])cc1OC (nonaromatic ring conformer: 77.01252357246705 kcal/mol)

>  <smiles>  (21) 
COc1cc(CN2CCN(Cc3ccccc3)CC2)c([N+](=O)[O-])cc1OC

>  <score_type>  (21) 
oracle

>  <origin>  (21) 
adg

>  <m_score__min__energy>  (21) 
-6.6299999999999999

>  <m_primary>  (21) 
energy

$$$$
21:0
     RDKit          3D

 36 37  0  0  0  0  0  0  0  0999 V2000
   56.3140   27.3390   44.7640 H   0  0  0  0  0  0  0  0  0  0  0  0
   56.5550   28.0480   45.4900 N   0  0  0  0  0  0  0  0  0  0  0  0
   56.6850   29.3120   45.2310 C   0  0  0  0  0  0  0  0  0  0  0  0
   55.8590   29.9560   44.3800 N   0  0  0  0  0  0  0  0  0  0  0  0
   56.3040   31.2270   44.3920 C   0  0  0  0  0  0  0  0  0  0  0  0
   55.8665   32.0581   43.8194 H   0  0  0  0  0  0  0  0  0  0  0  0
   57.3930   31.3260   45.2330 C   0  0  0  0  0  0  0  0  0  0  0  0
   58.1340   32.5690   45.5160 C   0  0  0  0  0  0  0  0  0  0  0  0
   58.5570   33.3990   44.4680 C   0  0  0  0  0  0  0  0  0  0  0  0
   58.3343   33.1236   43.4266 H   0  0  0  0  0  0  0  0  0  0  0  0
   59.2600   34.5740   44.7420 C   0  0  0  0  0  0  0  0  0  0  0  0
   59.5953   35.2186   43.9161 H   0  0  0  0  0  0  0  0  0  0  0  0
   59.5380   34.9320   46.0630 C   0  0  0  0  0  0  0  0  0  0  0  0
   60.0980   35.8554   46.2722 H   0  0  0  0  0  0  0  0  0  0  0  0
   59.1090   34.1240   47.1230 C   0  0  0  0  0  0  0  0  0  0  0  0
   59.4140   34.5270   48.4320 O   0  0  0  0  0  0  0  0  0  0  0  0
   60.5740   34.1160   49.1490 C   0  0  0  0  0  0  0  0  0  0  0  0
   60.3805   34.1846   50.2297 H   0  0  0  0  0  0  0  0  0  0  0  0
   60.8187   33.0764   48.8855 H   0  0  0  0  0  0  0  0  0  0  0  0
   61.4186   34.7696   48.8855 H   0  0  0  0  0  0  0  0  0  0  0  0
   58.3940   32.9440   46.8430 C   0  0  0  0  0  0  0  0  0  0  0  0
   58.0370   32.3121   47.6695 H   0  0  0  0  0  0  0  0  0  0  0  0
   57.6350   30.1110   45.7750 N   0  0  0  0  0  0  0  0  0  0  0  0
   58.5920   29.7700   46.8380 C   0  0  0  0  0  0  0  0  0  0  0  0
   58.4548   30.4658   47.6788 H   0  0  0  0  0  0  0  0  0  0  0  0
   58.4029   28.7329   47.1522 H   0  0  0  0  0  0  0  0  0  0  0  0
   60.0460   29.8660   46.3420 C   0  0  0  0  0  0  0  0  0  0  0  0
   60.2349   30.9017   46.0233 H   0  0  0  0  0  0  0  0  0  0  0  0
   60.6885   29.5560   47.1793 H   0  0  0  0  0  0  0  0  0  0  0  0
   60.3690   28.9320   45.1650 C   0  0  0  0  0  0  0  0  0  0  0  0
   60.0326   29.4113   44.2338 H   0  0  0  0  0  0  0  0  0  0  0  0
   61.4556   28.7609   45.1675 H   0  0  0  0  0  0  0  0  0  0  0  0
   59.6890   27.5680   45.2850 C   0  0  0  0  0  0  0  0  0  0  0  0
   59.5622   27.3137   46.3477 H   0  0  0  0  0  0  0  0  0  0  0  0
   58.7040   27.6052   44.7968 H   0  0  0  0  0  0  0  0  0  0  0  0
   60.3115   26.8037   44.7968 H   0  0  0  0  0  0  0  0  0  0  0  0
  1  2  1  0
  2  3  2  0
  3  4  1  0
  4  5  1  0
  5  6  1  0
  5  7  2  0
  7  8  1  0
  8  9  2  0
  9 10  1  0
  9 11  1  0
 11 12  1  0
 11 13  2  0
 13 14  1  0
 13 15  1  0
 15 16  1  0
 16 17  1  0
 17 18  1  0
 17 19  1  0
 17 20  1  0
 15 21  2  0
 21 22  1  0
  7 23  1  0
 23 24  1  0
 24 25  1  0
 24 26  1  0
 24 27  1  0
 27 28  1  0
 27 29  1  0
 27 30  1  0
 30 31  1  0
 30 32  1  0
 30 33  1  0
 33 34  1  0
 33 35  1  0
 33 36  1  0
 23  3  1  0
 21  8  1  0
M  CHG  1   4  -1
M  END
>  <UniqueID>  (22) 
22

>  <SMILES>  (22) 
[H]/N=c1/[n-]cc(-c2cccc(OC)c2)n1CCCC

>  <Energy>  (22) 
64.66694018683218

>  <Genealogy>  (22) 
CCCCn1c(-c2cccc(OC)c2)c[n-]c1=N (protonated)
[H]/N=c1/[n-]cc(-c2cccc(OC)c2)n1CCCC (cis-trans isomerization)
[H]/N=c1/[n-]cc(-c2cccc(OC)c2)n1CCCC (3D coordinates assigned)
[H]/N=c1/[n-]cc(-c2cccc(OC)c2)n1CCCC (optimized conformer: 64.66694018683218 kcal/mol)

>  <smiles>  (22) 
CCCCn1c(-c2cccc(OC)c2)c[nH]c1=N

>  <score_type>  (22) 
oracle

>  <origin>  (22) 
adg

>  <m_score__min__energy>  (22) 
-7.4800000000000004

>  <m_primary>  (22) 
energy

$$$$
22:0
     RDKit          3D

 57 59  0  0  0  0  0  0  0  0999 V2000
   55.6500   25.5690   45.6620 C   0  0  0  0  0  0  0  0  0  0  0  0
   55.5400   26.9870   45.6250 O   0  0  0  0  0  0  0  0  0  0  0  0
   56.6320   27.8690   45.6450 C   0  0  0  0  0  0  0  0  0  0  0  0
   57.6950   27.5910   46.5060 C   0  0  0  0  0  0  0  0  0  0  0  0
   58.8000   28.4420   46.5710 C   0  0  0  0  0  0  0  0  0  0  0  0
   58.8640   29.5960   45.7660 C   0  0  0  0  0  0  0  0  0  0  0  0
   59.9600   30.4740   45.8210 O   0  0  0  0  0  0  0  0  0  0  0  0
   61.0540   30.3460   46.7210 C   0  0  0  0  0  0  0  0  0  0  0  0
   57.8000   29.8790   44.8850 C   0  0  0  0  0  0  0  0  0  0  0  0
   57.8100   31.1160   44.0160 C   0  0  0  0  0  0  0  0  0  0  0  0
   57.3700   32.3680   44.7920 C   0  0  0  0  0  0  0  0  0  0  0  0
   58.5290   33.3790   44.9630 C   0  0  0  0  0  0  0  0  0  0  0  0
   59.4580   33.0830   46.0840 N   0  0  0  0  0  0  0  0  0  0  0  0
   60.7310   33.8420   45.9860 C   0  0  0  0  0  0  0  0  0  0  0  0
   61.4930   33.7940   47.3160 C   0  0  0  0  0  0  0  0  0  0  0  0
   60.7350   34.4670   48.3990 N   0  0  0  0  0  0  0  0  0  0  0  0
   61.1630   33.9680   49.7210 C   0  0  0  0  0  0  0  0  0  0  0  0
   60.0570   33.1810   50.3750 C   0  0  0  0  0  0  0  0  0  0  0  0
   59.2290   33.7940   51.3310 C   0  0  0  0  0  0  0  0  0  0  0  0
   58.1870   33.0750   51.9260 C   0  0  0  0  0  0  0  0  0  0  0  0
   57.9660   31.7400   51.5710 C   0  0  0  0  0  0  0  0  0  0  0  0
   56.5390   30.7610   52.3780 Br  0  0  0  0  0  0  0  0  0  0  0  0
   58.7900   31.1230   50.6240 C   0  0  0  0  0  0  0  0  0  0  0  0
   59.8300   31.8390   50.0270 C   0  0  0  0  0  0  0  0  0  0  0  0
   59.2600   34.4030   48.2220 C   0  0  0  0  0  0  0  0  0  0  0  0
   58.8140   33.1620   47.4250 C   0  0  0  0  0  0  0  0  0  0  0  0
   56.6900   29.0160   44.8330 C   0  0  0  0  0  0  0  0  0  0  0  0
   55.6763   25.2304   46.7083 H   0  0  0  0  0  0  0  0  0  0  0  0
   54.7839   25.1206   45.1532 H   0  0  0  0  0  0  0  0  0  0  0  0
   56.5748   25.2596   45.1532 H   0  0  0  0  0  0  0  0  0  0  0  0
   57.6618   26.6924   47.1396 H   0  0  0  0  0  0  0  0  0  0  0  0
   59.6278   28.2092   47.2569 H   0  0  0  0  0  0  0  0  0  0  0  0
   60.6843   30.3893   47.7561 H   0  0  0  0  0  0  0  0  0  0  0  0
   61.5575   29.3828   46.5515 H   0  0  0  0  0  0  0  0  0  0  0  0
   61.7663   31.1669   46.5515 H   0  0  0  0  0  0  0  0  0  0  0  0
   58.8297   31.2743   43.6351 H   0  0  0  0  0  0  0  0  0  0  0  0
   57.0979   30.9587   43.1925 H   0  0  0  0  0  0  0  0  0  0  0  0
   56.5505   32.8561   44.2441 H   0  0  0  0  0  0  0  0  0  0  0  0
   57.0443   32.0508   45.7936 H   0  0  0  0  0  0  0  0  0  0  0  0
   59.1121   33.3911   44.0303 H   0  0  0  0  0  0  0  0  0  0  0  0
   58.0616   34.3468   45.1974 H   0  0  0  0  0  0  0  0  0  0  0  0
   59.7240   32.0760   45.9540 H   0  0  0  0  0  0  0  0  0  0  0  0
   61.3554   33.3998   45.1957 H   0  0  0  0  0  0  0  0  0  0  0  0
   60.5006   34.8908   45.7475 H   0  0  0  0  0  0  0  0  0  0  0  0
   61.6594   32.7432   47.5954 H   0  0  0  0  0  0  0  0  0  0  0  0
   62.4504   34.3197   47.1855 H   0  0  0  0  0  0  0  0  0  0  0  0
   62.0424   33.3193   49.5951 H   0  0  0  0  0  0  0  0  0  0  0  0
   61.4122   34.8276   50.3605 H   0  0  0  0  0  0  0  0  0  0  0  0
   59.4010   34.8434   51.6125 H   0  0  0  0  0  0  0  0  0  0  0  0
   57.5412   33.5594   52.6732 H   0  0  0  0  0  0  0  0  0  0  0  0
   58.6186   30.0718   50.3489 H   0  0  0  0  0  0  0  0  0  0  0  0
   60.4740   31.3501   49.2812 H   0  0  0  0  0  0  0  0  0  0  0  0
   58.7867   34.3735   49.2145 H   0  0  0  0  0  0  0  0  0  0  0  0
   58.9529   35.2932   47.6534 H   0  0  0  0  0  0  0  0  0  0  0  0
   59.0796   32.2610   47.9974 H   0  0  0  0  0  0  0  0  0  0  0  0
   57.7276   33.2372   47.2699 H   0  0  0  0  0  0  0  0  0  0  0  0
   55.8580   29.2409   44.1495 H   0  0  0  0  0  0  0  0  0  0  0  0
  1  2  1  0
  2  3  1  0
  3  4  2  0
  4  5  1  0
  5  6  2  0
  6  7  1  0
  7  8  1  0
  6  9  1  0
  9 10  1  0
 10 11  1  0
 11 12  1  0
 12 13  1  0
 13 14  1  0
 14 15  1  0
 15 16  1  0
 16 17  1  0
 17 18  1  0
 18 19  2  0
 19 20  1  0
 20 21  2  0
 21 22  1  0
 21 23  1  0
 23 24  2  0
 16 25  1  0
 25 26  1  0
  9 27  2  0
 27  3  1  0
 26 13  1  0
 24 18  1  0
  1 28  1  0
  1 29  1  0
  1 30  1  0
  4 31  1  0
  5 32  1  0
  8 33  1  0
  8 34  1  0
  8 35  1  0
 10 36  1  0
 10 37  1  0
 11 38  1  0
 11 39  1  0
 12 40  1  0
 12 41  1  0
 13 42  1  0
 14 43  1  0
 14 44  1  0
 15 45  1  0
 15 46  1  0
 17 47  1  0
 17 48  1  0
 19 49  1  0
 20 50  1  0
 23 51  1  0
 24 52  1  0
 25 53  1  0
 25 54  1  0
 26 55  1  0
 26 56  1  0
 27 57  1  0
M  CHG  1  13   1
M  END
>  <UniqueID>  (23) 
23

>  <SMILES>  (23) 
COc1ccc(OC)c(CCC[NH+]2CCN(Cc3ccc(Br)cc3)CC2)c1

>  <Energy>  (23) 
69.7710985293359

>  <Genealogy>  (23) 
COc1ccc(OC)c(CCC[NH+]2CCN(Cc3ccc(Br)cc3)CC2)c1 (protonated)
COc1ccc(OC)c(CCC[NH+]2CCN(Cc3ccc(Br)cc3)CC2)c1 (3D coordinates assigned)
COc1ccc(OC)c(CCC[NH+]2CCN(Cc3ccc(Br)cc3)CC2)c1 (nonaromatic ring conformer: 69.7710985293359 kcal/mol)

>  <smiles>  (23) 
COc1ccc(OC)c(CCCN2CCN(Cc3ccc(Br)cc3)CC2)c1

>  <score_type>  (23) 
oracle

>  <origin>  (23) 
adg

>  <m_score__min__energy>  (23) 
-6.8300000000000001

>  <m_primary>  (23) 
energy

$$$$
23:0
     RDKit          3D

 46 47  0  0  0  0  0  0  0  0999 V2000
   57.5690   32.0500   41.7500 C   0  0  0  0  0  0  0  0  0  0  0  0
   56.7580   31.1420   42.4950 O   0  0  0  0  0  0  0  0  0  0  0  0
   57.1000   30.6970   43.7810 C   0  0  0  0  0  0  0  0  0  0  0  0
   56.2350   30.1460   44.5160 O   0  0  0  0  0  0  0  0  0  0  0  0
   58.4940   30.9150   44.3010 C   0  0  0  0  0  0  0  0  0  0  0  0
   58.6130   30.6230   45.8190 C   0  0  2  0  0  0  0  0  0  0  0  0
   59.4600   31.7110   46.4730 C   0  0  0  0  0  0  0  0  0  0  0  0
   58.9250   33.0020   46.6990 C   0  0  0  0  0  0  0  0  0  0  0  0
   57.5210   33.2620   46.5410 C   0  0  0  0  0  0  0  0  0  0  0  0
   56.4010   33.4790   46.4090 N   0  0  0  0  0  0  0  0  0  0  0  0
   59.7570   34.0390   47.1320 C   0  0  0  0  0  0  0  0  0  0  0  0
   61.1160   33.8040   47.3410 C   0  0  0  0  0  0  0  0  0  0  0  0
   61.6470   32.5270   47.1510 C   0  0  0  0  0  0  0  0  0  0  0  0
   60.8240   31.4720   46.7450 C   0  0  0  0  0  0  0  0  0  0  0  0
   61.3950   30.1020   46.5980 C   0  0  0  0  0  0  0  0  0  0  0  0
   60.3260   29.0560   46.9060 C   0  0  0  0  0  0  0  0  0  0  0  0
   59.1560   29.2660   46.0450 N   0  0  0  0  0  0  0  0  0  0  0  0
   58.5140   28.1240   45.4800 C   0  0  0  0  0  0  0  0  0  0  0  0
   58.3680   28.0800   44.2340 O   0  0  0  0  0  0  0  0  0  0  0  0
   58.1010   26.9320   46.3310 C   0  0  0  0  0  0  0  0  0  0  0  0
   59.0410   25.7410   46.0940 C   0  0  0  0  0  0  0  0  0  0  0  0
   58.1830   27.3020   47.8280 C   0  0  0  0  0  0  0  0  0  0  0  0
   56.6580   26.5150   45.9750 C   0  0  0  0  0  0  0  0  0  0  0  0
   55.8940   27.6320   45.6130 O   0  0  0  0  0  0  0  0  0  0  0  0
   58.1379   32.6870   42.4432 H   0  0  0  0  0  0  0  0  0  0  0  0
   58.2669   31.4831   41.1163 H   0  0  0  0  0  0  0  0  0  0  0  0
   56.9272   32.6797   41.1163 H   0  0  0  0  0  0  0  0  0  0  0  0
   59.1812   30.2490   43.7586 H   0  0  0  0  0  0  0  0  0  0  0  0
   58.7483   31.9735   44.1429 H   0  0  0  0  0  0  0  0  0  0  0  0
   57.6178   30.6421   46.2872 H   0  0  0  0  0  0  0  0  0  0  0  0
   59.3394   35.0413   47.3080 H   0  0  0  0  0  0  0  0  0  0  0  0
   61.7721   34.6285   47.6569 H   0  0  0  0  0  0  0  0  0  0  0  0
   62.7191   32.3497   47.3217 H   0  0  0  0  0  0  0  0  0  0  0  0
   61.7527   29.9649   45.5668 H   0  0  0  0  0  0  0  0  0  0  0  0
   62.2319   29.9817   47.3017 H   0  0  0  0  0  0  0  0  0  0  0  0
   60.7362   28.0515   46.7248 H   0  0  0  0  0  0  0  0  0  0  0  0
   60.0213   29.1500   47.9588 H   0  0  0  0  0  0  0  0  0  0  0  0
   59.3646   25.3310   47.0621 H   0  0  0  0  0  0  0  0  0  0  0  0
   58.5108   24.9630   45.5251 H   0  0  0  0  0  0  0  0  0  0  0  0
   59.9209   26.0759   45.5251 H   0  0  0  0  0  0  0  0  0  0  0  0
   57.9849   26.4083   48.4380 H   0  0  0  0  0  0  0  0  0  0  0  0
   59.1881   27.6863   48.0562 H   0  0  0  0  0  0  0  0  0  0  0  0
   57.4344   28.0750   48.0562 H   0  0  0  0  0  0  0  0  0  0  0  0
   56.6841   25.8074   45.1332 H   0  0  0  0  0  0  0  0  0  0  0  0
   56.1989   26.0435   46.8564 H   0  0  0  0  0  0  0  0  0  0  0  0
   56.2760   27.9640   44.7570 H   0  0  0  0  0  0  0  0  0  0  0  0
  1  2  1  0
  2  3  1  0
  3  4  2  0
  3  5  1  0
  5  6  1  0
  6  7  1  0
  7  8  2  0
  8  9  1  0
  9 10  3  0
  8 11  1  0
 11 12  2  0
 12 13  1  0
 13 14  2  0
 14 15  1  0
 15 16  1  0
 16 17  1  0
 17 18  1  0
 18 19  2  0
 18 20  1  0
 20 21  1  0
 20 22  1  0
 20 23  1  0
 23 24  1  0
 17  6  1  0
 14  7  1  0
  1 25  1  0
  1 26  1  0
  1 27  1  0
  5 28  1  0
  5 29  1  0
  6 30  1  1
 11 31  1  0
 12 32  1  0
 13 33  1  0
 15 34  1  0
 15 35  1  0
 16 36  1  0
 16 37  1  0
 21 38  1  0
 21 39  1  0
 21 40  1  0
 22 41  1  0
 22 42  1  0
 22 43  1  0
 23 44  1  0
 23 45  1  0
 24 46  1  0
M  END
>  <UniqueID>  (24) 
24

>  <SMILES>  (24) 
COC(=O)C[C@@H]1c2c(C#N)cccc2CCN1C(=O)C(C)(C)CO

>  <Energy>  (24) 
49.77756397602896

>  <Genealogy>  (24) 
COC(=O)C[C@@H]1c2c(C#N)cccc2CCN1C(=O)C(C)(C)CO (chirality)
COC(=O)C[C@@H]1c2c(C#N)cccc2CCN1C(=O)C(C)(C)CO (3D coordinates assigned)
COC(=O)C[C@@H]1c2c(C#N)cccc2CCN1C(=O)C(C)(C)CO (nonaromatic ring conformer: 49.77756397602896 kcal/mol)

>  <smiles>  (24) 
COC(=O)CC1c2c(C#N)cccc2CCN1C(=O)C(C)(C)CO

>  <score_type>  (24) 
oracle

>  <origin>  (24) 
adg

>  <m_score__min__energy>  (24) 
-8.1099999999999994

>  <m_primary>  (24) 
energy

$$$$
24:0
     RDKit          3D

 41 43  0  0  0  0  0  0  0  0999 V2000
   62.9740   33.8510   46.6690 C   0  0  0  0  0  0  0  0  0  0  0  0
   62.4190   33.2790   47.9040 N   0  0  0  0  0  0  0  0  0  0  0  0
   62.5890   34.1900   49.0460 C   0  0  0  0  0  0  0  0  0  0  0  0
   62.8900   31.9010   48.1780 C   0  0  0  0  0  0  0  0  0  0  0  0
   61.7860   30.8100   48.1700 C   0  0  0  0  0  0  0  0  0  0  0  0
   60.4370   31.3770   48.3660 N   0  0  0  0  0  0  0  0  0  0  0  0
   59.5530   30.9940   47.2730 C   0  0  0  0  0  0  0  0  0  0  0  0
   59.2060   29.6290   47.0630 C   0  0  0  0  0  0  0  0  0  0  0  0
   59.5970   28.6130   47.9720 C   0  0  0  0  0  0  0  0  0  0  0  0
   59.2570   27.2800   47.7550 C   0  0  0  0  0  0  0  0  0  0  0  0
   58.5170   26.9220   46.6390 C   0  0  0  0  0  0  0  0  0  0  0  0
   58.0940   27.8980   45.7420 C   0  0  0  0  0  0  0  0  0  0  0  0
   58.4120   29.2630   45.9420 C   0  0  0  0  0  0  0  0  0  0  0  0
   57.9450   30.2490   45.0430 C   0  0  0  0  0  0  0  0  0  0  0  0
   56.4620   29.7850   43.8800 Br  0  0  0  0  0  0  0  0  0  0  0  0
   58.3620   31.5980   45.1860 C   0  0  0  0  0  0  0  0  0  0  0  0
   58.1050   32.5990   44.1990 C   0  0  0  0  0  0  0  0  0  0  0  0
   57.7610   32.2520   42.3360 Br  0  0  0  0  0  0  0  0  0  0  0  0
   58.3170   33.9460   44.4960 C   0  0  0  0  0  0  0  0  0  0  0  0
   58.8300   34.3270   45.7240 C   0  0  0  0  0  0  0  0  0  0  0  0
   59.2210   33.3630   46.6430 C   0  0  0  0  0  0  0  0  0  0  0  0
   59.0520   31.9820   46.3740 C   0  0  0  0  0  0  0  0  0  0  0  0
   63.7192   34.6191   46.9233 H   0  0  0  0  0  0  0  0  0  0  0  0
   63.4536   33.0556   46.0797 H   0  0  0  0  0  0  0  0  0  0  0  0
   62.1645   34.3064   46.0797 H   0  0  0  0  0  0  0  0  0  0  0  0
   62.4837   33.6255   49.9842 H   0  0  0  0  0  0  0  0  0  0  0  0
   63.5882   34.6482   49.0040 H   0  0  0  0  0  0  0  0  0  0  0  0
   61.8223   34.9777   49.0040 H   0  0  0  0  0  0  0  0  0  0  0  0
   63.6342   31.6374   47.4120 H   0  0  0  0  0  0  0  0  0  0  0  0
   63.2966   31.9156   49.2000 H   0  0  0  0  0  0  0  0  0  0  0  0
   61.8127   30.2867   47.2028 H   0  0  0  0  0  0  0  0  0  0  0  0
   61.9865   30.1220   49.0045 H   0  0  0  0  0  0  0  0  0  0  0  0
   60.4830   32.4130   48.4630 H   0  0  0  0  0  0  0  0  0  0  0  0
   60.0340   31.0770   49.2810 H   0  0  0  0  0  0  0  0  0  0  0  0
   60.1797   28.8829   48.8651 H   0  0  0  0  0  0  0  0  0  0  0  0
   59.5767   26.5089   48.4714 H   0  0  0  0  0  0  0  0  0  0  0  0
   58.2641   25.8661   46.4624 H   0  0  0  0  0  0  0  0  0  0  0  0
   57.5024   27.6040   44.8625 H   0  0  0  0  0  0  0  0  0  0  0  0
   58.0738   34.7133   43.7462 H   0  0  0  0  0  0  0  0  0  0  0  0
   58.9278   35.3943   45.9717 H   0  0  0  0  0  0  0  0  0  0  0  0
   59.6700   33.6766   47.5970 H   0  0  0  0  0  0  0  0  0  0  0  0
  1  2  1  0
  2  3  1  0
  2  4  1  0
  4  5  1  0
  5  6  1  0
  6  7  1  0
  7  8  2  0
  8  9  1  0
  9 10  2  0
 10 11  1  0
 11 12  2  0
 12 13  1  0
 13 14  2  0
 14 15  1  0
 14 16  1  0
 16 17  2  0
 17 18  1  0
 17 19  1  0
 19 20  2  0
 20 21  1  0
 21 22  2  0
 22  7  1  0
 13  8  1  0
 22 16  1  0
  1 23  1  0
  1 24  1  0
  1 25  1  0
  3 26  1  0
  3 27  1  0
  3 28  1  0
  4 29  1  0
  4 30  1  0
  5 31  1  0
  5 32  1  0
  6 33  1  0
  6 34  1  0
  9 35  1  0
 10 36  1  0
 11 37  1  0
 12 38  1  0
 19 39  1  0
 20 40  1  0
 21 41  1  0
M  CHG  1   6   1
M  END
>  <UniqueID>  (25) 
25

>  <SMILES>  (25) 
CN(C)CC[NH2+]c1c2ccccc2c(Br)c2c(Br)cccc12

>  <Energy>  (25) 
82.34155337079096

>  <Genealogy>  (25) 
CN(C)CC[NH2+]c1c2ccccc2c(Br)c2c(Br)cccc12 (protonated)
CN(C)CC[NH2+]c1c2ccccc2c(Br)c2c(Br)cccc12 (3D coordinates assigned)
CN(C)CC[NH2+]c1c2ccccc2c(Br)c2c(Br)cccc12 (optimized conformer: 82.34155337079096 kcal/mol)

>  <smiles>  (25) 
CN(C)CCNc1c2ccccc2c(Br)c2c(Br)cccc12

>  <score_type>  (25) 
oracle

>  <origin>  (25) 
adg

>  <m_score__min__energy>  (25) 
-6.6699999999999999

>  <m_primary>  (25) 
energy

$$$$
25:0
     RDKit          3D

 33 35  0  0  0  0  0  0  0  0999 V2000
   58.1880   32.7110   41.4340 C   0  0  0  0  0  0  0  0  0  0  0  0
   58.2320   32.4540   42.8700 N   0  0  0  0  0  0  0  0  0  0  0  0
   57.6720   31.2750   43.4880 C   0  0  0  0  0  0  0  0  0  0  0  0
   56.6340   30.5590   42.8720 C   0  0  0  0  0  0  0  0  0  0  0  0
   56.0850   29.4370   43.4850 C   0  0  0  0  0  0  0  0  0  0  0  0
   56.5430   28.9960   44.7280 C   0  0  0  0  0  0  0  0  0  0  0  0
   55.8580   27.9180   45.2980 O   0  0  0  0  0  0  0  0  0  0  0  0
   57.6380   29.6630   45.3490 C   0  0  0  0  0  0  0  0  0  0  0  0
   58.2610   29.2320   46.5450 C   0  0  0  0  0  0  0  0  0  0  0  0
   57.9310   28.1630   47.1220 O   0  0  0  0  0  0  0  0  0  0  0  0
   59.2980   29.9810   47.0970 C   0  0  0  0  0  0  0  0  0  0  0  0
   59.7400   31.1340   46.4400 C   0  0  0  0  0  0  0  0  0  0  0  0
   60.8360   31.9610   47.0000 C   0  0  0  0  0  0  0  0  0  0  0  0
   62.0860   31.3700   47.2730 C   0  0  0  0  0  0  0  0  0  0  0  0
   63.1230   32.1250   47.8250 C   0  0  0  0  0  0  0  0  0  0  0  0
   62.9300   33.4760   48.1120 C   0  0  0  0  0  0  0  0  0  0  0  0
   61.6990   34.0770   47.8480 C   0  0  0  0  0  0  0  0  0  0  0  0
   60.6500   33.3320   47.2950 C   0  0  0  0  0  0  0  0  0  0  0  0
   59.1440   34.1730   46.9330 Cl  0  0  0  0  0  0  0  0  0  0  0  0
   59.1730   31.4930   45.2950 O   0  0  0  0  0  0  0  0  0  0  0  0
   58.1760   30.8230   44.7230 C   0  0  0  0  0  0  0  0  0  0  0  0
   58.0048   33.7813   41.2585 H   0  0  0  0  0  0  0  0  0  0  0  0
   59.1483   32.4242   40.9806 H   0  0  0  0  0  0  0  0  0  0  0  0
   57.3778   32.1211   40.9806 H   0  0  0  0  0  0  0  0  0  0  0  0
   58.6990   33.1750   43.4650 H   0  0  0  0  0  0  0  0  0  0  0  0
   56.2506   30.8881   41.8949 H   0  0  0  0  0  0  0  0  0  0  0  0
   55.2759   28.8877   42.9814 H   0  0  0  0  0  0  0  0  0  0  0  0
   55.1280   28.0020   45.9900 H   0  0  0  0  0  0  0  0  0  0  0  0
   59.7655   29.6680   48.0422 H   0  0  0  0  0  0  0  0  0  0  0  0
   62.2461   30.3049   47.0494 H   0  0  0  0  0  0  0  0  0  0  0  0
   64.0944   31.6530   48.0339 H   0  0  0  0  0  0  0  0  0  0  0  0
   63.7488   34.0681   48.5468 H   0  0  0  0  0  0  0  0  0  0  0  0
   61.5514   35.1430   48.0757 H   0  0  0  0  0  0  0  0  0  0  0  0
  1  2  1  0
  2  3  1  0
  3  4  2  0
  4  5  1  0
  5  6  2  0
  6  7  1  0
  6  8  1  0
  8  9  1  0
  9 10  2  0
  9 11  1  0
 11 12  2  0
 12 13  1  0
 13 14  2  0
 14 15  1  0
 15 16  2  0
 16 17  1  0
 17 18  2  0
 18 19  1  0
 12 20  1  0
 20 21  1  0
 21  3  1  0
 21  8  2  0
 18 13  1  0
  1 22  1  0
  1 23  1  0
  1 24  1  0
  2 25  1  0
  4 26  1  0
  5 27  1  0
  7 28  1  0
 11 29  1  0
 14 30  1  0
 15 31  1  0
 16 32  1  0
 17 33  1  0
M  END
>  <UniqueID>  (26) 
26

>  <SMILES>  (26) 
CNc1ccc(O)c2c(=O)cc(-c3ccccc3Cl)oc12

>  <Energy>  (26) 
52.16228750696827

>  <Genealogy>  (26) 
CNc1ccc(O)c2c(=O)cc(-c3ccccc3Cl)oc12 (3D coordinates assigned)
CNc1ccc(O)c2c(=O)cc(-c3ccccc3Cl)oc12 (optimized conformer: 52.16228750696827 kcal/mol)

>  <smiles>  (26) 
CNc1ccc(O)c2c(=O)cc(-c3ccccc3Cl)oc12

>  <score_type>  (26) 
oracle

>  <origin>  (26) 
adg

>  <m_score__min__energy>  (26) 
-7.5300000000000002

>  <m_primary>  (26) 
energy

$$$$
26:0
     RDKit          3D

 34 36  0  0  0  0  0  0  0  0999 V2000
   65.2810   33.0830   49.9130 C   0  0  0  0  0  0  0  0  0  0  0  0
   64.2310   32.0740   49.4670 C   0  0  0  0  0  0  0  0  0  0  0  0
   63.3520   32.6700   48.4650 N   0  0  0  0  0  0  0  0  0  0  0  0
   63.6900   32.9080   47.2000 N   0  0  0  0  0  0  0  0  0  0  0  0
   62.6650   33.5330   46.5700 C   0  0  0  0  0  0  0  0  0  0  0  0
   61.6510   33.7000   47.4940 C   0  0  0  0  0  0  0  0  0  0  0  0
   60.3850   34.2670   47.4510 C   0  0  0  0  0  0  0  0  0  0  0  0
   59.7140   34.9810   45.9480 S   0  0  0  0  0  0  0  0  0  0  0  0
   58.0670   34.2100   46.1300 C   0  0  0  0  0  0  0  0  0  0  0  0
   58.0140   32.8790   45.4320 C   0  0  0  0  0  0  0  0  0  0  0  0
   57.7800   32.8170   44.0490 C   0  0  0  0  0  0  0  0  0  0  0  0
   57.6990   31.5790   43.4030 C   0  0  0  0  0  0  0  0  0  0  0  0
   57.8500   30.3970   44.1340 C   0  0  0  0  0  0  0  0  0  0  0  0
   58.0790   30.4510   45.5110 C   0  0  0  0  0  0  0  0  0  0  0  0
   58.1620   31.6860   46.1600 C   0  0  0  0  0  0  0  0  0  0  0  0
   59.6500   34.2610   48.6030 N   0  0  0  0  0  0  0  0  0  0  0  0
   60.1400   33.7130   49.7630 C   0  0  0  0  0  0  0  0  0  0  0  0
   61.3870   33.1530   49.7940 N   0  0  0  0  0  0  0  0  0  0  0  0
   62.1140   33.1580   48.6510 C   0  0  0  0  0  0  0  0  0  0  0  0
   65.3148   33.1155   51.0120 H   0  0  0  0  0  0  0  0  0  0  0  0
   66.2656   32.7835   49.5246 H   0  0  0  0  0  0  0  0  0  0  0  0
   65.0210   34.0787   49.5246 H   0  0  0  0  0  0  0  0  0  0  0  0
   64.7320   31.1955   49.0343 H   0  0  0  0  0  0  0  0  0  0  0  0
   63.6301   31.7729   50.3378 H   0  0  0  0  0  0  0  0  0  0  0  0
   64.6090   32.6580   46.7730 H   0  0  0  0  0  0  0  0  0  0  0  0
   62.6443   33.8492   45.5166 H   0  0  0  0  0  0  0  0  0  0  0  0
   57.8546   34.0639   47.1994 H   0  0  0  0  0  0  0  0  0  0  0  0
   57.3174   34.8741   45.6749 H   0  0  0  0  0  0  0  0  0  0  0  0
   57.6599   33.7454   43.4714 H   0  0  0  0  0  0  0  0  0  0  0  0
   57.5164   31.5355   42.3191 H   0  0  0  0  0  0  0  0  0  0  0  0
   57.7885   29.4240   43.6247 H   0  0  0  0  0  0  0  0  0  0  0  0
   58.1942   29.5200   46.0854 H   0  0  0  0  0  0  0  0  0  0  0  0
   58.3438   31.7244   47.2442 H   0  0  0  0  0  0  0  0  0  0  0  0
   59.5243   33.7247   50.6745 H   0  0  0  0  0  0  0  0  0  0  0  0
  1  2  1  0
  2  3  1  0
  3  4  1  0
  4  5  2  0
  5  6  1  0
  6  7  2  0
  7  8  1  0
  8  9  1  0
  9 10  1  0
 10 11  2  0
 11 12  1  0
 12 13  2  0
 13 14  1  0
 14 15  2  0
  7 16  1  0
 16 17  2  0
 17 18  1  0
 18 19  2  0
 19  3  1  0
 19  6  1  0
 15 10  1  0
  1 20  1  0
  1 21  1  0
  1 22  1  0
  2 23  1  0
  2 24  1  0
  4 25  1  0
  5 26  1  0
  9 27  1  0
  9 28  1  0
 11 29  1  0
 12 30  1  0
 13 31  1  0
 14 32  1  0
 15 33  1  0
 17 34  1  0
M  CHG  1   4   1
M  END
>  <UniqueID>  (27) 
27

>  <SMILES>  (27) 
CCn1[nH+]cc2c(SCc3ccccc3)ncnc21

>  <Energy>  (27) 
70.36317104620262

>  <Genealogy>  (27) 
CCn1[nH+]cc2c(SCc3ccccc3)ncnc21 (protonated)
CCn1[nH+]cc2c(SCc3ccccc3)ncnc21 (3D coordinates assigned)
CCn1[nH+]cc2c(SCc3ccccc3)ncnc21 (optimized conformer: 70.36317104620262 kcal/mol)

>  <smiles>  (27) 
CCn1ncc2c(SCc3ccccc3)ncnc21

>  <score_type>  (27) 
oracle

>  <origin>  (27) 
adg

>  <m_score__min__energy>  (27) 
-5.8799999999999999

>  <m_primary>  (27) 
energy

$$$$
27:0
     RDKit          3D

 61 63  0  0  0  0  0  0  0  0999 V2000
   62.6280   31.4290   47.1670 C   0  0  0  0  0  0  0  0  0  0  0  0
   63.3240   32.5000   48.0140 C   0  0  0  0  0  0  0  0  0  0  0  0
   63.0800   32.3790   49.4690 N   0  0  0  0  0  0  0  0  0  0  0  0
   64.0880   31.6330   50.2530 C   0  0  0  0  0  0  0  0  0  0  0  0
   65.5180   32.1770   50.1200 C   0  0  0  0  0  0  0  0  0  0  0  0
   62.4830   33.5580   50.1310 C   0  0  0  0  0  0  0  0  0  0  0  0
   62.0760   34.5980   49.0850 C   0  0  0  0  0  0  0  0  0  0  0  0
   60.6620   34.6110   48.8900 O   0  0  0  0  0  0  0  0  0  0  0  0
   59.9660   33.9810   47.8450 C   0  0  0  0  0  0  0  0  0  0  0  0
   59.5860   34.6790   46.6820 C   0  0  0  0  0  0  0  0  0  0  0  0
   58.9400   34.0210   45.6350 C   0  0  0  0  0  0  0  0  0  0  0  0
   58.6590   32.6510   45.7200 C   0  0  0  0  0  0  0  0  0  0  0  0
   57.9810   31.9480   44.6000 C   0  0  0  0  0  0  0  0  0  0  0  0
   57.2740   30.7550   44.8320 C   0  0  0  0  0  0  0  0  0  0  0  0
   56.6440   30.0900   43.7770 C   0  0  0  0  0  0  0  0  0  0  0  0
   56.7060   30.6080   42.4830 C   0  0  0  0  0  0  0  0  0  0  0  0
   57.3890   31.8070   42.2350 C   0  0  0  0  0  0  0  0  0  0  0  0
   57.4820   32.3490   40.8400 C   0  0  0  0  0  0  0  0  0  0  0  0
   58.0380   32.4650   43.2920 C   0  0  0  0  0  0  0  0  0  0  0  0
   59.0240   31.9540   46.8830 C   0  0  0  0  0  0  0  0  0  0  0  0
   59.6560   32.6060   47.9530 C   0  0  0  0  0  0  0  0  0  0  0  0
   59.9850   31.8350   49.1260 N   0  0  0  0  0  0  0  0  0  0  0  0
   59.1480   30.7660   49.6780 C   0  0  0  0  0  0  0  0  0  0  0  0
   59.4900   29.4360   49.0580 C   0  0  0  0  0  0  0  0  0  0  0  0
   60.4410   28.6010   49.6670 C   0  0  0  0  0  0  0  0  0  0  0  0
   60.7670   27.3680   49.0920 C   0  0  0  0  0  0  0  0  0  0  0  0
   60.1460   26.9620   47.9080 C   0  0  0  0  0  0  0  0  0  0  0  0
   59.1950   27.7850   47.3000 C   0  0  0  0  0  0  0  0  0  0  0  0
   58.8630   29.0160   47.8730 C   0  0  0  0  0  0  0  0  0  0  0  0
   62.1492   30.6922   47.8287 H   0  0  0  0  0  0  0  0  0  0  0  0
   61.8645   31.9025   46.5322 H   0  0  0  0  0  0  0  0  0  0  0  0
   63.3707   30.9237   46.5322 H   0  0  0  0  0  0  0  0  0  0  0  0
   64.4076   32.4272   47.8391 H   0  0  0  0  0  0  0  0  0  0  0  0
   62.9052   33.4686   47.7037 H   0  0  0  0  0  0  0  0  0  0  0  0
   63.8002   31.6752   51.3138 H   0  0  0  0  0  0  0  0  0  0  0  0
   64.1018   30.6074   49.8555 H   0  0  0  0  0  0  0  0  0  0  0  0
   65.9434   32.3388   51.1214 H   0  0  0  0  0  0  0  0  0  0  0  0
   66.1368   31.4515   49.5716 H   0  0  0  0  0  0  0  0  0  0  0  0
   65.4981   33.1304   49.5716 H   0  0  0  0  0  0  0  0  0  0  0  0
   61.5940   33.2454   50.6984 H   0  0  0  0  0  0  0  0  0  0  0  0
   63.2240   34.0026   50.8116 H   0  0  0  0  0  0  0  0  0  0  0  0
   62.4002   35.5930   49.4239 H   0  0  0  0  0  0  0  0  0  0  0  0
   62.5559   34.3367   48.1303 H   0  0  0  0  0  0  0  0  0  0  0  0
   59.8009   35.7546   46.5984 H   0  0  0  0  0  0  0  0  0  0  0  0
   58.6488   34.5826   44.7351 H   0  0  0  0  0  0  0  0  0  0  0  0
   57.2165   30.3427   45.8502 H   0  0  0  0  0  0  0  0  0  0  0  0
   56.0972   29.1547   43.9673 H   0  0  0  0  0  0  0  0  0  0  0  0
   56.2174   30.0739   41.6547 H   0  0  0  0  0  0  0  0  0  0  0  0
   57.6679   33.4325   40.8792 H   0  0  0  0  0  0  0  0  0  0  0  0
   58.3084   31.8542   40.3087 H   0  0  0  0  0  0  0  0  0  0  0  0
   56.5379   32.1580   40.3087 H   0  0  0  0  0  0  0  0  0  0  0  0
   58.5959   33.3926   43.0962 H   0  0  0  0  0  0  0  0  0  0  0  0
   58.8107   30.8774   46.9567 H   0  0  0  0  0  0  0  0  0  0  0  0
   60.9690   31.8840   49.4780 H   0  0  0  0  0  0  0  0  0  0  0  0
   59.3091   30.7081   50.7646 H   0  0  0  0  0  0  0  0  0  0  0  0
   58.0955   30.9955   49.4555 H   0  0  0  0  0  0  0  0  0  0  0  0
   60.9313   28.9176   50.5994 H   0  0  0  0  0  0  0  0  0  0  0  0
   61.5128   26.7176   49.5724 H   0  0  0  0  0  0  0  0  0  0  0  0
   60.4060   25.9941   47.4546 H   0  0  0  0  0  0  0  0  0  0  0  0
   58.7064   27.4637   46.3683 H   0  0  0  0  0  0  0  0  0  0  0  0
   58.1085   29.6578   47.3946 H   0  0  0  0  0  0  0  0  0  0  0  0
  1  2  1  0
  2  3  1  0
  3  4  1  0
  4  5  1  0
  3  6  1  0
  6  7  1  0
  7  8  1  0
  8  9  1  0
  9 10  2  0
 10 11  1  0
 11 12  2  0
 12 13  1  0
 13 14  2  0
 14 15  1  0
 15 16  2  0
 16 17  1  0
 17 18  1  0
 17 19  2  0
 12 20  1  0
 20 21  2  0
 21 22  1  0
 22 23  1  0
 23 24  1  0
 24 25  2  0
 25 26  1  0
 26 27  2  0
 27 28  1  0
 28 29  2  0
 21  9  1  0
 29 24  1  0
 19 13  1  0
  1 30  1  0
  1 31  1  0
  1 32  1  0
  2 33  1  0
  2 34  1  0
  4 35  1  0
  4 36  1  0
  5 37  1  0
  5 38  1  0
  5 39  1  0
  6 40  1  0
  6 41  1  0
  7 42  1  0
  7 43  1  0
 10 44  1  0
 11 45  1  0
 14 46  1  0
 15 47  1  0
 16 48  1  0
 18 49  1  0
 18 50  1  0
 18 51  1  0
 19 52  1  0
 20 53  1  0
 22 54  1  0
 23 55  1  0
 23 56  1  0
 25 57  1  0
 26 58  1  0
 27 59  1  0
 28 60  1  0
 29 61  1  0
M  END
>  <UniqueID>  (28) 
28

>  <SMILES>  (28) 
CCN(CC)CCOc1ccc(-c2cccc(C)c2)cc1NCc1ccccc1

>  <Energy>  (28) 
74.88454199998216

>  <Genealogy>  (28) 
CCN(CC)CCOc1ccc(-c2cccc(C)c2)cc1NCc1ccccc1 (3D coordinates assigned)
CCN(CC)CCOc1ccc(-c2cccc(C)c2)cc1NCc1ccccc1 (optimized conformer: 74.88454199998216 kcal/mol)

>  <smiles>  (28) 
CCN(CC)CCOc1ccc(-c2cccc(C)c2)cc1NCc1ccccc1

>  <score_type>  (28) 
oracle

>  <origin>  (28) 
adg

>  <m_score__min__energy>  (28) 
-7.5700000000000003

>  <m_primary>  (28) 
energy

$$$$
28:0
     RDKit          3D

 36 37  0  0  0  0  0  0  0  0999 V2000
   60.0650   34.1700   48.8720 C   0  0  0  0  0  0  0  0  0  0  0  0
   59.0240   33.3440   48.3600 O   0  0  0  0  0  0  0  0  0  0  0  0
   58.6360   33.3020   47.0120 C   0  0  0  0  0  0  0  0  0  0  0  0
   58.9000   34.4190   46.2120 C   0  0  0  0  0  0  0  0  0  0  0  0
   58.5420   34.4240   44.8630 C   0  0  0  0  0  0  0  0  0  0  0  0
   57.9100   33.3130   44.3000 C   0  0  0  0  0  0  0  0  0  0  0  0
   57.6240   32.1830   45.0860 C   0  0  0  0  0  0  0  0  0  0  0  0
   56.9490   31.0150   44.4760 C   0  0  0  0  0  0  0  0  0  0  0  0
   55.7910   30.7030   44.8660 O   0  0  0  0  0  0  0  0  0  0  0  0
   57.6070   30.2130   43.4800 N   0  0  0  0  0  0  0  0  0  0  0  0
   57.0270   28.9750   42.9590 C   0  0  0  0  0  0  0  0  0  0  0  0
   57.8210   27.7560   43.4430 C   0  0  0  0  0  0  0  0  0  0  0  0
   58.5420   28.0410   44.7350 C   0  0  0  0  0  0  0  0  0  0  0  0
   57.8890   27.8570   45.9650 C   0  0  0  0  0  0  0  0  0  0  0  0
   58.5380   28.1760   47.1620 C   0  0  0  0  0  0  0  0  0  0  0  0
   59.8390   28.6870   47.1390 C   0  0  0  0  0  0  0  0  0  0  0  0
   60.4920   28.8800   45.9190 C   0  0  0  0  0  0  0  0  0  0  0  0
   59.8490   28.5610   44.7200 C   0  0  0  0  0  0  0  0  0  0  0  0
   57.9990   32.1810   46.4430 C   0  0  0  0  0  0  0  0  0  0  0  0
   60.0409   34.1509   49.9716 H   0  0  0  0  0  0  0  0  0  0  0  0
   61.0373   33.7950   48.5200 H   0  0  0  0  0  0  0  0  0  0  0  0
   59.9208   35.2021   48.5200 H   0  0  0  0  0  0  0  0  0  0  0  0
   59.3933   35.2996   46.6493 H   0  0  0  0  0  0  0  0  0  0  0  0
   58.7582   35.3054   44.2415 H   0  0  0  0  0  0  0  0  0  0  0  0
   57.6343   33.3222   43.2351 H   0  0  0  0  0  0  0  0  0  0  0  0
   58.6110   30.3950   43.2580 H   0  0  0  0  0  0  0  0  0  0  0  0
   55.9871   28.8895   43.3072 H   0  0  0  0  0  0  0  0  0  0  0  0
   57.0616   29.0046   41.8599 H   0  0  0  0  0  0  0  0  0  0  0  0
   57.1270   26.9169   43.5991 H   0  0  0  0  0  0  0  0  0  0  0  0
   58.5713   27.5081   42.6777 H   0  0  0  0  0  0  0  0  0  0  0  0
   56.8632   27.4605   45.9868 H   0  0  0  0  0  0  0  0  0  0  0  0
   58.0241   28.0246   48.1228 H   0  0  0  0  0  0  0  0  0  0  0  0
   60.3485   28.9371   48.0813 H   0  0  0  0  0  0  0  0  0  0  0  0
   61.5149   29.2841   45.9022 H   0  0  0  0  0  0  0  0  0  0  0  0
   60.3663   28.7169   43.7618 H   0  0  0  0  0  0  0  0  0  0  0  0
   57.7931   31.2970   47.0644 H   0  0  0  0  0  0  0  0  0  0  0  0
  1  2  1  0
  2  3  1  0
  3  4  2  0
  4  5  1  0
  5  6  2  0
  6  7  1  0
  7  8  1  0
  8  9  2  0
  8 10  1  0
 10 11  1  0
 11 12  1  0
 12 13  1  0
 13 14  2  0
 14 15  1  0
 15 16  2  0
 16 17  1  0
 17 18  2  0
  7 19  2  0
 19  3  1  0
 18 13  1  0
  1 20  1  0
  1 21  1  0
  1 22  1  0
  4 23  1  0
  5 24  1  0
  6 25  1  0
 10 26  1  0
 11 27  1  0
 11 28  1  0
 12 29  1  0
 12 30  1  0
 14 31  1  0
 15 32  1  0
 16 33  1  0
 17 34  1  0
 18 35  1  0
 19 36  1  0
M  END
>  <UniqueID>  (29) 
29

>  <SMILES>  (29) 
COc1cccc(C(=O)NCCc2ccccc2)c1

>  <Energy>  (29) 
33.101497718488076

>  <Genealogy>  (29) 
COc1cccc(C(=O)NCCc2ccccc2)c1 (3D coordinates assigned)
COc1cccc(C(=O)NCCc2ccccc2)c1 (optimized conformer: 33.101497718488076 kcal/mol)

>  <smiles>  (29) 
COc1cccc(C(=O)NCCc2ccccc2)c1

>  <score_type>  (29) 
oracle

>  <origin>  (29) 
adg

>  <m_score__min__energy>  (29) 
-7.4500000000000002

>  <m_primary>  (29) 
energy

$$$$
29:0
     RDKit          3D

 33 34  0  0  0  0  0  0  0  0999 V2000
   55.5840   29.8810   44.1360 C   0  0  0  0  0  0  0  0  0  0  0  0
   56.5140   29.7450   42.9270 C   0  0  0  0  0  0  0  0  0  0  0  0
   57.3590   28.5350   43.0050 N   0  0  0  0  0  0  0  0  0  0  0  0
   57.9960   28.3610   44.3250 C   0  0  0  0  0  0  0  0  0  0  0  0
   59.1910   29.3090   44.5200 C   0  0  0  0  0  0  0  0  0  0  0  0
   58.8980   30.3070   45.6030 C   0  0  0  0  0  0  0  0  0  0  0  0
   58.9280   30.1010   46.9850 C   0  0  0  0  0  0  0  0  0  0  0  0
   59.3400   28.8360   47.6690 C   0  0  0  0  0  0  0  0  0  0  0  0
   58.5310   31.2150   47.6470 N   0  0  0  0  0  0  0  0  0  0  0  0
   58.2340   32.1090   46.6900 C   0  0  0  0  0  0  0  0  0  0  0  0
   57.7670   33.3670   46.8900 N   0  0  0  0  0  0  0  0  0  0  0  0
   57.4880   34.1510   45.8050 C   0  0  0  0  0  0  0  0  0  0  0  0
   57.6780   33.6590   44.4950 C   0  0  0  0  0  0  0  0  0  0  0  0
   58.1600   32.3520   44.3020 C   0  0  0  0  0  0  0  0  0  0  0  0
   58.4360   31.5980   45.4380 C   0  0  0  0  0  0  0  0  0  0  0  0
   56.1715   29.7951   45.0620 H   0  0  0  0  0  0  0  0  0  0  0  0
   55.0862   30.8615   44.1072 H   0  0  0  0  0  0  0  0  0  0  0  0
   54.8263   29.0841   44.1072 H   0  0  0  0  0  0  0  0  0  0  0  0
   55.9026   29.6916   42.0142 H   0  0  0  0  0  0  0  0  0  0  0  0
   57.1794   30.6208   42.9130 H   0  0  0  0  0  0  0  0  0  0  0  0
   56.7810   27.6880   42.7930 H   0  0  0  0  0  0  0  0  0  0  0  0
   58.0950   28.5880   42.2630 H   0  0  0  0  0  0  0  0  0  0  0  0
   57.2506   28.5641   45.1081 H   0  0  0  0  0  0  0  0  0  0  0  0
   58.3692   27.3281   44.3875 H   0  0  0  0  0  0  0  0  0  0  0  0
   60.0778   28.7212   44.7994 H   0  0  0  0  0  0  0  0  0  0  0  0
   59.3752   29.8482   43.5791 H   0  0  0  0  0  0  0  0  0  0  0  0
   59.2941   28.9768   48.7590 H   0  0  0  0  0  0  0  0  0  0  0  0
   58.6604   28.0224   47.3755 H   0  0  0  0  0  0  0  0  0  0  0  0
   60.3684   28.5786   47.3755 H   0  0  0  0  0  0  0  0  0  0  0  0
   58.4540   31.3480   48.6790 H   0  0  0  0  0  0  0  0  0  0  0  0
   57.1122   35.1740   45.9539 H   0  0  0  0  0  0  0  0  0  0  0  0
   57.4496   34.2963   43.6280 H   0  0  0  0  0  0  0  0  0  0  0  0
   58.3127   31.9421   43.2927 H   0  0  0  0  0  0  0  0  0  0  0  0
  1  2  1  0
  2  3  1  0
  3  4  1  0
  4  5  1  0
  5  6  1  0
  6  7  2  0
  7  8  1  0
  7  9  1  0
  9 10  1  0
 10 11  2  0
 11 12  1  0
 12 13  2  0
 13 14  1  0
 14 15  2  0
 15  6  1  0
 15 10  1  0
  1 16  1  0
  1 17  1  0
  1 18  1  0
  2 19  1  0
  2 20  1  0
  3 21  1  0
  3 22  1  0
  4 23  1  0
  4 24  1  0
  5 25  1  0
  5 26  1  0
  8 27  1  0
  8 28  1  0
  8 29  1  0
  9 30  1  0
 12 31  1  0
 13 32  1  0
 14 33  1  0
M  CHG  1   3   1
M  END
>  <UniqueID>  (30) 
30

>  <SMILES>  (30) 
CC[NH2+]CCc1c(C)[nH]c2ncccc12

>  <Energy>  (30) 
63.00138081531347

>  <Genealogy>  (30) 
CC[NH2+]CCc1c(C)[nH]c2ncccc12 (protonated)
CC[NH2+]CCc1c(C)[nH]c2ncccc12 (3D coordinates assigned)
CC[NH2+]CCc1c(C)[nH]c2ncccc12 (optimized conformer: 63.00138081531347 kcal/mol)

>  <smiles>  (30) 
CCNCCc1c(C)[nH]c2ncccc12

>  <score_type>  (30) 
oracle

>  <origin>  (30) 
adg

>  <m_score__min__energy>  (30) 
-4.25

>  <m_primary>  (30) 
energy

$$$$
30:0
     RDKit          3D

 42 42  0  0  0  0  0  0  0  0999 V2000
   61.1440   30.2630   49.0760 C   0  0  0  0  0  0  0  0  0  0  0  0
   61.0210   31.7690   49.3320 C   0  0  0  0  0  0  0  0  0  0  0  0
   61.2120   32.5780   48.0990 N   0  0  0  0  0  0  0  0  0  0  0  0
   62.5580   32.3330   47.4930 C   0  0  0  0  0  0  0  0  0  0  0  0
   63.0870   33.5610   46.7470 C   0  0  0  0  0  0  0  0  0  0  0  0
   61.0450   34.0280   48.3880 C   0  0  0  0  0  0  0  0  0  0  0  0
   59.6460   34.5650   48.0420 C   0  0  0  0  0  0  0  0  0  0  0  0
   59.1260   33.8400   46.9310 O   0  0  0  0  0  0  0  0  0  0  0  0
   59.0660   34.3780   45.6420 C   0  0  0  0  0  0  0  0  0  0  0  0
   59.6230   35.4790   45.3820 O   0  0  0  0  0  0  0  0  0  0  0  0
   58.3430   33.6340   44.5970 C   0  0  0  0  0  0  0  0  0  0  0  0
   57.3820   32.7460   44.8820 C   0  0  0  0  0  0  0  0  0  0  0  0
   57.4590   31.3220   44.4730 C   0  0  0  0  0  0  0  0  0  0  0  0
   56.6550   30.8520   43.4140 C   0  0  0  0  0  0  0  0  0  0  0  0
   56.6430   29.4970   43.0750 C   0  0  0  0  0  0  0  0  0  0  0  0
   57.4190   28.5910   43.7930 C   0  0  0  0  0  0  0  0  0  0  0  0
   58.2170   29.0350   44.8480 C   0  0  0  0  0  0  0  0  0  0  0  0
   58.2590   30.3970   45.1950 C   0  0  0  0  0  0  0  0  0  0  0  0
   59.1350   30.8180   46.2570 N   0  0  0  0  0  0  0  0  0  0  0  0
   60.3700   30.6740   46.1550 O   0  0  0  0  0  0  0  0  0  0  0  0
   58.6100   31.1940   47.4720 O   0  0  0  0  0  0  0  0  0  0  0  0
   61.1875   29.7300   50.0373 H   0  0  0  0  0  0  0  0  0  0  0  0
   60.2712   29.9159   48.5035 H   0  0  0  0  0  0  0  0  0  0  0  0
   62.0615   30.0621   48.5035 H   0  0  0  0  0  0  0  0  0  0  0  0
   60.0197   31.9764   49.7375 H   0  0  0  0  0  0  0  0  0  0  0  0
   61.8133   32.0514   50.0408 H   0  0  0  0  0  0  0  0  0  0  0  0
   60.4610   32.3120   47.4160 H   0  0  0  0  0  0  0  0  0  0  0  0
   63.2655   32.0729   48.2942 H   0  0  0  0  0  0  0  0  0  0  0  0
   62.4578   31.5130   46.7666 H   0  0  0  0  0  0  0  0  0  0  0  0
   63.4136   34.3191   47.4740 H   0  0  0  0  0  0  0  0  0  0  0  0
   63.9386   33.2677   46.1155 H   0  0  0  0  0  0  0  0  0  0  0  0
   62.2889   33.9784   46.1155 H   0  0  0  0  0  0  0  0  0  0  0  0
   61.2257   34.1924   49.4605 H   0  0  0  0  0  0  0  0  0  0  0  0
   61.7648   34.5690   47.7561 H   0  0  0  0  0  0  0  0  0  0  0  0
   58.9793   34.4390   48.9078 H   0  0  0  0  0  0  0  0  0  0  0  0
   59.7134   35.6329   47.7868 H   0  0  0  0  0  0  0  0  0  0  0  0
   58.6019   33.8143   43.5432 H   0  0  0  0  0  0  0  0  0  0  0  0
   56.4989   33.0865   45.4426 H   0  0  0  0  0  0  0  0  0  0  0  0
   56.0308   31.5599   42.8490 H   0  0  0  0  0  0  0  0  0  0  0  0
   56.0197   29.1453   42.2397 H   0  0  0  0  0  0  0  0  0  0  0  0
   57.4030   27.5235   43.5281 H   0  0  0  0  0  0  0  0  0  0  0  0
   58.8205   28.3109   45.4150 H   0  0  0  0  0  0  0  0  0  0  0  0
  1  2  1  0
  2  3  1  0
  3  4  1  0
  4  5  1  0
  3  6  1  0
  6  7  1  0
  7  8  1  0
  8  9  1  0
  9 10  2  0
  9 11  1  0
 11 12  2  3
 12 13  1  0
 13 14  2  0
 14 15  1  0
 15 16  2  0
 16 17  1  0
 17 18  2  0
 18 19  1  0
 19 20  2  0
 19 21  1  0
 18 13  1  0
  1 22  1  0
  1 23  1  0
  1 24  1  0
  2 25  1  0
  2 26  1  0
  3 27  1  0
  4 28  1  0
  4 29  1  0
  5 30  1  0
  5 31  1  0
  5 32  1  0
  6 33  1  0
  6 34  1  0
  7 35  1  0
  7 36  1  0
 11 37  1  0
 12 38  1  0
 14 39  1  0
 15 40  1  0
 16 41  1  0
 17 42  1  0
M  CHG  3   3   1  19   1  21  -1
M  END
>  <UniqueID>  (31) 
31

>  <SMILES>  (31) 
CC[NH+](CC)CCOC(=O)C=Cc1ccccc1[N+](=O)[O-]

>  <Energy>  (31) 
47.74000929302807

>  <Genealogy>  (31) 
CC[NH+](CC)CCOC(=O)C=Cc1ccccc1[N+](=O)[O-] (protonated)
CC[NH+](CC)CCOC(=O)C=Cc1ccccc1[N+](=O)[O-] (3D coordinates assigned)
CC[NH+](CC)CCOC(=O)C=Cc1ccccc1[N+](=O)[O-] (optimized conformer: 47.74000929302807 kcal/mol)

>  <smiles>  (31) 
CCN(CC)CCOC(=O)C=Cc1ccccc1[N+](=O)[O-]

>  <score_type>  (31) 
oracle

>  <origin>  (31) 
adg

>  <m_score__min__energy>  (31) 
-3.73

>  <m_primary>  (31) 
energy

$$$$
31:0
     RDKit          3D

 45 47  0  0  0  0  0  0  0  0999 V2000
   57.4350   26.7640   46.5270 C   0  0  0  0  0  0  0  0  0  0  0  0
   57.2640   27.4760   45.1910 C   0  0  0  0  0  0  0  0  0  0  0  0
   56.1440   28.4100   45.2460 N   0  0  0  0  0  0  0  0  0  0  0  0
   56.2120   29.7580   44.7680 C   0  0  0  0  0  0  0  0  0  0  0  0
   55.1600   30.3650   44.4240 O   0  0  0  0  0  0  0  0  0  0  0  0
   57.5440   30.4560   44.7000 C   0  0  0  0  0  0  0  0  0  0  0  0
   57.3930   31.9190   44.2160 C   0  0  0  0  0  0  0  0  0  0  0  0
   57.3670   32.9060   45.3940 C   0  0  0  0  0  0  0  0  0  0  0  0
   58.5890   32.8300   46.2420 N   0  0  0  0  0  0  0  0  0  0  0  0
   59.5440   33.9140   45.9380 C   0  0  0  0  0  0  0  0  0  0  0  0
   60.8850   33.6040   46.5230 C   0  0  0  0  0  0  0  0  0  0  0  0
   61.0790   33.0320   47.7240 N   0  0  0  0  0  0  0  0  0  0  0  0
   62.4240   32.9660   47.8090 C   0  0  0  0  0  0  0  0  0  0  0  0
   63.1820   32.4130   48.9580 C   0  0  0  0  0  0  0  0  0  0  0  0
   62.6070   31.4070   49.7570 C   0  0  0  0  0  0  0  0  0  0  0  0
   63.3090   30.8750   50.8440 C   0  0  0  0  0  0  0  0  0  0  0  0
   64.5910   31.3400   51.1440 C   0  0  0  0  0  0  0  0  0  0  0  0
   65.1730   32.3370   50.3600 C   0  0  0  0  0  0  0  0  0  0  0  0
   64.4760   32.8730   49.2720 C   0  0  0  0  0  0  0  0  0  0  0  0
   63.0090   33.4750   46.7030 N   0  0  0  0  0  0  0  0  0  0  0  0
   62.0290   33.8570   45.9370 O   0  0  0  0  0  0  0  0  0  0  0  0
   59.2710   31.5130   46.2110 C   0  0  0  0  0  0  0  0  0  0  0  0
   58.2720   30.3620   46.0590 C   0  0  0  0  0  0  0  0  0  0  0  0
   57.2638   27.4769   47.3470 H   0  0  0  0  0  0  0  0  0  0  0  0
   56.7090   25.9407   46.5993 H   0  0  0  0  0  0  0  0  0  0  0  0
   58.4557   26.3602   46.5993 H   0  0  0  0  0  0  0  0  0  0  0  0
   58.1850   28.0296   44.9559 H   0  0  0  0  0  0  0  0  0  0  0  0
   57.0618   26.7255   44.4127 H   0  0  0  0  0  0  0  0  0  0  0  0
   58.1675   29.9432   43.9528 H   0  0  0  0  0  0  0  0  0  0  0  0
   58.2411   32.1674   43.5610 H   0  0  0  0  0  0  0  0  0  0  0  0
   56.4394   32.0051   43.6745 H   0  0  0  0  0  0  0  0  0  0  0  0
   57.2803   33.9271   44.9943 H   0  0  0  0  0  0  0  0  0  0  0  0
   56.5085   32.6399   46.0282 H   0  0  0  0  0  0  0  0  0  0  0  0
   59.6394   34.0182   44.8471 H   0  0  0  0  0  0  0  0  0  0  0  0
   59.1713   34.8521   46.3751 H   0  0  0  0  0  0  0  0  0  0  0  0
   60.3500   32.7280   48.4050 H   0  0  0  0  0  0  0  0  0  0  0  0
   61.5977   31.0361   49.5250 H   0  0  0  0  0  0  0  0  0  0  0  0
   62.8506   30.0896   51.4629 H   0  0  0  0  0  0  0  0  0  0  0  0
   65.1422   30.9204   51.9984 H   0  0  0  0  0  0  0  0  0  0  0  0
   66.1828   32.7025   50.5982 H   0  0  0  0  0  0  0  0  0  0  0  0
   64.9411   33.6583   48.6580 H   0  0  0  0  0  0  0  0  0  0  0  0
   59.9698   31.4932   45.3617 H   0  0  0  0  0  0  0  0  0  0  0  0
   59.8050   31.3805   47.1635 H   0  0  0  0  0  0  0  0  0  0  0  0
   58.8108   29.4047   46.1160 H   0  0  0  0  0  0  0  0  0  0  0  0
   57.5284   30.4262   46.8670 H   0  0  0  0  0  0  0  0  0  0  0  0
  1  2  1  0
  2  3  1  0
  3  4  1  0
  4  5  2  0
  4  6  1  0
  6  7  1  0
  7  8  1  0
  8  9  1  0
  9 10  1  0
 10 11  1  0
 11 12  2  0
 12 13  1  0
 13 14  1  0
 14 15  2  0
 15 16  1  0
 16 17  2  0
 17 18  1  0
 18 19  2  0
 13 20  2  0
 20 21  1  0
  9 22  1  0
 22 23  1  0
 23  6  1  0
 21 11  1  0
 19 14  1  0
  1 24  1  0
  1 25  1  0
  1 26  1  0
  2 27  1  0
  2 28  1  0
  6 29  1  0
  7 30  1  0
  7 31  1  0
  8 32  1  0
  8 33  1  0
 10 34  1  0
 10 35  1  0
 12 36  1  0
 15 37  1  0
 16 38  1  0
 17 39  1  0
 18 40  1  0
 19 41  1  0
 22 42  1  0
 22 43  1  0
 23 44  1  0
 23 45  1  0
M  CHG  2   3  -1  12   1
M  END
>  <UniqueID>  (32) 
32

>  <SMILES>  (32) 
CC[N-]C(=O)C1CCN(Cc2[nH+]c(-c3ccccc3)no2)CC1

>  <Energy>  (32) 
84.61090955456814

>  <Genealogy>  (32) 
CC[N-]C(=O)C1CCN(Cc2[nH+]c(-c3ccccc3)no2)CC1 (protonated)
CC[N-]C(=O)C1CCN(Cc2[nH+]c(-c3ccccc3)no2)CC1 (3D coordinates assigned)
CC[N-]C(=O)C1CCN(Cc2[nH+]c(-c3ccccc3)no2)CC1 (nonaromatic ring conformer: 84.61090955456814 kcal/mol)

>  <smiles>  (32) 
CCNC(=O)C1CCN(Cc2nc(-c3ccccc3)no2)CC1

>  <score_type>  (32) 
oracle

>  <origin>  (32) 
adg

>  <m_score__min__energy>  (32) 
-9.1600000000000001

>  <m_primary>  (32) 
energy

$$$$
32:0
     RDKit          3D

 50 52  0  0  0  0  0  0  0  0999 V2000
   63.7420   32.2810   48.0450 C   0  0  0  0  0  0  0  0  0  0  0  0
   63.7110   32.9230   46.7900 O   0  0  0  0  0  0  0  0  0  0  0  0
   62.6260   33.8310   46.7270 C   0  0  0  0  0  0  0  0  0  0  0  0
   61.9110   33.9010   48.0820 C   0  0  0  0  0  0  0  0  0  0  0  0
   60.5390   33.3580   47.9700 N   0  0  0  0  0  0  0  0  0  0  0  0
   59.7020   33.8280   49.0920 C   0  0  0  0  0  0  0  0  0  0  0  0
   59.9280   33.7380   46.6770 C   0  0  0  0  0  0  0  0  0  0  0  0
   59.1760   32.5820   46.0810 C   0  0  0  0  0  0  0  0  0  0  0  0
   59.5990   31.2960   46.2070 N   0  0  0  0  0  0  0  0  0  0  0  0
   58.6910   30.6070   45.4930 C   0  0  0  0  0  0  0  0  0  0  0  0
   58.6660   29.2350   45.2570 C   0  0  0  0  0  0  0  0  0  0  0  0
   57.6320   28.7190   44.4400 C   0  0  0  0  0  0  0  0  0  0  0  0
   57.5560   27.3170   44.1280 N   0  0  0  0  0  0  0  0  0  0  0  0
   57.6560   26.2670   45.1070 C   0  0  0  0  0  0  0  0  0  0  0  0
   57.8000   26.5480   46.3290 O   0  0  0  0  0  0  0  0  0  0  0  0
   57.5980   24.8460   44.7040 C   0  0  0  0  0  0  0  0  0  0  0  0
   56.6530   24.4380   43.7460 C   0  0  0  0  0  0  0  0  0  0  0  0
   56.5760   23.0990   43.3510 C   0  0  0  0  0  0  0  0  0  0  0  0
   57.4490   22.1570   43.8990 C   0  0  0  0  0  0  0  0  0  0  0  0
   58.4050   22.5530   44.8370 C   0  0  0  0  0  0  0  0  0  0  0  0
   58.4880   23.8910   45.2380 C   0  0  0  0  0  0  0  0  0  0  0  0
   59.4690   24.2550   46.1020 F   0  0  0  0  0  0  0  0  0  0  0  0
   56.6930   29.6070   43.8580 C   0  0  0  0  0  0  0  0  0  0  0  0
   56.7500   30.9880   44.1160 C   0  0  0  0  0  0  0  0  0  0  0  0
   57.7650   31.4500   44.9520 C   0  0  0  0  0  0  0  0  0  0  0  0
   58.0470   32.7070   45.3300 N   0  0  0  0  0  0  0  0  0  0  0  0
   57.3860   33.9380   44.8970 C   0  0  0  0  0  0  0  0  0  0  0  0
   63.7055   33.0360   48.8441 H   0  0  0  0  0  0  0  0  0  0  0  0
   62.8752   31.6097   48.1350 H   0  0  0  0  0  0  0  0  0  0  0  0
   64.6694   31.6964   48.1350 H   0  0  0  0  0  0  0  0  0  0  0  0
   63.0037   34.8301   46.4640 H   0  0  0  0  0  0  0  0  0  0  0  0
   61.9134   33.4846   45.9639 H   0  0  0  0  0  0  0  0  0  0  0  0
   62.4748   33.3118   48.8202 H   0  0  0  0  0  0  0  0  0  0  0  0
   61.8538   34.9521   48.4014 H   0  0  0  0  0  0  0  0  0  0  0  0
   60.1813   33.5589   50.0448 H   0  0  0  0  0  0  0  0  0  0  0  0
   59.5903   34.9208   49.0335 H   0  0  0  0  0  0  0  0  0  0  0  0
   58.7109   33.3545   49.0335 H   0  0  0  0  0  0  0  0  0  0  0  0
   59.2330   34.5751   46.8389 H   0  0  0  0  0  0  0  0  0  0  0  0
   60.7284   34.0331   45.9825 H   0  0  0  0  0  0  0  0  0  0  0  0
   59.4276   28.5716   45.6928 H   0  0  0  0  0  0  0  0  0  0  0  0
   57.3670   27.0610   43.1340 H   0  0  0  0  0  0  0  0  0  0  0  0
   55.9693   25.1777   43.3041 H   0  0  0  0  0  0  0  0  0  0  0  0
   55.8271   22.7874   42.6080 H   0  0  0  0  0  0  0  0  0  0  0  0
   57.3838   21.1028   43.5918 H   0  0  0  0  0  0  0  0  0  0  0  0
   59.0956   21.8099   45.2623 H   0  0  0  0  0  0  0  0  0  0  0  0
   55.9093   29.2105   43.1957 H   0  0  0  0  0  0  0  0  0  0  0  0
   56.0186   31.6801   43.6732 H   0  0  0  0  0  0  0  0  0  0  0  0
   57.0751   34.5170   45.7791 H   0  0  0  0  0  0  0  0  0  0  0  0
   58.0842   34.5362   44.2932 H   0  0  0  0  0  0  0  0  0  0  0  0
   56.5016   33.6864   44.2932 H   0  0  0  0  0  0  0  0  0  0  0  0
  1  2  1  0
  2  3  1  0
  3  4  1  0
  4  5  1  0
  5  6  1  0
  5  7  1  0
  7  8  1  0
  8  9  2  0
  9 10  1  0
 10 11  2  0
 11 12  1  0
 12 13  1  0
 13 14  1  0
 14 15  2  0
 14 16  1  0
 16 17  2  0
 17 18  1  0
 18 19  2  0
 19 20  1  0
 20 21  2  0
 21 22  1  0
 12 23  2  0
 23 24  1  0
 24 25  2  0
 25 26  1  0
 26 27  1  0
 26  8  1  0
 25 10  1  0
 21 16  1  0
  1 28  1  0
  1 29  1  0
  1 30  1  0
  3 31  1  0
  3 32  1  0
  4 33  1  0
  4 34  1  0
  6 35  1  0
  6 36  1  0
  6 37  1  0
  7 38  1  0
  7 39  1  0
 11 40  1  0
 13 41  1  0
 17 42  1  0
 18 43  1  0
 19 44  1  0
 20 45  1  0
 23 46  1  0
 24 47  1  0
 27 48  1  0
 27 49  1  0
 27 50  1  0
M  END
>  <UniqueID>  (33) 
33

>  <SMILES>  (33) 
COCCN(C)Cc1nc2cc(NC(=O)c3ccccc3F)ccc2n1C

>  <Energy>  (33) 
98.61717447925591

>  <Genealogy>  (33) 
COCCN(C)Cc1nc2cc(NC(=O)c3ccccc3F)ccc2n1C (3D coordinates assigned)
COCCN(C)Cc1nc2cc(NC(=O)c3ccccc3F)ccc2n1C (optimized conformer: 98.61717447925591 kcal/mol)

>  <smiles>  (33) 
COCCN(C)Cc1nc2cc(NC(=O)c3ccccc3F)ccc2n1C

>  <score_type>  (33) 
oracle

>  <origin>  (33) 
adg

>  <m_score__min__energy>  (33) 
-7.7000000000000002

>  <m_primary>  (33) 
energy

$$$$
33:0
     RDKit          3D

 69 73  0  0  0  0  0  0  0  0999 V2000
   58.4920   34.4200   52.3780 C   0  0  0  0  0  0  0  0  0  0  0  0
   57.7380   33.0860   52.3290 C   0  0  0  0  0  0  0  0  0  0  0  0
   58.1770   32.1200   53.3700 N   0  0  0  0  0  0  0  0  0  0  0  0
   57.9270   30.6980   52.9980 C   0  0  0  0  0  0  0  0  0  0  0  0
   57.2830   30.4930   51.6180 C   0  0  0  0  0  0  0  0  0  0  0  0
   59.5930   32.4030   53.7310 C   0  0  0  0  0  0  0  0  0  0  0  0
   60.5320   31.1830   53.6600 C   0  0  0  0  0  0  0  0  0  0  0  0
   61.2270   31.1120   52.3740 N   0  0  0  0  0  0  0  0  0  0  0  0
   61.0180   30.0150   51.4700 C   0  0  0  0  0  0  0  0  0  0  0  0
   60.4500   30.2460   50.2220 C   0  0  0  0  0  0  0  0  0  0  0  0
   60.2170   29.2120   49.3430 C   0  0  0  0  0  0  0  0  0  0  0  0
   60.6490   27.9330   49.5920 N   0  0  0  0  0  0  0  0  0  0  0  0
   60.6930   26.9410   48.5050 C   0  0  0  0  0  0  0  0  0  0  0  0
   61.1260   27.6360   50.8590 C   0  0  0  0  0  0  0  0  0  0  0  0
   61.3970   26.3030   51.2580 C   0  0  0  0  0  0  0  0  0  0  0  0
   61.9500   26.0270   52.5080 C   0  0  0  0  0  0  0  0  0  0  0  0
   62.2440   27.0610   53.3910 C   0  0  0  0  0  0  0  0  0  0  0  0
   61.9540   28.3810   53.0470 C   0  0  0  0  0  0  0  0  0  0  0  0
   61.3590   28.6850   51.8080 C   0  0  0  0  0  0  0  0  0  0  0  0
   59.5460   29.8020   48.1770 C   0  0  0  0  0  0  0  0  0  0  0  0
   58.9070   29.1780   47.1010 C   0  0  0  0  0  0  0  0  0  0  0  0
   58.2780   29.9710   46.1130 C   0  0  0  0  0  0  0  0  0  0  0  0
   58.2520   31.3810   46.2940 C   0  0  0  0  0  0  0  0  0  0  0  0
   58.8520   31.9520   47.4340 C   0  0  0  0  0  0  0  0  0  0  0  0
   58.8170   33.1980   47.6280 O   0  0  0  0  0  0  0  0  0  0  0  0
   59.4630   31.1400   48.3370 N   0  0  0  0  0  0  0  0  0  0  0  0
   60.0100   31.5490   49.6300 C   0  0  0  0  0  0  0  0  0  0  0  0
   57.5680   32.2400   45.2610 C   0  0  0  0  0  0  0  0  0  0  0  0
   56.4120   31.5700   44.7680 O   0  0  0  0  0  0  0  0  0  0  0  0
   56.4260   30.2000   44.4950 C   0  0  0  0  0  0  0  0  0  0  0  0
   55.4250   29.6830   43.9320 O   0  0  0  0  0  0  0  0  0  0  0  0
   57.6730   29.3810   44.8220 C   0  0  1  0  0  0  0  0  0  0  0  0
   58.6090   29.5800   43.7900 O   0  0  0  0  0  0  0  0  0  0  0  0
   57.3200   27.8580   44.9370 C   0  0  0  0  0  0  0  0  0  0  0  0
   58.1480   26.9560   44.0070 C   0  0  0  0  0  0  0  0  0  0  0  0
   58.6560   34.7102   53.4263 H   0  0  0  0  0  0  0  0  0  0  0  0
   59.4624   34.3115   51.8714 H   0  0  0  0  0  0  0  0  0  0  0  0
   57.8986   35.1954   51.8714 H   0  0  0  0  0  0  0  0  0  0  0  0
   56.6656   33.2865   52.4697 H   0  0  0  0  0  0  0  0  0  0  0  0
   57.9514   32.6286   51.3516 H   0  0  0  0  0  0  0  0  0  0  0  0
   57.5930   32.3140   54.2160 H   0  0  0  0  0  0  0  0  0  0  0  0
   58.8909   30.1680   53.0072 H   0  0  0  0  0  0  0  0  0  0  0  0
   57.2084   30.3087   53.7343 H   0  0  0  0  0  0  0  0  0  0  0  0
   56.2418   30.1616   51.7448 H   0  0  0  0  0  0  0  0  0  0  0  0
   57.3007   31.4412   51.0606 H   0  0  0  0  0  0  0  0  0  0  0  0
   57.8455   29.7295   51.0606 H   0  0  0  0  0  0  0  0  0  0  0  0
   59.9755   33.1703   53.0418 H   0  0  0  0  0  0  0  0  0  0  0  0
   59.5865   32.7292   54.7815 H   0  0  0  0  0  0  0  0  0  0  0  0
   61.2777   31.2592   54.4650 H   0  0  0  0  0  0  0  0  0  0  0  0
   59.9235   30.2736   53.7728 H   0  0  0  0  0  0  0  0  0  0  0  0
   61.6550   31.9840   51.9940 H   0  0  0  0  0  0  0  0  0  0  0  0
   60.7379   25.9290   48.9338 H   0  0  0  0  0  0  0  0  0  0  0  0
   59.7897   27.0366   47.8845 H   0  0  0  0  0  0  0  0  0  0  0  0
   61.5843   27.1162   47.8845 H   0  0  0  0  0  0  0  0  0  0  0  0
   61.1678   25.4745   50.5717 H   0  0  0  0  0  0  0  0  0  0  0  0
   62.1549   24.9858   52.7975 H   0  0  0  0  0  0  0  0  0  0  0  0
   62.7066   26.8367   54.3635 H   0  0  0  0  0  0  0  0  0  0  0  0
   62.1925   29.1923   53.7505 H   0  0  0  0  0  0  0  0  0  0  0  0
   58.8936   28.0808   47.0237 H   0  0  0  0  0  0  0  0  0  0  0  0
   60.8602   32.2352   49.5029 H   0  0  0  0  0  0  0  0  0  0  0  0
   59.2906   32.0953   50.2577 H   0  0  0  0  0  0  0  0  0  0  0  0
   57.2698   33.1947   45.7189 H   0  0  0  0  0  0  0  0  0  0  0  0
   58.2614   32.4300   44.4285 H   0  0  0  0  0  0  0  0  0  0  0  0
   58.1090   29.8290   42.9670 H   0  0  0  0  0  0  0  0  0  0  0  0
   57.4950   27.5391   45.9751 H   0  0  0  0  0  0  0  0  0  0  0  0
   56.2680   27.7497   44.6343 H   0  0  0  0  0  0  0  0  0  0  0  0
   58.7697   26.2788   44.6111 H   0  0  0  0  0  0  0  0  0  0  0  0
   57.4717   26.3646   43.3723 H   0  0  0  0  0  0  0  0  0  0  0  0
   58.7950   27.5793   43.3723 H   0  0  0  0  0  0  0  0  0  0  0  0
  1  2  1  0
  2  3  1  0
  3  4  1  0
  4  5  1  0
  3  6  1  0
  6  7  1  0
  7  8  1  0
  8  9  1  0
  9 10  2  0
 10 11  1  0
 11 12  2  0
 12 13  1  0
 12 14  1  0
 14 15  2  0
 15 16  1  0
 16 17  2  0
 17 18  1  0
 18 19  2  0
 11 20  1  0
 20 21  2  0
 21 22  1  0
 22 23  2  0
 23 24  1  0
 24 25  2  0
 24 26  1  0
 26 27  1  0
 23 28  1  0
 28 29  1  0
 29 30  1  0
 30 31  2  0
 30 32  1  0
 32 33  1  6
 32 34  1  0
 34 35  1  0
 19  9  1  0
 26 20  1  0
 27 10  1  0
 19 14  1  0
 32 22  1  0
  1 36  1  0
  1 37  1  0
  1 38  1  0
  2 39  1  0
  2 40  1  0
  3 41  1  0
  4 42  1  0
  4 43  1  0
  5 44  1  0
  5 45  1  0
  5 46  1  0
  6 47  1  0
  6 48  1  0
  7 49  1  0
  7 50  1  0
  8 51  1  0
 13 52  1  0
 13 53  1  0
 13 54  1  0
 15 55  1  0
 16 56  1  0
 17 57  1  0
 18 58  1  0
 21 59  1  0
 27 60  1  0
 27 61  1  0
 28 62  1  0
 28 63  1  0
 33 64  1  0
 34 65  1  0
 34 66  1  0
 35 67  1  0
 35 68  1  0
 35 69  1  0
M  CHG  2   3   1  12   1
M  END
>  <UniqueID>  (34) 
34

>  <SMILES>  (34) 
CC[NH+](CC)CCNc1c2c([n+](C)c3ccccc13)-c1cc3c(c(=O)n1C2)COC(=O)[C@]3(O)CC

>  <Energy>  (34) 
132.01788728818266

>  <Genealogy>  (34) 
CC[NH+](CC)CCNc1c2c([n+](C)c3ccccc13)-c1cc3c(c(=O)n1C2)COC(=O)C3(O)CC (protonated)
CC[NH+](CC)CCNc1c2c([n+](C)c3ccccc13)-c1cc3c(c(=O)n1C2)COC(=O)[C@]3(O)CC (chirality)
CC[NH+](CC)CCNc1c2c([n+](C)c3ccccc13)-c1cc3c(c(=O)n1C2)COC(=O)[C@]3(O)CC (3D coordinates assigned)
CC[NH+](CC)CCNc1c2c([n+](C)c3ccccc13)-c1cc3c(c(=O)n1C2)COC(=O)[C@]3(O)CC (nonaromatic ring conformer: 132.01788728818266 kcal/mol)

>  <smiles>  (34) 
CCN(CC)CCNc1c2c([n+](C)c3ccccc13)-c1cc3c(c(=O)n1C2)COC(=O)C3(O)CC

>  <score_type>  (34) 
oracle

>  <origin>  (34) 
adg

>  <m_score__min__energy>  (34) 
-5.2999999999999998

>  <m_primary>  (34) 
energy

$$$$
34:0
     RDKit          3D

 43 45  0  0  0  0  0  0  0  0999 V2000
   59.3540   34.9420   45.8860 C   0  0  0  0  0  0  0  0  0  0  0  0
   58.7150   33.6740   45.4010 C   0  0  0  0  0  0  0  0  0  0  0  0
   58.3530   32.6850   46.3180 C   0  0  0  0  0  0  0  0  0  0  0  0
   57.7680   31.4980   45.8770 C   0  0  0  0  0  0  0  0  0  0  0  0
   57.5250   31.2740   44.5120 C   0  0  0  0  0  0  0  0  0  0  0  0
   56.7390   29.7410   44.0670 S   0  0  0  0  0  0  0  0  0  0  0  0
   55.5180   29.4820   44.9040 O   0  0  0  0  0  0  0  0  0  0  0  0
   56.2720   29.8670   42.6430 O   0  0  0  0  0  0  0  0  0  0  0  0
   57.8050   28.3520   44.1880 N   0  0  0  0  0  0  0  0  0  0  0  0
   57.4580   27.4050   45.2550 C   0  0  0  0  0  0  0  0  0  0  0  0
   57.8020   27.9350   46.6510 C   0  0  0  0  0  0  0  0  0  0  0  0
   58.9720   28.8210   46.6470 N   0  0  0  0  0  0  0  0  0  0  0  0
   59.2970   29.5410   47.8570 C   0  0  0  0  0  0  0  0  0  0  0  0
   58.5740   29.3330   48.9940 N   0  0  0  0  0  0  0  0  0  0  0  0
   58.8440   30.0150   50.1350 C   0  0  0  0  0  0  0  0  0  0  0  0
   59.8780   30.9490   50.1580 C   0  0  0  0  0  0  0  0  0  0  0  0
   60.6120   31.1540   48.9910 C   0  0  0  0  0  0  0  0  0  0  0  0
   60.3090   30.4520   47.8700 N   0  0  0  0  0  0  0  0  0  0  0  0
   59.9210   28.8050   45.5240 C   0  0  0  0  0  0  0  0  0  0  0  0
   59.2380   28.6900   44.1410 C   0  0  0  0  0  0  0  0  0  0  0  0
   57.9250   32.2600   43.5690 C   0  0  0  0  0  0  0  0  0  0  0  0
   57.7720   32.0740   42.0810 C   0  0  0  0  0  0  0  0  0  0  0  0
   58.5250   33.4480   44.0310 C   0  0  0  0  0  0  0  0  0  0  0  0
   59.3593   34.9525   46.9859 H   0  0  0  0  0  0  0  0  0  0  0  0
   60.3876   34.9974   45.5138 H   0  0  0  0  0  0  0  0  0  0  0  0
   58.7835   35.8057   45.5138 H   0  0  0  0  0  0  0  0  0  0  0  0
   58.5298   32.8426   47.3922 H   0  0  0  0  0  0  0  0  0  0  0  0
   57.4927   30.7252   46.6098 H   0  0  0  0  0  0  0  0  0  0  0  0
   56.3771   27.2056   45.2108 H   0  0  0  0  0  0  0  0  0  0  0  0
   58.0473   26.4906   45.0923 H   0  0  0  0  0  0  0  0  0  0  0  0
   56.9378   28.4948   47.0379 H   0  0  0  0  0  0  0  0  0  0  0  0
   58.0425   27.0693   47.2856 H   0  0  0  0  0  0  0  0  0  0  0  0
   58.2476   29.8311   51.0408 H   0  0  0  0  0  0  0  0  0  0  0  0
   60.1093   31.5109   51.0750 H   0  0  0  0  0  0  0  0  0  0  0  0
   61.4353   31.8834   48.9788 H   0  0  0  0  0  0  0  0  0  0  0  0
   60.5044   29.7372   45.5478 H   0  0  0  0  0  0  0  0  0  0  0  0
   60.5537   27.9137   45.6476 H   0  0  0  0  0  0  0  0  0  0  0  0
   59.3455   29.6552   43.6245 H   0  0  0  0  0  0  0  0  0  0  0  0
   59.7356   27.8607   43.6169 H   0  0  0  0  0  0  0  0  0  0  0  0
   57.0844   31.2381   41.8848 H   0  0  0  0  0  0  0  0  0  0  0  0
   57.3663   32.9946   41.6362 H   0  0  0  0  0  0  0  0  0  0  0  0
   58.7536   31.8535   41.6362 H   0  0  0  0  0  0  0  0  0  0  0  0
   58.8490   34.2092   43.3060 H   0  0  0  0  0  0  0  0  0  0  0  0
  1  2  1  0
  2  3  2  0
  3  4  1  0
  4  5  2  0
  5  6  1  0
  6  7  2  0
  6  8  2  0
  6  9  1  0
  9 10  1  0
 10 11  1  0
 11 12  1  0
 12 13  1  0
 13 14  2  0
 14 15  1  0
 15 16  2  0
 16 17  1  0
 17 18  2  0
 12 19  1  0
 19 20  1  0
  5 21  1  0
 21 22  1  0
 21 23  2  0
 23  2  1  0
 20  9  1  0
 18 13  1  0
  1 24  1  0
  1 25  1  0
  1 26  1  0
  3 27  1  0
  4 28  1  0
 10 29  1  0
 10 30  1  0
 11 31  1  0
 11 32  1  0
 15 33  1  0
 16 34  1  0
 17 35  1  0
 19 36  1  0
 19 37  1  0
 20 38  1  0
 20 39  1  0
 22 40  1  0
 22 41  1  0
 22 42  1  0
 23 43  1  0
M  END
>  <UniqueID>  (35) 
35

>  <SMILES>  (35) 
Cc1ccc(S(=O)(=O)N2CCN(c3ncccn3)CC2)c(C)c1

>  <Energy>  (35) 
53.21383373488668

>  <Genealogy>  (35) 
Cc1ccc(S(=O)(=O)N2CCN(c3ncccn3)CC2)c(C)c1 (3D coordinates assigned)
Cc1ccc(S(=O)(=O)N2CCN(c3ncccn3)CC2)c(C)c1 (nonaromatic ring conformer: 53.21383373488668 kcal/mol)

>  <smiles>  (35) 
Cc1ccc(S(=O)(=O)N2CCN(c3ncccn3)CC2)c(C)c1

>  <score_type>  (35) 
oracle

>  <origin>  (35) 
adg

>  <m_score__min__energy>  (35) 
-7.9400000000000004

>  <m_primary>  (35) 
energy

$$$$
35:0
     RDKit          3D

 40 41  0  0  0  0  0  0  0  0999 V2000
   55.1380   24.9250   45.7150 C   0  0  0  0  0  0  0  0  0  0  0  0
   55.3320   26.3060   46.0170 O   0  0  0  0  0  0  0  0  0  0  0  0
   56.5550   26.9910   45.9090 C   0  0  0  0  0  0  0  0  0  0  0  0
   57.7490   26.4120   46.3800 C   0  0  0  0  0  0  0  0  0  0  0  0
   58.9640   27.0950   46.2700 C   0  0  0  0  0  0  0  0  0  0  0  0
   59.0230   28.3670   45.6770 C   0  0  0  0  0  0  0  0  0  0  0  0
   60.3480   29.1090   45.6450 C   0  0  0  0  0  0  0  0  0  0  0  0
   60.2550   30.5140   46.0840 N   0  0  0  0  0  0  0  0  0  0  0  0
   60.2830   30.6590   47.5470 C   0  0  0  0  0  0  0  0  0  0  0  0
   58.8720   30.8930   48.0770 C   0  0  0  0  0  0  0  0  0  0  0  0
   58.4910   32.6800   48.0680 S   0  0  0  0  0  0  0  0  0  0  0  0
   58.1310   32.7150   46.3120 C   0  0  0  0  0  0  0  0  0  0  0  0
   57.3970   31.7920   45.6670 N   0  0  0  0  0  0  0  0  0  0  0  0
   57.3670   32.2010   44.4040 N   0  0  0  0  0  0  0  0  0  0  0  0
   58.0480   33.3310   44.2740 N   0  0  0  0  0  0  0  0  0  0  0  0
   58.5310   33.6680   45.4550 N   0  0  0  0  0  0  0  0  0  0  0  0
   59.3340   34.8490   45.7310 C   0  0  0  0  0  0  0  0  0  0  0  0
   57.8280   28.9600   45.2270 C   0  0  0  0  0  0  0  0  0  0  0  0
   56.6000   28.2870   45.3250 C   0  0  0  0  0  0  0  0  0  0  0  0
   55.4740   28.9610   44.8250 O   0  0  0  0  0  0  0  0  0  0  0  0
   55.4140   29.7530   43.6420 C   0  0  0  0  0  0  0  0  0  0  0  0
   55.0576   24.3528   46.6510 H   0  0  0  0  0  0  0  0  0  0  0  0
   54.2140   24.8037   45.1306 H   0  0  0  0  0  0  0  0  0  0  0  0
   55.9928   24.5539   45.1306 H   0  0  0  0  0  0  0  0  0  0  0  0
   57.7256   25.4126   46.8390 H   0  0  0  0  0  0  0  0  0  0  0  0
   59.8849   26.6306   46.6525 H   0  0  0  0  0  0  0  0  0  0  0  0
   61.0546   28.5854   46.3057 H   0  0  0  0  0  0  0  0  0  0  0  0
   60.6820   29.1226   44.5970 H   0  0  0  0  0  0  0  0  0  0  0  0
   59.4000   30.9760   45.6960 H   0  0  0  0  0  0  0  0  0  0  0  0
   60.6930   29.7422   47.9958 H   0  0  0  0  0  0  0  0  0  0  0  0
   60.9147   31.5198   47.8117 H   0  0  0  0  0  0  0  0  0  0  0  0
   58.1501   30.3632   47.4381 H   0  0  0  0  0  0  0  0  0  0  0  0
   58.8054   30.5143   49.1076 H   0  0  0  0  0  0  0  0  0  0  0  0
   59.4258   34.9840   46.8188 H   0  0  0  0  0  0  0  0  0  0  0  0
   60.3345   34.7231   45.2914 H   0  0  0  0  0  0  0  0  0  0  0  0
   58.8490   35.7331   45.2914 H   0  0  0  0  0  0  0  0  0  0  0  0
   57.8572   29.9693   44.7906 H   0  0  0  0  0  0  0  0  0  0  0  0
   55.3335   30.8154   43.9157 H   0  0  0  0  0  0  0  0  0  0  0  0
   56.3267   29.5954   43.0485 H   0  0  0  0  0  0  0  0  0  0  0  0
   54.5355   29.4597   43.0485 H   0  0  0  0  0  0  0  0  0  0  0  0
  1  2  1  0
  2  3  1  0
  3  4  2  0
  4  5  1  0
  5  6  2  0
  6  7  1  0
  7  8  1  0
  8  9  1  0
  9 10  1  0
 10 11  1  0
 11 12  1  0
 12 13  2  0
 13 14  1  0
 14 15  2  0
 15 16  1  0
 16 17  1  0
  6 18  1  0
 18 19  2  0
 19 20  1  0
 20 21  1  0
 19  3  1  0
 16 12  1  0
  1 22  1  0
  1 23  1  0
  1 24  1  0
  4 25  1  0
  5 26  1  0
  7 27  1  0
  7 28  1  0
  8 29  1  0
  9 30  1  0
  9 31  1  0
 10 32  1  0
 10 33  1  0
 17 34  1  0
 17 35  1  0
 17 36  1  0
 18 37  1  0
 21 38  1  0
 21 39  1  0
 21 40  1  0
M  END
>  <UniqueID>  (36) 
36

>  <SMILES>  (36) 
COc1ccc(CNCCSc2nnnn2C)cc1OC

>  <Energy>  (36) 
79.21382519203273

>  <Genealogy>  (36) 
COc1ccc(CNCCSc2nnnn2C)cc1OC (3D coordinates assigned)
COc1ccc(CNCCSc2nnnn2C)cc1OC (optimized conformer: 79.21382519203273 kcal/mol)

>  <smiles>  (36) 
COc1ccc(CNCCSc2nnnn2C)cc1OC

>  <score_type>  (36) 
oracle

>  <origin>  (36) 
adg

>  <m_score__min__energy>  (36) 
-7.1699999999999999

>  <m_primary>  (36) 
energy

$$$$
36:0
     RDKit          3D

 45 46  0  0  0  0  0  0  0  0999 V2000
   55.8390   25.4860   45.9090 H   0  0  0  0  0  0  0  0  0  0  0  0
   55.5330   26.4450   46.0180 O   0  0  0  0  0  0  0  0  0  0  0  0
   56.3420   27.5040   45.6170 C   0  0  0  0  0  0  0  0  0  0  0  0
   55.7750   28.6600   45.1930 N   0  0  0  0  0  0  0  0  0  0  0  0
   56.5240   29.7280   44.8220 C   0  0  0  0  0  0  0  0  0  0  0  0
   55.9400   30.7820   44.4510 O   0  0  0  0  0  0  0  0  0  0  0  0
   57.8940   29.6620   44.8680 N   0  0  0  0  0  0  0  0  0  0  0  0
   58.7000   30.8500   44.5210 C   0  0  0  0  0  0  0  0  0  0  0  0
   59.7643   30.6297   44.6907 H   0  0  0  0  0  0  0  0  0  0  0  0
   58.5337   31.1013   43.4631 H   0  0  0  0  0  0  0  0  0  0  0  0
   58.2940   32.0130   45.3700 C   0  0  0  0  0  0  0  0  0  0  0  0
   58.0670   31.9350   46.6600 O   0  0  0  0  0  0  0  0  0  0  0  0
   57.7740   33.1370   47.1050 C   0  0  0  0  0  0  0  0  0  0  0  0
   57.5325   33.3837   48.1494 H   0  0  0  0  0  0  0  0  0  0  0  0
   57.8150   34.0430   46.0640 C   0  0  0  0  0  0  0  0  0  0  0  0
   57.6186   35.1239   46.1195 H   0  0  0  0  0  0  0  0  0  0  0  0
   58.1520   33.3180   44.9410 C   0  0  0  0  0  0  0  0  0  0  0  0
   58.2809   33.6992   43.9173 H   0  0  0  0  0  0  0  0  0  0  0  0
   58.5040   28.5100   45.3030 C   0  0  0  0  0  0  0  0  0  0  0  0
   59.7630   28.4420   45.3810 O   0  0  0  0  0  0  0  0  0  0  0  0
   57.7350   27.3930   45.6640 C   0  0  0  0  0  0  0  0  0  0  0  0
   58.3840   26.1570   46.1460 C   0  0  0  0  0  0  0  0  0  0  0  0
   59.2078   26.2440   46.8697 H   0  0  0  0  0  0  0  0  0  0  0  0
   58.0250   24.9700   45.7530 N   0  0  0  0  0  0  0  0  0  0  0  0
   57.3340   23.9800   46.5780 C   0  0  0  0  0  0  0  0  0  0  0  0
   56.7536   24.4972   47.3562 H   0  0  0  0  0  0  0  0  0  0  0  0
   58.0791   23.3175   47.0426 H   0  0  0  0  0  0  0  0  0  0  0  0
   56.3800   23.1330   45.7090 C   0  0  0  0  0  0  0  0  0  0  0  0
   55.5711   22.7550   46.3515 H   0  0  0  0  0  0  0  0  0  0  0  0
   56.9840   22.3262   45.2682 H   0  0  0  0  0  0  0  0  0  0  0  0
   55.7700   23.8760   44.5810 N   0  0  0  0  0  0  0  0  0  0  0  0
   54.3010   23.7250   44.5180 C   0  0  0  0  0  0  0  0  0  0  0  0
   54.0581   22.7763   44.0170 H   0  0  0  0  0  0  0  0  0  0  0  0
   53.8851   24.5748   43.9568 H   0  0  0  0  0  0  0  0  0  0  0  0
   53.6910   23.7210   45.9170 C   0  0  0  0  0  0  0  0  0  0  0  0
   54.4951   23.7263   46.6676 H   0  0  0  0  0  0  0  0  0  0  0  0
   53.0632   24.6150   46.0458 H   0  0  0  0  0  0  0  0  0  0  0  0
   53.0750   22.8188   46.0458 H   0  0  0  0  0  0  0  0  0  0  0  0
   56.4500   23.6200   43.2890 C   0  0  0  0  0  0  0  0  0  0  0  0
   55.8356   24.0151   42.4666 H   0  0  0  0  0  0  0  0  0  0  0  0
   57.4308   24.1180   43.2856 H   0  0  0  0  0  0  0  0  0  0  0  0
   56.6410   22.1210   43.1050 C   0  0  0  0  0  0  0  0  0  0  0  0
   56.7028   21.6356   44.0902 H   0  0  0  0  0  0  0  0  0  0  0  0
   55.7881   21.7086   42.5459 H   0  0  0  0  0  0  0  0  0  0  0  0
   57.5700   21.9356   42.5459 H   0  0  0  0  0  0  0  0  0  0  0  0
  1  2  1  0
  2  3  1  0
  3  4  1  0
  4  5  1  0
  5  6  2  0
  5  7  1  0
  7  8  1  0
  8  9  1  0
  8 10  1  0
  8 11  1  0
 11 12  1  0
 12 13  1  0
 13 14  1  0
 13 15  2  0
 15 16  1  0
 15 17  1  0
 17 18  1  0
  7 19  1  0
 19 20  2  0
 19 21  1  0
 21 22  1  0
 22 23  1  0
 22 24  2  0
 24 25  1  0
 25 26  1  0
 25 27  1  0
 25 28  1  0
 28 29  1  0
 28 30  1  0
 28 31  1  0
 31 32  1  0
 32 33  1  0
 32 34  1  0
 32 35  1  0
 35 36  1  0
 35 37  1  0
 35 38  1  0
 31 39  1  0
 39 40  1  0
 39 41  1  0
 39 42  1  0
 42 43  1  0
 42 44  1  0
 42 45  1  0
 21  3  2  0
 17 11  2  0
M  CHG  1   4  -1
M  END
>  <UniqueID>  (37) 
37

>  <SMILES>  (37) 
CCN(CC)CC/N=C\c1c(O)[n-]c(=O)n(Cc2ccco2)c1=O

>  <Energy>  (37) 
81.09768194536531

>  <Genealogy>  (37) 
CCN(CC)CCN=Cc1c(O)[n-]c(=O)n(Cc2ccco2)c1=O (protonated)
CCN(CC)CC/N=C\c1c(O)[n-]c(=O)n(Cc2ccco2)c1=O (cis-trans isomerization)
CCN(CC)CC/N=C\c1c(O)[n-]c(=O)n(Cc2ccco2)c1=O (3D coordinates assigned)
CCN(CC)CC/N=C\c1c(O)[n-]c(=O)n(Cc2ccco2)c1=O (optimized conformer: 81.09768194536531 kcal/mol)

>  <smiles>  (37) 
CCN(CC)CCN=Cc1c(O)[nH]c(=O)n(Cc2ccco2)c1=O

>  <score_type>  (37) 
oracle

>  <origin>  (37) 
adg

>  <m_score__min__energy>  (37) 
-7.96

>  <m_primary>  (37) 
energy

$$$$
37:0
     RDKit          3D

 42 43  0  0  0  0  0  0  0  0999 V2000
   63.1770   33.7830   46.7270 C   0  0  0  0  0  0  0  0  0  0  0  0
   62.1770   33.7310   47.3990 C   0  0  0  0  0  0  0  0  0  0  0  0
   60.9590   33.6630   48.2160 C   0  0  0  0  0  0  0  0  0  0  0  0
   59.8770   34.6040   47.6770 C   0  0  0  0  0  0  0  0  0  0  0  0
   59.1020   33.9560   46.6220 N   0  0  0  0  0  0  0  0  0  0  0  0
   58.8790   32.6330   46.5020 C   0  0  0  0  0  0  0  0  0  0  0  0
   58.0560   32.4430   45.4130 C   0  0  0  0  0  0  0  0  0  0  0  0
   57.5380   31.1690   44.9090 C   0  0  0  0  0  0  0  0  0  0  0  0
   58.2750   30.0420   44.8330 N   0  0  0  0  0  0  0  0  0  0  0  0
   57.4090   29.1500   44.3170 C   0  0  0  0  0  0  0  0  0  0  0  0
   57.7600   27.7280   44.0010 C   0  0  0  0  0  0  0  0  0  0  0  0
   57.7400   26.9010   45.2280 N   0  0  0  0  0  0  0  0  0  0  0  0
   59.0990   26.7760   45.8220 C   0  0  0  0  0  0  0  0  0  0  0  0
   59.0790   27.2260   47.2860 C   0  0  0  0  0  0  0  0  0  0  0  0
   57.7640   27.4130   47.7330 O   0  0  0  0  0  0  0  0  0  0  0  0
   57.1420   25.5760   44.9350 C   0  0  0  0  0  0  0  0  0  0  0  0
   55.7970   25.3980   45.6470 C   0  0  0  0  0  0  0  0  0  0  0  0
   55.2690   26.6450   46.0090 O   0  0  0  0  0  0  0  0  0  0  0  0
   56.1930   29.7570   44.0970 C   0  0  0  0  0  0  0  0  0  0  0  0
   56.3070   31.0050   44.4750 O   0  0  0  0  0  0  0  0  0  0  0  0
   57.8080   33.7070   44.9140 C   0  0  0  0  0  0  0  0  0  0  0  0
   58.4540   34.6150   45.6730 N   0  0  0  0  0  0  0  0  0  0  0  0
   64.0892   33.8304   46.1140 H   0  0  0  0  0  0  0  0  0  0  0  0
   60.5761   32.6319   48.2041 H   0  0  0  0  0  0  0  0  0  0  0  0
   61.2098   33.9719   49.2415 H   0  0  0  0  0  0  0  0  0  0  0  0
   59.2021   34.8852   48.4988 H   0  0  0  0  0  0  0  0  0  0  0  0
   60.3642   35.4967   47.2578 H   0  0  0  0  0  0  0  0  0  0  0  0
   59.2816   31.8454   47.1560 H   0  0  0  0  0  0  0  0  0  0  0  0
   57.0300   27.3266   43.2827 H   0  0  0  0  0  0  0  0  0  0  0  0
   58.7722   27.6999   43.5712 H   0  0  0  0  0  0  0  0  0  0  0  0
   59.4238   25.7264   45.7688 H   0  0  0  0  0  0  0  0  0  0  0  0
   59.7969   27.4137   45.2596 H   0  0  0  0  0  0  0  0  0  0  0  0
   59.5644   26.4577   47.9058 H   0  0  0  0  0  0  0  0  0  0  0  0
   59.6176   28.1816   47.3677 H   0  0  0  0  0  0  0  0  0  0  0  0
   57.1720   26.9700   47.0700 H   0  0  0  0  0  0  0  0  0  0  0  0
   56.9868   25.4858   43.8497 H   0  0  0  0  0  0  0  0  0  0  0  0
   57.8304   24.7985   45.2977 H   0  0  0  0  0  0  0  0  0  0  0  0
   55.0938   24.8884   44.9719 H   0  0  0  0  0  0  0  0  0  0  0  0
   55.9500   24.7970   46.5555 H   0  0  0  0  0  0  0  0  0  0  0  0
   55.9880   27.1270   46.4960 H   0  0  0  0  0  0  0  0  0  0  0  0
   55.2927   29.2814   43.6808 H   0  0  0  0  0  0  0  0  0  0  0  0
   57.1836   33.9360   44.0379 H   0  0  0  0  0  0  0  0  0  0  0  0
  1  2  3  0
  2  3  1  0
  3  4  1  0
  4  5  1  0
  5  6  1  0
  6  7  2  0
  7  8  1  0
  8  9  2  0
  9 10  1  0
 10 11  1  0
 11 12  1  0
 12 13  1  0
 13 14  1  0
 14 15  1  0
 12 16  1  0
 16 17  1  0
 17 18  1  0
 10 19  2  0
 19 20  1  0
  7 21  1  0
 21 22  2  0
 22  5  1  0
 20  8  1  0
  1 23  1  0
  3 24  1  0
  3 25  1  0
  4 26  1  0
  4 27  1  0
  6 28  1  0
 11 29  1  0
 11 30  1  0
 13 31  1  0
 13 32  1  0
 14 33  1  0
 14 34  1  0
 15 35  1  0
 16 36  1  0
 16 37  1  0
 17 38  1  0
 17 39  1  0
 18 40  1  0
 19 41  1  0
 21 42  1  0
M  END
>  <UniqueID>  (38) 
38

>  <SMILES>  (38) 
C#CCCn1cc(-c2nc(CN(CCO)CCO)co2)cn1

>  <Energy>  (38) 
93.1931752537313

>  <Genealogy>  (38) 
C#CCCn1cc(-c2nc(CN(CCO)CCO)co2)cn1 (3D coordinates assigned)
C#CCCn1cc(-c2nc(CN(CCO)CCO)co2)cn1 (optimized conformer: 93.1931752537313 kcal/mol)

>  <smiles>  (38) 
C#CCCn1cc(-c2nc(CN(CCO)CCO)co2)cn1

>  <score_type>  (38) 
oracle

>  <origin>  (38) 
adg

>  <m_score__min__energy>  (38) 
-5.8899999999999997

>  <m_primary>  (38) 
energy

$$$$
39:0
     RDKit          3D

 65 68  0  0  0  0  0  0  0  0999 V2000
   66.2240   26.3780   51.2590 C   0  0  0  0  0  0  0  0  0  0  0  0
   64.9330   25.8580   51.9040 C   0  0  0  0  0  0  0  0  0  0  0  0
   64.1720   26.8590   52.7080 N   0  0  0  0  0  0  0  0  0  0  0  0
   62.7290   26.9260   52.3360 C   0  0  0  0  0  0  0  0  0  0  0  0
   62.1010   25.5980   51.8670 C   0  0  0  0  0  0  0  0  0  0  0  0
   64.4060   26.7690   54.1750 C   0  0  0  0  0  0  0  0  0  0  0  0
   65.1990   27.9680   54.7340 C   0  0  0  0  0  0  0  0  0  0  0  0
   66.1550   28.4540   53.7380 N   0  0  0  0  0  0  0  0  0  0  0  0
   65.8900   29.5220   52.8050 C   0  0  0  0  0  0  0  0  0  0  0  0
   66.8240   29.7960   51.7990 C   0  0  0  0  0  0  0  0  0  0  0  0
   66.6030   30.8290   50.8850 C   0  0  0  0  0  0  0  0  0  0  0  0
   65.4350   31.6030   50.9520 C   0  0  0  0  0  0  0  0  0  0  0  0
   64.5010   31.3520   51.9690 C   0  0  0  0  0  0  0  0  0  0  0  0
   64.7270   30.3120   52.8860 C   0  0  0  0  0  0  0  0  0  0  0  0
   63.2790   32.2070   52.0840 C   0  0  0  0  0  0  0  0  0  0  0  0
   62.4390   31.9930   50.9610 O   0  0  0  0  0  0  0  0  0  0  0  0
   62.6950   32.4500   49.6600 C   0  0  0  0  0  0  0  0  0  0  0  0
   61.5940   32.5170   48.7960 C   0  0  0  0  0  0  0  0  0  0  0  0
   61.7160   33.0290   47.4970 C   0  0  0  0  0  0  0  0  0  0  0  0
   60.5340   33.1050   46.6040 C   0  0  0  0  0  0  0  0  0  0  0  0
   60.1590   34.2920   46.0930 C   0  0  0  0  0  0  0  0  0  0  0  0
   59.0110   34.4320   45.1290 C   0  0  0  0  0  0  0  0  0  0  0  0
   58.0290   33.3340   45.2320 N   0  0  0  0  0  0  0  0  0  0  0  0
   57.1280   33.5060   46.3840 C   0  0  0  0  0  0  0  0  0  0  0  0
   58.6990   32.0200   45.2280 C   0  0  0  0  0  0  0  0  0  0  0  0
   59.6890   31.8680   46.3920 C   0  0  0  0  0  0  0  0  0  0  0  0
   62.9700   33.4760   47.0610 C   0  0  0  0  0  0  0  0  0  0  0  0
   64.0820   33.3900   47.8960 C   0  0  0  0  0  0  0  0  0  0  0  0
   63.9780   32.8580   49.1960 C   0  0  0  0  0  0  0  0  0  0  0  0
   65.2370   32.6960   49.9760 C   0  0  0  0  0  0  0  0  0  0  0  0
   66.2070   33.4660   49.7420 O   0  0  0  0  0  0  0  0  0  0  0  0
   66.9371   26.6652   52.0458 H   0  0  0  0  0  0  0  0  0  0  0  0
   66.6659   25.5877   50.6343 H   0  0  0  0  0  0  0  0  0  0  0  0
   65.9948   27.2539   50.6343 H   0  0  0  0  0  0  0  0  0  0  0  0
   64.2742   25.4959   51.1010 H   0  0  0  0  0  0  0  0  0  0  0  0
   65.2413   25.0728   52.6100 H   0  0  0  0  0  0  0  0  0  0  0  0
   64.5640   27.7860   52.4090 H   0  0  0  0  0  0  0  0  0  0  0  0
   62.1681   27.2737   53.2161 H   0  0  0  0  0  0  0  0  0  0  0  0
   62.6710   27.6078   51.4747 H   0  0  0  0  0  0  0  0  0  0  0  0
   61.8168   24.9971   52.7434 H   0  0  0  0  0  0  0  0  0  0  0  0
   61.2072   25.8088   51.2615 H   0  0  0  0  0  0  0  0  0  0  0  0
   62.8310   25.0408   51.2615 H   0  0  0  0  0  0  0  0  0  0  0  0
   63.4314   26.7258   54.6833 H   0  0  0  0  0  0  0  0  0  0  0  0
   65.0051   25.8647   54.3575 H   0  0  0  0  0  0  0  0  0  0  0  0
   64.4998   28.7774   54.9909 H   0  0  0  0  0  0  0  0  0  0  0  0
   65.7491   27.6462   55.6306 H   0  0  0  0  0  0  0  0  0  0  0  0
   67.1050   28.0170   53.7380 H   0  0  0  0  0  0  0  0  0  0  0  0
   67.7407   29.1922   51.7275 H   0  0  0  0  0  0  0  0  0  0  0  0
   67.3513   31.0373   50.1061 H   0  0  0  0  0  0  0  0  0  0  0  0
   63.9877   30.1126   53.6757 H   0  0  0  0  0  0  0  0  0  0  0  0
   62.7345   31.9451   53.0032 H   0  0  0  0  0  0  0  0  0  0  0  0
   63.5767   33.2653   52.1202 H   0  0  0  0  0  0  0  0  0  0  0  0
   60.6135   32.1603   49.1444 H   0  0  0  0  0  0  0  0  0  0  0  0
   60.7124   35.1947   46.3910 H   0  0  0  0  0  0  0  0  0  0  0  0
   58.4961   35.3822   45.3339 H   0  0  0  0  0  0  0  0  0  0  0  0
   59.4312   34.4011   44.1129 H   0  0  0  0  0  0  0  0  0  0  0  0
   57.7006   33.3967   47.3168 H   0  0  0  0  0  0  0  0  0  0  0  0
   56.6736   34.5071   46.3478 H   0  0  0  0  0  0  0  0  0  0  0  0
   56.3368   32.7427   46.3478 H   0  0  0  0  0  0  0  0  0  0  0  0
   57.9348   31.2329   45.3083 H   0  0  0  0  0  0  0  0  0  0  0  0
   59.2666   31.9341   44.2897 H   0  0  0  0  0  0  0  0  0  0  0  0
   59.1217   31.6671   47.3128 H   0  0  0  0  0  0  0  0  0  0  0  0
   60.3687   31.0393   46.1445 H   0  0  0  0  0  0  0  0  0  0  0  0
   63.0776   33.8984   46.0510 H   0  0  0  0  0  0  0  0  0  0  0  0
   65.0584   33.7438   47.5336 H   0  0  0  0  0  0  0  0  0  0  0  0
  1  2  1  0
  2  3  1  0
  3  4  1  0
  4  5  1  0
  3  6  1  0
  6  7  1  0
  7  8  1  0
  8  9  1  0
  9 10  2  0
 10 11  1  0
 11 12  2  0
 12 13  1  0
 13 14  2  0
 13 15  1  0
 15 16  1  0
 16 17  1  0
 17 18  2  0
 18 19  1  0
 19 20  1  0
 20 21  2  0
 21 22  1  0
 22 23  1  0
 23 24  1  0
 23 25  1  0
 25 26  1  0
 19 27  2  0
 27 28  1  0
 28 29  2  0
 29 30  1  0
 30 31  2  0
 14  9  1  0
 29 17  1  0
 30 12  1  0
 26 20  1  0
  1 32  1  0
  1 33  1  0
  1 34  1  0
  2 35  1  0
  2 36  1  0
  3 37  1  0
  4 38  1  0
  4 39  1  0
  5 40  1  0
  5 41  1  0
  5 42  1  0
  6 43  1  0
  6 44  1  0
  7 45  1  0
  7 46  1  0
  8 47  1  0
 10 48  1  0
 11 49  1  0
 14 50  1  0
 15 51  1  0
 15 52  1  0
 18 53  1  0
 21 54  1  0
 22 55  1  0
 22 56  1  0
 24 57  1  0
 24 58  1  0
 24 59  1  0
 25 60  1  0
 25 61  1  0
 26 62  1  0
 26 63  1  0
 27 64  1  0
 28 65  1  0
M  CHG  1   3   1
M  END
>  <UniqueID>  (39) 
39

>  <SMILES>  (39) 
CC[NH+](CC)CCNc1ccc2c(c1)COc1cc(C3=CCN(C)CC3)ccc1C2=O

>  <Energy>  (39) 
97.94077653475355

>  <Genealogy>  (39) 
CC[NH+](CC)CCNc1ccc2c(c1)COc1cc(C3=CCN(C)CC3)ccc1C2=O (protonated)
CC[NH+](CC)CCNc1ccc2c(c1)COc1cc(C3=CCN(C)CC3)ccc1C2=O (3D coordinates assigned)
CC[NH+](CC)CCNc1ccc2c(c1)COc1cc(C3=CCN(C)CC3)ccc1C2=O (nonaromatic ring conformer: 97.94077653475355 kcal/mol)

>  <smiles>  (39) 
CCN(CC)CCNc1ccc2c(c1)COc1cc(C3=CCN(C)CC3)ccc1C2=O

>  <score_type>  (39) 
oracle

>  <origin>  (39) 
adg

>  <m_score__min__energy>  (39) 
-6.3899999999999997

>  <m_primary>  (39) 
energy

$$$$
40:0
     RDKit          3D

 59 61  0  0  0  0  0  0  0  0999 V2000
   59.6560   29.2610   49.7480 C   0  0  0  0  0  0  0  0  0  0  0  0
   61.1170   29.0650   50.1690 C   0  0  0  0  0  0  0  0  0  0  0  0
   61.6770   30.2680   50.8390 N   0  0  1  0  0  0  0  0  0  0  0  0
   60.9150   30.6260   52.0510 C   0  0  0  0  0  0  0  0  0  0  0  0
   63.1310   30.1250   51.1180 C   0  0  0  0  0  0  0  0  0  0  0  0
   63.9150   31.4510   51.1950 C   0  0  0  0  0  0  0  0  0  0  0  0
   63.1670   32.4950   50.6090 O   0  0  0  0  0  0  0  0  0  0  0  0
   63.8600   33.0040   49.4900 C   0  0  0  0  0  0  0  0  0  0  0  0
   63.3560   32.3060   48.2290 C   0  0  0  0  0  0  0  0  0  0  0  0
   62.1090   31.6540   48.4720 O   0  0  0  0  0  0  0  0  0  0  0  0
   61.0780   31.4560   47.5320 C   0  0  0  0  0  0  0  0  0  0  0  0
   60.9920   30.2740   46.7750 C   0  0  0  0  0  0  0  0  0  0  0  0
   59.9690   30.0930   45.8490 C   0  0  0  0  0  0  0  0  0  0  0  0
   59.0020   31.0840   45.6580 C   0  0  0  0  0  0  0  0  0  0  0  0
   57.9710   30.8820   44.7250 C   0  0  0  0  0  0  0  0  0  0  0  0
   56.9950   31.8600   44.5310 C   0  0  0  0  0  0  0  0  0  0  0  0
   57.0370   33.0450   45.2650 C   0  0  0  0  0  0  0  0  0  0  0  0
   58.0570   33.2620   46.1930 C   0  0  0  0  0  0  0  0  0  0  0  0
   59.0610   32.2890   46.4060 C   0  0  0  0  0  0  0  0  0  0  0  0
   60.1170   32.4790   47.3450 C   0  0  0  0  0  0  0  0  0  0  0  0
   60.2070   33.7470   48.1790 C   0  0  0  0  0  0  0  0  0  0  0  0
   60.5010   33.4270   49.5790 N   0  0  0  0  0  0  0  0  0  0  0  0
   59.4800   33.1810   50.5640 C   0  0  0  0  0  0  0  0  0  0  0  0
   59.4420   33.8780   51.7860 C   0  0  0  0  0  0  0  0  0  0  0  0
   58.4400   33.6060   52.7230 C   0  0  0  0  0  0  0  0  0  0  0  0
   57.4600   32.6510   52.4460 C   0  0  0  0  0  0  0  0  0  0  0  0
   57.4900   31.9540   51.2390 C   0  0  0  0  0  0  0  0  0  0  0  0
   58.4930   32.2170   50.3020 C   0  0  0  0  0  0  0  0  0  0  0  0
   59.0243   29.3457   50.6445 H   0  0  0  0  0  0  0  0  0  0  0  0
   59.5671   30.1791   49.1487 H   0  0  0  0  0  0  0  0  0  0  0  0
   59.3283   28.3988   49.1487 H   0  0  0  0  0  0  0  0  0  0  0  0
   61.1738   28.2143   50.8640 H   0  0  0  0  0  0  0  0  0  0  0  0
   61.7076   28.8807   49.2595 H   0  0  0  0  0  0  0  0  0  0  0  0
   61.5950   31.0760   50.1780 H   0  0  0  0  0  0  0  0  0  0  0  0
   61.4966   30.3528   52.9438 H   0  0  0  0  0  0  0  0  0  0  0  0
   60.7221   31.7089   52.0563 H   0  0  0  0  0  0  0  0  0  0  0  0
   59.9583   30.0831   52.0563 H   0  0  0  0  0  0  0  0  0  0  0  0
   63.2439   29.6058   52.0811 H   0  0  0  0  0  0  0  0  0  0  0  0
   63.5530   29.5680   50.2685 H   0  0  0  0  0  0  0  0  0  0  0  0
   64.1145   31.6944   52.2490 H   0  0  0  0  0  0  0  0  0  0  0  0
   64.8634   31.3391   50.6491 H   0  0  0  0  0  0  0  0  0  0  0  0
   63.6820   34.0864   49.4078 H   0  0  0  0  0  0  0  0  0  0  0  0
   64.9383   32.8217   49.6081 H   0  0  0  0  0  0  0  0  0  0  0  0
   63.2228   33.0530   47.4326 H   0  0  0  0  0  0  0  0  0  0  0  0
   64.0952   31.5497   47.9263 H   0  0  0  0  0  0  0  0  0  0  0  0
   61.7427   29.4826   46.9166 H   0  0  0  0  0  0  0  0  0  0  0  0
   59.9211   29.1632   45.2631 H   0  0  0  0  0  0  0  0  0  0  0  0
   57.9332   29.9483   44.1447 H   0  0  0  0  0  0  0  0  0  0  0  0
   56.1913   31.6961   43.7981 H   0  0  0  0  0  0  0  0  0  0  0  0
   56.2633   33.8118   45.1121 H   0  0  0  0  0  0  0  0  0  0  0  0
   58.0801   34.2010   46.7654 H   0  0  0  0  0  0  0  0  0  0  0  0
   61.0079   34.3862   47.7789 H   0  0  0  0  0  0  0  0  0  0  0  0
   59.2408   34.2707   48.1315 H   0  0  0  0  0  0  0  0  0  0  0  0
   61.4990   33.3070   49.8670 H   0  0  0  0  0  0  0  0  0  0  0  0
   60.2040   34.6404   52.0052 H   0  0  0  0  0  0  0  0  0  0  0  0
   58.4240   34.1461   53.6811 H   0  0  0  0  0  0  0  0  0  0  0  0
   56.6652   32.4488   53.1791 H   0  0  0  0  0  0  0  0  0  0  0  0
   56.7228   31.1957   51.0237 H   0  0  0  0  0  0  0  0  0  0  0  0
   58.5095   31.6642   49.3511 H   0  0  0  0  0  0  0  0  0  0  0  0
  1  2  1  0
  2  3  1  0
  3  4  1  0
  3  5  1  0
  5  6  1  0
  6  7  1  0
  7  8  1  0
  8  9  1  0
  9 10  1  0
 10 11  1  0
 11 12  2  0
 12 13  1  0
 13 14  2  0
 14 15  1  0
 15 16  2  0
 16 17  1  0
 17 18  2  0
 18 19  1  0
 19 20  2  0
 20 21  1  0
 21 22  1  0
 22 23  1  0
 23 24  2  0
 24 25  1  0
 25 26  2  0
 26 27  1  0
 27 28  2  0
 20 11  1  0
 28 23  1  0
 19 14  1  0
  1 29  1  0
  1 30  1  0
  1 31  1  0
  2 32  1  0
  2 33  1  0
  3 34  1  6
  4 35  1  0
  4 36  1  0
  4 37  1  0
  5 38  1  0
  5 39  1  0
  6 40  1  0
  6 41  1  0
  8 42  1  0
  8 43  1  0
  9 44  1  0
  9 45  1  0
 12 46  1  0
 13 47  1  0
 15 48  1  0
 16 49  1  0
 17 50  1  0
 18 51  1  0
 21 52  1  0
 21 53  1  0
 22 54  1  0
 24 55  1  0
 25 56  1  0
 26 57  1  0
 27 58  1  0
 28 59  1  0
M  CHG  1   3   1
M  END
>  <UniqueID>  (40) 
40

>  <SMILES>  (40) 
CC[N@@H+](C)CCOCCOc1ccc2ccccc2c1CNc1ccccc1

>  <Energy>  (40) 
67.847238440756

>  <Genealogy>  (40) 
CC[NH+](C)CCOCCOc1ccc2ccccc2c1CNc1ccccc1 (protonated)
CC[N@@H+](C)CCOCCOc1ccc2ccccc2c1CNc1ccccc1 (chirality)
CC[N@@H+](C)CCOCCOc1ccc2ccccc2c1CNc1ccccc1 (3D coordinates assigned)
CC[N@@H+](C)CCOCCOc1ccc2ccccc2c1CNc1ccccc1 (optimized conformer: 67.847238440756 kcal/mol)

>  <smiles>  (40) 
CCN(C)CCOCCOc1ccc2ccccc2c1CNc1ccccc1

>  <score_type>  (40) 
oracle

>  <origin>  (40) 
adg

>  <m_score__min__energy>  (40) 
-4.7000000000000002

>  <m_primary>  (40) 
energy

$$$$
41:0
     RDKit          3D

 52 53  0  0  0  0  0  0  0  0999 V2000
   63.1520   33.8290   46.3860 C   0  0  0  0  0  0  0  0  0  0  0  0
   63.7240   33.0520   47.5760 C   0  0  0  0  0  0  0  0  0  0  0  0
   62.7800   32.9580   48.7230 N   0  0  0  0  0  0  0  0  0  0  0  0
   62.7260   34.2400   49.4760 C   0  0  0  0  0  0  0  0  0  0  0  0
   63.3940   34.1450   50.8530 C   0  0  0  0  0  0  0  0  0  0  0  0
   63.0620   31.8130   49.6320 C   0  0  0  0  0  0  0  0  0  0  0  0
   62.0270   30.6700   49.5650 C   0  0  0  0  0  0  0  0  0  0  0  0
   61.5030   30.5360   48.1960 N   0  0  0  0  0  0  0  0  0  0  0  0
   60.0830   30.1600   48.1970 C   0  0  0  0  0  0  0  0  0  0  0  0
   59.3680   30.8250   47.0460 C   0  0  0  0  0  0  0  0  0  0  0  0
   58.5620   30.0370   46.2080 C   0  0  0  0  0  0  0  0  0  0  0  0
   57.9220   30.6010   45.1030 C   0  0  0  0  0  0  0  0  0  0  0  0
   58.0870   31.9550   44.8150 C   0  0  0  0  0  0  0  0  0  0  0  0
   58.8790   32.7580   45.6420 C   0  0  0  0  0  0  0  0  0  0  0  0
   59.0930   34.6080   45.2030 Br  0  0  0  0  0  0  0  0  0  0  0  0
   59.5010   32.2090   46.7770 C   0  0  0  0  0  0  0  0  0  0  0  0
   60.2590   33.0450   47.6060 O   0  0  0  0  0  0  0  0  0  0  0  0
   59.6680   34.0050   48.4810 C   0  0  0  0  0  0  0  0  0  0  0  0
   59.2970   33.3670   49.7910 C   0  0  0  0  0  0  0  0  0  0  0  0
   59.8580   33.8330   50.9910 C   0  0  0  0  0  0  0  0  0  0  0  0
   59.4740   33.2700   52.2120 C   0  0  0  0  0  0  0  0  0  0  0  0
   58.5230   32.2470   52.2440 C   0  0  0  0  0  0  0  0  0  0  0  0
   58.1480   31.7060   53.4300 F   0  0  0  0  0  0  0  0  0  0  0  0
   57.9510   31.7870   51.0550 C   0  0  0  0  0  0  0  0  0  0  0  0
   58.3340   32.3450   49.8310 C   0  0  0  0  0  0  0  0  0  0  0  0
   62.5375   34.6637   46.7543 H   0  0  0  0  0  0  0  0  0  0  0  0
   63.9772   34.2231   45.7746 H   0  0  0  0  0  0  0  0  0  0  0  0
   62.5306   33.1581   45.7746 H   0  0  0  0  0  0  0  0  0  0  0  0
   63.9712   32.0334   47.2422 H   0  0  0  0  0  0  0  0  0  0  0  0
   64.6117   33.5985   47.9271 H   0  0  0  0  0  0  0  0  0  0  0  0
   61.8260   32.7780   48.3270 H   0  0  0  0  0  0  0  0  0  0  0  0
   63.2393   35.0154   48.8884 H   0  0  0  0  0  0  0  0  0  0  0  0
   61.6662   34.4870   49.6367 H   0  0  0  0  0  0  0  0  0  0  0  0
   62.6317   34.2534   51.6386 H   0  0  0  0  0  0  0  0  0  0  0  0
   63.8883   33.1675   50.9541 H   0  0  0  0  0  0  0  0  0  0  0  0
   64.1412   34.9459   50.9541 H   0  0  0  0  0  0  0  0  0  0  0  0
   64.0469   31.4000   49.3684 H   0  0  0  0  0  0  0  0  0  0  0  0
   63.0215   32.2109   50.6567 H   0  0  0  0  0  0  0  0  0  0  0  0
   62.5079   29.7268   49.8636 H   0  0  0  0  0  0  0  0  0  0  0  0
   61.1946   30.9002   50.2462 H   0  0  0  0  0  0  0  0  0  0  0  0
   61.5840   31.4720   47.7340 H   0  0  0  0  0  0  0  0  0  0  0  0
   59.9960   29.0680   48.0969 H   0  0  0  0  0  0  0  0  0  0  0  0
   59.6251   30.4876   49.1420 H   0  0  0  0  0  0  0  0  0  0  0  0
   58.4340   28.9661   46.4243 H   0  0  0  0  0  0  0  0  0  0  0  0
   57.2864   29.9760   44.4584 H   0  0  0  0  0  0  0  0  0  0  0  0
   57.5930   32.3929   43.9351 H   0  0  0  0  0  0  0  0  0  0  0  0
   60.3864   34.8175   48.6649 H   0  0  0  0  0  0  0  0  0  0  0  0
   58.7575   34.4028   48.0091 H   0  0  0  0  0  0  0  0  0  0  0  0
   60.6017   34.6433   50.9704 H   0  0  0  0  0  0  0  0  0  0  0  0
   59.9215   33.6332   53.1490 H   0  0  0  0  0  0  0  0  0  0  0  0
   57.1986   30.9850   51.0817 H   0  0  0  0  0  0  0  0  0  0  0  0
   57.8798   31.9826   48.8970 H   0  0  0  0  0  0  0  0  0  0  0  0
  1  2  1  0
  2  3  1  0
  3  4  1  0
  4  5  1  0
  3  6  1  0
  6  7  1  0
  7  8  1  0
  8  9  1  0
  9 10  1  0
 10 11  2  0
 11 12  1  0
 12 13  2  0
 13 14  1  0
 14 15  1  0
 14 16  2  0
 16 17  1  0
 17 18  1  0
 18 19  1  0
 19 20  2  0
 20 21  1  0
 21 22  2  0
 22 23  1  0
 22 24  1  0
 24 25  2  0
 16 10  1  0
 25 19  1  0
  1 26  1  0
  1 27  1  0
  1 28  1  0
  2 29  1  0
  2 30  1  0
  3 31  1  0
  4 32  1  0
  4 33  1  0
  5 34  1  0
  5 35  1  0
  5 36  1  0
  6 37  1  0
  6 38  1  0
  7 39  1  0
  7 40  1  0
  8 41  1  0
  9 42  1  0
  9 43  1  0
 11 44  1  0
 12 45  1  0
 13 46  1  0
 18 47  1  0
 18 48  1  0
 20 49  1  0
 21 50  1  0
 24 51  1  0
 25 52  1  0
M  CHG  1   3   1
M  END
>  <UniqueID>  (41) 
41

>  <SMILES>  (41) 
CC[NH+](CC)CCNCc1cccc(Br)c1OCc1ccc(F)cc1

>  <Energy>  (41) 
57.09422658921293

>  <Genealogy>  (41) 
CC[NH+](CC)CCNCc1cccc(Br)c1OCc1ccc(F)cc1 (protonated)
CC[NH+](CC)CCNCc1cccc(Br)c1OCc1ccc(F)cc1 (3D coordinates assigned)
CC[NH+](CC)CCNCc1cccc(Br)c1OCc1ccc(F)cc1 (optimized conformer: 57.09422658921293 kcal/mol)

>  <smiles>  (41) 
CCN(CC)CCNCc1cccc(Br)c1OCc1ccc(F)cc1

>  <score_type>  (41) 
oracle

>  <origin>  (41) 
adg

>  <m_score__min__energy>  (41) 
-4.29

>  <m_primary>  (41) 
energy

$$$$
42:0
     RDKit          3D

 68 73  0  0  0  0  0  0  0  0999 V2000
   55.8910   19.9600   44.3320 C   0  0  0  0  0  0  0  0  0  0  0  0
   56.4040   21.3380   44.3270 N   0  0  0  0  0  0  0  0  0  0  0  0
   56.2860   21.9300   42.9860 C   0  0  0  0  0  0  0  0  0  0  0  0
   56.6340   23.4310   43.0360 C   0  0  0  0  0  0  0  0  0  0  0  0
   57.5620   23.7860   44.1400 N   0  0  0  0  0  0  0  0  0  0  0  0
   56.8520   24.2590   45.3510 C   0  0  0  0  0  0  0  0  0  0  0  0
   57.4420   25.5530   45.8460 C   0  0  0  0  0  0  0  0  0  0  0  0
   58.6850   25.5760   46.4930 C   0  0  0  0  0  0  0  0  0  0  0  0
   59.2280   26.7870   46.9240 C   0  0  0  0  0  0  0  0  0  0  0  0
   58.5200   27.9800   46.7020 C   0  0  0  0  0  0  0  0  0  0  0  0
   59.0460   29.2830   47.1450 C   0  0  0  0  0  0  0  0  0  0  0  0
   58.5950   29.9030   48.2760 N   0  0  0  0  0  0  0  0  0  0  0  0
   59.2770   31.0600   48.4340 C   0  0  0  0  0  0  0  0  0  0  0  0
   60.2380   31.3240   47.5510 C   0  0  0  0  0  0  0  0  0  0  0  0
   60.3530   30.1200   46.3990 S   0  0  0  0  0  0  0  0  0  0  0  0
   61.0850   32.2510   48.0270 N   0  0  0  0  0  0  0  0  0  0  0  0
   62.3870   32.6430   47.4870 C   0  0  0  0  0  0  0  0  0  0  0  0
   62.2510   33.8270   46.5190 C   0  0  0  0  0  0  0  0  0  0  0  0
   61.0610   34.5760   46.7670 O   0  0  0  0  0  0  0  0  0  0  0  0
   59.7780   34.2570   46.2970 C   0  0  0  0  0  0  0  0  0  0  0  0
   58.6570   34.1580   47.1460 C   0  0  0  0  0  0  0  0  0  0  0  0
   57.4100   33.7990   46.6250 C   0  0  0  0  0  0  0  0  0  0  0  0
   57.2680   33.5420   45.2580 C   0  0  0  0  0  0  0  0  0  0  0  0
   58.3710   33.6520   44.4080 C   0  0  0  0  0  0  0  0  0  0  0  0
   59.6190   34.0140   44.9260 C   0  0  0  0  0  0  0  0  0  0  0  0
   60.5470   32.5470   49.2450 C   0  0  0  0  0  0  0  0  0  0  0  0
   61.0510   33.3940   50.0300 O   0  0  0  0  0  0  0  0  0  0  0  0
   59.4290   31.8150   49.5370 N   0  0  0  0  0  0  0  0  0  0  0  0
   58.6750   31.7480   50.7630 C   0  0  0  0  0  0  0  0  0  0  0  0
   58.4940   32.8910   51.5630 C   0  0  0  0  0  0  0  0  0  0  0  0
   57.7630   32.8120   52.7520 C   0  0  0  0  0  0  0  0  0  0  0  0
   57.2100   31.5950   53.1560 C   0  0  0  0  0  0  0  0  0  0  0  0
   57.3870   30.4540   52.3720 C   0  0  0  0  0  0  0  0  0  0  0  0
   58.1180   30.5270   51.1820 C   0  0  0  0  0  0  0  0  0  0  0  0
   57.3150   27.9320   46.0700 N   0  0  0  0  0  0  0  0  0  0  0  0
   56.7690   26.7640   45.6400 C   0  0  0  0  0  0  0  0  0  0  0  0
   58.5160   22.6900   44.4200 C   0  0  0  0  0  0  0  0  0  0  0  0
   57.8080   21.3660   44.7890 C   0  0  0  0  0  0  0  0  0  0  0  0
   55.7643   19.6197   45.3703 H   0  0  0  0  0  0  0  0  0  0  0  0
   54.9207   19.9281   43.8147 H   0  0  0  0  0  0  0  0  0  0  0  0
   56.6042   19.3014   43.8147 H   0  0  0  0  0  0  0  0  0  0  0  0
   56.9781   21.4189   42.3007 H   0  0  0  0  0  0  0  0  0  0  0  0
   55.2516   21.8123   42.6307 H   0  0  0  0  0  0  0  0  0  0  0  0
   57.1039   23.7117   42.0819 H   0  0  0  0  0  0  0  0  0  0  0  0
   55.6951   23.9758   43.2138 H   0  0  0  0  0  0  0  0  0  0  0  0
   55.7906   24.4161   45.1084 H   0  0  0  0  0  0  0  0  0  0  0  0
   56.9563   23.4995   46.1399 H   0  0  0  0  0  0  0  0  0  0  0  0
   59.2336   24.6376   46.6614 H   0  0  0  0  0  0  0  0  0  0  0  0
   60.2027   26.8074   47.4335 H   0  0  0  0  0  0  0  0  0  0  0  0
   63.0479   32.9321   48.3174 H   0  0  0  0  0  0  0  0  0  0  0  0
   62.8082   31.7888   46.9366 H   0  0  0  0  0  0  0  0  0  0  0  0
   63.1211   34.4890   46.6406 H   0  0  0  0  0  0  0  0  0  0  0  0
   62.1994   33.4292   45.4947 H   0  0  0  0  0  0  0  0  0  0  0  0
   58.7635   34.3637   48.2213 H   0  0  0  0  0  0  0  0  0  0  0  0
   56.5390   33.7186   47.2920 H   0  0  0  0  0  0  0  0  0  0  0  0
   56.2874   33.2531   44.8518 H   0  0  0  0  0  0  0  0  0  0  0  0
   58.2583   33.4541   43.3318 H   0  0  0  0  0  0  0  0  0  0  0  0
   60.4828   34.1087   44.2515 H   0  0  0  0  0  0  0  0  0  0  0  0
   58.9299   33.8517   51.2514 H   0  0  0  0  0  0  0  0  0  0  0  0
   57.6231   33.7106   53.3708 H   0  0  0  0  0  0  0  0  0  0  0  0
   56.6350   31.5357   54.0919 H   0  0  0  0  0  0  0  0  0  0  0  0
   56.9508   29.4957   52.6906 H   0  0  0  0  0  0  0  0  0  0  0  0
   58.2580   29.6237   50.5701 H   0  0  0  0  0  0  0  0  0  0  0  0
   55.7952   26.7698   45.1284 H   0  0  0  0  0  0  0  0  0  0  0  0
   59.1327   22.5222   43.5247 H   0  0  0  0  0  0  0  0  0  0  0  0
   59.1277   22.9927   45.2827 H   0  0  0  0  0  0  0  0  0  0  0  0
   58.3515   20.5312   44.3224 H   0  0  0  0  0  0  0  0  0  0  0  0
   57.8054   21.2777   45.8855 H   0  0  0  0  0  0  0  0  0  0  0  0
  1  2  1  0
  2  3  1  0
  3  4  1  0
  4  5  1  0
  5  6  1  0
  6  7  1  0
  7  8  2  0
  8  9  1  0
  9 10  2  0
 10 11  1  0
 11 12  2  0
 12 13  1  0
 13 14  2  0
 14 15  1  0
 14 16  1  0
 16 17  1  0
 17 18  1  0
 18 19  1  0
 19 20  1  0
 20 21  2  0
 21 22  1  0
 22 23  2  0
 23 24  1  0
 24 25  2  0
 16 26  1  0
 26 27  2  0
 26 28  1  0
 28 29  1  0
 29 30  2  0
 30 31  1  0
 31 32  2  0
 32 33  1  0
 33 34  2  0
 10 35  1  0
 35 36  2  0
  5 37  1  0
 37 38  1  0
 38  2  1  0
 36  7  1  0
 15 11  1  0
 25 20  1  0
 34 29  1  0
 28 13  1  0
  1 39  1  0
  1 40  1  0
  1 41  1  0
  3 42  1  0
  3 43  1  0
  4 44  1  0
  4 45  1  0
  6 46  1  0
  6 47  1  0
  8 48  1  0
  9 49  1  0
 17 50  1  0
 17 51  1  0
 18 52  1  0
 18 53  1  0
 21 54  1  0
 22 55  1  0
 23 56  1  0
 24 57  1  0
 25 58  1  0
 30 59  1  0
 31 60  1  0
 32 61  1  0
 33 62  1  0
 34 63  1  0
 36 64  1  0
 37 65  1  0
 37 66  1  0
 38 67  1  0
 38 68  1  0
M  END
>  <UniqueID>  (42) 
42

>  <SMILES>  (42) 
CN1CCN(Cc2ccc(-c3nc4c(s3)n(CCOc3ccccc3)c(=O)n4-c3ccccc3)nc2)CC1

>  <Energy>  (42) 
176.02126647108497

>  <Genealogy>  (42) 
CN1CCN(Cc2ccc(-c3nc4c(s3)n(CCOc3ccccc3)c(=O)n4-c3ccccc3)nc2)CC1 (3D coordinates assigned)
CN1CCN(Cc2ccc(-c3nc4c(s3)n(CCOc3ccccc3)c(=O)n4-c3ccccc3)nc2)CC1 (nonaromatic ring conformer: 176.02126647108497 kcal/mol)

>  <smiles>  (42) 
CN1CCN(Cc2ccc(-c3nc4c(s3)n(CCOc3ccccc3)c(=O)n4-c3ccccc3)nc2)CC1

>  <score_type>  (42) 
oracle

>  <origin>  (42) 
adg

>  <m_score__min__energy>  (42) 
-8.7100000000000009

>  <m_primary>  (42) 
energy

$$$$
43:0
     RDKit          3D

 38 40  0  0  0  0  0  0  0  0999 V2000
   54.8960   25.3880   45.6220 C   0  0  0  0  0  0  0  0  0  0  0  0
   55.3850   26.6910   45.9240 O   0  0  0  0  0  0  0  0  0  0  0  0
   56.7440   27.0440   45.9620 C   0  0  0  0  0  0  0  0  0  0  0  0
   57.6780   26.3100   46.7220 C   0  0  0  0  0  0  0  0  0  0  0  0
   59.0240   26.6810   46.7400 C   0  0  0  0  0  0  0  0  0  0  0  0
   59.4580   27.7810   46.0020 C   0  0  0  0  0  0  0  0  0  0  0  0
   58.5460   28.5180   45.2430 C   0  0  0  0  0  0  0  0  0  0  0  0
   57.1860   28.1620   45.2190 C   0  0  0  0  0  0  0  0  0  0  0  0
   56.2380   28.9700   44.3680 C   0  0  0  0  0  0  0  0  0  0  0  0
   56.1900   30.3500   44.8380 N   0  0  0  0  0  0  0  0  0  0  0  0
   56.9960   31.4060   44.3010 C   0  0  0  0  0  0  0  0  0  0  0  0
   57.0280   31.5860   43.0530 O   0  0  0  0  0  0  0  0  0  0  0  0
   57.7850   32.2970   45.1970 C   0  0  0  0  0  0  0  0  0  0  0  0
   58.0810   33.6010   44.7850 C   0  0  0  0  0  0  0  0  0  0  0  0
   58.7950   34.4320   45.5810 N   0  0  0  0  0  0  0  0  0  0  0  0
   59.2470   34.0270   46.7990 C   0  0  0  0  0  0  0  0  0  0  0  0
   59.9830   34.9180   47.5950 C   0  0  0  0  0  0  0  0  0  0  0  0
   60.4480   34.5090   48.8410 C   0  0  0  0  0  0  0  0  0  0  0  0
   60.1790   33.2210   49.2870 C   0  0  0  0  0  0  0  0  0  0  0  0
   59.4450   32.3510   48.4790 C   0  0  0  0  0  0  0  0  0  0  0  0
   58.9830   32.7490   47.2480 N   0  0  0  0  0  0  0  0  0  0  0  0
   58.2620   31.8840   46.4610 C   0  0  0  0  0  0  0  0  0  0  0  0
   58.0270   30.7100   46.8640 O   0  0  0  0  0  0  0  0  0  0  0  0
   54.6928   24.8466   46.5578 H   0  0  0  0  0  0  0  0  0  0  0  0
   53.9679   25.4710   45.0375 H   0  0  0  0  0  0  0  0  0  0  0  0
   55.6496   24.8399   45.0375 H   0  0  0  0  0  0  0  0  0  0  0  0
   57.3438   25.4390   47.3048 H   0  0  0  0  0  0  0  0  0  0  0  0
   59.7440   26.1035   47.3384 H   0  0  0  0  0  0  0  0  0  0  0  0
   60.5196   28.0689   46.0174 H   0  0  0  0  0  0  0  0  0  0  0  0
   58.8943   29.3832   44.6598 H   0  0  0  0  0  0  0  0  0  0  0  0
   56.5834   28.9537   43.3238 H   0  0  0  0  0  0  0  0  0  0  0  0
   55.2313   28.5321   44.4377 H   0  0  0  0  0  0  0  0  0  0  0  0
   57.7301   33.9548   43.8044 H   0  0  0  0  0  0  0  0  0  0  0  0
   58.9950   35.3990   45.2390 H   0  0  0  0  0  0  0  0  0  0  0  0
   60.1916   35.9363   47.2351 H   0  0  0  0  0  0  0  0  0  0  0  0
   61.0259   35.2022   49.4700 H   0  0  0  0  0  0  0  0  0  0  0  0
   60.5422   32.8889   50.2708 H   0  0  0  0  0  0  0  0  0  0  0  0
   59.2333   31.3314   48.8333 H   0  0  0  0  0  0  0  0  0  0  0  0
  1  2  1  0
  2  3  1  0
  3  4  2  0
  4  5  1  0
  5  6  2  0
  6  7  1  0
  7  8  2  0
  8  9  1  0
  9 10  1  0
 10 11  1  0
 11 12  2  0
 11 13  1  0
 13 14  2  0
 14 15  1  0
 15 16  2  0
 16 17  1  0
 17 18  2  0
 18 19  1  0
 19 20  2  0
 20 21  1  0
 21 22  1  0
 22 23  2  0
  8  3  1  0
 22 13  1  0
 21 16  1  0
  1 24  1  0
  1 25  1  0
  1 26  1  0
  4 27  1  0
  5 28  1  0
  6 29  1  0
  7 30  1  0
  9 31  1  0
  9 32  1  0
 14 33  1  0
 15 34  1  0
 17 35  1  0
 18 36  1  0
 19 37  1  0
 20 38  1  0
M  CHG  2  10  -1  15   1
M  END
>  <UniqueID>  (43) 
43

>  <SMILES>  (43) 
COc1ccccc1C[N-]C(=O)c1c[nH+]c2ccccn2c1=O

>  <Energy>  (43) 
47.26845179334247

>  <Genealogy>  (43) 
COc1ccccc1C[N-]C(=O)c1c[nH+]c2ccccn2c1=O (protonated)
COc1ccccc1C[N-]C(=O)c1c[nH+]c2ccccn2c1=O (3D coordinates assigned)
COc1ccccc1C[N-]C(=O)c1c[nH+]c2ccccn2c1=O (optimized conformer: 47.26845179334247 kcal/mol)

>  <smiles>  (43) 
COc1ccccc1CNC(=O)c1cnc2ccccn2c1=O

>  <score_type>  (43) 
oracle

>  <origin>  (43) 
adg

>  <m_score__min__energy>  (43) 
-7.5899999999999999

>  <m_primary>  (43) 
energy

$$$$
44:0
     RDKit          3D

 46 48  0  0  0  0  0  0  0  0999 V2000
   58.9310   29.2740   48.1610 C   0  0  0  0  0  0  0  0  0  0  0  0
   59.4030   27.9010   47.6830 C   0  0  0  0  0  0  0  0  0  0  0  0
   59.1080   27.6910   46.2490 N   0  0  0  0  0  0  0  0  0  0  0  0
   60.0270   28.4790   45.3870 C   0  0  0  0  0  0  0  0  0  0  0  0
   59.3740   29.7690   44.8710 C   0  0  0  0  0  0  0  0  0  0  0  0
   58.1890   29.4680   44.0300 N   0  0  0  0  0  0  0  0  0  0  0  0
   57.3090   30.6220   43.9800 C   0  0  0  0  0  0  0  0  0  0  0  0
   56.2340   30.6050   44.5670 O   0  0  0  0  0  0  0  0  0  0  0  0
   57.7090   31.8520   43.2190 C   0  0  0  0  0  0  0  0  0  0  0  0
   57.3910   33.0060   43.9930 O   0  0  0  0  0  0  0  0  0  0  0  0
   58.0880   33.4050   45.1410 C   0  0  0  0  0  0  0  0  0  0  0  0
   58.9290   34.5320   45.0530 C   0  0  0  0  0  0  0  0  0  0  0  0
   59.6490   34.9750   46.1730 C   0  0  0  0  0  0  0  0  0  0  0  0
   59.5160   34.2790   47.3750 C   0  0  0  0  0  0  0  0  0  0  0  0
   58.7000   33.1820   47.4730 C   0  0  0  0  0  0  0  0  0  0  0  0
   57.9730   32.7210   46.3720 C   0  0  0  0  0  0  0  0  0  0  0  0
   58.7090   32.5990   48.8340 C   0  0  0  0  0  0  0  0  0  0  0  0
   59.6750   33.5060   49.6230 C   0  0  0  0  0  0  0  0  0  0  0  0
   60.1880   34.5910   48.6560 C   0  0  0  0  0  0  0  0  0  0  0  0
   57.4490   28.2520   44.4610 C   0  0  0  0  0  0  0  0  0  0  0  0
   57.6730   27.9320   45.9480 C   0  0  0  0  0  0  0  0  0  0  0  0
   58.9232   29.2967   49.2607 H   0  0  0  0  0  0  0  0  0  0  0  0
   59.6144   30.0487   47.7831 H   0  0  0  0  0  0  0  0  0  0  0  0
   57.9157   29.4647   47.7831 H   0  0  0  0  0  0  0  0  0  0  0  0
   60.4891   27.8230   47.8389 H   0  0  0  0  0  0  0  0  0  0  0  0
   58.8664   27.1334   48.2599 H   0  0  0  0  0  0  0  0  0  0  0  0
   60.9209   28.7434   45.9709 H   0  0  0  0  0  0  0  0  0  0  0  0
   60.2869   27.8599   44.5157 H   0  0  0  0  0  0  0  0  0  0  0  0
   59.0594   30.3807   45.7294 H   0  0  0  0  0  0  0  0  0  0  0  0
   60.1088   30.3118   44.2582 H   0  0  0  0  0  0  0  0  0  0  0  0
   58.5380   29.2850   43.0590 H   0  0  0  0  0  0  0  0  0  0  0  0
   58.7910   31.8275   43.0225 H   0  0  0  0  0  0  0  0  0  0  0  0
   57.1668   31.8875   42.2626 H   0  0  0  0  0  0  0  0  0  0  0  0
   59.0220   35.0694   44.0977 H   0  0  0  0  0  0  0  0  0  0  0  0
   60.3060   35.8546   46.1047 H   0  0  0  0  0  0  0  0  0  0  0  0
   57.3214   31.8394   46.4624 H   0  0  0  0  0  0  0  0  0  0  0  0
   57.7020   32.6225   49.2759 H   0  0  0  0  0  0  0  0  0  0  0  0
   59.0195   31.5437   48.8401 H   0  0  0  0  0  0  0  0  0  0  0  0
   59.1459   33.9744   50.4660 H   0  0  0  0  0  0  0  0  0  0  0  0
   60.5136   32.9196   50.0265 H   0  0  0  0  0  0  0  0  0  0  0  0
   59.9075   35.5940   49.0100 H   0  0  0  0  0  0  0  0  0  0  0  0
   61.2845   34.5942   48.5680 H   0  0  0  0  0  0  0  0  0  0  0  0
   56.3741   28.4128   44.2913 H   0  0  0  0  0  0  0  0  0  0  0  0
   57.8246   27.4020   43.8725 H   0  0  0  0  0  0  0  0  0  0  0  0
   57.3198   28.7806   46.5522 H   0  0  0  0  0  0  0  0  0  0  0  0
   57.1138   27.0160   46.1893 H   0  0  0  0  0  0  0  0  0  0  0  0
  1  2  1  0
  2  3  1  0
  3  4  1  0
  4  5  1  0
  5  6  1  0
  6  7  1  0
  7  8  2  0
  7  9  1  0
  9 10  1  0
 10 11  1  0
 11 12  2  0
 12 13  1  0
 13 14  2  0
 14 15  1  0
 15 16  2  0
 15 17  1  0
 17 18  1  0
 18 19  1  0
  6 20  1  0
 20 21  1  0
 21  3  1  0
 16 11  1  0
 19 14  1  0
  1 22  1  0
  1 23  1  0
  1 24  1  0
  2 25  1  0
  2 26  1  0
  4 27  1  0
  4 28  1  0
  5 29  1  0
  5 30  1  0
  6 31  1  0
  9 32  1  0
  9 33  1  0
 12 34  1  0
 13 35  1  0
 16 36  1  0
 17 37  1  0
 17 38  1  0
 18 39  1  0
 18 40  1  0
 19 41  1  0
 19 42  1  0
 20 43  1  0
 20 44  1  0
 21 45  1  0
 21 46  1  0
M  CHG  1   6   1
M  END
>  <UniqueID>  (44) 
44

>  <SMILES>  (44) 
CCN1CC[NH+](C(=O)COc2ccc3c(c2)CCC3)CC1

>  <Energy>  (44) 
63.43163106029537

>  <Genealogy>  (44) 
CCN1CC[NH+](C(=O)COc2ccc3c(c2)CCC3)CC1 (protonated)
CCN1CC[NH+](C(=O)COc2ccc3c(c2)CCC3)CC1 (3D coordinates assigned)
CCN1CC[NH+](C(=O)COc2ccc3c(c2)CCC3)CC1 (nonaromatic ring conformer: 63.43163106029537 kcal/mol)

>  <smiles>  (44) 
CCN1CCN(C(=O)COc2ccc3c(c2)CCC3)CC1

>  <score_type>  (44) 
oracle

>  <origin>  (44) 
adg

>  <m_score__min__energy>  (44) 
-6.4000000000000004

>  <m_primary>  (44) 
energy

$$$$
45:0
     RDKit          3D

 56 59  0  0  0  0  0  0  0  0999 V2000
   57.3660   31.3660   42.5980 C   0  0  0  0  0  0  0  0  0  0  0  0
   56.5930   30.5150   43.5990 C   0  0  0  0  0  0  0  0  0  0  0  0
   56.9750   30.8730   44.9700 N   0  0  0  0  0  0  0  0  0  0  0  0
   57.6830   32.1590   44.9880 C   0  0  0  0  0  0  0  0  0  0  0  0
   57.5880   32.7990   46.3760 C   0  0  0  0  0  0  0  0  0  0  0  0
   58.2200   34.1970   46.4010 C   0  0  0  0  0  0  0  0  0  0  0  0
   59.5430   34.1490   47.0410 N   0  0  0  0  0  0  0  0  0  0  0  0
   60.5210   33.4520   46.1950 C   0  0  0  0  0  0  0  0  0  0  0  0
   61.7730   33.1600   46.9890 C   0  0  0  0  0  0  0  0  0  0  0  0
   62.8970   33.9840   46.8080 C   0  0  0  0  0  0  0  0  0  0  0  0
   64.0610   33.7720   47.5500 C   0  0  0  0  0  0  0  0  0  0  0  0
   64.1130   32.7420   48.4920 C   0  0  0  0  0  0  0  0  0  0  0  0
   62.9990   31.9260   48.7000 C   0  0  0  0  0  0  0  0  0  0  0  0
   61.8240   32.1280   47.9580 C   0  0  0  0  0  0  0  0  0  0  0  0
   60.6600   31.2640   48.2300 C   0  0  0  0  0  0  0  0  0  0  0  0
   59.9940   31.3460   49.4590 C   0  0  0  0  0  0  0  0  0  0  0  0
   58.9240   30.4890   49.7330 C   0  0  0  0  0  0  0  0  0  0  0  0
   58.5170   29.5480   48.7850 C   0  0  0  0  0  0  0  0  0  0  0  0
   59.1690   29.4620   47.5420 C   0  0  0  0  0  0  0  0  0  0  0  0
   58.7510   28.4540   46.5430 C   0  0  0  0  0  0  0  0  0  0  0  0
   58.8580   28.6550   45.2020 N   0  0  0  0  0  0  0  0  0  0  0  0
   58.3850   27.5080   44.6930 C   0  0  0  0  0  0  0  0  0  0  0  0
   58.2710   27.1530   43.3520 C   0  0  0  0  0  0  0  0  0  0  0  0
   57.7610   25.8740   43.0550 C   0  0  0  0  0  0  0  0  0  0  0  0
   57.3880   24.9960   44.0970 C   0  0  0  0  0  0  0  0  0  0  0  0
   57.5190   25.3890   45.4410 C   0  0  0  0  0  0  0  0  0  0  0  0
   58.0200   26.6660   45.6940 C   0  0  0  0  0  0  0  0  0  0  0  0
   58.2410   27.2400   46.8850 N   0  0  0  0  0  0  0  0  0  0  0  0
   60.2340   30.3380   47.2690 C   0  0  0  0  0  0  0  0  0  0  0  0
   58.0098   32.0748   43.1394 H   0  0  0  0  0  0  0  0  0  0  0  0
   57.9878   30.7148   41.9661 H   0  0  0  0  0  0  0  0  0  0  0  0
   56.6582   31.9225   41.9661 H   0  0  0  0  0  0  0  0  0  0  0  0
   55.5147   30.6867   43.4656 H   0  0  0  0  0  0  0  0  0  0  0  0
   56.8286   29.4545   43.4260 H   0  0  0  0  0  0  0  0  0  0  0  0
   57.6360   30.1410   45.3220 H   0  0  0  0  0  0  0  0  0  0  0  0
   58.7410   31.9942   44.7361 H   0  0  0  0  0  0  0  0  0  0  0  0
   57.2205   32.8323   44.2513 H   0  0  0  0  0  0  0  0  0  0  0  0
   56.5281   32.8819   46.6585 H   0  0  0  0  0  0  0  0  0  0  0  0
   58.1366   32.1620   47.0855 H   0  0  0  0  0  0  0  0  0  0  0  0
   58.3291   34.5641   45.3698 H   0  0  0  0  0  0  0  0  0  0  0  0
   57.5695   34.8729   46.9755 H   0  0  0  0  0  0  0  0  0  0  0  0
   59.4420   33.6030   47.9280 H   0  0  0  0  0  0  0  0  0  0  0  0
   60.0865   32.5064   45.8385 H   0  0  0  0  0  0  0  0  0  0  0  0
   60.7774   34.0906   45.3368 H   0  0  0  0  0  0  0  0  0  0  0  0
   62.8596   34.8035   46.0752 H   0  0  0  0  0  0  0  0  0  0  0  0
   64.9380   34.4170   47.3924 H   0  0  0  0  0  0  0  0  0  0  0  0
   65.0330   32.5733   49.0710 H   0  0  0  0  0  0  0  0  0  0  0  0
   63.0421   31.1212   49.4486 H   0  0  0  0  0  0  0  0  0  0  0  0
   60.3128   32.0849   50.2090 H   0  0  0  0  0  0  0  0  0  0  0  0
   58.4011   30.5562   50.6984 H   0  0  0  0  0  0  0  0  0  0  0  0
   57.6812   28.8698   49.0119 H   0  0  0  0  0  0  0  0  0  0  0  0
   58.5688   27.8469   42.5521 H   0  0  0  0  0  0  0  0  0  0  0  0
   57.6527   25.5575   42.0071 H   0  0  0  0  0  0  0  0  0  0  0  0
   56.9925   23.9984   43.8555 H   0  0  0  0  0  0  0  0  0  0  0  0
   57.2367   24.7141   46.2625 H   0  0  0  0  0  0  0  0  0  0  0  0
   60.7375   30.2960   46.2919 H   0  0  0  0  0  0  0  0  0  0  0  0
  1  2  1  0
  2  3  1  0
  3  4  1  0
  4  5  1  0
  5  6  1  0
  6  7  1  0
  7  8  1  0
  8  9  1  0
  9 10  2  0
 10 11  1  0
 11 12  2  0
 12 13  1  0
 13 14  2  0
 14 15  1  0
 15 16  2  0
 16 17  1  0
 17 18  2  0
 18 19  1  0
 19 20  1  0
 20 21  2  0
 21 22  1  0
 22 23  2  0
 23 24  1  0
 24 25  2  0
 25 26  1  0
 26 27  2  0
 27 28  1  0
 19 29  2  0
 14  9  1  0
 29 15  1  0
 28 20  1  0
 27 22  1  0
  1 30  1  0
  1 31  1  0
  1 32  1  0
  2 33  1  0
  2 34  1  0
  3 35  1  0
  4 36  1  0
  4 37  1  0
  5 38  1  0
  5 39  1  0
  6 40  1  0
  6 41  1  0
  7 42  1  0
  8 43  1  0
  8 44  1  0
 10 45  1  0
 11 46  1  0
 12 47  1  0
 13 48  1  0
 16 49  1  0
 17 50  1  0
 18 51  1  0
 23 52  1  0
 24 53  1  0
 25 54  1  0
 26 55  1  0
 29 56  1  0
M  CHG  1  28  -1
M  END
>  <UniqueID>  (45) 
45

>  <SMILES>  (45) 
CCNCCCNCc1ccccc1-c1cccc(-c2nc3ccccc3[n-]2)c1

>  <Energy>  (45) 
94.75982383386479

>  <Genealogy>  (45) 
CCNCCCNCc1ccccc1-c1cccc(-c2nc3ccccc3[n-]2)c1 (protonated)
CCNCCCNCc1ccccc1-c1cccc(-c2nc3ccccc3[n-]2)c1 (3D coordinates assigned)
CCNCCCNCc1ccccc1-c1cccc(-c2nc3ccccc3[n-]2)c1 (optimized conformer: 94.75982383386479 kcal/mol)

>  <smiles>  (45) 
CCNCCCNCc1ccccc1-c1cccc(-c2nc3ccccc3[nH]2)c1

>  <score_type>  (45) 
oracle

>  <origin>  (45) 
adg

>  <m_score__min__energy>  (45) 
-9.4499999999999993

>  <m_primary>  (45) 
energy

$$$$
46:0
     RDKit          3D

 50 54  0  0  0  0  0  0  0  0999 V2000
   60.1090   26.1100   46.5630 O   0  0  0  0  0  0  0  0  0  0  0  0
   59.0560   26.7790   46.7500 C   0  0  0  0  0  0  0  0  0  0  0  0
   59.1520   28.2520   46.8480 C   0  0  0  0  0  0  0  0  0  0  0  0
   60.0650   28.8550   47.7240 C   0  0  0  0  0  0  0  0  0  0  0  0
   60.1660   30.2460   47.8090 C   0  0  0  0  0  0  0  0  0  0  0  0
   59.3870   31.0730   46.9780 C   0  0  0  0  0  0  0  0  0  0  0  0
   58.4060   30.4570   46.1410 C   0  0  0  0  0  0  0  0  0  0  0  0
   58.3250   29.0630   46.0590 C   0  0  0  0  0  0  0  0  0  0  0  0
   57.5090   31.2150   45.4400 N   0  0  0  0  0  0  0  0  0  0  0  0
   57.5000   32.5730   45.5080 C   0  0  0  0  0  0  0  0  0  0  0  0
   56.6420   33.2370   44.8680 O   0  0  0  0  0  0  0  0  0  0  0  0
   58.4640   33.2000   46.2860 C   0  0  0  0  0  0  0  0  0  0  0  0
   58.7100   34.5310   46.5100 C   0  0  0  0  0  0  0  0  0  0  0  0
   59.8150   34.6130   47.2730 N   0  0  0  0  0  0  0  0  0  0  0  0
   60.2920   33.3930   47.5210 N   0  0  0  0  0  0  0  0  0  0  0  0
   61.6060   33.1610   48.1530 C   0  0  0  0  0  0  0  0  0  0  0  0
   62.7760   33.4650   47.1990 C   0  0  0  0  0  0  0  0  0  0  0  0
   64.1260   33.2000   47.9080 C   0  0  0  0  0  0  0  0  0  0  0  0
   64.0110   33.0980   49.3210 O   0  0  0  0  0  0  0  0  0  0  0  0
   63.2330   34.1640   49.8310 C   0  0  0  0  0  0  0  0  0  0  0  0
   61.7530   34.0070   49.4320 C   0  0  0  0  0  0  0  0  0  0  0  0
   59.4300   32.4940   46.9640 C   0  0  0  0  0  0  0  0  0  0  0  0
   57.7920   26.0930   46.8510 N   0  0  0  0  0  0  0  0  0  0  0  0
   56.5530   26.6880   46.3380 C   0  0  0  0  0  0  0  0  0  0  0  0
   55.7140   25.6050   45.6550 C   0  0  0  0  0  0  0  0  0  0  0  0
   55.5200   24.5010   46.5180 O   0  0  0  0  0  0  0  0  0  0  0  0
   56.7610   23.8730   46.7820 C   0  0  0  0  0  0  0  0  0  0  0  0
   57.6930   24.8110   47.5550 C   0  0  0  0  0  0  0  0  0  0  0  0
   60.7107   28.2247   48.3531 H   0  0  0  0  0  0  0  0  0  0  0  0
   60.8605   30.6989   48.5318 H   0  0  0  0  0  0  0  0  0  0  0  0
   57.6053   28.5988   45.3686 H   0  0  0  0  0  0  0  0  0  0  0  0
   58.1135   35.3757   46.1348 H   0  0  0  0  0  0  0  0  0  0  0  0
   60.2420   35.5090   47.5950 H   0  0  0  0  0  0  0  0  0  0  0  0
   61.6471   32.0922   48.4100 H   0  0  0  0  0  0  0  0  0  0  0  0
   62.6986   32.8194   46.3117 H   0  0  0  0  0  0  0  0  0  0  0  0
   62.7294   34.5223   46.8991 H   0  0  0  0  0  0  0  0  0  0  0  0
   64.5429   32.2576   47.5232 H   0  0  0  0  0  0  0  0  0  0  0  0
   64.7782   34.0602   47.6965 H   0  0  0  0  0  0  0  0  0  0  0  0
   63.3108   34.1734   50.9282 H   0  0  0  0  0  0  0  0  0  0  0  0
   63.6115   35.1071   49.4100 H   0  0  0  0  0  0  0  0  0  0  0  0
   61.2109   33.5139   50.2523 H   0  0  0  0  0  0  0  0  0  0  0  0
   61.3375   35.0067   49.2373 H   0  0  0  0  0  0  0  0  0  0  0  0
   55.9823   27.1233   47.1716 H   0  0  0  0  0  0  0  0  0  0  0  0
   56.7975   27.4766   45.6111 H   0  0  0  0  0  0  0  0  0  0  0  0
   54.7350   26.0258   45.3821 H   0  0  0  0  0  0  0  0  0  0  0  0
   56.2467   25.2607   44.7563 H   0  0  0  0  0  0  0  0  0  0  0  0
   56.5861   22.9660   47.3793 H   0  0  0  0  0  0  0  0  0  0  0  0
   57.2362   23.6155   45.8239 H   0  0  0  0  0  0  0  0  0  0  0  0
   57.2899   24.9777   48.5648 H   0  0  0  0  0  0  0  0  0  0  0  0
   58.6917   24.3558   47.6286 H   0  0  0  0  0  0  0  0  0  0  0  0
  1  2  2  0
  2  3  1  0
  3  4  2  0
  4  5  1  0
  5  6  2  0
  6  7  1  0
  7  8  2  0
  7  9  1  0
  9 10  1  0
 10 11  2  0
 10 12  1  0
 12 13  1  0
 13 14  2  0
 14 15  1  0
 15 16  1  0
 16 17  1  0
 17 18  1  0
 18 19  1  0
 19 20  1  0
 20 21  1  0
 15 22  1  0
  2 23  1  0
 23 24  1  0
 24 25  1  0
 25 26  1  0
 26 27  1  0
 27 28  1  0
  8  3  1  0
 22 12  2  0
 28 23  1  0
 22  6  1  0
 21 16  1  0
  4 29  1  0
  5 30  1  0
  8 31  1  0
 13 32  1  0
 14 33  1  0
 16 34  1  0
 17 35  1  0
 17 36  1  0
 18 37  1  0
 18 38  1  0
 20 39  1  0
 20 40  1  0
 21 41  1  0
 21 42  1  0
 24 43  1  0
 24 44  1  0
 25 45  1  0
 25 46  1  0
 27 47  1  0
 27 48  1  0
 28 49  1  0
 28 50  1  0
M  CHG  2   9  -1  14   1
M  END
>  <UniqueID>  (46) 
46

>  <SMILES>  (46) 
O=C(c1ccc2c(c1)[n-]c(=O)c1c[nH+]n(C3CCOCC3)c12)N1CCOCC1

>  <Energy>  (46) 
121.36302909000663

>  <Genealogy>  (46) 
O=C(c1ccc2c(c1)[n-]c(=O)c1c[nH+]n(C3CCOCC3)c12)N1CCOCC1 (protonated)
O=C(c1ccc2c(c1)[n-]c(=O)c1c[nH+]n(C3CCOCC3)c12)N1CCOCC1 (3D coordinates assigned)
O=C(c1ccc2c(c1)[n-]c(=O)c1c[nH+]n(C3CCOCC3)c12)N1CCOCC1 (nonaromatic ring conformer: 121.36302909000663 kcal/mol)

>  <smiles>  (46) 
O=C(c1ccc2c(c1)[nH]c(=O)c1cnn(C3CCOCC3)c12)N1CCOCC1

>  <score_type>  (46) 
oracle

>  <origin>  (46) 
adg

>  <m_score__min__energy>  (46) 
-8.0700000000000003

>  <m_primary>  (46) 
energy

$$$$
