0:0
     RDKit          3D

 40 42  0  0  0  0  0  0  0  0999 V2000
   57.0900   28.7940   43.1520 N   0  0  0  0  0  0  0  0  0  0  0  0
   57.3800   29.9360   43.9680 C   0  0  0  0  0  0  0  0  0  0  0  0
   57.0720   31.2170   43.4840 C   0  0  0  0  0  0  0  0  0  0  0  0
   57.3990   32.3540   44.2240 C   0  0  0  0  0  0  0  0  0  0  0  0
   58.0410   32.2260   45.4560 C   0  0  0  0  0  0  0  0  0  0  0  0
   58.3470   30.9580   45.9570 C   0  0  0  0  0  0  0  0  0  0  0  0
   58.0070   29.8040   45.2310 C   0  0  0  0  0  0  0  0  0  0  0  0
   58.3170   28.4840   45.8150 C   0  0  0  0  0  0  0  0  0  0  0  0
   59.5310   28.2310   46.2090 N   0  0  0  0  0  0  0  0  0  0  0  0
   59.9430   26.9320   46.7510 C   0  0  0  0  0  0  0  0  0  0  0  0
   58.8160   26.3060   47.5810 C   0  0  0  0  0  0  0  0  0  0  0  0
   57.5740   26.3030   46.8010 N   0  0  0  0  0  0  0  0  0  0  0  0
   56.7660   25.0830   46.6930 C   0  0  0  0  0  0  0  0  0  0  0  0
   57.0830   24.3390   45.3820 C   0  0  1  0  0  0  0  0  0  0  0  0
   55.9570   23.4100   44.9550 C   0  0  0  0  0  0  0  0  0  0  0  0
   56.0870   23.3360   43.4460 C   0  0  0  0  0  0  0  0  0  0  0  0
   57.0260   24.4770   43.0610 C   0  0  0  0  0  0  0  0  0  0  0  0
   57.3170   25.2560   44.2640 N   0  0  0  0  0  0  0  0  0  0  0  0
   57.2530   27.4830   46.0470 C   0  0  0  0  0  0  0  0  0  0  0  0
   56.0840   27.6740   45.6140 O   0  0  0  0  0  0  0  0  0  0  0  0
   57.3660   28.7780   42.1440 H   0  0  0  0  0  0  0  0  0  0  0  0
   56.6560   27.9300   43.5440 H   0  0  0  0  0  0  0  0  0  0  0  0
   56.5681   31.3257   42.5123 H   0  0  0  0  0  0  0  0  0  0  0  0
   57.1502   33.3526   43.8354 H   0  0  0  0  0  0  0  0  0  0  0  0
   58.3065   33.1239   46.0334 H   0  0  0  0  0  0  0  0  0  0  0  0
   58.8577   30.8625   46.9266 H   0  0  0  0  0  0  0  0  0  0  0  0
   60.1955   26.2579   45.9192 H   0  0  0  0  0  0  0  0  0  0  0  0
   60.8176   27.0826   47.4009 H   0  0  0  0  0  0  0  0  0  0  0  0
   59.0857   25.2725   47.8440 H   0  0  0  0  0  0  0  0  0  0  0  0
   58.6692   26.8933   48.4995 H   0  0  0  0  0  0  0  0  0  0  0  0
   56.9890   24.4247   47.5456 H   0  0  0  0  0  0  0  0  0  0  0  0
   55.7016   25.3604   46.6957 H   0  0  0  0  0  0  0  0  0  0  0  0
   57.9929   23.7625   45.6052 H   0  0  0  0  0  0  0  0  0  0  0  0
   56.0804   22.4145   45.4064 H   0  0  0  0  0  0  0  0  0  0  0  0
   54.9686   23.7713   45.2753 H   0  0  0  0  0  0  0  0  0  0  0  0
   56.5139   22.3683   43.1439 H   0  0  0  0  0  0  0  0  0  0  0  0
   55.1106   23.4252   42.9474 H   0  0  0  0  0  0  0  0  0  0  0  0
   57.9596   24.0674   42.6479 H   0  0  0  0  0  0  0  0  0  0  0  0
   56.5547   25.1160   42.2997 H   0  0  0  0  0  0  0  0  0  0  0  0
   56.6110   26.0290   44.3070 H   0  0  0  0  0  0  0  0  0  0  0  0
  1  2  1  0
  2  3  2  0
  3  4  1  0
  4  5  2  0
  5  6  1  0
  6  7  2  0
  7  8  1  0
  8  9  2  0
  9 10  1  0
 10 11  1  0
 11 12  1  0
 12 13  1  0
 13 14  1  0
 14 15  1  0
 15 16  1  0
 16 17  1  0
 17 18  1  0
 12 19  1  0
 19 20  2  0
  7  2  1  0
 19  8  1  0
 18 14  1  0
  1 21  1  0
  1 22  1  0
  3 23  1  0
  4 24  1  0
  5 25  1  0
  6 26  1  0
 10 27  1  0
 10 28  1  0
 11 29  1  0
 11 30  1  0
 13 31  1  0
 13 32  1  0
 14 33  1  1
 15 34  1  0
 15 35  1  0
 16 36  1  0
 16 37  1  0
 17 38  1  0
 17 39  1  0
 18 40  1  0
M  END
>  <UniqueID>  (1) 
1

>  <SMILES>  (1) 
Nc1ccccc1C1=NCCN(C[C@H]2CCCN2)C1=O

>  <Energy>  (1) 
45.388589217198124

>  <Genealogy>  (1) 
Nc1ccccc1C1=NCCN(C[C@H]2CCCN2)C1=O (chirality)
Nc1ccccc1C1=NCCN(C[C@H]2CCCN2)C1=O (3D coordinates assigned)
Nc1ccccc1C1=NCCN(C[C@H]2CCCN2)C1=O (nonaromatic ring conformer: 45.388589217198124 kcal/mol)

>  <smiles>  (1) 
Nc1ccccc1C1=NCCN(CC2CCCN2)C1=O

>  <score_type>  (1) 
oracle

>  <origin>  (1) 
adg

>  <m_score__min__energy>  (1) 
-7.3899999999999997

>  <m_primary>  (1) 
energy

$$$$
1:0
     RDKit          3D

 34 35  0  0  0  0  0  0  0  0999 V2000
   56.5880   29.5620   42.6070 N   0  0  0  0  0  0  0  0  0  0  0  0
   56.6570   30.0290   43.9570 C   0  0  0  0  0  0  0  0  0  0  0  0
   55.6330   30.5420   44.4820 O   0  0  0  0  0  0  0  0  0  0  0  0
   57.9210   29.9400   44.7260 C   0  0  0  0  0  0  0  0  0  0  0  0
   58.7060   28.7790   44.6050 C   0  0  0  0  0  0  0  0  0  0  0  0
   59.9340   28.6790   45.2600 C   0  0  0  0  0  0  0  0  0  0  0  0
   60.3970   29.7330   46.0430 C   0  0  0  0  0  0  0  0  0  0  0  0
   59.6300   30.8910   46.1820 C   0  0  0  0  0  0  0  0  0  0  0  0
   58.3850   31.0120   45.5330 C   0  0  0  0  0  0  0  0  0  0  0  0
   57.5630   32.1800   45.7450 N   0  0  0  0  0  0  0  0  0  0  0  0
   57.7530   33.1220   46.8460 C   0  0  0  0  0  0  0  0  0  0  0  0
   58.6870   34.2570   46.4140 C   0  0  0  0  0  0  0  0  0  0  0  0
   60.0240   34.1270   47.0900 C   0  0  0  0  0  0  0  0  0  0  0  0
   61.1750   33.8400   46.3370 C   0  0  0  0  0  0  0  0  0  0  0  0
   62.4120   33.6880   46.9720 C   0  0  0  0  0  0  0  0  0  0  0  0
   62.5060   33.8120   48.3610 C   0  0  0  0  0  0  0  0  0  0  0  0
   61.3630   34.0840   49.1190 C   0  0  0  0  0  0  0  0  0  0  0  0
   60.1240   34.2360   48.4870 C   0  0  0  0  0  0  0  0  0  0  0  0
   57.3930   29.0650   42.1660 H   0  0  0  0  0  0  0  0  0  0  0  0
   55.7050   29.6690   42.0610 H   0  0  0  0  0  0  0  0  0  0  0  0
   58.3482   27.9416   43.9879 H   0  0  0  0  0  0  0  0  0  0  0  0
   60.5377   27.7652   45.1575 H   0  0  0  0  0  0  0  0  0  0  0  0
   61.3685   29.6531   46.5528 H   0  0  0  0  0  0  0  0  0  0  0  0
   60.0015   31.7181   46.8049 H   0  0  0  0  0  0  0  0  0  0  0  0
   56.7320   32.3340   45.1300 H   0  0  0  0  0  0  0  0  0  0  0  0
   56.7792   33.5431   47.1364 H   0  0  0  0  0  0  0  0  0  0  0  0
   58.2017   32.5921   47.6992 H   0  0  0  0  0  0  0  0  0  0  0  0
   58.8273   34.2149   45.3238 H   0  0  0  0  0  0  0  0  0  0  0  0
   58.2353   35.2177   46.7021 H   0  0  0  0  0  0  0  0  0  0  0  0
   61.1031   33.7345   45.2444 H   0  0  0  0  0  0  0  0  0  0  0  0
   63.3117   33.4707   46.3776 H   0  0  0  0  0  0  0  0  0  0  0  0
   63.4802   33.6955   48.8583 H   0  0  0  0  0  0  0  0  0  0  0  0
   61.4379   34.1785   50.2124 H   0  0  0  0  0  0  0  0  0  0  0  0
   59.2248   34.4416   49.0863 H   0  0  0  0  0  0  0  0  0  0  0  0
  1  2  1  0
  2  3  2  0
  2  4  1  0
  4  5  2  0
  5  6  1  0
  6  7  2  0
  7  8  1  0
  8  9  2  0
  9 10  1  0
 10 11  1  0
 11 12  1  0
 12 13  1  0
 13 14  2  0
 14 15  1  0
 15 16  2  0
 16 17  1  0
 17 18  2  0
  9  4  1  0
 18 13  1  0
  1 19  1  0
  1 20  1  0
  5 21  1  0
  6 22  1  0
  7 23  1  0
  8 24  1  0
 10 25  1  0
 11 26  1  0
 11 27  1  0
 12 28  1  0
 12 29  1  0
 14 30  1  0
 15 31  1  0
 16 32  1  0
 17 33  1  0
 18 34  1  0
M  END
>  <UniqueID>  (2) 
2

>  <SMILES>  (2) 
NC(=O)c1ccccc1NCCc1ccccc1

>  <Energy>  (2) 
37.15602244807163

>  <Genealogy>  (2) 
NC(=O)c1ccccc1NCCc1ccccc1 (3D coordinates assigned)
NC(=O)c1ccccc1NCCc1ccccc1 (optimized conformer: 37.15602244807163 kcal/mol)

>  <smiles>  (2) 
NC(=O)c1ccccc1NCCc1ccccc1

>  <score_type>  (2) 
oracle

>  <origin>  (2) 
adg

>  <m_score__min__energy>  (2) 
-7.3700000000000001

>  <m_primary>  (2) 
energy

$$$$
2:0
     RDKit          3D

 36 38  0  0  0  0  0  0  0  0999 V2000
   54.5470   29.8210   44.7660 H   0  0  0  0  0  0  0  0  0  0  0  0
   55.4700   29.6540   44.3050 N   0  0  0  0  0  0  0  0  0  0  0  0
   56.5740   30.1010   44.8150 C   0  0  0  0  0  0  0  0  0  0  0  0
   56.6450   31.3950   45.2270 N   0  0  0  0  0  0  0  0  0  0  0  0
   57.7810   31.9330   45.7410 C   0  0  0  0  0  0  0  0  0  0  0  0
   57.7899   32.9830   46.0687 H   0  0  0  0  0  0  0  0  0  0  0  0
   58.9430   31.1560   45.8560 C   0  0  0  0  0  0  0  0  0  0  0  0
   60.1950   31.7350   46.4090 C   0  0  0  0  0  0  0  0  0  0  0  0
   60.4170   33.1230   46.3730 C   0  0  0  0  0  0  0  0  0  0  0  0
   59.6577   33.7856   45.9321 H   0  0  0  0  0  0  0  0  0  0  0  0
   61.5950   33.6680   46.8930 C   0  0  0  0  0  0  0  0  0  0  0  0
   61.7567   34.7555   46.8592 H   0  0  0  0  0  0  0  0  0  0  0  0
   62.5740   32.8320   47.4590 C   0  0  0  0  0  0  0  0  0  0  0  0
   63.7720   33.3310   47.9920 O   0  0  0  0  0  0  0  0  0  0  0  0
   64.3670   32.8730   49.2030 C   0  0  0  0  0  0  0  0  0  0  0  0
   63.8217   33.2928   50.0611 H   0  0  0  0  0  0  0  0  0  0  0  0
   64.3215   31.7746   49.2414 H   0  0  0  0  0  0  0  0  0  0  0  0
   65.4172   33.1980   49.2414 H   0  0  0  0  0  0  0  0  0  0  0  0
   62.3550   31.4510   47.4960 C   0  0  0  0  0  0  0  0  0  0  0  0
   63.1154   30.7899   47.9372 H   0  0  0  0  0  0  0  0  0  0  0  0
   61.1780   30.9040   46.9770 C   0  0  0  0  0  0  0  0  0  0  0  0
   61.0192   29.8161   47.0129 H   0  0  0  0  0  0  0  0  0  0  0  0
   58.8940   29.8170   45.4370 C   0  0  0  0  0  0  0  0  0  0  0  0
   59.7944   29.1898   45.5146 H   0  0  0  0  0  0  0  0  0  0  0  0
   57.7090   29.2690   44.9200 C   0  0  0  0  0  0  0  0  0  0  0  0
   57.6860   27.8440   44.5000 C   0  0  0  0  0  0  0  0  0  0  0  0
   57.6040   26.8120   45.4480 C   0  0  0  0  0  0  0  0  0  0  0  0
   57.5452   27.0537   46.5195 H   0  0  0  0  0  0  0  0  0  0  0  0
   57.5970   25.4810   45.0330 C   0  0  0  0  0  0  0  0  0  0  0  0
   57.5290   24.6696   45.7726 H   0  0  0  0  0  0  0  0  0  0  0  0
   57.6770   25.1870   43.6710 C   0  0  0  0  0  0  0  0  0  0  0  0
   57.6697   24.1400   43.3339 H   0  0  0  0  0  0  0  0  0  0  0  0
   57.7640   26.1930   42.7600 N   0  0  0  0  0  0  0  0  0  0  0  0
   57.8240   25.9570   41.7440 H   0  0  0  0  0  0  0  0  0  0  0  0
   57.7740   27.5000   43.1400 C   0  0  0  0  0  0  0  0  0  0  0  0
   57.8513   28.2907   42.3792 H   0  0  0  0  0  0  0  0  0  0  0  0
  1  2  1  0
  2  3  2  0
  3  4  1  0
  4  5  1  0
  5  6  1  0
  5  7  2  0
  7  8  1  0
  8  9  2  0
  9 10  1  0
  9 11  1  0
 11 12  1  0
 11 13  2  0
 13 14  1  0
 14 15  1  0
 15 16  1  0
 15 17  1  0
 15 18  1  0
 13 19  1  0
 19 20  1  0
 19 21  2  0
 21 22  1  0
  7 23  1  0
 23 24  1  0
 23 25  2  0
 25 26  1  0
 26 27  2  0
 27 28  1  0
 27 29  1  0
 29 30  1  0
 29 31  2  0
 31 32  1  0
 31 33  1  0
 33 34  1  0
 33 35  2  0
 35 36  1  0
 25  3  1  0
 35 26  1  0
 21  8  1  0
M  CHG  2   4  -1  33   1
M  END
>  <UniqueID>  (3) 
3

>  <SMILES>  (3) 
[H]/N=c1\[n-]cc(-c2ccc(OC)cc2)cc1-c1ccc[nH+]c1

>  <Energy>  (3) 
51.128386288792605

>  <Genealogy>  (3) 
COc1ccc(-c2c[n-]c(=N)c(-c3ccc[nH+]c3)c2)cc1 (protonated)
[H]/N=c1\[n-]cc(-c2ccc(OC)cc2)cc1-c1ccc[nH+]c1 (cis-trans isomerization)
[H]/N=c1\[n-]cc(-c2ccc(OC)cc2)cc1-c1ccc[nH+]c1 (3D coordinates assigned)
[H]/N=c1\[n-]cc(-c2ccc(OC)cc2)cc1-c1ccc[nH+]c1 (optimized conformer: 51.128386288792605 kcal/mol)

>  <smiles>  (3) 
COc1ccc(-c2c[nH]c(=N)c(-c3cccnc3)c2)cc1

>  <score_type>  (3) 
oracle

>  <origin>  (3) 
adg

>  <m_score__min__energy>  (3) 
-7.21

>  <m_primary>  (3) 
energy

$$$$
3:0
     RDKit          3D

 44 46  0  0  0  0  0  0  0  0999 V2000
   61.5720   33.6800   46.9810 C   0  0  0  0  0  0  0  0  0  0  0  0
   60.2080   33.5660   46.3790 C   0  0  0  0  0  0  0  0  0  0  0  0
   59.3880   34.6920   46.2590 C   0  0  0  0  0  0  0  0  0  0  0  0
   58.1170   34.5340   45.7090 C   0  0  0  0  0  0  0  0  0  0  0  0
   57.7020   33.3070   45.3010 N   0  0  0  0  0  0  0  0  0  0  0  0
   58.5100   32.2180   45.4160 C   0  0  0  0  0  0  0  0  0  0  0  0
   58.0490   30.9240   44.9880 N   0  0  0  0  0  0  0  0  0  0  0  0
   57.5250   30.6320   43.7770 C   0  0  0  0  0  0  0  0  0  0  0  0
   57.3630   31.6050   42.6490 C   0  0  0  0  0  0  0  0  0  0  0  0
   57.1010   29.3210   43.7440 C   0  0  0  0  0  0  0  0  0  0  0  0
   57.3780   28.7700   44.9870 C   0  0  0  0  0  0  0  0  0  0  0  0
   57.0070   27.3720   45.3460 C   0  0  0  0  0  0  0  0  0  0  0  0
   55.8020   27.1270   45.6360 O   0  0  0  0  0  0  0  0  0  0  0  0
   57.9760   26.2300   45.3880 C   0  0  0  0  0  0  0  0  0  0  0  0
   57.4820   25.2070   46.2470 O   0  0  0  0  0  0  0  0  0  0  0  0
   56.4750   24.3160   45.8600 C   0  0  0  0  0  0  0  0  0  0  0  0
   55.2960   24.4640   46.2850 O   0  0  0  0  0  0  0  0  0  0  0  0
   56.7860   23.2090   44.9410 C   0  0  0  0  0  0  0  0  0  0  0  0
   57.6490   22.1670   45.3170 C   0  0  0  0  0  0  0  0  0  0  0  0
   57.9330   21.1760   44.4270 N   0  0  0  0  0  0  0  0  0  0  0  0
   57.3900   21.1730   43.1800 C   0  0  0  0  0  0  0  0  0  0  0  0
   56.5300   22.2080   42.8040 C   0  0  0  0  0  0  0  0  0  0  0  0
   56.2500   23.2000   43.6890 N   0  0  0  0  0  0  0  0  0  0  0  0
   57.9900   29.7870   45.7320 C   0  0  0  0  0  0  0  0  0  0  0  0
   58.5190   29.6910   47.1380 C   0  0  0  0  0  0  0  0  0  0  0  0
   59.7500   32.3560   45.9610 N   0  0  0  0  0  0  0  0  0  0  0  0
   61.4904   33.6732   48.0779 H   0  0  0  0  0  0  0  0  0  0  0  0
   62.1893   32.8303   46.6540 H   0  0  0  0  0  0  0  0  0  0  0  0
   62.0397   34.6204   46.6540 H   0  0  0  0  0  0  0  0  0  0  0  0
   59.7380   35.6805   46.5912 H   0  0  0  0  0  0  0  0  0  0  0  0
   57.4504   35.4029   45.6055 H   0  0  0  0  0  0  0  0  0  0  0  0
   57.1951   32.6132   43.0557 H   0  0  0  0  0  0  0  0  0  0  0  0
   58.2734   31.6056   42.0316 H   0  0  0  0  0  0  0  0  0  0  0  0
   56.5015   31.3105   42.0316 H   0  0  0  0  0  0  0  0  0  0  0  0
   56.6311   28.8077   42.8921 H   0  0  0  0  0  0  0  0  0  0  0  0
   58.1054   25.8239   44.3739 H   0  0  0  0  0  0  0  0  0  0  0  0
   58.9428   26.5890   45.7707 H   0  0  0  0  0  0  0  0  0  0  0  0
   58.0926   22.1513   46.3235 H   0  0  0  0  0  0  0  0  0  0  0  0
   58.5810   20.4030   44.7060 H   0  0  0  0  0  0  0  0  0  0  0  0
   57.6258   20.3631   42.4739 H   0  0  0  0  0  0  0  0  0  0  0  0
   56.0830   22.2195   41.7990 H   0  0  0  0  0  0  0  0  0  0  0  0
   57.6947   29.8406   47.8509 H   0  0  0  0  0  0  0  0  0  0  0  0
   58.9640   28.6974   47.2953 H   0  0  0  0  0  0  0  0  0  0  0  0
   59.2848   30.4648   47.2953 H   0  0  0  0  0  0  0  0  0  0  0  0
  1  2  1  0
  2  3  2  0
  3  4  1  0
  4  5  2  0
  5  6  1  0
  6  7  1  0
  7  8  1  0
  8  9  1  0
  8 10  2  0
 10 11  1  0
 11 12  1  0
 12 13  2  0
 12 14  1  0
 14 15  1  0
 15 16  1  0
 16 17  2  0
 16 18  1  0
 18 19  2  0
 19 20  1  0
 20 21  2  0
 21 22  1  0
 22 23  2  0
 11 24  2  0
 24 25  1  0
  6 26  2  0
 26  2  1  0
 24  7  1  0
 23 18  1  0
  1 27  1  0
  1 28  1  0
  1 29  1  0
  3 30  1  0
  4 31  1  0
  9 32  1  0
  9 33  1  0
  9 34  1  0
 10 35  1  0
 14 36  1  0
 14 37  1  0
 19 38  1  0
 20 39  1  0
 21 40  1  0
 22 41  1  0
 25 42  1  0
 25 43  1  0
 25 44  1  0
M  CHG  1  20   1
M  END
>  <UniqueID>  (4) 
4

>  <SMILES>  (4) 
Cc1ccnc(-n2c(C)cc(C(=O)COC(=O)c3c[nH+]ccn3)c2C)n1

>  <Energy>  (4) 
76.90430971852605

>  <Genealogy>  (4) 
Cc1ccnc(-n2c(C)cc(C(=O)COC(=O)c3c[nH+]ccn3)c2C)n1 (protonated)
Cc1ccnc(-n2c(C)cc(C(=O)COC(=O)c3c[nH+]ccn3)c2C)n1 (3D coordinates assigned)
Cc1ccnc(-n2c(C)cc(C(=O)COC(=O)c3c[nH+]ccn3)c2C)n1 (optimized conformer: 76.90430971852605 kcal/mol)

>  <smiles>  (4) 
Cc1ccnc(-n2c(C)cc(C(=O)COC(=O)c3cnccn3)c2C)n1

>  <score_type>  (4) 
oracle

>  <origin>  (4) 
adg

>  <m_score__min__energy>  (4) 
-7.5599999999999996

>  <m_primary>  (4) 
energy

$$$$
4:0
     RDKit          3D

 39 42  0  0  0  0  0  0  0  0999 V2000
   56.6200   30.2210   42.9090 C   0  0  0  0  0  0  0  0  0  0  0  0
   56.1950   29.7420   44.1310 C   0  0  0  0  0  0  0  0  0  0  0  0
   56.7100   30.5010   45.1160 N   0  0  0  0  0  0  0  0  0  0  0  0
   57.4480   31.4480   44.5560 N   0  0  0  0  0  0  0  0  0  0  0  0
   58.1560   32.4410   45.3190 C   0  0  0  0  0  0  0  0  0  0  0  0
   59.4820   32.2500   45.7390 C   0  0  0  0  0  0  0  0  0  0  0  0
   60.1080   33.2570   46.4780 C   0  0  0  0  0  0  0  0  0  0  0  0
   61.4560   33.0790   46.9270 N   0  0  0  0  0  0  0  0  0  0  0  0
   62.5770   33.8360   46.3660 C   0  0  0  0  0  0  0  0  0  0  0  0
   63.6790   33.8100   47.4380 C   0  0  0  0  0  0  0  0  0  0  0  0
   63.2840   32.6220   48.3020 C   0  0  1  0  0  0  0  0  0  0  0  0
   63.7680   32.5640   49.7600 C   0  0  0  0  0  0  0  0  0  0  0  0
   62.8520   31.7640   50.6150 N   0  0  0  0  0  0  0  0  0  0  0  0
   62.1020   30.7180   49.8790 C   0  0  0  0  0  0  0  0  0  0  0  0
   61.2400   31.2930   48.7160 C   0  0  0  0  0  0  0  0  0  0  0  0
   61.7750   32.6620   48.2810 C   0  0  2  0  0  0  0  0  0  0  0  0
   59.4270   34.3970   46.7790 N   0  0  0  0  0  0  0  0  0  0  0  0
   58.1450   34.5720   46.3630 C   0  0  0  0  0  0  0  0  0  0  0  0
   57.5250   33.6030   45.6440 N   0  0  0  0  0  0  0  0  0  0  0  0
   57.4150   31.3050   43.2130 C   0  0  0  0  0  0  0  0  0  0  0  0
   56.3777   29.8250   41.9118 H   0  0  0  0  0  0  0  0  0  0  0  0
   55.5364   28.8732   44.2778 H   0  0  0  0  0  0  0  0  0  0  0  0
   60.0192   31.3228   45.4903 H   0  0  0  0  0  0  0  0  0  0  0  0
   62.9331   33.3626   45.4392 H   0  0  0  0  0  0  0  0  0  0  0  0
   62.2835   34.8653   46.1123 H   0  0  0  0  0  0  0  0  0  0  0  0
   64.6693   33.6574   46.9841 H   0  0  0  0  0  0  0  0  0  0  0  0
   63.7583   34.7507   48.0026 H   0  0  0  0  0  0  0  0  0  0  0  0
   63.7748   31.7332   47.8788 H   0  0  0  0  0  0  0  0  0  0  0  0
   64.7682   32.1070   49.7851 H   0  0  0  0  0  0  0  0  0  0  0  0
   63.7923   33.5911   50.1530 H   0  0  0  0  0  0  0  0  0  0  0  0
   62.1580   32.4070   51.0650 H   0  0  0  0  0  0  0  0  0  0  0  0
   62.8219   29.9996   49.4599 H   0  0  0  0  0  0  0  0  0  0  0  0
   61.4151   30.2409   50.5935 H   0  0  0  0  0  0  0  0  0  0  0  0
   61.2765   30.6013   47.8615 H   0  0  0  0  0  0  0  0  0  0  0  0
   60.2030   31.4092   49.0640 H   0  0  0  0  0  0  0  0  0  0  0  0
   61.2983   33.3618   48.9832 H   0  0  0  0  0  0  0  0  0  0  0  0
   59.8840   35.1480   47.3450 H   0  0  0  0  0  0  0  0  0  0  0  0
   57.6094   35.5006   46.6097 H   0  0  0  0  0  0  0  0  0  0  0  0
   57.9348   31.9454   42.4852 H   0  0  0  0  0  0  0  0  0  0  0  0
  1  2  1  0
  2  3  2  0
  3  4  1  0
  4  5  1  0
  5  6  2  0
  6  7  1  0
  7  8  1  0
  8  9  1  0
  9 10  1  0
 10 11  1  0
 11 12  1  0
 12 13  1  0
 13 14  1  0
 14 15  1  0
 15 16  1  0
  7 17  2  0
 17 18  1  0
 18 19  2  0
  4 20  1  0
 20  1  2  0
 19  5  1  0
 16  8  1  0
 16 11  1  0
  1 21  1  0
  2 22  1  0
  6 23  1  0
  9 24  1  0
  9 25  1  0
 10 26  1  0
 10 27  1  0
 11 28  1  6
 12 29  1  0
 12 30  1  0
 13 31  1  0
 14 32  1  0
 14 33  1  0
 15 34  1  0
 15 35  1  0
 16 36  1  1
 17 37  1  0
 18 38  1  0
 20 39  1  0
M  CHG  1  17   1
M  END
>  <UniqueID>  (5) 
5

>  <SMILES>  (5) 
c1cnn(-c2cc(N3CC[C@H]4CNCC[C@@H]43)[nH+]cn2)c1

>  <Energy>  (5) 
94.25135379817239

>  <Genealogy>  (5) 
c1cnn(-c2cc(N3CCC4CNCCC43)[nH+]cn2)c1 (protonated)
c1cnn(-c2cc(N3CC[C@H]4CNCC[C@@H]43)[nH+]cn2)c1 (chirality)
c1cnn(-c2cc(N3CC[C@H]4CNCC[C@@H]43)[nH+]cn2)c1 (3D coordinates assigned)
c1cnn(-c2cc(N3CC[C@H]4CNCC[C@@H]43)[nH+]cn2)c1 (nonaromatic ring conformer: 94.25135379817239 kcal/mol)

>  <smiles>  (5) 
c1cnn(-c2cc(N3CCC4CNCCC43)ncn2)c1

>  <score_type>  (5) 
oracle

>  <origin>  (5) 
adg

>  <m_score__min__energy>  (5) 
-5.9900000000000002

>  <m_primary>  (5) 
energy

$$$$
5:0
     RDKit          3D

 21 21  0  0  0  0  0  0  0  0999 V2000
   59.4620   28.5760   44.5100 C   0  0  0  0  0  0  0  0  0  0  0  0
   57.9370   28.4390   44.5070 C   0  0  0  0  0  0  0  0  0  0  0  0
   57.3600   28.5440   43.1520 N   0  0  0  0  0  0  0  0  0  0  0  0
   56.4720   29.7070   42.9710 C   0  0  0  0  0  0  0  0  0  0  0  0
   57.0150   30.9380   43.6360 C   0  0  0  0  0  0  0  0  0  0  0  0
   57.7850   31.9110   43.0310 C   0  0  0  0  0  0  0  0  0  0  0  0
   58.0310   32.8490   44.0110 C   0  0  0  0  0  0  0  0  0  0  0  0
   57.3970   32.3920   45.1480 C   0  0  0  0  0  0  0  0  0  0  0  0
   56.7980   31.2500   44.8930 O   0  0  0  0  0  0  0  0  0  0  0  0
   59.8252   28.6086   45.5478 H   0  0  0  0  0  0  0  0  0  0  0  0
   59.9086   27.7144   43.9922 H   0  0  0  0  0  0  0  0  0  0  0  0
   59.7478   29.5034   43.9922 H   0  0  0  0  0  0  0  0  0  0  0  0
   57.6706   27.4584   44.9283 H   0  0  0  0  0  0  0  0  0  0  0  0
   57.5273   29.2639   45.1083 H   0  0  0  0  0  0  0  0  0  0  0  0
   58.1320   28.5960   42.4490 H   0  0  0  0  0  0  0  0  0  0  0  0
   56.8180   27.6690   42.9510 H   0  0  0  0  0  0  0  0  0  0  0  0
   56.3606   29.9046   41.8946 H   0  0  0  0  0  0  0  0  0  0  0  0
   55.5030   29.4699   43.4344 H   0  0  0  0  0  0  0  0  0  0  0  0
   58.1298   31.9332   41.9867 H   0  0  0  0  0  0  0  0  0  0  0  0
   58.6152   33.7753   43.9073 H   0  0  0  0  0  0  0  0  0  0  0  0
   57.3933   32.9056   46.1207 H   0  0  0  0  0  0  0  0  0  0  0  0
  1  2  1  0
  2  3  1  0
  3  4  1  0
  4  5  1  0
  5  6  2  0
  6  7  1  0
  7  8  2  0
  8  9  1  0
  9  5  1  0
  1 10  1  0
  1 11  1  0
  1 12  1  0
  2 13  1  0
  2 14  1  0
  3 15  1  0
  3 16  1  0
  4 17  1  0
  4 18  1  0
  6 19  1  0
  7 20  1  0
  8 21  1  0
M  CHG  1   3   1
M  END
>  <UniqueID>  (6) 
6

>  <SMILES>  (6) 
CC[NH2+]Cc1ccco1

>  <Energy>  (6) 
42.7015557877124

>  <Genealogy>  (6) 
CC[NH2+]Cc1ccco1 (protonated)
CC[NH2+]Cc1ccco1 (3D coordinates assigned)
CC[NH2+]Cc1ccco1 (optimized conformer: 42.7015557877124 kcal/mol)

>  <smiles>  (6) 
CCNCc1ccco1

>  <score_type>  (6) 
oracle

>  <origin>  (6) 
adg

>  <m_score__min__energy>  (6) 
-2.96

>  <m_primary>  (6) 
energy

$$$$
6:0
     RDKit          3D

 55 56  0  0  0  0  0  0  0  0999 V2000
   57.8740   29.1140   45.9430 C   0  0  0  0  0  0  0  0  0  0  0  0
   57.7650   29.8570   44.6040 C   0  0  0  0  0  0  0  0  0  0  0  0
   56.3050   29.8930   44.1360 C   0  0  0  0  0  0  0  0  0  0  0  0
   58.3300   31.2870   44.7140 C   0  0  0  0  0  0  0  0  0  0  0  0
   57.5350   32.2240   43.8800 N   0  0  0  0  0  0  0  0  0  0  0  0
   58.1180   32.3500   42.5330 C   0  0  0  0  0  0  0  0  0  0  0  0
   57.4100   33.5620   44.4990 C   0  0  0  0  0  0  0  0  0  0  0  0
   58.2820   33.6660   45.7230 C   0  0  0  0  0  0  0  0  0  0  0  0
   59.5900   34.1640   45.6280 C   0  0  0  0  0  0  0  0  0  0  0  0
   60.4120   34.2070   46.7570 C   0  0  0  0  0  0  0  0  0  0  0  0
   59.9390   33.7520   48.0000 C   0  0  0  0  0  0  0  0  0  0  0  0
   60.7920   33.7900   49.1620 N   0  0  0  0  0  0  0  0  0  0  0  0
   60.2930   33.2270   50.4280 C   0  0  0  0  0  0  0  0  0  0  0  0
   61.2800   33.4520   51.5760 C   0  0  0  0  0  0  0  0  0  0  0  0
   62.6840   33.0480   51.1290 C   0  0  0  0  0  0  0  0  0  0  0  0
   63.1780   33.9090   49.9290 C   0  0  1  0  0  0  0  0  0  0  0  0
   64.1090   33.1900   49.0170 N   0  0  0  0  0  0  0  0  0  0  0  0
   64.8990   32.1690   49.7250 C   0  0  0  0  0  0  0  0  0  0  0  0
   63.4800   32.6160   47.8120 C   0  0  0  0  0  0  0  0  0  0  0  0
   62.0290   34.5870   49.1360 C   0  0  0  0  0  0  0  0  0  0  0  0
   58.6270   33.2570   48.0920 C   0  0  0  0  0  0  0  0  0  0  0  0
   57.8070   33.2120   46.9620 C   0  0  0  0  0  0  0  0  0  0  0  0
   57.7687   29.8315   46.7701 H   0  0  0  0  0  0  0  0  0  0  0  0
   57.0770   28.3587   46.0092 H   0  0  0  0  0  0  0  0  0  0  0  0
   58.8543   28.6194   46.0092 H   0  0  0  0  0  0  0  0  0  0  0  0
   58.3647   29.3124   43.8598 H   0  0  0  0  0  0  0  0  0  0  0  0
   55.6395   29.9094   45.0117 H   0  0  0  0  0  0  0  0  0  0  0  0
   56.1363   30.7956   43.5303 H   0  0  0  0  0  0  0  0  0  0  0  0
   56.0920   28.9998   43.5303 H   0  0  0  0  0  0  0  0  0  0  0  0
   58.2895   31.6128   45.7639 H   0  0  0  0  0  0  0  0  0  0  0  0
   59.3707   31.2876   44.3576 H   0  0  0  0  0  0  0  0  0  0  0  0
   59.1900   32.5817   42.6176 H   0  0  0  0  0  0  0  0  0  0  0  0
   57.9894   31.4033   41.9878 H   0  0  0  0  0  0  0  0  0  0  0  0
   57.6099   33.1591   41.9878 H   0  0  0  0  0  0  0  0  0  0  0  0
   57.7173   34.3269   43.7707 H   0  0  0  0  0  0  0  0  0  0  0  0
   56.3625   33.7175   44.7968 H   0  0  0  0  0  0  0  0  0  0  0  0
   59.9703   34.5224   44.6600 H   0  0  0  0  0  0  0  0  0  0  0  0
   61.4361   34.5995   46.6726 H   0  0  0  0  0  0  0  0  0  0  0  0
   59.3370   33.7092   50.6802 H   0  0  0  0  0  0  0  0  0  0  0  0
   60.1646   32.1428   50.2939 H   0  0  0  0  0  0  0  0  0  0  0  0
   61.2772   34.5151   51.8586 H   0  0  0  0  0  0  0  0  0  0  0  0
   60.9812   32.8412   52.4407 H   0  0  0  0  0  0  0  0  0  0  0  0
   63.3781   33.1803   51.9720 H   0  0  0  0  0  0  0  0  0  0  0  0
   62.6512   31.9971   50.8057 H   0  0  0  0  0  0  0  0  0  0  0  0
   63.7585   34.7139   50.4035 H   0  0  0  0  0  0  0  0  0  0  0  0
   64.7906   32.3092   50.8106 H   0  0  0  0  0  0  0  0  0  0  0  0
   64.5380   31.1679   49.4467 H   0  0  0  0  0  0  0  0  0  0  0  0
   65.9587   32.2671   49.4467 H   0  0  0  0  0  0  0  0  0  0  0  0
   62.6981   31.9025   48.1111 H   0  0  0  0  0  0  0  0  0  0  0  0
   63.0311   33.4222   47.2133 H   0  0  0  0  0  0  0  0  0  0  0  0
   64.2419   32.0954   47.2133 H   0  0  0  0  0  0  0  0  0  0  0  0
   61.8252   35.5725   49.5800 H   0  0  0  0  0  0  0  0  0  0  0  0
   62.3499   34.6797   48.0879 H   0  0  0  0  0  0  0  0  0  0  0  0
   58.2433   32.9027   49.0601 H   0  0  0  0  0  0  0  0  0  0  0  0
   56.7832   32.8183   47.0444 H   0  0  0  0  0  0  0  0  0  0  0  0
  1  2  1  0
  2  3  1  0
  2  4  1  0
  4  5  1  0
  5  6  1  0
  5  7  1  0
  7  8  1  0
  8  9  2  0
  9 10  1  0
 10 11  2  0
 11 12  1  0
 12 13  1  0
 13 14  1  0
 14 15  1  0
 15 16  1  0
 16 17  1  0
 17 18  1  0
 17 19  1  0
 16 20  1  0
 11 21  1  0
 21 22  2  0
 22  8  1  0
 20 12  1  0
  1 23  1  0
  1 24  1  0
  1 25  1  0
  2 26  1  0
  3 27  1  0
  3 28  1  0
  3 29  1  0
  4 30  1  0
  4 31  1  0
  6 32  1  0
  6 33  1  0
  6 34  1  0
  7 35  1  0
  7 36  1  0
  9 37  1  0
 10 38  1  0
 13 39  1  0
 13 40  1  0
 14 41  1  0
 14 42  1  0
 15 43  1  0
 15 44  1  0
 16 45  1  1
 18 46  1  0
 18 47  1  0
 18 48  1  0
 19 49  1  0
 19 50  1  0
 19 51  1  0
 20 52  1  0
 20 53  1  0
 21 54  1  0
 22 55  1  0
M  END
>  <UniqueID>  (7) 
7

>  <SMILES>  (7) 
CC(C)CN(C)Cc1ccc(N2CCC[C@@H](N(C)C)C2)cc1

>  <Energy>  (7) 
59.50592267050034

>  <Genealogy>  (7) 
CC(C)CN(C)Cc1ccc(N2CCC[C@@H](N(C)C)C2)cc1 (chirality)
CC(C)CN(C)Cc1ccc(N2CCC[C@@H](N(C)C)C2)cc1 (3D coordinates assigned)
CC(C)CN(C)Cc1ccc(N2CCC[C@@H](N(C)C)C2)cc1 (nonaromatic ring conformer: 59.50592267050034 kcal/mol)

>  <smiles>  (7) 
CC(C)CN(C)Cc1ccc(N2CCCC(N(C)C)C2)cc1

>  <score_type>  (7) 
oracle

>  <origin>  (7) 
adg

>  <m_score__min__energy>  (7) 
-6.9500000000000002

>  <m_primary>  (7) 
energy

$$$$
7:0
     RDKit          3D

 29 30  0  0  0  0  0  0  0  0999 V2000
   58.9380   24.8440   45.8510 O   0  0  0  0  0  0  0  0  0  0  0  0
   58.0950   24.7850   44.9140 C   0  0  0  0  0  0  0  0  0  0  0  0
   57.4650   25.9850   44.4330 N   0  0  0  0  0  0  0  0  0  0  0  0
   57.5150   27.2550   45.1060 C   0  0  0  0  0  0  0  0  0  0  0  0
   57.5640   27.3160   46.7510 S   0  0  0  0  0  0  0  0  0  0  0  0
   57.1960   28.4420   44.3610 N   0  0  0  0  0  0  0  0  0  0  0  0
   57.6050   29.7700   44.7320 C   0  0  0  0  0  0  0  0  0  0  0  0
   58.6750   29.9850   45.6210 C   0  0  0  0  0  0  0  0  0  0  0  0
   59.0720   31.2870   45.9440 C   0  0  0  0  0  0  0  0  0  0  0  0
   58.4170   32.3810   45.3740 C   0  0  0  0  0  0  0  0  0  0  0  0
   57.3700   32.1760   44.4730 C   0  0  0  0  0  0  0  0  0  0  0  0
   56.9700   30.8760   44.1470 C   0  0  0  0  0  0  0  0  0  0  0  0
   57.7820   23.4780   44.2950 C   0  0  0  0  0  0  0  0  0  0  0  0
   58.3800   22.2910   44.7510 C   0  0  0  0  0  0  0  0  0  0  0  0
   58.0640   21.1070   44.1580 N   0  0  0  0  0  0  0  0  0  0  0  0
   57.1780   21.0520   43.1290 C   0  0  0  0  0  0  0  0  0  0  0  0
   56.5800   22.2270   42.6740 C   0  0  0  0  0  0  0  0  0  0  0  0
   56.8950   23.4080   43.2650 N   0  0  0  0  0  0  0  0  0  0  0  0
   57.0100   25.9600   43.4920 H   0  0  0  0  0  0  0  0  0  0  0  0
   56.6240   28.3320   43.4940 H   0  0  0  0  0  0  0  0  0  0  0  0
   59.2009   29.1261   46.0634 H   0  0  0  0  0  0  0  0  0  0  0  0
   59.9014   31.4494   46.6481 H   0  0  0  0  0  0  0  0  0  0  0  0
   58.7259   33.4040   45.6348 H   0  0  0  0  0  0  0  0  0  0  0  0
   56.8592   33.0380   44.0191 H   0  0  0  0  0  0  0  0  0  0  0  0
   56.1526   30.7197   43.4276 H   0  0  0  0  0  0  0  0  0  0  0  0
   59.0995   22.3183   45.5826 H   0  0  0  0  0  0  0  0  0  0  0  0
   58.5110   20.2280   44.4990 H   0  0  0  0  0  0  0  0  0  0  0  0
   56.9343   20.0880   42.6585 H   0  0  0  0  0  0  0  0  0  0  0  0
   55.8594   22.1971   41.8435 H   0  0  0  0  0  0  0  0  0  0  0  0
  1  2  2  0
  2  3  1  0
  3  4  1  0
  4  5  2  0
  4  6  1  0
  6  7  1  0
  7  8  2  0
  8  9  1  0
  9 10  2  0
 10 11  1  0
 11 12  2  0
  2 13  1  0
 13 14  2  0
 14 15  1  0
 15 16  2  0
 16 17  1  0
 17 18  2  0
 12  7  1  0
 18 13  1  0
  3 19  1  0
  6 20  1  0
  8 21  1  0
  9 22  1  0
 10 23  1  0
 11 24  1  0
 12 25  1  0
 14 26  1  0
 15 27  1  0
 16 28  1  0
 17 29  1  0
M  CHG  1  15   1
M  END
>  <UniqueID>  (8) 
8

>  <SMILES>  (8) 
O=C(NC(=S)Nc1ccccc1)c1c[nH+]ccn1

>  <Energy>  (8) 
38.60007227679733

>  <Genealogy>  (8) 
O=C(NC(=S)Nc1ccccc1)c1c[nH+]ccn1 (protonated)
O=C(NC(=S)Nc1ccccc1)c1c[nH+]ccn1 (3D coordinates assigned)
O=C(NC(=S)Nc1ccccc1)c1c[nH+]ccn1 (optimized conformer: 38.60007227679733 kcal/mol)

>  <smiles>  (8) 
O=C(NC(=S)Nc1ccccc1)c1cnccn1

>  <score_type>  (8) 
oracle

>  <origin>  (8) 
adg

>  <m_score__min__energy>  (8) 
-5.8899999999999997

>  <m_primary>  (8) 
energy

$$$$
8:0
     RDKit          3D

 47 48  0  0  0  0  0  0  0  0999 V2000
   63.2340   32.7610   47.1220 C   0  0  0  0  0  0  0  0  0  0  0  0
   62.2190   33.8340   46.7330 C   0  0  0  0  0  0  0  0  0  0  0  0
   60.7620   33.3510   46.8480 C   0  0  0  0  0  0  0  0  0  0  0  0
   59.7490   34.1210   45.9770 C   0  0  0  0  0  0  0  0  0  0  0  0
   58.2670   33.8900   46.3350 C   0  0  0  0  0  0  0  0  0  0  0  0
   57.3690   33.5220   45.1400 C   0  0  0  0  0  0  0  0  0  0  0  0
   58.1700   33.0080   43.9320 C   0  0  0  0  0  0  0  0  0  0  0  0
   57.4020   31.9750   43.0940 C   0  0  0  0  0  0  0  0  0  0  0  0
   57.2640   30.3520   43.8470 S   0  0  0  0  0  0  0  0  0  0  0  0
   56.9080   29.3940   42.7440 O   0  0  0  0  0  0  0  0  0  0  0  0
   56.1510   30.3470   44.8570 O   0  0  0  0  0  0  0  0  0  0  0  0
   58.8170   29.8140   44.5990 C   0  0  1  0  0  0  0  0  0  0  0  0
   58.9400   30.1520   46.0840 C   0  0  0  0  0  0  0  0  0  0  0  0
   59.8950   29.1170   46.6530 C   0  0  1  0  0  0  0  0  0  0  0  0
   59.2730   27.8850   46.9250 O   0  0  0  0  0  0  0  0  0  0  0  0
   59.9890   27.9860   45.7110 C   0  0  1  0  0  0  0  0  0  0  0  0
   59.1260   28.3030   44.4910 C   0  0  1  0  0  0  0  0  0  0  0  0
   57.9170   27.4000   44.4530 C   0  0  0  0  0  0  0  0  0  0  0  0
   57.7940   26.5670   43.5150 O   0  0  0  0  0  0  0  0  0  0  0  0
   56.9490   27.4780   45.4600 O   0  0  0  0  0  0  0  0  0  0  0  0
   56.6750   26.4000   46.3460 C   0  0  0  0  0  0  0  0  0  0  0  0
   63.2962   32.6953   48.2183 H   0  0  0  0  0  0  0  0  0  0  0  0
   62.9159   31.7903   46.7139 H   0  0  0  0  0  0  0  0  0  0  0  0
   64.2209   33.0247   46.7139 H   0  0  0  0  0  0  0  0  0  0  0  0
   62.3543   34.7016   47.3955 H   0  0  0  0  0  0  0  0  0  0  0  0
   62.3989   34.0915   45.6788 H   0  0  0  0  0  0  0  0  0  0  0  0
   60.7295   32.2917   46.5533 H   0  0  0  0  0  0  0  0  0  0  0  0
   60.4627   33.5235   47.8924 H   0  0  0  0  0  0  0  0  0  0  0  0
   59.9603   35.1957   46.0788 H   0  0  0  0  0  0  0  0  0  0  0  0
   59.8781   33.7432   44.9520 H   0  0  0  0  0  0  0  0  0  0  0  0
   58.2147   33.0718   47.0683 H   0  0  0  0  0  0  0  0  0  0  0  0
   57.8883   34.8455   46.7270 H   0  0  0  0  0  0  0  0  0  0  0  0
   56.6665   32.7369   45.4563 H   0  0  0  0  0  0  0  0  0  0  0  0
   56.8432   34.4356   44.8257 H   0  0  0  0  0  0  0  0  0  0  0  0
   58.4205   33.8641   43.2884 H   0  0  0  0  0  0  0  0  0  0  0  0
   59.0690   32.5093   44.3233 H   0  0  0  0  0  0  0  0  0  0  0  0
   56.3862   32.3604   42.9219 H   0  0  0  0  0  0  0  0  0  0  0  0
   57.9763   31.8390   42.1657 H   0  0  0  0  0  0  0  0  0  0  0  0
   59.5373   30.3845   43.9943 H   0  0  0  0  0  0  0  0  0  0  0  0
   59.3469   31.1654   46.2160 H   0  0  0  0  0  0  0  0  0  0  0  0
   57.9641   30.1322   46.5912 H   0  0  0  0  0  0  0  0  0  0  0  0
   60.5807   29.7714   47.2112 H   0  0  0  0  0  0  0  0  0  0  0  0
   60.7646   27.3693   45.2334 H   0  0  0  0  0  0  0  0  0  0  0  0
   59.6230   28.1073   43.5294 H   0  0  0  0  0  0  0  0  0  0  0  0
   56.7635   26.7483   47.3856 H   0  0  0  0  0  0  0  0  0  0  0  0
   55.6543   26.0302   46.1689 H   0  0  0  0  0  0  0  0  0  0  0  0
   57.3952   25.5877   46.1689 H   0  0  0  0  0  0  0  0  0  0  0  0
  1  2  1  0
  2  3  1  0
  3  4  1  0
  4  5  1  0
  5  6  1  0
  6  7  1  0
  7  8  1  0
  8  9  1  0
  9 10  2  0
  9 11  2  0
  9 12  1  0
 12 13  1  0
 13 14  1  0
 14 15  1  0
 15 16  1  0
 16 17  1  0
 17 18  1  0
 18 19  2  0
 18 20  1  0
 20 21  1  0
 17 12  1  0
 16 14  1  0
  1 22  1  0
  1 23  1  0
  1 24  1  0
  2 25  1  0
  2 26  1  0
  3 27  1  0
  3 28  1  0
  4 29  1  0
  4 30  1  0
  5 31  1  0
  5 32  1  0
  6 33  1  0
  6 34  1  0
  7 35  1  0
  7 36  1  0
  8 37  1  0
  8 38  1  0
 12 39  1  6
 13 40  1  0
 13 41  1  0
 14 42  1  1
 16 43  1  6
 17 44  1  6
 21 45  1  0
 21 46  1  0
 21 47  1  0
M  END
>  <UniqueID>  (9) 
9

>  <SMILES>  (9) 
CCCCCCCCS(=O)(=O)[C@H]1C[C@H]2OC2C1C(=O)OC

>  <Energy>  (9) 
363.2925286556969

>  <Genealogy>  (9) 
CCCCCCCCS(=O)(=O)[C@H]1C[C@H]2OC2C1C(=O)OC (chirality)
CCCCCCCCS(=O)(=O)[C@H]1C[C@H]2OC2C1C(=O)OC (3D coordinates assigned)
CCCCCCCCS(=O)(=O)[C@H]1C[C@H]2OC2C1C(=O)OC (nonaromatic ring conformer: 363.2925286556969 kcal/mol)

>  <smiles>  (9) 
CCCCCCCCS(=O)(=O)C1CC2OC2C1C(=O)OC

>  <score_type>  (9) 
oracle

>  <origin>  (9) 
adg

>  <m_score__min__energy>  (9) 
-7.4100000000000001

>  <m_primary>  (9) 
energy

$$$$
9:0
     RDKit          3D

 46 48  0  0  0  0  0  0  0  0999 V2000
   59.7340   31.1550   50.0890 C   0  0  0  0  0  0  0  0  0  0  0  0
   58.9700   30.2460   49.1340 C   0  0  0  0  0  0  0  0  0  0  0  0
   59.1300   30.6940   47.7370 N   0  0  0  0  0  0  0  0  0  0  0  0
   58.4710   31.9200   47.3270 C   0  0  0  0  0  0  0  0  0  0  0  0
   57.8230   32.5980   48.1720 O   0  0  0  0  0  0  0  0  0  0  0  0
   58.5330   32.4250   45.9350 C   0  0  0  0  0  0  0  0  0  0  0  0
   59.1920   33.6400   45.6470 C   0  0  0  0  0  0  0  0  0  0  0  0
   59.8200   34.3980   46.6430 O   0  0  0  0  0  0  0  0  0  0  0  0
   61.0780   34.1140   47.1920 C   0  0  0  0  0  0  0  0  0  0  0  0
   62.2010   33.8350   46.3900 C   0  0  0  0  0  0  0  0  0  0  0  0
   63.4350   33.5530   46.9820 C   0  0  0  0  0  0  0  0  0  0  0  0
   63.5630   33.5580   48.3740 C   0  0  0  0  0  0  0  0  0  0  0  0
   62.4570   33.8530   49.1760 C   0  0  0  0  0  0  0  0  0  0  0  0
   62.6130   33.8570   50.9230 Cl  0  0  0  0  0  0  0  0  0  0  0  0
   61.2210   34.1380   48.5840 C   0  0  0  0  0  0  0  0  0  0  0  0
   59.1940   34.1150   44.3760 N   0  0  0  0  0  0  0  0  0  0  0  0
   58.6150   33.4550   43.3740 N   0  0  0  0  0  0  0  0  0  0  0  0
   57.9820   32.2730   43.5740 C   0  0  0  0  0  0  0  0  0  0  0  0
   57.3820   31.6140   42.4950 C   0  0  0  0  0  0  0  0  0  0  0  0
   56.7050   30.4100   42.6990 C   0  0  0  0  0  0  0  0  0  0  0  0
   56.6200   29.8640   43.9810 C   0  0  0  0  0  0  0  0  0  0  0  0
   57.2170   30.5140   45.0660 C   0  0  0  0  0  0  0  0  0  0  0  0
   57.9170   31.7240   44.8740 C   0  0  0  0  0  0  0  0  0  0  0  0
   60.1170   30.0310   46.8540 C   0  0  0  0  0  0  0  0  0  0  0  0
   60.0730   28.5050   47.0130 C   0  0  0  0  0  0  0  0  0  0  0  0
   61.5250   30.5830   47.0980 C   0  0  0  0  0  0  0  0  0  0  0  0
   59.4996   30.8762   51.1269 H   0  0  0  0  0  0  0  0  0  0  0  0
   60.8145   31.0446   49.9147 H   0  0  0  0  0  0  0  0  0  0  0  0
   59.4394   32.2004   49.9147 H   0  0  0  0  0  0  0  0  0  0  0  0
   59.3544   29.2197   49.2291 H   0  0  0  0  0  0  0  0  0  0  0  0
   57.9018   30.2826   49.3940 H   0  0  0  0  0  0  0  0  0  0  0  0
   62.1067   33.8390   45.2941 H   0  0  0  0  0  0  0  0  0  0  0  0
   64.3074   33.3266   46.3514 H   0  0  0  0  0  0  0  0  0  0  0  0
   64.5339   33.3298   48.8380 H   0  0  0  0  0  0  0  0  0  0  0  0
   60.3557   34.3826   49.2176 H   0  0  0  0  0  0  0  0  0  0  0  0
   57.4438   32.0451   41.4849 H   0  0  0  0  0  0  0  0  0  0  0  0
   56.2382   29.8912   41.8487 H   0  0  0  0  0  0  0  0  0  0  0  0
   56.0810   28.9182   44.1385 H   0  0  0  0  0  0  0  0  0  0  0  0
   57.1405   30.0799   46.0738 H   0  0  0  0  0  0  0  0  0  0  0  0
   59.8453   30.2568   45.8123 H   0  0  0  0  0  0  0  0  0  0  0  0
   60.0656   28.2478   48.0825 H   0  0  0  0  0  0  0  0  0  0  0  0
   59.1632   28.1126   46.5352 H   0  0  0  0  0  0  0  0  0  0  0  0
   60.9587   28.0609   46.5352 H   0  0  0  0  0  0  0  0  0  0  0  0
   61.7082   30.6548   48.1803 H   0  0  0  0  0  0  0  0  0  0  0  0
   62.2667   29.9091   46.6445 H   0  0  0  0  0  0  0  0  0  0  0  0
   61.6111   31.5815   46.6445 H   0  0  0  0  0  0  0  0  0  0  0  0
  1  2  1  0
  2  3  1  0
  3  4  1  0
  4  5  2  0
  4  6  1  0
  6  7  2  0
  7  8  1  0
  8  9  1  0
  9 10  2  0
 10 11  1  0
 11 12  2  0
 12 13  1  0
 13 14  1  0
 13 15  2  0
  7 16  1  0
 16 17  2  0
 17 18  1  0
 18 19  2  0
 19 20  1  0
 20 21  2  0
 21 22  1  0
 22 23  2  0
  3 24  1  0
 24 25  1  0
 24 26  1  0
 23  6  1  0
 15  9  1  0
 23 18  1  0
  1 27  1  0
  1 28  1  0
  1 29  1  0
  2 30  1  0
  2 31  1  0
 10 32  1  0
 11 33  1  0
 12 34  1  0
 15 35  1  0
 19 36  1  0
 20 37  1  0
 21 38  1  0
 22 39  1  0
 24 40  1  0
 25 41  1  0
 25 42  1  0
 25 43  1  0
 26 44  1  0
 26 45  1  0
 26 46  1  0
M  END
>  <UniqueID>  (10) 
10

>  <SMILES>  (10) 
CCN(C(=O)c1c(Oc2cccc(Cl)c2)nnc2ccccc12)C(C)C

>  <Energy>  (10) 
59.516496586552506

>  <Genealogy>  (10) 
CCN(C(=O)c1c(Oc2cccc(Cl)c2)nnc2ccccc12)C(C)C (3D coordinates assigned)
CCN(C(=O)c1c(Oc2cccc(Cl)c2)nnc2ccccc12)C(C)C (optimized conformer: 59.516496586552506 kcal/mol)

>  <smiles>  (10) 
CCN(C(=O)c1c(Oc2cccc(Cl)c2)nnc2ccccc12)C(C)C

>  <score_type>  (10) 
oracle

>  <origin>  (10) 
adg

>  <m_score__min__energy>  (10) 
-7.8700000000000001

>  <m_primary>  (10) 
energy

$$$$
10:0
     RDKit          3D

 40 42  0  0  0  0  0  0  0  0999 V2000
   57.6590   31.4230   43.9870 C   0  0  0  0  0  0  0  0  0  0  0  0
   57.7510   30.7430   45.2010 C   0  0  0  0  0  0  0  0  0  0  0  0
   58.2820   31.3770   46.3280 C   0  0  0  0  0  0  0  0  0  0  0  0
   58.7340   32.7130   46.2550 C   0  0  0  0  0  0  0  0  0  0  0  0
   59.2780   33.3960   47.3800 C   0  0  0  0  0  0  0  0  0  0  0  0
   59.4300   32.7460   48.7400 C   0  0  0  0  0  0  0  0  0  0  0  0
   60.5750   33.4020   49.5350 C   0  0  0  0  0  0  0  0  0  0  0  0
   61.7640   32.5150   49.6400 N   0  0  0  0  0  0  0  0  0  0  0  0
   63.0210   33.3020   49.6260 C   0  0  0  0  0  0  0  0  0  0  0  0
   63.2790   33.9800   48.2670 C   0  0  0  0  0  0  0  0  0  0  0  0
   62.8840   33.0950   47.0720 C   0  0  0  0  0  0  0  0  0  0  0  0
   62.7790   31.6240   47.4710 C   0  0  0  0  0  0  0  0  0  0  0  0
   61.7580   31.4300   48.6120 C   0  0  0  0  0  0  0  0  0  0  0  0
   59.7400   34.7140   47.2240 C   0  0  0  0  0  0  0  0  0  0  0  0
   59.6440   35.3670   45.9960 C   0  0  0  0  0  0  0  0  0  0  0  0
   59.0950   34.7140   44.8940 C   0  0  0  0  0  0  0  0  0  0  0  0
   58.6420   33.3930   45.0090 C   0  0  0  0  0  0  0  0  0  0  0  0
   58.1030   32.7420   43.8890 C   0  0  0  0  0  0  0  0  0  0  0  0
   57.2359   30.9189   43.1056 H   0  0  0  0  0  0  0  0  0  0  0  0
   57.4037   29.7017   45.2722 H   0  0  0  0  0  0  0  0  0  0  0  0
   58.3484   30.8304   47.2803 H   0  0  0  0  0  0  0  0  0  0  0  0
   58.4905   32.8592   49.3008 H   0  0  0  0  0  0  0  0  0  0  0  0
   59.6649   31.6809   48.5974 H   0  0  0  0  0  0  0  0  0  0  0  0
   60.8705   34.3326   49.0285 H   0  0  0  0  0  0  0  0  0  0  0  0
   60.2096   33.6001   50.5535 H   0  0  0  0  0  0  0  0  0  0  0  0
   61.7310   32.0560   50.5830 H   0  0  0  0  0  0  0  0  0  0  0  0
   62.9588   34.0795   50.4017 H   0  0  0  0  0  0  0  0  0  0  0  0
   63.8521   32.6067   49.8151 H   0  0  0  0  0  0  0  0  0  0  0  0
   62.6947   34.9109   48.2226 H   0  0  0  0  0  0  0  0  0  0  0  0
   64.3597   34.1712   48.1933 H   0  0  0  0  0  0  0  0  0  0  0  0
   61.9101   33.4304   46.6861 H   0  0  0  0  0  0  0  0  0  0  0  0
   63.6648   33.1876   46.3028 H   0  0  0  0  0  0  0  0  0  0  0  0
   62.4581   31.0368   46.5979 H   0  0  0  0  0  0  0  0  0  0  0  0
   63.7649   31.2859   47.8227 H   0  0  0  0  0  0  0  0  0  0  0  0
   60.7524   31.3822   48.1688 H   0  0  0  0  0  0  0  0  0  0  0  0
   62.0429   30.5039   49.1328 H   0  0  0  0  0  0  0  0  0  0  0  0
   60.1838   35.2380   48.0833 H   0  0  0  0  0  0  0  0  0  0  0  0
   60.0031   36.4020   45.8965 H   0  0  0  0  0  0  0  0  0  0  0  0
   59.0170   35.2378   43.9299 H   0  0  0  0  0  0  0  0  0  0  0  0
   58.0302   33.2741   42.9290 H   0  0  0  0  0  0  0  0  0  0  0  0
  1  2  2  0
  2  3  1  0
  3  4  2  0
  4  5  1  0
  5  6  1  0
  6  7  1  0
  7  8  1  0
  8  9  1  0
  9 10  1  0
 10 11  1  0
 11 12  1  0
 12 13  1  0
  5 14  2  0
 14 15  1  0
 15 16  2  0
 16 17  1  0
 17 18  2  0
 18  1  1  0
 17  4  1  0
 13  8  1  0
  1 19  1  0
  2 20  1  0
  3 21  1  0
  6 22  1  0
  6 23  1  0
  7 24  1  0
  7 25  1  0
  8 26  1  0
  9 27  1  0
  9 28  1  0
 10 29  1  0
 10 30  1  0
 11 31  1  0
 11 32  1  0
 12 33  1  0
 12 34  1  0
 13 35  1  0
 13 36  1  0
 14 37  1  0
 15 38  1  0
 16 39  1  0
 18 40  1  0
M  CHG  1   8   1
M  END
>  <UniqueID>  (11) 
11

>  <SMILES>  (11) 
c1ccc2c(CC[NH+]3CCCCC3)cccc2c1

>  <Energy>  (11) 
53.89356814585529

>  <Genealogy>  (11) 
c1ccc2c(CC[NH+]3CCCCC3)cccc2c1 (protonated)
c1ccc2c(CC[NH+]3CCCCC3)cccc2c1 (3D coordinates assigned)
c1ccc2c(CC[NH+]3CCCCC3)cccc2c1 (nonaromatic ring conformer: 53.89356814585529 kcal/mol)

>  <smiles>  (11) 
c1ccc2c(CCN3CCCCC3)cccc2c1

>  <score_type>  (11) 
oracle

>  <origin>  (11) 
adg

>  <m_score__min__energy>  (11) 
-5.54

>  <m_primary>  (11) 
energy

$$$$
11:0
     RDKit          3D

 53 57  0  0  0  0  0  0  0  0999 V2000
   60.0170   29.1150   49.5070 C   0  0  0  0  0  0  0  0  0  0  0  0
   59.3330   29.6860   48.3070 C   0  0  0  0  0  0  0  0  0  0  0  0
   59.3200   31.0810   48.0960 C   0  0  0  0  0  0  0  0  0  0  0  0
   58.6770   31.5930   46.9550 C   0  0  0  0  0  0  0  0  0  0  0  0
   58.6360   33.0090   46.7060 N   0  0  0  0  0  0  0  0  0  0  0  0
   57.4750   33.6060   46.0350 C   0  0  0  0  0  0  0  0  0  0  0  0
   57.9090   34.6000   44.9350 C   0  0  0  0  0  0  0  0  0  0  0  0
   59.2720   35.1350   45.1140 N   0  0  0  0  0  0  0  0  0  0  0  0
   59.6370   35.2590   46.5290 C   0  0  0  0  0  0  0  0  0  0  0  0
   59.7200   33.8730   47.1850 C   0  0  0  0  0  0  0  0  0  0  0  0
   58.1010   30.7030   46.1040 N   0  0  0  0  0  0  0  0  0  0  0  0
   57.4760   30.9650   44.9680 N   0  0  0  0  0  0  0  0  0  0  0  0
   57.0960   29.7750   44.4440 C   0  0  0  0  0  0  0  0  0  0  0  0
   56.3760   29.6560   43.1390 C   0  0  0  0  0  0  0  0  0  0  0  0
   57.4950   28.7280   45.2820 C   0  0  0  0  0  0  0  0  0  0  0  0
   57.3110   27.2710   45.1030 C   0  0  0  0  0  0  0  0  0  0  0  0
   57.8360   26.6180   43.9790 C   0  0  0  0  0  0  0  0  0  0  0  0
   57.6410   25.2460   43.8070 C   0  0  0  0  0  0  0  0  0  0  0  0
   56.9150   24.5230   44.7690 C   0  0  0  0  0  0  0  0  0  0  0  0
   56.6720   23.0630   44.6320 C   0  0  0  0  0  0  0  0  0  0  0  0
   56.8710   22.4330   43.3900 C   0  0  0  0  0  0  0  0  0  0  0  0
   56.6590   21.0580   43.2470 C   0  0  0  0  0  0  0  0  0  0  0  0
   56.2550   20.2950   44.3430 C   0  0  0  0  0  0  0  0  0  0  0  0
   56.0660   20.9030   45.5850 C   0  0  0  0  0  0  0  0  0  0  0  0
   56.2750   22.2780   45.7320 C   0  0  0  0  0  0  0  0  0  0  0  0
   56.4360   25.1770   45.8620 N   0  0  0  0  0  0  0  0  0  0  0  0
   56.6110   26.5110   46.0500 C   0  0  0  0  0  0  0  0  0  0  0  0
   58.1380   29.3810   46.3120 C   0  0  0  0  0  0  0  0  0  0  0  0
   58.7420   28.8500   47.4020 N   0  0  0  0  0  0  0  0  0  0  0  0
   59.5456   29.5085   50.4196 H   0  0  0  0  0  0  0  0  0  0  0  0
   59.9288   28.0186   49.4923 H   0  0  0  0  0  0  0  0  0  0  0  0
   61.0800   29.3976   49.4923 H   0  0  0  0  0  0  0  0  0  0  0  0
   59.8059   31.7584   48.8137 H   0  0  0  0  0  0  0  0  0  0  0  0
   56.8753   32.8054   45.5775 H   0  0  0  0  0  0  0  0  0  0  0  0
   56.8863   34.1549   46.7848 H   0  0  0  0  0  0  0  0  0  0  0  0
   57.8648   34.0834   43.9649 H   0  0  0  0  0  0  0  0  0  0  0  0
   57.2210   35.4565   44.9904 H   0  0  0  0  0  0  0  0  0  0  0  0
   59.9540   34.4910   44.6440 H   0  0  0  0  0  0  0  0  0  0  0  0
   60.6148   35.7566   46.6086 H   0  0  0  0  0  0  0  0  0  0  0  0
   58.8674   35.8519   47.0449 H   0  0  0  0  0  0  0  0  0  0  0  0
   60.6869   33.4121   46.9349 H   0  0  0  0  0  0  0  0  0  0  0  0
   59.6246   33.9903   48.2746 H   0  0  0  0  0  0  0  0  0  0  0  0
   55.3064   29.4792   43.3252 H   0  0  0  0  0  0  0  0  0  0  0  0
   56.4995   30.5867   42.5659 H   0  0  0  0  0  0  0  0  0  0  0  0
   56.7924   28.8145   42.5659 H   0  0  0  0  0  0  0  0  0  0  0  0
   58.4039   27.1887   43.2295 H   0  0  0  0  0  0  0  0  0  0  0  0
   58.0528   24.7345   42.9245 H   0  0  0  0  0  0  0  0  0  0  0  0
   57.1963   23.0273   42.5234 H   0  0  0  0  0  0  0  0  0  0  0  0
   56.8110   20.5775   42.2692 H   0  0  0  0  0  0  0  0  0  0  0  0
   56.0854   19.2142   44.2282 H   0  0  0  0  0  0  0  0  0  0  0  0
   55.7522   20.2997   46.4496 H   0  0  0  0  0  0  0  0  0  0  0  0
   56.1282   22.7502   46.7146 H   0  0  0  0  0  0  0  0  0  0  0  0
   56.2020   26.9963   46.9484 H   0  0  0  0  0  0  0  0  0  0  0  0
  1  2  1  0
  2  3  1  0
  3  4  2  0
  4  5  1  0
  5  6  1  0
  6  7  1  0
  7  8  1  0
  8  9  1  0
  9 10  1  0
  4 11  1  0
 11 12  1  0
 12 13  2  0
 13 14  1  0
 13 15  1  0
 15 16  1  0
 16 17  2  0
 17 18  1  0
 18 19  2  0
 19 20  1  0
 20 21  2  0
 21 22  1  0
 22 23  2  0
 23 24  1  0
 24 25  2  0
 19 26  1  0
 26 27  2  0
 15 28  2  0
 28 29  1  0
 29  2  2  0
 10  5  1  0
 28 11  1  0
 27 16  1  0
 25 20  1  0
  1 30  1  0
  1 31  1  0
  1 32  1  0
  3 33  1  0
  6 34  1  0
  6 35  1  0
  7 36  1  0
  7 37  1  0
  8 38  1  0
  9 39  1  0
  9 40  1  0
 10 41  1  0
 10 42  1  0
 14 43  1  0
 14 44  1  0
 14 45  1  0
 17 46  1  0
 18 47  1  0
 21 48  1  0
 22 49  1  0
 23 50  1  0
 24 51  1  0
 25 52  1  0
 27 53  1  0
M  END
>  <UniqueID>  (12) 
12

>  <SMILES>  (12) 
Cc1cc(N2CCNCC2)n2nc(C)c(-c3ccc(-c4ccccc4)nc3)c2n1

>  <Energy>  (12) 
111.31850087483508

>  <Genealogy>  (12) 
Cc1cc(N2CCNCC2)n2nc(C)c(-c3ccc(-c4ccccc4)nc3)c2n1 (3D coordinates assigned)
Cc1cc(N2CCNCC2)n2nc(C)c(-c3ccc(-c4ccccc4)nc3)c2n1 (nonaromatic ring conformer: 111.31850087483508 kcal/mol)

>  <smiles>  (12) 
Cc1cc(N2CCNCC2)n2nc(C)c(-c3ccc(-c4ccccc4)nc3)c2n1

>  <score_type>  (12) 
oracle

>  <origin>  (12) 
adg

>  <m_score__min__energy>  (12) 
-8.75

>  <m_primary>  (12) 
energy

$$$$
12:0
     RDKit          3D

 50 53  0  0  0  0  0  0  0  0999 V2000
   58.1508   23.5968   46.0895 H   0  0  0  0  0  0  0  0  0  0  0  0
   57.8650   24.6570   46.0240 C   0  0  0  0  0  0  0  0  0  0  0  0
   58.8520   25.6400   45.9150 C   0  0  0  0  0  0  0  0  0  0  0  0
   59.9141   25.3538   45.9054 H   0  0  0  0  0  0  0  0  0  0  0  0
   58.4900   26.9890   45.8180 C   0  0  0  0  0  0  0  0  0  0  0  0
   59.2701   27.7619   45.7541 H   0  0  0  0  0  0  0  0  0  0  0  0
   57.1390   27.3590   45.8020 C   0  0  0  0  0  0  0  0  0  0  0  0
   56.7990   28.7520   45.7480 N   0  0  0  0  0  0  0  0  0  0  0  0
   57.5480   29.8020   45.5270 C   0  0  0  0  0  0  0  0  0  0  0  0
   57.4970   30.5910   44.3310 C   0  0  0  0  0  0  0  0  0  0  0  0
   56.9350   30.1450   43.1100 C   0  0  0  0  0  0  0  0  0  0  0  0
   56.5362   29.1224   43.0381 H   0  0  0  0  0  0  0  0  0  0  0  0
   56.8800   30.9860   41.9950 C   0  0  0  0  0  0  0  0  0  0  0  0
   56.4276   30.6260   41.0592 H   0  0  0  0  0  0  0  0  0  0  0  0
   57.3960   32.2790   42.0640 C   0  0  0  0  0  0  0  0  0  0  0  0
   57.2896   32.9614   41.2078 H   0  0  0  0  0  0  0  0  0  0  0  0
   58.0480   32.7060   43.2220 C   0  0  0  0  0  0  0  0  0  0  0  0
   58.4903   33.7123   43.2626 H   0  0  0  0  0  0  0  0  0  0  0  0
   58.1410   31.8570   44.3330 C   0  0  0  0  0  0  0  0  0  0  0  0
   58.9010   32.2410   45.3890 N   0  0  0  0  0  0  0  0  0  0  0  0
   59.0870   31.4510   46.4730 C   0  0  0  0  0  0  0  0  0  0  0  0
   59.9200   31.8920   47.5080 C   0  0  0  0  0  0  0  0  0  0  0  0
   60.4329   32.8614   47.4233 H   0  0  0  0  0  0  0  0  0  0  0  0
   60.1020   31.1070   48.6460 C   0  0  0  0  0  0  0  0  0  0  0  0
   60.7539   31.4630   49.4573 H   0  0  0  0  0  0  0  0  0  0  0  0
   59.4590   29.8670   48.7620 C   0  0  0  0  0  0  0  0  0  0  0  0
   59.6180   29.0770   50.0000 C   0  0  0  0  0  0  0  0  0  0  0  0
   60.3440   28.0390   49.9530 O   0  0  0  0  0  0  0  0  0  0  0  0
   58.9720   29.4410   51.2420 N   0  0  0  0  0  0  0  0  0  0  0  0
   59.4960   28.9100   52.5100 C   0  0  0  0  0  0  0  0  0  0  0  0
   59.4601   27.8108   52.4869 H   0  0  0  0  0  0  0  0  0  0  0  0
   58.8806   29.2867   53.3403 H   0  0  0  0  0  0  0  0  0  0  0  0
   60.9390   29.3640   52.7110 C   0  0  0  0  0  0  0  0  0  0  0  0
   61.1554   29.4321   53.7873 H   0  0  0  0  0  0  0  0  0  0  0  0
   61.6204   28.6368   52.2453 H   0  0  0  0  0  0  0  0  0  0  0  0
   61.0813   30.3503   52.2453 H   0  0  0  0  0  0  0  0  0  0  0  0
   57.7930   30.3240   51.2660 C   0  0  0  0  0  0  0  0  0  0  0  0
   57.1951   30.1472   50.3598 H   0  0  0  0  0  0  0  0  0  0  0  0
   57.2088   30.0966   52.1699 H   0  0  0  0  0  0  0  0  0  0  0  0
   58.1990   31.7950   51.3140 C   0  0  0  0  0  0  0  0  0  0  0  0
   58.2878   32.1168   52.3621 H   0  0  0  0  0  0  0  0  0  0  0  0
   59.1666   31.9250   50.8072 H   0  0  0  0  0  0  0  0  0  0  0  0
   57.4351   32.4030   50.8072 H   0  0  0  0  0  0  0  0  0  0  0  0
   58.6120   29.4270   47.7340 C   0  0  0  0  0  0  0  0  0  0  0  0
   58.0872   28.4657   47.8360 H   0  0  0  0  0  0  0  0  0  0  0  0
   58.4250   30.2050   46.5680 C   0  0  0  0  0  0  0  0  0  0  0  0
   56.1470   26.3680   45.9540 C   0  0  0  0  0  0  0  0  0  0  0  0
   54.8030   26.7160   46.0240 O   0  0  0  0  0  0  0  0  0  0  0  0
   56.5140   25.0190   46.0500 C   0  0  0  0  0  0  0  0  0  0  0  0
   55.7392   24.2441   46.1459 H   0  0  0  0  0  0  0  0  0  0  0  0
  1  2  1  0
  2  3  2  0
  3  4  1  0
  3  5  1  0
  5  6  1  0
  5  7  2  0
  7  8  1  0
  8  9  2  0
  9 10  1  0
 10 11  2  0
 11 12  1  0
 11 13  1  0
 13 14  1  0
 13 15  2  0
 15 16  1  0
 15 17  1  0
 17 18  1  0
 17 19  2  0
 19 20  1  0
 20 21  1  0
 21 22  2  0
 22 23  1  0
 22 24  1  0
 24 25  1  0
 24 26  2  0
 26 27  1  0
 27 28  2  0
 27 29  1  0
 29 30  1  0
 30 31  1  0
 30 32  1  0
 30 33  1  0
 33 34  1  0
 33 35  1  0
 33 36  1  0
 29 37  1  0
 37 38  1  0
 37 39  1  0
 37 40  1  0
 40 41  1  0
 40 42  1  0
 40 43  1  0
 26 44  1  0
 44 45  1  0
 44 46  2  0
  7 47  1  0
 47 48  1  0
 47 49  2  0
 49 50  1  0
 49  2  1  0
 46  9  1  0
 19 10  1  0
 46 21  1  0
M  CHG  2  20  -1  48  -1
M  END
>  <UniqueID>  (13) 
13

>  <SMILES>  (13) 
CCN(CC)C(=O)c1ccc2[n-]c3ccccc3/c(=N\c3ccccc3[O-])c2c1

>  <Energy>  (13) 
82.565219875254

>  <Genealogy>  (13) 
CCN(CC)C(=O)c1ccc2[n-]c3ccccc3c(=Nc3ccccc3[O-])c2c1 (protonated)
CCN(CC)C(=O)c1ccc2[n-]c3ccccc3/c(=N\c3ccccc3[O-])c2c1 (cis-trans isomerization)
CCN(CC)C(=O)c1ccc2[n-]c3ccccc3/c(=N\c3ccccc3[O-])c2c1 (3D coordinates assigned)
CCN(CC)C(=O)c1ccc2[n-]c3ccccc3/c(=N\c3ccccc3[O-])c2c1 (optimized conformer: 82.565219875254 kcal/mol)

>  <smiles>  (13) 
CCN(CC)C(=O)c1ccc2[nH]c3ccccc3c(=Nc3ccccc3O)c2c1

>  <score_type>  (13) 
oracle

>  <origin>  (13) 
adg

>  <m_score__min__energy>  (13) 
-12.880000000000001

>  <m_primary>  (13) 
energy

$$$$
13:0
     RDKit          3D

 42 44  0  0  0  0  0  0  0  0999 V2000
   60.7530   27.0610   49.2160 C   0  0  0  0  0  0  0  0  0  0  0  0
   60.7510   27.2520   47.8040 O   0  0  0  0  0  0  0  0  0  0  0  0
   59.8960   28.1300   47.1210 C   0  0  0  0  0  0  0  0  0  0  0  0
   59.6170   29.3660   47.7080 C   0  0  0  0  0  0  0  0  0  0  0  0
   58.7710   30.2980   47.0800 C   0  0  0  0  0  0  0  0  0  0  0  0
   58.4930   31.5800   47.6900 N   0  0  0  0  0  0  0  0  0  0  0  0
   59.3940   32.2690   48.6190 C   0  0  0  0  0  0  0  0  0  0  0  0
   60.7190   32.6220   47.9640 C   0  0  0  0  0  0  0  0  0  0  0  0
   61.8740   31.9020   48.3370 C   0  0  0  0  0  0  0  0  0  0  0  0
   63.1130   32.1960   47.7710 C   0  0  0  0  0  0  0  0  0  0  0  0
   63.2230   33.1970   46.8130 C   0  0  0  0  0  0  0  0  0  0  0  0
   62.0900   33.8940   46.3950 C   0  0  0  0  0  0  0  0  0  0  0  0
   60.8190   33.6030   46.9340 C   0  0  0  0  0  0  0  0  0  0  0  0
   59.6050   34.3560   46.4200 C   0  0  0  0  0  0  0  0  0  0  0  0
   58.8620   34.8410   47.4810 F   0  0  0  0  0  0  0  0  0  0  0  0
   60.0130   35.4070   45.6220 F   0  0  0  0  0  0  0  0  0  0  0  0
   58.7770   33.5380   45.6690 F   0  0  0  0  0  0  0  0  0  0  0  0
   58.1940   29.9680   45.8370 C   0  0  0  0  0  0  0  0  0  0  0  0
   57.3750   30.8560   45.2100 N   0  0  0  0  0  0  0  0  0  0  0  0
   56.7980   30.5910   44.0130 C   0  0  0  0  0  0  0  0  0  0  0  0
   57.0320   29.3750   43.3760 C   0  0  0  0  0  0  0  0  0  0  0  0
   57.8680   28.4210   43.9740 C   0  0  0  0  0  0  0  0  0  0  0  0
   58.1050   27.1140   43.2610 C   0  0  0  0  0  0  0  0  0  0  0  0
   58.4650   28.7150   45.2270 C   0  0  0  0  0  0  0  0  0  0  0  0
   59.3190   27.8060   45.8810 C   0  0  0  0  0  0  0  0  0  0  0  0
   60.7428   28.0395   49.7184 H   0  0  0  0  0  0  0  0  0  0  0  0
   59.8608   26.4886   49.5098 H   0  0  0  0  0  0  0  0  0  0  0  0
   61.6570   26.5074   49.5098 H   0  0  0  0  0  0  0  0  0  0  0  0
   60.0674   29.6156   48.6800 H   0  0  0  0  0  0  0  0  0  0  0  0
   57.6050   32.0760   47.4540 H   0  0  0  0  0  0  0  0  0  0  0  0
   58.9098   33.1945   48.9639 H   0  0  0  0  0  0  0  0  0  0  0  0
   59.5990   31.5919   49.4613 H   0  0  0  0  0  0  0  0  0  0  0  0
   61.7953   31.0984   49.0841 H   0  0  0  0  0  0  0  0  0  0  0  0
   64.0060   31.6346   48.0831 H   0  0  0  0  0  0  0  0  0  0  0  0
   64.2062   33.4399   46.3836 H   0  0  0  0  0  0  0  0  0  0  0  0
   62.1885   34.6821   45.6340 H   0  0  0  0  0  0  0  0  0  0  0  0
   56.1426   31.3389   43.5429 H   0  0  0  0  0  0  0  0  0  0  0  0
   56.5615   29.1629   42.4046 H   0  0  0  0  0  0  0  0  0  0  0  0
   58.2502   26.3135   44.0014 H   0  0  0  0  0  0  0  0  0  0  0  0
   57.2352   26.8772   42.6307 H   0  0  0  0  0  0  0  0  0  0  0  0
   59.0026   27.1977   42.6307 H   0  0  0  0  0  0  0  0  0  0  0  0
   59.5366   26.8328   45.4168 H   0  0  0  0  0  0  0  0  0  0  0  0
  1  2  1  0
  2  3  1  0
  3  4  2  0
  4  5  1  0
  5  6  1  0
  6  7  1  0
  7  8  1  0
  8  9  2  0
  9 10  1  0
 10 11  2  0
 11 12  1  0
 12 13  2  0
 13 14  1  0
 14 15  1  0
 14 16  1  0
 14 17  1  0
  5 18  2  0
 18 19  1  0
 19 20  2  0
 20 21  1  0
 21 22  2  0
 22 23  1  0
 22 24  1  0
 24 25  2  0
 25  3  1  0
 13  8  1  0
 24 18  1  0
  1 26  1  0
  1 27  1  0
  1 28  1  0
  4 29  1  0
  6 30  1  0
  7 31  1  0
  7 32  1  0
  9 33  1  0
 10 34  1  0
 11 35  1  0
 12 36  1  0
 20 37  1  0
 21 38  1  0
 23 39  1  0
 23 40  1  0
 23 41  1  0
 25 42  1  0
M  END
>  <UniqueID>  (14) 
14

>  <SMILES>  (14) 
COc1cc(NCc2ccccc2C(F)(F)F)c2nccc(C)c2c1

>  <Energy>  (14) 
53.35364306276244

>  <Genealogy>  (14) 
COc1cc(NCc2ccccc2C(F)(F)F)c2nccc(C)c2c1 (3D coordinates assigned)
COc1cc(NCc2ccccc2C(F)(F)F)c2nccc(C)c2c1 (optimized conformer: 53.35364306276244 kcal/mol)

>  <smiles>  (14) 
COc1cc(NCc2ccccc2C(F)(F)F)c2nccc(C)c2c1

>  <score_type>  (14) 
oracle

>  <origin>  (14) 
adg

>  <m_score__min__energy>  (14) 
-6.75

>  <m_primary>  (14) 
energy

$$$$
14:0
     RDKit          3D

 52 55  0  0  0  0  0  0  0  0999 V2000
   57.8270   32.2420   42.4240 C   0  0  0  0  0  0  0  0  0  0  0  0
   57.9890   31.4430   43.6780 C   0  0  0  0  0  0  0  0  0  0  0  0
   57.9520   30.0990   43.7320 N   0  0  0  0  0  0  0  0  0  0  0  0
   58.1500   29.7140   44.9840 N   0  0  0  0  0  0  0  0  0  0  0  0
   58.2110   28.3360   45.3890 C   0  0  0  0  0  0  0  0  0  0  0  0
   57.0230   27.6210   45.6080 C   0  0  0  0  0  0  0  0  0  0  0  0
   57.0690   26.2810   46.0000 C   0  0  0  0  0  0  0  0  0  0  0  0
   58.2990   25.6490   46.1880 C   0  0  0  0  0  0  0  0  0  0  0  0
   59.4860   26.3590   45.9960 C   0  0  0  0  0  0  0  0  0  0  0  0
   59.4440   27.7000   45.6030 C   0  0  0  0  0  0  0  0  0  0  0  0
   58.3390   30.8090   45.7570 C   0  0  0  0  0  0  0  0  0  0  0  0
   58.5620   30.7850   47.2450 C   0  0  0  0  0  0  0  0  0  0  0  0
   58.2450   31.9380   44.9470 C   0  0  0  0  0  0  0  0  0  0  0  0
   58.4100   33.3530   45.3280 C   0  0  0  0  0  0  0  0  0  0  0  0
   57.7170   34.2330   44.7500 O   0  0  0  0  0  0  0  0  0  0  0  0
   59.3710   33.7420   46.3250 N   0  0  0  0  0  0  0  0  0  0  0  0
   60.6780   33.0750   46.3780 C   0  0  0  0  0  0  0  0  0  0  0  0
   61.6380   33.8280   47.3100 C   0  0  0  0  0  0  0  0  0  0  0  0
   61.0360   34.1110   48.6370 N   0  0  0  0  0  0  0  0  0  0  0  0
   61.1240   32.9600   49.5580 C   0  0  0  0  0  0  0  0  0  0  0  0
   59.9510   32.9170   50.4890 C   0  0  0  0  0  0  0  0  0  0  0  0
   59.8030   33.6770   51.6420 C   0  0  0  0  0  0  0  0  0  0  0  0
   58.5980   33.4310   52.3090 C   0  0  0  0  0  0  0  0  0  0  0  0
   57.7980   32.4820   51.6840 C   0  0  0  0  0  0  0  0  0  0  0  0
   58.5900   31.9480   50.3010 S   0  0  0  0  0  0  0  0  0  0  0  0
   59.6490   34.6520   48.5810 C   0  0  0  0  0  0  0  0  0  0  0  0
   59.1370   34.9230   47.1580 C   0  0  0  0  0  0  0  0  0  0  0  0
   57.6145   33.2900   42.6819 H   0  0  0  0  0  0  0  0  0  0  0  0
   58.7539   32.1903   41.8339 H   0  0  0  0  0  0  0  0  0  0  0  0
   56.9934   31.8333   41.8339 H   0  0  0  0  0  0  0  0  0  0  0  0
   57.7880   29.4540   42.9270 H   0  0  0  0  0  0  0  0  0  0  0  0
   56.0515   28.1181   45.4703 H   0  0  0  0  0  0  0  0  0  0  0  0
   56.1346   25.7233   46.1607 H   0  0  0  0  0  0  0  0  0  0  0  0
   58.3334   24.5911   46.4876 H   0  0  0  0  0  0  0  0  0  0  0  0
   60.4549   25.8628   46.1541 H   0  0  0  0  0  0  0  0  0  0  0  0
   60.3807   28.2589   45.4609 H   0  0  0  0  0  0  0  0  0  0  0  0
   57.5967   30.8889   47.7621 H   0  0  0  0  0  0  0  0  0  0  0  0
   59.0300   29.8313   47.5303 H   0  0  0  0  0  0  0  0  0  0  0  0
   59.2223   31.6173   47.5303 H   0  0  0  0  0  0  0  0  0  0  0  0
   60.5442   32.0489   46.7511 H   0  0  0  0  0  0  0  0  0  0  0  0
   61.1080   33.0618   45.3656 H   0  0  0  0  0  0  0  0  0  0  0  0
   62.5409   33.2166   47.4553 H   0  0  0  0  0  0  0  0  0  0  0  0
   61.8749   34.7927   46.8376 H   0  0  0  0  0  0  0  0  0  0  0  0
   61.1485   32.0311   48.9693 H   0  0  0  0  0  0  0  0  0  0  0  0
   62.0399   33.0647   50.1581 H   0  0  0  0  0  0  0  0  0  0  0  0
   60.5555   34.3979   51.9944 H   0  0  0  0  0  0  0  0  0  0  0  0
   58.3108   33.9408   53.2405 H   0  0  0  0  0  0  0  0  0  0  0  0
   56.8136   32.1386   52.0348 H   0  0  0  0  0  0  0  0  0  0  0  0
   58.9753   33.9247   49.0576 H   0  0  0  0  0  0  0  0  0  0  0  0
   59.6658   35.6210   49.1013 H   0  0  0  0  0  0  0  0  0  0  0  0
   58.0594   35.1415   47.1909 H   0  0  0  0  0  0  0  0  0  0  0  0
   59.6717   35.7851   46.7326 H   0  0  0  0  0  0  0  0  0  0  0  0
  1  2  1  0
  2  3  2  0
  3  4  1  0
  4  5  1  0
  5  6  2  0
  6  7  1  0
  7  8  2  0
  8  9  1  0
  9 10  2  0
  4 11  1  0
 11 12  1  0
 11 13  2  0
 13 14  1  0
 14 15  2  0
 14 16  1  0
 16 17  1  0
 17 18  1  0
 18 19  1  0
 19 20  1  0
 20 21  1  0
 21 22  2  0
 22 23  1  0
 23 24  2  0
 24 25  1  0
 19 26  1  0
 26 27  1  0
 13  2  1  0
 27 16  1  0
 10  5  1  0
 25 21  1  0
  1 28  1  0
  1 29  1  0
  1 30  1  0
  3 31  1  0
  6 32  1  0
  7 33  1  0
  8 34  1  0
  9 35  1  0
 10 36  1  0
 12 37  1  0
 12 38  1  0
 12 39  1  0
 17 40  1  0
 17 41  1  0
 18 42  1  0
 18 43  1  0
 20 44  1  0
 20 45  1  0
 22 46  1  0
 23 47  1  0
 24 48  1  0
 26 49  1  0
 26 50  1  0
 27 51  1  0
 27 52  1  0
M  CHG  1   3   1
M  END
>  <UniqueID>  (15) 
15

>  <SMILES>  (15) 
Cc1[nH+]n(-c2ccccc2)c(C)c1C(=O)N1CCN(Cc2cccs2)CC1

>  <Energy>  (15) 
128.255237516654

>  <Genealogy>  (15) 
Cc1[nH+]n(-c2ccccc2)c(C)c1C(=O)N1CCN(Cc2cccs2)CC1 (protonated)
Cc1[nH+]n(-c2ccccc2)c(C)c1C(=O)N1CCN(Cc2cccs2)CC1 (3D coordinates assigned)
Cc1[nH+]n(-c2ccccc2)c(C)c1C(=O)N1CCN(Cc2cccs2)CC1 (nonaromatic ring conformer: 128.255237516654 kcal/mol)

>  <smiles>  (15) 
Cc1nn(-c2ccccc2)c(C)c1C(=O)N1CCN(Cc2cccs2)CC1

>  <score_type>  (15) 
oracle

>  <origin>  (15) 
adg

>  <m_score__min__energy>  (15) 
-7.1299999999999999

>  <m_primary>  (15) 
energy

$$$$
15:0
     RDKit          3D

 41 44  0  0  0  0  0  0  0  0999 V2000
   63.9180   34.5720   51.7790 C   0  0  0  0  0  0  0  0  0  0  0  0
   63.6870   33.8920   50.4630 C   0  0  0  0  0  0  0  0  0  0  0  0
   64.6870   33.1000   49.8820 C   0  0  0  0  0  0  0  0  0  0  0  0
   64.4880   32.5260   48.6650 N   0  0  0  0  0  0  0  0  0  0  0  0
   63.3290   32.7010   47.9770 C   0  0  0  0  0  0  0  0  0  0  0  0
   62.2970   33.4800   48.5160 C   0  0  0  0  0  0  0  0  0  0  0  0
   61.0430   33.6660   47.7660 C   0  0  0  0  0  0  0  0  0  0  0  0
   60.9730   34.4700   46.6730 N   0  0  0  0  0  0  0  0  0  0  0  0
   59.7050   34.3130   46.2590 C   0  0  0  0  0  0  0  0  0  0  0  0
   59.1010   34.8980   45.1480 C   0  0  0  0  0  0  0  0  0  0  0  0
   57.7650   34.5550   44.8720 C   0  0  0  0  0  0  0  0  0  0  0  0
   57.0770   33.6390   45.6980 C   0  0  0  0  0  0  0  0  0  0  0  0
   57.7170   33.0600   46.8100 C   0  0  0  0  0  0  0  0  0  0  0  0
   59.0410   33.4330   47.0640 C   0  0  0  0  0  0  0  0  0  0  0  0
   59.8740   33.0150   48.0360 N   0  0  0  0  0  0  0  0  0  0  0  0
   59.6500   31.9300   48.9990 C   0  0  0  0  0  0  0  0  0  0  0  0
   59.0200   32.4710   50.2550 C   0  0  0  0  0  0  0  0  0  0  0  0
   57.9510   31.7870   50.8570 C   0  0  0  0  0  0  0  0  0  0  0  0
   57.3900   32.2630   52.0460 C   0  0  0  0  0  0  0  0  0  0  0  0
   57.8960   33.4210   52.6440 C   0  0  0  0  0  0  0  0  0  0  0  0
   58.9610   34.1040   52.0540 C   0  0  0  0  0  0  0  0  0  0  0  0
   59.5240   33.6330   50.8640 C   0  0  0  0  0  0  0  0  0  0  0  0
   62.4950   34.0990   49.7570 C   0  0  0  0  0  0  0  0  0  0  0  0
   63.6817   33.8763   52.5977 H   0  0  0  0  0  0  0  0  0  0  0  0
   64.9713   34.8804   51.8525 H   0  0  0  0  0  0  0  0  0  0  0  0
   63.2705   35.4582   51.8525 H   0  0  0  0  0  0  0  0  0  0  0  0
   65.6374   32.9419   50.4129 H   0  0  0  0  0  0  0  0  0  0  0  0
   65.2450   31.9380   48.2500 H   0  0  0  0  0  0  0  0  0  0  0  0
   63.2007   32.2285   46.9920 H   0  0  0  0  0  0  0  0  0  0  0  0
   59.6504   35.6043   44.5082 H   0  0  0  0  0  0  0  0  0  0  0  0
   57.2530   35.0029   44.0076 H   0  0  0  0  0  0  0  0  0  0  0  0
   56.0333   33.3761   45.4707 H   0  0  0  0  0  0  0  0  0  0  0  0
   57.1944   32.3396   47.4565 H   0  0  0  0  0  0  0  0  0  0  0  0
   58.9818   31.1794   48.5516 H   0  0  0  0  0  0  0  0  0  0  0  0
   60.6164   31.4695   49.2519 H   0  0  0  0  0  0  0  0  0  0  0  0
   57.5536   30.8732   50.3912 H   0  0  0  0  0  0  0  0  0  0  0  0
   56.5501   31.7261   52.5111 H   0  0  0  0  0  0  0  0  0  0  0  0
   57.4547   33.7941   53.5799 H   0  0  0  0  0  0  0  0  0  0  0  0
   59.3581   35.0146   52.5263 H   0  0  0  0  0  0  0  0  0  0  0  0
   60.3639   34.1735   50.4031 H   0  0  0  0  0  0  0  0  0  0  0  0
   61.7133   34.7486   50.1777 H   0  0  0  0  0  0  0  0  0  0  0  0
  1  2  1  0
  2  3  2  0
  3  4  1  0
  4  5  2  0
  5  6  1  0
  6  7  1  0
  7  8  2  0
  8  9  1  0
  9 10  2  0
 10 11  1  0
 11 12  2  0
 12 13  1  0
 13 14  2  0
 14 15  1  0
 15 16  1  0
 16 17  1  0
 17 18  2  0
 18 19  1  0
 19 20  2  0
 20 21  1  0
 21 22  2  0
  6 23  2  0
 23  2  1  0
 15  7  1  0
 22 17  1  0
 14  9  1  0
  1 24  1  0
  1 25  1  0
  1 26  1  0
  3 27  1  0
  4 28  1  0
  5 29  1  0
 10 30  1  0
 11 31  1  0
 12 32  1  0
 13 33  1  0
 16 34  1  0
 16 35  1  0
 18 36  1  0
 19 37  1  0
 20 38  1  0
 21 39  1  0
 22 40  1  0
 23 41  1  0
M  CHG  1   4   1
M  END
>  <UniqueID>  (16) 
16

>  <SMILES>  (16) 
Cc1c[nH+]cc(-c2nc3ccccc3n2Cc2ccccc2)c1

>  <Energy>  (16) 
85.35280196279027

>  <Genealogy>  (16) 
Cc1c[nH+]cc(-c2nc3ccccc3n2Cc2ccccc2)c1 (protonated)
Cc1c[nH+]cc(-c2nc3ccccc3n2Cc2ccccc2)c1 (3D coordinates assigned)
Cc1c[nH+]cc(-c2nc3ccccc3n2Cc2ccccc2)c1 (optimized conformer: 85.35280196279027 kcal/mol)

>  <smiles>  (16) 
Cc1cncc(-c2nc3ccccc3n2Cc2ccccc2)c1

>  <score_type>  (16) 
oracle

>  <origin>  (16) 
adg

>  <m_score__min__energy>  (16) 
-6.3799999999999999

>  <m_primary>  (16) 
energy

$$$$
16:0
     RDKit          3D

 42 45  0  0  0  0  0  0  0  0999 V2000
   56.6730   30.5740   43.2650 C   0  0  0  0  0  0  0  0  0  0  0  0
   57.3640   30.5480   44.6320 C   0  0  1  0  0  0  0  0  0  0  0  0
   57.0370   31.7200   45.3790 O   0  0  0  0  0  0  0  0  0  0  0  0
   57.9160   32.7940   45.5170 C   0  0  0  0  0  0  0  0  0  0  0  0
   58.2270   33.5380   44.4220 N   0  0  0  0  0  0  0  0  0  0  0  0
   59.0840   34.5880   44.4990 C   0  0  0  0  0  0  0  0  0  0  0  0
   59.6500   34.9220   45.6870 N   0  0  0  0  0  0  0  0  0  0  0  0
   59.3670   34.2230   46.8170 C   0  0  0  0  0  0  0  0  0  0  0  0
   59.9510   34.5910   48.0350 C   0  0  0  0  0  0  0  0  0  0  0  0
   59.6400   33.8860   49.2020 C   0  0  0  0  0  0  0  0  0  0  0  0
   58.7400   32.8170   49.1580 C   0  0  0  0  0  0  0  0  0  0  0  0
   58.1530   32.4400   47.9460 C   0  0  0  0  0  0  0  0  0  0  0  0
   58.4710   33.1320   46.7650 C   0  0  0  0  0  0  0  0  0  0  0  0
   57.0000   29.2970   45.4010 C   0  0  0  0  0  0  0  0  0  0  0  0
   55.8930   28.7450   45.1620 O   0  0  0  0  0  0  0  0  0  0  0  0
   57.9170   28.6300   46.2820 N   0  0  0  0  0  0  0  0  0  0  0  0
   58.9460   29.2400   47.0720 C   0  0  0  0  0  0  0  0  0  0  0  0
   58.9770   29.0010   48.4530 C   0  0  0  0  0  0  0  0  0  0  0  0
   59.9690   29.5800   49.2500 C   0  0  0  0  0  0  0  0  0  0  0  0
   60.9280   30.4150   48.6700 C   0  0  0  0  0  0  0  0  0  0  0  0
   60.8700   30.7040   47.3000 C   0  0  0  0  0  0  0  0  0  0  0  0
   59.8850   30.1170   46.5010 C   0  0  0  0  0  0  0  0  0  0  0  0
   61.8080   31.5840   46.7500 O   0  0  0  0  0  0  0  0  0  0  0  0
   62.6390   32.3930   47.5860 C   0  0  0  0  0  0  0  0  0  0  0  0
   63.0780   31.6040   48.8270 C   0  0  0  0  0  0  0  0  0  0  0  0
   61.9500   30.9780   49.4410 O   0  0  0  0  0  0  0  0  0  0  0  0
   55.5828   30.6150   43.4059 H   0  0  0  0  0  0  0  0  0  0  0  0
   57.0038   31.4603   42.7037 H   0  0  0  0  0  0  0  0  0  0  0  0
   56.9362   29.6653   42.7037 H   0  0  0  0  0  0  0  0  0  0  0  0
   58.4516   30.5351   44.4676 H   0  0  0  0  0  0  0  0  0  0  0  0
   59.3206   35.1700   43.5961 H   0  0  0  0  0  0  0  0  0  0  0  0
   60.6550   35.4353   48.0741 H   0  0  0  0  0  0  0  0  0  0  0  0
   60.1046   34.1732   50.1568 H   0  0  0  0  0  0  0  0  0  0  0  0
   58.4927   32.2705   50.0801 H   0  0  0  0  0  0  0  0  0  0  0  0
   57.4419   31.6012   47.9171 H   0  0  0  0  0  0  0  0  0  0  0  0
   58.2157   28.3536   48.9126 H   0  0  0  0  0  0  0  0  0  0  0  0
   59.9947   29.3788   50.3311 H   0  0  0  0  0  0  0  0  0  0  0  0
   59.8443   30.3412   45.4249 H   0  0  0  0  0  0  0  0  0  0  0  0
   63.5296   32.7037   47.0201 H   0  0  0  0  0  0  0  0  0  0  0  0
   62.0689   33.2769   47.9080 H   0  0  0  0  0  0  0  0  0  0  0  0
   63.8034   30.8327   48.5288 H   0  0  0  0  0  0  0  0  0  0  0  0
   63.5388   32.2964   49.5468 H   0  0  0  0  0  0  0  0  0  0  0  0
  1  2  1  0
  2  3  1  0
  3  4  1  0
  4  5  2  0
  5  6  1  0
  6  7  2  0
  7  8  1  0
  8  9  2  0
  9 10  1  0
 10 11  2  0
 11 12  1  0
 12 13  2  0
  2 14  1  0
 14 15  2  0
 14 16  1  0
 16 17  1  0
 17 18  2  0
 18 19  1  0
 19 20  2  0
 20 21  1  0
 21 22  2  0
 21 23  1  0
 23 24  1  0
 24 25  1  0
 25 26  1  0
 13  4  1  0
 22 17  1  0
 13  8  1  0
 26 20  1  0
  1 27  1  0
  1 28  1  0
  1 29  1  0
  2 30  1  6
  6 31  1  0
  9 32  1  0
 10 33  1  0
 11 34  1  0
 12 35  1  0
 18 36  1  0
 19 37  1  0
 22 38  1  0
 24 39  1  0
 24 40  1  0
 25 41  1  0
 25 42  1  0
M  CHG  1  16  -1
M  END
>  <UniqueID>  (17) 
17

>  <SMILES>  (17) 
C[C@@H](Oc1ncnc2ccccc12)C(=O)[N-]c1ccc2c(c1)OCCO2

>  <Energy>  (17) 
61.96074551665301

>  <Genealogy>  (17) 
CC(Oc1ncnc2ccccc12)C(=O)[N-]c1ccc2c(c1)OCCO2 (protonated)
C[C@@H](Oc1ncnc2ccccc12)C(=O)[N-]c1ccc2c(c1)OCCO2 (chirality)
C[C@@H](Oc1ncnc2ccccc12)C(=O)[N-]c1ccc2c(c1)OCCO2 (3D coordinates assigned)
C[C@@H](Oc1ncnc2ccccc12)C(=O)[N-]c1ccc2c(c1)OCCO2 (nonaromatic ring conformer: 61.96074551665301 kcal/mol)

>  <smiles>  (17) 
CC(Oc1ncnc2ccccc12)C(=O)Nc1ccc2c(c1)OCCO2

>  <score_type>  (17) 
oracle

>  <origin>  (17) 
adg

>  <m_score__min__energy>  (17) 
-9.9199999999999999

>  <m_primary>  (17) 
energy

$$$$
17:0
     RDKit          3D

 42 45  0  0  0  0  0  0  0  0999 V2000
   56.6400   31.9610   52.7560 C   0  0  0  0  0  0  0  0  0  0  0  0
   57.7980   32.4670   51.9340 C   0  0  0  0  0  0  0  0  0  0  0  0
   58.4830   33.7530   52.3320 C   0  0  0  0  0  0  0  0  0  0  0  0
   58.1850   31.7480   50.8570 C   0  0  0  0  0  0  0  0  0  0  0  0
   59.5980   31.6650   50.3340 C   0  0  0  0  0  0  0  0  0  0  0  0
   59.5960   31.8630   48.8370 C   0  0  0  0  0  0  0  0  0  0  0  0
   59.4200   33.1460   48.2790 C   0  0  0  0  0  0  0  0  0  0  0  0
   59.2670   34.2620   49.0950 O   0  0  0  0  0  0  0  0  0  0  0  0
   59.3920   33.3090   46.8920 C   0  0  0  0  0  0  0  0  0  0  0  0
   59.5040   32.2030   46.0480 C   0  0  0  0  0  0  0  0  0  0  0  0
   59.6620   30.9180   46.5840 C   0  0  0  0  0  0  0  0  0  0  0  0
   59.7230   30.7530   47.9790 C   0  0  0  0  0  0  0  0  0  0  0  0
   59.9190   29.4780   48.5060 O   0  0  0  0  0  0  0  0  0  0  0  0
   60.5570   28.4660   47.7390 C   0  0  0  0  0  0  0  0  0  0  0  0
   59.9150   28.3380   46.3480 C   0  0  1  0  0  0  0  0  0  0  0  0
   58.5760   27.6660   46.3700 C   0  0  0  0  0  0  0  0  0  0  0  0
   58.2170   26.3990   46.8490 C   0  0  0  0  0  0  0  0  0  0  0  0
   59.1470   25.5740   47.4720 O   0  0  0  0  0  0  0  0  0  0  0  0
   56.8930   25.9630   46.6730 C   0  0  0  0  0  0  0  0  0  0  0  0
   55.9640   26.7740   45.9910 C   0  0  0  0  0  0  0  0  0  0  0  0
   54.6580   26.3360   45.8170 O   0  0  0  0  0  0  0  0  0  0  0  0
   56.3600   28.0190   45.4780 C   0  0  0  0  0  0  0  0  0  0  0  0
   57.6780   28.4290   45.6760 C   0  0  0  0  0  0  0  0  0  0  0  0
   58.2460   29.5930   45.2100 O   0  0  0  0  0  0  0  0  0  0  0  0
   59.5930   29.7160   45.6670 C   0  0  1  0  0  0  0  0  0  0  0  0
   56.8765   32.0644   53.8253 H   0  0  0  0  0  0  0  0  0  0  0  0
   55.7396   32.5477   52.5213 H   0  0  0  0  0  0  0  0  0  0  0  0
   56.4589   30.9017   52.5213 H   0  0  0  0  0  0  0  0  0  0  0  0
   58.5208   33.8240   53.4291 H   0  0  0  0  0  0  0  0  0  0  0  0
   59.5062   33.7635   51.9284 H   0  0  0  0  0  0  0  0  0  0  0  0
   57.9208   34.6080   51.9284 H   0  0  0  0  0  0  0  0  0  0  0  0
   57.4107   31.1799   50.3207 H   0  0  0  0  0  0  0  0  0  0  0  0
   60.2098   32.4479   50.8061 H   0  0  0  0  0  0  0  0  0  0  0  0
   60.0181   30.6765   50.5714 H   0  0  0  0  0  0  0  0  0  0  0  0
   59.2810   34.3154   46.4622 H   0  0  0  0  0  0  0  0  0  0  0  0
   59.4681   32.3407   44.9572 H   0  0  0  0  0  0  0  0  0  0  0  0
   61.6206   28.7210   47.6217 H   0  0  0  0  0  0  0  0  0  0  0  0
   60.4451   27.5064   48.2650 H   0  0  0  0  0  0  0  0  0  0  0  0
   60.6787   27.7636   45.8032 H   0  0  0  0  0  0  0  0  0  0  0  0
   56.5806   24.9854   47.0689 H   0  0  0  0  0  0  0  0  0  0  0  0
   55.6478   28.6559   44.9329 H   0  0  0  0  0  0  0  0  0  0  0  0
   60.3453   29.8999   44.8858 H   0  0  0  0  0  0  0  0  0  0  0  0
  1  2  1  0
  2  3  1  0
  2  4  2  3
  4  5  1  0
  5  6  1  0
  6  7  2  0
  7  8  1  0
  7  9  1  0
  9 10  2  0
 10 11  1  0
 11 12  2  0
 12 13  1  0
 13 14  1  0
 14 15  1  0
 15 16  1  0
 16 17  2  0
 17 18  1  0
 17 19  1  0
 19 20  2  0
 20 21  1  0
 20 22  1  0
 22 23  2  0
 23 24  1  0
 24 25  1  0
 12  6  1  0
 25 15  1  0
 25 11  1  0
 23 16  1  0
  1 26  1  0
  1 27  1  0
  1 28  1  0
  3 29  1  0
  3 30  1  0
  3 31  1  0
  4 32  1  0
  5 33  1  0
  5 34  1  0
  9 35  1  0
 10 36  1  0
 14 37  1  0
 14 38  1  0
 15 39  1  6
 19 40  1  0
 22 41  1  0
 25 42  1  6
M  CHG  3   8  -1  18  -1  21  -1
M  END
>  <UniqueID>  (18) 
18

>  <SMILES>  (18) 
CC(C)=CCc1c([O-])ccc2c1OC[C@H]1c3c([O-])cc([O-])cc3O[C@@H]21

>  <Energy>  (18) 
64.19598362468295

>  <Genealogy>  (18) 
CC(C)=CCc1c([O-])ccc2c1OCC1c3c([O-])cc([O-])cc3OC21 (protonated)
CC(C)=CCc1c([O-])ccc2c1OC[C@H]1c3c([O-])cc([O-])cc3O[C@@H]21 (chirality)
CC(C)=CCc1c([O-])ccc2c1OC[C@H]1c3c([O-])cc([O-])cc3O[C@@H]21 (3D coordinates assigned)
CC(C)=CCc1c([O-])ccc2c1OC[C@H]1c3c([O-])cc([O-])cc3O[C@@H]21 (nonaromatic ring conformer: 64.19598362468295 kcal/mol)

>  <smiles>  (18) 
CC(C)=CCc1c(O)ccc2c1OCC1c3c(O)cc(O)cc3OC21

>  <score_type>  (18) 
oracle

>  <origin>  (18) 
adg

>  <m_score__min__energy>  (18) 
-11.51

>  <m_primary>  (18) 
energy

$$$$
18:0
     RDKit          3D

 35 36  0  0  0  0  0  0  0  0999 V2000
   59.7070   35.7670   46.3710 O   0  0  0  0  0  0  0  0  0  0  0  0
   59.6200   34.3140   45.9920 S   0  0  0  0  0  0  0  0  0  0  0  0
   59.6470   34.2090   44.4920 O   0  0  0  0  0  0  0  0  0  0  0  0
   58.0910   33.6240   46.6050 C   0  0  0  0  0  0  0  0  0  0  0  0
   57.2970   32.9590   45.4680 C   0  0  0  0  0  0  0  0  0  0  0  0
   58.0120   31.8590   44.7690 N   0  0  0  0  0  0  0  0  0  0  0  0
   57.3980   31.4850   43.4680 C   0  0  0  0  0  0  0  0  0  0  0  0
   56.3120   30.3860   43.5810 C   0  0  0  0  0  0  0  0  0  0  0  0
   56.2240   29.8110   44.8680 O   0  0  0  0  0  0  0  0  0  0  0  0
   57.5080   29.4460   45.3070 C   0  0  0  0  0  0  0  0  0  0  0  0
   58.3280   30.6990   45.6480 C   0  0  0  0  0  0  0  0  0  0  0  0
   60.9870   33.4300   46.6610 C   0  0  0  0  0  0  0  0  0  0  0  0
   60.7810   32.2900   47.4520 C   0  0  0  0  0  0  0  0  0  0  0  0
   61.8740   31.5810   47.9600 C   0  0  0  0  0  0  0  0  0  0  0  0
   63.1760   32.0040   47.6780 C   0  0  0  0  0  0  0  0  0  0  0  0
   63.3860   33.1360   46.8840 C   0  0  0  0  0  0  0  0  0  0  0  0
   62.2950   33.8460   46.3740 C   0  0  0  0  0  0  0  0  0  0  0  0
   58.3179   32.8714   47.3745 H   0  0  0  0  0  0  0  0  0  0  0  0
   57.4836   34.4361   47.0310 H   0  0  0  0  0  0  0  0  0  0  0  0
   56.3693   32.5483   45.8931 H   0  0  0  0  0  0  0  0  0  0  0  0
   57.1203   33.7412   44.7150 H   0  0  0  0  0  0  0  0  0  0  0  0
   58.9390   32.2840   44.5170 H   0  0  0  0  0  0  0  0  0  0  0  0
   56.9378   32.3834   43.0309 H   0  0  0  0  0  0  0  0  0  0  0  0
   58.2032   31.0758   42.8401 H   0  0  0  0  0  0  0  0  0  0  0  0
   55.3379   30.8321   43.3317 H   0  0  0  0  0  0  0  0  0  0  0  0
   56.5926   29.5812   42.8856 H   0  0  0  0  0  0  0  0  0  0  0  0
   57.4197   28.8145   46.2033 H   0  0  0  0  0  0  0  0  0  0  0  0
   58.0172   28.8910   44.5053 H   0  0  0  0  0  0  0  0  0  0  0  0
   58.1187   30.9818   46.6902 H   0  0  0  0  0  0  0  0  0  0  0  0
   59.3884   30.4497   45.4949 H   0  0  0  0  0  0  0  0  0  0  0  0
   59.7575   31.9531   47.6731 H   0  0  0  0  0  0  0  0  0  0  0  0
   61.7089   30.6892   48.5824 H   0  0  0  0  0  0  0  0  0  0  0  0
   64.0349   31.4469   48.0803 H   0  0  0  0  0  0  0  0  0  0  0  0
   64.4106   33.4680   46.6606 H   0  0  0  0  0  0  0  0  0  0  0  0
   62.4631   34.7333   45.7459 H   0  0  0  0  0  0  0  0  0  0  0  0
  1  2  2  0
  2  3  2  0
  2  4  1  0
  4  5  1  0
  5  6  1  0
  6  7  1  0
  7  8  1  0
  8  9  1  0
  9 10  1  0
 10 11  1  0
  2 12  1  0
 12 13  2  0
 13 14  1  0
 14 15  2  0
 15 16  1  0
 16 17  2  0
 11  6  1  0
 17 12  1  0
  4 18  1  0
  4 19  1  0
  5 20  1  0
  5 21  1  0
  6 22  1  0
  7 23  1  0
  7 24  1  0
  8 25  1  0
  8 26  1  0
 10 27  1  0
 10 28  1  0
 11 29  1  0
 11 30  1  0
 13 31  1  0
 14 32  1  0
 15 33  1  0
 16 34  1  0
 17 35  1  0
M  CHG  1   6   1
M  END
>  <UniqueID>  (19) 
19

>  <SMILES>  (19) 
O=S(=O)(CC[NH+]1CCOCC1)c1ccccc1

>  <Energy>  (19) 
46.50999186252732

>  <Genealogy>  (19) 
O=S(=O)(CC[NH+]1CCOCC1)c1ccccc1 (protonated)
O=S(=O)(CC[NH+]1CCOCC1)c1ccccc1 (3D coordinates assigned)
O=S(=O)(CC[NH+]1CCOCC1)c1ccccc1 (nonaromatic ring conformer: 46.50999186252732 kcal/mol)

>  <smiles>  (19) 
O=S(=O)(CCN1CCOCC1)c1ccccc1

>  <score_type>  (19) 
oracle

>  <origin>  (19) 
adg

>  <m_score__min__energy>  (19) 
-5.1100000000000003

>  <m_primary>  (19) 
energy

$$$$
19:0
     RDKit          3D

 62 65  0  0  0  0  0  0  0  0999 V2000
   64.7430   32.6690   49.7290 C   0  0  0  0  0  0  0  0  0  0  0  0
   63.7300   33.0760   48.7020 C   0  0  0  0  0  0  0  0  0  0  0  0
   64.1370   33.3610   47.3740 C   0  0  0  0  0  0  0  0  0  0  0  0
   63.1920   33.7160   46.3960 C   0  0  0  0  0  0  0  0  0  0  0  0
   61.8540   33.7620   46.7720 C   0  0  0  0  0  0  0  0  0  0  0  0
   60.8010   34.0740   45.9970 N   0  0  0  0  0  0  0  0  0  0  0  0
   59.7470   33.9700   46.8490 C   0  0  0  0  0  0  0  0  0  0  0  0
   58.3280   34.1070   46.3650 C   0  0  0  0  0  0  0  0  0  0  0  0
   57.5900   32.7630   46.4110 C   0  0  0  0  0  0  0  0  0  0  0  0
   57.3800   32.2010   45.0340 C   0  0  0  0  0  0  0  0  0  0  0  0
   57.9990   32.7830   43.9180 C   0  0  0  0  0  0  0  0  0  0  0  0
   57.8360   32.1990   42.6610 C   0  0  0  0  0  0  0  0  0  0  0  0
   57.0600   31.0480   42.5260 C   0  0  0  0  0  0  0  0  0  0  0  0
   56.4590   30.4930   43.6580 C   0  0  0  0  0  0  0  0  0  0  0  0
   56.6340   31.0710   44.8750 N   0  0  0  0  0  0  0  0  0  0  0  0
   60.1090   33.6030   48.1120 N   0  0  0  0  0  0  0  0  0  0  0  0
   59.2470   33.3870   49.2800 C   0  0  0  0  0  0  0  0  0  0  0  0
   58.7180   31.9440   49.3580 C   0  0  0  0  0  0  0  0  0  0  0  0
   59.7620   30.9040   49.8180 C   0  0  0  0  0  0  0  0  0  0  0  0
   60.3750   30.0700   48.6760 C   0  0  0  0  0  0  0  0  0  0  0  0
   59.5340   30.0840   47.4580 N   0  0  0  0  0  0  0  0  0  0  0  0
   58.6350   28.9040   47.3910 C   0  0  0  0  0  0  0  0  0  0  0  0
   59.2130   27.7840   46.5100 C   0  0  0  0  0  0  0  0  0  0  0  0
   59.4750   28.2350   45.1200 N   0  0  0  0  0  0  0  0  0  0  0  0
   58.4290   27.7690   44.1970 C   0  0  0  0  0  0  0  0  0  0  0  0
   59.6550   29.6980   44.9940 C   0  0  0  0  0  0  0  0  0  0  0  0
   60.3490   30.2750   46.2330 C   0  0  0  0  0  0  0  0  0  0  0  0
   61.4470   33.4670   48.0390 C   0  0  0  0  0  0  0  0  0  0  0  0
   62.3590   33.1160   49.0400 C   0  0  0  0  0  0  0  0  0  0  0  0
   64.3314   32.8344   50.7356 H   0  0  0  0  0  0  0  0  0  0  0  0
   64.9857   31.6036   49.6026 H   0  0  0  0  0  0  0  0  0  0  0  0
   65.6553   33.2704   49.6026 H   0  0  0  0  0  0  0  0  0  0  0  0
   65.2025   33.3037   47.1066 H   0  0  0  0  0  0  0  0  0  0  0  0
   63.5008   33.9499   45.3665 H   0  0  0  0  0  0  0  0  0  0  0  0
   57.7992   34.8280   47.0056 H   0  0  0  0  0  0  0  0  0  0  0  0
   58.3496   34.4551   45.3218 H   0  0  0  0  0  0  0  0  0  0  0  0
   58.1838   32.0495   47.0012 H   0  0  0  0  0  0  0  0  0  0  0  0
   56.6039   32.9271   46.8701 H   0  0  0  0  0  0  0  0  0  0  0  0
   58.6078   33.6920   44.0326 H   0  0  0  0  0  0  0  0  0  0  0  0
   58.3183   32.6454   41.7789 H   0  0  0  0  0  0  0  0  0  0  0  0
   56.9228   30.5825   41.5389 H   0  0  0  0  0  0  0  0  0  0  0  0
   55.8430   29.5865   43.5641 H   0  0  0  0  0  0  0  0  0  0  0  0
   59.8255   33.6012   50.1908 H   0  0  0  0  0  0  0  0  0  0  0  0
   58.3804   34.0580   49.1867 H   0  0  0  0  0  0  0  0  0  0  0  0
   57.8774   31.9240   50.0672 H   0  0  0  0  0  0  0  0  0  0  0  0
   58.4248   31.6623   48.3359 H   0  0  0  0  0  0  0  0  0  0  0  0
   60.5764   31.4373   50.3302 H   0  0  0  0  0  0  0  0  0  0  0  0
   59.2332   30.1972   50.4744 H   0  0  0  0  0  0  0  0  0  0  0  0
   61.3641   30.4824   48.4280 H   0  0  0  0  0  0  0  0  0  0  0  0
   60.4500   29.0285   49.0219 H   0  0  0  0  0  0  0  0  0  0  0  0
   58.4863   28.5135   48.4085 H   0  0  0  0  0  0  0  0  0  0  0  0
   57.6836   29.2286   46.9443 H   0  0  0  0  0  0  0  0  0  0  0  0
   60.1585   27.4384   46.9533 H   0  0  0  0  0  0  0  0  0  0  0  0
   58.4690   26.9750   46.4653 H   0  0  0  0  0  0  0  0  0  0  0  0
   57.5737   27.3880   44.7743 H   0  0  0  0  0  0  0  0  0  0  0  0
   58.1000   28.6057   43.5632 H   0  0  0  0  0  0  0  0  0  0  0  0
   58.8310   26.9648   43.5632 H   0  0  0  0  0  0  0  0  0  0  0  0
   60.2692   29.9097   44.1064 H   0  0  0  0  0  0  0  0  0  0  0  0
   58.6642   30.1659   44.8976 H   0  0  0  0  0  0  0  0  0  0  0  0
   61.3171   29.7702   46.3667 H   0  0  0  0  0  0  0  0  0  0  0  0
   60.4856   31.3553   46.0773 H   0  0  0  0  0  0  0  0  0  0  0  0
   62.0190   32.8785   50.0588 H   0  0  0  0  0  0  0  0  0  0  0  0
  1  2  1  0
  2  3  2  0
  3  4  1  0
  4  5  2  0
  5  6  1  0
  6  7  2  0
  7  8  1  0
  8  9  1  0
  9 10  1  0
 10 11  2  0
 11 12  1  0
 12 13  2  0
 13 14  1  0
 14 15  2  0
  7 16  1  0
 16 17  1  0
 17 18  1  0
 18 19  1  0
 19 20  1  0
 20 21  1  0
 21 22  1  0
 22 23  1  0
 23 24  1  0
 24 25  1  0
 24 26  1  0
 26 27  1  0
 16 28  1  0
 28 29  2  0
 29  2  1  0
 28  5  1  0
 15 10  1  0
 27 21  1  0
  1 30  1  0
  1 31  1  0
  1 32  1  0
  3 33  1  0
  4 34  1  0
  8 35  1  0
  8 36  1  0
  9 37  1  0
  9 38  1  0
 11 39  1  0
 12 40  1  0
 13 41  1  0
 14 42  1  0
 17 43  1  0
 17 44  1  0
 18 45  1  0
 18 46  1  0
 19 47  1  0
 19 48  1  0
 20 49  1  0
 20 50  1  0
 22 51  1  0
 22 52  1  0
 23 53  1  0
 23 54  1  0
 25 55  1  0
 25 56  1  0
 25 57  1  0
 26 58  1  0
 26 59  1  0
 27 60  1  0
 27 61  1  0
 29 62  1  0
M  END
>  <UniqueID>  (20) 
20

>  <SMILES>  (20) 
Cc1ccc2nc(CCc3ccccn3)n(CCCCN3CCN(C)CC3)c2c1

>  <Energy>  (20) 
104.30300266840884

>  <Genealogy>  (20) 
Cc1ccc2nc(CCc3ccccn3)n(CCCCN3CCN(C)CC3)c2c1 (3D coordinates assigned)
Cc1ccc2nc(CCc3ccccn3)n(CCCCN3CCN(C)CC3)c2c1 (nonaromatic ring conformer: 104.30300266840884 kcal/mol)

>  <smiles>  (20) 
Cc1ccc2nc(CCc3ccccn3)n(CCCCN3CCN(C)CC3)c2c1

>  <score_type>  (20) 
oracle

>  <origin>  (20) 
adg

>  <m_score__min__energy>  (20) 
-8.7599999999999998

>  <m_primary>  (20) 
energy

$$$$
20:0
     RDKit          3D

 49 52  0  0  0  0  0  0  0  0999 V2000
   57.3410   21.5430   43.3920 C   0  0  0  0  0  0  0  0  0  0  0  0
   56.3360   22.5810   42.9080 C   0  0  0  0  0  0  0  0  0  0  0  0
   55.8180   23.3350   44.0050 O   0  0  0  0  0  0  0  0  0  0  0  0
   56.4190   24.4690   44.5740 C   0  0  0  0  0  0  0  0  0  0  0  0
   56.0780   24.9540   45.8520 C   0  0  0  0  0  0  0  0  0  0  0  0
   56.7100   26.0900   46.3670 C   0  0  0  0  0  0  0  0  0  0  0  0
   57.6830   26.7600   45.6120 C   0  0  0  0  0  0  0  0  0  0  0  0
   58.3370   27.9300   46.1460 N   0  0  0  0  0  0  0  0  0  0  0  0
   59.3060   27.7620   47.0960 C   0  0  0  0  0  0  0  0  0  0  0  0
   59.6220   26.6070   47.4970 O   0  0  0  0  0  0  0  0  0  0  0  0
   59.9630   28.8600   47.6280 C   0  0  0  0  0  0  0  0  0  0  0  0
   59.6370   30.1360   47.1750 C   0  0  0  0  0  0  0  0  0  0  0  0
   60.3810   31.2880   47.7400 C   0  0  0  0  0  0  0  0  0  0  0  0
   61.5370   31.7700   47.1050 C   0  0  0  0  0  0  0  0  0  0  0  0
   62.2300   32.8620   47.6370 C   0  0  0  0  0  0  0  0  0  0  0  0
   61.7770   33.4750   48.8080 C   0  0  0  0  0  0  0  0  0  0  0  0
   60.6340   32.9930   49.4520 C   0  0  0  0  0  0  0  0  0  0  0  0
   59.9380   31.9020   48.9230 C   0  0  0  0  0  0  0  0  0  0  0  0
   58.6520   30.2970   46.2290 N   0  0  0  0  0  0  0  0  0  0  0  0
   58.2790   31.6300   45.8150 C   0  0  0  0  0  0  0  0  0  0  0  0
   58.4490   32.0300   44.4800 C   0  0  0  0  0  0  0  0  0  0  0  0
   58.1090   33.3280   44.0870 C   0  0  0  0  0  0  0  0  0  0  0  0
   57.5990   34.2320   45.0250 C   0  0  0  0  0  0  0  0  0  0  0  0
   57.4290   33.8390   46.3560 C   0  0  0  0  0  0  0  0  0  0  0  0
   57.7670   32.5410   46.7510 C   0  0  0  0  0  0  0  0  0  0  0  0
   57.9960   29.1950   45.7180 C   0  0  0  0  0  0  0  0  0  0  0  0
   56.7580   29.3920   44.6310 S   0  0  0  0  0  0  0  0  0  0  0  0
   58.0240   26.2810   44.3400 C   0  0  0  0  0  0  0  0  0  0  0  0
   57.3930   25.1440   43.8260 C   0  0  0  0  0  0  0  0  0  0  0  0
   57.3537   21.5299   44.4918 H   0  0  0  0  0  0  0  0  0  0  0  0
   57.0522   20.5501   43.0168 H   0  0  0  0  0  0  0  0  0  0  0  0
   58.3427   21.7996   43.0168 H   0  0  0  0  0  0  0  0  0  0  0  0
   56.8337   23.2640   42.2039 H   0  0  0  0  0  0  0  0  0  0  0  0
   55.5028   22.0611   42.4126 H   0  0  0  0  0  0  0  0  0  0  0  0
   55.3112   24.4367   46.4473 H   0  0  0  0  0  0  0  0  0  0  0  0
   56.4428   26.4593   47.3681 H   0  0  0  0  0  0  0  0  0  0  0  0
   60.7344   28.7251   48.4005 H   0  0  0  0  0  0  0  0  0  0  0  0
   61.8989   31.2867   46.1855 H   0  0  0  0  0  0  0  0  0  0  0  0
   63.1324   33.2386   47.1332 H   0  0  0  0  0  0  0  0  0  0  0  0
   62.3199   34.3369   49.2231 H   0  0  0  0  0  0  0  0  0  0  0  0
   60.2814   33.4730   50.3768 H   0  0  0  0  0  0  0  0  0  0  0  0
   59.0409   31.5234   49.4347 H   0  0  0  0  0  0  0  0  0  0  0  0
   58.8506   31.3205   43.7415 H   0  0  0  0  0  0  0  0  0  0  0  0
   58.2425   33.6384   43.0402 H   0  0  0  0  0  0  0  0  0  0  0  0
   57.3315   35.2530   44.7151 H   0  0  0  0  0  0  0  0  0  0  0  0
   57.0292   34.5513   47.0927 H   0  0  0  0  0  0  0  0  0  0  0  0
   57.6311   32.2334   47.7983 H   0  0  0  0  0  0  0  0  0  0  0  0
   58.7895   26.8004   43.7448 H   0  0  0  0  0  0  0  0  0  0  0  0
   57.6636   24.7760   42.8253 H   0  0  0  0  0  0  0  0  0  0  0  0
  1  2  1  0
  2  3  1  0
  3  4  1  0
  4  5  2  0
  5  6  1  0
  6  7  2  0
  7  8  1  0
  8  9  1  0
  9 10  2  0
  9 11  1  0
 11 12  2  0
 12 13  1  0
 13 14  2  0
 14 15  1  0
 15 16  2  0
 16 17  1  0
 17 18  2  0
 12 19  1  0
 19 20  1  0
 20 21  2  0
 21 22  1  0
 22 23  2  0
 23 24  1  0
 24 25  2  0
 19 26  1  0
 26 27  2  0
  7 28  1  0
 28 29  2  0
 29  4  1  0
 26  8  1  0
 18 13  1  0
 25 20  1  0
  1 30  1  0
  1 31  1  0
  1 32  1  0
  2 33  1  0
  2 34  1  0
  5 35  1  0
  6 36  1  0
 11 37  1  0
 14 38  1  0
 15 39  1  0
 16 40  1  0
 17 41  1  0
 18 42  1  0
 21 43  1  0
 22 44  1  0
 23 45  1  0
 24 46  1  0
 25 47  1  0
 28 48  1  0
 29 49  1  0
M  END
>  <UniqueID>  (21) 
21

>  <SMILES>  (21) 
CCOc1ccc(-n2c(=O)cc(-c3ccccc3)n(-c3ccccc3)c2=S)cc1

>  <Energy>  (21) 
82.5476292795834

>  <Genealogy>  (21) 
CCOc1ccc(-n2c(=O)cc(-c3ccccc3)n(-c3ccccc3)c2=S)cc1 (3D coordinates assigned)
CCOc1ccc(-n2c(=O)cc(-c3ccccc3)n(-c3ccccc3)c2=S)cc1 (optimized conformer: 82.5476292795834 kcal/mol)

>  <smiles>  (21) 
CCOc1ccc(-n2c(=O)cc(-c3ccccc3)n(-c3ccccc3)c2=S)cc1

>  <score_type>  (21) 
oracle

>  <origin>  (21) 
adg

>  <m_score__min__energy>  (21) 
-8.2799999999999994

>  <m_primary>  (21) 
energy

$$$$
21:0
     RDKit          3D

 46 50  0  0  0  0  0  0  0  0999 V2000
   55.4810   30.0910   43.3880 C   0  0  0  0  0  0  0  0  0  0  0  0
   56.6360   29.7420   44.2710 C   0  0  0  0  0  0  0  0  0  0  0  0
   57.0220   28.4400   44.4300 N   0  0  0  0  0  0  0  0  0  0  0  0
   58.0950   28.0680   45.2070 C   0  0  0  0  0  0  0  0  0  0  0  0
   58.4600   26.6310   45.2990 C   0  0  0  0  0  0  0  0  0  0  0  0
   57.6090   25.6200   44.8060 C   0  0  0  0  0  0  0  0  0  0  0  0
   57.9660   24.2730   44.9250 C   0  0  0  0  0  0  0  0  0  0  0  0
   59.1770   23.9180   45.5240 C   0  0  0  0  0  0  0  0  0  0  0  0
   59.5140   22.6120   45.6510 F   0  0  0  0  0  0  0  0  0  0  0  0
   60.0370   24.9110   46.0000 C   0  0  0  0  0  0  0  0  0  0  0  0
   59.6850   26.2580   45.8870 C   0  0  0  0  0  0  0  0  0  0  0  0
   58.8510   29.0650   45.8700 C   0  0  0  0  0  0  0  0  0  0  0  0
   58.4530   30.3860   45.6970 C   0  0  0  0  0  0  0  0  0  0  0  0
   58.9690   31.5690   46.1660 C   0  0  0  0  0  0  0  0  0  0  0  0
   58.1940   32.5570   45.5970 C   0  0  0  0  0  0  0  0  0  0  0  0
   57.2350   32.0350   44.8560 O   0  0  0  0  0  0  0  0  0  0  0  0
   57.3860   30.7270   44.9090 C   0  0  0  0  0  0  0  0  0  0  0  0
   58.4340   34.0110   45.8450 C   0  0  0  0  0  0  0  0  0  0  0  0
   59.8500   34.2190   46.4320 C   0  0  0  0  0  0  0  0  0  0  0  0
   60.1270   33.2350   47.5110 N   0  0  0  0  0  0  0  0  0  0  0  0
   61.3560   33.5690   48.2660 C   0  0  0  0  0  0  0  0  0  0  0  0
   62.5560   32.9250   47.5650 C   0  0  0  0  0  0  0  0  0  0  0  0
   63.9190   33.4460   48.0000 C   0  0  0  0  0  0  0  0  0  0  0  0
   63.3570   33.8320   46.6400 C   0  0  0  0  0  0  0  0  0  0  0  0
   60.1870   31.8490   46.9820 C   0  0  0  0  0  0  0  0  0  0  0  0
   54.6115   30.3537   44.0084 H   0  0  0  0  0  0  0  0  0  0  0  0
   55.7507   30.9478   42.7530 H   0  0  0  0  0  0  0  0  0  0  0  0
   55.2311   29.2283   42.7530 H   0  0  0  0  0  0  0  0  0  0  0  0
   56.6582   25.8928   44.3247 H   0  0  0  0  0  0  0  0  0  0  0  0
   57.2915   23.4911   44.5459 H   0  0  0  0  0  0  0  0  0  0  0  0
   60.9938   24.6312   46.4650 H   0  0  0  0  0  0  0  0  0  0  0  0
   60.3697   27.0339   46.2601 H   0  0  0  0  0  0  0  0  0  0  0  0
   59.7174   28.8052   46.4960 H   0  0  0  0  0  0  0  0  0  0  0  0
   58.3479   34.5617   44.8967 H   0  0  0  0  0  0  0  0  0  0  0  0
   57.6870   34.3841   46.5611 H   0  0  0  0  0  0  0  0  0  0  0  0
   60.5937   34.0941   45.6312 H   0  0  0  0  0  0  0  0  0  0  0  0
   59.9089   35.2320   46.8567 H   0  0  0  0  0  0  0  0  0  0  0  0
   61.4869   34.6608   48.2950 H   0  0  0  0  0  0  0  0  0  0  0  0
   61.2769   33.1900   49.2956 H   0  0  0  0  0  0  0  0  0  0  0  0
   62.0904   31.9333   47.4657 H   0  0  0  0  0  0  0  0  0  0  0  0
   63.9906   34.1985   48.7991 H   0  0  0  0  0  0  0  0  0  0  0  0
   64.8522   32.9826   48.3526 H   0  0  0  0  0  0  0  0  0  0  0  0
   63.0222   34.8635   46.4559 H   0  0  0  0  0  0  0  0  0  0  0  0
   63.7155   33.7631   45.6023 H   0  0  0  0  0  0  0  0  0  0  0  0
   61.0824   31.7361   46.3531 H   0  0  0  0  0  0  0  0  0  0  0  0
   60.2338   31.1402   47.8219 H   0  0  0  0  0  0  0  0  0  0  0  0
  1  2  1  0
  2  3  2  0
  3  4  1  0
  4  5  1  0
  5  6  2  0
  6  7  1  0
  7  8  2  0
  8  9  1  0
  8 10  1  0
 10 11  2  0
  4 12  2  0
 12 13  1  0
 13 14  1  0
 14 15  2  0
 15 16  1  0
 16 17  1  0
 15 18  1  0
 18 19  1  0
 19 20  1  0
 20 21  1  0
 21 22  1  0
 22 23  1  0
 23 24  1  0
 20 25  1  0
 17  2  1  0
 24 22  1  0
 11  5  1  0
 17 13  2  0
 25 14  1  0
  1 26  1  0
  1 27  1  0
  1 28  1  0
  6 29  1  0
  7 30  1  0
 10 31  1  0
 11 32  1  0
 12 33  1  0
 18 34  1  0
 18 35  1  0
 19 36  1  0
 19 37  1  0
 21 38  1  0
 21 39  1  0
 22 40  1  0
 23 41  1  0
 23 42  1  0
 24 43  1  0
 24 44  1  0
 25 45  1  0
 25 46  1  0
M  END
>  <UniqueID>  (22) 
22

>  <SMILES>  (22) 
Cc1nc(-c2ccc(F)cc2)cc2c3c(oc12)CCN(CC1CC1)C3

>  <Energy>  (22) 
358.01820337929524

>  <Genealogy>  (22) 
Cc1nc(-c2ccc(F)cc2)cc2c3c(oc12)CCN(CC1CC1)C3 (3D coordinates assigned)
Cc1nc(-c2ccc(F)cc2)cc2c3c(oc12)CCN(CC1CC1)C3 (nonaromatic ring conformer: 358.01820337929524 kcal/mol)

>  <smiles>  (22) 
Cc1nc(-c2ccc(F)cc2)cc2c3c(oc12)CCN(CC1CC1)C3

>  <score_type>  (22) 
oracle

>  <origin>  (22) 
adg

>  <m_score__min__energy>  (22) 
-8.0199999999999996

>  <m_primary>  (22) 
energy

$$$$
22:0
     RDKit          3D

 56 59  0  0  0  0  0  0  0  0999 V2000
   59.6470   35.6940   45.7570 C   0  0  0  0  0  0  0  0  0  0  0  0
   59.6510   34.6050   46.7880 C   0  0  0  0  0  0  0  0  0  0  0  0
   58.5190   33.7970   46.9690 C   0  0  0  0  0  0  0  0  0  0  0  0
   58.5360   32.7570   47.9030 C   0  0  0  0  0  0  0  0  0  0  0  0
   59.6900   32.5040   48.6620 C   0  0  0  0  0  0  0  0  0  0  0  0
   59.7110   31.3640   49.6530 C   0  0  0  0  0  0  0  0  0  0  0  0
   60.4850   30.2120   49.1380 N   0  0  0  0  0  0  0  0  0  0  0  0
   59.6820   28.9530   49.1190 C   0  0  0  0  0  0  0  0  0  0  0  0
   60.0660   28.3020   47.8140 C   0  0  1  0  0  0  0  0  0  0  0  0
   59.2330   27.3500   46.9940 C   0  0  0  0  0  0  0  0  0  0  0  0
   59.7390   27.5360   45.6040 N   0  0  0  0  0  0  0  0  0  0  0  0
   58.6520   27.5330   44.6030 C   0  0  0  0  0  0  0  0  0  0  0  0
   57.2810   27.3160   45.2630 C   0  0  0  0  0  0  0  0  0  0  0  0
   56.6100   28.5760   45.5750 N   0  0  0  0  0  0  0  0  0  0  0  0
   55.9980   29.4680   44.6330 C   0  0  0  0  0  0  0  0  0  0  0  0
   54.7740   29.3240   44.3700 O   0  0  0  0  0  0  0  0  0  0  0  0
   56.7400   30.5690   43.9940 C   0  0  0  0  0  0  0  0  0  0  0  0
   56.7290   30.7310   42.5990 C   0  0  0  0  0  0  0  0  0  0  0  0
   57.4340   31.7830   42.0060 C   0  0  0  0  0  0  0  0  0  0  0  0
   58.1450   32.6860   42.8020 C   0  0  0  0  0  0  0  0  0  0  0  0
   58.1440   32.5430   44.1930 C   0  0  0  0  0  0  0  0  0  0  0  0
   57.4390   31.4930   44.7890 C   0  0  0  0  0  0  0  0  0  0  0  0
   60.4850   28.8280   45.6070 C   0  0  0  0  0  0  0  0  0  0  0  0
   60.1110   29.4740   46.9180 C   0  0  2  0  0  0  0  0  0  0  0  0
   60.9390   30.4380   47.7340 C   0  0  0  0  0  0  0  0  0  0  0  0
   60.8290   33.3010   48.4660 C   0  0  0  0  0  0  0  0  0  0  0  0
   60.8110   34.3400   47.5320 C   0  0  0  0  0  0  0  0  0  0  0  0
   59.6434   36.6733   46.2580 H   0  0  0  0  0  0  0  0  0  0  0  0
   60.5455   35.6071   45.1284 H   0  0  0  0  0  0  0  0  0  0  0  0
   58.7492   35.6005   45.1284 H   0  0  0  0  0  0  0  0  0  0  0  0
   57.6132   33.9826   46.3730 H   0  0  0  0  0  0  0  0  0  0  0  0
   57.6407   32.1336   48.0441 H   0  0  0  0  0  0  0  0  0  0  0  0
   60.1700   31.7130   50.5897 H   0  0  0  0  0  0  0  0  0  0  0  0
   58.6751   31.0355   49.8234 H   0  0  0  0  0  0  0  0  0  0  0  0
   61.3320   30.0710   49.7390 H   0  0  0  0  0  0  0  0  0  0  0  0
   59.9439   28.3081   49.9708 H   0  0  0  0  0  0  0  0  0  0  0  0
   58.6005   29.1366   49.2012 H   0  0  0  0  0  0  0  0  0  0  0  0
   60.9046   27.6604   48.1224 H   0  0  0  0  0  0  0  0  0  0  0  0
   59.3809   26.3127   47.3287 H   0  0  0  0  0  0  0  0  0  0  0  0
   58.1543   27.5463   47.0824 H   0  0  0  0  0  0  0  0  0  0  0  0
   58.6471   28.4993   44.0774 H   0  0  0  0  0  0  0  0  0  0  0  0
   58.8319   26.7065   43.8998 H   0  0  0  0  0  0  0  0  0  0  0  0
   56.6455   26.7374   44.5764 H   0  0  0  0  0  0  0  0  0  0  0  0
   57.4441   26.7785   46.2088 H   0  0  0  0  0  0  0  0  0  0  0  0
   56.1635   30.0275   41.9703 H   0  0  0  0  0  0  0  0  0  0  0  0
   57.4292   31.9002   40.9123 H   0  0  0  0  0  0  0  0  0  0  0  0
   58.7052   33.5089   42.3341 H   0  0  0  0  0  0  0  0  0  0  0  0
   58.6986   33.2575   44.8191 H   0  0  0  0  0  0  0  0  0  0  0  0
   57.4315   31.3899   45.8841 H   0  0  0  0  0  0  0  0  0  0  0  0
   61.5695   28.6514   45.5555 H   0  0  0  0  0  0  0  0  0  0  0  0
   60.2339   29.4592   44.7418 H   0  0  0  0  0  0  0  0  0  0  0  0
   59.2707   30.1148   46.6125 H   0  0  0  0  0  0  0  0  0  0  0  0
   62.0114   30.2162   47.6301 H   0  0  0  0  0  0  0  0  0  0  0  0
   60.8100   31.4819   47.4120 H   0  0  0  0  0  0  0  0  0  0  0  0
   61.7402   33.1065   49.0507 H   0  0  0  0  0  0  0  0  0  0  0  0
   61.7110   34.9536   47.3790 H   0  0  0  0  0  0  0  0  0  0  0  0
  1  2  1  0
  2  3  2  0
  3  4  1  0
  4  5  2  0
  5  6  1  0
  6  7  1  0
  7  8  1  0
  8  9  1  0
  9 10  1  0
 10 11  1  0
 11 12  1  0
 12 13  1  0
 13 14  1  0
 14 15  1  0
 15 16  2  0
 15 17  1  0
 17 18  2  0
 18 19  1  0
 19 20  2  0
 20 21  1  0
 21 22  2  0
 11 23  1  0
 23 24  1  0
 24 25  1  0
  5 26  1  0
 26 27  2  0
 27  2  1  0
 25  7  1  0
 24  9  1  0
 22 17  1  0
  1 28  1  0
  1 29  1  0
  1 30  1  0
  3 31  1  0
  4 32  1  0
  6 33  1  0
  6 34  1  0
  7 35  1  0
  8 36  1  0
  8 37  1  0
  9 38  1  1
 10 39  1  0
 10 40  1  0
 12 41  1  0
 12 42  1  0
 13 43  1  0
 13 44  1  0
 18 45  1  0
 19 46  1  0
 20 47  1  0
 21 48  1  0
 22 49  1  0
 23 50  1  0
 23 51  1  0
 24 52  1  6
 25 53  1  0
 25 54  1  0
 26 55  1  0
 27 56  1  0
M  CHG  2   7   1  14  -1
M  END
>  <UniqueID>  (23) 
23

>  <SMILES>  (23) 
Cc1ccc(C[NH+]2C[C@H]3CN(CC[N-]C(=O)c4ccccc4)C[C@@H]3C2)cc1

>  <Energy>  (23) 
96.84153539009328

>  <Genealogy>  (23) 
Cc1ccc(C[NH+]2CC3CN(CC[N-]C(=O)c4ccccc4)CC3C2)cc1 (protonated)
Cc1ccc(C[NH+]2C[C@H]3CN(CC[N-]C(=O)c4ccccc4)C[C@@H]3C2)cc1 (chirality)
Cc1ccc(C[NH+]2C[C@H]3CN(CC[N-]C(=O)c4ccccc4)C[C@@H]3C2)cc1 (3D coordinates assigned)
Cc1ccc(C[NH+]2C[C@H]3CN(CC[N-]C(=O)c4ccccc4)C[C@@H]3C2)cc1 (nonaromatic ring conformer: 96.84153539009328 kcal/mol)

>  <smiles>  (23) 
Cc1ccc(CN2CC3CN(CCNC(=O)c4ccccc4)CC3C2)cc1

>  <score_type>  (23) 
oracle

>  <origin>  (23) 
adg

>  <m_score__min__energy>  (23) 
-9.3499999999999996

>  <m_primary>  (23) 
energy

$$$$
23:0
     RDKit          3D

 38 40  0  0  0  0  0  0  0  0999 V2000
   58.2360   31.7470   43.3960 O   0  0  0  0  0  0  0  0  0  0  0  0
   57.3100   31.5060   44.2160 C   0  0  0  0  0  0  0  0  0  0  0  0
   56.4670   30.2740   44.0340 C   0  0  0  0  0  0  0  0  0  0  0  0
   57.2210   29.1890   43.3820 N   0  0  0  0  0  0  0  0  0  0  0  0
   57.4520   28.0310   44.2740 C   0  0  1  0  0  0  0  0  0  0  0  0
   58.8770   27.4610   44.0620 C   0  0  0  0  0  0  0  0  0  0  0  0
   59.9680   28.5050   44.3660 C   0  0  0  0  0  0  0  0  0  0  0  0
   59.6600   29.2340   45.6380 C   0  0  0  0  0  0  0  0  0  0  0  0
   60.5420   30.0090   46.3030 N   0  0  0  0  0  0  0  0  0  0  0  0
   59.8230   30.4990   47.3370 C   0  0  0  0  0  0  0  0  0  0  0  0
   58.5280   30.0280   47.2750 C   0  0  0  0  0  0  0  0  0  0  0  0
   58.4320   29.2490   46.1870 N   0  0  0  0  0  0  0  0  0  0  0  0
   57.2920   28.4420   45.7570 C   0  0  0  0  0  0  0  0  0  0  0  0
   57.0520   32.4010   45.3110 N   0  0  0  0  0  0  0  0  0  0  0  0
   57.9800   33.4010   45.7660 C   0  0  0  0  0  0  0  0  0  0  0  0
   58.4610   34.4020   44.9010 C   0  0  0  0  0  0  0  0  0  0  0  0
   59.3850   35.3460   45.3620 C   0  0  0  0  0  0  0  0  0  0  0  0
   59.8460   35.2910   46.6800 C   0  0  0  0  0  0  0  0  0  0  0  0
   59.3910   34.2860   47.5390 C   0  0  0  0  0  0  0  0  0  0  0  0
   60.0330   34.2020   49.3350 Br  0  0  0  0  0  0  0  0  0  0  0  0
   58.4670   33.3400   47.0800 C   0  0  0  0  0  0  0  0  0  0  0  0
   56.1246   29.9275   45.0203 H   0  0  0  0  0  0  0  0  0  0  0  0
   55.6143   30.5342   43.3897 H   0  0  0  0  0  0  0  0  0  0  0  0
   58.1300   29.5830   43.0420 H   0  0  0  0  0  0  0  0  0  0  0  0
   56.7055   27.2619   44.0265 H   0  0  0  0  0  0  0  0  0  0  0  0
   59.0166   26.5972   44.7286 H   0  0  0  0  0  0  0  0  0  0  0  0
   58.9719   27.1685   43.0059 H   0  0  0  0  0  0  0  0  0  0  0  0
   60.9377   27.9957   44.4669 H   0  0  0  0  0  0  0  0  0  0  0  0
   60.0039   29.2313   43.5406 H   0  0  0  0  0  0  0  0  0  0  0  0
   60.2128   31.1737   48.1134 H   0  0  0  0  0  0  0  0  0  0  0  0
   57.7206   30.2507   47.9881 H   0  0  0  0  0  0  0  0  0  0  0  0
   57.2328   27.5371   46.3797 H   0  0  0  0  0  0  0  0  0  0  0  0
   56.3726   29.0360   45.8658 H   0  0  0  0  0  0  0  0  0  0  0  0
   56.1150   32.3570   45.7690 H   0  0  0  0  0  0  0  0  0  0  0  0
   58.1093   34.4421   43.8595 H   0  0  0  0  0  0  0  0  0  0  0  0
   59.7493   36.1332   44.6855 H   0  0  0  0  0  0  0  0  0  0  0  0
   60.5671   36.0387   47.0419 H   0  0  0  0  0  0  0  0  0  0  0  0
   58.1204   32.5432   47.7545 H   0  0  0  0  0  0  0  0  0  0  0  0
  1  2  2  0
  2  3  1  0
  3  4  1  0
  4  5  1  0
  5  6  1  0
  6  7  1  0
  7  8  1  0
  8  9  2  0
  9 10  1  0
 10 11  2  0
 11 12  1  0
 12 13  1  0
  2 14  1  0
 14 15  1  0
 15 16  2  0
 16 17  1  0
 17 18  2  0
 18 19  1  0
 19 20  1  0
 19 21  2  0
 13  5  1  0
 21 15  1  0
 12  8  1  0
  3 22  1  0
  3 23  1  0
  4 24  1  0
  5 25  1  6
  6 26  1  0
  6 27  1  0
  7 28  1  0
  7 29  1  0
 10 30  1  0
 11 31  1  0
 13 32  1  0
 13 33  1  0
 14 34  1  0
 16 35  1  0
 17 36  1  0
 18 37  1  0
 21 38  1  0
M  END
>  <UniqueID>  (24) 
24

>  <SMILES>  (24) 
O=C(CN[C@H]1CCc2nccn2C1)Nc1cccc(Br)c1

>  <Energy>  (24) 
72.1882341251337

>  <Genealogy>  (24) 
O=C(CN[C@H]1CCc2nccn2C1)Nc1cccc(Br)c1 (chirality)
O=C(CN[C@H]1CCc2nccn2C1)Nc1cccc(Br)c1 (3D coordinates assigned)
O=C(CN[C@H]1CCc2nccn2C1)Nc1cccc(Br)c1 (nonaromatic ring conformer: 72.1882341251337 kcal/mol)

>  <smiles>  (24) 
O=C(CNC1CCc2nccn2C1)Nc1cccc(Br)c1

>  <score_type>  (24) 
oracle

>  <origin>  (24) 
adg

>  <m_score__min__energy>  (24) 
-7.3200000000000003

>  <m_primary>  (24) 
energy

$$$$
24:0
     RDKit          3D

 48 51  0  0  0  0  0  0  0  0999 V2000
   56.5650   31.3100   44.3900 O   0  0  0  0  0  0  0  0  0  0  0  0
   56.5490   29.8400   44.6960 S   0  0  0  0  0  0  0  0  0  0  0  0
   55.1410   29.3430   44.8580 O   0  0  0  0  0  0  0  0  0  0  0  0
   57.4230   28.9130   43.4720 C   0  0  0  0  0  0  0  0  0  0  0  0
   58.2860   27.9370   44.2620 C   0  0  0  0  0  0  0  0  0  0  0  0
   58.7210   28.6300   45.5720 C   0  0  2  0  0  0  0  0  0  0  0  0
   59.3110   27.6680   46.5410 N   0  0  0  0  0  0  0  0  0  0  0  0
   58.3810   26.7930   47.2960 C   0  0  0  0  0  0  0  0  0  0  0  0
   57.7460   25.7920   46.3660 C   0  0  0  0  0  0  0  0  0  0  0  0
   56.3550   25.7880   46.1730 C   0  0  0  0  0  0  0  0  0  0  0  0
   55.7650   24.8700   45.2990 C   0  0  0  0  0  0  0  0  0  0  0  0
   56.5560   23.9570   44.5810 C   0  0  0  0  0  0  0  0  0  0  0  0
   55.9140   22.9330   43.6800 C   0  0  0  0  0  0  0  0  0  0  0  0
   55.7290   21.7580   44.3840 F   0  0  0  0  0  0  0  0  0  0  0  0
   56.7170   22.6780   42.5810 F   0  0  0  0  0  0  0  0  0  0  0  0
   54.6880   23.3830   43.2230 F   0  0  0  0  0  0  0  0  0  0  0  0
   57.9470   23.9560   44.7840 C   0  0  0  0  0  0  0  0  0  0  0  0
   58.5370   24.8740   45.6570 C   0  0  0  0  0  0  0  0  0  0  0  0
   60.4440   28.1970   47.3340 C   0  0  0  0  0  0  0  0  0  0  0  0
   60.3840   29.6840   47.5360 C   0  0  0  0  0  0  0  0  0  0  0  0
   61.2520   30.5380   46.9290 N   0  0  0  0  0  0  0  0  0  0  0  0
   60.8440   31.7340   47.3760 C   0  0  0  0  0  0  0  0  0  0  0  0
   61.3720   32.9850   47.0680 C   0  0  0  0  0  0  0  0  0  0  0  0
   60.7690   34.1110   47.6590 C   0  0  0  0  0  0  0  0  0  0  0  0
   59.6670   33.9560   48.5320 C   0  0  0  0  0  0  0  0  0  0  0  0
   59.1600   32.6740   48.8190 C   0  0  0  0  0  0  0  0  0  0  0  0
   59.7830   31.5840   48.2150 C   0  0  0  0  0  0  0  0  0  0  0  0
   59.4700   30.2880   48.3400 N   0  0  0  0  0  0  0  0  0  0  0  0
   57.5360   29.4560   46.1130 C   0  0  0  0  0  0  0  0  0  0  0  0
   56.7203   28.3703   42.8226 H   0  0  0  0  0  0  0  0  0  0  0  0
   58.0237   29.5584   42.8142 H   0  0  0  0  0  0  0  0  0  0  0  0
   57.7067   27.0312   44.4943 H   0  0  0  0  0  0  0  0  0  0  0  0
   59.1691   27.6477   43.6734 H   0  0  0  0  0  0  0  0  0  0  0  0
   59.5431   29.3347   45.3781 H   0  0  0  0  0  0  0  0  0  0  0  0
   58.9384   26.2594   48.0799 H   0  0  0  0  0  0  0  0  0  0  0  0
   57.5942   27.4112   47.7529 H   0  0  0  0  0  0  0  0  0  0  0  0
   55.7260   26.5113   46.7126 H   0  0  0  0  0  0  0  0  0  0  0  0
   54.6723   24.8623   45.1723 H   0  0  0  0  0  0  0  0  0  0  0  0
   58.5758   23.2271   44.2517 H   0  0  0  0  0  0  0  0  0  0  0  0
   59.6290   24.8774   45.7896 H   0  0  0  0  0  0  0  0  0  0  0  0
   60.4374   27.7100   48.3203 H   0  0  0  0  0  0  0  0  0  0  0  0
   61.3644   27.9812   46.7716 H   0  0  0  0  0  0  0  0  0  0  0  0
   62.2297   33.0895   46.3872 H   0  0  0  0  0  0  0  0  0  0  0  0
   61.1568   35.1170   47.4408 H   0  0  0  0  0  0  0  0  0  0  0  0
   59.2032   34.8423   48.9895 H   0  0  0  0  0  0  0  0  0  0  0  0
   58.3033   32.5381   49.4954 H   0  0  0  0  0  0  0  0  0  0  0  0
   56.9556   28.8675   46.8388 H   0  0  0  0  0  0  0  0  0  0  0  0
   57.8733   30.3631   46.6359 H   0  0  0  0  0  0  0  0  0  0  0  0
  1  2  2  0
  2  3  2  0
  2  4  1  0
  4  5  1  0
  5  6  1  0
  6  7  1  0
  7  8  1  0
  8  9  1  0
  9 10  2  0
 10 11  1  0
 11 12  2  0
 12 13  1  0
 13 14  1  0
 13 15  1  0
 13 16  1  0
 12 17  1  0
 17 18  2  0
  7 19  1  0
 19 20  1  0
 20 21  2  0
 21 22  1  0
 22 23  2  0
 23 24  1  0
 24 25  2  0
 25 26  1  0
 26 27  2  0
 27 28  1  0
  6 29  1  0
 29  2  1  0
 18  9  1  0
 28 20  1  0
 27 22  1  0
  4 30  1  0
  4 31  1  0
  5 32  1  0
  5 33  1  0
  6 34  1  6
  8 35  1  0
  8 36  1  0
 10 37  1  0
 11 38  1  0
 17 39  1  0
 18 40  1  0
 19 41  1  0
 19 42  1  0
 23 43  1  0
 24 44  1  0
 25 45  1  0
 26 46  1  0
 29 47  1  0
 29 48  1  0
M  CHG  1  28  -1
M  END
>  <UniqueID>  (25) 
25

>  <SMILES>  (25) 
O=S1(=O)CC[C@H](N(Cc2ccc(C(F)(F)F)cc2)Cc2nc3ccccc3[n-]2)C1

>  <Energy>  (25) 
94.17544614196169

>  <Genealogy>  (25) 
O=S1(=O)CCC(N(Cc2ccc(C(F)(F)F)cc2)Cc2nc3ccccc3[n-]2)C1 (protonated)
O=S1(=O)CC[C@H](N(Cc2ccc(C(F)(F)F)cc2)Cc2nc3ccccc3[n-]2)C1 (chirality)
O=S1(=O)CC[C@H](N(Cc2ccc(C(F)(F)F)cc2)Cc2nc3ccccc3[n-]2)C1 (3D coordinates assigned)
O=S1(=O)CC[C@H](N(Cc2ccc(C(F)(F)F)cc2)Cc2nc3ccccc3[n-]2)C1 (nonaromatic ring conformer: 94.17544614196169 kcal/mol)

>  <smiles>  (25) 
O=S1(=O)CCC(N(Cc2ccc(C(F)(F)F)cc2)Cc2nc3ccccc3[nH]2)C1

>  <score_type>  (25) 
oracle

>  <origin>  (25) 
adg

>  <m_score__min__energy>  (25) 
-9.1699999999999999

>  <m_primary>  (25) 
energy

$$$$
25:0
     RDKit          3D

 33 34  0  0  0  0  0  0  0  0999 V2000
   56.8550   28.9450   42.8180 N   0  0  0  0  0  0  0  0  0  0  0  0
   57.4010   29.0220   44.1750 C   0  0  0  0  0  0  0  0  0  0  0  0
   57.7190   30.4710   44.6300 C   0  0  2  0  0  0  0  0  0  0  0  0
   57.8170   31.5800   43.1580 S   0  0  0  0  0  0  0  0  0  0  0  0
   57.8320   33.2290   43.9650 C   0  0  0  0  0  0  0  0  0  0  0  0
   58.9680   33.4510   44.9910 C   0  0  0  0  0  0  0  0  0  0  0  0
   58.5690   33.3260   46.4690 C   0  0  0  0  0  0  0  0  0  0  0  0
   58.4750   31.6080   47.1170 S   0  0  0  0  0  0  0  0  0  0  0  0
   58.8990   30.5830   45.6450 C   0  0  1  0  0  0  0  0  0  0  0  0
   59.3200   29.2170   46.1570 C   0  0  0  0  0  0  0  0  0  0  0  0
   60.3030   28.4630   45.4840 C   0  0  0  0  0  0  0  0  0  0  0  0
   60.6960   27.2140   45.9720 C   0  0  0  0  0  0  0  0  0  0  0  0
   60.1140   26.7010   47.1340 C   0  0  0  0  0  0  0  0  0  0  0  0
   59.1380   27.4360   47.8100 C   0  0  0  0  0  0  0  0  0  0  0  0
   58.7410   28.6870   47.3270 C   0  0  0  0  0  0  0  0  0  0  0  0
   55.8990   29.3600   42.7740 H   0  0  0  0  0  0  0  0  0  0  0  0
   56.8390   27.9540   42.4890 H   0  0  0  0  0  0  0  0  0  0  0  0
   57.4760   29.4880   42.1750 H   0  0  0  0  0  0  0  0  0  0  0  0
   56.6665   28.5911   44.8713 H   0  0  0  0  0  0  0  0  0  0  0  0
   58.3501   28.4659   44.1752 H   0  0  0  0  0  0  0  0  0  0  0  0
   56.8797   30.8337   45.2416 H   0  0  0  0  0  0  0  0  0  0  0  0
   57.9303   33.9917   43.1784 H   0  0  0  0  0  0  0  0  0  0  0  0
   56.8917   33.2997   44.5314 H   0  0  0  0  0  0  0  0  0  0  0  0
   59.7541   32.7083   44.7899 H   0  0  0  0  0  0  0  0  0  0  0  0
   59.2918   34.4936   44.8566 H   0  0  0  0  0  0  0  0  0  0  0  0
   59.3103   33.8748   47.0684 H   0  0  0  0  0  0  0  0  0  0  0  0
   57.5505   33.7347   46.5439 H   0  0  0  0  0  0  0  0  0  0  0  0
   59.7162   31.0617   45.0855 H   0  0  0  0  0  0  0  0  0  0  0  0
   60.7640   28.8609   44.5680 H   0  0  0  0  0  0  0  0  0  0  0  0
   61.4647   26.6338   45.4405 H   0  0  0  0  0  0  0  0  0  0  0  0
   60.4248   25.7176   47.5165 H   0  0  0  0  0  0  0  0  0  0  0  0
   58.6804   27.0302   48.7243 H   0  0  0  0  0  0  0  0  0  0  0  0
   57.9716   29.2610   47.8641 H   0  0  0  0  0  0  0  0  0  0  0  0
  1  2  1  0
  2  3  1  0
  3  4  1  0
  4  5  1  0
  5  6  1  0
  6  7  1  0
  7  8  1  0
  8  9  1  0
  9 10  1  0
 10 11  2  0
 11 12  1  0
 12 13  2  0
 13 14  1  0
 14 15  2  0
  9  3  1  0
 15 10  1  0
  1 16  1  0
  1 17  1  0
  1 18  1  0
  2 19  1  0
  2 20  1  0
  3 21  1  1
  5 22  1  0
  5 23  1  0
  6 24  1  0
  6 25  1  0
  7 26  1  0
  7 27  1  0
  9 28  1  6
 11 29  1  0
 12 30  1  0
 13 31  1  0
 14 32  1  0
 15 33  1  0
M  CHG  1   1   1
M  END
>  <UniqueID>  (26) 
26

>  <SMILES>  (26) 
[NH3+]C[C@@H]1SCCCS[C@H]1c1ccccc1

>  <Energy>  (26) 
44.76388389097335

>  <Genealogy>  (26) 
[NH3+]CC1SCCCSC1c1ccccc1 (protonated)
[NH3+]C[C@@H]1SCCCS[C@H]1c1ccccc1 (chirality)
[NH3+]C[C@@H]1SCCCS[C@H]1c1ccccc1 (3D coordinates assigned)
[NH3+]C[C@@H]1SCCCS[C@H]1c1ccccc1 (nonaromatic ring conformer: 44.76388389097335 kcal/mol)

>  <smiles>  (26) 
NCC1SCCCSC1c1ccccc1

>  <score_type>  (26) 
oracle

>  <origin>  (26) 
adg

>  <m_score__min__energy>  (26) 
-2.8700000000000001

>  <m_primary>  (26) 
energy

$$$$
26:0
     RDKit          3D

 41 43  0  0  0  0  0  0  0  0999 V2000
   58.3360   29.1120   44.4750 C   0  0  0  0  0  0  0  0  0  0  0  0
   58.3080   30.2270   45.4660 C   0  0  0  0  0  0  0  0  0  0  0  0
   59.2030   30.4050   46.5040 C   0  0  0  0  0  0  0  0  0  0  0  0
   58.8200   31.6020   47.0730 C   0  0  0  0  0  0  0  0  0  0  0  0
   59.5130   32.2750   48.1890 C   0  0  0  0  0  0  0  0  0  0  0  0
   58.8440   32.4020   49.4140 C   0  0  0  0  0  0  0  0  0  0  0  0
   59.4560   32.9810   50.4780 N   0  0  0  0  0  0  0  0  0  0  0  0
   60.7220   33.4670   50.4020 C   0  0  0  0  0  0  0  0  0  0  0  0
   61.4350   33.3880   49.1990 C   0  0  0  0  0  0  0  0  0  0  0  0
   62.7370   33.9020   49.1070 C   0  0  0  0  0  0  0  0  0  0  0  0
   63.4330   33.8370   47.8980 C   0  0  0  0  0  0  0  0  0  0  0  0
   62.8340   33.2660   46.7750 C   0  0  0  0  0  0  0  0  0  0  0  0
   61.5370   32.7500   46.8520 C   0  0  0  0  0  0  0  0  0  0  0  0
   60.8240   32.7910   48.0680 C   0  0  0  0  0  0  0  0  0  0  0  0
   57.7720   32.1010   46.3810 N   0  0  0  0  0  0  0  0  0  0  0  0
   57.1460   33.4150   46.5450 C   0  0  0  0  0  0  0  0  0  0  0  0
   57.3330   34.2730   45.2870 C   0  0  0  0  0  0  0  0  0  0  0  0
   58.6420   34.9640   45.2950 N   0  0  0  0  0  0  0  0  0  0  0  0
   59.6180   34.2110   44.4920 C   0  0  0  0  0  0  0  0  0  0  0  0
   59.1490   35.1200   46.6690 C   0  0  0  0  0  0  0  0  0  0  0  0
   57.4660   31.2760   45.3930 N   0  0  0  0  0  0  0  0  0  0  0  0
   58.3602   28.1494   45.0067 H   0  0  0  0  0  0  0  0  0  0  0  0
   57.4364   29.1597   43.8438 H   0  0  0  0  0  0  0  0  0  0  0  0
   59.2321   29.2048   43.8438 H   0  0  0  0  0  0  0  0  0  0  0  0
   60.0294   29.7450   46.8064 H   0  0  0  0  0  0  0  0  0  0  0  0
   57.8140   32.0291   49.5139 H   0  0  0  0  0  0  0  0  0  0  0  0
   61.1885   33.9237   51.2873 H   0  0  0  0  0  0  0  0  0  0  0  0
   63.2108   34.3573   49.9892 H   0  0  0  0  0  0  0  0  0  0  0  0
   64.4556   34.2369   47.8311 H   0  0  0  0  0  0  0  0  0  0  0  0
   63.3850   33.2215   45.8240 H   0  0  0  0  0  0  0  0  0  0  0  0
   61.0699   32.3094   45.9589 H   0  0  0  0  0  0  0  0  0  0  0  0
   56.0704   33.2804   46.7322 H   0  0  0  0  0  0  0  0  0  0  0  0
   57.6232   33.9275   47.3933 H   0  0  0  0  0  0  0  0  0  0  0  0
   57.2756   33.6251   44.3999 H   0  0  0  0  0  0  0  0  0  0  0  0
   56.5394   35.0344   45.2658 H   0  0  0  0  0  0  0  0  0  0  0  0
   60.3094   33.6776   45.1609 H   0  0  0  0  0  0  0  0  0  0  0  0
   59.0885   33.4851   43.8574 H   0  0  0  0  0  0  0  0  0  0  0  0
   60.1858   34.9073   43.8574 H   0  0  0  0  0  0  0  0  0  0  0  0
   58.3505   34.8743   47.3846 H   0  0  0  0  0  0  0  0  0  0  0  0
   60.0017   34.4427   46.8243 H   0  0  0  0  0  0  0  0  0  0  0  0
   59.4734   36.1595   46.8243 H   0  0  0  0  0  0  0  0  0  0  0  0
  1  2  1  0
  2  3  1  0
  3  4  2  0
  4  5  1  0
  5  6  2  0
  6  7  1  0
  7  8  2  0
  8  9  1  0
  9 10  2  0
 10 11  1  0
 11 12  2  0
 12 13  1  0
 13 14  2  0
  4 15  1  0
 15 16  1  0
 16 17  1  0
 17 18  1  0
 18 19  1  0
 18 20  1  0
 15 21  1  0
 21  2  2  0
 14  5  1  0
 14  9  1  0
  1 22  1  0
  1 23  1  0
  1 24  1  0
  3 25  1  0
  6 26  1  0
  8 27  1  0
 10 28  1  0
 11 29  1  0
 12 30  1  0
 13 31  1  0
 16 32  1  0
 16 33  1  0
 17 34  1  0
 17 35  1  0
 19 36  1  0
 19 37  1  0
 19 38  1  0
 20 39  1  0
 20 40  1  0
 20 41  1  0
M  END
>  <UniqueID>  (27) 
27

>  <SMILES>  (27) 
Cc1cc(-c2cncc3ccccc23)n(CCN(C)C)n1

>  <Energy>  (27) 
80.26588470373801

>  <Genealogy>  (27) 
Cc1cc(-c2cncc3ccccc23)n(CCN(C)C)n1 (3D coordinates assigned)
Cc1cc(-c2cncc3ccccc23)n(CCN(C)C)n1 (optimized conformer: 80.26588470373801 kcal/mol)

>  <smiles>  (27) 
Cc1cc(-c2cncc3ccccc23)n(CCN(C)C)n1

>  <score_type>  (27) 
oracle

>  <origin>  (27) 
adg

>  <m_score__min__energy>  (27) 
-6.5800000000000001

>  <m_primary>  (27) 
energy

$$$$
27:0
     RDKit          3D

 41 43  0  0  0  0  0  0  0  0999 V2000
   64.4100   32.3580   48.9670 C   0  0  0  0  0  0  0  0  0  0  0  0
   63.1650   33.0620   48.5130 C   0  0  0  0  0  0  0  0  0  0  0  0
   62.8250   33.0940   47.1510 C   0  0  0  0  0  0  0  0  0  0  0  0
   61.6480   33.7250   46.7360 C   0  0  0  0  0  0  0  0  0  0  0  0
   60.8040   34.3290   47.6730 C   0  0  0  0  0  0  0  0  0  0  0  0
   59.3080   35.1490   47.1230 S   0  0  0  0  0  0  0  0  0  0  0  0
   58.7370   33.7430   46.1500 C   0  0  0  0  0  0  0  0  0  0  0  0
   58.5320   33.9510   44.7770 C   0  0  0  0  0  0  0  0  0  0  0  0
   58.0360   32.9300   43.9670 C   0  0  0  0  0  0  0  0  0  0  0  0
   57.7150   31.6920   44.5230 C   0  0  0  0  0  0  0  0  0  0  0  0
   57.0140   30.3030   43.4150 Br  0  0  0  0  0  0  0  0  0  0  0  0
   57.8990   31.4710   45.8890 C   0  0  0  0  0  0  0  0  0  0  0  0
   58.4260   32.4790   46.7220 C   0  0  0  0  0  0  0  0  0  0  0  0
   58.5980   32.2030   48.1340 N   0  0  0  0  0  0  0  0  0  0  0  0
   59.8570   31.4760   48.3720 C   0  0  0  0  0  0  0  0  0  0  0  0
   59.9030   30.2030   47.5630 C   0  0  0  0  0  0  0  0  0  0  0  0
   59.0790   29.1120   47.8790 C   0  0  0  0  0  0  0  0  0  0  0  0
   59.1280   27.9530   47.1020 C   0  0  0  0  0  0  0  0  0  0  0  0
   60.0020   27.8930   46.0150 C   0  0  0  0  0  0  0  0  0  0  0  0
   60.7950   28.9560   45.7190 N   0  0  0  0  0  0  0  0  0  0  0  0
   60.7670   30.0960   46.4610 C   0  0  0  0  0  0  0  0  0  0  0  0
   61.1170   34.2610   49.0360 C   0  0  0  0  0  0  0  0  0  0  0  0
   62.2920   33.6300   49.4550 C   0  0  0  0  0  0  0  0  0  0  0  0
   64.4411   32.3404   50.0664 H   0  0  0  0  0  0  0  0  0  0  0  0
   64.4087   31.3269   48.5837 H   0  0  0  0  0  0  0  0  0  0  0  0
   65.2929   32.8906   48.5837 H   0  0  0  0  0  0  0  0  0  0  0  0
   63.4857   32.6218   46.4090 H   0  0  0  0  0  0  0  0  0  0  0  0
   61.3851   33.7462   45.6681 H   0  0  0  0  0  0  0  0  0  0  0  0
   58.7653   34.9308   44.3349 H   0  0  0  0  0  0  0  0  0  0  0  0
   57.8979   33.1012   42.8892 H   0  0  0  0  0  0  0  0  0  0  0  0
   57.6289   30.4964   46.3217 H   0  0  0  0  0  0  0  0  0  0  0  0
   58.5930   33.0770   48.7050 H   0  0  0  0  0  0  0  0  0  0  0  0
   57.7910   31.6180   48.4520 H   0  0  0  0  0  0  0  0  0  0  0  0
   60.7033   32.1169   48.0840 H   0  0  0  0  0  0  0  0  0  0  0  0
   59.9179   31.2173   49.4394 H   0  0  0  0  0  0  0  0  0  0  0  0
   58.3948   29.1699   48.7384 H   0  0  0  0  0  0  0  0  0  0  0  0
   58.4838   27.0949   47.3441 H   0  0  0  0  0  0  0  0  0  0  0  0
   60.0488   26.9840   45.3973 H   0  0  0  0  0  0  0  0  0  0  0  0
   61.4240   30.9377   46.1966 H   0  0  0  0  0  0  0  0  0  0  0  0
   60.4373   34.7048   49.7783 H   0  0  0  0  0  0  0  0  0  0  0  0
   62.5337   33.5782   50.5269 H   0  0  0  0  0  0  0  0  0  0  0  0
  1  2  1  0
  2  3  2  0
  3  4  1  0
  4  5  2  0
  5  6  1  0
  6  7  1  0
  7  8  2  0
  8  9  1  0
  9 10  2  0
 10 11  1  0
 10 12  1  0
 12 13  2  0
 13 14  1  0
 14 15  1  0
 15 16  1  0
 16 17  2  0
 17 18  1  0
 18 19  2  0
 19 20  1  0
 20 21  2  0
  5 22  1  0
 22 23  2  0
 23  2  1  0
 13  7  1  0
 21 16  1  0
  1 24  1  0
  1 25  1  0
  1 26  1  0
  3 27  1  0
  4 28  1  0
  8 29  1  0
  9 30  1  0
 12 31  1  0
 14 32  1  0
 14 33  1  0
 15 34  1  0
 15 35  1  0
 17 36  1  0
 18 37  1  0
 19 38  1  0
 21 39  1  0
 22 40  1  0
 23 41  1  0
M  CHG  1  14   1
M  END
>  <UniqueID>  (28) 
28

>  <SMILES>  (28) 
Cc1ccc(Sc2ccc(Br)cc2[NH2+]Cc2cccnc2)cc1

>  <Energy>  (28) 
41.28018562626613

>  <Genealogy>  (28) 
Cc1ccc(Sc2ccc(Br)cc2[NH2+]Cc2cccnc2)cc1 (protonated)
Cc1ccc(Sc2ccc(Br)cc2[NH2+]Cc2cccnc2)cc1 (3D coordinates assigned)
Cc1ccc(Sc2ccc(Br)cc2[NH2+]Cc2cccnc2)cc1 (optimized conformer: 41.28018562626613 kcal/mol)

>  <smiles>  (28) 
Cc1ccc(Sc2ccc(Br)cc2NCc2cccnc2)cc1

>  <score_type>  (28) 
oracle

>  <origin>  (28) 
adg

>  <m_score__min__energy>  (28) 
-6.4400000000000004

>  <m_primary>  (28) 
energy

$$$$
28:0
     RDKit          3D

 35 38  0  0  0  0  0  0  0  0999 V2000
   66.0200   32.3430   50.2490 C   0  0  0  0  0  0  0  0  0  0  0  0
   65.1020   33.3000   49.7310 O   0  0  0  0  0  0  0  0  0  0  0  0
   63.9430   32.9770   49.0100 C   0  0  0  0  0  0  0  0  0  0  0  0
   63.8230   33.4470   47.6970 C   0  0  0  0  0  0  0  0  0  0  0  0
   62.6880   33.1520   46.9380 C   0  0  0  0  0  0  0  0  0  0  0  0
   61.6550   32.3700   47.4800 C   0  0  0  0  0  0  0  0  0  0  0  0
   60.4400   32.0670   46.6890 C   0  0  0  0  0  0  0  0  0  0  0  0
   60.0240   30.7710   46.5450 N   0  0  0  0  0  0  0  0  0  0  0  0
   58.8990   30.4530   45.8330 C   0  0  0  0  0  0  0  0  0  0  0  0
   58.4780   29.1230   45.7000 C   0  0  0  0  0  0  0  0  0  0  0  0
   57.3570   28.8300   44.9890 N   0  0  0  0  0  0  0  0  0  0  0  0
   56.6140   29.7990   44.3880 C   0  0  0  0  0  0  0  0  0  0  0  0
   56.9900   31.1400   44.4890 C   0  0  0  0  0  0  0  0  0  0  0  0
   58.1420   31.4770   45.2180 C   0  0  0  0  0  0  0  0  0  0  0  0
   58.5790   32.7610   45.3610 N   0  0  0  0  0  0  0  0  0  0  0  0
   58.0810   33.9120   44.8620 C   0  0  0  0  0  0  0  0  0  0  0  0
   58.8910   34.9660   45.2480 C   0  0  0  0  0  0  0  0  0  0  0  0
   59.9190   34.4350   46.0100 C   0  0  0  0  0  0  0  0  0  0  0  0
   59.6840   33.0720   46.0630 C   0  0  0  0  0  0  0  0  0  0  0  0
   61.7660   31.9090   48.8010 C   0  0  0  0  0  0  0  0  0  0  0  0
   62.9020   32.2040   49.5600 C   0  0  0  0  0  0  0  0  0  0  0  0
   65.9952   32.3688   51.3484 H   0  0  0  0  0  0  0  0  0  0  0  0
   65.7389   31.3386   49.8994 H   0  0  0  0  0  0  0  0  0  0  0  0
   67.0352   32.5821   49.8994 H   0  0  0  0  0  0  0  0  0  0  0  0
   64.6293   34.0538   47.2591 H   0  0  0  0  0  0  0  0  0  0  0  0
   62.6029   33.5343   45.9101 H   0  0  0  0  0  0  0  0  0  0  0  0
   60.5700   30.0060   47.0050 H   0  0  0  0  0  0  0  0  0  0  0  0
   59.0557   28.3145   46.1718 H   0  0  0  0  0  0  0  0  0  0  0  0
   55.7129   29.5245   43.8199 H   0  0  0  0  0  0  0  0  0  0  0  0
   56.3905   31.9238   44.0029 H   0  0  0  0  0  0  0  0  0  0  0  0
   57.1741   33.9988   44.2455 H   0  0  0  0  0  0  0  0  0  0  0  0
   58.7456   36.0270   44.9967 H   0  0  0  0  0  0  0  0  0  0  0  0
   60.7505   34.9835   46.4767 H   0  0  0  0  0  0  0  0  0  0  0  0
   60.9540   31.3119   49.2417 H   0  0  0  0  0  0  0  0  0  0  0  0
   62.9834   31.8308   50.5915 H   0  0  0  0  0  0  0  0  0  0  0  0
  1  2  1  0
  2  3  1  0
  3  4  2  0
  4  5  1  0
  5  6  2  0
  6  7  1  0
  7  8  2  0
  8  9  1  0
  9 10  2  0
 10 11  1  0
 11 12  2  0
 12 13  1  0
 13 14  2  0
 14 15  1  0
 15 16  1  0
 16 17  2  0
 17 18  1  0
 18 19  2  0
  6 20  1  0
 20 21  2  0
 21  3  1  0
 19  7  1  0
 14  9  1  0
 19 15  1  0
  1 22  1  0
  1 23  1  0
  1 24  1  0
  4 25  1  0
  5 26  1  0
  8 27  1  0
 10 28  1  0
 12 29  1  0
 13 30  1  0
 16 31  1  0
 17 32  1  0
 18 33  1  0
 20 34  1  0
 21 35  1  0
M  CHG  1   8   1
M  END
>  <UniqueID>  (29) 
29

>  <SMILES>  (29) 
COc1ccc(-c2[nH+]c3cnccc3n3cccc23)cc1

>  <Energy>  (29) 
82.10125994363837

>  <Genealogy>  (29) 
COc1ccc(-c2[nH+]c3cnccc3n3cccc23)cc1 (protonated)
COc1ccc(-c2[nH+]c3cnccc3n3cccc23)cc1 (3D coordinates assigned)
COc1ccc(-c2[nH+]c3cnccc3n3cccc23)cc1 (optimized conformer: 82.10125994363837 kcal/mol)

>  <smiles>  (29) 
COc1ccc(-c2nc3cnccc3n3cccc23)cc1

>  <score_type>  (29) 
oracle

>  <origin>  (29) 
adg

>  <m_score__min__energy>  (29) 
-5.2999999999999998

>  <m_primary>  (29) 
energy

$$$$
29:0
     RDKit          3D

 50 53  0  0  1  0  0  0  0  0999 V2000
   56.0990   29.7060   44.0510 C   0  0  0  0  0  0  0  0  0  0  0  0
   56.6500   30.4670   45.1200 O   0  0  0  0  0  0  0  0  0  0  0  0
   57.4000   31.6160   44.9270 C   0  0  0  0  0  0  0  0  0  0  0  0
   57.7440   31.9770   43.6350 C   0  0  0  0  0  0  0  0  0  0  0  0
   58.4980   33.1230   43.3730 C   0  0  0  0  0  0  0  0  0  0  0  0
   58.9100   33.9140   44.4260 C   0  0  0  0  0  0  0  0  0  0  0  0
   58.5520   33.5300   45.7110 C   0  0  0  0  0  0  0  0  0  0  0  0
   59.0230   34.4230   46.8300 C   0  0  0  0  0  0  0  0  0  0  0  0
   60.3990   34.6360   46.6170 N   0  0  0  0  0  0  0  0  0  0  0  0
   61.2530   33.7360   46.9350 C   0  0  0  0  0  0  0  0  0  0  0  0
   62.5720   33.9740   46.6770 C   0  0  0  0  0  0  0  0  0  0  0  0
   63.4960   33.0600   46.9990 N   0  0  0  0  0  0  0  0  0  0  0  0
   63.1670   31.9200   47.5640 N   0  0  0  0  0  0  0  0  0  0  0  0
   61.8760   31.5810   47.8660 C   0  0  0  0  0  0  0  0  0  0  0  0
   61.5770   30.4760   48.4120 O   0  0  0  0  0  0  0  0  0  0  0  0
   61.1360   29.3840   48.9970 C   0  0  0  0  0  0  0  0  0  0  0  0
   59.8800   28.8090   48.3520 C   0  0  1  0  0  0  0  0  0  0  0  0
   58.8410   29.8410   48.0050 C   0  0  0  0  0  0  0  0  0  0  0  0
   59.5750   29.0560   46.9160 C   0  0  2  0  0  0  0  0  0  0  0  0
   58.7050   28.0440   46.2210 C   0  0  0  0  0  0  0  0  0  0  0  0
   58.8630   27.6790   44.8840 C   0  0  0  0  0  0  0  0  0  0  0  0
   57.8610   26.7310   44.6680 C   0  0  0  0  0  0  0  0  0  0  0  0
   57.1620   26.5520   45.8050 N   0  0  0  0  0  0  0  0  0  0  0  0
   56.0510   25.6280   45.9090 C   0  0  0  0  0  0  0  0  0  0  0  0
   57.6730   27.3480   46.7480 N   0  0  0  0  0  0  0  0  0  0  0  0
   60.9260   32.5420   47.5260 C   0  0  0  0  0  0  0  0  0  0  0  0
   57.8080   32.3980   45.9680 C   0  0  0  0  0  0  0  0  0  0  0  0
   55.5002   28.8790   44.4602 H   0  0  0  0  0  0  0  0  0  0  0  0
   55.4580   30.3521   43.4333 H   0  0  0  0  0  0  0  0  0  0  0  0
   56.9129   29.2987   43.4333 H   0  0  0  0  0  0  0  0  0  0  0  0
   57.4157   31.3464   42.7956 H   0  0  0  0  0  0  0  0  0  0  0  0
   58.7604   33.3920   42.3392 H   0  0  0  0  0  0  0  0  0  0  0  0
   59.5050   34.8227   44.2521 H   0  0  0  0  0  0  0  0  0  0  0  0
   58.4817   35.3803   46.8061 H   0  0  0  0  0  0  0  0  0  0  0  0
   58.8382   33.9628   47.8119 H   0  0  0  0  0  0  0  0  0  0  0  0
   62.8766   34.9189   46.2034 H   0  0  0  0  0  0  0  0  0  0  0  0
   63.9130   31.2190   47.8080 H   0  0  0  0  0  0  0  0  0  0  0  0
   61.9286   28.6224   48.9539 H   0  0  0  0  0  0  0  0  0  0  0  0
   60.8719   29.6561   50.0296 H   0  0  0  0  0  0  0  0  0  0  0  0
   59.9341   27.8787   48.9365 H   0  0  0  0  0  0  0  0  0  0  0  0
   57.7775   29.6453   48.2069 H   0  0  0  0  0  0  0  0  0  0  0  0
   58.6838   30.9051   48.2351 H   0  0  0  0  0  0  0  0  0  0  0  0
   60.1926   29.2916   46.0367 H   0  0  0  0  0  0  0  0  0  0  0  0
   59.6067   28.0525   44.1646 H   0  0  0  0  0  0  0  0  0  0  0  0
   57.6720   26.2113   43.7171 H   0  0  0  0  0  0  0  0  0  0  0  0
   55.8271   25.4418   46.9697 H   0  0  0  0  0  0  0  0  0  0  0  0
   55.1669   26.0609   45.4181 H   0  0  0  0  0  0  0  0  0  0  0  0
   56.3155   24.6798   45.4181 H   0  0  0  0  0  0  0  0  0  0  0  0
   59.8674   32.3341   47.7409 H   0  0  0  0  0  0  0  0  0  0  0  0
   57.5460   32.1281   47.0017 H   0  0  0  0  0  0  0  0  0  0  0  0
  1  2  1  0
  2  3  1  0
  3  4  2  0
  4  5  1  0
  5  6  2  0
  6  7  1  0
  7  8  1  0
  8  9  1  0
  9 10  2  0
 10 11  1  0
 11 12  2  0
 12 13  1  0
 13 14  1  0
 14 15  1  0
 15 16  1  0
 16 17  1  0
 17 18  1  0
 18 19  1  0
 19 20  1  0
 20 21  1  0
 21 22  2  0
 22 23  1  0
 23 24  1  0
 23 25  1  0
 14 26  2  0
  7 27  2  0
 27  3  1  0
 26 10  1  0
 19 17  1  0
 25 20  2  0
  1 28  1  0
  1 29  1  0
  1 30  1  0
  4 31  1  0
  5 32  1  0
  6 33  1  0
  8 34  1  0
  8 35  1  0
 11 36  1  0
 13 37  1  0
 16 38  1  0
 16 39  1  0
 17 40  1  1
 18 41  1  0
 18 42  1  0
 19 43  1  6
 21 44  1  0
 22 45  1  0
 24 46  1  0
 24 47  1  0
 24 48  1  0
 26 49  1  0
 27 50  1  0
M  END
>  <smiles>  (30) 
COc1cccc(CN=c2cn[nH]c(OCC3CC3c3ccn(C)n3)c2)c1

>  <score_type>  (30) 
oracle

>  <origin>  (30) 
adg

>  <m_score__min__energy>  (30) 
-8.3100000000000005

>  <m_primary>  (30) 
energy

$$$$
30:0
     RDKit          3D

 55 57  0  0  0  0  0  0  0  0999 V2000
   54.7690   30.4630   45.4800 H   0  0  0  0  0  0  0  0  0  0  0  0
   55.2230   29.8700   44.7500 N   0  0  0  0  0  0  0  0  0  0  0  0
   56.3980   30.1240   44.2660 C   0  0  0  0  0  0  0  0  0  0  0  0
   57.2650   31.1620   44.8760 C   0  0  0  0  0  0  0  0  0  0  0  0
   57.7800   30.9990   46.1740 C   0  0  0  0  0  0  0  0  0  0  0  0
   57.5262   30.0983   46.7523 H   0  0  0  0  0  0  0  0  0  0  0  0
   58.6120   31.9720   46.7360 C   0  0  0  0  0  0  0  0  0  0  0  0
   59.0043   31.8348   47.7545 H   0  0  0  0  0  0  0  0  0  0  0  0
   58.9500   33.1260   46.0050 C   0  0  0  0  0  0  0  0  0  0  0  0
   59.8080   34.1170   46.5080 O   0  0  0  0  0  0  0  0  0  0  0  0
   61.2070   34.2160   46.2350 C   0  0  0  0  0  0  0  0  0  0  0  0
   61.4068   33.8021   45.2356 H   0  0  0  0  0  0  0  0  0  0  0  0
   61.4949   35.2766   46.2829 H   0  0  0  0  0  0  0  0  0  0  0  0
   62.0210   33.4570   47.2520 C   0  0  0  0  0  0  0  0  0  0  0  0
   63.3880   33.7310   47.3970 C   0  0  0  0  0  0  0  0  0  0  0  0
   63.8717   34.4872   46.7612 H   0  0  0  0  0  0  0  0  0  0  0  0
   64.1300   33.0390   48.3520 C   0  0  0  0  0  0  0  0  0  0  0  0
   65.2043   33.2440   48.4699 H   0  0  0  0  0  0  0  0  0  0  0  0
   63.5080   32.0860   49.1580 C   0  0  0  0  0  0  0  0  0  0  0  0
   64.0848   31.5450   49.9226 H   0  0  0  0  0  0  0  0  0  0  0  0
   62.1420   31.8230   48.9860 C   0  0  0  0  0  0  0  0  0  0  0  0
   61.4430   30.8210   49.8680 C   0  0  0  0  0  0  0  0  0  0  0  0
   62.0381   29.8968   49.9088 H   0  0  0  0  0  0  0  0  0  0  0  0
   61.3363   31.2468   50.8766 H   0  0  0  0  0  0  0  0  0  0  0  0
   60.0990   30.5120   49.3330 N   0  0  0  0  0  0  0  0  0  0  0  0
   59.9360   29.0710   49.0210 C   0  0  0  0  0  0  0  0  0  0  0  0
   60.8242   28.5354   49.3874 H   0  0  0  0  0  0  0  0  0  0  0  0
   59.0090   28.7423   49.5136 H   0  0  0  0  0  0  0  0  0  0  0  0
   59.7760   28.7730   47.5440 C   0  0  0  0  0  0  0  0  0  0  0  0
   58.7790   27.8880   47.0970 C   0  0  0  0  0  0  0  0  0  0  0  0
   58.1086   27.4070   47.8244 H   0  0  0  0  0  0  0  0  0  0  0  0
   58.6350   27.6160   45.7340 C   0  0  0  0  0  0  0  0  0  0  0  0
   57.8471   26.9290   45.3916 H   0  0  0  0  0  0  0  0  0  0  0  0
   59.4900   28.2150   44.8050 C   0  0  0  0  0  0  0  0  0  0  0  0
   59.3731   28.0020   43.7322 H   0  0  0  0  0  0  0  0  0  0  0  0
   60.4940   29.0850   45.2400 C   0  0  0  0  0  0  0  0  0  0  0  0
   61.1692   29.5538   44.5091 H   0  0  0  0  0  0  0  0  0  0  0  0
   60.6410   29.3600   46.6030 C   0  0  0  0  0  0  0  0  0  0  0  0
   61.4375   30.0391   46.9412 H   0  0  0  0  0  0  0  0  0  0  0  0
   59.0230   31.0660   50.1880 C   0  0  0  0  0  0  0  0  0  0  0  0
   58.0631   30.6172   49.8928 H   0  0  0  0  0  0  0  0  0  0  0  0
   59.2551   30.8298   51.2370 H   0  0  0  0  0  0  0  0  0  0  0  0
   58.9290   32.5840   50.0430 C   0  0  0  0  0  0  0  0  0  0  0  0
   58.9004   33.0465   51.0406 H   0  0  0  0  0  0  0  0  0  0  0  0
   59.8059   32.9547   49.4920 H   0  0  0  0  0  0  0  0  0  0  0  0
   58.0131   32.8437   49.4920 H   0  0  0  0  0  0  0  0  0  0  0  0
   61.4410   32.4880   48.0210 N   0  0  0  0  0  0  0  0  0  0  0  0
   60.4300   32.2630   47.8870 H   0  0  0  0  0  0  0  0  0  0  0  0
   58.4250   33.2960   44.7200 C   0  0  0  0  0  0  0  0  0  0  0  0
   58.6735   34.2003   44.1451 H   0  0  0  0  0  0  0  0  0  0  0  0
   57.5870   32.3270   44.1590 C   0  0  0  0  0  0  0  0  0  0  0  0
   57.1770   32.4778   43.1494 H   0  0  0  0  0  0  0  0  0  0  0  0
   56.8570   29.3730   43.1380 N   0  0  0  0  0  0  0  0  0  0  0  0
   57.7720   29.5870   42.6810 H   0  0  0  0  0  0  0  0  0  0  0  0
   56.2700   28.6060   42.7410 H   0  0  0  0  0  0  0  0  0  0  0  0
  1  2  1  0
  2  3  2  0
  3  4  1  0
  4  5  2  0
  5  6  1  0
  5  7  1  0
  7  8  1  0
  7  9  2  0
  9 10  1  0
 10 11  1  0
 11 12  1  0
 11 13  1  0
 11 14  1  0
 14 15  2  0
 15 16  1  0
 15 17  1  0
 17 18  1  0
 17 19  2  0
 19 20  1  0
 19 21  1  0
 21 22  1  0
 22 23  1  0
 22 24  1  0
 22 25  1  0
 25 26  1  0
 26 27  1  0
 26 28  1  0
 26 29  1  0
 29 30  2  0
 30 31  1  0
 30 32  1  0
 32 33  1  0
 32 34  2  0
 34 35  1  0
 34 36  1  0
 36 37  1  0
 36 38  2  0
 38 39  1  0
 25 40  1  0
 40 41  1  0
 40 42  1  0
 40 43  1  0
 43 44  1  0
 43 45  1  0
 43 46  1  0
 21 47  2  0
 47 48  1  0
  9 49  1  0
 49 50  1  0
 49 51  2  0
 51 52  1  0
  3 53  1  0
 53 54  1  0
 53 55  1  0
 51  4  1  0
 47 14  1  0
 38 29  1  0
M  CHG  1  47   1
M  END
>  <UniqueID>  (31) 
30

>  <SMILES>  (31) 
[H]/N=C(/N)c1ccc(OCc2cccc(CN(CC)Cc3ccccc3)[nH+]2)cc1

>  <Energy>  (31) 
58.97275447528687

>  <Genealogy>  (31) 
CCN(Cc1ccccc1)Cc1cccc(COc2ccc(C(=N)N)cc2)[nH+]1 (protonated)
[H]/N=C(/N)c1ccc(OCc2cccc(CN(CC)Cc3ccccc3)[nH+]2)cc1 (cis-trans isomerization)
[H]/N=C(/N)c1ccc(OCc2cccc(CN(CC)Cc3ccccc3)[nH+]2)cc1 (3D coordinates assigned)
[H]/N=C(/N)c1ccc(OCc2cccc(CN(CC)Cc3ccccc3)[nH+]2)cc1 (optimized conformer: 58.97275447528687 kcal/mol)

>  <smiles>  (31) 
CCN(Cc1ccccc1)Cc1cccc(COc2ccc(C(=N)N)cc2)n1

>  <score_type>  (31) 
oracle

>  <origin>  (31) 
adg

>  <m_score__min__energy>  (31) 
-7

>  <m_primary>  (31) 
energy

$$$$
31:0
     RDKit          3D

 33 34  0  0  0  0  0  0  0  0999 V2000
   59.6510   35.6950   46.7440 C   0  0  0  0  0  0  0  0  0  0  0  0
   59.2060   35.1650   45.5000 O   0  0  0  0  0  0  0  0  0  0  0  0
   58.7610   33.8470   45.3140 C   0  0  0  0  0  0  0  0  0  0  0  0
   58.1440   33.4180   44.1240 C   0  0  0  0  0  0  0  0  0  0  0  0
   57.7190   32.0930   43.9880 C   0  0  0  0  0  0  0  0  0  0  0  0
   57.9020   31.1750   45.0360 C   0  0  0  0  0  0  0  0  0  0  0  0
   57.4650   29.8090   44.8960 N   0  0  0  0  0  0  0  0  0  0  0  0
   56.2580   29.5170   44.1610 C   0  0  0  0  0  0  0  0  0  0  0  0
   56.2570   29.4080   42.6660 C   0  0  0  0  0  0  0  0  0  0  0  0
   55.1740   29.3380   44.7820 O   0  0  0  0  0  0  0  0  0  0  0  0
   58.2550   28.7530   45.4780 C   0  0  0  0  0  0  0  0  0  0  0  0
   57.7780   27.8640   46.3330 C   0  0  0  0  0  0  0  0  0  0  0  0
   58.8430   26.9660   46.7050 C   0  0  0  0  0  0  0  0  0  0  0  0
   58.7110   26.0050   47.5080 O   0  0  0  0  0  0  0  0  0  0  0  0
   60.1110   27.3210   46.0190 C   0  0  0  0  0  0  0  0  0  0  0  0
   59.7190   28.5570   45.1940 C   0  0  0  0  0  0  0  0  0  0  0  0
   58.5160   31.6080   46.2230 C   0  0  0  0  0  0  0  0  0  0  0  0
   58.9400   32.9320   46.3580 C   0  0  0  0  0  0  0  0  0  0  0  0
   59.1829   35.1374   47.5686 H   0  0  0  0  0  0  0  0  0  0  0  0
   60.7448   35.6010   46.8123 H   0  0  0  0  0  0  0  0  0  0  0  0
   59.3692   36.7561   46.8123 H   0  0  0  0  0  0  0  0  0  0  0  0
   57.9955   34.1283   43.2973 H   0  0  0  0  0  0  0  0  0  0  0  0
   57.2380   31.7669   43.0540 H   0  0  0  0  0  0  0  0  0  0  0  0
   56.2473   28.3470   42.3757 H   0  0  0  0  0  0  0  0  0  0  0  0
   55.3634   29.9067   42.2626 H   0  0  0  0  0  0  0  0  0  0  0  0
   57.1596   29.8903   42.2626 H   0  0  0  0  0  0  0  0  0  0  0  0
   56.7418   27.8174   46.6992 H   0  0  0  0  0  0  0  0  0  0  0  0
   60.8999   27.5641   46.7460 H   0  0  0  0  0  0  0  0  0  0  0  0
   60.5192   26.5021   45.4084 H   0  0  0  0  0  0  0  0  0  0  0  0
   60.2977   29.4364   45.5129 H   0  0  0  0  0  0  0  0  0  0  0  0
   59.9220   28.4243   44.1211 H   0  0  0  0  0  0  0  0  0  0  0  0
   58.6638   30.8997   47.0516 H   0  0  0  0  0  0  0  0  0  0  0  0
   59.4188   33.2585   47.2930 H   0  0  0  0  0  0  0  0  0  0  0  0
  1  2  1  0
  2  3  1  0
  3  4  2  0
  4  5  1  0
  5  6  2  0
  6  7  1  0
  7  8  1  0
  8  9  1  0
  8 10  2  0
  7 11  1  0
 11 12  2  0
 12 13  1  0
 13 14  2  0
 13 15  1  0
 15 16  1  0
  6 17  1  0
 17 18  2  0
 18  3  1  0
 16 11  1  0
  1 19  1  0
  1 20  1  0
  1 21  1  0
  4 22  1  0
  5 23  1  0
  9 24  1  0
  9 25  1  0
  9 26  1  0
 12 27  1  0
 15 28  1  0
 15 29  1  0
 16 30  1  0
 16 31  1  0
 17 32  1  0
 18 33  1  0
M  END
>  <UniqueID>  (32) 
31

>  <SMILES>  (32) 
COc1ccc(N(C(C)=O)C2=CC(=O)CC2)cc1

>  <Energy>  (32) 
49.10799850052019

>  <Genealogy>  (32) 
COc1ccc(N(C(C)=O)C2=CC(=O)CC2)cc1 (3D coordinates assigned)
COc1ccc(N(C(C)=O)C2=CC(=O)CC2)cc1 (nonaromatic ring conformer: 49.10799850052019 kcal/mol)

>  <smiles>  (32) 
COc1ccc(N(C(C)=O)C2=CC(=O)CC2)cc1

>  <score_type>  (32) 
oracle

>  <origin>  (32) 
adg

>  <m_score__min__energy>  (32) 
-6.4100000000000001

>  <m_primary>  (32) 
energy

$$$$
32:0
     RDKit          3D

 50 53  0  0  0  0  0  0  0  0999 V2000
   56.6990   33.3710   47.2020 H   0  0  0  0  0  0  0  0  0  0  0  0
   57.3750   32.8260   47.7750 N   0  0  0  0  0  0  0  0  0  0  0  0
   58.6660   32.9980   47.8200 C   0  0  0  0  0  0  0  0  0  0  0  0
   59.3220   33.3890   46.6360 C   0  0  0  0  0  0  0  0  0  0  0  0
   58.4190   33.6810   45.1410 S   0  0  0  0  0  0  0  0  0  0  0  0
   57.2500   34.5780   45.4380 O   0  0  0  0  0  0  0  0  0  0  0  0
   59.2860   34.3580   44.1170 O   0  0  0  0  0  0  0  0  0  0  0  0
   57.8720   32.1380   44.4930 C   0  0  0  0  0  0  0  0  0  0  0  0
   57.8820   30.9820   45.2890 C   0  0  0  0  0  0  0  0  0  0  0  0
   58.2205   31.0370   46.3342 H   0  0  0  0  0  0  0  0  0  0  0  0
   57.4620   29.7610   44.7540 C   0  0  0  0  0  0  0  0  0  0  0  0
   57.4698   28.8561   45.3794 H   0  0  0  0  0  0  0  0  0  0  0  0
   57.0320   29.6870   43.4260 C   0  0  0  0  0  0  0  0  0  0  0  0
   56.7007   28.7250   43.0079 H   0  0  0  0  0  0  0  0  0  0  0  0
   57.0230   30.8360   42.6290 C   0  0  0  0  0  0  0  0  0  0  0  0
   56.6859   30.7778   41.5835 H   0  0  0  0  0  0  0  0  0  0  0  0
   57.4430   32.0600   43.1620 C   0  0  0  0  0  0  0  0  0  0  0  0
   57.4362   32.9631   42.5340 H   0  0  0  0  0  0  0  0  0  0  0  0
   60.7100   33.5050   46.6260 C   0  0  0  0  0  0  0  0  0  0  0  0
   61.2274   33.8149   45.7061 H   0  0  0  0  0  0  0  0  0  0  0  0
   61.4480   33.2290   47.7810 C   0  0  0  0  0  0  0  0  0  0  0  0
   62.8540   33.3020   47.8020 C   0  0  0  0  0  0  0  0  0  0  0  0
   63.4750   33.6360   46.7520 O   0  0  0  0  0  0  0  0  0  0  0  0
   63.5450   33.0080   48.9520 N   0  0  0  0  0  0  0  0  0  0  0  0
   64.9160   33.0770   48.9800 C   0  0  0  0  0  0  0  0  0  0  0  0
   65.4626   33.3725   48.0723 H   0  0  0  0  0  0  0  0  0  0  0  0
   65.6250   32.7780   50.1420 C   0  0  0  0  0  0  0  0  0  0  0  0
   66.7234   32.8360   50.1495 H   0  0  0  0  0  0  0  0  0  0  0  0
   64.9370   32.4060   51.2920 C   0  0  0  0  0  0  0  0  0  0  0  0
   65.4911   32.1692   52.2123 H   0  0  0  0  0  0  0  0  0  0  0  0
   63.5400   32.3330   51.2780 C   0  0  0  0  0  0  0  0  0  0  0  0
   62.7920   31.9320   52.5200 C   0  0  0  0  0  0  0  0  0  0  0  0
   63.3643   32.2388   53.4079 H   0  0  0  0  0  0  0  0  0  0  0  0
   61.8080   32.4235   52.5302 H   0  0  0  0  0  0  0  0  0  0  0  0
   62.6567   30.8404   52.5302 H   0  0  0  0  0  0  0  0  0  0  0  0
   62.8530   32.6430   50.0870 C   0  0  0  0  0  0  0  0  0  0  0  0
   61.4970   32.5790   50.0650 N   0  0  0  0  0  0  0  0  0  0  0  0
   60.7680   32.8630   48.9540 C   0  0  0  0  0  0  0  0  0  0  0  0
   59.3920   32.7840   48.9800 N   0  0  0  0  0  0  0  0  0  0  0  0
   58.7220   32.4320   50.2540 C   0  0  0  0  0  0  0  0  0  0  0  0
   59.3216   32.8117   51.0944 H   0  0  0  0  0  0  0  0  0  0  0  0
   57.7202   32.8863   50.2646 H   0  0  0  0  0  0  0  0  0  0  0  0
   58.5760   30.9130   50.3860 C   0  0  0  0  0  0  0  0  0  0  0  0
   58.5488   30.4624   49.3829 H   0  0  0  0  0  0  0  0  0  0  0  0
   59.4324   30.5189   50.9527 H   0  0  0  0  0  0  0  0  0  0  0  0
   57.3820   30.5930   51.0740 O   0  0  0  0  0  0  0  0  0  0  0  0
   57.0150   31.6480   51.9370 C   0  0  0  0  0  0  0  0  0  0  0  0
   57.1280   31.3232   52.9819 H   0  0  0  0  0  0  0  0  0  0  0  0
   57.6638   32.5166   51.7508 H   0  0  0  0  0  0  0  0  0  0  0  0
   55.9672   31.9264   51.7508 H   0  0  0  0  0  0  0  0  0  0  0  0
  1  2  1  0
  2  3  2  0
  3  4  1  0
  4  5  1  0
  5  6  2  0
  5  7  2  0
  5  8  1  0
  8  9  2  0
  9 10  1  0
  9 11  1  0
 11 12  1  0
 11 13  2  0
 13 14  1  0
 13 15  1  0
 15 16  1  0
 15 17  2  0
 17 18  1  0
  4 19  2  0
 19 20  1  0
 19 21  1  0
 21 22  1  0
 22 23  2  0
 22 24  1  0
 24 25  1  0
 25 26  1  0
 25 27  2  0
 27 28  1  0
 27 29  1  0
 29 30  1  0
 29 31  2  0
 31 32  1  0
 32 33  1  0
 32 34  1  0
 32 35  1  0
 31 36  1  0
 36 37  2  0
 37 38  1  0
 38 39  1  0
 39 40  1  0
 40 41  1  0
 40 42  1  0
 40 43  1  0
 43 44  1  0
 43 45  1  0
 43 46  1  0
 46 47  1  0
 47 48  1  0
 47 49  1  0
 47 50  1  0
 39  3  1  0
 17  8  1  0
 38 21  2  0
 36 24  1  0
M  END
>  <UniqueID>  (33) 
32

>  <SMILES>  (33) 
[H]/N=c1/c(S(=O)(=O)c2ccccc2)cc2c(=O)n3cccc(C)c3nc2n1CCOC

>  <Energy>  (33) 
74.4674751261533

>  <Genealogy>  (33) 
[H]/N=c1/c(S(=O)(=O)c2ccccc2)cc2c(=O)n3cccc(C)c3nc2n1CCOC (cis-trans isomerization)
[H]/N=c1/c(S(=O)(=O)c2ccccc2)cc2c(=O)n3cccc(C)c3nc2n1CCOC (3D coordinates assigned)
[H]/N=c1/c(S(=O)(=O)c2ccccc2)cc2c(=O)n3cccc(C)c3nc2n1CCOC (optimized conformer: 74.4674751261533 kcal/mol)

>  <smiles>  (33) 
COCCn1c(=N)c(S(=O)(=O)c2ccccc2)cc2c(=O)n3cccc(C)c3nc21

>  <score_type>  (33) 
oracle

>  <origin>  (33) 
adg

>  <m_score__min__energy>  (33) 
-8.0600000000000005

>  <m_primary>  (33) 
energy

$$$$
33:0
     RDKit          3D

 27 27  0  0  0  0  0  0  0  0999 V2000
   55.9362   25.4416   46.2812 H   0  0  0  0  0  0  0  0  0  0  0  0
   56.5200   26.2960   45.9080 C   0  0  0  0  0  0  0  0  0  0  0  0
   55.8970   27.4690   45.6230 N   0  0  0  0  0  0  0  0  0  0  0  0
   56.5790   28.5570   45.1650 C   0  0  0  0  0  0  0  0  0  0  0  0
   55.9620   29.6700   44.8940 N   0  0  0  0  0  0  0  0  0  0  0  0
   56.5220   30.7730   44.1130 C   0  0  0  0  0  0  0  0  0  0  0  0
   57.0299   30.3621   43.2280 H   0  0  0  0  0  0  0  0  0  0  0  0
   55.6980   31.4396   43.8185 H   0  0  0  0  0  0  0  0  0  0  0  0
   57.5330   31.5910   44.9340 C   0  0  0  0  0  0  0  0  0  0  0  0
   57.1166   31.7458   45.9403 H   0  0  0  0  0  0  0  0  0  0  0  0
   58.4710   31.0165   44.9473 H   0  0  0  0  0  0  0  0  0  0  0  0
   57.8630   32.9690   44.3290 C   0  0  0  0  0  0  0  0  0  0  0  0
   58.9286   32.9780   44.0562 H   0  0  0  0  0  0  0  0  0  0  0  0
   57.1959   33.0983   43.4639 H   0  0  0  0  0  0  0  0  0  0  0  0
   57.5980   34.1560   45.2650 C   0  0  0  0  0  0  0  0  0  0  0  0
   57.2380   33.6780   46.5110 F   0  0  0  0  0  0  0  0  0  0  0  0
   58.7410   34.9210   45.4090 F   0  0  0  0  0  0  0  0  0  0  0  0
   56.5720   34.9450   44.7790 F   0  0  0  0  0  0  0  0  0  0  0  0
   57.9660   28.4790   44.9900 C   0  0  0  0  0  0  0  0  0  0  0  0
   58.5295   29.3515   44.6278 H   0  0  0  0  0  0  0  0  0  0  0  0
   58.6270   27.2850   45.2790 C   0  0  0  0  0  0  0  0  0  0  0  0
   59.7178   27.2175   45.1543 H   0  0  0  0  0  0  0  0  0  0  0  0
   57.9040   26.1710   45.7280 C   0  0  0  0  0  0  0  0  0  0  0  0
   58.6080   24.8950   46.0780 C   0  0  0  0  0  0  0  0  0  0  0  0
   58.6632   24.7949   47.1720 H   0  0  0  0  0  0  0  0  0  0  0  0
   58.0523   24.0429   45.6594 H   0  0  0  0  0  0  0  0  0  0  0  0
   59.6251   24.9107   45.6594 H   0  0  0  0  0  0  0  0  0  0  0  0
  1  2  1  0
  2  3  1  0
  3  4  1  0
  4  5  2  0
  5  6  1  0
  6  7  1  0
  6  8  1  0
  6  9  1  0
  9 10  1  0
  9 11  1  0
  9 12  1  0
 12 13  1  0
 12 14  1  0
 12 15  1  0
 15 16  1  0
 15 17  1  0
 15 18  1  0
  4 19  1  0
 19 20  1  0
 19 21  2  0
 21 22  1  0
 21 23  1  0
 23 24  1  0
 24 25  1  0
 24 26  1  0
 24 27  1  0
 23  2  2  0
M  CHG  1   3  -1
M  END
>  <UniqueID>  (34) 
33

>  <SMILES>  (34) 
Cc1cc/c(=N/CCCC(F)(F)F)[n-]c1

>  <Energy>  (34) 
21.379481702714607

>  <Genealogy>  (34) 
Cc1ccc(=NCCCC(F)(F)F)[n-]c1 (protonated)
Cc1cc/c(=N/CCCC(F)(F)F)[n-]c1 (cis-trans isomerization)
Cc1cc/c(=N/CCCC(F)(F)F)[n-]c1 (3D coordinates assigned)
Cc1cc/c(=N/CCCC(F)(F)F)[n-]c1 (optimized conformer: 21.379481702714607 kcal/mol)

>  <smiles>  (34) 
Cc1ccc(=NCCCC(F)(F)F)[nH]c1

>  <score_type>  (34) 
oracle

>  <origin>  (34) 
adg

>  <m_score__min__energy>  (34) 
-6.6299999999999999

>  <m_primary>  (34) 
energy

$$$$
34:0
     RDKit          3D

 38 40  0  0  0  0  0  0  0  0999 V2000
   57.0420   34.2430   45.3270 C   0  0  0  0  0  0  0  0  0  0  0  0
   57.8170   32.9680   45.4120 C   0  0  0  0  0  0  0  0  0  0  0  0
   57.4450   31.8990   44.6460 N   0  0  0  0  0  0  0  0  0  0  0  0
   58.1560   30.7530   44.7600 C   0  0  0  0  0  0  0  0  0  0  0  0
   59.2090   30.6300   45.6040 C   0  0  0  0  0  0  0  0  0  0  0  0
   59.6150   29.3120   45.4800 C   0  0  0  0  0  0  0  0  0  0  0  0
   58.8080   28.6970   44.5790 N   0  0  0  0  0  0  0  0  0  0  0  0
   57.9270   29.5890   44.1350 N   0  0  0  0  0  0  0  0  0  0  0  0
   56.8440   29.2820   43.2040 C   0  0  0  0  0  0  0  0  0  0  0  0
   55.5120   29.7860   43.7510 C   0  0  0  0  0  0  0  0  0  0  0  0
   55.1460   29.0520   44.8640 F   0  0  0  0  0  0  0  0  0  0  0  0
   59.6170   31.7120   46.3840 C   0  0  0  0  0  0  0  0  0  0  0  0
   60.8010   31.6250   47.3300 C   0  0  0  0  0  0  0  0  0  0  0  0
   61.3380   32.9350   47.7760 N   0  0  0  0  0  0  0  0  0  0  0  0
   62.4960   32.8340   48.6720 C   0  0  0  0  0  0  0  0  0  0  0  0
   63.7480   33.0730   47.8410 C   0  0  0  0  0  0  0  0  0  0  0  0
   63.2710   33.7540   46.5690 C   0  0  0  0  0  0  0  0  0  0  0  0
   61.7510   33.8160   46.6770 C   0  0  0  0  0  0  0  0  0  0  0  0
   58.8800   32.8650   46.2810 N   0  0  0  0  0  0  0  0  0  0  0  0
   56.8212   34.6062   46.3416 H   0  0  0  0  0  0  0  0  0  0  0  0
   57.6347   34.9971   44.7884 H   0  0  0  0  0  0  0  0  0  0  0  0
   56.0997   34.0641   44.7884 H   0  0  0  0  0  0  0  0  0  0  0  0
   60.4504   28.8429   46.0204 H   0  0  0  0  0  0  0  0  0  0  0  0
   57.0469   29.7693   42.2389 H   0  0  0  0  0  0  0  0  0  0  0  0
   56.7855   28.1914   43.0726 H   0  0  0  0  0  0  0  0  0  0  0  0
   55.6111   30.8453   44.0305 H   0  0  0  0  0  0  0  0  0  0  0  0
   54.7394   29.6735   42.9761 H   0  0  0  0  0  0  0  0  0  0  0  0
   60.4863   31.0626   48.2214 H   0  0  0  0  0  0  0  0  0  0  0  0
   61.6098   31.1329   46.7699 H   0  0  0  0  0  0  0  0  0  0  0  0
   62.4228   33.5925   49.4653 H   0  0  0  0  0  0  0  0  0  0  0  0
   62.5315   31.8412   49.1443 H   0  0  0  0  0  0  0  0  0  0  0  0
   64.4508   33.7223   48.3837 H   0  0  0  0  0  0  0  0  0  0  0  0
   64.2785   32.1338   47.6253 H   0  0  0  0  0  0  0  0  0  0  0  0
   63.6917   34.7678   46.4962 H   0  0  0  0  0  0  0  0  0  0  0  0
   63.5914   33.2055   45.6710 H   0  0  0  0  0  0  0  0  0  0  0  0
   61.4334   34.8481   46.8865 H   0  0  0  0  0  0  0  0  0  0  0  0
   61.2874   33.4928   45.7333 H   0  0  0  0  0  0  0  0  0  0  0  0
   59.1150   33.6850   46.8830 H   0  0  0  0  0  0  0  0  0  0  0  0
  1  2  1  0
  2  3  2  0
  3  4  1  0
  4  5  2  0
  5  6  1  0
  6  7  2  0
  7  8  1  0
  8  9  1  0
  9 10  1  0
 10 11  1  0
  5 12  1  0
 12 13  1  0
 13 14  1  0
 14 15  1  0
 15 16  1  0
 16 17  1  0
 17 18  1  0
 12 19  2  0
 19  2  1  0
  8  4  1  0
 18 14  1  0
  1 20  1  0
  1 21  1  0
  1 22  1  0
  6 23  1  0
  9 24  1  0
  9 25  1  0
 10 26  1  0
 10 27  1  0
 13 28  1  0
 13 29  1  0
 15 30  1  0
 15 31  1  0
 16 32  1  0
 16 33  1  0
 17 34  1  0
 17 35  1  0
 18 36  1  0
 18 37  1  0
 19 38  1  0
M  CHG  1  19   1
M  END
>  <UniqueID>  (35) 
34

>  <SMILES>  (35) 
Cc1nc2c(cnn2CCF)c(CN2CCCC2)[nH+]1

>  <Energy>  (35) 
80.39575816921828

>  <Genealogy>  (35) 
Cc1nc2c(cnn2CCF)c(CN2CCCC2)[nH+]1 (protonated)
Cc1nc2c(cnn2CCF)c(CN2CCCC2)[nH+]1 (3D coordinates assigned)
Cc1nc2c(cnn2CCF)c(CN2CCCC2)[nH+]1 (nonaromatic ring conformer: 80.39575816921828 kcal/mol)

>  <smiles>  (35) 
Cc1nc(CN2CCCC2)c2cnn(CCF)c2n1

>  <score_type>  (35) 
oracle

>  <origin>  (35) 
adg

>  <m_score__min__energy>  (35) 
-5.0300000000000002

>  <m_primary>  (35) 
energy

$$$$
35:0
     RDKit          3D

 29 31  0  0  0  0  0  0  0  0999 V2000
   55.1550   30.0770   43.8010 C   0  0  0  0  0  0  0  0  0  0  0  0
   56.3350   29.7070   42.9110 C   0  0  0  0  0  0  0  0  0  0  0  0
   57.4890   29.2190   43.7380 C   0  0  0  0  0  0  0  0  0  0  0  0
   57.7940   27.9020   43.8880 N   0  0  0  0  0  0  0  0  0  0  0  0
   58.7290   27.9100   44.8510 C   0  0  0  0  0  0  0  0  0  0  0  0
   59.5430   26.6880   45.6570 S   0  0  0  0  0  0  0  0  0  0  0  0
   60.3290   27.8340   46.6660 C   0  0  0  0  0  0  0  0  0  0  0  0
   59.9010   29.1280   46.3310 C   0  0  0  0  0  0  0  0  0  0  0  0
   59.0120   29.1080   45.3150 N   0  0  0  0  0  0  0  0  0  0  0  0
   58.2560   29.9800   44.6330 C   0  0  0  0  0  0  0  0  0  0  0  0
   58.1700   31.4220   44.9110 C   0  0  0  0  0  0  0  0  0  0  0  0
   58.2080   32.0890   46.4530 S   0  0  0  0  0  0  0  0  0  0  0  0
   58.0840   33.6940   45.9680 C   0  0  0  0  0  0  0  0  0  0  0  0
   58.0250   33.7270   44.5810 C   0  0  0  0  0  0  0  0  0  0  0  0
   58.0840   32.4600   43.9810 C   0  0  0  0  0  0  0  0  0  0  0  0
   58.1020   32.2860   42.4920 C   0  0  0  0  0  0  0  0  0  0  0  0
   55.4491   29.9848   44.8569 H   0  0  0  0  0  0  0  0  0  0  0  0
   54.8507   31.1137   43.5943 H   0  0  0  0  0  0  0  0  0  0  0  0
   54.3133   29.3997   43.5943 H   0  0  0  0  0  0  0  0  0  0  0  0
   56.0276   28.9125   42.2151 H   0  0  0  0  0  0  0  0  0  0  0  0
   56.6518   30.6005   42.3530 H   0  0  0  0  0  0  0  0  0  0  0  0
   57.3580   27.0760   43.4190 H   0  0  0  0  0  0  0  0  0  0  0  0
   61.0567   27.5910   47.4543 H   0  0  0  0  0  0  0  0  0  0  0  0
   60.2465   30.0436   46.8332 H   0  0  0  0  0  0  0  0  0  0  0  0
   58.0546   34.5682   46.6351 H   0  0  0  0  0  0  0  0  0  0  0  0
   57.9398   34.6606   44.0056 H   0  0  0  0  0  0  0  0  0  0  0  0
   58.2124   31.2189   42.2488 H   0  0  0  0  0  0  0  0  0  0  0  0
   57.1600   32.6633   42.0673 H   0  0  0  0  0  0  0  0  0  0  0  0
   58.9468   32.8481   42.0673 H   0  0  0  0  0  0  0  0  0  0  0  0
  1  2  1  0
  2  3  1  0
  3  4  1  0
  4  5  2  0
  5  6  1  0
  6  7  1  0
  7  8  2  0
  8  9  1  0
  9 10  1  0
 10 11  1  0
 11 12  1  0
 12 13  1  0
 13 14  2  0
 14 15  1  0
 15 16  1  0
 10  3  2  0
 15 11  2  0
  9  5  1  0
  1 17  1  0
  1 18  1  0
  1 19  1  0
  2 20  1  0
  2 21  1  0
  4 22  1  0
  7 23  1  0
  8 24  1  0
 13 25  1  0
 14 26  1  0
 16 27  1  0
 16 28  1  0
 16 29  1  0
M  CHG  1   4   1
M  END
>  <UniqueID>  (36) 
35

>  <SMILES>  (36) 
CCc1[nH+]c2sccn2c1-c1sccc1C

>  <Energy>  (36) 
137.58999569315387

>  <Genealogy>  (36) 
CCc1[nH+]c2sccn2c1-c1sccc1C (protonated)
CCc1[nH+]c2sccn2c1-c1sccc1C (3D coordinates assigned)
CCc1[nH+]c2sccn2c1-c1sccc1C (optimized conformer: 137.58999569315387 kcal/mol)

>  <smiles>  (36) 
CCc1nc2sccn2c1-c1sccc1C

>  <score_type>  (36) 
oracle

>  <origin>  (36) 
adg

>  <m_score__min__energy>  (36) 
-4.9199999999999999

>  <m_primary>  (36) 
energy

$$$$
36:0
     RDKit          3D

 55 56  0  0  0  0  0  0  0  0999 V2000
   63.3140   33.7810   46.7130 C   0  0  0  0  0  0  0  0  0  0  0  0
   61.9170   33.1760   46.7910 C   0  0  0  0  0  0  0  0  0  0  0  0
   60.8400   34.2290   46.5000 C   0  0  0  0  0  0  0  0  0  0  0  0
   59.6200   34.0910   47.4180 C   0  0  0  0  0  0  0  0  0  0  0  0
   58.8950   32.8260   47.1280 N   0  0  0  0  0  0  0  0  0  0  0  0
   58.5250   32.1090   48.3700 C   0  0  0  0  0  0  0  0  0  0  0  0
   58.8280   30.6090   48.2260 C   0  0  0  0  0  0  0  0  0  0  0  0
   59.9990   30.1530   49.1090 C   0  0  0  0  0  0  0  0  0  0  0  0
   61.3610   30.4530   48.4820 C   0  0  0  0  0  0  0  0  0  0  0  0
   57.7140   33.0540   46.2640 C   0  0  0  0  0  0  0  0  0  0  0  0
   58.1030   32.9290   44.7860 C   0  0  0  0  0  0  0  0  0  0  0  0
   57.4110   31.7300   44.1290 C   0  0  0  0  0  0  0  0  0  0  0  0
   57.8760   30.4790   44.7390 N   0  0  0  0  0  0  0  0  0  0  0  0
   59.2670   30.3510   45.1900 C   0  0  0  0  0  0  0  0  0  0  0  0
   59.7970   28.9410   44.9020 C   0  0  0  0  0  0  0  0  0  0  0  0
   58.8710   27.8870   45.4600 C   0  0  0  0  0  0  0  0  0  0  0  0
   59.3820   26.6430   45.8600 C   0  0  0  0  0  0  0  0  0  0  0  0
   58.5220   25.6420   46.3190 C   0  0  0  0  0  0  0  0  0  0  0  0
   57.1450   25.8680   46.3660 C   0  0  0  0  0  0  0  0  0  0  0  0
   56.6200   27.0960   45.9540 C   0  0  0  0  0  0  0  0  0  0  0  0
   57.4780   28.1110   45.4950 C   0  0  0  0  0  0  0  0  0  0  0  0
   56.9520   29.4200   45.0520 C   0  0  0  0  0  0  0  0  0  0  0  0
   55.7080   29.6030   44.9390 O   0  0  0  0  0  0  0  0  0  0  0  0
   63.6987   33.9476   47.7300 H   0  0  0  0  0  0  0  0  0  0  0  0
   63.9826   33.0918   46.1764 H   0  0  0  0  0  0  0  0  0  0  0  0
   63.2688   34.7402   46.1764 H   0  0  0  0  0  0  0  0  0  0  0  0
   61.8352   32.3653   46.0521 H   0  0  0  0  0  0  0  0  0  0  0  0
   61.7608   32.7897   47.8090 H   0  0  0  0  0  0  0  0  0  0  0  0
   61.2767   35.2286   46.6417 H   0  0  0  0  0  0  0  0  0  0  0  0
   60.4979   34.0798   45.4652 H   0  0  0  0  0  0  0  0  0  0  0  0
   59.9536   34.0857   48.4662 H   0  0  0  0  0  0  0  0  0  0  0  0
   58.9425   34.9395   47.2418 H   0  0  0  0  0  0  0  0  0  0  0  0
   59.1034   32.5176   49.2117 H   0  0  0  0  0  0  0  0  0  0  0  0
   57.4488   32.2421   48.5548 H   0  0  0  0  0  0  0  0  0  0  0  0
   57.9306   30.0399   48.5103 H   0  0  0  0  0  0  0  0  0  0  0  0
   59.1110   30.4264   47.1788 H   0  0  0  0  0  0  0  0  0  0  0  0
   59.9342   30.6732   50.0760 H   0  0  0  0  0  0  0  0  0  0  0  0
   59.9206   29.0623   49.2285 H   0  0  0  0  0  0  0  0  0  0  0  0
   62.1029   30.6164   49.2775 H   0  0  0  0  0  0  0  0  0  0  0  0
   61.6731   29.6021   47.8587 H   0  0  0  0  0  0  0  0  0  0  0  0
   61.2868   31.3563   47.8587 H   0  0  0  0  0  0  0  0  0  0  0  0
   56.9420   32.3069   46.5004 H   0  0  0  0  0  0  0  0  0  0  0  0
   57.3271   34.0672   46.4474 H   0  0  0  0  0  0  0  0  0  0  0  0
   57.8066   33.8475   44.2583 H   0  0  0  0  0  0  0  0  0  0  0  0
   59.1910   32.7794   44.7242 H   0  0  0  0  0  0  0  0  0  0  0  0
   56.3232   31.8185   44.2660 H   0  0  0  0  0  0  0  0  0  0  0  0
   57.6550   31.7185   43.0565 H   0  0  0  0  0  0  0  0  0  0  0  0
   59.8889   31.0870   44.6593 H   0  0  0  0  0  0  0  0  0  0  0  0
   59.3077   30.5320   46.2742 H   0  0  0  0  0  0  0  0  0  0  0  0
   59.8821   28.8046   43.8138 H   0  0  0  0  0  0  0  0  0  0  0  0
   60.7800   28.8324   45.3836 H   0  0  0  0  0  0  0  0  0  0  0  0
   60.4647   26.4549   45.8120 H   0  0  0  0  0  0  0  0  0  0  0  0
   58.9307   24.6738   46.6440 H   0  0  0  0  0  0  0  0  0  0  0  0
   56.4715   25.0774   46.7283 H   0  0  0  0  0  0  0  0  0  0  0  0
   55.5342   27.2687   45.9889 H   0  0  0  0  0  0  0  0  0  0  0  0
  1  2  1  0
  2  3  1  0
  3  4  1  0
  4  5  1  0
  5  6  1  0
  6  7  1  0
  7  8  1  0
  8  9  1  0
  5 10  1  0
 10 11  1  0
 11 12  1  0
 12 13  1  0
 13 14  1  0
 14 15  1  0
 15 16  1  0
 16 17  2  0
 17 18  1  0
 18 19  2  0
 19 20  1  0
 20 21  2  0
 21 22  1  0
 22 23  2  0
 22 13  1  0
 21 16  1  0
  1 24  1  0
  1 25  1  0
  1 26  1  0
  2 27  1  0
  2 28  1  0
  3 29  1  0
  3 30  1  0
  4 31  1  0
  4 32  1  0
  6 33  1  0
  6 34  1  0
  7 35  1  0
  7 36  1  0
  8 37  1  0
  8 38  1  0
  9 39  1  0
  9 40  1  0
  9 41  1  0
 10 42  1  0
 10 43  1  0
 11 44  1  0
 11 45  1  0
 12 46  1  0
 12 47  1  0
 14 48  1  0
 14 49  1  0
 15 50  1  0
 15 51  1  0
 17 52  1  0
 18 53  1  0
 19 54  1  0
 20 55  1  0
M  END
>  <UniqueID>  (37) 
36

>  <SMILES>  (37) 
CCCCN(CCCC)CCCN1CCc2ccccc2C1=O

>  <Energy>  (37) 
42.08011291723694

>  <Genealogy>  (37) 
CCCCN(CCCC)CCCN1CCc2ccccc2C1=O (3D coordinates assigned)
CCCCN(CCCC)CCCN1CCc2ccccc2C1=O (nonaromatic ring conformer: 42.08011291723694 kcal/mol)

>  <smiles>  (37) 
CCCCN(CCCC)CCCN1CCc2ccccc2C1=O

>  <score_type>  (37) 
oracle

>  <origin>  (37) 
adg

>  <m_score__min__energy>  (37) 
-6.8499999999999996

>  <m_primary>  (37) 
energy

$$$$
37:0
     RDKit          3D

 38 39  0  0  0  0  0  0  0  0999 V2000
   55.5630   24.9240   45.6680 C   0  0  0  0  0  0  0  0  0  0  0  0
   55.5270   26.3070   46.0040 O   0  0  0  0  0  0  0  0  0  0  0  0
   56.6050   27.1900   45.8440 C   0  0  0  0  0  0  0  0  0  0  0  0
   57.8640   26.7880   46.2950 C   0  0  0  0  0  0  0  0  0  0  0  0
   58.9700   27.6280   46.1570 C   0  0  0  0  0  0  0  0  0  0  0  0
   58.8340   28.8980   45.5630 C   0  0  0  0  0  0  0  0  0  0  0  0
   59.9320   29.7570   45.3950 O   0  0  0  0  0  0  0  0  0  0  0  0
   60.8470   30.1120   46.4270 C   0  0  0  0  0  0  0  0  0  0  0  0
   57.5630   29.3150   45.1220 C   0  0  0  0  0  0  0  0  0  0  0  0
   57.3440   30.9010   44.3710 S   0  0  0  0  0  0  0  0  0  0  0  0
   55.9010   31.2980   44.5110 O   0  0  0  0  0  0  0  0  0  0  0  0
   57.7010   30.8310   42.9100 O   0  0  0  0  0  0  0  0  0  0  0  0
   58.3610   32.0840   45.1590 N   0  0  0  0  0  0  0  0  0  0  0  0
   58.1690   33.4070   44.5410 C   0  0  0  0  0  0  0  0  0  0  0  0
   59.2350   34.3930   45.0560 C   0  0  0  0  0  0  0  0  0  0  0  0
   59.7700   34.0040   46.4450 C   0  0  0  0  0  0  0  0  0  0  0  0
   58.6710   33.3630   47.3000 C   0  0  0  0  0  0  0  0  0  0  0  0
   58.0530   32.1300   46.6040 C   0  0  0  0  0  0  0  0  0  0  0  0
   56.4610   28.4560   45.2480 C   0  0  0  0  0  0  0  0  0  0  0  0
   55.5786   24.3231   46.5893 H   0  0  0  0  0  0  0  0  0  0  0  0
   54.6712   24.6668   45.0776 H   0  0  0  0  0  0  0  0  0  0  0  0
   56.4669   24.7135   45.0776 H   0  0  0  0  0  0  0  0  0  0  0  0
   57.9852   25.8001   46.7634 H   0  0  0  0  0  0  0  0  0  0  0  0
   59.9556   27.2957   46.5149 H   0  0  0  0  0  0  0  0  0  0  0  0
   60.3819   29.9316   47.4074 H   0  0  0  0  0  0  0  0  0  0  0  0
   61.7578   29.5020   46.3353 H   0  0  0  0  0  0  0  0  0  0  0  0
   61.1080   31.1766   46.3353 H   0  0  0  0  0  0  0  0  0  0  0  0
   58.2571   33.3142   43.4485 H   0  0  0  0  0  0  0  0  0  0  0  0
   57.1709   33.7860   44.8057 H   0  0  0  0  0  0  0  0  0  0  0  0
   60.0746   34.4086   44.3455 H   0  0  0  0  0  0  0  0  0  0  0  0
   58.7629   35.3827   45.1431 H   0  0  0  0  0  0  0  0  0  0  0  0
   60.5954   33.2869   46.3242 H   0  0  0  0  0  0  0  0  0  0  0  0
   60.1205   34.9150   46.9521 H   0  0  0  0  0  0  0  0  0  0  0  0
   59.1041   33.0500   48.2615 H   0  0  0  0  0  0  0  0  0  0  0  0
   57.8750   34.1072   47.4503 H   0  0  0  0  0  0  0  0  0  0  0  0
   58.4501   31.2206   47.0788 H   0  0  0  0  0  0  0  0  0  0  0  0
   56.9603   32.1973   46.7116 H   0  0  0  0  0  0  0  0  0  0  0  0
   55.4757   28.7753   44.8775 H   0  0  0  0  0  0  0  0  0  0  0  0
  1  2  1  0
  2  3  1  0
  3  4  2  0
  4  5  1  0
  5  6  2  0
  6  7  1  0
  7  8  1  0
  6  9  1  0
  9 10  1  0
 10 11  2  0
 10 12  2  0
 10 13  1  0
 13 14  1  0
 14 15  1  0
 15 16  1  0
 16 17  1  0
 17 18  1  0
  9 19  2  0
 19  3  1  0
 18 13  1  0
  1 20  1  0
  1 21  1  0
  1 22  1  0
  4 23  1  0
  5 24  1  0
  8 25  1  0
  8 26  1  0
  8 27  1  0
 14 28  1  0
 14 29  1  0
 15 30  1  0
 15 31  1  0
 16 32  1  0
 16 33  1  0
 17 34  1  0
 17 35  1  0
 18 36  1  0
 18 37  1  0
 19 38  1  0
M  END
>  <UniqueID>  (38) 
37

>  <SMILES>  (38) 
COc1ccc(OC)c(S(=O)(=O)N2CCCCC2)c1

>  <Energy>  (38) 
38.82998857540595

>  <Genealogy>  (38) 
COc1ccc(OC)c(S(=O)(=O)N2CCCCC2)c1 (3D coordinates assigned)
COc1ccc(OC)c(S(=O)(=O)N2CCCCC2)c1 (nonaromatic ring conformer: 38.82998857540595 kcal/mol)

>  <smiles>  (38) 
COc1ccc(OC)c(S(=O)(=O)N2CCCCC2)c1

>  <score_type>  (38) 
oracle

>  <origin>  (38) 
adg

>  <m_score__min__energy>  (38) 
-6.8399999999999999

>  <m_primary>  (38) 
energy

$$$$
38:0
     RDKit          3D

 45 48  0  0  0  0  0  0  0  0999 V2000
   58.9110   32.7000   49.8390 C   0  0  0  0  0  0  0  0  0  0  0  0
   59.5870   33.8520   49.3510 O   0  0  0  0  0  0  0  0  0  0  0  0
   60.8350   33.7910   48.7210 C   0  0  0  0  0  0  0  0  0  0  0  0
   61.9780   33.9270   49.4520 N   0  0  0  0  0  0  0  0  0  0  0  0
   63.2110   33.8480   48.8860 C   0  0  0  0  0  0  0  0  0  0  0  0
   63.3370   33.6160   47.5180 C   0  0  0  0  0  0  0  0  0  0  0  0
   62.1870   33.4750   46.7400 C   0  0  0  0  0  0  0  0  0  0  0  0
   60.9170   33.5690   47.3310 C   0  0  0  0  0  0  0  0  0  0  0  0
   59.6990   33.4310   46.4950 C   0  0  0  0  0  0  0  0  0  0  0  0
   59.0600   34.5660   45.9730 C   0  0  0  0  0  0  0  0  0  0  0  0
   57.9170   34.4310   45.1820 C   0  0  0  0  0  0  0  0  0  0  0  0
   57.4080   33.1630   44.8940 C   0  0  0  0  0  0  0  0  0  0  0  0
   58.0470   32.0130   45.3870 C   0  0  0  0  0  0  0  0  0  0  0  0
   57.5150   30.6620   45.0850 C   0  0  0  0  0  0  0  0  0  0  0  0
   56.2860   30.5220   44.8460 O   0  0  0  0  0  0  0  0  0  0  0  0
   58.3650   29.5090   45.0070 N   0  0  0  0  0  0  0  0  0  0  0  0
   57.9310   28.1430   44.9230 C   0  0  0  0  0  0  0  0  0  0  0  0
   57.2790   27.5720   46.0210 C   0  0  0  0  0  0  0  0  0  0  0  0
   56.8520   26.2410   45.9770 C   0  0  0  0  0  0  0  0  0  0  0  0
   57.0710   25.4670   44.8270 C   0  0  0  0  0  0  0  0  0  0  0  0
   56.6480   24.0230   44.7940 C   0  0  0  0  0  0  0  0  0  0  0  0
   56.4670   23.4350   43.4000 C   0  0  0  0  0  0  0  0  0  0  0  0
   57.6830   23.0600   44.2270 C   0  0  0  0  0  0  0  0  0  0  0  0
   57.7680   26.0240   43.7450 C   0  0  0  0  0  0  0  0  0  0  0  0
   58.1960   27.3530   43.7900 C   0  0  0  0  0  0  0  0  0  0  0  0
   59.1870   32.1560   46.1960 C   0  0  0  0  0  0  0  0  0  0  0  0
   58.9168   32.7099   50.9389 H   0  0  0  0  0  0  0  0  0  0  0  0
   57.8720   32.7040   49.4778 H   0  0  0  0  0  0  0  0  0  0  0  0
   59.4213   31.7949   49.4778 H   0  0  0  0  0  0  0  0  0  0  0  0
   64.1101   33.9673   49.5084 H   0  0  0  0  0  0  0  0  0  0  0  0
   64.3327   33.5447   47.0559 H   0  0  0  0  0  0  0  0  0  0  0  0
   62.2760   33.2895   45.6594 H   0  0  0  0  0  0  0  0  0  0  0  0
   59.4615   35.5673   46.1880 H   0  0  0  0  0  0  0  0  0  0  0  0
   57.4162   35.3262   44.7847 H   0  0  0  0  0  0  0  0  0  0  0  0
   56.5021   33.0640   44.2780 H   0  0  0  0  0  0  0  0  0  0  0  0
   57.1011   28.1736   46.9246 H   0  0  0  0  0  0  0  0  0  0  0  0
   56.3429   25.7994   46.8464 H   0  0  0  0  0  0  0  0  0  0  0  0
   56.0391   24.0655   45.7091 H   0  0  0  0  0  0  0  0  0  0  0  0
   55.6774   22.6917   43.2152 H   0  0  0  0  0  0  0  0  0  0  0  0
   56.3096   23.8528   42.3947 H   0  0  0  0  0  0  0  0  0  0  0  0
   57.7743   22.0450   44.6411 H   0  0  0  0  0  0  0  0  0  0  0  0
   58.7710   23.0938   44.0684 H   0  0  0  0  0  0  0  0  0  0  0  0
   57.9788   25.4111   42.8562 H   0  0  0  0  0  0  0  0  0  0  0  0
   58.7417   27.7827   42.9371 H   0  0  0  0  0  0  0  0  0  0  0  0
   59.6839   31.2614   46.5995 H   0  0  0  0  0  0  0  0  0  0  0  0
  1  2  1  0
  2  3  1  0
  3  4  2  0
  4  5  1  0
  5  6  2  0
  6  7  1  0
  7  8  2  0
  8  9  1  0
  9 10  2  0
 10 11  1  0
 11 12  2  0
 12 13  1  0
 13 14  1  0
 14 15  2  0
 14 16  1  0
 16 17  1  0
 17 18  2  0
 18 19  1  0
 19 20  2  0
 20 21  1  0
 21 22  1  0
 22 23  1  0
 20 24  1  0
 24 25  2  0
 13 26  2  0
  8  3  1  0
 26  9  1  0
 25 17  1  0
 23 21  1  0
  1 27  1  0
  1 28  1  0
  1 29  1  0
  5 30  1  0
  6 31  1  0
  7 32  1  0
 10 33  1  0
 11 34  1  0
 12 35  1  0
 18 36  1  0
 19 37  1  0
 21 38  1  0
 22 39  1  0
 22 40  1  0
 23 41  1  0
 23 42  1  0
 24 43  1  0
 25 44  1  0
 26 45  1  0
M  CHG  1  16  -1
M  END
>  <UniqueID>  (39) 
38

>  <SMILES>  (39) 
COc1ncccc1-c1cccc(C(=O)[N-]c2ccc(C3CC3)cc2)c1

>  <Energy>  (39) 
323.6818299133745

>  <Genealogy>  (39) 
COc1ncccc1-c1cccc(C(=O)[N-]c2ccc(C3CC3)cc2)c1 (protonated)
COc1ncccc1-c1cccc(C(=O)[N-]c2ccc(C3CC3)cc2)c1 (3D coordinates assigned)
COc1ncccc1-c1cccc(C(=O)[N-]c2ccc(C3CC3)cc2)c1 (nonaromatic ring conformer: 323.6818299133745 kcal/mol)

>  <smiles>  (39) 
COc1ncccc1-c1cccc(C(=O)Nc2ccc(C3CC3)cc2)c1

>  <score_type>  (39) 
oracle

>  <origin>  (39) 
adg

>  <m_score__min__energy>  (39) 
-9.8399999999999999

>  <m_primary>  (39) 
energy

$$$$
39:0
     RDKit          3D

 56 59  0  0  0  0  0  0  0  0999 V2000
   56.3319   32.3058   44.5288 H   0  0  0  0  0  0  0  0  0  0  0  0
   57.2970   32.0890   45.0100 C   0  0  0  0  0  0  0  0  0  0  0  0
   59.8030   34.5610   48.4920 C   0  0  0  0  0  0  0  0  0  0  0  0
   58.2320   33.5040   46.8580 C   0  0  0  0  0  0  0  0  0  0  0  0
   57.4380   33.0780   47.7390 O   0  0  0  0  0  0  0  0  0  0  0  0
   59.3240   34.4470   47.2340 C   0  0  0  0  0  0  0  0  0  0  0  0
   58.0390   33.1390   45.4240 C   0  0  0  0  0  0  0  0  0  0  0  0
   59.1830   35.1000   49.2235 H   0  0  0  0  0  0  0  0  0  0  0  0
   61.0930   34.0190   48.9620 C   0  0  0  0  0  0  0  0  0  0  0  0
   61.3420   33.8310   50.3300 C   0  0  0  0  0  0  0  0  0  0  0  0
   60.5718   34.0978   51.0687 H   0  0  0  0  0  0  0  0  0  0  0  0
   62.5650   33.3060   50.7580 C   0  0  0  0  0  0  0  0  0  0  0  0
   62.7533   33.1673   51.8329 H   0  0  0  0  0  0  0  0  0  0  0  0
   63.5560   32.9540   49.8250 C   0  0  0  0  0  0  0  0  0  0  0  0
   64.8260   32.4330   50.2700 N   0  0  0  0  0  0  0  0  0  0  0  0
   64.9060   31.1090   50.8990 C   0  0  0  0  0  0  0  0  0  0  0  0
   63.9893   30.9240   51.4782 H   0  0  0  0  0  0  0  0  0  0  0  0
   65.0124   30.3420   50.1178 H   0  0  0  0  0  0  0  0  0  0  0  0
   66.1190   31.0500   51.8340 C   0  0  0  0  0  0  0  0  0  0  0  0
   65.9498   31.7230   52.6875 H   0  0  0  0  0  0  0  0  0  0  0  0
   66.2458   30.0145   52.1828 H   0  0  0  0  0  0  0  0  0  0  0  0
   67.2960   31.4480   51.1550 O   0  0  0  0  0  0  0  0  0  0  0  0
   67.1970   32.8110   50.7870 C   0  0  0  0  0  0  0  0  0  0  0  0
   66.9853   33.4119   51.6837 H   0  0  0  0  0  0  0  0  0  0  0  0
   68.1488   33.1229   50.3322 H   0  0  0  0  0  0  0  0  0  0  0  0
   66.0740   33.0200   49.7660 C   0  0  0  0  0  0  0  0  0  0  0  0
   65.9289   34.0975   49.5985 H   0  0  0  0  0  0  0  0  0  0  0  0
   66.3486   32.5308   48.8198 H   0  0  0  0  0  0  0  0  0  0  0  0
   63.2860   33.1080   48.4530 C   0  0  0  0  0  0  0  0  0  0  0  0
   64.0449   32.8188   47.7111 H   0  0  0  0  0  0  0  0  0  0  0  0
   62.0600   33.6260   48.0260 C   0  0  0  0  0  0  0  0  0  0  0  0
   61.8528   33.7258   46.9503 H   0  0  0  0  0  0  0  0  0  0  0  0
   59.9610   35.2970   46.1560 C   0  0  0  0  0  0  0  0  0  0  0  0
   60.9559   34.8879   45.9261 H   0  0  0  0  0  0  0  0  0  0  0  0
   60.0254   36.3269   46.5369 H   0  0  0  0  0  0  0  0  0  0  0  0
   59.1330   35.3280   44.8680 C   0  0  0  0  0  0  0  0  0  0  0  0
   59.7014   35.8556   44.0879 H   0  0  0  0  0  0  0  0  0  0  0  0
   58.1856   35.8477   45.0735 H   0  0  0  0  0  0  0  0  0  0  0  0
   58.8160   33.9110   44.3840 C   0  0  0  0  0  0  0  0  0  0  0  0
   59.7587   33.3837   44.1760 H   0  0  0  0  0  0  0  0  0  0  0  0
   58.2026   33.9832   43.4738 H   0  0  0  0  0  0  0  0  0  0  0  0
   57.6840   30.6760   45.1550 C   0  0  0  0  0  0  0  0  0  0  0  0
   58.5570   30.2790   46.1810 C   0  0  0  0  0  0  0  0  0  0  0  0
   58.9618   31.0279   46.8776 H   0  0  0  0  0  0  0  0  0  0  0  0
   58.9130   28.9330   46.3190 C   0  0  0  0  0  0  0  0  0  0  0  0
   59.6070   28.6268   47.1156 H   0  0  0  0  0  0  0  0  0  0  0  0
   58.3860   27.9750   45.4430 C   0  0  0  0  0  0  0  0  0  0  0  0
   58.8530   26.2520   45.6140 S   0  0  0  0  0  0  0  0  0  0  0  0
   60.4120   26.6350   46.4700 C   0  0  0  0  0  0  0  0  0  0  0  0
   60.2523   26.5958   47.5576 H   0  0  0  0  0  0  0  0  0  0  0  0
   61.1774   25.8982   46.1850 H   0  0  0  0  0  0  0  0  0  0  0  0
   60.7489   27.6426   46.1850 H   0  0  0  0  0  0  0  0  0  0  0  0
   57.4910   28.3660   44.4380 C   0  0  0  0  0  0  0  0  0  0  0  0
   57.0669   27.6128   43.7576 H   0  0  0  0  0  0  0  0  0  0  0  0
   57.1360   29.7100   44.2980 C   0  0  0  0  0  0  0  0  0  0  0  0
   56.4254   30.0113   43.5142 H   0  0  0  0  0  0  0  0  0  0  0  0
  1  2  1  0
  2  3  2  0
  3  4  1  0
  4  5  2  0
  4  6  1  0
  6  7  2  0
  7  8  1  0
  7  9  1  0
  9 10  2  0
 10 11  1  0
 10 12  1  0
 12 13  1  0
 12 14  2  0
 14 15  1  0
 15 16  1  0
 16 17  1  0
 16 18  1  0
 16 19  1  0
 19 20  1  0
 19 21  1  0
 19 22  1  0
 22 23  1  0
 23 24  1  0
 23 25  1  0
 23 26  1  0
 26 27  1  0
 26 28  1  0
 14 29  1  0
 29 30  1  0
 29 31  2  0
 31 32  1  0
  6 33  1  0
 33 34  1  0
 33 35  1  0
 33 36  1  0
 36 37  1  0
 36 38  1  0
 36 39  1  0
 39 40  1  0
 39 41  1  0
  2 42  1  0
 42 43  2  0
 43 44  1  0
 43 45  1  0
 45 46  1  0
 45 47  2  0
 47 48  1  0
 48 49  1  0
 49 50  1  0
 49 51  1  0
 49 52  1  0
 47 53  1  0
 53 54  1  0
 53 55  2  0
 55 56  1  0
 39  3  1  0
 55 42  1  0
 31  9  1  0
 26 15  1  0
M  END
>  <UniqueID>  (40) 
39

>  <SMILES>  (40) 
CSc1ccc(/C=C2/CCC/C(=C/c3ccc(N4CCOCC4)cc3)C2=O)cc1

>  <Energy>  (40) 
76.08089762626254

>  <Genealogy>  (40) 
CSc1ccc(/C=C2/CCC/C(=C/c3ccc(N4CCOCC4)cc3)C2=O)cc1 (cis-trans isomerization)
CSc1ccc(/C=C2/CCC/C(=C/c3ccc(N4CCOCC4)cc3)C2=O)cc1 (3D coordinates assigned)
CSc1ccc(/C=C2/CCC/C(=C/c3ccc(N4CCOCC4)cc3)C2=O)cc1 (nonaromatic ring conformer: 76.08089762626254 kcal/mol)

>  <smiles>  (40) 
CSc1ccc(C=C2CCCC(=Cc3ccc(N4CCOCC4)cc3)C2=O)cc1

>  <score_type>  (40) 
oracle

>  <origin>  (40) 
adg

>  <m_score__min__energy>  (40) 
-9.6500000000000004

>  <m_primary>  (40) 
energy

$$$$
40:0
     RDKit          3D

 61 65  0  0  0  0  0  0  0  0999 V2000
   57.9770   25.9990   46.7120 C   0  0  0  0  0  0  0  0  0  0  0  0
   56.8790   26.0730   45.6520 C   0  0  0  0  0  0  0  0  0  0  0  0
   57.3990   25.6810   44.3300 N   0  0  0  0  0  0  0  0  0  0  0  0
   57.5450   24.2480   44.0140 C   0  0  0  0  0  0  0  0  0  0  0  0
   56.2740   23.7020   43.3750 C   0  0  0  0  0  0  0  0  0  0  0  0
   57.7810   26.6730   43.3440 C   0  0  0  0  0  0  0  0  0  0  0  0
   58.1390   26.3160   42.1890 O   0  0  0  0  0  0  0  0  0  0  0  0
   57.8070   28.1120   43.6560 C   0  0  0  0  0  0  0  0  0  0  0  0
   56.9250   29.0010   43.0210 C   0  0  0  0  0  0  0  0  0  0  0  0
   56.9470   30.3580   43.3480 C   0  0  0  0  0  0  0  0  0  0  0  0
   57.8520   30.8140   44.3160 C   0  0  0  0  0  0  0  0  0  0  0  0
   57.9050   32.1950   44.6620 N   0  0  0  0  0  0  0  0  0  0  0  0
   58.6140   33.4020   44.1950 C   0  0  0  0  0  0  0  0  0  0  0  0
   58.0290   34.3340   45.2170 C   0  0  2  0  0  0  0  0  0  0  0  0
   58.9690   34.7540   46.3480 C   0  0  0  0  0  0  0  0  0  0  0  0
   58.7970   33.7640   47.3950 N   0  0  0  0  0  0  0  0  0  0  0  0
   59.4700   33.8390   48.6600 C   0  0  0  0  0  0  0  0  0  0  0  0
   59.7910   34.9600   49.1380 O   0  0  0  0  0  0  0  0  0  0  0  0
   59.7900   32.6200   49.4190 C   0  0  0  0  0  0  0  0  0  0  0  0
   58.7890   32.0670   50.2310 C   0  0  0  0  0  0  0  0  0  0  0  0
   59.0360   30.8960   50.9560 C   0  0  0  0  0  0  0  0  0  0  0  0
   58.0580   30.3590   51.7240 F   0  0  0  0  0  0  0  0  0  0  0  0
   60.2810   30.2870   50.8990 C   0  0  0  0  0  0  0  0  0  0  0  0
   61.2890   30.8240   50.0890 C   0  0  0  0  0  0  0  0  0  0  0  0
   61.0600   31.9830   49.3220 C   0  0  0  0  0  0  0  0  0  0  0  0
   62.1200   32.5040   48.4800 N   0  0  0  0  0  0  0  0  0  0  0  0
   62.9380   31.7530   47.7560 N   0  0  0  0  0  0  0  0  0  0  0  0
   63.7570   32.6010   47.0980 C   0  0  0  0  0  0  0  0  0  0  0  0
   63.4030   33.8890   47.4400 C   0  0  0  0  0  0  0  0  0  0  0  0
   62.3770   33.7950   48.3030 N   0  0  0  0  0  0  0  0  0  0  0  0
   57.7850   32.7720   47.0820 C   0  0  0  0  0  0  0  0  0  0  0  0
   57.3100   33.1000   45.6670 C   0  0  2  0  0  0  0  0  0  0  0  0
   58.7030   29.9340   44.9240 N   0  0  0  0  0  0  0  0  0  0  0  0
   58.6900   28.6080   44.6290 C   0  0  0  0  0  0  0  0  0  0  0  0
   57.5226   26.0296   47.7133 H   0  0  0  0  0  0  0  0  0  0  0  0
   58.5390   25.0609   46.5929 H   0  0  0  0  0  0  0  0  0  0  0  0
   58.6598   26.8532   46.5929 H   0  0  0  0  0  0  0  0  0  0  0  0
   56.0604   25.3941   45.9331 H   0  0  0  0  0  0  0  0  0  0  0  0
   56.5149   27.1094   45.5940 H   0  0  0  0  0  0  0  0  0  0  0  0
   58.3847   24.1165   43.3158 H   0  0  0  0  0  0  0  0  0  0  0  0
   57.7338   23.6987   44.9481 H   0  0  0  0  0  0  0  0  0  0  0  0
   55.5686   23.3990   44.1627 H   0  0  0  0  0  0  0  0  0  0  0  0
   55.8135   24.4817   42.7505 H   0  0  0  0  0  0  0  0  0  0  0  0
   56.5225   22.8312   42.7505 H   0  0  0  0  0  0  0  0  0  0  0  0
   56.2170   28.6283   42.2661 H   0  0  0  0  0  0  0  0  0  0  0  0
   56.2620   31.0611   42.8517 H   0  0  0  0  0  0  0  0  0  0  0  0
   59.7071   33.3117   44.2788 H   0  0  0  0  0  0  0  0  0  0  0  0
   58.4920   33.6775   43.1371 H   0  0  0  0  0  0  0  0  0  0  0  0
   57.5961   35.3006   44.9200 H   0  0  0  0  0  0  0  0  0  0  0  0
   60.0113   34.7622   45.9964 H   0  0  0  0  0  0  0  0  0  0  0  0
   58.7401   35.7677   46.7085 H   0  0  0  0  0  0  0  0  0  0  0  0
   57.8059   32.5558   50.2982 H   0  0  0  0  0  0  0  0  0  0  0  0
   60.4767   29.3808   51.4910 H   0  0  0  0  0  0  0  0  0  0  0  0
   62.2731   30.3341   50.0511 H   0  0  0  0  0  0  0  0  0  0  0  0
   64.5655   32.3144   46.4093 H   0  0  0  0  0  0  0  0  0  0  0  0
   63.8707   34.8158   47.0762 H   0  0  0  0  0  0  0  0  0  0  0  0
   61.8900   34.5930   48.7700 H   0  0  0  0  0  0  0  0  0  0  0  0
   58.2154   31.7603   47.1175 H   0  0  0  0  0  0  0  0  0  0  0  0
   56.9560   32.7950   47.8047 H   0  0  0  0  0  0  0  0  0  0  0  0
   56.2112   33.1028   45.7174 H   0  0  0  0  0  0  0  0  0  0  0  0
   59.3719   27.9220   45.1528 H   0  0  0  0  0  0  0  0  0  0  0  0
  1  2  1  0
  2  3  1  0
  3  4  1  0
  4  5  1  0
  3  6  1  0
  6  7  2  0
  6  8  1  0
  8  9  2  0
  9 10  1  0
 10 11  2  0
 11 12  1  0
 12 13  1  0
 13 14  1  0
 14 15  1  0
 15 16  1  0
 16 17  1  0
 17 18  2  0
 17 19  1  0
 19 20  2  0
 20 21  1  0
 21 22  1  0
 21 23  2  0
 23 24  1  0
 24 25  2  0
 25 26  1  0
 26 27  1  0
 27 28  2  0
 28 29  1  0
 29 30  2  0
 16 31  1  0
 31 32  1  0
 11 33  1  0
 33 34  2  0
 34  8  1  0
 32 12  1  0
 32 14  1  0
 25 19  1  0
 30 26  1  0
  1 35  1  0
  1 36  1  0
  1 37  1  0
  2 38  1  0
  2 39  1  0
  4 40  1  0
  4 41  1  0
  5 42  1  0
  5 43  1  0
  5 44  1  0
  9 45  1  0
 10 46  1  0
 13 47  1  0
 13 48  1  0
 14 49  1  6
 15 50  1  0
 15 51  1  0
 20 52  1  0
 23 53  1  0
 24 54  1  0
 28 55  1  0
 29 56  1  0
 30 57  1  0
 31 58  1  0
 31 59  1  0
 32 60  1  1
 34 61  1  0
M  CHG  1  30   1
M  END
>  <UniqueID>  (41) 
40

>  <SMILES>  (41) 
CCN(CC)C(=O)c1ccc(N2C[C@@H]3CN(C(=O)c4cc(F)ccc4-n4ncc[nH+]4)C[C@@H]32)nc1

>  <Energy>  (41) 
155.91506045172864

>  <Genealogy>  (41) 
CCN(CC)C(=O)c1ccc(N2CC3CN(C(=O)c4cc(F)ccc4-n4ncc[nH+]4)CC32)nc1 (protonated)
CCN(CC)C(=O)c1ccc(N2C[C@@H]3CN(C(=O)c4cc(F)ccc4-n4ncc[nH+]4)C[C@@H]32)nc1 (chirality)
CCN(CC)C(=O)c1ccc(N2C[C@@H]3CN(C(=O)c4cc(F)ccc4-n4ncc[nH+]4)C[C@@H]32)nc1 (3D coordinates assigned)
CCN(CC)C(=O)c1ccc(N2C[C@@H]3CN(C(=O)c4cc(F)ccc4-n4ncc[nH+]4)C[C@@H]32)nc1 (nonaromatic ring conformer: 155.91506045172864 kcal/mol)

>  <smiles>  (41) 
CCN(CC)C(=O)c1ccc(N2CC3CN(C(=O)c4cc(F)ccc4-n4nccn4)CC32)nc1

>  <score_type>  (41) 
oracle

>  <origin>  (41) 
adg

>  <m_score__min__energy>  (41) 
-8.0500000000000007

>  <m_primary>  (41) 
energy

$$$$
41:0
     RDKit          3D

 40 42  0  0  0  0  0  0  0  0999 V2000
   58.2030   28.1970   46.3740 C   0  0  0  0  0  0  0  0  0  0  0  0
   57.0670   28.3320   45.3680 C   0  0  0  0  0  0  0  0  0  0  0  0
   57.1020   29.6740   44.7110 C   0  0  0  0  0  0  0  0  0  0  0  0
   57.3000   30.8290   45.3830 N   0  0  0  0  0  0  0  0  0  0  0  0
   57.3520   31.9020   44.5460 C   0  0  0  0  0  0  0  0  0  0  0  0
   57.5270   33.2710   45.0650 C   0  0  0  0  0  0  0  0  0  0  0  0
   56.9280   34.2220   44.4930 O   0  0  0  0  0  0  0  0  0  0  0  0
   58.3780   33.5450   46.1910 N   0  0  0  0  0  0  0  0  0  0  0  0
   58.1660   32.8450   47.4660 C   0  0  0  0  0  0  0  0  0  0  0  0
   59.5140   32.5280   48.1270 C   0  0  0  0  0  0  0  0  0  0  0  0
   60.4410   33.6650   48.0370 N   0  0  0  0  0  0  0  0  0  0  0  0
   61.8210   33.4830   48.3970 C   0  0  0  0  0  0  0  0  0  0  0  0
   62.7860   33.2830   47.3950 C   0  0  0  0  0  0  0  0  0  0  0  0
   64.1270   33.0910   47.7370 C   0  0  0  0  0  0  0  0  0  0  0  0
   64.5170   33.0990   49.0780 C   0  0  0  0  0  0  0  0  0  0  0  0
   63.5650   33.3000   50.0810 C   0  0  0  0  0  0  0  0  0  0  0  0
   62.2200   33.4910   49.7460 C   0  0  0  0  0  0  0  0  0  0  0  0
   61.3180   33.7180   50.7330 F   0  0  0  0  0  0  0  0  0  0  0  0
   59.9910   34.9390   47.4640 C   0  0  0  0  0  0  0  0  0  0  0  0
   59.3000   34.6900   46.1200 C   0  0  0  0  0  0  0  0  0  0  0  0
   57.1930   31.6010   43.1940 C   0  0  0  0  0  0  0  0  0  0  0  0
   57.0000   29.9360   43.0540 S   0  0  0  0  0  0  0  0  0  0  0  0
   57.7963   28.2453   47.3949 H   0  0  0  0  0  0  0  0  0  0  0  0
   58.7105   27.2322   46.2267 H   0  0  0  0  0  0  0  0  0  0  0  0
   58.9224   29.0160   46.2267 H   0  0  0  0  0  0  0  0  0  0  0  0
   57.1695   27.5510   44.6002 H   0  0  0  0  0  0  0  0  0  0  0  0
   56.1094   28.2218   45.8980 H   0  0  0  0  0  0  0  0  0  0  0  0
   57.5735   33.4841   48.1372 H   0  0  0  0  0  0  0  0  0  0  0  0
   57.6303   31.9037   47.2739 H   0  0  0  0  0  0  0  0  0  0  0  0
   59.3443   32.2887   49.1872 H   0  0  0  0  0  0  0  0  0  0  0  0
   59.9640   31.6744   47.5990 H   0  0  0  0  0  0  0  0  0  0  0  0
   62.4843   33.2776   46.3372 H   0  0  0  0  0  0  0  0  0  0  0  0
   64.8773   32.9332   46.9482 H   0  0  0  0  0  0  0  0  0  0  0  0
   65.5733   32.9471   49.3446 H   0  0  0  0  0  0  0  0  0  0  0  0
   63.8738   33.3081   51.1367 H   0  0  0  0  0  0  0  0  0  0  0  0
   59.2828   35.4199   48.1548 H   0  0  0  0  0  0  0  0  0  0  0  0
   60.8610   35.5939   47.3085 H   0  0  0  0  0  0  0  0  0  0  0  0
   58.7323   35.5890   45.8381 H   0  0  0  0  0  0  0  0  0  0  0  0
   60.0734   34.4642   45.3711 H   0  0  0  0  0  0  0  0  0  0  0  0
   57.1937   32.3245   42.3654 H   0  0  0  0  0  0  0  0  0  0  0  0
  1  2  1  0
  2  3  1  0
  3  4  2  0
  4  5  1  0
  5  6  1  0
  6  7  2  0
  6  8  1  0
  8  9  1  0
  9 10  1  0
 10 11  1  0
 11 12  1  0
 12 13  2  0
 13 14  1  0
 14 15  2  0
 15 16  1  0
 16 17  2  0
 17 18  1  0
 11 19  1  0
 19 20  1  0
  5 21  2  0
 21 22  1  0
 22  3  1  0
 20  8  1  0
 17 12  1  0
  1 23  1  0
  1 24  1  0
  1 25  1  0
  2 26  1  0
  2 27  1  0
  9 28  1  0
  9 29  1  0
 10 30  1  0
 10 31  1  0
 13 32  1  0
 14 33  1  0
 15 34  1  0
 16 35  1  0
 19 36  1  0
 19 37  1  0
 20 38  1  0
 20 39  1  0
 21 40  1  0
M  END
>  <UniqueID>  (42) 
41

>  <SMILES>  (42) 
CCc1nc(C(=O)N2CCN(c3ccccc3F)CC2)cs1

>  <Energy>  (42) 
75.21375481454135

>  <Genealogy>  (42) 
CCc1nc(C(=O)N2CCN(c3ccccc3F)CC2)cs1 (3D coordinates assigned)
CCc1nc(C(=O)N2CCN(c3ccccc3F)CC2)cs1 (nonaromatic ring conformer: 75.21375481454135 kcal/mol)

>  <smiles>  (42) 
CCc1nc(C(=O)N2CCN(c3ccccc3F)CC2)cs1

>  <score_type>  (42) 
oracle

>  <origin>  (42) 
adg

>  <m_score__min__energy>  (42) 
-7.5199999999999996

>  <m_primary>  (42) 
energy

$$$$
42:0
     RDKit          3D

 53 56  0  0  0  0  0  0  0  0999 V2000
   63.2850   32.7320   47.2310 C   0  0  0  0  0  0  0  0  0  0  0  0
   62.0770   32.0360   46.9490 O   0  0  0  0  0  0  0  0  0  0  0  0
   61.4680   31.1090   47.8120 C   0  0  0  0  0  0  0  0  0  0  0  0
   61.7080   31.1330   49.2020 C   0  0  0  0  0  0  0  0  0  0  0  0
   61.1150   30.1890   50.0400 C   0  0  0  0  0  0  0  0  0  0  0  0
   60.2910   29.2000   49.5070 C   0  0  0  0  0  0  0  0  0  0  0  0
   60.0430   29.1610   48.1350 C   0  0  0  0  0  0  0  0  0  0  0  0
   60.5970   30.1310   47.2730 C   0  0  0  0  0  0  0  0  0  0  0  0
   60.3350   30.0680   45.8500 N   0  0  0  0  0  0  0  0  0  0  0  0
   59.1000   29.3780   45.5730 C   0  0  0  0  0  0  0  0  0  0  0  0
   58.8990   27.7210   45.7700 S   0  0  0  0  0  0  0  0  0  0  0  0
   57.2530   27.6820   45.4250 C   0  0  0  0  0  0  0  0  0  0  0  0
   56.4080   26.4760   45.5500 C   0  0  0  0  0  0  0  0  0  0  0  0
   55.2360   26.5930   46.0000 O   0  0  0  0  0  0  0  0  0  0  0  0
   56.9160   25.1270   45.2030 C   0  0  0  0  0  0  0  0  0  0  0  0
   57.9770   24.5440   45.9230 C   0  0  0  0  0  0  0  0  0  0  0  0
   58.4550   23.2760   45.5770 C   0  0  0  0  0  0  0  0  0  0  0  0
   57.8870   22.5810   44.5080 C   0  0  0  0  0  0  0  0  0  0  0  0
   56.8440   23.1540   43.7780 C   0  0  0  0  0  0  0  0  0  0  0  0
   56.3630   24.4230   44.1180 C   0  0  0  0  0  0  0  0  0  0  0  0
   56.8270   28.9920   45.1740 C   0  0  0  0  0  0  0  0  0  0  0  0
   55.4560   29.3230   44.9230 N   0  0  0  0  0  0  0  0  0  0  0  0
   57.8680   29.9500   45.2220 C   0  0  0  0  0  0  0  0  0  0  0  0
   57.6400   31.6730   44.8650 S   0  0  0  0  0  0  0  0  0  0  0  0
   58.1700   31.9640   43.4890 O   0  0  0  0  0  0  0  0  0  0  0  0
   56.1790   32.0230   44.8720 O   0  0  0  0  0  0  0  0  0  0  0  0
   58.4840   32.6710   46.0460 C   0  0  0  0  0  0  0  0  0  0  0  0
   59.3640   33.6820   45.6310 C   0  0  0  0  0  0  0  0  0  0  0  0
   60.0080   34.4860   46.5770 C   0  0  0  0  0  0  0  0  0  0  0  0
   59.7810   34.2790   47.9400 C   0  0  0  0  0  0  0  0  0  0  0  0
   58.9160   33.2650   48.3600 C   0  0  0  0  0  0  0  0  0  0  0  0
   58.2720   32.4590   47.4160 C   0  0  0  0  0  0  0  0  0  0  0  0
   63.4182   32.8088   48.3202 H   0  0  0  0  0  0  0  0  0  0  0  0
   64.1339   32.1845   46.7954 H   0  0  0  0  0  0  0  0  0  0  0  0
   63.2371   33.7410   46.7954 H   0  0  0  0  0  0  0  0  0  0  0  0
   62.3683   31.9026   49.6283 H   0  0  0  0  0  0  0  0  0  0  0  0
   61.2982   30.2253   51.1240 H   0  0  0  0  0  0  0  0  0  0  0  0
   59.8354   28.4489   50.1691 H   0  0  0  0  0  0  0  0  0  0  0  0
   59.4079   28.3645   47.7200 H   0  0  0  0  0  0  0  0  0  0  0  0
   60.2990   31.0100   45.4050 H   0  0  0  0  0  0  0  0  0  0  0  0
   61.1240   29.5500   45.3990 H   0  0  0  0  0  0  0  0  0  0  0  0
   58.4325   25.0894   46.7627 H   0  0  0  0  0  0  0  0  0  0  0  0
   59.2801   22.8256   46.1483 H   0  0  0  0  0  0  0  0  0  0  0  0
   58.2612   21.5817   44.2407 H   0  0  0  0  0  0  0  0  0  0  0  0
   56.3995   22.6066   42.9338 H   0  0  0  0  0  0  0  0  0  0  0  0
   55.5472   24.8730   43.5332 H   0  0  0  0  0  0  0  0  0  0  0  0
   54.7670   28.5910   44.6470 H   0  0  0  0  0  0  0  0  0  0  0  0
   55.0950   30.2870   45.0840 H   0  0  0  0  0  0  0  0  0  0  0  0
   59.5479   33.8427   44.5585 H   0  0  0  0  0  0  0  0  0  0  0  0
   60.6931   35.2812   46.2480 H   0  0  0  0  0  0  0  0  0  0  0  0
   60.2838   34.9150   48.6834 H   0  0  0  0  0  0  0  0  0  0  0  0
   58.7416   33.1008   49.4336 H   0  0  0  0  0  0  0  0  0  0  0  0
   57.5973   31.6565   47.7489 H   0  0  0  0  0  0  0  0  0  0  0  0
  1  2  1  0
  2  3  1  0
  3  4  2  0
  4  5  1  0
  5  6  2  0
  6  7  1  0
  7  8  2  0
  8  9  1  0
  9 10  1  0
 10 11  1  0
 11 12  1  0
 12 13  1  0
 13 14  2  0
 13 15  1  0
 15 16  2  0
 16 17  1  0
 17 18  2  0
 18 19  1  0
 19 20  2  0
 12 21  2  0
 21 22  1  0
 21 23  1  0
 23 24  1  0
 24 25  2  0
 24 26  2  0
 24 27  1  0
 27 28  2  0
 28 29  1  0
 29 30  2  0
 30 31  1  0
 31 32  2  0
  8  3  1  0
 23 10  2  0
 32 27  1  0
 20 15  1  0
  1 33  1  0
  1 34  1  0
  1 35  1  0
  4 36  1  0
  5 37  1  0
  6 38  1  0
  7 39  1  0
  9 40  1  0
  9 41  1  0
 16 42  1  0
 17 43  1  0
 18 44  1  0
 19 45  1  0
 20 46  1  0
 22 47  1  0
 22 48  1  0
 28 49  1  0
 29 50  1  0
 30 51  1  0
 31 52  1  0
 32 53  1  0
M  CHG  1   9   1
M  END
>  <UniqueID>  (43) 
42

>  <SMILES>  (43) 
COc1ccccc1[NH2+]c1sc(C(=O)c2ccccc2)c(N)c1S(=O)(=O)c1ccccc1

>  <Energy>  (43) 
92.92473786587348

>  <Genealogy>  (43) 
COc1ccccc1[NH2+]c1sc(C(=O)c2ccccc2)c(N)c1S(=O)(=O)c1ccccc1 (protonated)
COc1ccccc1[NH2+]c1sc(C(=O)c2ccccc2)c(N)c1S(=O)(=O)c1ccccc1 (3D coordinates assigned)
COc1ccccc1[NH2+]c1sc(C(=O)c2ccccc2)c(N)c1S(=O)(=O)c1ccccc1 (optimized conformer: 92.92473786587348 kcal/mol)

>  <smiles>  (43) 
COc1ccccc1Nc1sc(C(=O)c2ccccc2)c(N)c1S(=O)(=O)c1ccccc1

>  <score_type>  (43) 
oracle

>  <origin>  (43) 
adg

>  <m_score__min__energy>  (43) 
-8.9900000000000002

>  <m_primary>  (43) 
energy

$$$$
43:0
     RDKit          3D

 37 39  0  0  0  0  0  0  0  0999 V2000
   56.8130   33.6830   45.2460 C   0  0  0  0  0  0  0  0  0  0  0  0
   57.8850   32.7110   45.6260 C   0  0  0  0  0  0  0  0  0  0  0  0
   59.1130   33.1680   46.1130 C   0  0  0  0  0  0  0  0  0  0  0  0
   60.0930   32.2250   46.4690 C   0  0  0  0  0  0  0  0  0  0  0  0
   61.3860   32.6320   46.9750 N   0  0  0  0  0  0  0  0  0  0  0  0
   61.8610   34.0060   46.7580 C   0  0  0  0  0  0  0  0  0  0  0  0
   63.3900   34.0380   46.5590 C   0  0  0  0  0  0  0  0  0  0  0  0
   64.1480   33.1210   47.4380 N   0  0  0  0  0  0  0  0  0  0  0  0
   63.3390   32.4990   48.4920 C   0  0  0  0  0  0  0  0  0  0  0  0
   62.1400   31.7600   47.8880 C   0  0  0  0  0  0  0  0  0  0  0  0
   59.8080   30.9010   46.3290 N   0  0  0  0  0  0  0  0  0  0  0  0
   58.6080   30.4670   45.8580 C   0  0  0  0  0  0  0  0  0  0  0  0
   58.3380   29.0140   45.7240 C   0  0  0  0  0  0  0  0  0  0  0  0
   59.3960   28.0980   45.5640 C   0  0  0  0  0  0  0  0  0  0  0  0
   59.1370   26.7290   45.4390 C   0  0  0  0  0  0  0  0  0  0  0  0
   57.8230   26.2580   45.4720 C   0  0  0  0  0  0  0  0  0  0  0  0
   56.7640   27.1540   45.6310 C   0  0  0  0  0  0  0  0  0  0  0  0
   55.4890   26.6950   45.6620 F   0  0  0  0  0  0  0  0  0  0  0  0
   57.0170   28.5250   45.7560 C   0  0  0  0  0  0  0  0  0  0  0  0
   57.6590   31.3770   45.5120 N   0  0  0  0  0  0  0  0  0  0  0  0
   56.3551   34.0981   46.1560 H   0  0  0  0  0  0  0  0  0  0  0  0
   57.2511   34.4981   44.6513 H   0  0  0  0  0  0  0  0  0  0  0  0
   56.0446   33.1674   44.6513 H   0  0  0  0  0  0  0  0  0  0  0  0
   59.3089   34.2455   46.2158 H   0  0  0  0  0  0  0  0  0  0  0  0
   61.3731   34.4179   45.8623 H   0  0  0  0  0  0  0  0  0  0  0  0
   61.6106   34.6072   47.6445 H   0  0  0  0  0  0  0  0  0  0  0  0
   63.6052   33.7673   45.5148 H   0  0  0  0  0  0  0  0  0  0  0  0
   63.7154   35.0562   46.8185 H   0  0  0  0  0  0  0  0  0  0  0  0
   64.5640   32.3580   46.8540 H   0  0  0  0  0  0  0  0  0  0  0  0
   63.9608   31.7834   49.0499 H   0  0  0  0  0  0  0  0  0  0  0  0
   62.9676   33.2863   49.1645 H   0  0  0  0  0  0  0  0  0  0  0  0
   62.5018   30.8834   47.3306 H   0  0  0  0  0  0  0  0  0  0  0  0
   61.4727   31.4498   48.7056 H   0  0  0  0  0  0  0  0  0  0  0  0
   60.4337   28.4619   45.5371 H   0  0  0  0  0  0  0  0  0  0  0  0
   59.9704   26.0220   45.3144 H   0  0  0  0  0  0  0  0  0  0  0  0
   57.6221   25.1811   45.3727 H   0  0  0  0  0  0  0  0  0  0  0  0
   56.1783   29.2258   45.8801 H   0  0  0  0  0  0  0  0  0  0  0  0
  1  2  1  0
  2  3  2  0
  3  4  1  0
  4  5  1  0
  5  6  1  0
  6  7  1  0
  7  8  1  0
  8  9  1  0
  9 10  1  0
  4 11  2  0
 11 12  1  0
 12 13  1  0
 13 14  2  0
 14 15  1  0
 15 16  2  0
 16 17  1  0
 17 18  1  0
 17 19  2  0
 12 20  2  0
 20  2  1  0
 10  5  1  0
 19 13  1  0
  1 21  1  0
  1 22  1  0
  1 23  1  0
  3 24  1  0
  6 25  1  0
  6 26  1  0
  7 27  1  0
  7 28  1  0
  8 29  1  0
  9 30  1  0
  9 31  1  0
 10 32  1  0
 10 33  1  0
 14 34  1  0
 15 35  1  0
 16 36  1  0
 19 37  1  0
M  END
>  <UniqueID>  (44) 
43

>  <SMILES>  (44) 
Cc1cc(N2CCNCC2)nc(-c2cccc(F)c2)n1

>  <Energy>  (44) 
45.352127569020006

>  <Genealogy>  (44) 
Cc1cc(N2CCNCC2)nc(-c2cccc(F)c2)n1 (3D coordinates assigned)
Cc1cc(N2CCNCC2)nc(-c2cccc(F)c2)n1 (nonaromatic ring conformer: 45.352127569020006 kcal/mol)

>  <smiles>  (44) 
Cc1cc(N2CCNCC2)nc(-c2cccc(F)c2)n1

>  <score_type>  (44) 
oracle

>  <origin>  (44) 
adg

>  <m_score__min__energy>  (44) 
-6.8899999999999997

>  <m_primary>  (44) 
energy

$$$$
44:0
     RDKit          3D

 51 54  0  0  0  0  0  0  0  0999 V2000
   58.6520   27.1700   43.4010 F   0  0  0  0  0  0  0  0  0  0  0  0
   59.0120   27.7990   44.5470 C   0  0  0  0  0  0  0  0  0  0  0  0
   58.3300   27.5280   45.7370 C   0  0  0  0  0  0  0  0  0  0  0  0
   58.6990   28.1780   46.9190 C   0  0  0  0  0  0  0  0  0  0  0  0
   59.7560   29.1020   46.9190 C   0  0  0  0  0  0  0  0  0  0  0  0
   60.1310   29.8140   48.1900 C   0  0  0  0  0  0  0  0  0  0  0  0
   60.2320   31.2690   47.9490 N   0  0  0  0  0  0  0  0  0  0  0  0
   61.6350   31.7250   48.0570 C   0  0  0  0  0  0  0  0  0  0  0  0
   61.8110   33.1910   47.5810 C   0  0  2  0  0  0  0  0  0  0  0  0
   61.7550   34.1810   48.7560 C   0  0  0  0  0  0  0  0  0  0  0  0
   60.3400   34.3210   49.3400 C   0  0  0  0  0  0  0  0  0  0  0  0
   59.2820   33.5320   48.5430 C   0  0  2  0  0  0  0  0  0  0  0  0
   59.3420   32.0110   48.8620 C   0  0  0  0  0  0  0  0  0  0  0  0
   59.4070   33.8450   47.0930 N   0  0  0  0  0  0  0  0  0  0  0  0
   58.3330   33.2760   46.2440 C   0  0  0  0  0  0  0  0  0  0  0  0
   58.8520   32.7820   44.8770 C   0  0  0  0  0  0  0  0  0  0  0  0
   57.9400   31.7650   44.2330 C   0  0  0  0  0  0  0  0  0  0  0  0
   57.6750   31.8200   42.8540 C   0  0  0  0  0  0  0  0  0  0  0  0
   56.8240   30.8750   42.2780 C   0  0  0  0  0  0  0  0  0  0  0  0
   56.2410   29.9190   43.0480 N   0  0  0  0  0  0  0  0  0  0  0  0
   56.4610   29.8550   44.3880 C   0  0  0  0  0  0  0  0  0  0  0  0
   57.3060   30.7810   45.0070 C   0  0  0  0  0  0  0  0  0  0  0  0
   60.7580   33.5830   46.5180 C   0  0  0  0  0  0  0  0  0  0  0  0
   60.4350   29.3720   45.7190 C   0  0  0  0  0  0  0  0  0  0  0  0
   60.0630   28.7200   44.5390 C   0  0  0  0  0  0  0  0  0  0  0  0
   57.5027   26.8031   45.7436 H   0  0  0  0  0  0  0  0  0  0  0  0
   58.1586   27.9643   47.8530 H   0  0  0  0  0  0  0  0  0  0  0  0
   59.3618   29.6246   48.9532 H   0  0  0  0  0  0  0  0  0  0  0  0
   61.1050   29.4392   48.5376 H   0  0  0  0  0  0  0  0  0  0  0  0
   61.9513   31.6531   49.1081 H   0  0  0  0  0  0  0  0  0  0  0  0
   62.2504   31.0828   47.4099 H   0  0  0  0  0  0  0  0  0  0  0  0
   62.8082   33.2482   47.1202 H   0  0  0  0  0  0  0  0  0  0  0  0
   62.4304   33.8265   49.5486 H   0  0  0  0  0  0  0  0  0  0  0  0
   62.0596   35.1677   48.3769 H   0  0  0  0  0  0  0  0  0  0  0  0
   60.3491   33.9492   50.3752 H   0  0  0  0  0  0  0  0  0  0  0  0
   60.0657   35.3851   49.2899 H   0  0  0  0  0  0  0  0  0  0  0  0
   58.2767   33.8502   48.8562 H   0  0  0  0  0  0  0  0  0  0  0  0
   59.7082   31.8822   49.8912 H   0  0  0  0  0  0  0  0  0  0  0  0
   58.3270   31.6063   48.7357 H   0  0  0  0  0  0  0  0  0  0  0  0
   57.8774   32.4271   46.7749 H   0  0  0  0  0  0  0  0  0  0  0  0
   57.6026   34.0758   46.0524 H   0  0  0  0  0  0  0  0  0  0  0  0
   58.9440   33.6468   44.2035 H   0  0  0  0  0  0  0  0  0  0  0  0
   59.8215   32.2921   45.0502 H   0  0  0  0  0  0  0  0  0  0  0  0
   58.1350   32.6024   42.2326 H   0  0  0  0  0  0  0  0  0  0  0  0
   56.6246   30.9044   41.1966 H   0  0  0  0  0  0  0  0  0  0  0  0
   55.9727   29.0723   44.9871 H   0  0  0  0  0  0  0  0  0  0  0  0
   57.4728   30.7385   46.0935 H   0  0  0  0  0  0  0  0  0  0  0  0
   60.6744   32.7622   45.7904 H   0  0  0  0  0  0  0  0  0  0  0  0
   61.0998   34.5184   46.0510 H   0  0  0  0  0  0  0  0  0  0  0  0
   61.2613   30.0980   45.7076 H   0  0  0  0  0  0  0  0  0  0  0  0
   60.5990   28.9327   43.6023 H   0  0  0  0  0  0  0  0  0  0  0  0
  1  2  1  0
  2  3  2  0
  3  4  1  0
  4  5  2  0
  5  6  1  0
  6  7  1  0
  7  8  1  0
  8  9  1  0
  9 10  1  0
 10 11  1  0
 11 12  1  0
 12 13  1  0
 12 14  1  0
 14 15  1  0
 15 16  1  0
 16 17  1  0
 17 18  2  0
 18 19  1  0
 19 20  2  0
 20 21  1  0
 21 22  2  0
 14 23  1  0
  5 24  1  0
 24 25  2  0
 25  2  1  0
 13  7  1  0
 22 17  1  0
 23  9  1  0
  3 26  1  0
  4 27  1  0
  6 28  1  0
  6 29  1  0
  8 30  1  0
  8 31  1  0
  9 32  1  6
 10 33  1  0
 10 34  1  0
 11 35  1  0
 11 36  1  0
 12 37  1  1
 13 38  1  0
 13 39  1  0
 15 40  1  0
 15 41  1  0
 16 42  1  0
 16 43  1  0
 18 44  1  0
 19 45  1  0
 21 46  1  0
 22 47  1  0
 23 48  1  0
 23 49  1  0
 24 50  1  0
 25 51  1  0
M  END
>  <UniqueID>  (45) 
44

>  <SMILES>  (45) 
Fc1ccc(CN2C[C@@H]3CC[C@H](C2)N(CCc2ccncc2)C3)cc1

>  <Energy>  (45) 
73.24257711906891

>  <Genealogy>  (45) 
Fc1ccc(CN2C[C@@H]3CC[C@H](C2)N(CCc2ccncc2)C3)cc1 (chirality)
Fc1ccc(CN2C[C@@H]3CC[C@H](C2)N(CCc2ccncc2)C3)cc1 (3D coordinates assigned)
Fc1ccc(CN2C[C@@H]3CC[C@H](C2)N(CCc2ccncc2)C3)cc1 (nonaromatic ring conformer: 73.24257711906891 kcal/mol)

>  <smiles>  (45) 
Fc1ccc(CN2CC3CCC(C2)N(CCc2ccncc2)C3)cc1

>  <score_type>  (45) 
oracle

>  <origin>  (45) 
adg

>  <m_score__min__energy>  (45) 
-6.5300000000000002

>  <m_primary>  (45) 
energy

$$$$
45:0
     RDKit          3D

 46 49  0  0  0  0  0  0  0  0999 V2000
   59.5660   33.5200   50.6870 C   0  0  0  0  0  0  0  0  0  0  0  0
   59.9920   34.2240   49.5260 O   0  0  0  0  0  0  0  0  0  0  0  0
   61.1840   33.9650   48.8310 C   0  0  0  0  0  0  0  0  0  0  0  0
   62.4390   33.9700   49.4740 C   0  0  0  0  0  0  0  0  0  0  0  0
   63.6070   33.7290   48.7460 C   0  0  0  0  0  0  0  0  0  0  0  0
   63.5390   33.4810   47.3740 C   0  0  0  0  0  0  0  0  0  0  0  0
   62.3020   33.4710   46.7260 C   0  0  0  0  0  0  0  0  0  0  0  0
   61.1220   33.7050   47.4470 C   0  0  0  0  0  0  0  0  0  0  0  0
   59.8580   33.7010   46.7640 N   0  0  0  0  0  0  0  0  0  0  0  0
   58.9520   32.5630   46.9310 C   0  0  0  0  0  0  0  0  0  0  0  0
   57.6300   32.7810   46.1750 C   0  0  0  0  0  0  0  0  0  0  0  0
   57.8240   33.2680   44.7880 N   0  0  0  0  0  0  0  0  0  0  0  0
   57.7150   32.2210   43.7500 C   0  0  0  0  0  0  0  0  0  0  0  0
   57.1880   30.9160   44.2820 C   0  0  0  0  0  0  0  0  0  0  0  0
   55.8820   30.4820   44.2210 C   0  0  0  0  0  0  0  0  0  0  0  0
   55.8250   29.3230   44.8270 O   0  0  0  0  0  0  0  0  0  0  0  0
   57.0390   29.0450   45.2470 C   0  0  0  0  0  0  0  0  0  0  0  0
   57.3840   27.8240   45.9820 C   0  0  0  0  0  0  0  0  0  0  0  0
   58.5000   27.6250   46.7640 C   0  0  0  0  0  0  0  0  0  0  0  0
   58.3910   26.3340   47.2390 C   0  0  0  0  0  0  0  0  0  0  0  0
   57.2860   25.7840   46.7850 O   0  0  0  0  0  0  0  0  0  0  0  0
   56.6570   26.6530   46.0270 C   0  0  0  0  0  0  0  0  0  0  0  0
   57.9360   30.0050   44.9330 N   0  0  0  0  0  0  0  0  0  0  0  0
   58.9490   34.2100   44.5640 C   0  0  0  0  0  0  0  0  0  0  0  0
   59.4890   34.7980   45.8680 C   0  0  0  0  0  0  0  0  0  0  0  0
   59.8943   34.0625   51.5858 H   0  0  0  0  0  0  0  0  0  0  0  0
   58.4688   33.4416   50.6863 H   0  0  0  0  0  0  0  0  0  0  0  0
   60.0056   32.5117   50.6863 H   0  0  0  0  0  0  0  0  0  0  0  0
   62.4988   34.1648   50.5550 H   0  0  0  0  0  0  0  0  0  0  0  0
   64.5821   33.7347   49.2551 H   0  0  0  0  0  0  0  0  0  0  0  0
   64.4603   33.2933   46.8030 H   0  0  0  0  0  0  0  0  0  0  0  0
   62.2528   33.2785   45.6441 H   0  0  0  0  0  0  0  0  0  0  0  0
   59.4406   31.6569   46.5433 H   0  0  0  0  0  0  0  0  0  0  0  0
   58.7244   32.4565   48.0019 H   0  0  0  0  0  0  0  0  0  0  0  0
   57.0871   31.8251   46.1372 H   0  0  0  0  0  0  0  0  0  0  0  0
   57.0669   33.5547   46.7175 H   0  0  0  0  0  0  0  0  0  0  0  0
   57.0353   32.5782   42.9623 H   0  0  0  0  0  0  0  0  0  0  0  0
   58.7283   32.0334   43.3652 H   0  0  0  0  0  0  0  0  0  0  0  0
   55.0413   31.0121   43.7496 H   0  0  0  0  0  0  0  0  0  0  0  0
   59.3078   28.3435   46.9671 H   0  0  0  0  0  0  0  0  0  0  0  0
   59.1191   25.8391   47.8985 H   0  0  0  0  0  0  0  0  0  0  0  0
   55.7023   26.4750   45.5104 H   0  0  0  0  0  0  0  0  0  0  0  0
   59.7631   33.6726   44.0556 H   0  0  0  0  0  0  0  0  0  0  0  0
   58.5708   35.0430   43.9532 H   0  0  0  0  0  0  0  0  0  0  0  0
   60.3741   35.4158   45.6562 H   0  0  0  0  0  0  0  0  0  0  0  0
   58.7191   35.4244   46.3421 H   0  0  0  0  0  0  0  0  0  0  0  0
  1  2  1  0
  2  3  1  0
  3  4  2  0
  4  5  1  0
  5  6  2  0
  6  7  1  0
  7  8  2  0
  8  9  1  0
  9 10  1  0
 10 11  1  0
 11 12  1  0
 12 13  1  0
 13 14  1  0
 14 15  2  0
 15 16  1  0
 16 17  1  0
 17 18  1  0
 18 19  1  0
 19 20  2  0
 20 21  1  0
 21 22  1  0
 17 23  2  0
 12 24  1  0
 24 25  1  0
  8  3  1  0
 25  9  1  0
 23 14  1  0
 22 18  2  0
  1 26  1  0
  1 27  1  0
  1 28  1  0
  4 29  1  0
  5 30  1  0
  6 31  1  0
  7 32  1  0
 10 33  1  0
 10 34  1  0
 11 35  1  0
 11 36  1  0
 13 37  1  0
 13 38  1  0
 15 39  1  0
 19 40  1  0
 20 41  1  0
 22 42  1  0
 24 43  1  0
 24 44  1  0
 25 45  1  0
 25 46  1  0
M  END
>  <UniqueID>  (46) 
45

>  <SMILES>  (46) 
COc1ccccc1N1CCN(Cc2coc(-c3ccoc3)n2)CC1

>  <Energy>  (46) 
115.14680795656713

>  <Genealogy>  (46) 
COc1ccccc1N1CCN(Cc2coc(-c3ccoc3)n2)CC1 (3D coordinates assigned)
COc1ccccc1N1CCN(Cc2coc(-c3ccoc3)n2)CC1 (nonaromatic ring conformer: 115.14680795656713 kcal/mol)

>  <smiles>  (46) 
COc1ccccc1N1CCN(Cc2coc(-c3ccoc3)n2)CC1

>  <score_type>  (46) 
oracle

>  <origin>  (46) 
adg

>  <m_score__min__energy>  (46) 
-7.7599999999999998

>  <m_primary>  (46) 
energy

$$$$
46:0
     RDKit          3D

 54 58  0  0  0  0  0  0  0  0999 V2000
   57.7780   32.0390   42.1790 C   0  0  0  0  0  0  0  0  0  0  0  0
   56.9910   30.8380   42.6910 C   0  0  0  0  0  0  0  0  0  0  0  0
   57.5910   30.3260   43.9210 N   0  0  0  0  0  0  0  0  0  0  0  0
   58.0230   31.0630   44.9730 C   0  0  0  0  0  0  0  0  0  0  0  0
   58.6170   30.2430   45.9320 C   0  0  0  0  0  0  0  0  0  0  0  0
   59.1880   30.7000   47.2120 C   0  0  0  0  0  0  0  0  0  0  0  0
   60.3930   31.3190   47.2210 N   0  0  0  0  0  0  0  0  0  0  0  0
   60.9400   31.7630   48.3820 C   0  0  0  0  0  0  0  0  0  0  0  0
   62.2360   32.3900   48.3630 N   0  0  0  0  0  0  0  0  0  0  0  0
   63.1520   32.4160   49.4910 C   0  0  0  0  0  0  0  0  0  0  0  0
   64.4390   33.0500   48.9780 C   0  0  0  0  0  0  0  0  0  0  0  0
   64.1380   33.5950   47.5840 C   0  0  0  0  0  0  0  0  0  0  0  0
   62.7790   33.0310   47.1780 C   0  0  0  0  0  0  0  0  0  0  0  0
   60.2570   31.5920   49.5490 N   0  0  0  0  0  0  0  0  0  0  0  0
   59.0420   30.9690   49.5530 C   0  0  0  0  0  0  0  0  0  0  0  0
   58.3150   30.7640   50.7850 N   0  0  0  0  0  0  0  0  0  0  0  0
   58.7730   29.7090   51.7030 C   0  0  0  0  0  0  0  0  0  0  0  0
   57.6730   29.3610   52.7230 C   0  0  0  0  0  0  0  0  0  0  0  0
   57.1510   30.5280   53.3290 O   0  0  0  0  0  0  0  0  0  0  0  0
   56.4750   31.2920   52.3500 C   0  0  0  0  0  0  0  0  0  0  0  0
   57.4580   31.8320   51.3100 C   0  0  0  0  0  0  0  0  0  0  0  0
   58.5210   30.5220   48.3800 N   0  0  0  0  0  0  0  0  0  0  0  0
   58.5470   28.9560   45.4150 C   0  0  0  0  0  0  0  0  0  0  0  0
   59.0110   27.7210   45.8730 C   0  0  0  0  0  0  0  0  0  0  0  0
   58.7960   26.6020   45.0550 C   0  0  0  0  0  0  0  0  0  0  0  0
   58.1450   26.7510   43.8110 C   0  0  0  0  0  0  0  0  0  0  0  0
   57.7240   27.9770   43.3950 N   0  0  0  0  0  0  0  0  0  0  0  0
   57.9230   29.0560   44.2000 C   0  0  0  0  0  0  0  0  0  0  0  0
   58.1582   32.6192   43.0327 H   0  0  0  0  0  0  0  0  0  0  0  0
   58.6231   31.6899   41.5674 H   0  0  0  0  0  0  0  0  0  0  0  0
   57.1206   32.6745   41.5674 H   0  0  0  0  0  0  0  0  0  0  0  0
   55.9536   31.1431   42.8929 H   0  0  0  0  0  0  0  0  0  0  0  0
   57.0089   30.0464   41.9275 H   0  0  0  0  0  0  0  0  0  0  0  0
   57.9196   32.1548   45.0585 H   0  0  0  0  0  0  0  0  0  0  0  0
   62.7310   33.0170   50.3105 H   0  0  0  0  0  0  0  0  0  0  0  0
   63.3322   31.4048   49.8848 H   0  0  0  0  0  0  0  0  0  0  0  0
   64.7503   33.8675   49.6450 H   0  0  0  0  0  0  0  0  0  0  0  0
   65.2557   32.3138   48.9458 H   0  0  0  0  0  0  0  0  0  0  0  0
   64.1012   34.6942   47.6062 H   0  0  0  0  0  0  0  0  0  0  0  0
   64.9189   33.3019   46.8669 H   0  0  0  0  0  0  0  0  0  0  0  0
   62.1141   33.8413   46.8442 H   0  0  0  0  0  0  0  0  0  0  0  0
   62.8731   32.3192   46.3447 H   0  0  0  0  0  0  0  0  0  0  0  0
   60.6770   31.9190   50.4450 H   0  0  0  0  0  0  0  0  0  0  0  0
   59.0250   28.8093   51.1224 H   0  0  0  0  0  0  0  0  0  0  0  0
   59.6577   30.0722   52.2465 H   0  0  0  0  0  0  0  0  0  0  0  0
   56.8596   28.8300   52.2067 H   0  0  0  0  0  0  0  0  0  0  0  0
   58.1125   28.7274   53.5074 H   0  0  0  0  0  0  0  0  0  0  0  0
   55.7305   30.6570   51.8474 H   0  0  0  0  0  0  0  0  0  0  0  0
   55.9814   32.1419   52.8441 H   0  0  0  0  0  0  0  0  0  0  0  0
   56.8919   32.2787   50.4793 H   0  0  0  0  0  0  0  0  0  0  0  0
   58.0973   32.5854   51.7934 H   0  0  0  0  0  0  0  0  0  0  0  0
   59.5265   27.6291   46.8404 H   0  0  0  0  0  0  0  0  0  0  0  0
   59.1347   25.6081   45.3828 H   0  0  0  0  0  0  0  0  0  0  0  0
   57.9768   25.8704   43.1736 H   0  0  0  0  0  0  0  0  0  0  0  0
  1  2  1  0
  2  3  1  0
  3  4  1  0
  4  5  2  0
  5  6  1  0
  6  7  2  0
  7  8  1  0
  8  9  1  0
  9 10  1  0
 10 11  1  0
 11 12  1  0
 12 13  1  0
  8 14  2  0
 14 15  1  0
 15 16  1  0
 16 17  1  0
 17 18  1  0
 18 19  1  0
 19 20  1  0
 20 21  1  0
 15 22  2  0
  5 23  1  0
 23 24  2  0
 24 25  1  0
 25 26  2  0
 26 27  1  0
 27 28  2  0
 28  3  1  0
 22  6  1  0
 28 23  1  0
 13  9  1  0
 21 16  1  0
  1 29  1  0
  1 30  1  0
  1 31  1  0
  2 32  1  0
  2 33  1  0
  4 34  1  0
 10 35  1  0
 10 36  1  0
 11 37  1  0
 11 38  1  0
 12 39  1  0
 12 40  1  0
 13 41  1  0
 13 42  1  0
 14 43  1  0
 17 44  1  0
 17 45  1  0
 18 46  1  0
 18 47  1  0
 20 48  1  0
 20 49  1  0
 21 50  1  0
 21 51  1  0
 24 52  1  0
 25 53  1  0
 26 54  1  0
M  CHG  1  14   1
M  END
>  <UniqueID>  (47) 
46

>  <SMILES>  (47) 
CCn1cc(-c2nc(N3CCCC3)[nH+]c(N3CCOCC3)n2)c2cccnc21

>  <Energy>  (47) 
94.13686218377754

>  <Genealogy>  (47) 
CCn1cc(-c2nc(N3CCCC3)[nH+]c(N3CCOCC3)n2)c2cccnc21 (protonated)
CCn1cc(-c2nc(N3CCCC3)[nH+]c(N3CCOCC3)n2)c2cccnc21 (3D coordinates assigned)
CCn1cc(-c2nc(N3CCCC3)[nH+]c(N3CCOCC3)n2)c2cccnc21 (nonaromatic ring conformer: 94.13686218377754 kcal/mol)

>  <smiles>  (47) 
CCn1cc(-c2nc(N3CCCC3)nc(N3CCOCC3)n2)c2cccnc21

>  <score_type>  (47) 
oracle

>  <origin>  (47) 
adg

>  <m_score__min__energy>  (47) 
-5.8799999999999999

>  <m_primary>  (47) 
energy

$$$$
47:0
     RDKit          3D

 43 44  0  0  0  0  0  0  0  0999 V2000
   67.3400   33.8600   50.9830 C   0  0  0  0  0  0  0  0  0  0  0  0
   66.7690   32.7410   50.1040 C   0  0  0  0  0  0  0  0  0  0  0  0
   65.3040   32.5580   50.2740 N   0  0  0  0  0  0  0  0  0  0  0  0
   64.9980   31.2450   50.9040 C   0  0  0  0  0  0  0  0  0  0  0  0
   63.5010   30.9120   50.8760 C   0  0  0  0  0  0  0  0  0  0  0  0
   64.6360   33.6800   50.9960 C   0  0  0  0  0  0  0  0  0  0  0  0
   63.3430   34.2220   50.3450 C   0  0  0  0  0  0  0  0  0  0  0  0
   63.3150   34.0080   48.9340 O   0  0  0  0  0  0  0  0  0  0  0  0
   62.3300   33.2920   48.2330 C   0  0  0  0  0  0  0  0  0  0  0  0
   62.6260   31.9860   47.8360 C   0  0  0  0  0  0  0  0  0  0  0  0
   61.6920   31.2250   47.1280 C   0  0  0  0  0  0  0  0  0  0  0  0
   60.4300   31.7600   46.8060 C   0  0  0  0  0  0  0  0  0  0  0  0
   59.4290   30.9630   46.0510 C   0  0  0  0  0  0  0  0  0  0  0  0
   59.5680   29.6450   45.6080 C   0  0  0  0  0  0  0  0  0  0  0  0
   58.4480   29.1600   44.9210 C   0  0  0  0  0  0  0  0  0  0  0  0
   57.4210   30.0860   44.8200 C   0  0  0  0  0  0  0  0  0  0  0  0
   56.1330   29.8610   44.1600 C   0  0  0  0  0  0  0  0  0  0  0  0
   55.1620   29.3790   44.8010 O   0  0  0  0  0  0  0  0  0  0  0  0
   57.9000   31.5060   45.5810 S   0  0  0  0  0  0  0  0  0  0  0  0
   60.1350   33.0750   47.2100 C   0  0  0  0  0  0  0  0  0  0  0  0
   61.0710   33.8330   47.9180 C   0  0  0  0  0  0  0  0  0  0  0  0
   67.2063   33.5980   52.0429 H   0  0  0  0  0  0  0  0  0  0  0  0
   68.4117   33.9842   50.7683 H   0  0  0  0  0  0  0  0  0  0  0  0
   66.8117   34.8006   50.7683 H   0  0  0  0  0  0  0  0  0  0  0  0
   66.9717   32.9849   49.0507 H   0  0  0  0  0  0  0  0  0  0  0  0
   67.2550   31.8027   50.4096 H   0  0  0  0  0  0  0  0  0  0  0  0
   64.8800   32.5520   49.3150 H   0  0  0  0  0  0  0  0  0  0  0  0
   65.5441   30.4586   50.3624 H   0  0  0  0  0  0  0  0  0  0  0  0
   65.3072   31.3011   51.9582 H   0  0  0  0  0  0  0  0  0  0  0  0
   63.1247   30.8283   51.9062 H   0  0  0  0  0  0  0  0  0  0  0  0
   62.9574   31.7112   50.3508 H   0  0  0  0  0  0  0  0  0  0  0  0
   63.3474   29.9577   50.3508 H   0  0  0  0  0  0  0  0  0  0  0  0
   64.3832   33.3280   52.0070 H   0  0  0  0  0  0  0  0  0  0  0  0
   65.3520   34.5149   50.9797 H   0  0  0  0  0  0  0  0  0  0  0  0
   62.4792   33.7126   50.7971 H   0  0  0  0  0  0  0  0  0  0  0  0
   63.3074   35.3072   50.5211 H   0  0  0  0  0  0  0  0  0  0  0  0
   63.6057   31.5514   48.0835 H   0  0  0  0  0  0  0  0  0  0  0  0
   61.9447   30.1998   46.8198 H   0  0  0  0  0  0  0  0  0  0  0  0
   60.4728   29.0443   45.7826 H   0  0  0  0  0  0  0  0  0  0  0  0
   58.3889   28.1443   44.5027 H   0  0  0  0  0  0  0  0  0  0  0  0
   56.0129   30.1149   43.0965 H   0  0  0  0  0  0  0  0  0  0  0  0
   59.1554   33.5117   46.9654 H   0  0  0  0  0  0  0  0  0  0  0  0
   60.8218   34.8578   48.2305 H   0  0  0  0  0  0  0  0  0  0  0  0
  1  2  1  0
  2  3  1  0
  3  4  1  0
  4  5  1  0
  3  6  1  0
  6  7  1  0
  7  8  1  0
  8  9  1  0
  9 10  2  0
 10 11  1  0
 11 12  2  0
 12 13  1  0
 13 14  2  0
 14 15  1  0
 15 16  2  0
 16 17  1  0
 17 18  2  0
 16 19  1  0
 12 20  1  0
 20 21  2  0
 21  9  1  0
 19 13  1  0
  1 22  1  0
  1 23  1  0
  1 24  1  0
  2 25  1  0
  2 26  1  0
  3 27  1  0
  4 28  1  0
  4 29  1  0
  5 30  1  0
  5 31  1  0
  5 32  1  0
  6 33  1  0
  6 34  1  0
  7 35  1  0
  7 36  1  0
 10 37  1  0
 11 38  1  0
 14 39  1  0
 15 40  1  0
 17 41  1  0
 20 42  1  0
 21 43  1  0
M  CHG  1   3   1
M  END
>  <UniqueID>  (48) 
47

>  <SMILES>  (48) 
CC[NH+](CC)CCOc1ccc(-c2ccc(C=O)s2)cc1

>  <Energy>  (48) 
73.26886623892328

>  <Genealogy>  (48) 
CC[NH+](CC)CCOc1ccc(-c2ccc(C=O)s2)cc1 (protonated)
CC[NH+](CC)CCOc1ccc(-c2ccc(C=O)s2)cc1 (3D coordinates assigned)
CC[NH+](CC)CCOc1ccc(-c2ccc(C=O)s2)cc1 (optimized conformer: 73.26886623892328 kcal/mol)

>  <smiles>  (48) 
CCN(CC)CCOc1ccc(-c2ccc(C=O)s2)cc1

>  <score_type>  (48) 
oracle

>  <origin>  (48) 
adg

>  <m_score__min__energy>  (48) 
-4.7199999999999998

>  <m_primary>  (48) 
energy

$$$$
48:0
     RDKit          3D

 27 28  0  0  0  0  0  0  0  0999 V2000
   58.7758   32.2563   47.0592 H   0  0  0  0  0  0  0  0  0  0  0  0
   58.4920   32.1690   46.0000 C   0  0  0  0  0  0  0  0  0  0  0  0
   58.8460   33.1410   45.1210 N   0  0  0  0  0  0  0  0  0  0  0  0
   58.5070   33.0750   43.8080 C   0  0  0  0  0  0  0  0  0  0  0  0
   58.8143   33.8801   43.1243 H   0  0  0  0  0  0  0  0  0  0  0  0
   57.7670   31.9870   43.3150 C   0  0  0  0  0  0  0  0  0  0  0  0
   57.4160   31.9430   41.8510 C   0  0  0  0  0  0  0  0  0  0  0  0
   56.3303   31.8069   41.7382 H   0  0  0  0  0  0  0  0  0  0  0  0
   57.7190   32.8862   41.3728 H   0  0  0  0  0  0  0  0  0  0  0  0
   57.9424   31.1038   41.3728 H   0  0  0  0  0  0  0  0  0  0  0  0
   57.4120   30.9450   44.2080 C   0  0  0  0  0  0  0  0  0  0  0  0
   56.6340   29.7270   43.7560 C   0  0  0  0  0  0  0  0  0  0  0  0
   55.7778   30.0539   43.1477 H   0  0  0  0  0  0  0  0  0  0  0  0
   57.3055   29.0840   43.1681 H   0  0  0  0  0  0  0  0  0  0  0  0
   56.1410   28.9580   44.8990 N   0  0  0  0  0  0  0  0  0  0  0  0
   56.6630   27.8810   45.4160 C   0  0  0  0  0  0  0  0  0  0  0  0
   55.8280   26.9410   45.9380 N   0  0  0  0  0  0  0  0  0  0  0  0
   56.2860   25.7890   46.4940 C   0  0  0  0  0  0  0  0  0  0  0  0
   55.5755   25.0568   46.9051 H   0  0  0  0  0  0  0  0  0  0  0  0
   57.6570   25.5340   46.5440 C   0  0  0  0  0  0  0  0  0  0  0  0
   58.0342   24.6013   46.9886 H   0  0  0  0  0  0  0  0  0  0  0  0
   58.5430   26.4770   46.0230 C   0  0  0  0  0  0  0  0  0  0  0  0
   59.6267   26.2915   46.0582 H   0  0  0  0  0  0  0  0  0  0  0  0
   58.0550   27.6560   45.4570 C   0  0  0  0  0  0  0  0  0  0  0  0
   58.7500   28.4033   45.0464 H   0  0  0  0  0  0  0  0  0  0  0  0
   57.7690   31.0600   45.5620 C   0  0  0  0  0  0  0  0  0  0  0  0
   57.4783   30.2756   46.2762 H   0  0  0  0  0  0  0  0  0  0  0  0
  1  2  1  0
  2  3  2  0
  3  4  1  0
  4  5  1  0
  4  6  2  0
  6  7  1  0
  7  8  1  0
  7  9  1  0
  7 10  1  0
  6 11  1  0
 11 12  1  0
 12 13  1  0
 12 14  1  0
 12 15  1  0
 15 16  2  0
 16 17  1  0
 17 18  1  0
 18 19  1  0
 18 20  2  0
 20 21  1  0
 20 22  1  0
 22 23  1  0
 22 24  2  0
 24 25  1  0
 11 26  2  0
 26 27  1  0
 26  2  1  0
 24 16  1  0
M  CHG  1  17  -1
M  END
>  <UniqueID>  (49) 
48

>  <SMILES>  (49) 
Cc1cnccc1C/N=c1\cccc[n-]1

>  <Energy>  (49) 
31.84433690822667

>  <Genealogy>  (49) 
Cc1cnccc1CN=c1cccc[n-]1 (protonated)
Cc1cnccc1C/N=c1\cccc[n-]1 (cis-trans isomerization)
Cc1cnccc1C/N=c1\cccc[n-]1 (3D coordinates assigned)
Cc1cnccc1C/N=c1\cccc[n-]1 (optimized conformer: 31.84433690822667 kcal/mol)

>  <smiles>  (49) 
Cc1cnccc1CN=c1cccc[nH]1

>  <score_type>  (49) 
oracle

>  <origin>  (49) 
adg

>  <m_score__min__energy>  (49) 
-7.54

>  <m_primary>  (49) 
energy

$$$$
49:0
     RDKit          3D

 66 68  0  0  0  0  0  0  0  0999 V2000
   60.8360   33.8300   50.1640 C   0  0  0  0  0  0  0  0  0  0  0  0
   59.7760   34.4440   49.4380 O   0  0  0  0  0  0  0  0  0  0  0  0
   59.2740   33.9750   48.2150 C   0  0  0  0  0  0  0  0  0  0  0  0
   59.2960   34.7600   47.0470 C   0  0  0  0  0  0  0  0  0  0  0  0
   58.7740   34.2630   45.8520 C   0  0  0  0  0  0  0  0  0  0  0  0
   58.2290   32.9730   45.7990 C   0  0  0  0  0  0  0  0  0  0  0  0
   57.5980   32.4770   44.5240 C   0  0  0  0  0  0  0  0  0  0  0  0
   58.1110   31.0840   44.1340 C   0  0  0  0  0  0  0  0  0  0  0  0
   57.1500   30.0340   44.5620 N   0  0  0  0  0  0  0  0  0  0  0  0
   55.7600   30.4670   44.3180 C   0  0  0  0  0  0  0  0  0  0  0  0
   57.3950   28.7510   43.8620 C   0  0  0  0  0  0  0  0  0  0  0  0
   57.6900   27.6050   44.8530 C   0  0  0  0  0  0  0  0  0  0  0  0
   57.7670   28.0630   46.3280 C   0  0  0  0  0  0  0  0  0  0  0  0
   58.8410   29.0570   46.5950 N   0  0  0  0  0  0  0  0  0  0  0  0
   59.0800   29.1550   48.0610 C   0  0  0  0  0  0  0  0  0  0  0  0
   60.5060   29.6080   48.4490 C   0  0  0  0  0  0  0  0  0  0  0  0
   61.1560   30.3660   47.3700 N   0  0  0  0  0  0  0  0  0  0  0  0
   62.0420   31.4700   47.6590 C   0  0  0  0  0  0  0  0  0  0  0  0
   62.1130   32.6660   46.9580 C   0  0  0  0  0  0  0  0  0  0  0  0
   63.0490   33.4430   47.6100 C   0  0  0  0  0  0  0  0  0  0  0  0
   63.5320   32.7770   48.6780 N   0  0  0  0  0  0  0  0  0  0  0  0
   64.5380   33.2600   49.6160 C   0  0  0  0  0  0  0  0  0  0  0  0
   62.9350   31.5680   48.7160 C   0  0  0  0  0  0  0  0  0  0  0  0
   61.1100   29.8300   46.0010 C   0  0  0  0  0  0  0  0  0  0  0  0
   60.0850   28.6980   45.8780 C   0  0  0  0  0  0  0  0  0  0  0  0
   58.2170   32.1810   46.9570 C   0  0  0  0  0  0  0  0  0  0  0  0
   58.7340   32.6800   48.1700 C   0  0  0  0  0  0  0  0  0  0  0  0
   58.7220   31.9230   49.3530 O   0  0  0  0  0  0  0  0  0  0  0  0
   57.9510   32.2460   50.5050 C   0  0  0  0  0  0  0  0  0  0  0  0
   60.6514   33.9369   51.2431 H   0  0  0  0  0  0  0  0  0  0  0  0
   60.8875   32.7622   49.9049 H   0  0  0  0  0  0  0  0  0  0  0  0
   61.7879   34.3166   49.9049 H   0  0  0  0  0  0  0  0  0  0  0  0
   59.7273   35.7715   47.0763 H   0  0  0  0  0  0  0  0  0  0  0  0
   58.7904   34.8874   44.9465 H   0  0  0  0  0  0  0  0  0  0  0  0
   56.5079   32.4283   44.6626 H   0  0  0  0  0  0  0  0  0  0  0  0
   57.8652   33.1760   43.7178 H   0  0  0  0  0  0  0  0  0  0  0  0
   58.2351   31.0371   43.0420 H   0  0  0  0  0  0  0  0  0  0  0  0
   59.0747   30.9080   44.6343 H   0  0  0  0  0  0  0  0  0  0  0  0
   55.2511   30.6255   45.2802 H   0  0  0  0  0  0  0  0  0  0  0  0
   55.7637   31.4066   43.7460 H   0  0  0  0  0  0  0  0  0  0  0  0
   55.2294   29.6916   43.7460 H   0  0  0  0  0  0  0  0  0  0  0  0
   56.5035   28.4912   43.2723 H   0  0  0  0  0  0  0  0  0  0  0  0
   58.2746   28.8776   43.2137 H   0  0  0  0  0  0  0  0  0  0  0  0
   56.8909   26.8544   44.7637 H   0  0  0  0  0  0  0  0  0  0  0  0
   58.6782   27.1993   44.5904 H   0  0  0  0  0  0  0  0  0  0  0  0
   56.8017   28.5141   46.6015 H   0  0  0  0  0  0  0  0  0  0  0  0
   58.0011   27.1710   46.9276 H   0  0  0  0  0  0  0  0  0  0  0  0
   58.5230   29.9990   46.2640 H   0  0  0  0  0  0  0  0  0  0  0  0
   58.3642   29.8786   48.4782 H   0  0  0  0  0  0  0  0  0  0  0  0
   58.9525   28.1408   48.4673 H   0  0  0  0  0  0  0  0  0  0  0  0
   60.4451   30.2451   49.3437 H   0  0  0  0  0  0  0  0  0  0  0  0
   61.1078   28.7076   48.6418 H   0  0  0  0  0  0  0  0  0  0  0  0
   61.5378   32.9400   46.0613 H   0  0  0  0  0  0  0  0  0  0  0  0
   63.3551   34.4543   47.3040 H   0  0  0  0  0  0  0  0  0  0  0  0
   64.1895   33.0927   50.6458 H   0  0  0  0  0  0  0  0  0  0  0  0
   65.4805   32.7162   49.4550 H   0  0  0  0  0  0  0  0  0  0  0  0
   64.7031   34.3356   49.4550 H   0  0  0  0  0  0  0  0  0  0  0  0
   63.1257   30.7853   49.4650 H   0  0  0  0  0  0  0  0  0  0  0  0
   60.8342   30.6393   45.3089 H   0  0  0  0  0  0  0  0  0  0  0  0
   62.1029   29.4263   45.7538 H   0  0  0  0  0  0  0  0  0  0  0  0
   59.8563   28.5283   44.8155 H   0  0  0  0  0  0  0  0  0  0  0  0
   60.5046   27.7831   46.3217 H   0  0  0  0  0  0  0  0  0  0  0  0
   57.8012   31.1633   46.9182 H   0  0  0  0  0  0  0  0  0  0  0  0
   58.5266   32.0049   51.4109 H   0  0  0  0  0  0  0  0  0  0  0  0
   57.7123   33.3198   50.4972 H   0  0  0  0  0  0  0  0  0  0  0  0
   57.0182   31.6630   50.4972 H   0  0  0  0  0  0  0  0  0  0  0  0
  1  2  1  0
  2  3  1  0
  3  4  2  0
  4  5  1  0
  5  6  2  0
  6  7  1  0
  7  8  1  0
  8  9  1  0
  9 10  1  0
  9 11  1  0
 11 12  1  0
 12 13  1  0
 13 14  1  0
 14 15  1  0
 15 16  1  0
 16 17  1  0
 17 18  1  0
 18 19  1  0
 19 20  2  0
 20 21  1  0
 21 22  1  0
 21 23  1  0
 17 24  1  0
 24 25  1  0
  6 26  1  0
 26 27  2  0
 27 28  1  0
 28 29  1  0
 27  3  1  0
 25 14  1  0
 23 18  2  0
  1 30  1  0
  1 31  1  0
  1 32  1  0
  4 33  1  0
  5 34  1  0
  7 35  1  0
  7 36  1  0
  8 37  1  0
  8 38  1  0
 10 39  1  0
 10 40  1  0
 10 41  1  0
 11 42  1  0
 11 43  1  0
 12 44  1  0
 12 45  1  0
 13 46  1  0
 13 47  1  0
 14 48  1  0
 15 49  1  0
 15 50  1  0
 16 51  1  0
 16 52  1  0
 19 53  1  0
 20 54  1  0
 22 55  1  0
 22 56  1  0
 22 57  1  0
 23 58  1  0
 24 59  1  0
 24 60  1  0
 25 61  1  0
 25 62  1  0
 26 63  1  0
 29 64  1  0
 29 65  1  0
 29 66  1  0
M  CHG  1  14   1
M  END
>  <UniqueID>  (50) 
49

>  <SMILES>  (50) 
COc1ccc(CCN(C)CCC[NH+]2CCN(c3ccn(C)c3)CC2)cc1OC

>  <Energy>  (50) 
95.37755790625765

>  <Genealogy>  (50) 
COc1ccc(CCN(C)CCC[NH+]2CCN(c3ccn(C)c3)CC2)cc1OC (protonated)
COc1ccc(CCN(C)CCC[NH+]2CCN(c3ccn(C)c3)CC2)cc1OC (3D coordinates assigned)
COc1ccc(CCN(C)CCC[NH+]2CCN(c3ccn(C)c3)CC2)cc1OC (nonaromatic ring conformer: 95.37755790625765 kcal/mol)

>  <smiles>  (50) 
COc1ccc(CCN(C)CCCN2CCN(c3ccn(C)c3)CC2)cc1OC

>  <score_type>  (50) 
oracle

>  <origin>  (50) 
adg

>  <m_score__min__energy>  (50) 
-6.5300000000000002

>  <m_primary>  (50) 
energy

$$$$
