0:0
     RDKit          3D

 19 18  0  0  0  0  0  0  0  0999 V2000
   57.4010   33.1600   45.1830 C   0  0  0  0  0  0  0  0  0  0  0  0
   57.4050   31.9410   44.2500 C   0  0  0  0  0  0  0  0  0  0  0  0
   56.8800   30.7030   44.8710 N   0  0  0  0  0  0  0  0  0  0  0  0
   57.9530   29.7420   45.1870 C   0  0  0  0  0  0  0  0  0  0  0  0
   55.7960   30.0840   44.0770 C   0  0  0  0  0  0  0  0  0  0  0  0
   56.2920   29.7160   42.6810 C   0  0  0  0  0  0  0  0  0  0  0  0
   57.4021   32.8208   46.2294 H   0  0  0  0  0  0  0  0  0  0  0  0
   58.2972   33.7693   44.9941 H   0  0  0  0  0  0  0  0  0  0  0  0
   56.5009   33.7634   44.9941 H   0  0  0  0  0  0  0  0  0  0  0  0
   56.7861   32.1762   43.3715 H   0  0  0  0  0  0  0  0  0  0  0  0
   58.4554   31.7444   43.9891 H   0  0  0  0  0  0  0  0  0  0  0  0
   58.0542   29.6513   46.2786 H   0  0  0  0  0  0  0  0  0  0  0  0
   57.7034   28.7599   44.7591 H   0  0  0  0  0  0  0  0  0  0  0  0
   58.9018   30.0980   44.7591 H   0  0  0  0  0  0  0  0  0  0  0  0
   55.4484   29.1741   44.5882 H   0  0  0  0  0  0  0  0  0  0  0  0
   54.9718   30.8061   43.9804 H   0  0  0  0  0  0  0  0  0  0  0  0
   57.1728   29.0625   42.7653 H   0  0  0  0  0  0  0  0  0  0  0  0
   55.4951   29.1889   42.1359 H   0  0  0  0  0  0  0  0  0  0  0  0
   56.5655   30.6315   42.1359 H   0  0  0  0  0  0  0  0  0  0  0  0
  1  2  1  0
  2  3  1  0
  3  4  1  0
  3  5  1  0
  5  6  1  0
  1  7  1  0
  1  8  1  0
  1  9  1  0
  2 10  1  0
  2 11  1  0
  4 12  1  0
  4 13  1  0
  4 14  1  0
  5 15  1  0
  5 16  1  0
  6 17  1  0
  6 18  1  0
  6 19  1  0
M  END
>  <UniqueID>  (1) 
1

>  <SMILES>  (1) 
CCN(C)CC

>  <Energy>  (1) 
13.791761233687824

>  <Genealogy>  (1) 
CCN(C)CC (3D coordinates assigned)
CCN(C)CC (optimized conformer: 13.791761233687824 kcal/mol)

>  <smiles>  (1) 
CCN(C)CC

>  <score_type>  (1) 
oracle

>  <origin>  (1) 
adg

>  <m_score__min__energy>  (1) 
-3.1000000000000001

>  <m_primary>  (1) 
energy

$$$$
1:0
     RDKit          3D

 71 73  0  0  0  0  0  0  0  0999 V2000
   67.0630   32.6880   50.4580 C   0  0  0  0  0  0  0  0  0  0  0  0
   65.6820   32.0420   50.3680 C   0  0  0  0  0  0  0  0  0  0  0  0
   64.7170   32.8760   49.4990 C   0  0  0  0  0  0  0  0  0  0  0  0
   63.3040   32.4570   49.6940 N   0  0  0  0  0  0  0  0  0  0  0  0
   62.4350   33.0090   48.6100 C   0  0  0  0  0  0  0  0  0  0  0  0
   62.9410   32.6320   47.2030 C   0  0  0  0  0  0  0  0  0  0  0  0
   63.3100   33.8640   46.3720 C   0  0  0  0  0  0  0  0  0  0  0  0
   62.7830   32.9060   51.0170 C   0  0  0  0  0  0  0  0  0  0  0  0
   62.4570   31.7630   51.9950 C   0  0  0  0  0  0  0  0  0  0  0  0
   62.5950   30.4920   51.3690 O   0  0  0  0  0  0  0  0  0  0  0  0
   61.5880   29.9370   50.5750 C   0  0  0  0  0  0  0  0  0  0  0  0
   61.5800   30.1130   49.3240 O   0  0  0  0  0  0  0  0  0  0  0  0
   60.4790   29.1680   51.2250 C   0  0  0  0  0  0  0  0  0  0  0  0
   59.0930   29.7630   50.9130 C   0  0  0  0  0  0  0  0  0  0  0  0
   59.0360   31.3040   50.9050 C   0  0  0  0  0  0  0  0  0  0  0  0
   58.6130   31.9010   49.5560 C   0  0  0  0  0  0  0  0  0  0  0  0
   59.4050   31.3430   48.4580 N   0  0  0  0  0  0  0  0  0  0  0  0
   59.0300   31.4990   47.0770 C   0  0  0  0  0  0  0  0  0  0  0  0
   58.6440   30.3830   46.3090 C   0  0  0  0  0  0  0  0  0  0  0  0
   58.5580   29.0980   46.8840 C   0  0  0  0  0  0  0  0  0  0  0  0
   58.2800   27.9810   46.1000 C   0  0  0  0  0  0  0  0  0  0  0  0
   58.0630   28.1270   44.7360 C   0  0  0  0  0  0  0  0  0  0  0  0
   58.0810   29.3940   44.1550 C   0  0  0  0  0  0  0  0  0  0  0  0
   58.3180   30.5550   44.9370 C   0  0  0  0  0  0  0  0  0  0  0  0
   58.2390   31.8240   44.3950 N   0  0  0  0  0  0  0  0  0  0  0  0
   57.6050   32.0240   43.0700 C   0  0  0  0  0  0  0  0  0  0  0  0
   58.7090   32.9130   45.1070 C   0  0  0  0  0  0  0  0  0  0  0  0
   58.8620   34.1890   44.5040 C   0  0  0  0  0  0  0  0  0  0  0  0
   59.2910   35.2890   45.2440 C   0  0  0  0  0  0  0  0  0  0  0  0
   59.6000   35.1500   46.5900 C   0  0  0  0  0  0  0  0  0  0  0  0
   59.4980   33.9050   47.2020 C   0  0  0  0  0  0  0  0  0  0  0  0
   59.0720   32.7720   46.4730 C   0  0  0  0  0  0  0  0  0  0  0  0
   67.3392   32.8172   51.5149 H   0  0  0  0  0  0  0  0  0  0  0  0
   67.8028   32.0425   49.9620 H   0  0  0  0  0  0  0  0  0  0  0  0
   67.0417   33.6696   49.9620 H   0  0  0  0  0  0  0  0  0  0  0  0
   65.7852   31.0404   49.9252 H   0  0  0  0  0  0  0  0  0  0  0  0
   65.2643   31.9829   51.3839 H   0  0  0  0  0  0  0  0  0  0  0  0
   64.8159   33.9367   49.7732 H   0  0  0  0  0  0  0  0  0  0  0  0
   64.9804   32.7170   48.4429 H   0  0  0  0  0  0  0  0  0  0  0  0
   63.2620   31.4110   49.6640 H   0  0  0  0  0  0  0  0  0  0  0  0
   61.4167   32.6130   48.7372 H   0  0  0  0  0  0  0  0  0  0  0  0
   62.4534   34.1059   48.6907 H   0  0  0  0  0  0  0  0  0  0  0  0
   63.8314   31.9943   47.3058 H   0  0  0  0  0  0  0  0  0  0  0  0
   62.1286   32.1041   46.6821 H   0  0  0  0  0  0  0  0  0  0  0  0
   63.5599   34.6982   47.0441 H   0  0  0  0  0  0  0  0  0  0  0  0
   64.1780   33.6317   45.7375 H   0  0  0  0  0  0  0  0  0  0  0  0
   62.4572   34.1471   45.7375 H   0  0  0  0  0  0  0  0  0  0  0  0
   63.5412   33.5520   51.4837 H   0  0  0  0  0  0  0  0  0  0  0  0
   61.8356   33.4289   50.8194 H   0  0  0  0  0  0  0  0  0  0  0  0
   63.1449   31.8172   52.8517 H   0  0  0  0  0  0  0  0  0  0  0  0
   61.4140   31.8758   52.3259 H   0  0  0  0  0  0  0  0  0  0  0  0
   60.5082   28.1301   50.8617 H   0  0  0  0  0  0  0  0  0  0  0  0
   60.6287   29.2174   52.3136 H   0  0  0  0  0  0  0  0  0  0  0  0
   58.7824   29.4042   49.9206 H   0  0  0  0  0  0  0  0  0  0  0  0
   58.4258   29.4333   51.7230 H   0  0  0  0  0  0  0  0  0  0  0  0
   58.3145   31.6284   51.6694 H   0  0  0  0  0  0  0  0  0  0  0  0
   60.0554   31.6634   51.1090 H   0  0  0  0  0  0  0  0  0  0  0  0
   57.5503   31.6767   49.3819 H   0  0  0  0  0  0  0  0  0  0  0  0
   58.7799   32.9878   49.5885 H   0  0  0  0  0  0  0  0  0  0  0  0
   60.1610   30.6630   48.6970 H   0  0  0  0  0  0  0  0  0  0  0  0
   58.7126   28.9764   47.9663 H   0  0  0  0  0  0  0  0  0  0  0  0
   58.2323   26.9834   46.5610 H   0  0  0  0  0  0  0  0  0  0  0  0
   57.8764   27.2403   44.1124 H   0  0  0  0  0  0  0  0  0  0  0  0
   57.9088   29.4959   43.0733 H   0  0  0  0  0  0  0  0  0  0  0  0
   56.5642   32.3523   43.2074 H   0  0  0  0  0  0  0  0  0  0  0  0
   58.1604   32.7906   42.5097 H   0  0  0  0  0  0  0  0  0  0  0  0
   57.6200   31.0775   42.5097 H   0  0  0  0  0  0  0  0  0  0  0  0
   58.6380   34.3115   43.4340 H   0  0  0  0  0  0  0  0  0  0  0  0
   59.3852   36.2719   44.7593 H   0  0  0  0  0  0  0  0  0  0  0  0
   59.9255   36.0243   47.1727 H   0  0  0  0  0  0  0  0  0  0  0  0
   59.7522   33.8012   48.2672 H   0  0  0  0  0  0  0  0  0  0  0  0
  1  2  1  0
  2  3  1  0
  3  4  1  0
  4  5  1  0
  5  6  1  0
  6  7  1  0
  4  8  1  0
  8  9  1  0
  9 10  1  0
 10 11  1  0
 11 12  2  0
 11 13  1  0
 13 14  1  0
 14 15  1  0
 15 16  1  0
 16 17  1  0
 17 18  1  0
 18 19  2  0
 19 20  1  0
 20 21  2  0
 21 22  1  0
 22 23  2  0
 23 24  1  0
 24 25  2  0
 25 26  1  0
 25 27  1  0
 27 28  2  0
 28 29  1  0
 29 30  2  0
 30 31  1  0
 31 32  2  0
 32 18  1  0
 24 19  1  0
 32 27  1  0
  1 33  1  0
  1 34  1  0
  1 35  1  0
  2 36  1  0
  2 37  1  0
  3 38  1  0
  3 39  1  0
  4 40  1  0
  5 41  1  0
  5 42  1  0
  6 43  1  0
  6 44  1  0
  7 45  1  0
  7 46  1  0
  7 47  1  0
  8 48  1  0
  8 49  1  0
  9 50  1  0
  9 51  1  0
 13 52  1  0
 13 53  1  0
 14 54  1  0
 14 55  1  0
 15 56  1  0
 15 57  1  0
 16 58  1  0
 16 59  1  0
 17 60  1  0
 20 61  1  0
 21 62  1  0
 22 63  1  0
 23 64  1  0
 26 65  1  0
 26 66  1  0
 26 67  1  0
 28 68  1  0
 29 69  1  0
 30 70  1  0
 31 71  1  0
M  CHG  2   4   1  25   1
M  END
>  <UniqueID>  (2) 
2

>  <SMILES>  (2) 
CCC[NH+](CCC)CCOC(=O)CCCCNc1c2ccccc2[n+](C)c2ccccc12

>  <Energy>  (2) 
86.74477472485947

>  <Genealogy>  (2) 
CCC[NH+](CCC)CCOC(=O)CCCCNc1c2ccccc2[n+](C)c2ccccc12 (protonated)
CCC[NH+](CCC)CCOC(=O)CCCCNc1c2ccccc2[n+](C)c2ccccc12 (3D coordinates assigned)
CCC[NH+](CCC)CCOC(=O)CCCCNc1c2ccccc2[n+](C)c2ccccc12 (optimized conformer: 86.74477472485947 kcal/mol)

>  <smiles>  (2) 
CCCN(CCC)CCOC(=O)CCCCNc1c2ccccc2[n+](C)c2ccccc12

>  <score_type>  (2) 
oracle

>  <origin>  (2) 
adg

>  <m_score__min__energy>  (2) 
-4.7599999999999998

>  <m_primary>  (2) 
energy

$$$$
2:0
     RDKit          3D

 48 48  0  0  0  0  0  0  0  0999 V2000
   59.6890   27.3560   46.8850 C   0  0  0  0  0  0  0  0  0  0  0  0
   58.3460   27.9090   47.3490 C   0  0  0  0  0  0  0  0  0  0  0  0
   57.5070   28.2640   46.1990 N   0  0  0  0  0  0  0  0  0  0  0  0
   57.4610   27.1740   45.2140 C   0  0  0  0  0  0  0  0  0  0  0  0
   58.1320   27.6100   43.9090 C   0  0  0  0  0  0  0  0  0  0  0  0
   58.0020   29.0090   43.7440 O   0  0  0  0  0  0  0  0  0  0  0  0
   56.7610   29.3310   43.1480 C   0  0  0  0  0  0  0  0  0  0  0  0
   55.9840   30.2620   44.0850 C   0  0  0  0  0  0  0  0  0  0  0  0
   56.8640   30.9750   45.0260 N   0  0  0  0  0  0  0  0  0  0  0  0
   57.5640   32.1360   44.4480 C   0  0  0  0  0  0  0  0  0  0  0  0
   57.3520   33.4480   45.2420 C   0  0  0  0  0  0  0  0  0  0  0  0
   58.6600   34.1230   45.6940 C   0  0  0  0  0  0  0  0  0  0  0  0
   59.0460   33.7180   47.0500 N   0  0  0  0  0  0  0  0  0  0  0  0
   60.3130   33.1010   47.3390 C   0  0  0  0  0  0  0  0  0  0  0  0
   61.3520   33.8600   47.9150 C   0  0  0  0  0  0  0  0  0  0  0  0
   62.6250   33.3110   48.0840 C   0  0  0  0  0  0  0  0  0  0  0  0
   62.8830   32.0050   47.6750 C   0  0  0  0  0  0  0  0  0  0  0  0
   61.8610   31.2310   47.1190 C   0  0  0  0  0  0  0  0  0  0  0  0
   60.5660   31.7570   46.9590 C   0  0  0  0  0  0  0  0  0  0  0  0
   59.5150   30.9070   46.4650 N   0  0  0  0  0  0  0  0  0  0  0  0
   58.4910   30.7100   47.1500 O   0  0  0  0  0  0  0  0  0  0  0  0
   59.7380   30.1000   45.3710 O   0  0  0  0  0  0  0  0  0  0  0  0
   60.3038   27.1028   47.7613 H   0  0  0  0  0  0  0  0  0  0  0  0
   59.5241   26.4526   46.2795 H   0  0  0  0  0  0  0  0  0  0  0  0
   60.2080   28.1136   46.2795 H   0  0  0  0  0  0  0  0  0  0  0  0
   57.8299   27.1466   47.9510 H   0  0  0  0  0  0  0  0  0  0  0  0
   58.5240   28.8130   47.9499 H   0  0  0  0  0  0  0  0  0  0  0  0
   57.9480   29.0920   45.7330 H   0  0  0  0  0  0  0  0  0  0  0  0
   57.9881   26.2971   45.6180 H   0  0  0  0  0  0  0  0  0  0  0  0
   56.4104   26.9202   45.0093 H   0  0  0  0  0  0  0  0  0  0  0  0
   59.1989   27.3442   43.9411 H   0  0  0  0  0  0  0  0  0  0  0  0
   57.6465   27.0993   43.0643 H   0  0  0  0  0  0  0  0  0  0  0  0
   56.9338   29.8362   42.1863 H   0  0  0  0  0  0  0  0  0  0  0  0
   56.1826   28.4116   42.9741 H   0  0  0  0  0  0  0  0  0  0  0  0
   55.4426   31.0024   43.4778 H   0  0  0  0  0  0  0  0  0  0  0  0
   55.2936   29.6423   44.6761 H   0  0  0  0  0  0  0  0  0  0  0  0
   57.5750   30.3010   45.3930 H   0  0  0  0  0  0  0  0  0  0  0  0
   58.6413   31.9151   44.4232 H   0  0  0  0  0  0  0  0  0  0  0  0
   57.1457   32.2966   43.4434 H   0  0  0  0  0  0  0  0  0  0  0  0
   56.8009   34.1540   44.6033 H   0  0  0  0  0  0  0  0  0  0  0  0
   56.7982   33.1825   46.1546 H   0  0  0  0  0  0  0  0  0  0  0  0
   59.4637   33.8429   44.9971 H   0  0  0  0  0  0  0  0  0  0  0  0
   58.4980   35.2110   45.6970 H   0  0  0  0  0  0  0  0  0  0  0  0
   58.4010   33.9130   47.8490 H   0  0  0  0  0  0  0  0  0  0  0  0
   61.1582   34.8946   48.2344 H   0  0  0  0  0  0  0  0  0  0  0  0
   63.4254   33.9113   48.5411 H   0  0  0  0  0  0  0  0  0  0  0  0
   63.8921   31.5824   47.7897 H   0  0  0  0  0  0  0  0  0  0  0  0
   62.0714   30.1987   46.8028 H   0  0  0  0  0  0  0  0  0  0  0  0
  1  2  1  0
  2  3  1  0
  3  4  1  0
  4  5  1  0
  5  6  1  0
  6  7  1  0
  7  8  1  0
  8  9  1  0
  9 10  1  0
 10 11  1  0
 11 12  1  0
 12 13  1  0
 13 14  1  0
 14 15  2  0
 15 16  1  0
 16 17  2  0
 17 18  1  0
 18 19  2  0
 19 20  1  0
 20 21  2  0
 20 22  1  0
 19 14  1  0
  1 23  1  0
  1 24  1  0
  1 25  1  0
  2 26  1  0
  2 27  1  0
  3 28  1  0
  4 29  1  0
  4 30  1  0
  5 31  1  0
  5 32  1  0
  7 33  1  0
  7 34  1  0
  8 35  1  0
  8 36  1  0
  9 37  1  0
 10 38  1  0
 10 39  1  0
 11 40  1  0
 11 41  1  0
 12 42  1  0
 12 43  1  0
 13 44  1  0
 15 45  1  0
 16 46  1  0
 17 47  1  0
 18 48  1  0
M  CHG  2  20   1  22  -1
M  END
>  <UniqueID>  (3) 
3

>  <SMILES>  (3) 
CCNCCOCCNCCCNc1ccccc1[N+](=O)[O-]

>  <Energy>  (3) 
45.08313164136239

>  <Genealogy>  (3) 
CCNCCOCCNCCCNc1ccccc1[N+](=O)[O-] (3D coordinates assigned)
CCNCCOCCNCCCNc1ccccc1[N+](=O)[O-] (optimized conformer: 45.08313164136239 kcal/mol)

>  <smiles>  (3) 
CCNCCOCCNCCCNc1ccccc1[N+](=O)[O-]

>  <score_type>  (3) 
oracle

>  <origin>  (3) 
adg

>  <m_score__min__energy>  (3) 
-4.2400000000000002

>  <m_primary>  (3) 
energy

$$$$
3:0
     RDKit          3D

 68 70  0  0  0  0  0  0  0  0999 V2000
   59.6510   22.3130   44.9400 C   0  0  0  0  0  0  0  0  0  0  0  0
   58.3790   21.8430   44.2470 C   0  0  0  0  0  0  0  0  0  0  0  0
   57.3840   22.9240   44.2370 N   0  0  0  0  0  0  0  0  0  0  0  0
   56.2770   22.6340   43.3110 C   0  0  0  0  0  0  0  0  0  0  0  0
   55.1440   23.6610   43.4620 C   0  0  0  0  0  0  0  0  0  0  0  0
   54.3850   23.5330   44.7650 C   0  0  0  0  0  0  0  0  0  0  0  0
   53.1540   23.2630   44.7590 O   0  0  0  0  0  0  0  0  0  0  0  0
   55.0710   23.5660   46.0210 N   0  0  0  0  0  0  0  0  0  0  0  0
   55.9910   24.5780   46.4450 C   0  0  0  0  0  0  0  0  0  0  0  0
   56.9880   24.2990   47.4140 C   0  0  0  0  0  0  0  0  0  0  0  0
   57.9210   25.2830   47.7870 C   0  0  0  0  0  0  0  0  0  0  0  0
   57.8440   26.5310   47.1700 C   0  0  0  0  0  0  0  0  0  0  0  0
   56.8840   26.7990   46.2100 C   0  0  0  0  0  0  0  0  0  0  0  0
   55.9540   25.8370   45.8180 C   0  0  0  0  0  0  0  0  0  0  0  0
   57.0680   28.1710   45.7450 C   0  0  0  0  0  0  0  0  0  0  0  0
   56.3810   28.7710   44.8770 O   0  0  0  0  0  0  0  0  0  0  0  0
   58.2060   28.7070   46.4840 C   0  0  0  0  0  0  0  0  0  0  0  0
   58.8090   29.9600   46.4150 C   0  0  0  0  0  0  0  0  0  0  0  0
   59.9350   30.2120   47.2280 C   0  0  0  0  0  0  0  0  0  0  0  0
   60.5610   31.5030   47.1720 N   0  0  0  0  0  0  0  0  0  0  0  0
   61.8060   31.8200   47.8150 C   0  0  0  0  0  0  0  0  0  0  0  0
   62.5150   30.9030   48.3130 O   0  0  0  0  0  0  0  0  0  0  0  0
   62.3140   33.2350   47.7810 C   0  0  0  0  0  0  0  0  0  0  0  0
   62.2130   33.8680   46.3890 C   0  0  0  0  0  0  0  0  0  0  0  0
   60.8190   34.2440   46.1180 N   0  0  0  0  0  0  0  0  0  0  0  0
   60.0890   34.5760   47.3540 C   0  0  0  0  0  0  0  0  0  0  0  0
   58.5810   34.6200   47.0800 C   0  0  0  0  0  0  0  0  0  0  0  0
   58.0090   33.2310   46.7570 C   0  0  0  0  0  0  0  0  0  0  0  0
   58.2940   32.8630   45.3520 N   0  0  0  0  0  0  0  0  0  0  0  0
   57.2180   32.0080   44.8230 C   0  0  0  0  0  0  0  0  0  0  0  0
   58.4210   34.0640   44.5070 C   0  0  0  0  0  0  0  0  0  0  0  0
   60.3980   29.2060   48.1160 C   0  0  0  0  0  0  0  0  0  0  0  0
   59.7700   27.9490   48.1690 C   0  0  0  0  0  0  0  0  0  0  0  0
   58.6750   27.7240   47.3390 C   0  0  0  0  0  0  0  0  0  0  0  0
   59.5146   22.2626   46.0303 H   0  0  0  0  0  0  0  0  0  0  0  0
   60.4899   21.6655   44.6451 H   0  0  0  0  0  0  0  0  0  0  0  0
   59.8673   23.3504   44.6451 H   0  0  0  0  0  0  0  0  0  0  0  0
   58.6135   21.5540   43.2119 H   0  0  0  0  0  0  0  0  0  0  0  0
   57.9689   20.9795   44.7913 H   0  0  0  0  0  0  0  0  0  0  0  0
   56.9830   22.9960   45.2010 H   0  0  0  0  0  0  0  0  0  0  0  0
   56.6550   22.6657   42.2785 H   0  0  0  0  0  0  0  0  0  0  0  0
   55.8773   21.6367   43.5467 H   0  0  0  0  0  0  0  0  0  0  0  0
   55.5790   24.6700   43.4098 H   0  0  0  0  0  0  0  0  0  0  0  0
   54.4267   23.4743   42.6492 H   0  0  0  0  0  0  0  0  0  0  0  0
   57.0321   23.3029   47.8786 H   0  0  0  0  0  0  0  0  0  0  0  0
   58.6904   25.0738   48.5448 H   0  0  0  0  0  0  0  0  0  0  0  0
   55.2100   26.0568   45.0381 H   0  0  0  0  0  0  0  0  0  0  0  0
   58.4166   30.7364   45.7418 H   0  0  0  0  0  0  0  0  0  0  0  0
   60.1450   32.2220   46.5360 H   0  0  0  0  0  0  0  0  0  0  0  0
   61.7222   33.8381   48.4853 H   0  0  0  0  0  0  0  0  0  0  0  0
   63.3782   33.2120   48.0584 H   0  0  0  0  0  0  0  0  0  0  0  0
   62.8486   34.7648   46.3478 H   0  0  0  0  0  0  0  0  0  0  0  0
   62.5491   33.1431   45.6330 H   0  0  0  0  0  0  0  0  0  0  0  0
   60.3480   33.4260   45.6610 H   0  0  0  0  0  0  0  0  0  0  0  0
   60.2980   33.8112   48.1165 H   0  0  0  0  0  0  0  0  0  0  0  0
   60.4185   35.5623   47.7127 H   0  0  0  0  0  0  0  0  0  0  0  0
   58.0705   35.0150   47.9707 H   0  0  0  0  0  0  0  0  0  0  0  0
   58.4155   35.2652   46.2046 H   0  0  0  0  0  0  0  0  0  0  0  0
   58.4672   32.4872   47.4254 H   0  0  0  0  0  0  0  0  0  0  0  0
   56.9190   33.2541   46.9030 H   0  0  0  0  0  0  0  0  0  0  0  0
   56.6584   31.5634   45.6592 H   0  0  0  0  0  0  0  0  0  0  0  0
   56.5372   32.6142   44.2074 H   0  0  0  0  0  0  0  0  0  0  0  0
   57.6547   31.2078   44.2074 H   0  0  0  0  0  0  0  0  0  0  0  0
   58.5151   34.9540   45.1465 H   0  0  0  0  0  0  0  0  0  0  0  0
   59.3145   33.9727   43.8719 H   0  0  0  0  0  0  0  0  0  0  0  0
   57.5282   34.1616   43.8719 H   0  0  0  0  0  0  0  0  0  0  0  0
   61.2580   29.4121   48.7702 H   0  0  0  0  0  0  0  0  0  0  0  0
   60.1342   27.1642   48.8483 H   0  0  0  0  0  0  0  0  0  0  0  0
  1  2  1  0
  2  3  1  0
  3  4  1  0
  4  5  1  0
  5  6  1  0
  6  7  2  0
  6  8  1  0
  8  9  1  0
  9 10  2  0
 10 11  1  0
 11 12  2  0
 12 13  1  0
 13 14  2  0
 13 15  1  0
 15 16  2  0
 15 17  1  0
 17 18  2  0
 18 19  1  0
 19 20  1  0
 20 21  1  0
 21 22  2  0
 21 23  1  0
 23 24  1  0
 24 25  1  0
 25 26  1  0
 26 27  1  0
 27 28  1  0
 28 29  1  0
 29 30  1  0
 29 31  1  0
 19 32  2  0
 32 33  1  0
 33 34  2  0
 14  9  1  0
 34 17  1  0
 34 12  1  0
  1 35  1  0
  1 36  1  0
  1 37  1  0
  2 38  1  0
  2 39  1  0
  3 40  1  0
  4 41  1  0
  4 42  1  0
  5 43  1  0
  5 44  1  0
 10 45  1  0
 11 46  1  0
 14 47  1  0
 18 48  1  0
 20 49  1  0
 23 50  1  0
 23 51  1  0
 24 52  1  0
 24 53  1  0
 25 54  1  0
 26 55  1  0
 26 56  1  0
 27 57  1  0
 27 58  1  0
 28 59  1  0
 28 60  1  0
 30 61  1  0
 30 62  1  0
 30 63  1  0
 31 64  1  0
 31 65  1  0
 31 66  1  0
 32 67  1  0
 33 68  1  0
M  CHG  1   8  -1
M  END
>  <UniqueID>  (4) 
4

>  <SMILES>  (4) 
CCNCCC(=O)[N-]c1ccc2c(c1)C(=O)c1cc(NC(=O)CCNCCCN(C)C)ccc1-2

>  <Energy>  (4) 
103.14366132543964

>  <Genealogy>  (4) 
CCNCCC(=O)[N-]c1ccc2c(c1)C(=O)c1cc(NC(=O)CCNCCCN(C)C)ccc1-2 (protonated)
CCNCCC(=O)[N-]c1ccc2c(c1)C(=O)c1cc(NC(=O)CCNCCCN(C)C)ccc1-2 (3D coordinates assigned)
CCNCCC(=O)[N-]c1ccc2c(c1)C(=O)c1cc(NC(=O)CCNCCCN(C)C)ccc1-2 (nonaromatic ring conformer: 103.14366132543964 kcal/mol)

>  <smiles>  (4) 
CCNCCC(=O)Nc1ccc2c(c1)C(=O)c1cc(NC(=O)CCNCCCN(C)C)ccc1-2

>  <score_type>  (4) 
oracle

>  <origin>  (4) 
adg

>  <m_score__min__energy>  (4) 
-10.07

>  <m_primary>  (4) 
energy

$$$$
4:0
     RDKit          3D

 40 40  0  0  0  0  0  0  0  0999 V2000
   57.1710   33.2170   45.2050 C   0  0  0  0  0  0  0  0  0  0  0  0
   58.1380   33.0120   44.0430 C   0  0  0  0  0  0  0  0  0  0  0  0
   58.1970   31.5940   43.6590 N   0  0  0  0  0  0  0  0  0  0  0  0
   57.0490   31.2160   42.8230 C   0  0  0  0  0  0  0  0  0  0  0  0
   56.1930   30.1630   43.5340 C   0  0  0  0  0  0  0  0  0  0  0  0
   56.6000   29.9920   44.8720 O   0  0  0  0  0  0  0  0  0  0  0  0
   57.6440   29.1180   44.8590 N   0  0  0  0  0  0  0  0  0  0  0  0
   57.7880   28.5440   46.1990 C   0  0  0  0  0  0  0  0  0  0  0  0
   58.6800   29.4160   47.1070 C   0  0  0  0  0  0  0  0  0  0  0  0
   59.0860   30.6710   46.4490 N   0  0  0  0  0  0  0  0  0  0  0  0
   59.4110   31.7550   47.3900 C   0  0  0  0  0  0  0  0  0  0  0  0
   60.8550   32.2000   47.2760 C   0  0  0  0  0  0  0  0  0  0  0  0
   61.8710   31.2860   47.6060 C   0  0  0  0  0  0  0  0  0  0  0  0
   63.2160   31.6470   47.4940 C   0  0  0  0  0  0  0  0  0  0  0  0
   63.5620   32.9230   47.0530 C   0  0  0  0  0  0  0  0  0  0  0  0
   62.5660   33.8440   46.7240 C   0  0  0  0  0  0  0  0  0  0  0  0
   61.2140   33.4950   46.8310 C   0  0  0  0  0  0  0  0  0  0  0  0
   60.0150   34.7080   46.3930 Cl  0  0  0  0  0  0  0  0  0  0  0  0
   57.7114   33.1024   46.1563 H   0  0  0  0  0  0  0  0  0  0  0  0
   56.7385   34.2268   45.1483 H   0  0  0  0  0  0  0  0  0  0  0  0
   56.3659   32.4696   45.1483 H   0  0  0  0  0  0  0  0  0  0  0  0
   57.7980   33.6054   43.1815 H   0  0  0  0  0  0  0  0  0  0  0  0
   59.1415   33.3350   44.3572 H   0  0  0  0  0  0  0  0  0  0  0  0
   58.1450   31.0300   44.5400 H   0  0  0  0  0  0  0  0  0  0  0  0
   56.4360   32.1076   42.6249 H   0  0  0  0  0  0  0  0  0  0  0  0
   57.4203   30.7942   41.8774 H   0  0  0  0  0  0  0  0  0  0  0  0
   55.1414   30.4852   43.5176 H   0  0  0  0  0  0  0  0  0  0  0  0
   56.3140   29.2042   43.0086 H   0  0  0  0  0  0  0  0  0  0  0  0
   58.5080   29.6610   44.6260 H   0  0  0  0  0  0  0  0  0  0  0  0
   56.7918   28.4570   46.6573 H   0  0  0  0  0  0  0  0  0  0  0  0
   58.2660   27.5585   46.0976 H   0  0  0  0  0  0  0  0  0  0  0  0
   58.1216   29.6606   48.0226 H   0  0  0  0  0  0  0  0  0  0  0  0
   59.5915   28.8439   47.3348 H   0  0  0  0  0  0  0  0  0  0  0  0
   58.3750   30.9870   45.7490 H   0  0  0  0  0  0  0  0  0  0  0  0
   58.7579   32.6146   47.1789 H   0  0  0  0  0  0  0  0  0  0  0  0
   59.2552   31.3739   48.4101 H   0  0  0  0  0  0  0  0  0  0  0  0
   61.6046   30.2776   47.9555 H   0  0  0  0  0  0  0  0  0  0  0  0
   64.0026   30.9234   47.7541 H   0  0  0  0  0  0  0  0  0  0  0  0
   64.6216   33.2048   46.9641 H   0  0  0  0  0  0  0  0  0  0  0  0
   62.8449   34.8504   46.3785 H   0  0  0  0  0  0  0  0  0  0  0  0
  1  2  1  0
  2  3  1  0
  3  4  1  0
  4  5  1  0
  5  6  1  0
  6  7  1  0
  7  8  1  0
  8  9  1  0
  9 10  1  0
 10 11  1  0
 11 12  1  0
 12 13  2  0
 13 14  1  0
 14 15  2  0
 15 16  1  0
 16 17  2  0
 17 18  1  0
 17 12  1  0
  1 19  1  0
  1 20  1  0
  1 21  1  0
  2 22  1  0
  2 23  1  0
  3 24  1  0
  4 25  1  0
  4 26  1  0
  5 27  1  0
  5 28  1  0
  7 29  1  0
  8 30  1  0
  8 31  1  0
  9 32  1  0
  9 33  1  0
 10 34  1  0
 11 35  1  0
 11 36  1  0
 13 37  1  0
 14 38  1  0
 15 39  1  0
 16 40  1  0
M  END
>  <UniqueID>  (5) 
5

>  <SMILES>  (5) 
CCNCCONCCNCc1ccccc1Cl

>  <Energy>  (5) 
32.69383163468488

>  <Genealogy>  (5) 
CCNCCONCCNCc1ccccc1Cl (3D coordinates assigned)
CCNCCONCCNCc1ccccc1Cl (optimized conformer: 32.69383163468488 kcal/mol)

>  <smiles>  (5) 
CCNCCONCCNCc1ccccc1Cl

>  <score_type>  (5) 
oracle

>  <origin>  (5) 
adg

>  <m_score__min__energy>  (5) 
-4.7300000000000004

>  <m_primary>  (5) 
energy

$$$$
5:0
     RDKit          3D

 61 63  0  0  0  0  0  0  0  0999 V2000
   59.7270   29.5830   46.5020 C   0  0  0  0  0  0  0  0  0  0  0  0
   58.5420   29.4420   47.4490 C   0  0  0  0  0  0  0  0  0  0  0  0
   58.9260   28.6330   48.6150 N   0  0  0  0  0  0  0  0  0  0  0  0
   60.3780   28.4020   48.6800 C   0  0  0  0  0  0  0  0  0  0  0  0
   60.7640   27.3730   49.7590 C   0  0  0  0  0  0  0  0  0  0  0  0
   60.8330   28.0170   51.1450 C   0  0  0  0  0  0  0  0  0  0  0  0
   59.9420   29.1160   51.1960 O   0  0  0  0  0  0  0  0  0  0  0  0
   59.3840   29.2490   52.4870 C   0  0  0  0  0  0  0  0  0  0  0  0
   57.8760   29.4380   52.3690 C   0  0  0  0  0  0  0  0  0  0  0  0
   57.5880   30.1040   51.1550 O   0  0  0  0  0  0  0  0  0  0  0  0
   57.4930   31.5030   51.3540 C   0  0  0  0  0  0  0  0  0  0  0  0
   58.6730   32.2430   50.7070 C   0  0  0  0  0  0  0  0  0  0  0  0
   59.6350   31.2940   50.1240 N   0  0  0  0  0  0  0  0  0  0  0  0
   60.5210   31.9740   49.1890 C   0  0  0  0  0  0  0  0  0  0  0  0
   59.9930   32.7120   48.0930 C   0  0  0  0  0  0  0  0  0  0  0  0
   58.6060   32.7280   47.8050 C   0  0  0  0  0  0  0  0  0  0  0  0
   58.0900   33.5190   46.7820 C   0  0  0  0  0  0  0  0  0  0  0  0
   58.9370   34.3150   46.0230 C   0  0  0  0  0  0  0  0  0  0  0  0
   60.3080   34.2880   46.2530 C   0  0  0  0  0  0  0  0  0  0  0  0
   60.8740   33.4500   47.2530 C   0  0  0  0  0  0  0  0  0  0  0  0
   62.2420   33.3560   47.4190 N   0  0  0  0  0  0  0  0  0  0  0  0
   63.1490   33.8770   46.3690 C   0  0  0  0  0  0  0  0  0  0  0  0
   62.7670   32.7270   48.5300 C   0  0  0  0  0  0  0  0  0  0  0  0
   64.1440   32.8340   48.8560 C   0  0  0  0  0  0  0  0  0  0  0  0
   64.6960   32.1070   49.9080 C   0  0  0  0  0  0  0  0  0  0  0  0
   63.8980   31.2600   50.6610 C   0  0  0  0  0  0  0  0  0  0  0  0
   64.4470   30.5250   51.6610 F   0  0  0  0  0  0  0  0  0  0  0  0
   62.5310   31.1800   50.4080 C   0  0  0  0  0  0  0  0  0  0  0  0
   61.9280   31.9550   49.3840 C   0  0  0  0  0  0  0  0  0  0  0  0
   60.6524   29.6931   47.0865 H   0  0  0  0  0  0  0  0  0  0  0  0
   59.7983   28.6870   45.8679 H   0  0  0  0  0  0  0  0  0  0  0  0
   59.5860   30.4707   45.8679 H   0  0  0  0  0  0  0  0  0  0  0  0
   58.2240   30.4396   47.7861 H   0  0  0  0  0  0  0  0  0  0  0  0
   57.7140   28.9460   46.9213 H   0  0  0  0  0  0  0  0  0  0  0  0
   58.6130   29.1230   49.4870 H   0  0  0  0  0  0  0  0  0  0  0  0
   60.7206   28.0329   47.7020 H   0  0  0  0  0  0  0  0  0  0  0  0
   60.8568   29.3569   48.9424 H   0  0  0  0  0  0  0  0  0  0  0  0
   60.0115   26.5708   49.7741 H   0  0  0  0  0  0  0  0  0  0  0  0
   61.7582   26.9709   49.5141 H   0  0  0  0  0  0  0  0  0  0  0  0
   60.5484   27.2777   51.9081 H   0  0  0  0  0  0  0  0  0  0  0  0
   61.8584   28.3651   51.3386 H   0  0  0  0  0  0  0  0  0  0  0  0
   59.5956   28.3428   53.0736 H   0  0  0  0  0  0  0  0  0  0  0  0
   59.8257   30.1216   52.9904 H   0  0  0  0  0  0  0  0  0  0  0  0
   57.3797   28.4564   52.3776 H   0  0  0  0  0  0  0  0  0  0  0  0
   57.5094   30.0359   53.2164 H   0  0  0  0  0  0  0  0  0  0  0  0
   56.5553   31.8651   50.9072 H   0  0  0  0  0  0  0  0  0  0  0  0
   57.5120   31.7006   52.4359 H   0  0  0  0  0  0  0  0  0  0  0  0
   58.2923   32.9026   49.9132 H   0  0  0  0  0  0  0  0  0  0  0  0
   59.1863   32.8301   51.4828 H   0  0  0  0  0  0  0  0  0  0  0  0
   59.1350   30.5010   49.6630 H   0  0  0  0  0  0  0  0  0  0  0  0
   60.1770   30.8130   50.8750 H   0  0  0  0  0  0  0  0  0  0  0  0
   57.9239   32.1037   48.4008 H   0  0  0  0  0  0  0  0  0  0  0  0
   57.0097   33.5132   46.5749 H   0  0  0  0  0  0  0  0  0  0  0  0
   58.5235   34.9671   45.2396 H   0  0  0  0  0  0  0  0  0  0  0  0
   60.9683   34.9278   45.6492 H   0  0  0  0  0  0  0  0  0  0  0  0
   64.0105   34.3719   46.8412 H   0  0  0  0  0  0  0  0  0  0  0  0
   63.5022   33.0441   45.7433 H   0  0  0  0  0  0  0  0  0  0  0  0
   62.6075   34.6017   45.7433 H   0  0  0  0  0  0  0  0  0  0  0  0
   64.7876   33.5038   48.2667 H   0  0  0  0  0  0  0  0  0  0  0  0
   65.7664   32.2051   50.1415 H   0  0  0  0  0  0  0  0  0  0  0  0
   61.9080   30.5043   51.0125 H   0  0  0  0  0  0  0  0  0  0  0  0
  1  2  1  0
  2  3  1  0
  3  4  1  0
  4  5  1  0
  5  6  1  0
  6  7  1  0
  7  8  1  0
  8  9  1  0
  9 10  1  0
 10 11  1  0
 11 12  1  0
 12 13  1  0
 13 14  1  0
 14 15  2  0
 15 16  1  0
 16 17  2  0
 17 18  1  0
 18 19  2  0
 19 20  1  0
 20 21  2  0
 21 22  1  0
 21 23  1  0
 23 24  2  0
 24 25  1  0
 25 26  2  0
 26 27  1  0
 26 28  1  0
 28 29  2  0
 29 14  1  0
 20 15  1  0
 29 23  1  0
  1 30  1  0
  1 31  1  0
  1 32  1  0
  2 33  1  0
  2 34  1  0
  3 35  1  0
  4 36  1  0
  4 37  1  0
  5 38  1  0
  5 39  1  0
  6 40  1  0
  6 41  1  0
  8 42  1  0
  8 43  1  0
  9 44  1  0
  9 45  1  0
 11 46  1  0
 11 47  1  0
 12 48  1  0
 12 49  1  0
 13 50  1  0
 13 51  1  0
 16 52  1  0
 17 53  1  0
 18 54  1  0
 19 55  1  0
 22 56  1  0
 22 57  1  0
 22 58  1  0
 24 59  1  0
 25 60  1  0
 28 61  1  0
M  CHG  2  13   1  21   1
M  END
>  <UniqueID>  (6) 
6

>  <SMILES>  (6) 
CCNCCCOCCOCC[NH2+]c1c2ccccc2[n+](C)c2ccc(F)cc12

>  <Energy>  (6) 
85.65492751328509

>  <Genealogy>  (6) 
CCNCCCOCCOCC[NH2+]c1c2ccccc2[n+](C)c2ccc(F)cc12 (protonated)
CCNCCCOCCOCC[NH2+]c1c2ccccc2[n+](C)c2ccc(F)cc12 (3D coordinates assigned)
CCNCCCOCCOCC[NH2+]c1c2ccccc2[n+](C)c2ccc(F)cc12 (optimized conformer: 85.65492751328509 kcal/mol)

>  <smiles>  (6) 
CCNCCCOCCOCCNc1c2ccccc2[n+](C)c2ccc(F)cc12

>  <score_type>  (6) 
oracle

>  <origin>  (6) 
adg

>  <m_score__min__energy>  (6) 
-3.1000000000000001

>  <m_primary>  (6) 
energy

$$$$
6:0
     RDKit          3D

 54 56  0  0  0  0  0  0  0  0999 V2000
   57.3970   32.1840   41.1020 C   0  0  0  0  0  0  0  0  0  0  0  0
   57.8210   32.3120   42.5690 C   0  0  0  0  0  0  0  0  0  0  0  0
   57.7440   31.0260   43.2850 N   0  0  0  0  0  0  0  0  0  0  0  0
   56.4500   30.8300   43.9580 C   0  0  0  0  0  0  0  0  0  0  0  0
   56.3080   29.3670   44.4110 C   0  0  0  0  0  0  0  0  0  0  0  0
   57.3700   28.5080   43.8600 N   0  0  0  0  0  0  0  0  0  0  0  0
   58.0840   27.7460   44.8980 C   0  0  0  0  0  0  0  0  0  0  0  0
   59.6030   27.8640   44.7230 C   0  0  0  0  0  0  0  0  0  0  0  0
   60.1380   29.2110   45.2190 C   0  0  0  0  0  0  0  0  0  0  0  0
   59.0530   30.0150   45.7810 N   0  0  0  0  0  0  0  0  0  0  0  0
   59.2710   30.8760   46.9140 C   0  0  0  0  0  0  0  0  0  0  0  0
   59.2220   32.2740   46.7600 C   0  0  0  0  0  0  0  0  0  0  0  0
   58.9420   32.8570   45.5050 C   0  0  0  0  0  0  0  0  0  0  0  0
   58.9650   34.2380   45.3380 C   0  0  0  0  0  0  0  0  0  0  0  0
   59.2820   35.0630   46.4100 C   0  0  0  0  0  0  0  0  0  0  0  0
   59.5460   34.5130   47.6640 C   0  0  0  0  0  0  0  0  0  0  0  0
   59.4830   33.1120   47.8780 C   0  0  0  0  0  0  0  0  0  0  0  0
   59.6890   32.5580   49.1290 N   0  0  0  0  0  0  0  0  0  0  0  0
   59.6820   33.4240   50.3300 C   0  0  0  0  0  0  0  0  0  0  0  0
   59.8640   31.1930   49.2640 C   0  0  0  0  0  0  0  0  0  0  0  0
   60.3110   30.6130   50.4790 C   0  0  0  0  0  0  0  0  0  0  0  0
   60.4000   29.2300   50.6280 C   0  0  0  0  0  0  0  0  0  0  0  0
   60.0550   28.3910   49.5750 C   0  0  0  0  0  0  0  0  0  0  0  0
   59.6600   28.9300   48.3540 C   0  0  0  0  0  0  0  0  0  0  0  0
   59.6000   30.3280   48.1680 C   0  0  0  0  0  0  0  0  0  0  0  0
   56.3451   31.8664   41.0507 H   0  0  0  0  0  0  0  0  0  0  0  0
   57.5112   33.1567   40.6011 H   0  0  0  0  0  0  0  0  0  0  0  0
   58.0303   31.4370   40.6011 H   0  0  0  0  0  0  0  0  0  0  0  0
   58.8578   32.6774   42.6075 H   0  0  0  0  0  0  0  0  0  0  0  0
   57.1308   33.0138   43.0600 H   0  0  0  0  0  0  0  0  0  0  0  0
   57.9070   30.2380   42.6160 H   0  0  0  0  0  0  0  0  0  0  0  0
   56.3925   31.4902   44.8359 H   0  0  0  0  0  0  0  0  0  0  0  0
   55.6381   31.0707   43.2559 H   0  0  0  0  0  0  0  0  0  0  0  0
   56.3567   29.3300   45.5093 H   0  0  0  0  0  0  0  0  0  0  0  0
   55.3432   28.9909   44.0399 H   0  0  0  0  0  0  0  0  0  0  0  0
   56.9590   27.8390   43.1660 H   0  0  0  0  0  0  0  0  0  0  0  0
   57.8048   28.1378   45.8872 H   0  0  0  0  0  0  0  0  0  0  0  0
   57.8033   26.6862   44.8086 H   0  0  0  0  0  0  0  0  0  0  0  0
   60.0892   27.0581   45.2923 H   0  0  0  0  0  0  0  0  0  0  0  0
   59.8270   27.7857   43.6489 H   0  0  0  0  0  0  0  0  0  0  0  0
   60.8983   29.0357   45.9944 H   0  0  0  0  0  0  0  0  0  0  0  0
   60.5812   29.7531   44.3706 H   0  0  0  0  0  0  0  0  0  0  0  0
   58.2050   30.1730   45.1910 H   0  0  0  0  0  0  0  0  0  0  0  0
   58.7025   32.2107   44.6478 H   0  0  0  0  0  0  0  0  0  0  0  0
   58.7321   34.6770   44.3567 H   0  0  0  0  0  0  0  0  0  0  0  0
   59.3249   36.1531   46.2692 H   0  0  0  0  0  0  0  0  0  0  0  0
   59.8075   35.1767   48.5013 H   0  0  0  0  0  0  0  0  0  0  0  0
   59.6871   32.7973   51.2340 H   0  0  0  0  0  0  0  0  0  0  0  0
   60.5750   34.0663   50.3241 H   0  0  0  0  0  0  0  0  0  0  0  0
   58.7788   34.0518   50.3241 H   0  0  0  0  0  0  0  0  0  0  0  0
   60.5923   31.2661   51.3182 H   0  0  0  0  0  0  0  0  0  0  0  0
   60.7440   28.8017   51.5810 H   0  0  0  0  0  0  0  0  0  0  0  0
   60.0942   27.2996   49.7067 H   0  0  0  0  0  0  0  0  0  0  0  0
   59.3916   28.2590   47.5247 H   0  0  0  0  0  0  0  0  0  0  0  0
  1  2  1  0
  2  3  1  0
  3  4  1  0
  4  5  1  0
  5  6  1  0
  6  7  1  0
  7  8  1  0
  8  9  1  0
  9 10  1  0
 10 11  1  0
 11 12  2  0
 12 13  1  0
 13 14  2  0
 14 15  1  0
 15 16  2  0
 16 17  1  0
 17 18  2  0
 18 19  1  0
 18 20  1  0
 20 21  2  0
 21 22  1  0
 22 23  2  0
 23 24  1  0
 24 25  2  0
 25 11  1  0
 17 12  1  0
 25 20  1  0
  1 26  1  0
  1 27  1  0
  1 28  1  0
  2 29  1  0
  2 30  1  0
  3 31  1  0
  4 32  1  0
  4 33  1  0
  5 34  1  0
  5 35  1  0
  6 36  1  0
  7 37  1  0
  7 38  1  0
  8 39  1  0
  8 40  1  0
  9 41  1  0
  9 42  1  0
 10 43  1  0
 13 44  1  0
 14 45  1  0
 15 46  1  0
 16 47  1  0
 19 48  1  0
 19 49  1  0
 19 50  1  0
 21 51  1  0
 22 52  1  0
 23 53  1  0
 24 54  1  0
M  CHG  1  18   1
M  END
>  <UniqueID>  (7) 
7

>  <SMILES>  (7) 
CCNCCNCCCNc1c2ccccc2[n+](C)c2ccccc12

>  <Energy>  (7) 
76.16574634682281

>  <Genealogy>  (7) 
CCNCCNCCCNc1c2ccccc2[n+](C)c2ccccc12 (3D coordinates assigned)
CCNCCNCCCNc1c2ccccc2[n+](C)c2ccccc12 (optimized conformer: 76.16574634682281 kcal/mol)

>  <smiles>  (7) 
CCNCCNCCCNc1c2ccccc2[n+](C)c2ccccc12

>  <score_type>  (7) 
oracle

>  <origin>  (7) 
adg

>  <m_score__min__energy>  (7) 
-6.9000000000000004

>  <m_primary>  (7) 
energy

$$$$
7:0
     RDKit          3D

 48 51  0  0  0  0  0  0  0  0999 V2000
   58.4450   32.3300   50.9060 C   0  0  0  0  0  0  0  0  0  0  0  0
   59.4760   31.3710   50.4750 N   0  0  0  0  0  0  0  0  0  0  0  0
   60.5690   31.3570   51.4630 C   0  0  0  0  0  0  0  0  0  0  0  0
   58.8740   30.0290   50.3070 C   0  0  0  0  0  0  0  0  0  0  0  0
   58.9140   29.5380   48.8460 C   0  0  0  0  0  0  0  0  0  0  0  0
   59.9840   30.1660   48.0420 N   0  0  0  0  0  0  0  0  0  0  0  0
   59.4780   30.7580   46.8180 C   0  0  0  0  0  0  0  0  0  0  0  0
   59.4090   32.1750   46.6180 C   0  0  0  0  0  0  0  0  0  0  0  0
   59.8430   33.0980   47.6030 C   0  0  0  0  0  0  0  0  0  0  0  0
   59.7240   34.4710   47.4100 C   0  0  0  0  0  0  0  0  0  0  0  0
   59.1630   34.9690   46.2440 C   0  0  0  0  0  0  0  0  0  0  0  0
   58.7460   34.1000   45.2430 C   0  0  0  0  0  0  0  0  0  0  0  0
   58.8860   32.6960   45.3800 C   0  0  0  0  0  0  0  0  0  0  0  0
   58.5220   31.8410   44.3550 N   0  0  0  0  0  0  0  0  0  0  0  0
   58.1330   32.3540   43.0270 C   0  0  0  0  0  0  0  0  0  0  0  0
   58.5210   30.4940   44.5930 C   0  0  0  0  0  0  0  0  0  0  0  0
   58.0630   29.5430   43.7460 N   0  0  0  0  0  0  0  0  0  0  0  0
   58.2620   28.3760   44.3790 C   0  0  0  0  0  0  0  0  0  0  0  0
   57.9390   27.1120   43.8880 C   0  0  0  0  0  0  0  0  0  0  0  0
   58.2160   25.9980   44.6930 C   0  0  0  0  0  0  0  0  0  0  0  0
   58.8040   26.1660   45.9610 C   0  0  0  0  0  0  0  0  0  0  0  0
   59.0710   25.0790   46.7270 F   0  0  0  0  0  0  0  0  0  0  0  0
   59.1180   27.4510   46.4390 C   0  0  0  0  0  0  0  0  0  0  0  0
   58.8340   28.5590   45.6230 C   0  0  0  0  0  0  0  0  0  0  0  0
   58.9940   29.9430   45.7730 C   0  0  0  0  0  0  0  0  0  0  0  0
   58.4105   32.3621   52.0050 H   0  0  0  0  0  0  0  0  0  0  0  0
   58.6889   33.3298   50.5175 H   0  0  0  0  0  0  0  0  0  0  0  0
   57.4654   32.0145   50.5175 H   0  0  0  0  0  0  0  0  0  0  0  0
   60.1456   31.3624   52.4782 H   0  0  0  0  0  0  0  0  0  0  0  0
   61.1772   30.4510   51.3242 H   0  0  0  0  0  0  0  0  0  0  0  0
   61.2002   32.2471   51.3242 H   0  0  0  0  0  0  0  0  0  0  0  0
   59.4272   29.3141   50.9339 H   0  0  0  0  0  0  0  0  0  0  0  0
   57.8176   30.0988   50.6054 H   0  0  0  0  0  0  0  0  0  0  0  0
   59.0737   28.4497   48.8487 H   0  0  0  0  0  0  0  0  0  0  0  0
   57.9557   29.8179   48.3842 H   0  0  0  0  0  0  0  0  0  0  0  0
   60.7580   29.4890   47.8930 H   0  0  0  0  0  0  0  0  0  0  0  0
   60.4500   30.9140   48.5980 H   0  0  0  0  0  0  0  0  0  0  0  0
   60.2825   32.7212   48.5383 H   0  0  0  0  0  0  0  0  0  0  0  0
   60.0770   35.1651   48.1869 H   0  0  0  0  0  0  0  0  0  0  0  0
   59.0477   36.0548   46.1109 H   0  0  0  0  0  0  0  0  0  0  0  0
   58.2982   34.5099   44.3257 H   0  0  0  0  0  0  0  0  0  0  0  0
   57.4725   33.2251   43.1495 H   0  0  0  0  0  0  0  0  0  0  0  0
   59.0339   32.6523   42.4709 H   0  0  0  0  0  0  0  0  0  0  0  0
   57.6026   31.5670   42.4709 H   0  0  0  0  0  0  0  0  0  0  0  0
   57.6110   29.6550   42.8130 H   0  0  0  0  0  0  0  0  0  0  0  0
   57.4793   26.9918   42.8959 H   0  0  0  0  0  0  0  0  0  0  0  0
   57.9727   24.9878   44.3320 H   0  0  0  0  0  0  0  0  0  0  0  0
   59.5759   27.5856   47.4301 H   0  0  0  0  0  0  0  0  0  0  0  0
  1  2  1  0
  2  3  1  0
  2  4  1  0
  4  5  1  0
  5  6  1  0
  6  7  1  0
  7  8  2  0
  8  9  1  0
  9 10  2  0
 10 11  1  0
 11 12  2  0
 12 13  1  0
 13 14  2  0
 14 15  1  0
 14 16  1  0
 16 17  1  0
 17 18  1  0
 18 19  2  0
 19 20  1  0
 20 21  2  0
 21 22  1  0
 21 23  1  0
 23 24  2  0
 24 25  1  0
 25  7  1  0
 13  8  1  0
 25 16  2  0
 24 18  1  0
  1 26  1  0
  1 27  1  0
  1 28  1  0
  3 29  1  0
  3 30  1  0
  3 31  1  0
  4 32  1  0
  4 33  1  0
  5 34  1  0
  5 35  1  0
  6 36  1  0
  6 37  1  0
  9 38  1  0
 10 39  1  0
 11 40  1  0
 12 41  1  0
 15 42  1  0
 15 43  1  0
 15 44  1  0
 17 45  1  0
 19 46  1  0
 20 47  1  0
 23 48  1  0
M  CHG  2   6   1  14   1
M  END
>  <UniqueID>  (8) 
8

>  <SMILES>  (8) 
CN(C)CC[NH2+]c1c2ccccc2[n+](C)c2[nH]c3ccc(F)cc3c12

>  <Energy>  (8) 
110.8449025164214

>  <Genealogy>  (8) 
CN(C)CC[NH2+]c1c2ccccc2[n+](C)c2[nH]c3ccc(F)cc3c12 (protonated)
CN(C)CC[NH2+]c1c2ccccc2[n+](C)c2[nH]c3ccc(F)cc3c12 (3D coordinates assigned)
CN(C)CC[NH2+]c1c2ccccc2[n+](C)c2[nH]c3ccc(F)cc3c12 (optimized conformer: 110.8449025164214 kcal/mol)

>  <smiles>  (8) 
CN(C)CCNc1c2ccccc2[n+](C)c2[nH]c3ccc(F)cc3c12

>  <score_type>  (8) 
oracle

>  <origin>  (8) 
adg

>  <m_score__min__energy>  (8) 
-3.98

>  <m_primary>  (8) 
energy

$$$$
8:0
     RDKit          3D

 62 63  0  0  0  0  0  0  0  0999 V2000
   57.1080   34.1310   45.2420 C   0  0  0  0  0  0  0  0  0  0  0  0
   58.5890   34.0610   44.8830 C   0  0  0  0  0  0  0  0  0  0  0  0
   59.4380   34.0090   46.1240 C   0  0  0  0  0  0  0  0  0  0  0  0
   58.8640   34.2430   47.3840 C   0  0  0  0  0  0  0  0  0  0  0  0
   59.6560   34.2220   48.5360 C   0  0  0  0  0  0  0  0  0  0  0  0
   61.0410   33.9800   48.4430 C   0  0  0  0  0  0  0  0  0  0  0  0
   61.8860   33.9520   49.5660 O   0  0  0  0  0  0  0  0  0  0  0  0
   62.9160   32.9930   49.8020 C   0  0  0  0  0  0  0  0  0  0  0  0
   62.4000   31.5710   49.5140 C   0  0  0  0  0  0  0  0  0  0  0  0
   61.4980   31.0530   50.5790 N   0  0  0  0  0  0  0  0  0  0  0  0
   61.4450   29.5720   50.6370 C   0  0  0  0  0  0  0  0  0  0  0  0
   60.7700   28.9460   49.3940 C   0  0  0  0  0  0  0  0  0  0  0  0
   59.9590   29.9390   48.6680 N   0  0  0  0  0  0  0  0  0  0  0  0
   59.1860   29.3930   47.5300 C   0  0  0  0  0  0  0  0  0  0  0  0
   59.4150   30.1130   46.1760 C   0  0  0  0  0  0  0  0  0  0  0  0
   58.1760   30.2300   45.3140 C   0  0  0  0  0  0  0  0  0  0  0  0
   57.3510   31.1610   45.5350 O   0  0  0  0  0  0  0  0  0  0  0  0
   57.8950   29.2750   44.2650 N   0  0  0  0  0  0  0  0  0  0  0  0
   56.9680   29.6410   43.1830 C   0  0  0  0  0  0  0  0  0  0  0  0
   55.5360   29.7120   43.7040 C   0  0  0  0  0  0  0  0  0  0  0  0
   58.4170   27.9000   44.3240 C   0  0  0  0  0  0  0  0  0  0  0  0
   58.1410   27.1680   43.0150 C   0  0  0  0  0  0  0  0  0  0  0  0
   59.1760   30.7780   49.5870 C   0  0  0  0  0  0  0  0  0  0  0  0
   60.1270   31.6250   50.4640 C   0  0  0  0  0  0  0  0  0  0  0  0
   61.6100   33.7550   47.1840 C   0  0  0  0  0  0  0  0  0  0  0  0
   60.8190   33.7750   46.0320 C   0  0  0  0  0  0  0  0  0  0  0  0
   56.9958   34.1363   46.3363 H   0  0  0  0  0  0  0  0  0  0  0  0
   56.6725   35.0507   44.8243 H   0  0  0  0  0  0  0  0  0  0  0  0
   56.5877   33.2564   44.8243 H   0  0  0  0  0  0  0  0  0  0  0  0
   58.7722   33.1576   44.2827 H   0  0  0  0  0  0  0  0  0  0  0  0
   58.8559   34.9618   44.3108 H   0  0  0  0  0  0  0  0  0  0  0  0
   57.7855   34.4439   47.4651 H   0  0  0  0  0  0  0  0  0  0  0  0
   59.1956   34.3953   49.5199 H   0  0  0  0  0  0  0  0  0  0  0  0
   63.7704   33.2090   49.1437 H   0  0  0  0  0  0  0  0  0  0  0  0
   63.2264   33.0539   50.8555 H   0  0  0  0  0  0  0  0  0  0  0  0
   61.8478   31.5844   48.5628 H   0  0  0  0  0  0  0  0  0  0  0  0
   63.2750   30.9057   49.4714 H   0  0  0  0  0  0  0  0  0  0  0  0
   61.8830   31.3840   51.4970 H   0  0  0  0  0  0  0  0  0  0  0  0
   62.4726   29.1864   50.7103 H   0  0  0  0  0  0  0  0  0  0  0  0
   60.8417   29.2968   51.5147 H   0  0  0  0  0  0  0  0  0  0  0  0
   61.5486   28.5580   48.7207 H   0  0  0  0  0  0  0  0  0  0  0  0
   60.1069   28.1353   49.7304 H   0  0  0  0  0  0  0  0  0  0  0  0
   59.4631   28.3358   47.4053 H   0  0  0  0  0  0  0  0  0  0  0  0
   58.1251   29.5401   47.7806 H   0  0  0  0  0  0  0  0  0  0  0  0
   59.7868   31.1272   46.3839 H   0  0  0  0  0  0  0  0  0  0  0  0
   60.1340   29.5007   45.6119 H   0  0  0  0  0  0  0  0  0  0  0  0
   57.2545   30.6228   42.7781 H   0  0  0  0  0  0  0  0  0  0  0  0
   57.0214   28.8745   42.3958 H   0  0  0  0  0  0  0  0  0  0  0  0
   55.5456   29.7115   44.8040 H   0  0  0  0  0  0  0  0  0  0  0  0
   55.0594   30.6349   43.3419 H   0  0  0  0  0  0  0  0  0  0  0  0
   54.9704   28.8408   43.3419 H   0  0  0  0  0  0  0  0  0  0  0  0
   59.5025   27.9320   44.4991 H   0  0  0  0  0  0  0  0  0  0  0  0
   57.9166   27.3641   45.1440 H   0  0  0  0  0  0  0  0  0  0  0  0
   57.7606   26.1590   43.2323 H   0  0  0  0  0  0  0  0  0  0  0  0
   57.3913   27.7254   42.4342 H   0  0  0  0  0  0  0  0  0  0  0  0
   59.0721   27.0916   42.4342 H   0  0  0  0  0  0  0  0  0  0  0  0
   58.5240   31.4462   49.0053 H   0  0  0  0  0  0  0  0  0  0  0  0
   58.5638   30.1330   50.2344 H   0  0  0  0  0  0  0  0  0  0  0  0
   60.2049   32.6296   50.0228 H   0  0  0  0  0  0  0  0  0  0  0  0
   59.6995   31.6459   51.4773 H   0  0  0  0  0  0  0  0  0  0  0  0
   62.6895   33.5607   47.1006 H   0  0  0  0  0  0  0  0  0  0  0  0
   61.2810   33.6065   45.0481 H   0  0  0  0  0  0  0  0  0  0  0  0
  1  2  1  0
  2  3  1  0
  3  4  2  0
  4  5  1  0
  5  6  2  0
  6  7  1  0
  7  8  1  0
  8  9  1  0
  9 10  1  0
 10 11  1  0
 11 12  1  0
 12 13  1  0
 13 14  1  0
 14 15  1  0
 15 16  1  0
 16 17  2  0
 16 18  1  0
 18 19  1  0
 19 20  1  0
 18 21  1  0
 21 22  1  0
 13 23  1  0
 23 24  1  0
  6 25  1  0
 25 26  2  0
 26  3  1  0
 24 10  1  0
  1 27  1  0
  1 28  1  0
  1 29  1  0
  2 30  1  0
  2 31  1  0
  4 32  1  0
  5 33  1  0
  8 34  1  0
  8 35  1  0
  9 36  1  0
  9 37  1  0
 10 38  1  0
 11 39  1  0
 11 40  1  0
 12 41  1  0
 12 42  1  0
 14 43  1  0
 14 44  1  0
 15 45  1  0
 15 46  1  0
 19 47  1  0
 19 48  1  0
 20 49  1  0
 20 50  1  0
 20 51  1  0
 21 52  1  0
 21 53  1  0
 22 54  1  0
 22 55  1  0
 22 56  1  0
 23 57  1  0
 23 58  1  0
 24 59  1  0
 24 60  1  0
 25 61  1  0
 26 62  1  0
M  CHG  1  10   1
M  END
>  <UniqueID>  (9) 
9

>  <SMILES>  (9) 
CCc1ccc(OCC[NH+]2CCN(CCC(=O)N(CC)CC)CC2)cc1

>  <Energy>  (9) 
67.1651910196495

>  <Genealogy>  (9) 
CCc1ccc(OCC[NH+]2CCN(CCC(=O)N(CC)CC)CC2)cc1 (protonated)
CCc1ccc(OCC[NH+]2CCN(CCC(=O)N(CC)CC)CC2)cc1 (3D coordinates assigned)
CCc1ccc(OCC[NH+]2CCN(CCC(=O)N(CC)CC)CC2)cc1 (nonaromatic ring conformer: 67.1651910196495 kcal/mol)

>  <smiles>  (9) 
CCc1ccc(OCCN2CCN(CCC(=O)N(CC)CC)CC2)cc1

>  <score_type>  (9) 
oracle

>  <origin>  (9) 
adg

>  <m_score__min__energy>  (9) 
-6.0099999999999998

>  <m_primary>  (9) 
energy

$$$$
9:0
     RDKit          3D

 40 40  0  0  0  0  0  0  0  0999 V2000
   56.8240   25.2980   47.1210 C   0  0  0  0  0  0  0  0  0  0  0  0
   56.1750   25.7520   45.7920 C   0  0  0  0  0  0  0  0  0  0  0  0
   57.0740   25.2880   44.6300 C   0  0  0  0  0  0  0  0  0  0  0  0
   54.7920   25.0860   45.6150 C   0  0  0  0  0  0  0  0  0  0  0  0
   56.0720   27.2300   45.7150 N   0  0  0  0  0  0  0  0  0  0  0  0
   57.1280   27.9230   44.9510 C   0  0  0  0  0  0  0  0  0  0  0  0
   56.5950   29.2390   44.3510 C   0  0  1  0  0  0  0  0  0  0  0  0
   55.3200   29.5050   44.8760 O   0  0  0  0  0  0  0  0  0  0  0  0
   57.5150   30.4260   44.6710 C   0  0  0  0  0  0  0  0  0  0  0  0
   56.7350   31.5780   44.9230 O   0  0  0  0  0  0  0  0  0  0  0  0
   57.3730   32.7370   44.4240 C   0  0  0  0  0  0  0  0  0  0  0  0
   58.1280   33.4150   45.5330 C   0  0  0  0  0  0  0  0  0  0  0  0
   58.1150   32.8890   46.8350 C   0  0  0  0  0  0  0  0  0  0  0  0
   58.8720   33.4900   47.8460 C   0  0  0  0  0  0  0  0  0  0  0  0
   59.6500   34.6160   47.5630 C   0  0  0  0  0  0  0  0  0  0  0  0
   59.6730   35.1430   46.2680 C   0  0  0  0  0  0  0  0  0  0  0  0
   58.9170   34.5440   45.2550 C   0  0  0  0  0  0  0  0  0  0  0  0
   56.2478   25.7011   47.9669 H   0  0  0  0  0  0  0  0  0  0  0  0
   56.8280   24.1991   47.1705 H   0  0  0  0  0  0  0  0  0  0  0  0
   57.8576   25.6710   47.1705 H   0  0  0  0  0  0  0  0  0  0  0  0
   57.9830   24.8188   45.0345 H   0  0  0  0  0  0  0  0  0  0  0  0
   56.5285   24.5588   44.0130 H   0  0  0  0  0  0  0  0  0  0  0  0
   57.3524   26.1551   44.0130 H   0  0  0  0  0  0  0  0  0  0  0  0
   54.3568   24.8764   46.6033 H   0  0  0  0  0  0  0  0  0  0  0  0
   54.1277   25.7629   45.0579 H   0  0  0  0  0  0  0  0  0  0  0  0
   54.9070   24.1445   45.0579 H   0  0  0  0  0  0  0  0  0  0  0  0
   55.1430   27.4870   45.3040 H   0  0  0  0  0  0  0  0  0  0  0  0
   57.9703   28.1476   45.6220 H   0  0  0  0  0  0  0  0  0  0  0  0
   57.4565   27.2687   44.1301 H   0  0  0  0  0  0  0  0  0  0  0  0
   56.5534   29.1168   43.2586 H   0  0  0  0  0  0  0  0  0  0  0  0
   55.4510   30.0890   45.6690 H   0  0  0  0  0  0  0  0  0  0  0  0
   58.1189   30.1915   45.5600 H   0  0  0  0  0  0  0  0  0  0  0  0
   58.1780   30.6149   43.8139 H   0  0  0  0  0  0  0  0  0  0  0  0
   58.0733   32.4537   43.6244 H   0  0  0  0  0  0  0  0  0  0  0  0
   56.6155   33.4267   44.0233 H   0  0  0  0  0  0  0  0  0  0  0  0
   57.5069   32.0006   47.0607 H   0  0  0  0  0  0  0  0  0  0  0  0
   58.8550   33.0760   48.8650 H   0  0  0  0  0  0  0  0  0  0  0  0
   60.2444   35.0878   48.3592 H   0  0  0  0  0  0  0  0  0  0  0  0
   60.2859   36.0290   46.0458 H   0  0  0  0  0  0  0  0  0  0  0  0
   58.9402   34.9585   44.2364 H   0  0  0  0  0  0  0  0  0  0  0  0
  1  2  1  0
  2  3  1  0
  2  4  1  0
  2  5  1  0
  5  6  1  0
  6  7  1  0
  7  8  1  0
  7  9  1  0
  9 10  1  0
 10 11  1  0
 11 12  1  0
 12 13  2  0
 13 14  1  0
 14 15  2  0
 15 16  1  0
 16 17  2  0
 17 12  1  0
  1 18  1  0
  1 19  1  0
  1 20  1  0
  3 21  1  0
  3 22  1  0
  3 23  1  0
  4 24  1  0
  4 25  1  0
  4 26  1  0
  5 27  1  0
  6 28  1  0
  6 29  1  0
  7 30  1  6
  8 31  1  0
  9 32  1  0
  9 33  1  0
 11 34  1  0
 11 35  1  0
 13 36  1  0
 14 37  1  0
 15 38  1  0
 16 39  1  0
 17 40  1  0
M  END
>  <UniqueID>  (10) 
10

>  <SMILES>  (10) 
CC(C)(C)NC[C@@H](O)COCc1ccccc1

>  <Energy>  (10) 
34.49505102538121

>  <Genealogy>  (10) 
CC(C)(C)NC[C@@H](O)COCc1ccccc1 (chirality)
CC(C)(C)NC[C@@H](O)COCc1ccccc1 (3D coordinates assigned)
CC(C)(C)NC[C@@H](O)COCc1ccccc1 (optimized conformer: 34.49505102538121 kcal/mol)

>  <smiles>  (10) 
CC(C)(C)NCC(O)COCc1ccccc1

>  <score_type>  (10) 
oracle

>  <origin>  (10) 
adg

>  <m_score__min__energy>  (10) 
-7.5700000000000003

>  <m_primary>  (10) 
energy

$$$$
10:0
     RDKit          3D

 47 48  0  0  0  0  0  0  0  0999 V2000
   59.3310   34.5760   47.8430 C   0  0  0  0  0  0  0  0  0  0  0  0
   60.4980   34.1650   46.9460 C   0  0  0  0  0  0  0  0  0  0  0  0
   61.3390   33.1280   47.5830 N   0  0  0  0  0  0  0  0  0  0  0  0
   62.7410   33.5340   47.8570 C   0  0  0  0  0  0  0  0  0  0  0  0
   63.7410   33.1190   46.7680 C   0  0  0  0  0  0  0  0  0  0  0  0
   60.6830   32.5080   48.7580 C   0  0  0  0  0  0  0  0  0  0  0  0
   60.2620   31.0720   48.4220 C   0  0  0  0  0  0  0  0  0  0  0  0
   61.0040   30.5550   47.2600 N   0  0  0  0  0  0  0  0  0  0  0  0
   60.1460   29.7180   46.4460 C   0  0  0  0  0  0  0  0  0  0  0  0
   60.3890   28.3440   46.4020 C   0  0  0  0  0  0  0  0  0  0  0  0
   59.5900   27.5120   45.6310 C   0  0  0  0  0  0  0  0  0  0  0  0
   58.5600   28.0060   44.8810 N   0  0  0  0  0  0  0  0  0  0  0  0
   57.7760   27.0310   44.0960 C   0  0  0  0  0  0  0  0  0  0  0  0
   58.1460   27.1040   42.6170 C   0  0  0  0  0  0  0  0  0  0  0  0
   58.2750   29.3610   44.8970 C   0  0  0  0  0  0  0  0  0  0  0  0
   57.1930   29.9040   44.1610 C   0  0  0  0  0  0  0  0  0  0  0  0
   56.9350   31.2730   44.1640 C   0  0  0  0  0  0  0  0  0  0  0  0
   57.7410   32.1370   44.8980 C   0  0  0  0  0  0  0  0  0  0  0  0
   57.3910   34.0150   44.8820 Br  0  0  0  0  0  0  0  0  0  0  0  0
   58.8030   31.6340   45.6470 C   0  0  0  0  0  0  0  0  0  0  0  0
   59.0820   30.2480   45.6710 C   0  0  0  0  0  0  0  0  0  0  0  0
   59.6252   34.4724   48.8979 H   0  0  0  0  0  0  0  0  0  0  0  0
   59.0623   35.6229   47.6384 H   0  0  0  0  0  0  0  0  0  0  0  0
   58.4656   33.9286   47.6384 H   0  0  0  0  0  0  0  0  0  0  0  0
   60.0987   33.7690   46.0006 H   0  0  0  0  0  0  0  0  0  0  0  0
   61.1234   35.0524   46.7688 H   0  0  0  0  0  0  0  0  0  0  0  0
   62.7704   34.6294   47.9529 H   0  0  0  0  0  0  0  0  0  0  0  0
   63.0453   33.0170   48.7790 H   0  0  0  0  0  0  0  0  0  0  0  0
   64.6591   32.7380   47.2392 H   0  0  0  0  0  0  0  0  0  0  0  0
   63.2959   32.3313   46.1424 H   0  0  0  0  0  0  0  0  0  0  0  0
   63.9844   33.9904   46.1424 H   0  0  0  0  0  0  0  0  0  0  0  0
   61.3866   32.4937   49.6034 H   0  0  0  0  0  0  0  0  0  0  0  0
   59.7916   33.0938   49.0267 H   0  0  0  0  0  0  0  0  0  0  0  0
   60.4621   30.4274   49.2906 H   0  0  0  0  0  0  0  0  0  0  0  0
   59.1897   31.0729   48.1768 H   0  0  0  0  0  0  0  0  0  0  0  0
   61.3490   31.3680   46.6980 H   0  0  0  0  0  0  0  0  0  0  0  0
   61.8570   30.0240   47.5440 H   0  0  0  0  0  0  0  0  0  0  0  0
   61.2202   27.9178   46.9829 H   0  0  0  0  0  0  0  0  0  0  0  0
   59.7901   26.4304   45.6233 H   0  0  0  0  0  0  0  0  0  0  0  0
   57.9826   26.0173   44.4699 H   0  0  0  0  0  0  0  0  0  0  0  0
   56.7074   27.2684   44.2045 H   0  0  0  0  0  0  0  0  0  0  0  0
   59.2208   27.3161   42.5180 H   0  0  0  0  0  0  0  0  0  0  0  0
   57.9158   26.1431   42.1336 H   0  0  0  0  0  0  0  0  0  0  0  0
   57.5681   27.9054   42.1336 H   0  0  0  0  0  0  0  0  0  0  0  0
   56.5456   29.2332   43.5772 H   0  0  0  0  0  0  0  0  0  0  0  0
   56.0903   31.6724   43.5835 H   0  0  0  0  0  0  0  0  0  0  0  0
   59.4327   32.3244   46.2273 H   0  0  0  0  0  0  0  0  0  0  0  0
  1  2  1  0
  2  3  1  0
  3  4  1  0
  4  5  1  0
  3  6  1  0
  6  7  1  0
  7  8  1  0
  8  9  1  0
  9 10  2  0
 10 11  1  0
 11 12  2  0
 12 13  1  0
 13 14  1  0
 12 15  1  0
 15 16  2  0
 16 17  1  0
 17 18  2  0
 18 19  1  0
 18 20  1  0
 20 21  2  0
 21  9  1  0
 21 15  1  0
  1 22  1  0
  1 23  1  0
  1 24  1  0
  2 25  1  0
  2 26  1  0
  4 27  1  0
  4 28  1  0
  5 29  1  0
  5 30  1  0
  5 31  1  0
  6 32  1  0
  6 33  1  0
  7 34  1  0
  7 35  1  0
  8 36  1  0
  8 37  1  0
 10 38  1  0
 11 39  1  0
 13 40  1  0
 13 41  1  0
 14 42  1  0
 14 43  1  0
 14 44  1  0
 16 45  1  0
 17 46  1  0
 20 47  1  0
M  CHG  2   8   1  12   1
M  END
>  <UniqueID>  (11) 
11

>  <SMILES>  (11) 
CCN(CC)CC[NH2+]c1cc[n+](CC)c2ccc(Br)cc12

>  <Energy>  (11) 
55.85979144752288

>  <Genealogy>  (11) 
CCN(CC)CC[NH2+]c1cc[n+](CC)c2ccc(Br)cc12 (protonated)
CCN(CC)CC[NH2+]c1cc[n+](CC)c2ccc(Br)cc12 (3D coordinates assigned)
CCN(CC)CC[NH2+]c1cc[n+](CC)c2ccc(Br)cc12 (optimized conformer: 55.85979144752288 kcal/mol)

>  <smiles>  (11) 
CCN(CC)CCNc1cc[n+](CC)c2ccc(Br)cc12

>  <score_type>  (11) 
oracle

>  <origin>  (11) 
adg

>  <m_score__min__energy>  (11) 
-3.7799999999999998

>  <m_primary>  (11) 
energy

$$$$
11:0
     RDKit          3D

 66 70  0  0  0  0  0  0  0  0999 V2000
   59.8910   31.8640   50.2350 C   0  0  0  0  0  0  0  0  0  0  0  0
   59.7540   30.7440   49.2840 N   0  0  0  0  0  0  0  0  0  0  0  0
   60.0670   29.4420   49.6510 C   0  0  0  0  0  0  0  0  0  0  0  0
   60.4240   29.1120   50.9820 C   0  0  0  0  0  0  0  0  0  0  0  0
   60.7800   27.8080   51.3280 C   0  0  0  0  0  0  0  0  0  0  0  0
   60.7840   26.8010   50.3690 C   0  0  0  0  0  0  0  0  0  0  0  0
   60.4100   27.0820   49.0570 C   0  0  0  0  0  0  0  0  0  0  0  0
   60.0260   28.3840   48.6810 C   0  0  0  0  0  0  0  0  0  0  0  0
   59.6040   28.6600   47.3600 C   0  0  0  0  0  0  0  0  0  0  0  0
   59.5310   27.6350   46.3610 N   0  0  0  0  0  0  0  0  0  0  0  0
   58.2350   27.0830   45.9650 C   0  0  0  0  0  0  0  0  0  0  0  0
   58.3760   25.9030   44.9740 C   0  0  0  0  0  0  0  0  0  0  0  0
   57.5170   25.9720   43.7640 N   0  0  0  0  0  0  0  0  0  0  0  0
   57.0640   24.6480   43.3020 C   0  0  0  0  0  0  0  0  0  0  0  0
   58.1320   26.7330   42.6630 C   0  0  0  0  0  0  0  0  0  0  0  0
   59.2350   29.9680   47.0620 C   0  0  0  0  0  0  0  0  0  0  0  0
   58.7270   30.5560   45.9150 C   0  0  0  0  0  0  0  0  0  0  0  0
   58.4320   30.0460   44.6490 C   0  0  0  0  0  0  0  0  0  0  0  0
   57.9130   30.9280   43.6870 C   0  0  0  0  0  0  0  0  0  0  0  0
   57.6930   32.2850   43.9990 C   0  0  0  0  0  0  0  0  0  0  0  0
   57.9760   32.7820   45.2900 C   0  0  0  0  0  0  0  0  0  0  0  0
   57.7660   34.2390   45.6130 C   0  0  0  0  0  0  0  0  0  0  0  0
   59.0900   34.9010   46.0090 C   0  0  0  0  0  0  0  0  0  0  0  0
   59.2550   34.8920   47.4700 N   0  0  0  0  0  0  0  0  0  0  0  0
   60.6390   34.5860   47.8530 C   0  0  0  0  0  0  0  0  0  0  0  0
   61.3240   33.8220   46.7150 C   0  0  0  0  0  0  0  0  0  0  0  0
   62.8450   33.8510   46.7440 C   0  0  0  0  0  0  0  0  0  0  0  0
   62.1000   32.5810   47.1310 C   0  0  0  0  0  0  0  0  0  0  0  0
   58.5050   31.8830   46.2290 C   0  0  0  0  0  0  0  0  0  0  0  0
   58.8500   32.1470   47.5090 N   0  0  0  0  0  0  0  0  0  0  0  0
   59.3020   30.9690   48.0090 C   0  0  0  0  0  0  0  0  0  0  0  0
   59.8439   31.4789   51.2643 H   0  0  0  0  0  0  0  0  0  0  0  0
   60.8571   32.3650   50.0748 H   0  0  0  0  0  0  0  0  0  0  0  0
   59.0741   32.5831   50.0748 H   0  0  0  0  0  0  0  0  0  0  0  0
   60.4204   29.8956   51.7540 H   0  0  0  0  0  0  0  0  0  0  0  0
   61.0593   27.5750   52.3661 H   0  0  0  0  0  0  0  0  0  0  0  0
   61.0833   25.7797   50.6473 H   0  0  0  0  0  0  0  0  0  0  0  0
   60.4146   26.2781   48.3061 H   0  0  0  0  0  0  0  0  0  0  0  0
   60.3780   27.4740   45.7720 H   0  0  0  0  0  0  0  0  0  0  0  0
   57.7120   26.7280   46.8652 H   0  0  0  0  0  0  0  0  0  0  0  0
   57.6704   27.8804   45.4598 H   0  0  0  0  0  0  0  0  0  0  0  0
   59.4241   25.8634   44.6426 H   0  0  0  0  0  0  0  0  0  0  0  0
   58.0480   25.0086   45.5240 H   0  0  0  0  0  0  0  0  0  0  0  0
   56.6570   26.5020   44.0450 H   0  0  0  0  0  0  0  0  0  0  0  0
   56.8460   24.0109   44.1719 H   0  0  0  0  0  0  0  0  0  0  0  0
   56.1541   24.7631   42.6946 H   0  0  0  0  0  0  0  0  0  0  0  0
   57.8537   24.1816   42.6946 H   0  0  0  0  0  0  0  0  0  0  0  0
   58.7724   27.5254   43.0778 H   0  0  0  0  0  0  0  0  0  0  0  0
   58.7400   26.0564   42.0445 H   0  0  0  0  0  0  0  0  0  0  0  0
   57.3429   27.1855   42.0445 H   0  0  0  0  0  0  0  0  0  0  0  0
   58.6010   28.9852   44.4122 H   0  0  0  0  0  0  0  0  0  0  0  0
   57.6757   30.5559   42.6794 H   0  0  0  0  0  0  0  0  0  0  0  0
   57.2969   32.9635   43.2291 H   0  0  0  0  0  0  0  0  0  0  0  0
   57.3569   34.7498   44.7288 H   0  0  0  0  0  0  0  0  0  0  0  0
   57.0646   34.3172   46.4568 H   0  0  0  0  0  0  0  0  0  0  0  0
   59.9224   34.3495   45.5475 H   0  0  0  0  0  0  0  0  0  0  0  0
   59.0845   35.9437   45.6586 H   0  0  0  0  0  0  0  0  0  0  0  0
   59.0400   35.8570   47.8200 H   0  0  0  0  0  0  0  0  0  0  0  0
   61.1824   35.5229   48.0455 H   0  0  0  0  0  0  0  0  0  0  0  0
   60.6408   33.9689   48.7636 H   0  0  0  0  0  0  0  0  0  0  0  0
   60.5515   34.0386   45.9625 H   0  0  0  0  0  0  0  0  0  0  0  0
   63.4124   33.8906   45.8025 H   0  0  0  0  0  0  0  0  0  0  0  0
   63.6019   34.4866   47.2268 H   0  0  0  0  0  0  0  0  0  0  0  0
   62.1291   31.7029   46.4691 H   0  0  0  0  0  0  0  0  0  0  0  0
   62.0955   31.9188   48.0093 H   0  0  0  0  0  0  0  0  0  0  0  0
   58.7450   33.0620   47.9950 H   0  0  0  0  0  0  0  0  0  0  0  0
  1  2  1  0
  2  3  2  0
  3  4  1  0
  4  5  2  0
  5  6  1  0
  6  7  2  0
  7  8  1  0
  8  9  2  0
  9 10  1  0
 10 11  1  0
 11 12  1  0
 12 13  1  0
 13 14  1  0
 13 15  1  0
  9 16  1  0
 16 17  1  0
 17 18  2  0
 18 19  1  0
 19 20  2  0
 20 21  1  0
 21 22  1  0
 22 23  1  0
 23 24  1  0
 24 25  1  0
 25 26  1  0
 26 27  1  0
 27 28  1  0
 21 29  2  0
 29 30  1  0
 30 31  1  0
 31  2  1  0
  8  3  1  0
 31 16  2  0
 29 17  1  0
 28 26  1  0
  1 32  1  0
  1 33  1  0
  1 34  1  0
  4 35  1  0
  5 36  1  0
  6 37  1  0
  7 38  1  0
 10 39  1  0
 11 40  1  0
 11 41  1  0
 12 42  1  0
 12 43  1  0
 13 44  1  0
 14 45  1  0
 14 46  1  0
 14 47  1  0
 15 48  1  0
 15 49  1  0
 15 50  1  0
 18 51  1  0
 19 52  1  0
 20 53  1  0
 22 54  1  0
 22 55  1  0
 23 56  1  0
 23 57  1  0
 24 58  1  0
 25 59  1  0
 25 60  1  0
 26 61  1  0
 27 62  1  0
 27 63  1  0
 28 64  1  0
 28 65  1  0
 30 66  1  0
M  CHG  2   2   1  13   1
M  END
>  <UniqueID>  (12) 
12

>  <SMILES>  (12) 
C[n+]1c2ccccc2c(NCC[NH+](C)C)c2c3cccc(CCNCC4CC4)c3[nH]c21

>  <Energy>  (12) 
389.11980971369337

>  <Genealogy>  (12) 
C[n+]1c2ccccc2c(NCC[NH+](C)C)c2c3cccc(CCNCC4CC4)c3[nH]c21 (protonated)
C[n+]1c2ccccc2c(NCC[NH+](C)C)c2c3cccc(CCNCC4CC4)c3[nH]c21 (3D coordinates assigned)
C[n+]1c2ccccc2c(NCC[NH+](C)C)c2c3cccc(CCNCC4CC4)c3[nH]c21 (nonaromatic ring conformer: 389.11980971369337 kcal/mol)

>  <smiles>  (12) 
CN(C)CCNc1c2ccccc2[n+](C)c2[nH]c3c(CCNCC4CC4)cccc3c12

>  <score_type>  (12) 
oracle

>  <origin>  (12) 
adg

>  <m_score__min__energy>  (12) 
-6.2400000000000002

>  <m_primary>  (12) 
energy

$$$$
12:0
     RDKit          3D

 43 44  0  0  0  0  0  0  0  0999 V2000
   61.8815   26.8942   46.0940 H   0  0  0  0  0  0  0  0  0  0  0  0
   60.8430   27.2270   45.9500 C   0  0  0  0  0  0  0  0  0  0  0  0
   60.5860   28.5290   45.4740 C   0  0  0  0  0  0  0  0  0  0  0  0
   61.6210   29.3610   45.1960 F   0  0  0  0  0  0  0  0  0  0  0  0
   59.2660   28.9720   45.2850 C   0  0  0  0  0  0  0  0  0  0  0  0
   59.0561   29.9860   44.9138 H   0  0  0  0  0  0  0  0  0  0  0  0
   58.2280   28.0850   45.5830 C   0  0  0  0  0  0  0  0  0  0  0  0
   56.8490   28.2140   45.5060 C   0  0  0  0  0  0  0  0  0  0  0  0
   56.0730   29.3370   45.0780 N   0  0  0  0  0  0  0  0  0  0  0  0
   56.3760   30.0150   44.0460 N   0  0  0  0  0  0  0  0  0  0  0  0
   57.1320   31.2240   44.1340 C   0  0  0  0  0  0  0  0  0  0  0  0
   57.6460   31.9180   42.7410 S   0  0  0  0  0  0  0  0  0  0  0  0
   57.4300   31.8130   45.4140 N   0  0  0  0  0  0  0  0  0  0  0  0
   57.0890   31.3470   46.2830 H   0  0  0  0  0  0  0  0  0  0  0  0
   58.1970   33.0450   45.5630 C   0  0  0  0  0  0  0  0  0  0  0  0
   58.3338   33.2647   46.6321 H   0  0  0  0  0  0  0  0  0  0  0  0
   59.1802   32.9249   45.0846 H   0  0  0  0  0  0  0  0  0  0  0  0
   57.6553   33.8743   45.0846 H   0  0  0  0  0  0  0  0  0  0  0  0
   56.3300   27.0050   45.9300 C   0  0  0  0  0  0  0  0  0  0  0  0
   54.9740   26.7010   45.9960 O   0  0  0  0  0  0  0  0  0  0  0  0
   57.3160   26.1420   46.2670 N   0  0  0  0  0  0  0  0  0  0  0  0
   57.1270   24.7680   46.7530 C   0  0  0  0  0  0  0  0  0  0  0  0
   57.4803   24.7034   47.7927 H   0  0  0  0  0  0  0  0  0  0  0  0
   57.6999   24.0877   46.1057 H   0  0  0  0  0  0  0  0  0  0  0  0
   55.6960   24.3720   46.7020 N   0  0  0  0  0  0  0  0  0  0  0  0
   55.1130   25.2420   46.7430 H   0  0  0  0  0  0  0  0  0  0  0  0
   55.3560   23.5190   47.8720 C   0  0  0  0  0  0  0  0  0  0  0  0
   54.4966   22.8846   47.6095 H   0  0  0  0  0  0  0  0  0  0  0  0
   55.1212   24.1837   48.7165 H   0  0  0  0  0  0  0  0  0  0  0  0
   56.5240   22.6180   48.2940 C   0  0  0  0  0  0  0  0  0  0  0  0
   56.5773   22.5769   49.3919 H   0  0  0  0  0  0  0  0  0  0  0  0
   56.3675   21.6044   47.8963 H   0  0  0  0  0  0  0  0  0  0  0  0
   57.4646   23.0267   47.8963 H   0  0  0  0  0  0  0  0  0  0  0  0
   55.4110   23.6540   45.4280 C   0  0  0  0  0  0  0  0  0  0  0  0
   56.1523   23.9603   44.6753 H   0  0  0  0  0  0  0  0  0  0  0  0
   55.4674   22.5740   45.6292 H   0  0  0  0  0  0  0  0  0  0  0  0
   54.0080   23.9600   44.8920 C   0  0  0  0  0  0  0  0  0  0  0  0
   53.3180   24.1105   45.7354 H   0  0  0  0  0  0  0  0  0  0  0  0
   54.0409   24.8721   44.2780 H   0  0  0  0  0  0  0  0  0  0  0  0
   53.6582   23.1170   44.2780 H   0  0  0  0  0  0  0  0  0  0  0  0
   58.4760   26.8080   46.0490 C   0  0  0  0  0  0  0  0  0  0  0  0
   59.7840   26.3510   46.2420 C   0  0  0  0  0  0  0  0  0  0  0  0
   59.9781   25.3335   46.6123 H   0  0  0  0  0  0  0  0  0  0  0  0
  1  2  1  0
  2  3  2  0
  3  4  1  0
  3  5  1  0
  5  6  1  0
  5  7  2  0
  7  8  1  0
  8  9  1  0
  9 10  2  0
 10 11  1  0
 11 12  2  0
 11 13  1  0
 13 14  1  0
 13 15  1  0
 15 16  1  0
 15 17  1  0
 15 18  1  0
  8 19  2  0
 19 20  1  0
 19 21  1  0
 21 22  1  0
 22 23  1  0
 22 24  1  0
 22 25  1  0
 25 26  1  0
 25 27  1  0
 27 28  1  0
 27 29  1  0
 27 30  1  0
 30 31  1  0
 30 32  1  0
 30 33  1  0
 25 34  1  0
 34 35  1  0
 34 36  1  0
 34 37  1  0
 37 38  1  0
 37 39  1  0
 37 40  1  0
 21 41  1  0
 41 42  2  0
 42 43  1  0
 42  2  1  0
 41  7  1  0
M  CHG  2  20  -1  25   1
M  END
>  <UniqueID>  (13) 
13

>  <SMILES>  (13) 
CC[NH+](CC)Cn1c([O-])c(/N=N/C(=S)NC)c2cc(F)ccc21

>  <Energy>  (13) 
77.25436794382051

>  <Genealogy>  (13) 
CC[NH+](CC)Cn1c([O-])c(N=NC(=S)NC)c2cc(F)ccc21 (protonated)
CC[NH+](CC)Cn1c([O-])c(/N=N/C(=S)NC)c2cc(F)ccc21 (cis-trans isomerization)
CC[NH+](CC)Cn1c([O-])c(/N=N/C(=S)NC)c2cc(F)ccc21 (3D coordinates assigned)
CC[NH+](CC)Cn1c([O-])c(/N=N/C(=S)NC)c2cc(F)ccc21 (optimized conformer: 77.25436794382051 kcal/mol)

>  <smiles>  (13) 
CCN(CC)Cn1c(O)c(N=NC(=S)NC)c2cc(F)ccc21

>  <score_type>  (13) 
oracle

>  <origin>  (13) 
adg

>  <m_score__min__energy>  (13) 
-8.6500000000000004

>  <m_primary>  (13) 
energy

$$$$
13:0
     RDKit          3D

 48 48  0  0  0  0  0  0  0  0999 V2000
   59.4146   35.6294   45.3749 H   0  0  0  0  0  0  0  0  0  0  0  0
   59.3430   34.6260   45.8200 C   0  0  0  0  0  0  0  0  0  0  0  0
   58.3240   33.8360   45.4100 C   0  0  0  0  0  0  0  0  0  0  0  0
   58.4650   32.3590   45.4670 C   0  0  0  0  0  0  0  0  0  0  0  0
   59.5770   31.8340   45.7570 O   0  0  0  0  0  0  0  0  0  0  0  0
   57.3500   31.5440   45.2200 O   0  0  0  0  0  0  0  0  0  0  0  0
   56.9650   31.1250   43.9110 C   0  0  0  0  0  0  0  0  0  0  0  0
   57.8676   30.9397   43.3101 H   0  0  0  0  0  0  0  0  0  0  0  0
   56.3574   31.9167   43.4483 H   0  0  0  0  0  0  0  0  0  0  0  0
   56.1320   29.8370   43.9820 C   0  0  0  0  0  0  0  0  0  0  0  0
   56.5092   29.1222   43.2358 H   0  0  0  0  0  0  0  0  0  0  0  0
   55.0803   30.0859   43.7770 H   0  0  0  0  0  0  0  0  0  0  0  0
   56.2170   29.2530   45.2680 O   0  0  0  0  0  0  0  0  0  0  0  0
   56.9890   28.0680   45.2260 C   0  0  0  0  0  0  0  0  0  0  0  0
   57.3604   27.9091   44.2029 H   0  0  0  0  0  0  0  0  0  0  0  0
   56.3644   27.2143   45.5278 H   0  0  0  0  0  0  0  0  0  0  0  0
   58.1770   28.1940   46.1860 C   0  0  0  0  0  0  0  0  0  0  0  0
   59.0838   27.8380   45.6752 H   0  0  0  0  0  0  0  0  0  0  0  0
   57.9545   27.5896   47.0777 H   0  0  0  0  0  0  0  0  0  0  0  0
   58.3970   29.5920   46.6290 N   0  0  0  0  0  0  0  0  0  0  0  0
   58.8720   30.1310   45.8630 H   0  0  0  0  0  0  0  0  0  0  0  0
   57.4880   30.0800   46.8090 H   0  0  0  0  0  0  0  0  0  0  0  0
   59.2070   29.6830   47.8580 C   0  0  0  0  0  0  0  0  0  0  0  0
   60.2715   29.6350   47.5851 H   0  0  0  0  0  0  0  0  0  0  0  0
   58.9234   28.8455   48.5123 H   0  0  0  0  0  0  0  0  0  0  0  0
   58.9520   30.9860   48.6240 C   0  0  0  0  0  0  0  0  0  0  0  0
   58.9905   30.7891   49.7055 H   0  0  0  0  0  0  0  0  0  0  0  0
   59.7227   31.7245   48.3581 H   0  0  0  0  0  0  0  0  0  0  0  0
   57.9598   31.3795   48.3581 H   0  0  0  0  0  0  0  0  0  0  0  0
   57.0210   34.4050   44.9030 C   0  0  0  0  0  0  0  0  0  0  0  0
   56.3853   34.6826   45.7567 H   0  0  0  0  0  0  0  0  0  0  0  0
   57.2235   35.2966   44.2914 H   0  0  0  0  0  0  0  0  0  0  0  0
   56.5047   33.6504   44.2914 H   0  0  0  0  0  0  0  0  0  0  0  0
   60.3690   34.2510   46.8180 C   0  0  0  0  0  0  0  0  0  0  0  0
   61.6600   33.8510   46.4330 C   0  0  0  0  0  0  0  0  0  0  0  0
   61.9058   33.7552   45.3651 H   0  0  0  0  0  0  0  0  0  0  0  0
   62.6340   33.5740   47.3960 C   0  0  0  0  0  0  0  0  0  0  0  0
   63.6322   33.2350   47.0818 H   0  0  0  0  0  0  0  0  0  0  0  0
   62.3480   33.7250   48.7570 C   0  0  0  0  0  0  0  0  0  0  0  0
   63.3690   33.4610   49.6850 O   0  0  0  0  0  0  0  0  0  0  0  0
   64.5720   32.7640   49.3810 C   0  0  0  0  0  0  0  0  0  0  0  0
   65.0736   32.4734   50.3158 H   0  0  0  0  0  0  0  0  0  0  0  0
   64.3358   31.8628   48.7961 H   0  0  0  0  0  0  0  0  0  0  0  0
   65.2364   33.4171   48.7961 H   0  0  0  0  0  0  0  0  0  0  0  0
   61.0610   34.1450   49.1450 C   0  0  0  0  0  0  0  0  0  0  0  0
   60.8225   34.2626   50.2124 H   0  0  0  0  0  0  0  0  0  0  0  0
   60.0860   34.4130   48.1820 C   0  0  0  0  0  0  0  0  0  0  0  0
   59.0883   34.7538   48.4957 H   0  0  0  0  0  0  0  0  0  0  0  0
  1  2  1  0
  2  3  2  0
  3  4  1  0
  4  5  2  0
  4  6  1  0
  6  7  1  0
  7  8  1  0
  7  9  1  0
  7 10  1  0
 10 11  1  0
 10 12  1  0
 10 13  1  0
 13 14  1  0
 14 15  1  0
 14 16  1  0
 14 17  1  0
 17 18  1  0
 17 19  1  0
 17 20  1  0
 20 21  1  0
 20 22  1  0
 20 23  1  0
 23 24  1  0
 23 25  1  0
 23 26  1  0
 26 27  1  0
 26 28  1  0
 26 29  1  0
  3 30  1  0
 30 31  1  0
 30 32  1  0
 30 33  1  0
  2 34  1  0
 34 35  2  0
 35 36  1  0
 35 37  1  0
 37 38  1  0
 37 39  2  0
 39 40  1  0
 40 41  1  0
 41 42  1  0
 41 43  1  0
 41 44  1  0
 39 45  1  0
 45 46  1  0
 45 47  2  0
 47 48  1  0
 47 34  1  0
M  CHG  1  20   1
M  END
>  <UniqueID>  (14) 
14

>  <SMILES>  (14) 
CC[NH2+]CCOCCOC(=O)/C(C)=C/c1ccc(OC)cc1

>  <Energy>  (14) 
49.68042395360893

>  <Genealogy>  (14) 
CC[NH2+]CCOCCOC(=O)C(C)=Cc1ccc(OC)cc1 (protonated)
CC[NH2+]CCOCCOC(=O)/C(C)=C/c1ccc(OC)cc1 (cis-trans isomerization)
CC[NH2+]CCOCCOC(=O)/C(C)=C/c1ccc(OC)cc1 (3D coordinates assigned)
CC[NH2+]CCOCCOC(=O)/C(C)=C/c1ccc(OC)cc1 (optimized conformer: 49.68042395360893 kcal/mol)

>  <smiles>  (14) 
CCNCCOCCOC(=O)C(C)=Cc1ccc(OC)cc1

>  <score_type>  (14) 
oracle

>  <origin>  (14) 
adg

>  <m_score__min__energy>  (14) 
-4.1900000000000004

>  <m_primary>  (14) 
energy

$$$$
14:0
     RDKit          3D

 41 42  0  0  0  0  0  0  0  0999 V2000
   59.6620   33.6360   48.8870 C   0  0  0  0  0  0  0  0  0  0  0  0
   58.5930   33.1160   47.9170 C   0  0  0  0  0  0  0  0  0  0  0  0
   58.8800   33.3970   46.4870 N   0  0  0  0  0  0  0  0  0  0  0  0
   59.6790   34.6250   46.2620 C   0  0  0  0  0  0  0  0  0  0  0  0
   59.2670   35.3440   44.9780 C   0  0  0  0  0  0  0  0  0  0  0  0
   57.6520   33.3860   45.6590 C   0  0  0  0  0  0  0  0  0  0  0  0
   57.5230   32.0650   44.8910 C   0  0  0  0  0  0  0  0  0  0  0  0
   58.5850   31.1230   45.2580 N   0  0  0  0  0  0  0  0  0  0  0  0
   58.3300   29.7320   45.5110 C   0  0  0  0  0  0  0  0  0  0  0  0
   57.1620   29.0750   45.0350 C   0  0  0  0  0  0  0  0  0  0  0  0
   56.2860   29.7140   44.0920 N   0  0  0  0  0  0  0  0  0  0  0  0
   55.1810   30.1620   44.4610 O   0  0  0  0  0  0  0  0  0  0  0  0
   56.5700   29.6710   42.7460 O   0  0  0  0  0  0  0  0  0  0  0  0
   56.8930   27.7390   45.4400 C   0  0  0  0  0  0  0  0  0  0  0  0
   57.7820   27.0290   46.2820 C   0  0  0  0  0  0  0  0  0  0  0  0
   57.5080   25.6760   46.6900 N   0  0  0  0  0  0  0  0  0  0  0  0
   58.4190   24.8220   46.7090 O   0  0  0  0  0  0  0  0  0  0  0  0
   56.2390   25.2960   47.0650 O   0  0  0  0  0  0  0  0  0  0  0  0
   58.9390   27.7020   46.6850 C   0  0  0  0  0  0  0  0  0  0  0  0
   59.9350   27.2740   47.4890 N   0  0  0  0  0  0  0  0  0  0  0  0
   60.7560   28.2900   47.5790 O   0  0  0  0  0  0  0  0  0  0  0  0
   60.3540   29.3250   46.8950 N   0  0  0  0  0  0  0  0  0  0  0  0
   61.0160   30.5290   46.8190 O   0  0  0  0  0  0  0  0  0  0  0  0
   59.1990   28.9850   46.3080 C   0  0  0  0  0  0  0  0  0  0  0  0
   59.3279   33.4735   49.9223 H   0  0  0  0  0  0  0  0  0  0  0  0
   60.6051   33.0960   48.7170 H   0  0  0  0  0  0  0  0  0  0  0  0
   59.8194   34.7113   48.7170 H   0  0  0  0  0  0  0  0  0  0  0  0
   58.5118   32.0265   48.0449 H   0  0  0  0  0  0  0  0  0  0  0  0
   57.6599   33.6446   48.1619 H   0  0  0  0  0  0  0  0  0  0  0  0
   59.5328   35.3057   47.1136 H   0  0  0  0  0  0  0  0  0  0  0  0
   60.7350   34.3325   46.1658 H   0  0  0  0  0  0  0  0  0  0  0  0
   58.7349   36.2726   45.2323 H   0  0  0  0  0  0  0  0  0  0  0  0
   60.1640   35.5850   44.3887 H   0  0  0  0  0  0  0  0  0  0  0  0
   58.6055   34.6920   44.3887 H   0  0  0  0  0  0  0  0  0  0  0  0
   56.7758   33.5100   46.3123 H   0  0  0  0  0  0  0  0  0  0  0  0
   57.7094   34.2108   44.9334 H   0  0  0  0  0  0  0  0  0  0  0  0
   56.5478   31.6114   45.1216 H   0  0  0  0  0  0  0  0  0  0  0  0
   57.6104   32.2813   43.8160 H   0  0  0  0  0  0  0  0  0  0  0  0
   59.5200   31.5130   45.5130 H   0  0  0  0  0  0  0  0  0  0  0  0
   55.9735   27.2461   45.0912 H   0  0  0  0  0  0  0  0  0  0  0  0
   61.9160   30.6470   47.2690 H   0  0  0  0  0  0  0  0  0  0  0  0
  1  2  1  0
  2  3  1  0
  3  4  1  0
  4  5  1  0
  3  6  1  0
  6  7  1  0
  7  8  1  0
  8  9  1  0
  9 10  2  0
 10 11  1  0
 11 12  2  0
 11 13  1  0
 10 14  1  0
 14 15  2  0
 15 16  1  0
 16 17  2  0
 16 18  1  0
 15 19  1  0
 19 20  2  0
 20 21  1  0
 21 22  1  0
 22 23  1  0
 22 24  2  0
 24  9  1  0
 24 19  1  0
  1 25  1  0
  1 26  1  0
  1 27  1  0
  2 28  1  0
  2 29  1  0
  4 30  1  0
  4 31  1  0
  5 32  1  0
  5 33  1  0
  5 34  1  0
  6 35  1  0
  6 36  1  0
  7 37  1  0
  7 38  1  0
  8 39  1  0
 14 40  1  0
 23 41  1  0
M  CHG  5  11   1  13  -1  16   1  18  -1  22   1
M  END
>  <UniqueID>  (15) 
15

>  <SMILES>  (15) 
CCN(CC)CCNc1c([N+](=O)[O-])cc([N+](=O)[O-])c2no[n+](O)c12

>  <Energy>  (15) 
93.86881029205011

>  <Genealogy>  (15) 
CCN(CC)CCNc1c([N+](=O)[O-])cc([N+](=O)[O-])c2no[n+](O)c12 (protonated)
CCN(CC)CCNc1c([N+](=O)[O-])cc([N+](=O)[O-])c2no[n+](O)c12 (3D coordinates assigned)
CCN(CC)CCNc1c([N+](=O)[O-])cc([N+](=O)[O-])c2no[n+](O)c12 (optimized conformer: 93.86881029205011 kcal/mol)

>  <smiles>  (15) 
CCN(CC)CCNc1c([N+](=O)[O-])cc([N+](=O)[O-])c2no[n+]([O-])c12

>  <score_type>  (15) 
oracle

>  <origin>  (15) 
adg

>  <m_score__min__energy>  (15) 
-5.2800000000000002

>  <m_primary>  (15) 
energy

$$$$
15:0
     RDKit          3D

 43 44  0  0  0  0  0  0  0  0999 V2000
   58.5300   33.0970   48.1890 C   0  0  0  0  0  0  0  0  0  0  0  0
   57.6120   33.0950   46.9610 C   0  0  0  0  0  0  0  0  0  0  0  0
   58.2940   32.6310   45.7290 N   0  0  2  0  0  0  0  0  0  0  0  0
   59.7390   32.4590   45.9850 C   0  0  0  0  0  0  0  0  0  0  0  0
   58.0420   33.4720   44.5270 C   0  0  0  0  0  0  0  0  0  0  0  0
   58.0510   32.7230   43.1790 C   0  0  0  0  0  0  0  0  0  0  0  0
   58.1910   31.3320   43.3910 O   0  0  0  0  0  0  0  0  0  0  0  0
   56.9730   30.6570   43.1350 C   0  0  0  0  0  0  0  0  0  0  0  0
   56.3850   30.1660   44.4210 C   0  0  0  0  0  0  0  0  0  0  0  0
   55.1480   29.9270   44.4970 O   0  0  0  0  0  0  0  0  0  0  0  0
   57.2250   30.0180   45.5700 N   0  0  0  0  0  0  0  0  0  0  0  0
   57.8140   28.7820   45.9930 C   0  0  0  0  0  0  0  0  0  0  0  0
   57.4080   27.6100   45.3440 C   0  0  0  0  0  0  0  0  0  0  0  0
   57.9490   26.3730   45.6990 C   0  0  0  0  0  0  0  0  0  0  0  0
   57.3930   24.7930   44.7780 Br  0  0  0  0  0  0  0  0  0  0  0  0
   58.8910   26.2880   46.7230 C   0  0  0  0  0  0  0  0  0  0  0  0
   59.2870   27.4400   47.4170 C   0  0  0  0  0  0  0  0  0  0  0  0
   60.2110   27.3410   48.4700 C   0  0  0  0  0  0  0  0  0  0  0  0
   60.5820   28.4790   49.1880 C   0  0  0  0  0  0  0  0  0  0  0  0
   60.0320   29.7190   48.8690 C   0  0  0  0  0  0  0  0  0  0  0  0
   59.1160   29.8360   47.8210 C   0  0  0  0  0  0  0  0  0  0  0  0
   58.7410   28.7040   47.0660 C   0  0  0  0  0  0  0  0  0  0  0  0
   57.9189   33.0957   49.1036 H   0  0  0  0  0  0  0  0  0  0  0  0
   59.1668   32.2002   48.1722 H   0  0  0  0  0  0  0  0  0  0  0  0
   59.1629   33.9965   48.1722 H   0  0  0  0  0  0  0  0  0  0  0  0
   56.7595   32.4294   47.1617 H   0  0  0  0  0  0  0  0  0  0  0  0
   57.2908   34.1328   46.7885 H   0  0  0  0  0  0  0  0  0  0  0  0
   57.9230   31.6740   45.5070 H   0  0  0  0  0  0  0  0  0  0  0  0
   59.9192   32.4376   47.0699 H   0  0  0  0  0  0  0  0  0  0  0  0
   60.0806   31.5138   45.5378 H   0  0  0  0  0  0  0  0  0  0  0  0
   60.2930   33.2975   45.5378 H   0  0  0  0  0  0  0  0  0  0  0  0
   57.0561   33.9453   44.6452 H   0  0  0  0  0  0  0  0  0  0  0  0
   58.8751   34.1887   44.4798 H   0  0  0  0  0  0  0  0  0  0  0  0
   57.1059   32.9161   42.6503 H   0  0  0  0  0  0  0  0  0  0  0  0
   58.8995   33.0802   42.5770 H   0  0  0  0  0  0  0  0  0  0  0  0
   56.2672   31.3482   42.6512 H   0  0  0  0  0  0  0  0  0  0  0  0
   57.1652   29.7998   42.4730 H   0  0  0  0  0  0  0  0  0  0  0  0
   56.6539   27.6644   44.5450 H   0  0  0  0  0  0  0  0  0  0  0  0
   59.3256   25.3128   46.9877 H   0  0  0  0  0  0  0  0  0  0  0  0
   60.6437   26.3636   48.7297 H   0  0  0  0  0  0  0  0  0  0  0  0
   61.3106   28.3968   50.0080 H   0  0  0  0  0  0  0  0  0  0  0  0
   60.3207   30.6103   49.4455 H   0  0  0  0  0  0  0  0  0  0  0  0
   58.6832   30.8187   47.5821 H   0  0  0  0  0  0  0  0  0  0  0  0
  1  2  1  0
  2  3  1  0
  3  4  1  0
  3  5  1  0
  5  6  1  0
  6  7  1  0
  7  8  1  0
  8  9  1  0
  9 10  2  0
  9 11  1  0
 11 12  1  0
 12 13  2  0
 13 14  1  0
 14 15  1  0
 14 16  2  0
 16 17  1  0
 17 18  2  0
 18 19  1  0
 19 20  2  0
 20 21  1  0
 21 22  2  0
 22 12  1  0
 22 17  1  0
  1 23  1  0
  1 24  1  0
  1 25  1  0
  2 26  1  0
  2 27  1  0
  3 28  1  6
  4 29  1  0
  4 30  1  0
  4 31  1  0
  5 32  1  0
  5 33  1  0
  6 34  1  0
  6 35  1  0
  8 36  1  0
  8 37  1  0
 13 38  1  0
 16 39  1  0
 18 40  1  0
 19 41  1  0
 20 42  1  0
 21 43  1  0
M  CHG  2   3   1  11  -1
M  END
>  <UniqueID>  (16) 
16

>  <SMILES>  (16) 
CC[N@H+](C)CCOCC(=O)[N-]c1cc(Br)cc2ccccc12

>  <Energy>  (16) 
55.42859432373008

>  <Genealogy>  (16) 
CC[NH+](C)CCOCC(=O)[N-]c1cc(Br)cc2ccccc12 (protonated)
CC[N@H+](C)CCOCC(=O)[N-]c1cc(Br)cc2ccccc12 (chirality)
CC[N@H+](C)CCOCC(=O)[N-]c1cc(Br)cc2ccccc12 (3D coordinates assigned)
CC[N@H+](C)CCOCC(=O)[N-]c1cc(Br)cc2ccccc12 (optimized conformer: 55.42859432373008 kcal/mol)

>  <smiles>  (16) 
CCN(C)CCOCC(=O)Nc1cc(Br)cc2ccccc12

>  <score_type>  (16) 
oracle

>  <origin>  (16) 
adg

>  <m_score__min__energy>  (16) 
-6.9199999999999999

>  <m_primary>  (16) 
energy

$$$$
16:0
     RDKit          3D

 57 59  0  0  0  0  0  0  0  0999 V2000
   57.0750   31.2120   42.2710 C   0  0  0  0  0  0  0  0  0  0  0  0
   56.3970   30.1870   43.1740 C   0  0  0  0  0  0  0  0  0  0  0  0
   56.3860   30.6350   44.5300 O   0  0  0  0  0  0  0  0  0  0  0  0
   57.3920   31.3980   45.1470 C   0  0  0  0  0  0  0  0  0  0  0  0
   57.3120   32.7950   45.2890 C   0  0  0  0  0  0  0  0  0  0  0  0
   58.3470   33.5020   45.9100 C   0  0  0  0  0  0  0  0  0  0  0  0
   59.4820   32.8280   46.3920 C   0  0  0  0  0  0  0  0  0  0  0  0
   60.5410   33.5560   47.0450 N   0  0  0  0  0  0  0  0  0  0  0  0
   61.9430   33.2910   46.6970 C   0  0  0  0  0  0  0  0  0  0  0  0
   62.8830   33.8400   47.7760 C   0  0  0  0  0  0  0  0  0  0  0  0
   62.3090   33.5680   49.1090 N   0  0  0  0  0  0  0  0  0  0  0  0
   63.3090   33.8240   50.1700 C   0  0  0  0  0  0  0  0  0  0  0  0
   63.9760   32.5160   50.6480 C   0  0  2  0  0  0  0  0  0  0  0  0
   64.0090   31.5920   49.5920 O   0  0  0  0  0  0  0  0  0  0  0  0
   63.2090   31.9010   51.8260 C   0  0  0  0  0  0  0  0  0  0  0  0
   62.1910   31.0270   51.3410 O   0  0  0  0  0  0  0  0  0  0  0  0
   60.8770   31.4200   51.0400 C   0  0  0  0  0  0  0  0  0  0  0  0
   60.1570   32.3080   51.8640 C   0  0  0  0  0  0  0  0  0  0  0  0
   58.8500   32.6750   51.5340 C   0  0  0  0  0  0  0  0  0  0  0  0
   58.2490   32.1650   50.3830 C   0  0  0  0  0  0  0  0  0  0  0  0
   58.9510   31.2850   49.5580 C   0  0  0  0  0  0  0  0  0  0  0  0
   60.2660   30.9070   49.8780 C   0  0  0  0  0  0  0  0  0  0  0  0
   61.0160   29.9560   48.9880 C   0  0  0  0  0  0  0  0  0  0  0  0
   61.0540   34.3370   49.3330 C   0  0  0  0  0  0  0  0  0  0  0  0
   60.2490   34.5900   48.0430 C   0  0  0  0  0  0  0  0  0  0  0  0
   59.5560   31.4330   46.2530 C   0  0  0  0  0  0  0  0  0  0  0  0
   58.5210   30.7280   45.6310 C   0  0  0  0  0  0  0  0  0  0  0  0
   57.5768   31.9706   42.8896 H   0  0  0  0  0  0  0  0  0  0  0  0
   57.8177   30.7069   41.6360 H   0  0  0  0  0  0  0  0  0  0  0  0
   56.3195   31.6979   41.6360 H   0  0  0  0  0  0  0  0  0  0  0  0
   55.3613   30.0370   42.8353 H   0  0  0  0  0  0  0  0  0  0  0  0
   56.9582   29.2425   43.1190 H   0  0  0  0  0  0  0  0  0  0  0  0
   56.4313   33.3342   44.9099 H   0  0  0  0  0  0  0  0  0  0  0  0
   58.2719   34.5937   46.0219 H   0  0  0  0  0  0  0  0  0  0  0  0
   62.0932   32.2051   46.6059 H   0  0  0  0  0  0  0  0  0  0  0  0
   62.1706   33.7895   45.7432 H   0  0  0  0  0  0  0  0  0  0  0  0
   63.8644   33.3504   47.6919 H   0  0  0  0  0  0  0  0  0  0  0  0
   63.0037   34.9251   47.6416 H   0  0  0  0  0  0  0  0  0  0  0  0
   64.0845   34.4969   49.7752 H   0  0  0  0  0  0  0  0  0  0  0  0
   62.7928   34.2809   51.0272 H   0  0  0  0  0  0  0  0  0  0  0  0
   64.9976   32.7545   50.9789 H   0  0  0  0  0  0  0  0  0  0  0  0
   63.0680   31.4350   49.3170 H   0  0  0  0  0  0  0  0  0  0  0  0
   63.9068   31.3324   52.4582 H   0  0  0  0  0  0  0  0  0  0  0  0
   62.7444   32.7058   52.4146 H   0  0  0  0  0  0  0  0  0  0  0  0
   60.6266   32.7144   52.7719 H   0  0  0  0  0  0  0  0  0  0  0  0
   58.2938   33.3674   52.1830 H   0  0  0  0  0  0  0  0  0  0  0  0
   57.2202   32.4569   50.1253 H   0  0  0  0  0  0  0  0  0  0  0  0
   58.4721   30.8850   48.6521 H   0  0  0  0  0  0  0  0  0  0  0  0
   61.5792   29.2418   49.6066 H   0  0  0  0  0  0  0  0  0  0  0  0
   60.3036   29.4089   48.3530 H   0  0  0  0  0  0  0  0  0  0  0  0
   61.7140   30.5213   48.3530 H   0  0  0  0  0  0  0  0  0  0  0  0
   60.4206   33.7732   50.0337 H   0  0  0  0  0  0  0  0  0  0  0  0
   61.3440   35.3205   49.7314 H   0  0  0  0  0  0  0  0  0  0  0  0
   59.1744   34.5736   48.2776 H   0  0  0  0  0  0  0  0  0  0  0  0
   60.5324   35.5706   47.6330 H   0  0  0  0  0  0  0  0  0  0  0  0
   60.4335   30.8913   46.6357 H   0  0  0  0  0  0  0  0  0  0  0  0
   58.5951   29.6360   45.5211 H   0  0  0  0  0  0  0  0  0  0  0  0
  1  2  1  0
  2  3  1  0
  3  4  1  0
  4  5  2  0
  5  6  1  0
  6  7  2  0
  7  8  1  0
  8  9  1  0
  9 10  1  0
 10 11  1  0
 11 12  1  0
 12 13  1  0
 13 14  1  0
 13 15  1  0
 15 16  1  0
 16 17  1  0
 17 18  2  0
 18 19  1  0
 19 20  2  0
 20 21  1  0
 21 22  2  0
 22 23  1  0
 11 24  1  0
 24 25  1  0
  7 26  1  0
 26 27  2  0
 27  4  1  0
 25  8  1  0
 22 17  1  0
  1 28  1  0
  1 29  1  0
  1 30  1  0
  2 31  1  0
  2 32  1  0
  5 33  1  0
  6 34  1  0
  9 35  1  0
  9 36  1  0
 10 37  1  0
 10 38  1  0
 12 39  1  0
 12 40  1  0
 13 41  1  1
 14 42  1  0
 15 43  1  0
 15 44  1  0
 18 45  1  0
 19 46  1  0
 20 47  1  0
 21 48  1  0
 23 49  1  0
 23 50  1  0
 23 51  1  0
 24 52  1  0
 24 53  1  0
 25 54  1  0
 25 55  1  0
 26 56  1  0
 27 57  1  0
M  END
>  <UniqueID>  (17) 
17

>  <SMILES>  (17) 
CCOc1ccc(N2CCN(C[C@H](O)COc3ccccc3C)CC2)cc1

>  <Energy>  (17) 
63.59053230381773

>  <Genealogy>  (17) 
CCOc1ccc(N2CCN(C[C@H](O)COc3ccccc3C)CC2)cc1 (chirality)
CCOc1ccc(N2CCN(C[C@H](O)COc3ccccc3C)CC2)cc1 (3D coordinates assigned)
CCOc1ccc(N2CCN(C[C@H](O)COc3ccccc3C)CC2)cc1 (nonaromatic ring conformer: 63.59053230381773 kcal/mol)

>  <smiles>  (17) 
CCOc1ccc(N2CCN(CC(O)COc3ccccc3C)CC2)cc1

>  <score_type>  (17) 
oracle

>  <origin>  (17) 
adg

>  <m_score__min__energy>  (17) 
-7.8600000000000003

>  <m_primary>  (17) 
energy

$$$$
17:0
     RDKit          3D

 59 61  0  0  0  0  0  0  0  0999 V2000
   63.0630   33.3470   50.7260 C   0  0  0  0  0  0  0  0  0  0  0  0
   61.6720   33.4610   51.3600 C   0  0  0  0  0  0  0  0  0  0  0  0
   60.7430   32.4230   50.8760 N   0  0  0  0  0  0  0  0  0  0  0  0
   59.3790   32.9480   50.6760 C   0  0  0  0  0  0  0  0  0  0  0  0
   58.3530   31.8190   50.4620 C   0  0  0  0  0  0  0  0  0  0  0  0
   58.9210   30.6570   49.6220 C   0  0  0  0  0  0  0  0  0  0  0  0
   60.1280   30.0650   50.2210 N   0  0  0  0  0  0  0  0  0  0  0  0
   60.7600   29.0740   49.3410 C   0  0  0  0  0  0  0  0  0  0  0  0
   59.9760   28.9740   48.0240 C   0  0  0  0  0  0  0  0  0  0  0  0
   60.5340   29.8150   46.9550 N   0  0  0  0  0  0  0  0  0  0  0  0
   59.7920   30.8530   46.2940 C   0  0  0  0  0  0  0  0  0  0  0  0
   58.7660   30.4890   45.4020 C   0  0  0  0  0  0  0  0  0  0  0  0
   58.6050   29.1440   45.0000 C   0  0  0  0  0  0  0  0  0  0  0  0
   57.5390   28.7630   44.1900 C   0  0  0  0  0  0  0  0  0  0  0  0
   56.6100   29.7090   43.7740 C   0  0  0  0  0  0  0  0  0  0  0  0
   56.7650   31.0470   44.1340 C   0  0  0  0  0  0  0  0  0  0  0  0
   57.8700   31.4740   44.9180 C   0  0  0  0  0  0  0  0  0  0  0  0
   58.0660   32.8020   45.2350 N   0  0  0  0  0  0  0  0  0  0  0  0
   57.3050   33.8490   44.5130 C   0  0  0  0  0  0  0  0  0  0  0  0
   59.0070   33.1630   46.1840 C   0  0  0  0  0  0  0  0  0  0  0  0
   59.0410   34.4780   46.7100 C   0  0  0  0  0  0  0  0  0  0  0  0
   60.0590   34.8890   47.5580 C   0  0  0  0  0  0  0  0  0  0  0  0
   61.0710   34.0100   47.9060 C   0  0  0  0  0  0  0  0  0  0  0  0
   61.0360   32.6750   47.4890 C   0  0  0  0  0  0  0  0  0  0  0  0
   62.4930   31.6940   47.9120 S   0  0  0  0  0  0  0  0  0  0  0  0
   63.6910   32.8230   47.1340 C   0  0  0  0  0  0  0  0  0  0  0  0
   59.9590   32.2120   46.6640 C   0  0  0  0  0  0  0  0  0  0  0  0
   63.8232   33.2847   51.5186 H   0  0  0  0  0  0  0  0  0  0  0  0
   63.1086   32.4421   50.1022 H   0  0  0  0  0  0  0  0  0  0  0  0
   63.2553   34.2324   50.1022 H   0  0  0  0  0  0  0  0  0  0  0  0
   61.7727   33.3631   52.4510 H   0  0  0  0  0  0  0  0  0  0  0  0
   61.2557   34.4393   51.0779 H   0  0  0  0  0  0  0  0  0  0  0  0
   61.1100   32.0140   49.9870 H   0  0  0  0  0  0  0  0  0  0  0  0
   60.7110   31.6660   51.6020 H   0  0  0  0  0  0  0  0  0  0  0  0
   59.0881   33.5290   51.5636 H   0  0  0  0  0  0  0  0  0  0  0  0
   59.3855   33.5774   49.7739 H   0  0  0  0  0  0  0  0  0  0  0  0
   58.0482   31.4284   51.4441 H   0  0  0  0  0  0  0  0  0  0  0  0
   57.4992   32.2426   49.9128 H   0  0  0  0  0  0  0  0  0  0  0  0
   58.1513   29.8760   49.5346 H   0  0  0  0  0  0  0  0  0  0  0  0
   59.2006   31.0617   48.6381 H   0  0  0  0  0  0  0  0  0  0  0  0
   59.8730   29.6050   51.1260 H   0  0  0  0  0  0  0  0  0  0  0  0
   61.7944   29.3816   49.1280 H   0  0  0  0  0  0  0  0  0  0  0  0
   60.7605   28.0933   49.8392 H   0  0  0  0  0  0  0  0  0  0  0  0
   59.9884   27.9267   47.6879 H   0  0  0  0  0  0  0  0  0  0  0  0
   58.9546   29.3309   48.2226 H   0  0  0  0  0  0  0  0  0  0  0  0
   61.4130   29.4860   46.4980 H   0  0  0  0  0  0  0  0  0  0  0  0
   59.3318   28.3878   45.3316 H   0  0  0  0  0  0  0  0  0  0  0  0
   57.4320   27.7132   43.8793 H   0  0  0  0  0  0  0  0  0  0  0  0
   55.7509   29.4017   43.1596 H   0  0  0  0  0  0  0  0  0  0  0  0
   56.0185   31.7850   43.8052 H   0  0  0  0  0  0  0  0  0  0  0  0
   56.8197   34.5167   45.2401 H   0  0  0  0  0  0  0  0  0  0  0  0
   57.9918   34.4317   43.8815 H   0  0  0  0  0  0  0  0  0  0  0  0
   56.5387   33.3756   43.8815 H   0  0  0  0  0  0  0  0  0  0  0  0
   58.2444   35.1872   46.4407 H   0  0  0  0  0  0  0  0  0  0  0  0
   60.0624   35.9150   47.9547 H   0  0  0  0  0  0  0  0  0  0  0  0
   61.9129   34.3659   48.5180 H   0  0  0  0  0  0  0  0  0  0  0  0
   64.2548   33.3543   47.9150 H   0  0  0  0  0  0  0  0  0  0  0  0
   64.3870   32.2448   46.5085 H   0  0  0  0  0  0  0  0  0  0  0  0
   63.1550   33.5520   46.5085 H   0  0  0  0  0  0  0  0  0  0  0  0
  1  2  1  0
  2  3  1  0
  3  4  1  0
  4  5  1  0
  5  6  1  0
  6  7  1  0
  7  8  1  0
  8  9  1  0
  9 10  1  0
 10 11  1  0
 11 12  2  0
 12 13  1  0
 13 14  2  0
 14 15  1  0
 15 16  2  0
 16 17  1  0
 17 18  2  0
 18 19  1  0
 18 20  1  0
 20 21  2  0
 21 22  1  0
 22 23  2  0
 23 24  1  0
 24 25  1  0
 25 26  1  0
 24 27  2  0
 27 11  1  0
 17 12  1  0
 27 20  1  0
  1 28  1  0
  1 29  1  0
  1 30  1  0
  2 31  1  0
  2 32  1  0
  3 33  1  0
  3 34  1  0
  4 35  1  0
  4 36  1  0
  5 37  1  0
  5 38  1  0
  6 39  1  0
  6 40  1  0
  7 41  1  0
  8 42  1  0
  8 43  1  0
  9 44  1  0
  9 45  1  0
 10 46  1  0
 13 47  1  0
 14 48  1  0
 15 49  1  0
 16 50  1  0
 19 51  1  0
 19 52  1  0
 19 53  1  0
 21 54  1  0
 22 55  1  0
 23 56  1  0
 26 57  1  0
 26 58  1  0
 26 59  1  0
M  CHG  2   3   1  18   1
M  END
>  <UniqueID>  (18) 
18

>  <SMILES>  (18) 
CC[NH2+]CCCNCCNc1c2ccccc2[n+](C)c2cccc(SC)c12

>  <Energy>  (18) 
86.86566628294874

>  <Genealogy>  (18) 
CC[NH2+]CCCNCCNc1c2ccccc2[n+](C)c2cccc(SC)c12 (protonated)
CC[NH2+]CCCNCCNc1c2ccccc2[n+](C)c2cccc(SC)c12 (3D coordinates assigned)
CC[NH2+]CCCNCCNc1c2ccccc2[n+](C)c2cccc(SC)c12 (optimized conformer: 86.86566628294874 kcal/mol)

>  <smiles>  (18) 
CCNCCCNCCNc1c2ccccc2[n+](C)c2cccc(SC)c12

>  <score_type>  (18) 
oracle

>  <origin>  (18) 
adg

>  <m_score__min__energy>  (18) 
-5.6799999999999997

>  <m_primary>  (18) 
energy

$$$$
18:0
     RDKit          3D

 64 66  0  0  0  0  0  0  0  0999 V2000
   59.5170   29.4870   47.4150 C   0  0  0  0  0  0  0  0  0  0  0  0
   59.1380   28.6450   48.6270 C   0  0  0  0  0  0  0  0  0  0  0  0
   59.8330   29.1460   49.8180 N   0  0  0  0  0  0  0  0  0  0  0  0
   61.0740   28.4000   50.0740 C   0  0  0  0  0  0  0  0  0  0  0  0
   61.0750   27.7880   51.4840 C   0  0  0  0  0  0  0  0  0  0  0  0
   61.1610   28.8450   52.5890 C   0  0  0  0  0  0  0  0  0  0  0  0
   60.2520   29.8930   52.3170 O   0  0  0  0  0  0  0  0  0  0  0  0
   59.1790   29.8780   53.2370 C   0  0  0  0  0  0  0  0  0  0  0  0
   57.9720   29.1010   52.6940 C   0  0  0  0  0  0  0  0  0  0  0  0
   57.4080   29.7930   51.6000 O   0  0  0  0  0  0  0  0  0  0  0  0
   57.1120   31.1330   51.9480 C   0  0  0  0  0  0  0  0  0  0  0  0
   58.1590   32.0930   51.3490 C   0  0  0  0  0  0  0  0  0  0  0  0
   59.1960   31.4720   50.4820 N   0  0  0  0  0  0  0  0  0  0  0  0
   59.9170   32.3750   49.5930 C   0  0  0  0  0  0  0  0  0  0  0  0
   61.2600   32.7420   49.8720 C   0  0  0  0  0  0  0  0  0  0  0  0
   61.8850   32.4140   51.0990 C   0  0  0  0  0  0  0  0  0  0  0  0
   63.1990   32.7970   51.3600 C   0  0  0  0  0  0  0  0  0  0  0  0
   63.9220   33.5050   50.4090 C   0  0  0  0  0  0  0  0  0  0  0  0
   63.3380   33.8240   49.1860 C   0  0  0  0  0  0  0  0  0  0  0  0
   62.0070   33.4410   48.8890 C   0  0  0  0  0  0  0  0  0  0  0  0
   61.4470   33.7250   47.6660 N   0  0  0  0  0  0  0  0  0  0  0  0
   62.3370   33.8750   46.4970 C   0  0  0  0  0  0  0  0  0  0  0  0
   60.0750   33.6810   47.5090 C   0  0  0  0  0  0  0  0  0  0  0  0
   59.3940   34.3970   46.4680 C   0  0  0  0  0  0  0  0  0  0  0  0
   60.0130   35.5310   45.6870 C   0  0  0  0  0  0  0  0  0  0  0  0
   58.0370   34.1480   46.2280 C   0  0  0  0  0  0  0  0  0  0  0  0
   57.3150   33.3040   47.0560 C   0  0  0  0  0  0  0  0  0  0  0  0
   57.9210   32.7230   48.1620 C   0  0  0  0  0  0  0  0  0  0  0  0
   59.2990   32.9120   48.4260 C   0  0  0  0  0  0  0  0  0  0  0  0
   59.9468   30.4419   47.7518 H   0  0  0  0  0  0  0  0  0  0  0  0
   60.2579   28.9448   46.8091 H   0  0  0  0  0  0  0  0  0  0  0  0
   58.6199   29.6821   46.8091 H   0  0  0  0  0  0  0  0  0  0  0  0
   58.0513   28.7036   48.7868 H   0  0  0  0  0  0  0  0  0  0  0  0
   59.4309   27.5998   48.4487 H   0  0  0  0  0  0  0  0  0  0  0  0
   59.1980   29.0040   50.6370 H   0  0  0  0  0  0  0  0  0  0  0  0
   61.1666   27.5927   49.3326 H   0  0  0  0  0  0  0  0  0  0  0  0
   61.9213   29.0972   49.9968 H   0  0  0  0  0  0  0  0  0  0  0  0
   60.1467   27.2135   51.6185 H   0  0  0  0  0  0  0  0  0  0  0  0
   61.9660   27.1484   51.5671 H   0  0  0  0  0  0  0  0  0  0  0  0
   60.9097   28.3846   53.5559 H   0  0  0  0  0  0  0  0  0  0  0  0
   62.1831   29.2498   52.6275 H   0  0  0  0  0  0  0  0  0  0  0  0
   59.5170   29.4037   54.1702 H   0  0  0  0  0  0  0  0  0  0  0  0
   58.8650   30.9176   53.4123 H   0  0  0  0  0  0  0  0  0  0  0  0
   58.2983   28.1032   52.3655 H   0  0  0  0  0  0  0  0  0  0  0  0
   57.2174   29.0025   53.4883 H   0  0  0  0  0  0  0  0  0  0  0  0
   56.1168   31.3958   51.5601 H   0  0  0  0  0  0  0  0  0  0  0  0
   57.1303   31.2272   53.0438 H   0  0  0  0  0  0  0  0  0  0  0  0
   57.6230   32.8422   50.7478 H   0  0  0  0  0  0  0  0  0  0  0  0
   58.7038   32.5098   52.2089 H   0  0  0  0  0  0  0  0  0  0  0  0
   59.8850   30.9780   51.0960 H   0  0  0  0  0  0  0  0  0  0  0  0
   58.7820   30.6740   49.9530 H   0  0  0  0  0  0  0  0  0  0  0  0
   61.3248   31.8482   51.8580 H   0  0  0  0  0  0  0  0  0  0  0  0
   63.6650   32.5378   52.3221 H   0  0  0  0  0  0  0  0  0  0  0  0
   64.9561   33.8138   50.6219 H   0  0  0  0  0  0  0  0  0  0  0  0
   63.9198   34.3827   48.4381 H   0  0  0  0  0  0  0  0  0  0  0  0
   63.3674   34.0487   46.8406 H   0  0  0  0  0  0  0  0  0  0  0  0
   62.3025   32.9584   45.8899 H   0  0  0  0  0  0  0  0  0  0  0  0
   62.0040   34.7297   45.8899 H   0  0  0  0  0  0  0  0  0  0  0  0
   60.4204   36.2774   46.3848 H   0  0  0  0  0  0  0  0  0  0  0  0
   60.8232   35.1406   45.0535 H   0  0  0  0  0  0  0  0  0  0  0  0
   59.2465   36.0013   45.0535 H   0  0  0  0  0  0  0  0  0  0  0  0
   57.5389   34.6278   45.3726 H   0  0  0  0  0  0  0  0  0  0  0  0
   56.2579   33.0934   46.8365 H   0  0  0  0  0  0  0  0  0  0  0  0
   57.3198   32.1050   48.8451 H   0  0  0  0  0  0  0  0  0  0  0  0
  1  2  1  0
  2  3  1  0
  3  4  1  0
  4  5  1  0
  5  6  1  0
  6  7  1  0
  7  8  1  0
  8  9  1  0
  9 10  1  0
 10 11  1  0
 11 12  1  0
 12 13  1  0
 13 14  1  0
 14 15  2  0
 15 16  1  0
 16 17  2  0
 17 18  1  0
 18 19  2  0
 19 20  1  0
 20 21  2  0
 21 22  1  0
 21 23  1  0
 23 24  2  0
 24 25  1  0
 24 26  1  0
 26 27  2  0
 27 28  1  0
 28 29  2  0
 29 14  1  0
 20 15  1  0
 29 23  1  0
  1 30  1  0
  1 31  1  0
  1 32  1  0
  2 33  1  0
  2 34  1  0
  3 35  1  0
  4 36  1  0
  4 37  1  0
  5 38  1  0
  5 39  1  0
  6 40  1  0
  6 41  1  0
  8 42  1  0
  8 43  1  0
  9 44  1  0
  9 45  1  0
 11 46  1  0
 11 47  1  0
 12 48  1  0
 12 49  1  0
 13 50  1  0
 13 51  1  0
 16 52  1  0
 17 53  1  0
 18 54  1  0
 19 55  1  0
 22 56  1  0
 22 57  1  0
 22 58  1  0
 25 59  1  0
 25 60  1  0
 25 61  1  0
 26 62  1  0
 27 63  1  0
 28 64  1  0
M  CHG  2  13   1  21   1
M  END
>  <UniqueID>  (19) 
19

>  <SMILES>  (19) 
CCNCCCOCCOCC[NH2+]c1c2ccccc2[n+](C)c2c(C)cccc12

>  <Energy>  (19) 
94.50978426639773

>  <Genealogy>  (19) 
CCNCCCOCCOCC[NH2+]c1c2ccccc2[n+](C)c2c(C)cccc12 (protonated)
CCNCCCOCCOCC[NH2+]c1c2ccccc2[n+](C)c2c(C)cccc12 (3D coordinates assigned)
CCNCCCOCCOCC[NH2+]c1c2ccccc2[n+](C)c2c(C)cccc12 (optimized conformer: 94.50978426639773 kcal/mol)

>  <smiles>  (19) 
CCNCCCOCCOCCNc1c2ccccc2[n+](C)c2c(C)cccc12

>  <score_type>  (19) 
oracle

>  <origin>  (19) 
adg

>  <m_score__min__energy>  (19) 
-3.4700000000000002

>  <m_primary>  (19) 
energy

$$$$
