0:0
     RDKit          3D

 57 59  0  0  0  0  0  0  0  0999 V2000
   60.5860   29.0940   47.2080 C   0  0  0  0  0  0  0  0  0  0  0  0
   60.1670   27.9700   46.4420 O   0  0  0  0  0  0  0  0  0  0  0  0
   58.8360   27.5360   46.3180 C   0  0  0  0  0  0  0  0  0  0  0  0
   58.3520   26.4140   47.0150 C   0  0  0  0  0  0  0  0  0  0  0  0
   57.0140   26.0010   46.8760 C   0  0  0  0  0  0  0  0  0  0  0  0
   56.5020   24.8860   47.5580 O   0  0  0  0  0  0  0  0  0  0  0  0
   56.9430   23.5460   47.3630 C   0  0  0  0  0  0  0  0  0  0  0  0
   56.1520   26.7160   46.0320 C   0  0  0  0  0  0  0  0  0  0  0  0
   54.8220   26.2790   45.9160 O   0  0  0  0  0  0  0  0  0  0  0  0
   54.4350   24.9490   45.5870 C   0  0  0  0  0  0  0  0  0  0  0  0
   56.6340   27.8360   45.3330 C   0  0  0  0  0  0  0  0  0  0  0  0
   57.9680   28.2500   45.4710 C   0  0  0  0  0  0  0  0  0  0  0  0
   58.4600   29.4650   44.7230 C   0  0  0  0  0  0  0  0  0  0  0  0
   57.5750   30.6200   44.9740 N   0  0  0  0  0  0  0  0  0  0  0  0
   57.3660   31.4430   43.7520 C   0  0  0  0  0  0  0  0  0  0  0  0
   58.1990   32.7310   43.7670 C   0  0  0  0  0  0  0  0  0  0  0  0
   57.8430   33.5740   44.9300 N   0  0  0  0  0  0  0  0  0  0  0  0
   58.7850   34.6910   45.1660 C   0  0  0  0  0  0  0  0  0  0  0  0
   59.7730   34.4360   46.2870 C   0  0  0  0  0  0  0  0  0  0  0  0
   61.0180   33.8390   46.0250 C   0  0  0  0  0  0  0  0  0  0  0  0
   61.9290   33.6150   47.0620 C   0  0  0  0  0  0  0  0  0  0  0  0
   61.5990   33.9570   48.3810 C   0  0  0  0  0  0  0  0  0  0  0  0
   62.5920   33.7550   49.4870 C   0  0  0  0  0  0  0  0  0  0  0  0
   60.3550   34.5450   48.6480 C   0  0  0  0  0  0  0  0  0  0  0  0
   59.4440   34.7690   47.6120 C   0  0  0  0  0  0  0  0  0  0  0  0
   57.4670   32.8150   46.1460 C   0  0  0  0  0  0  0  0  0  0  0  0
   58.0550   31.3990   46.1400 C   0  0  0  0  0  0  0  0  0  0  0  0
   60.4990   28.8606   48.2794 H   0  0  0  0  0  0  0  0  0  0  0  0
   61.6330   29.3314   46.9683 H   0  0  0  0  0  0  0  0  0  0  0  0
   59.9499   29.9588   46.9683 H   0  0  0  0  0  0  0  0  0  0  0  0
   59.0278   25.8526   47.6769 H   0  0  0  0  0  0  0  0  0  0  0  0
   57.1009   23.0661   48.3401 H   0  0  0  0  0  0  0  0  0  0  0  0
   56.1812   22.9877   46.7991 H   0  0  0  0  0  0  0  0  0  0  0  0
   57.8875   23.5492   46.7991 H   0  0  0  0  0  0  0  0  0  0  0  0
   54.2684   24.3764   46.5113 H   0  0  0  0  0  0  0  0  0  0  0  0
   53.5064   24.9725   44.9978 H   0  0  0  0  0  0  0  0  0  0  0  0
   55.2312   24.4706   44.9978 H   0  0  0  0  0  0  0  0  0  0  0  0
   55.9575   28.3949   44.6697 H   0  0  0  0  0  0  0  0  0  0  0  0
   59.4784   29.7094   45.0594 H   0  0  0  0  0  0  0  0  0  0  0  0
   58.4595   29.2439   43.6455 H   0  0  0  0  0  0  0  0  0  0  0  0
   57.6510   30.8479   42.8719 H   0  0  0  0  0  0  0  0  0  0  0  0
   56.3046   31.7296   43.7172 H   0  0  0  0  0  0  0  0  0  0  0  0
   59.2660   32.4697   43.8242 H   0  0  0  0  0  0  0  0  0  0  0  0
   57.9917   33.2955   42.8459 H   0  0  0  0  0  0  0  0  0  0  0  0
   59.3508   34.8683   44.2395 H   0  0  0  0  0  0  0  0  0  0  0  0
   58.1806   35.5601   45.4651 H   0  0  0  0  0  0  0  0  0  0  0  0
   61.2777   33.5459   44.9971 H   0  0  0  0  0  0  0  0  0  0  0  0
   62.9097   33.1681   46.8417 H   0  0  0  0  0  0  0  0  0  0  0  0
   62.0854   33.8581   50.4579 H   0  0  0  0  0  0  0  0  0  0  0  0
   63.0304   32.7493   49.4070 H   0  0  0  0  0  0  0  0  0  0  0  0
   63.3884   34.5095   49.4070 H   0  0  0  0  0  0  0  0  0  0  0  0
   60.0945   34.8315   49.6776 H   0  0  0  0  0  0  0  0  0  0  0  0
   58.4613   35.2097   47.8357 H   0  0  0  0  0  0  0  0  0  0  0  0
   57.8411   33.3518   47.0303 H   0  0  0  0  0  0  0  0  0  0  0  0
   56.3706   32.7290   46.1691 H   0  0  0  0  0  0  0  0  0  0  0  0
   59.1521   31.4670   46.0980 H   0  0  0  0  0  0  0  0  0  0  0  0
   57.7310   30.8853   47.0571 H   0  0  0  0  0  0  0  0  0  0  0  0
  1  2  1  0
  2  3  1  0
  3  4  2  0
  4  5  1  0
  5  6  1  0
  6  7  1  0
  5  8  2  0
  8  9  1  0
  9 10  1  0
  8 11  1  0
 11 12  2  0
 12 13  1  0
 13 14  1  0
 14 15  1  0
 15 16  1  0
 16 17  1  0
 17 18  1  0
 18 19  1  0
 19 20  2  0
 20 21  1  0
 21 22  2  0
 22 23  1  0
 22 24  1  0
 24 25  2  0
 17 26  1  0
 26 27  1  0
 12  3  1  0
 27 14  1  0
 25 19  1  0
  1 28  1  0
  1 29  1  0
  1 30  1  0
  4 31  1  0
  7 32  1  0
  7 33  1  0
  7 34  1  0
 10 35  1  0
 10 36  1  0
 10 37  1  0
 11 38  1  0
 13 39  1  0
 13 40  1  0
 15 41  1  0
 15 42  1  0
 16 43  1  0
 16 44  1  0
 18 45  1  0
 18 46  1  0
 20 47  1  0
 21 48  1  0
 23 49  1  0
 23 50  1  0
 23 51  1  0
 24 52  1  0
 25 53  1  0
 26 54  1  0
 26 55  1  0
 27 56  1  0
 27 57  1  0
M  END
>  <UniqueID>  (1) 
1

>  <SMILES>  (1) 
COc1cc(OC)c(OC)cc1CN1CCN(Cc2ccc(C)cc2)CC1

>  <Energy>  (1) 
70.47630770247754

>  <Genealogy>  (1) 
COc1cc(OC)c(OC)cc1CN1CCN(Cc2ccc(C)cc2)CC1 (3D coordinates assigned)
COc1cc(OC)c(OC)cc1CN1CCN(Cc2ccc(C)cc2)CC1 (nonaromatic ring conformer: 70.47630770247754 kcal/mol)

>  <smiles>  (1) 
COc1cc(OC)c(OC)cc1CN1CCN(Cc2ccc(C)cc2)CC1

>  <score_type>  (1) 
oracle

>  <origin>  (1) 
adg

>  <m_score__min__energy>  (1) 
-8.3200000000000003

>  <m_primary>  (1) 
energy

$$$$
1:0
     RDKit          3D

 38 38  0  0  0  0  0  0  0  0999 V2000
   57.4080   31.6200   42.3150 C   0  0  0  0  0  0  0  0  0  0  0  0
   56.6510   30.6470   43.2050 C   0  0  0  0  0  0  0  0  0  0  0  0
   56.5350   31.1950   44.5160 O   0  0  0  0  0  0  0  0  0  0  0  0
   57.5890   31.7980   45.2230 C   0  0  0  0  0  0  0  0  0  0  0  0
   57.7130   33.1960   45.3220 C   0  0  0  0  0  0  0  0  0  0  0  0
   58.7750   33.7630   46.0310 C   0  0  0  0  0  0  0  0  0  0  0  0
   59.7230   32.9510   46.6640 C   0  0  0  0  0  0  0  0  0  0  0  0
   60.8180   33.5640   47.3660 N   0  0  0  0  0  0  0  0  0  0  0  0
   60.7360   34.0510   48.7160 C   0  0  0  0  0  0  0  0  0  0  0  0
   59.6230   34.1350   49.3020 O   0  0  0  0  0  0  0  0  0  0  0  0
   61.9670   34.5340   49.4200 C   0  0  0  0  0  0  0  0  0  0  0  0
   63.0880   34.4980   48.5390 O   0  0  0  0  0  0  0  0  0  0  0  0
   63.6320   33.3110   48.0350 C   0  0  0  0  0  0  0  0  0  0  0  0
   63.7720   33.1410   46.7930 O   0  0  0  0  0  0  0  0  0  0  0  0
   64.0950   32.2550   48.9850 C   0  0  0  0  0  0  0  0  0  0  0  0
   65.3270   32.7260   49.7480 C   0  0  0  0  0  0  0  0  0  0  0  0
   59.6160   31.5550   46.5500 C   0  0  0  0  0  0  0  0  0  0  0  0
   58.5470   30.9750   45.8460 C   0  0  0  0  0  0  0  0  0  0  0  0
   58.4500   29.4790   45.7250 C   0  0  0  0  0  0  0  0  0  0  0  0
   57.9633   32.3338   42.9412 H   0  0  0  0  0  0  0  0  0  0  0  0
   58.1130   31.0636   41.6799 H   0  0  0  0  0  0  0  0  0  0  0  0
   56.6953   32.1666   41.6799 H   0  0  0  0  0  0  0  0  0  0  0  0
   55.6472   30.4745   42.7894 H   0  0  0  0  0  0  0  0  0  0  0  0
   57.1965   29.6930   43.2529 H   0  0  0  0  0  0  0  0  0  0  0  0
   56.9694   33.8464   44.8383 H   0  0  0  0  0  0  0  0  0  0  0  0
   58.8669   34.8574   46.0922 H   0  0  0  0  0  0  0  0  0  0  0  0
   61.6950   33.7530   46.8320 H   0  0  0  0  0  0  0  0  0  0  0  0
   61.8075   35.5672   49.7620 H   0  0  0  0  0  0  0  0  0  0  0  0
   62.1672   33.8786   50.2804 H   0  0  0  0  0  0  0  0  0  0  0  0
   63.2893   32.0331   49.7002 H   0  0  0  0  0  0  0  0  0  0  0  0
   64.3545   31.3516   48.4135 H   0  0  0  0  0  0  0  0  0  0  0  0
   65.1384   32.6539   50.8293 H   0  0  0  0  0  0  0  0  0  0  0  0
   66.1867   32.0931   49.4828 H   0  0  0  0  0  0  0  0  0  0  0  0
   65.5453   33.7710   49.4828 H   0  0  0  0  0  0  0  0  0  0  0  0
   60.3757   30.9102   47.0159 H   0  0  0  0  0  0  0  0  0  0  0  0
   58.4210   29.0310   46.7292 H   0  0  0  0  0  0  0  0  0  0  0  0
   57.5328   29.2140   45.1786 H   0  0  0  0  0  0  0  0  0  0  0  0
   59.3253   29.0978   45.1786 H   0  0  0  0  0  0  0  0  0  0  0  0
  1  2  1  0
  2  3  1  0
  3  4  1  0
  4  5  2  0
  5  6  1  0
  6  7  2  0
  7  8  1  0
  8  9  1  0
  9 10  2  0
  9 11  1  0
 11 12  1  0
 12 13  1  0
 13 14  2  0
 13 15  1  0
 15 16  1  0
  7 17  1  0
 17 18  2  0
 18 19  1  0
 18  4  1  0
  1 20  1  0
  1 21  1  0
  1 22  1  0
  2 23  1  0
  2 24  1  0
  5 25  1  0
  6 26  1  0
  8 27  1  0
 11 28  1  0
 11 29  1  0
 15 30  1  0
 15 31  1  0
 16 32  1  0
 16 33  1  0
 16 34  1  0
 17 35  1  0
 19 36  1  0
 19 37  1  0
 19 38  1  0
M  END
>  <UniqueID>  (2) 
2

>  <SMILES>  (2) 
CCOc1ccc(NC(=O)COC(=O)CC)cc1C

>  <Energy>  (2) 
28.257556262373843

>  <Genealogy>  (2) 
CCOc1ccc(NC(=O)COC(=O)CC)cc1C (3D coordinates assigned)
CCOc1ccc(NC(=O)COC(=O)CC)cc1C (optimized conformer: 28.257556262373843 kcal/mol)

>  <smiles>  (2) 
CCOc1ccc(NC(=O)COC(=O)CC)cc1C

>  <score_type>  (2) 
oracle

>  <origin>  (2) 
adg

>  <m_score__min__energy>  (2) 
-5.9900000000000002

>  <m_primary>  (2) 
energy

$$$$
2:0
     RDKit          3D

 31 32  0  0  0  0  0  0  0  0999 V2000
   55.4880   25.2970   45.6410 C   0  0  0  0  0  0  0  0  0  0  0  0
   55.6020   26.6570   45.9950 O   0  0  0  0  0  0  0  0  0  0  0  0
   56.9630   27.0280   46.1240 C   0  0  0  0  0  0  0  0  0  0  0  0
   57.3800   27.9080   44.9440 C   0  0  0  0  0  0  0  0  0  0  0  0
   58.2100   29.0360   45.4000 N   0  0  0  0  0  0  0  0  0  0  0  0
   59.4380   28.7670   45.9550 C   0  0  0  0  0  0  0  0  0  0  0  0
   60.2270   29.7720   46.4240 N   0  0  0  0  0  0  0  0  0  0  0  0
   59.7850   31.0470   46.3460 C   0  0  0  0  0  0  0  0  0  0  0  0
   60.5890   32.4210   46.8710 S   0  0  0  0  0  0  0  0  0  0  0  0
   59.3580   33.4840   46.4080 C   0  0  0  0  0  0  0  0  0  0  0  0
   59.4230   34.9660   46.6010 C   0  0  0  0  0  0  0  0  0  0  0  0
   58.2970   32.7610   45.8360 C   0  0  0  0  0  0  0  0  0  0  0  0
   57.0350   33.3930   45.3190 C   0  0  0  0  0  0  0  0  0  0  0  0
   58.5580   31.3730   45.8070 C   0  0  0  0  0  0  0  0  0  0  0  0
   57.7510   30.3320   45.3240 C   0  0  0  0  0  0  0  0  0  0  0  0
   56.6170   30.5820   44.8310 O   0  0  0  0  0  0  0  0  0  0  0  0
   55.4366   24.6838   46.5528 H   0  0  0  0  0  0  0  0  0  0  0  0
   54.5742   25.1481   45.0470 H   0  0  0  0  0  0  0  0  0  0  0  0
   56.3642   24.9980   45.0470 H   0  0  0  0  0  0  0  0  0  0  0  0
   57.1009   27.5866   47.0615 H   0  0  0  0  0  0  0  0  0  0  0  0
   57.5849   26.1207   46.1351 H   0  0  0  0  0  0  0  0  0  0  0  0
   57.9559   27.3026   44.2286 H   0  0  0  0  0  0  0  0  0  0  0  0
   56.4740   28.3080   44.4652 H   0  0  0  0  0  0  0  0  0  0  0  0
   59.7878   27.7262   46.0211 H   0  0  0  0  0  0  0  0  0  0  0  0
   61.1590   29.5570   46.8450 H   0  0  0  0  0  0  0  0  0  0  0  0
   59.4331   35.1956   47.6767 H   0  0  0  0  0  0  0  0  0  0  0  0
   60.3391   35.3567   46.1341 H   0  0  0  0  0  0  0  0  0  0  0  0
   58.5446   35.4354   46.1341 H   0  0  0  0  0  0  0  0  0  0  0  0
   56.4082   33.7069   46.1667 H   0  0  0  0  0  0  0  0  0  0  0  0
   57.2888   34.2704   44.7060 H   0  0  0  0  0  0  0  0  0  0  0  0
   56.4845   32.6642   44.7060 H   0  0  0  0  0  0  0  0  0  0  0  0
  1  2  1  0
  2  3  1  0
  3  4  1  0
  4  5  1  0
  5  6  1  0
  6  7  2  0
  7  8  1  0
  8  9  1  0
  9 10  1  0
 10 11  1  0
 10 12  2  0
 12 13  1  0
 12 14  1  0
 14 15  1  0
 15 16  2  0
 15  5  1  0
 14  8  2  0
  1 17  1  0
  1 18  1  0
  1 19  1  0
  3 20  1  0
  3 21  1  0
  4 22  1  0
  4 23  1  0
  6 24  1  0
  7 25  1  0
 11 26  1  0
 11 27  1  0
 11 28  1  0
 13 29  1  0
 13 30  1  0
 13 31  1  0
M  CHG  1   7   1
M  END
>  <UniqueID>  (3) 
3

>  <SMILES>  (3) 
COCCn1c[nH+]c2sc(C)c(C)c2c1=O

>  <Energy>  (3) 
64.48849764126561

>  <Genealogy>  (3) 
COCCn1c[nH+]c2sc(C)c(C)c2c1=O (protonated)
COCCn1c[nH+]c2sc(C)c(C)c2c1=O (3D coordinates assigned)
COCCn1c[nH+]c2sc(C)c(C)c2c1=O (optimized conformer: 64.48849764126561 kcal/mol)

>  <smiles>  (3) 
COCCn1cnc2sc(C)c(C)c2c1=O

>  <score_type>  (3) 
oracle

>  <origin>  (3) 
adg

>  <m_score__min__energy>  (3) 
-4.6100000000000003

>  <m_primary>  (3) 
energy

$$$$
3:0
     RDKit          3D

 35 36  0  0  0  0  0  0  0  0999 V2000
   60.5570   30.7400   49.1100 C   0  0  0  0  0  0  0  0  0  0  0  0
   60.8710   30.9920   47.6400 C   0  0  0  0  0  0  0  0  0  0  0  0
   61.9700   31.9500   47.5130 N   0  0  0  0  0  0  0  0  0  0  0  0
   63.1840   31.6500   47.0860 N   0  0  0  0  0  0  0  0  0  0  0  0
   63.8900   32.7660   47.0490 N   0  0  0  0  0  0  0  0  0  0  0  0
   63.1640   33.8030   47.4460 N   0  0  0  0  0  0  0  0  0  0  0  0
   61.9590   33.2800   47.7220 C   0  0  0  0  0  0  0  0  0  0  0  0
   60.5670   34.2340   48.3440 S   0  0  0  0  0  0  0  0  0  0  0  0
   59.8600   34.5950   46.7010 C   0  0  0  0  0  0  0  0  0  0  0  0
   58.6740   33.7110   46.4350 C   0  0  0  0  0  0  0  0  0  0  0  0
   58.2490   32.9960   47.3820 O   0  0  0  0  0  0  0  0  0  0  0  0
   58.0230   33.6500   45.1460 N   0  0  0  0  0  0  0  0  0  0  0  0
   56.9200   34.5780   44.8740 C   0  0  0  0  0  0  0  0  0  0  0  0
   58.4130   32.6960   44.0980 C   0  0  0  0  0  0  0  0  0  0  0  0
   57.9230   31.3210   44.4320 C   0  0  0  0  0  0  0  0  0  0  0  0
   58.6490   30.3450   45.1010 C   0  0  0  0  0  0  0  0  0  0  0  0
   57.9280   29.1620   45.3050 C   0  0  0  0  0  0  0  0  0  0  0  0
   56.6330   29.2090   44.8050 C   0  0  0  0  0  0  0  0  0  0  0  0
   56.3860   30.7210   44.1090 S   0  0  0  0  0  0  0  0  0  0  0  0
   61.2616   31.3054   49.7376 H   0  0  0  0  0  0  0  0  0  0  0  0
   59.5293   31.0668   49.3267 H   0  0  0  0  0  0  0  0  0  0  0  0
   60.6536   29.6659   49.3267 H   0  0  0  0  0  0  0  0  0  0  0  0
   61.1590   30.0438   47.1626 H   0  0  0  0  0  0  0  0  0  0  0  0
   59.9776   31.4048   47.1487 H   0  0  0  0  0  0  0  0  0  0  0  0
   64.8910   32.8220   46.7580 H   0  0  0  0  0  0  0  0  0  0  0  0
   59.5424   35.6476   46.6664 H   0  0  0  0  0  0  0  0  0  0  0  0
   60.6253   34.4056   45.9339 H   0  0  0  0  0  0  0  0  0  0  0  0
   56.4971   34.9338   45.8251 H   0  0  0  0  0  0  0  0  0  0  0  0
   57.2961   35.4353   44.2965 H   0  0  0  0  0  0  0  0  0  0  0  0
   56.1396   34.0608   44.2965 H   0  0  0  0  0  0  0  0  0  0  0  0
   57.9765   33.0129   43.1393 H   0  0  0  0  0  0  0  0  0  0  0  0
   59.5105   32.6750   44.0264 H   0  0  0  0  0  0  0  0  0  0  0  0
   59.6867   30.4867   45.4372 H   0  0  0  0  0  0  0  0  0  0  0  0
   58.3469   28.2804   45.8123 H   0  0  0  0  0  0  0  0  0  0  0  0
   55.8941   28.3957   44.8554 H   0  0  0  0  0  0  0  0  0  0  0  0
  1  2  1  0
  2  3  1  0
  3  4  1  0
  4  5  2  0
  5  6  1  0
  6  7  2  0
  7  8  1  0
  8  9  1  0
  9 10  1  0
 10 11  2  0
 10 12  1  0
 12 13  1  0
 12 14  1  0
 14 15  1  0
 15 16  2  0
 16 17  1  0
 17 18  2  0
 18 19  1  0
  7  3  1  0
 19 15  1  0
  1 20  1  0
  1 21  1  0
  1 22  1  0
  2 23  1  0
  2 24  1  0
  5 25  1  0
  9 26  1  0
  9 27  1  0
 13 28  1  0
 13 29  1  0
 13 30  1  0
 14 31  1  0
 14 32  1  0
 16 33  1  0
 17 34  1  0
 18 35  1  0
M  CHG  1   5   1
M  END
>  <UniqueID>  (4) 
4

>  <SMILES>  (4) 
CCn1n[nH+]nc1SCC(=O)N(C)Cc1cccs1

>  <Energy>  (4) 
91.37650526210291

>  <Genealogy>  (4) 
CCn1n[nH+]nc1SCC(=O)N(C)Cc1cccs1 (protonated)
CCn1n[nH+]nc1SCC(=O)N(C)Cc1cccs1 (3D coordinates assigned)
CCn1n[nH+]nc1SCC(=O)N(C)Cc1cccs1 (optimized conformer: 91.37650526210291 kcal/mol)

>  <smiles>  (4) 
CCn1nnnc1SCC(=O)N(C)Cc1cccs1

>  <score_type>  (4) 
oracle

>  <origin>  (4) 
adg

>  <m_score__min__energy>  (4) 
-5.6699999999999999

>  <m_primary>  (4) 
energy

$$$$
4:0
     RDKit          3D

 26 26  0  0  0  0  0  0  0  0999 V2000
   57.0280   31.0180   42.8110 C   0  0  0  0  0  0  0  0  0  0  0  0
   57.4970   31.5750   44.1440 C   0  0  0  0  0  0  0  0  0  0  0  0
   56.9270   30.8170   45.2050 O   0  0  0  0  0  0  0  0  0  0  0  0
   56.6780   29.4460   45.1030 C   0  0  0  0  0  0  0  0  0  0  0  0
   55.5150   29.0170   44.8700 O   0  0  0  0  0  0  0  0  0  0  0  0
   57.8140   28.4840   45.2240 C   0  0  0  0  0  0  0  0  0  0  0  0
   57.4890   27.2510   44.5050 N   0  0  0  0  0  0  0  0  0  0  0  0
   56.9550   26.0380   45.6290 S   0  0  0  0  0  0  0  0  0  0  0  0
   57.8080   26.0850   46.8670 O   0  0  0  0  0  0  0  0  0  0  0  0
   55.5260   26.3030   46.0090 O   0  0  0  0  0  0  0  0  0  0  0  0
   57.0650   24.4500   44.8920 C   0  0  0  0  0  0  0  0  0  0  0  0
   56.3030   23.9930   43.8280 C   0  0  0  0  0  0  0  0  0  0  0  0
   56.6110   22.6760   43.4660 C   0  0  0  0  0  0  0  0  0  0  0  0
   57.6090   22.1020   44.2440 C   0  0  0  0  0  0  0  0  0  0  0  0
   58.1110   23.2340   45.3840 S   0  0  0  0  0  0  0  0  0  0  0  0
   56.3286   30.1873   42.9864 H   0  0  0  0  0  0  0  0  0  0  0  0
   56.5209   31.8101   42.2406 H   0  0  0  0  0  0  0  0  0  0  0  0
   57.8949   30.6532   42.2406 H   0  0  0  0  0  0  0  0  0  0  0  0
   58.5940   31.5158   44.2000 H   0  0  0  0  0  0  0  0  0  0  0  0
   57.1800   32.6245   44.2334 H   0  0  0  0  0  0  0  0  0  0  0  0
   58.7211   28.9319   44.7921 H   0  0  0  0  0  0  0  0  0  0  0  0
   57.9878   28.2541   46.2856 H   0  0  0  0  0  0  0  0  0  0  0  0
   56.6830   27.4490   43.8670 H   0  0  0  0  0  0  0  0  0  0  0  0
   55.5380   24.6003   43.3221 H   0  0  0  0  0  0  0  0  0  0  0  0
   56.1099   22.1455   42.6429 H   0  0  0  0  0  0  0  0  0  0  0  0
   58.0039   21.0813   44.1336 H   0  0  0  0  0  0  0  0  0  0  0  0
  1  2  1  0
  2  3  1  0
  3  4  1  0
  4  5  2  0
  4  6  1  0
  6  7  1  0
  7  8  1  0
  8  9  2  0
  8 10  2  0
  8 11  1  0
 11 12  2  0
 12 13  1  0
 13 14  2  0
 14 15  1  0
 15 11  1  0
  1 16  1  0
  1 17  1  0
  1 18  1  0
  2 19  1  0
  2 20  1  0
  6 21  1  0
  6 22  1  0
  7 23  1  0
 12 24  1  0
 13 25  1  0
 14 26  1  0
M  END
>  <UniqueID>  (5) 
5

>  <SMILES>  (5) 
CCOC(=O)CNS(=O)(=O)c1cccs1

>  <Energy>  (5) 
40.98782442412332

>  <Genealogy>  (5) 
CCOC(=O)CNS(=O)(=O)c1cccs1 (3D coordinates assigned)
CCOC(=O)CNS(=O)(=O)c1cccs1 (optimized conformer: 40.98782442412332 kcal/mol)

>  <smiles>  (5) 
CCOC(=O)CNS(=O)(=O)c1cccs1

>  <score_type>  (5) 
oracle

>  <origin>  (5) 
adg

>  <m_score__min__energy>  (5) 
-6.1100000000000003

>  <m_primary>  (5) 
energy

$$$$
5:0
     RDKit          3D

 50 52  0  0  0  0  0  0  0  0999 V2000
   63.4750   31.3850   50.6460 C   0  0  0  0  0  0  0  0  0  0  0  0
   62.8600   31.6430   49.3050 C   0  0  0  0  0  0  0  0  0  0  0  0
   61.8150   30.8330   48.8450 C   0  0  0  0  0  0  0  0  0  0  0  0
   61.2800   31.0750   47.5730 C   0  0  0  0  0  0  0  0  0  0  0  0
   60.1900   30.2910   47.0530 N   0  0  0  0  0  0  0  0  0  0  0  0
   59.2520   29.5850   47.9100 C   0  0  0  0  0  0  0  0  0  0  0  0
   58.1870   29.0260   46.9750 C   0  0  0  0  0  0  0  0  0  0  0  0
   58.8430   28.9850   45.5790 C   0  0  1  0  0  0  0  0  0  0  0  0
   59.5270   27.6130   45.3600 C   0  0  0  0  0  0  0  0  0  0  0  0
   57.8150   29.2610   44.4540 C   0  0  0  0  0  0  0  0  0  0  0  0
   56.6240   29.9420   44.9950 N   0  0  0  0  0  0  0  0  0  0  0  0
   56.3470   31.1970   44.2890 C   0  0  0  0  0  0  0  0  0  0  0  0
   57.3340   32.2370   44.7130 C   0  0  0  0  0  0  0  0  0  0  0  0
   58.1690   32.9650   43.8720 C   0  0  0  0  0  0  0  0  0  0  0  0
   59.0090   33.8490   44.5600 C   0  0  0  0  0  0  0  0  0  0  0  0
   58.8240   33.8190   45.9360 C   0  0  0  0  0  0  0  0  0  0  0  0
   59.6090   34.5960   46.9380 C   0  0  0  0  0  0  0  0  0  0  0  0
   57.6440   32.6770   46.3080 S   0  0  0  0  0  0  0  0  0  0  0  0
   59.9120   30.0950   45.6370 C   0  0  0  0  0  0  0  0  0  0  0  0
   61.8080   32.0740   46.8160 N   0  0  0  0  0  0  0  0  0  0  0  0
   62.8400   32.8390   47.2610 C   0  0  0  0  0  0  0  0  0  0  0  0
   63.3830   33.9310   46.3960 C   0  0  0  0  0  0  0  0  0  0  0  0
   63.3570   32.6240   48.5010 N   0  0  0  0  0  0  0  0  0  0  0  0
   62.7693   31.6811   51.4361 H   0  0  0  0  0  0  0  0  0  0  0  0
   63.7063   30.3140   50.7434 H   0  0  0  0  0  0  0  0  0  0  0  0
   64.4012   31.9704   50.7434 H   0  0  0  0  0  0  0  0  0  0  0  0
   61.4204   30.0199   49.4720 H   0  0  0  0  0  0  0  0  0  0  0  0
   59.7597   28.7693   48.4456 H   0  0  0  0  0  0  0  0  0  0  0  0
   58.8178   30.2480   48.6728 H   0  0  0  0  0  0  0  0  0  0  0  0
   57.8913   28.0146   47.2905 H   0  0  0  0  0  0  0  0  0  0  0  0
   57.2762   29.6427   46.9795 H   0  0  0  0  0  0  0  0  0  0  0  0
   59.7544   27.1569   46.3348 H   0  0  0  0  0  0  0  0  0  0  0  0
   58.8524   26.9531   44.7948 H   0  0  0  0  0  0  0  0  0  0  0  0
   60.4600   27.7545   44.7948 H   0  0  0  0  0  0  0  0  0  0  0  0
   58.2798   29.8993   43.6882 H   0  0  0  0  0  0  0  0  0  0  0  0
   57.5055   28.3019   44.0132 H   0  0  0  0  0  0  0  0  0  0  0  0
   56.7980   30.1700   46.0030 H   0  0  0  0  0  0  0  0  0  0  0  0
   56.4302   31.0334   43.2044 H   0  0  0  0  0  0  0  0  0  0  0  0
   55.3295   31.5371   44.5321 H   0  0  0  0  0  0  0  0  0  0  0  0
   58.1694   32.8572   42.7773 H   0  0  0  0  0  0  0  0  0  0  0  0
   59.7411   34.5011   44.0612 H   0  0  0  0  0  0  0  0  0  0  0  0
   59.3068   34.2968   47.9525 H   0  0  0  0  0  0  0  0  0  0  0  0
   60.6815   34.3938   46.8003 H   0  0  0  0  0  0  0  0  0  0  0  0
   59.4178   35.6705   46.8003 H   0  0  0  0  0  0  0  0  0  0  0  0
   60.8226   29.7804   45.1060 H   0  0  0  0  0  0  0  0  0  0  0  0
   59.5657   31.0217   45.1561 H   0  0  0  0  0  0  0  0  0  0  0  0
   63.7833   34.7360   47.0298 H   0  0  0  0  0  0  0  0  0  0  0  0
   64.1868   33.5303   45.7609 H   0  0  0  0  0  0  0  0  0  0  0  0
   62.5784   34.3301   45.7609 H   0  0  0  0  0  0  0  0  0  0  0  0
   64.1520   33.2170   48.8350 H   0  0  0  0  0  0  0  0  0  0  0  0
  1  2  1  0
  2  3  2  0
  3  4  1  0
  4  5  1  0
  5  6  1  0
  6  7  1  0
  7  8  1  0
  8  9  1  6
  8 10  1  0
 10 11  1  0
 11 12  1  0
 12 13  1  0
 13 14  2  0
 14 15  1  0
 15 16  2  0
 16 17  1  0
 16 18  1  0
  8 19  1  0
  4 20  2  0
 20 21  1  0
 21 22  1  0
 21 23  2  0
 23  2  1  0
 19  5  1  0
 18 13  1  0
  1 24  1  0
  1 25  1  0
  1 26  1  0
  3 27  1  0
  6 28  1  0
  6 29  1  0
  7 30  1  0
  7 31  1  0
  9 32  1  0
  9 33  1  0
  9 34  1  0
 10 35  1  0
 10 36  1  0
 11 37  1  0
 12 38  1  0
 12 39  1  0
 14 40  1  0
 15 41  1  0
 17 42  1  0
 17 43  1  0
 17 44  1  0
 19 45  1  0
 19 46  1  0
 22 47  1  0
 22 48  1  0
 22 49  1  0
 23 50  1  0
M  CHG  1  23   1
M  END
>  <UniqueID>  (6) 
6

>  <SMILES>  (6) 
Cc1cc(N2CC[C@@](C)(CNCc3ccc(C)s3)C2)nc(C)[nH+]1

>  <Energy>  (6) 
72.58752531030827

>  <Genealogy>  (6) 
Cc1cc(N2CCC(C)(CNCc3ccc(C)s3)C2)nc(C)[nH+]1 (protonated)
Cc1cc(N2CC[C@@](C)(CNCc3ccc(C)s3)C2)nc(C)[nH+]1 (chirality)
Cc1cc(N2CC[C@@](C)(CNCc3ccc(C)s3)C2)nc(C)[nH+]1 (3D coordinates assigned)
Cc1cc(N2CC[C@@](C)(CNCc3ccc(C)s3)C2)nc(C)[nH+]1 (nonaromatic ring conformer: 72.58752531030827 kcal/mol)

>  <smiles>  (6) 
Cc1cc(N2CCC(C)(CNCc3ccc(C)s3)C2)nc(C)n1

>  <score_type>  (6) 
oracle

>  <origin>  (6) 
adg

>  <m_score__min__energy>  (6) 
-6.54

>  <m_primary>  (6) 
energy

$$$$
6:0
     RDKit          3D

 49 50  0  0  0  0  0  0  0  0999 V2000
   59.6840   34.8630   46.0980 C   0  0  0  0  0  0  0  0  0  0  0  0
   58.8460   34.1810   47.1740 C   0  0  0  0  0  0  0  0  0  0  0  0
   58.6160   32.8250   46.8350 O   0  0  0  0  0  0  0  0  0  0  0  0
   58.5270   32.6510   45.4320 C   0  0  0  0  0  0  0  0  0  0  0  0
   57.0670   32.5720   44.9900 C   0  0  0  0  0  0  0  0  0  0  0  0
   56.7230   31.2220   44.7550 O   0  0  0  0  0  0  0  0  0  0  0  0
   57.1060   30.8270   43.4510 C   0  0  0  0  0  0  0  0  0  0  0  0
   56.7020   29.3650   43.1600 C   0  0  0  0  0  0  0  0  0  0  0  0
   57.4080   28.3790   44.0190 N   0  0  0  0  0  0  0  0  0  0  0  0
   56.7610   28.2590   45.3570 C   0  0  0  0  0  0  0  0  0  0  0  0
   57.7370   27.8320   46.4600 C   0  0  0  0  0  0  0  0  0  0  0  0
   58.8380   28.7970   46.5430 N   0  0  0  0  0  0  0  0  0  0  0  0
   59.5910   28.9250   47.7650 C   0  0  0  0  0  0  0  0  0  0  0  0
   59.5760   27.9860   48.6080 O   0  0  0  0  0  0  0  0  0  0  0  0
   60.3660   30.1490   48.0660 C   0  0  0  0  0  0  0  0  0  0  0  0
   61.4790   30.4700   47.2720 C   0  0  0  0  0  0  0  0  0  0  0  0
   62.2190   31.6280   47.5220 C   0  0  0  0  0  0  0  0  0  0  0  0
   61.8560   32.4800   48.5670 C   0  0  0  0  0  0  0  0  0  0  0  0
   62.8710   34.0610   48.9080 Br  0  0  0  0  0  0  0  0  0  0  0  0
   60.7480   32.1740   49.3620 C   0  0  0  0  0  0  0  0  0  0  0  0
   59.9980   31.0170   49.1180 C   0  0  0  0  0  0  0  0  0  0  0  0
   58.6420   30.6630   50.1850 Cl  0  0  0  0  0  0  0  0  0  0  0  0
   59.2430   29.5150   45.3270 C   0  0  0  0  0  0  0  0  0  0  0  0
   58.8650   28.6960   44.0870 C   0  0  0  0  0  0  0  0  0  0  0  0
   60.4531   35.4889   46.5741 H   0  0  0  0  0  0  0  0  0  0  0  0
   60.1686   34.0994   45.4718 H   0  0  0  0  0  0  0  0  0  0  0  0
   59.0348   35.4926   45.4718 H   0  0  0  0  0  0  0  0  0  0  0  0
   59.3804   34.2289   48.1343 H   0  0  0  0  0  0  0  0  0  0  0  0
   57.8783   34.6980   47.2538 H   0  0  0  0  0  0  0  0  0  0  0  0
   59.0105   33.5026   44.9310 H   0  0  0  0  0  0  0  0  0  0  0  0
   59.0307   31.7120   45.1591 H   0  0  0  0  0  0  0  0  0  0  0  0
   56.4212   32.9837   45.7796 H   0  0  0  0  0  0  0  0  0  0  0  0
   56.9294   33.1536   44.0665 H   0  0  0  0  0  0  0  0  0  0  0  0
   56.6151   31.4857   42.7195 H   0  0  0  0  0  0  0  0  0  0  0  0
   58.2007   30.9039   43.3750 H   0  0  0  0  0  0  0  0  0  0  0  0
   55.6196   29.2619   43.3268 H   0  0  0  0  0  0  0  0  0  0  0  0
   56.9826   29.1501   42.1183 H   0  0  0  0  0  0  0  0  0  0  0  0
   57.3320   27.4450   43.5470 H   0  0  0  0  0  0  0  0  0  0  0  0
   56.3321   29.2352   45.6275 H   0  0  0  0  0  0  0  0  0  0  0  0
   55.9902   27.4780   45.2802 H   0  0  0  0  0  0  0  0  0  0  0  0
   57.2077   27.7966   47.4236 H   0  0  0  0  0  0  0  0  0  0  0  0
   58.1409   26.8362   46.2251 H   0  0  0  0  0  0  0  0  0  0  0  0
   61.7704   29.8040   46.4464 H   0  0  0  0  0  0  0  0  0  0  0  0
   63.0895   31.8692   46.8943 H   0  0  0  0  0  0  0  0  0  0  0  0
   60.4633   32.8464   50.1847 H   0  0  0  0  0  0  0  0  0  0  0  0
   58.7319   30.4884   45.2909 H   0  0  0  0  0  0  0  0  0  0  0  0
   60.3323   29.6673   45.3422 H   0  0  0  0  0  0  0  0  0  0  0  0
   59.1410   29.2702   43.1902 H   0  0  0  0  0  0  0  0  0  0  0  0
   59.4071   27.7407   44.1460 H   0  0  0  0  0  0  0  0  0  0  0  0
  1  2  1  0
  2  3  1  0
  3  4  1  0
  4  5  1  0
  5  6  1  0
  6  7  1  0
  7  8  1  0
  8  9  1  0
  9 10  1  0
 10 11  1  0
 11 12  1  0
 12 13  1  0
 13 14  2  0
 13 15  1  0
 15 16  2  0
 16 17  1  0
 17 18  2  0
 18 19  1  0
 18 20  1  0
 20 21  2  0
 21 22  1  0
 12 23  1  0
 23 24  1  0
 24  9  1  0
 21 15  1  0
  1 25  1  0
  1 26  1  0
  1 27  1  0
  2 28  1  0
  2 29  1  0
  4 30  1  0
  4 31  1  0
  5 32  1  0
  5 33  1  0
  7 34  1  0
  7 35  1  0
  8 36  1  0
  8 37  1  0
  9 38  1  0
 10 39  1  0
 10 40  1  0
 11 41  1  0
 11 42  1  0
 16 43  1  0
 17 44  1  0
 20 45  1  0
 23 46  1  0
 23 47  1  0
 24 48  1  0
 24 49  1  0
M  CHG  1   9   1
M  END
>  <UniqueID>  (7) 
7

>  <SMILES>  (7) 
CCOCCOCC[NH+]1CCN(C(=O)c2ccc(Br)cc2Cl)CC1

>  <Energy>  (7) 
62.79661646368617

>  <Genealogy>  (7) 
CCOCCOCC[NH+]1CCN(C(=O)c2ccc(Br)cc2Cl)CC1 (protonated)
CCOCCOCC[NH+]1CCN(C(=O)c2ccc(Br)cc2Cl)CC1 (3D coordinates assigned)
CCOCCOCC[NH+]1CCN(C(=O)c2ccc(Br)cc2Cl)CC1 (nonaromatic ring conformer: 62.79661646368617 kcal/mol)

>  <smiles>  (7) 
CCOCCOCCN1CCN(C(=O)c2ccc(Br)cc2Cl)CC1

>  <score_type>  (7) 
oracle

>  <origin>  (7) 
adg

>  <m_score__min__energy>  (7) 
-5.9800000000000004

>  <m_primary>  (7) 
energy

$$$$
7:0
     RDKit          3D

 32 34  0  0  0  0  0  0  0  0999 V2000
   57.2710   34.5760   45.7730 O   0  0  0  0  0  0  0  0  0  0  0  0
   58.4470   33.7020   45.4380 S   0  0  0  0  0  0  0  0  0  0  0  0
   59.0410   34.1810   44.1440 O   0  0  0  0  0  0  0  0  0  0  0  0
   59.6490   33.7910   46.7220 C   0  0  0  0  0  0  0  0  0  0  0  0
   59.2690   34.1170   48.0310 C   0  0  0  0  0  0  0  0  0  0  0  0
   60.2290   34.1740   49.0470 C   0  0  0  0  0  0  0  0  0  0  0  0
   61.5700   33.9000   48.7590 C   0  0  0  0  0  0  0  0  0  0  0  0
   61.9530   33.5650   47.4570 C   0  0  0  0  0  0  0  0  0  0  0  0
   60.9950   33.5090   46.4400 C   0  0  0  0  0  0  0  0  0  0  0  0
   57.9080   32.0450   45.2630 C   0  0  0  0  0  0  0  0  0  0  0  0
   56.6620   31.7010   44.8750 N   0  0  0  0  0  0  0  0  0  0  0  0
   56.4740   30.3820   44.8270 N   0  0  0  0  0  0  0  0  0  0  0  0
   57.5730   29.6790   45.1800 C   0  0  0  0  0  0  0  0  0  0  0  0
   57.6150   28.2460   45.2070 N   0  0  0  0  0  0  0  0  0  0  0  0
   57.8860   27.4370   44.0340 C   0  0  0  0  0  0  0  0  0  0  0  0
   57.9930   26.0040   44.5410 C   0  0  0  0  0  0  0  0  0  0  0  0
   57.3760   26.0060   45.9400 C   0  0  0  0  0  0  0  0  0  0  0  0
   57.3910   27.4570   46.4040 C   0  0  0  0  0  0  0  0  0  0  0  0
   58.8610   30.6930   45.5790 S   0  0  0  0  0  0  0  0  0  0  0  0
   58.2141   34.3284   48.2599 H   0  0  0  0  0  0  0  0  0  0  0  0
   59.9291   34.4344   50.0728 H   0  0  0  0  0  0  0  0  0  0  0  0
   62.3243   33.9482   49.5582 H   0  0  0  0  0  0  0  0  0  0  0  0
   63.0073   33.3456   47.2327 H   0  0  0  0  0  0  0  0  0  0  0  0
   61.2969   33.2432   45.4162 H   0  0  0  0  0  0  0  0  0  0  0  0
   57.0651   27.5270   43.3073 H   0  0  0  0  0  0  0  0  0  0  0  0
   58.8052   27.7575   43.5218 H   0  0  0  0  0  0  0  0  0  0  0  0
   57.4387   25.3219   43.8795 H   0  0  0  0  0  0  0  0  0  0  0  0
   59.0377   25.6603   44.5614 H   0  0  0  0  0  0  0  0  0  0  0  0
   56.3439   25.6273   45.9030 H   0  0  0  0  0  0  0  0  0  0  0  0
   57.9372   25.3572   46.6286 H   0  0  0  0  0  0  0  0  0  0  0  0
   56.4282   27.7229   46.8648 H   0  0  0  0  0  0  0  0  0  0  0  0
   58.1692   27.6348   47.1608 H   0  0  0  0  0  0  0  0  0  0  0  0
  1  2  2  0
  2  3  2  0
  2  4  1  0
  4  5  2  0
  5  6  1  0
  6  7  2  0
  7  8  1  0
  8  9  2  0
  2 10  1  0
 10 11  2  0
 11 12  1  0
 12 13  2  0
 13 14  1  0
 14 15  1  0
 15 16  1  0
 16 17  1  0
 17 18  1  0
 13 19  1  0
  9  4  1  0
 19 10  1  0
 18 14  1  0
  5 20  1  0
  6 21  1  0
  7 22  1  0
  8 23  1  0
  9 24  1  0
 15 25  1  0
 15 26  1  0
 16 27  1  0
 16 28  1  0
 17 29  1  0
 17 30  1  0
 18 31  1  0
 18 32  1  0
M  END
>  <UniqueID>  (8) 
8

>  <SMILES>  (8) 
O=S(=O)(c1ccccc1)c1nnc(N2CCCC2)s1

>  <Energy>  (8) 
67.94862207974663

>  <Genealogy>  (8) 
O=S(=O)(c1ccccc1)c1nnc(N2CCCC2)s1 (3D coordinates assigned)
O=S(=O)(c1ccccc1)c1nnc(N2CCCC2)s1 (nonaromatic ring conformer: 67.94862207974663 kcal/mol)

>  <smiles>  (8) 
O=S(=O)(c1ccccc1)c1nnc(N2CCCC2)s1

>  <score_type>  (8) 
oracle

>  <origin>  (8) 
adg

>  <m_score__min__energy>  (8) 
-7.6500000000000004

>  <m_primary>  (8) 
energy

$$$$
8:0
     RDKit          3D

 37 39  0  0  0  0  0  0  0  0999 V2000
   57.8846   26.7450   44.2085 H   0  0  0  0  0  0  0  0  0  0  0  0
   57.6890   26.9980   45.2610 C   0  0  0  0  0  0  0  0  0  0  0  0
   56.2940   27.3110   45.6300 C   0  0  0  0  0  0  0  0  0  0  0  0
   55.5930   26.4840   46.2720 O   0  0  0  0  0  0  0  0  0  0  0  0
   55.7480   28.5750   45.2360 N   0  0  0  0  0  0  0  0  0  0  0  0
   56.4360   29.6280   44.5440 C   0  0  0  0  0  0  0  0  0  0  0  0
   57.3780   30.3890   45.2470 C   0  0  0  0  0  0  0  0  0  0  0  0
   57.5636   30.1813   46.3112 H   0  0  0  0  0  0  0  0  0  0  0  0
   58.0850   31.4120   44.6050 C   0  0  0  0  0  0  0  0  0  0  0  0
   58.8148   32.0130   45.1674 H   0  0  0  0  0  0  0  0  0  0  0  0
   57.8640   31.6700   43.2500 C   0  0  0  0  0  0  0  0  0  0  0  0
   58.5510   32.6590   42.6270 F   0  0  0  0  0  0  0  0  0  0  0  0
   56.9440   30.8990   42.5330 C   0  0  0  0  0  0  0  0  0  0  0  0
   56.7769   31.0967   41.4639 H   0  0  0  0  0  0  0  0  0  0  0  0
   56.2360   29.8770   43.1730 C   0  0  0  0  0  0  0  0  0  0  0  0
   55.5206   29.2657   42.6034 H   0  0  0  0  0  0  0  0  0  0  0  0
   58.7400   26.9950   46.0970 C   0  0  0  0  0  0  0  0  0  0  0  0
   59.0879   26.0191   46.4666 H   0  0  0  0  0  0  0  0  0  0  0  0
   59.4670   28.1930   46.5610 C   0  0  0  0  0  0  0  0  0  0  0  0
   60.3750   28.8230   45.7000 C   0  0  0  0  0  0  0  0  0  0  0  0
   60.5648   28.4006   44.7022 H   0  0  0  0  0  0  0  0  0  0  0  0
   61.0410   29.9840   46.1000 C   0  0  0  0  0  0  0  0  0  0  0  0
   61.7649   30.4585   45.4212 H   0  0  0  0  0  0  0  0  0  0  0  0
   60.7940   30.5520   47.3640 C   0  0  0  0  0  0  0  0  0  0  0  0
   61.4830   31.7500   47.7770 N   0  0  0  0  0  0  0  0  0  0  0  0
   62.7610   32.0930   47.5070 C   0  0  0  0  0  0  0  0  0  0  0  0
   63.4759   31.4973   46.9204 H   0  0  0  0  0  0  0  0  0  0  0  0
   63.0190   33.3150   48.0900 C   0  0  0  0  0  0  0  0  0  0  0  0
   63.9747   33.8580   48.0484 H   0  0  0  0  0  0  0  0  0  0  0  0
   61.9040   33.7320   48.7190 N   0  0  0  0  0  0  0  0  0  0  0  0
   61.7780   34.6210   49.2510 H   0  0  0  0  0  0  0  0  0  0  0  0
   60.9880   32.7670   48.5160 C   0  0  0  0  0  0  0  0  0  0  0  0
   59.9597   32.8021   48.9051 H   0  0  0  0  0  0  0  0  0  0  0  0
   59.8570   29.9350   48.2120 C   0  0  0  0  0  0  0  0  0  0  0  0
   59.6451   30.3710   49.1994 H   0  0  0  0  0  0  0  0  0  0  0  0
   59.1930   28.7730   47.8110 C   0  0  0  0  0  0  0  0  0  0  0  0
   58.4512   28.3094   48.4780 H   0  0  0  0  0  0  0  0  0  0  0  0
  1  2  1  0
  2  3  1  0
  3  4  2  0
  3  5  1  0
  5  6  1  0
  6  7  2  0
  7  8  1  0
  7  9  1  0
  9 10  1  0
  9 11  2  0
 11 12  1  0
 11 13  1  0
 13 14  1  0
 13 15  2  0
 15 16  1  0
  2 17  2  0
 17 18  1  0
 17 19  1  0
 19 20  2  0
 20 21  1  0
 20 22  1  0
 22 23  1  0
 22 24  2  0
 24 25  1  0
 25 26  1  0
 26 27  1  0
 26 28  2  0
 28 29  1  0
 28 30  1  0
 30 31  1  0
 30 32  2  0
 32 33  1  0
 24 34  1  0
 34 35  1  0
 34 36  2  0
 36 37  1  0
 15  6  1  0
 36 19  1  0
 32 25  1  0
M  CHG  2   5  -1  30   1
M  END
>  <UniqueID>  (9) 
9

>  <SMILES>  (9) 
O=C(/C=C\c1ccc(-n2cc[nH+]c2)cc1)[N-]c1ccc(F)cc1

>  <Energy>  (9) 
84.28497512588775

>  <Genealogy>  (9) 
O=C(C=Cc1ccc(-n2cc[nH+]c2)cc1)[N-]c1ccc(F)cc1 (protonated)
O=C(/C=C\c1ccc(-n2cc[nH+]c2)cc1)[N-]c1ccc(F)cc1 (cis-trans isomerization)
O=C(/C=C\c1ccc(-n2cc[nH+]c2)cc1)[N-]c1ccc(F)cc1 (3D coordinates assigned)
O=C(/C=C\c1ccc(-n2cc[nH+]c2)cc1)[N-]c1ccc(F)cc1 (optimized conformer: 84.28497512588775 kcal/mol)

>  <smiles>  (9) 
O=C(C=Cc1ccc(-n2ccnc2)cc1)Nc1ccc(F)cc1

>  <score_type>  (9) 
oracle

>  <origin>  (9) 
adg

>  <m_score__min__energy>  (9) 
-8.1600000000000001

>  <m_primary>  (9) 
energy

$$$$
9:0
     RDKit          3D

 72 75  0  0  1  0  0  0  0  0999 V2000
   59.6750   35.4570   46.1140 C   0  0  0  0  0  0  0  0  0  0  0  0
   58.6270   34.9340   45.1980 C   0  0  0  0  0  0  0  0  0  0  0  0
   59.0610   33.8400   44.2830 C   0  0  0  0  0  0  0  0  0  0  0  0
   58.1680   32.8350   43.9530 N   0  0  0  0  0  0  0  0  0  0  0  0
   58.2910   31.9210   42.9210 C   0  0  0  0  0  0  0  0  0  0  0  0
   57.0180   31.4210   42.3210 C   0  0  0  0  0  0  0  0  0  0  0  0
   56.5360   30.0700   42.6900 C   0  0  0  0  0  0  0  0  0  0  0  0
   57.0380   32.6220   44.8380 C   0  0  0  0  0  0  0  0  0  0  0  0
   57.4720   32.3420   46.2280 C   0  0  0  0  0  0  0  0  0  0  0  0
   58.7870   31.8220   46.3970 N   0  0  0  0  0  0  0  0  0  0  0  0
   59.7440   32.4670   47.1370 C   0  0  0  0  0  0  0  0  0  0  0  0
   60.8800   31.7350   47.1160 C   0  0  0  0  0  0  0  0  0  0  0  0
   62.1440   32.0850   47.7970 C   0  0  0  0  0  0  0  0  0  0  0  0
   62.9370   33.0960   47.2890 C   0  0  0  0  0  0  0  0  0  0  0  0
   64.1140   33.4480   47.8920 C   0  0  0  0  0  0  0  0  0  0  0  0
   64.4950   32.7690   49.0220 C   0  0  0  0  0  0  0  0  0  0  0  0
   63.6950   31.7520   49.5300 C   0  0  0  0  0  0  0  0  0  0  0  0
   62.5450   31.4410   48.9050 N   0  0  0  0  0  0  0  0  0  0  0  0
   60.6570   30.6580   46.3850 N   0  0  0  0  0  0  0  0  0  0  0  0
   59.3870   30.7040   45.9450 C   0  0  0  0  0  0  0  0  0  0  0  0
   58.7330   29.6980   45.0950 C   0  0  0  0  0  0  0  0  0  0  0  0
   59.7020   28.6320   44.6680 C   0  0  0  0  0  0  0  0  0  0  0  0
   59.6910   27.4030   45.5020 C   0  0  0  0  0  0  0  0  0  0  0  0
   58.3990   27.0780   46.0560 N   0  0  0  0  0  0  0  0  0  0  0  0
   57.7220   25.8400   45.9130 C   0  0  0  0  0  0  0  0  0  0  0  0
   58.4140   24.6850   45.7150 N   0  0  0  0  0  0  0  0  0  0  0  0
   57.7940   23.4830   45.6030 C   0  0  0  0  0  0  0  0  0  0  0  0
   56.4690   23.3440   45.6770 N   0  0  0  0  0  0  0  0  0  0  0  0
   55.7210   24.4540   45.8720 C   0  0  0  0  0  0  0  0  0  0  0  0
   54.4470   24.3070   45.9380 N   0  0  0  0  0  0  0  0  0  0  0  0
   53.7350   23.7790   44.7770 C   0  0  0  0  0  0  0  0  0  0  0  0
   56.3520   25.6980   45.9900 C   0  0  0  0  0  0  0  0  0  0  0  0
   55.5150   26.7370   46.2050 F   0  0  0  0  0  0  0  0  0  0  0  0
   57.7850   28.2020   46.7930 C   0  0  0  0  0  0  0  0  0  0  0  0
   57.4760   29.2130   45.7100 C   0  0  0  0  0  0  0  0  0  0  0  0
   59.3618   35.3007   47.1568 H   0  0  0  0  0  0  0  0  0  0  0  0
   60.6203   34.9250   45.9314 H   0  0  0  0  0  0  0  0  0  0  0  0
   59.8182   36.5322   45.9314 H   0  0  0  0  0  0  0  0  0  0  0  0
   57.7990   34.5524   45.8134 H   0  0  0  0  0  0  0  0  0  0  0  0
   58.3460   35.7764   44.5489 H   0  0  0  0  0  0  0  0  0  0  0  0
   59.3714   34.3149   43.3406 H   0  0  0  0  0  0  0  0  0  0  0  0
   59.8401   33.3164   44.8564 H   0  0  0  0  0  0  0  0  0  0  0  0
   58.8740   32.3979   42.1194 H   0  0  0  0  0  0  0  0  0  0  0  0
   58.7695   31.0376   43.3688 H   0  0  0  0  0  0  0  0  0  0  0  0
   56.2277   32.1333   42.6002 H   0  0  0  0  0  0  0  0  0  0  0  0
   57.2452   31.3377   41.2479 H   0  0  0  0  0  0  0  0  0  0  0  0
   56.5035   29.9789   43.7857 H   0  0  0  0  0  0  0  0  0  0  0  0
   55.5273   29.9157   42.2792 H   0  0  0  0  0  0  0  0  0  0  0  0
   57.2192   29.3121   42.2792 H   0  0  0  0  0  0  0  0  0  0  0  0
   56.4094   33.5247   44.8363 H   0  0  0  0  0  0  0  0  0  0  0  0
   56.4774   31.7490   44.4725 H   0  0  0  0  0  0  0  0  0  0  0  0
   57.4117   33.2846   46.7918 H   0  0  0  0  0  0  0  0  0  0  0  0
   56.8000   31.5478   46.5852 H   0  0  0  0  0  0  0  0  0  0  0  0
   59.6093   33.4241   47.6622 H   0  0  0  0  0  0  0  0  0  0  0  0
   62.6158   33.6286   46.3817 H   0  0  0  0  0  0  0  0  0  0  0  0
   64.7388   34.2548   47.4813 H   0  0  0  0  0  0  0  0  0  0  0  0
   65.4364   33.0303   49.5274 H   0  0  0  0  0  0  0  0  0  0  0  0
   63.9996   31.2063   50.4352 H   0  0  0  0  0  0  0  0  0  0  0  0
   58.4129   30.1668   44.1528 H   0  0  0  0  0  0  0  0  0  0  0  0
   59.4597   28.3449   43.6341 H   0  0  0  0  0  0  0  0  0  0  0  0
   60.7061   29.0680   44.7764 H   0  0  0  0  0  0  0  0  0  0  0  0
   60.0214   26.5594   44.8782 H   0  0  0  0  0  0  0  0  0  0  0  0
   60.3624   27.5912   46.3527 H   0  0  0  0  0  0  0  0  0  0  0  0
   59.4480   24.6450   45.6280 H   0  0  0  0  0  0  0  0  0  0  0  0
   58.4098   22.5854   45.4445 H   0  0  0  0  0  0  0  0  0  0  0  0
   52.8942   23.1555   45.1149 H   0  0  0  0  0  0  0  0  0  0  0  0
   53.3523   24.6134   44.1709 H   0  0  0  0  0  0  0  0  0  0  0  0
   54.4223   23.1705   44.1709 H   0  0  0  0  0  0  0  0  0  0  0  0
   56.8654   27.8807   47.3039 H   0  0  0  0  0  0  0  0  0  0  0  0
   58.4400   28.6054   47.5793 H   0  0  0  0  0  0  0  0  0  0  0  0
   56.8517   28.7399   44.9377 H   0  0  0  0  0  0  0  0  0  0  0  0
   56.9397   30.0646   46.1540 H   0  0  0  0  0  0  0  0  0  0  0  0
  1  2  1  0
  2  3  1  0
  3  4  1  0
  4  5  1  0
  5  6  1  0
  6  7  1  0
  4  8  1  0
  8  9  1  0
  9 10  1  0
 10 11  1  0
 11 12  2  0
 12 13  1  0
 13 14  2  0
 14 15  1  0
 15 16  2  0
 16 17  1  0
 17 18  2  0
 12 19  1  0
 19 20  2  0
 20 21  1  0
 21 22  1  0
 22 23  1  0
 23 24  1  0
 24 25  1  0
 25 26  1  0
 26 27  1  0
 27 28  2  0
 28 29  1  0
 29 30  2  0
 30 31  1  0
 29 32  1  0
 32 33  1  0
 24 34  1  0
 34 35  1  0
 20 10  1  0
 35 21  1  0
 18 13  1  0
 32 25  2  0
  1 36  1  0
  1 37  1  0
  1 38  1  0
  2 39  1  0
  2 40  1  0
  3 41  1  0
  3 42  1  0
  5 43  1  0
  5 44  1  0
  6 45  1  0
  6 46  1  0
  7 47  1  0
  7 48  1  0
  7 49  1  0
  8 50  1  0
  8 51  1  0
  9 52  1  0
  9 53  1  0
 11 54  1  0
 14 55  1  0
 15 56  1  0
 16 57  1  0
 17 58  1  0
 21 59  1  0
 22 60  1  0
 22 61  1  0
 23 62  1  0
 23 63  1  0
 26 64  1  0
 27 65  1  0
 31 66  1  0
 31 67  1  0
 31 68  1  0
 34 69  1  0
 34 70  1  0
 35 71  1  0
 35 72  1  0
M  END
>  <smiles>  (10) 
CCCN(CCC)CCn1cc(-c2ccccn2)nc1C1CCN(c2[nH]cnc(=NC)c2F)CC1

>  <score_type>  (10) 
oracle

>  <origin>  (10) 
adg

>  <m_score__min__energy>  (10) 
-8.2699999999999996

>  <m_primary>  (10) 
energy

$$$$
10:0
     RDKit          3D

 45 47  0  0  0  0  0  0  0  0999 V2000
   59.8610   33.5870   50.4570 C   0  0  0  0  0  0  0  0  0  0  0  0
   59.4870   33.4270   49.0120 C   0  0  0  0  0  0  0  0  0  0  0  0
   59.7680   34.4670   48.0960 C   0  0  0  0  0  0  0  0  0  0  0  0
   59.3910   34.3630   46.7360 C   0  0  0  0  0  0  0  0  0  0  0  0
   59.6750   35.5040   45.8010 C   0  0  0  0  0  0  0  0  0  0  0  0
   58.7570   33.1690   46.3240 C   0  0  0  0  0  0  0  0  0  0  0  0
   58.2760   32.7060   45.0960 C   0  0  0  0  0  0  0  0  0  0  0  0
   58.3130   33.3920   43.7590 C   0  0  0  0  0  0  0  0  0  0  0  0
   57.6740   31.4690   45.3830 C   0  0  0  0  0  0  0  0  0  0  0  0
   56.9250   30.5910   44.4610 C   0  0  0  0  0  0  0  0  0  0  0  0
   55.6670   30.5350   44.5160 O   0  0  0  0  0  0  0  0  0  0  0  0
   57.6370   29.7610   43.5310 N   0  0  0  0  0  0  0  0  0  0  0  0
   57.0180   28.6110   42.8750 C   0  0  0  0  0  0  0  0  0  0  0  0
   57.8600   27.3540   43.0910 C   0  0  0  0  0  0  0  0  0  0  0  0
   59.0810   27.7120   43.7320 O   0  0  0  0  0  0  0  0  0  0  0  0
   59.2250   28.0760   45.0810 C   0  0  0  0  0  0  0  0  0  0  0  0
   60.3160   28.8930   45.4180 C   0  0  0  0  0  0  0  0  0  0  0  0
   60.5220   29.3060   46.7370 C   0  0  0  0  0  0  0  0  0  0  0  0
   59.6390   28.8940   47.7410 C   0  0  0  0  0  0  0  0  0  0  0  0
   58.5540   28.0720   47.4240 C   0  0  0  0  0  0  0  0  0  0  0  0
   58.3390   27.6590   46.1030 C   0  0  0  0  0  0  0  0  0  0  0  0
   57.2700   26.8710   45.8410 F   0  0  0  0  0  0  0  0  0  0  0  0
   57.8240   31.1820   46.6600 O   0  0  0  0  0  0  0  0  0  0  0  0
   58.4630   32.1750   47.2320 C   0  0  0  0  0  0  0  0  0  0  0  0
   58.8040   32.2720   48.5760 C   0  0  0  0  0  0  0  0  0  0  0  0
   59.0345   33.2334   51.0910 H   0  0  0  0  0  0  0  0  0  0  0  0
   60.7645   32.9967   50.6694 H   0  0  0  0  0  0  0  0  0  0  0  0
   60.0580   34.6482   50.6694 H   0  0  0  0  0  0  0  0  0  0  0  0
   60.2878   35.3710   48.4461 H   0  0  0  0  0  0  0  0  0  0  0  0
   59.9002   36.4089   46.3845 H   0  0  0  0  0  0  0  0  0  0  0  0
   60.5379   35.2524   45.1669 H   0  0  0  0  0  0  0  0  0  0  0  0
   58.7948   35.6862   45.1669 H   0  0  0  0  0  0  0  0  0  0  0  0
   58.3717   34.4804   43.9069 H   0  0  0  0  0  0  0  0  0  0  0  0
   59.1940   33.0504   43.1959 H   0  0  0  0  0  0  0  0  0  0  0  0
   57.4003   33.1472   43.1959 H   0  0  0  0  0  0  0  0  0  0  0  0
   58.6580   29.9340   43.3680 H   0  0  0  0  0  0  0  0  0  0  0  0
   56.0144   28.4511   43.2959 H   0  0  0  0  0  0  0  0  0  0  0  0
   56.9491   28.8118   41.7957 H   0  0  0  0  0  0  0  0  0  0  0  0
   57.3065   26.6448   43.7239 H   0  0  0  0  0  0  0  0  0  0  0  0
   58.0764   26.8831   42.1207 H   0  0  0  0  0  0  0  0  0  0  0  0
   61.0178   29.2122   44.6334 H   0  0  0  0  0  0  0  0  0  0  0  0
   61.3761   29.9533   46.9852 H   0  0  0  0  0  0  0  0  0  0  0  0
   59.7988   29.2171   48.7803 H   0  0  0  0  0  0  0  0  0  0  0  0
   57.8644   27.7473   48.2171 H   0  0  0  0  0  0  0  0  0  0  0  0
   58.5478   31.4684   49.2820 H   0  0  0  0  0  0  0  0  0  0  0  0
  1  2  1  0
  2  3  2  0
  3  4  1  0
  4  5  1  0
  4  6  2  0
  6  7  1  0
  7  8  1  0
  7  9  2  0
  9 10  1  0
 10 11  2  0
 10 12  1  0
 12 13  1  0
 13 14  1  0
 14 15  1  0
 15 16  1  0
 16 17  2  0
 17 18  1  0
 18 19  2  0
 19 20  1  0
 20 21  2  0
 21 22  1  0
  9 23  1  0
 23 24  1  0
 24 25  2  0
 25  2  1  0
 24  6  1  0
 21 16  1  0
  1 26  1  0
  1 27  1  0
  1 28  1  0
  3 29  1  0
  5 30  1  0
  5 31  1  0
  5 32  1  0
  8 33  1  0
  8 34  1  0
  8 35  1  0
 12 36  1  0
 13 37  1  0
 13 38  1  0
 14 39  1  0
 14 40  1  0
 17 41  1  0
 18 42  1  0
 19 43  1  0
 20 44  1  0
 25 45  1  0
M  END
>  <UniqueID>  (11) 
10

>  <SMILES>  (11) 
Cc1cc(C)c2c(C)c(C(=O)NCCOc3ccccc3F)oc2c1

>  <Energy>  (11) 
79.60892871075644

>  <Genealogy>  (11) 
Cc1cc(C)c2c(C)c(C(=O)NCCOc3ccccc3F)oc2c1 (3D coordinates assigned)
Cc1cc(C)c2c(C)c(C(=O)NCCOc3ccccc3F)oc2c1 (optimized conformer: 79.60892871075644 kcal/mol)

>  <smiles>  (11) 
Cc1cc(C)c2c(C)c(C(=O)NCCOc3ccccc3F)oc2c1

>  <score_type>  (11) 
oracle

>  <origin>  (11) 
adg

>  <m_score__min__energy>  (11) 
-8.1999999999999993

>  <m_primary>  (11) 
energy

$$$$
11:0
     RDKit          3D

 34 36  0  0  0  0  0  0  0  0999 V2000
   65.0630   32.6770   49.7690 C   0  0  0  0  0  0  0  0  0  0  0  0
   64.5230   33.4780   48.7270 O   0  0  0  0  0  0  0  0  0  0  0  0
   63.1770   33.3870   48.4150 C   0  0  0  0  0  0  0  0  0  0  0  0
   62.2150   34.2140   48.9570 C   0  0  0  0  0  0  0  0  0  0  0  0
   60.8950   34.0820   48.6150 C   0  0  0  0  0  0  0  0  0  0  0  0
   60.4450   33.1170   47.7060 C   0  0  0  0  0  0  0  0  0  0  0  0
   59.0920   32.9870   47.3650 N   0  0  0  0  0  0  0  0  0  0  0  0
   58.5760   32.5640   46.1330 C   0  0  0  0  0  0  0  0  0  0  0  0
   58.0350   31.2940   46.0420 C   0  0  0  0  0  0  0  0  0  0  0  0
   57.5190   30.8730   44.8250 C   0  0  0  0  0  0  0  0  0  0  0  0
   56.9620   29.6170   44.6570 C   0  0  0  0  0  0  0  0  0  0  0  0
   56.9100   28.8190   45.6130 O   0  0  0  0  0  0  0  0  0  0  0  0
   56.4700   29.2380   43.4660 N   0  0  0  0  0  0  0  0  0  0  0  0
   56.5110   30.0620   42.4320 N   0  0  0  0  0  0  0  0  0  0  0  0
   57.0290   31.3000   42.4880 C   0  0  0  0  0  0  0  0  0  0  0  0
   57.0400   32.0390   41.4700 O   0  0  0  0  0  0  0  0  0  0  0  0
   57.5420   31.7120   43.7070 C   0  0  0  0  0  0  0  0  0  0  0  0
   58.0860   32.9870   43.8010 C   0  0  0  0  0  0  0  0  0  0  0  0
   58.6000   33.3910   45.0360 C   0  0  0  0  0  0  0  0  0  0  0  0
   59.2740   35.0260   45.1060 Cl  0  0  0  0  0  0  0  0  0  0  0  0
   61.4230   32.3030   47.1760 C   0  0  0  0  0  0  0  0  0  0  0  0
   62.7650   32.4250   47.5160 C   0  0  0  0  0  0  0  0  0  0  0  0
   64.7772   33.1009   50.7430 H   0  0  0  0  0  0  0  0  0  0  0  0
   64.6702   31.6529   49.6854 H   0  0  0  0  0  0  0  0  0  0  0  0
   66.1596   32.6570   49.6854 H   0  0  0  0  0  0  0  0  0  0  0  0
   62.5126   34.9920   49.6754 H   0  0  0  0  0  0  0  0  0  0  0  0
   60.1600   34.7607   49.0724 H   0  0  0  0  0  0  0  0  0  0  0  0
   58.3800   33.2340   48.1160 H   0  0  0  0  0  0  0  0  0  0  0  0
   58.0143   30.6300   46.9188 H   0  0  0  0  0  0  0  0  0  0  0  0
   56.0410   28.2930   43.3040 H   0  0  0  0  0  0  0  0  0  0  0  0
   56.1270   29.7670   41.5010 H   0  0  0  0  0  0  0  0  0  0  0  0
   58.1113   33.6580   42.9297 H   0  0  0  0  0  0  0  0  0  0  0  0
   61.1295   31.5257   46.4551 H   0  0  0  0  0  0  0  0  0  0  0  0
   63.5054   31.7484   47.0642 H   0  0  0  0  0  0  0  0  0  0  0  0
  1  2  1  0
  2  3  1  0
  3  4  2  0
  4  5  1  0
  5  6  2  0
  6  7  1  0
  7  8  1  0
  8  9  2  0
  9 10  1  0
 10 11  1  0
 11 12  2  0
 11 13  1  0
 13 14  1  0
 14 15  1  0
 15 16  2  0
 15 17  1  0
 17 18  1  0
 18 19  2  0
 19 20  1  0
  6 21  1  0
 21 22  2  0
 22  3  1  0
 19  8  1  0
 17 10  2  0
  1 23  1  0
  1 24  1  0
  1 25  1  0
  4 26  1  0
  5 27  1  0
  7 28  1  0
  9 29  1  0
 13 30  1  0
 14 31  1  0
 18 32  1  0
 21 33  1  0
 22 34  1  0
M  END
>  <smiles>  (12) 
COc1ccc(Nc2cc3c(=O)[nH][nH]c(=O)c3cc2Cl)cc1

>  <score_type>  (12) 
oracle

>  <origin>  (12) 
adg

>  <m_score__min__energy>  (12) 
-7.7300000000000004

>  <m_primary>  (12) 
energy

$$$$
12:0
     RDKit          3D

 50 52  0  0  1  0  0  0  0  0999 V2000
   60.7730   30.1940   47.4530 C   0  0  0  0  0  0  0  0  0  0  0  0
   60.5940   29.6900   46.0330 C   0  0  0  0  0  0  0  0  0  0  0  0
   59.5030   29.0030   45.7620 O   0  0  0  0  0  0  0  0  0  0  0  0
   59.2090   28.1450   44.8160 C   0  0  0  0  0  0  0  0  0  0  0  0
   57.8110   27.9160   44.3280 C   0  0  0  0  0  0  0  0  0  0  0  0
   56.7950   28.4520   45.2500 C   0  0  0  0  0  0  0  0  0  0  0  0
   56.2860   29.7540   44.8750 N   0  0  0  0  0  0  0  0  0  0  0  0
   56.9550   30.7350   44.4370 C   0  0  0  0  0  0  0  0  0  0  0  0
   57.0100   31.0220   43.1120 N   0  0  0  0  0  0  0  0  0  0  0  0
   57.7330   32.0760   42.6800 C   0  0  0  0  0  0  0  0  0  0  0  0
   57.7830   32.3770   41.2250 C   0  0  0  0  0  0  0  0  0  0  0  0
   58.4180   32.8740   43.5380 N   0  0  0  0  0  0  0  0  0  0  0  0
   58.3600   32.5840   44.8580 C   0  0  0  0  0  0  0  0  0  0  0  0
   57.6350   31.5200   45.3330 C   0  0  0  0  0  0  0  0  0  0  0  0
   57.7730   31.4990   46.6410 N   0  0  0  0  0  0  0  0  0  0  0  0
   58.5530   32.5070   46.9850 N   0  0  0  0  0  0  0  0  0  0  0  0
   58.9280   33.1900   45.9150 N   0  0  0  0  0  0  0  0  0  0  0  0
   59.7900   34.3560   45.9630 C   0  0  0  0  0  0  0  0  0  0  0  0
   60.9660   34.1300   46.8510 C   0  0  0  0  0  0  0  0  0  0  0  0
   60.8400   34.2100   48.2360 C   0  0  0  0  0  0  0  0  0  0  0  0
   61.9260   34.0020   49.0640 C   0  0  0  0  0  0  0  0  0  0  0  0
   63.1760   33.7080   48.5550 C   0  0  0  0  0  0  0  0  0  0  0  0
   64.2580   33.5020   49.3920 O   0  0  0  0  0  0  0  0  0  0  0  0
   64.4990   32.2150   49.9190 C   0  0  0  0  0  0  0  0  0  0  0  0
   63.3080   33.6280   47.1750 C   0  0  0  0  0  0  0  0  0  0  0  0
   62.2230   33.8360   46.3490 C   0  0  0  0  0  0  0  0  0  0  0  0
   60.4914   29.4012   48.1617 H   0  0  0  0  0  0  0  0  0  0  0  0
   61.8250   30.4725   47.6134 H   0  0  0  0  0  0  0  0  0  0  0  0
   60.1323   31.0737   47.6134 H   0  0  0  0  0  0  0  0  0  0  0  0
   60.6040   30.5669   45.3690 H   0  0  0  0  0  0  0  0  0  0  0  0
   61.4175   28.9760   45.8845 H   0  0  0  0  0  0  0  0  0  0  0  0
   59.7907   28.4540   43.9350 H   0  0  0  0  0  0  0  0  0  0  0  0
   59.4290   27.1876   45.3110 H   0  0  0  0  0  0  0  0  0  0  0  0
   57.6940   28.4070   43.3506 H   0  0  0  0  0  0  0  0  0  0  0  0
   57.6565   26.8292   44.2568 H   0  0  0  0  0  0  0  0  0  0  0  0
   55.9511   27.7471   45.2820 H   0  0  0  0  0  0  0  0  0  0  0  0
   57.2850   28.5721   46.2275 H   0  0  0  0  0  0  0  0  0  0  0  0
   57.9617   33.4525   41.0790 H   0  0  0  0  0  0  0  0  0  0  0  0
   58.5982   31.8034   40.7597 H   0  0  0  0  0  0  0  0  0  0  0  0
   56.8262   32.0978   40.7597 H   0  0  0  0  0  0  0  0  0  0  0  0
   58.9750   33.6870   43.2000 H   0  0  0  0  0  0  0  0  0  0  0  0
   60.1471   34.5786   44.9467 H   0  0  0  0  0  0  0  0  0  0  0  0
   59.2091   35.1982   46.3672 H   0  0  0  0  0  0  0  0  0  0  0  0
   59.8597   34.4426   48.6775 H   0  0  0  0  0  0  0  0  0  0  0  0
   61.7923   34.0721   50.1536 H   0  0  0  0  0  0  0  0  0  0  0  0
   64.4903   32.2613   51.0180 H   0  0  0  0  0  0  0  0  0  0  0  0
   63.7144   31.5250   49.5749 H   0  0  0  0  0  0  0  0  0  0  0  0
   65.4800   31.8557   49.5749 H   0  0  0  0  0  0  0  0  0  0  0  0
   64.2893   33.3960   46.7354 H   0  0  0  0  0  0  0  0  0  0  0  0
   62.3600   33.7663   45.2598 H   0  0  0  0  0  0  0  0  0  0  0  0
  1  2  1  0
  2  3  1  0
  3  4  1  0
  4  5  1  0
  5  6  1  0
  6  7  1  0
  7  8  2  0
  8  9  1  0
  9 10  2  0
 10 11  1  0
 10 12  1  0
 12 13  1  0
 13 14  2  0
 14 15  1  0
 15 16  2  0
 16 17  1  0
 17 18  1  0
 18 19  1  0
 19 20  2  0
 20 21  1  0
 21 22  2  0
 22 23  1  0
 23 24  1  0
 22 25  1  0
 25 26  2  0
 14  8  1  0
 26 19  1  0
 17 13  1  0
  1 27  1  0
  1 28  1  0
  1 29  1  0
  2 30  1  0
  2 31  1  0
  4 32  1  0
  4 33  1  0
  5 34  1  0
  5 35  1  0
  6 36  1  0
  6 37  1  0
 11 38  1  0
 11 39  1  0
 11 40  1  0
 12 41  1  0
 18 42  1  0
 18 43  1  0
 20 44  1  0
 21 45  1  0
 24 46  1  0
 24 47  1  0
 24 48  1  0
 25 49  1  0
 26 50  1  0
M  END
>  <smiles>  (13) 
CCOCCCN=c1nc(C)[nH]c2c1nnn2Cc1ccc(OC)cc1

>  <score_type>  (13) 
oracle

>  <origin>  (13) 
adg

>  <m_score__min__energy>  (13) 
-7.9100000000000001

>  <m_primary>  (13) 
energy

$$$$
13:0
     RDKit          3D

 57 59  0  0  0  0  0  0  0  0999 V2000
   55.8520   29.7130   43.3750 C   0  0  0  0  0  0  0  0  0  0  0  0
   56.8780   30.5190   43.0950 C   0  0  0  0  0  0  0  0  0  0  0  0
   57.4860   31.4660   44.0630 C   0  0  0  0  0  0  0  0  0  0  0  0
   57.7730   32.7710   43.6330 C   0  0  0  0  0  0  0  0  0  0  0  0
   58.3440   33.7000   44.5070 C   0  0  0  0  0  0  0  0  0  0  0  0
   58.6360   33.3420   45.8320 C   0  0  0  0  0  0  0  0  0  0  0  0
   59.2620   34.3450   46.7800 C   0  0  0  0  0  0  0  0  0  0  0  0
   60.5360   33.8870   47.3820 N   0  0  0  0  0  0  0  0  0  0  0  0
   60.8780   34.5840   48.6300 C   0  0  0  0  0  0  0  0  0  0  0  0
   61.8970   33.7560   49.4250 C   0  0  0  0  0  0  0  0  0  0  0  0
   62.8690   32.9360   48.5330 C   0  0  0  0  0  0  0  0  0  0  0  0
   62.6060   31.4080   48.5790 C   0  0  0  0  0  0  0  0  0  0  0  0
   61.7160   30.8600   47.4510 C   0  0  0  0  0  0  0  0  0  0  0  0
   60.6030   30.0810   48.0110 N   0  0  0  0  0  0  0  0  0  0  0  0
   60.2870   28.7830   47.3990 C   0  0  0  0  0  0  0  0  0  0  0  0
   59.8000   30.5880   49.1090 C   0  0  0  0  0  0  0  0  0  0  0  0
   59.4560   29.7560   50.1900 C   0  0  0  0  0  0  0  0  0  0  0  0
   58.6780   30.2750   51.2290 C   0  0  0  0  0  0  0  0  0  0  0  0
   58.3370   29.4320   52.4180 C   0  0  0  0  0  0  0  0  0  0  0  0
   58.2860   31.5730   51.1910 N   0  0  0  0  0  0  0  0  0  0  0  0
   58.6160   32.3710   50.1460 C   0  0  0  0  0  0  0  0  0  0  0  0
   59.3610   31.8850   49.1180 N   0  0  0  0  0  0  0  0  0  0  0  0
   62.9990   33.4930   47.0940 C   0  0  0  0  0  0  0  0  0  0  0  0
   61.6650   33.9050   46.4310 C   0  0  0  0  0  0  0  0  0  0  0  0
   58.3220   32.0480   46.2750 C   0  0  0  0  0  0  0  0  0  0  0  0
   57.7550   31.1170   45.4010 C   0  0  0  0  0  0  0  0  0  0  0  0
   55.4563   29.0376   42.6022 H   0  0  0  0  0  0  0  0  0  0  0  0
   55.4019   29.7240   44.3786 H   0  0  0  0  0  0  0  0  0  0  0  0
   57.3009   30.4790   42.0803 H   0  0  0  0  0  0  0  0  0  0  0  0
   57.5462   33.0654   42.5977 H   0  0  0  0  0  0  0  0  0  0  0  0
   58.5659   34.7180   44.1542 H   0  0  0  0  0  0  0  0  0  0  0  0
   59.4560   35.2736   46.2232 H   0  0  0  0  0  0  0  0  0  0  0  0
   58.5514   34.4895   47.6072 H   0  0  0  0  0  0  0  0  0  0  0  0
   61.3115   35.5667   48.3925 H   0  0  0  0  0  0  0  0  0  0  0  0
   59.9678   34.7167   49.2333 H   0  0  0  0  0  0  0  0  0  0  0  0
   62.4914   34.4414   50.0470 H   0  0  0  0  0  0  0  0  0  0  0  0
   61.3249   33.0331   50.0250 H   0  0  0  0  0  0  0  0  0  0  0  0
   63.8616   33.0720   48.9870 H   0  0  0  0  0  0  0  0  0  0  0  0
   63.5772   30.8943   48.5256 H   0  0  0  0  0  0  0  0  0  0  0  0
   62.0596   31.2215   49.5153 H   0  0  0  0  0  0  0  0  0  0  0  0
   61.3128   31.7001   46.8666 H   0  0  0  0  0  0  0  0  0  0  0  0
   62.3201   30.2063   46.8047 H   0  0  0  0  0  0  0  0  0  0  0  0
   60.1060   28.0394   48.1891 H   0  0  0  0  0  0  0  0  0  0  0  0
   59.3866   28.8814   46.7749 H   0  0  0  0  0  0  0  0  0  0  0  0
   61.1319   28.4565   46.7749 H   0  0  0  0  0  0  0  0  0  0  0  0
   59.7951   28.7099   50.2173 H   0  0  0  0  0  0  0  0  0  0  0  0
   58.5624   29.9892   53.3393 H   0  0  0  0  0  0  0  0  0  0  0  0
   57.2664   29.1805   52.3942 H   0  0  0  0  0  0  0  0  0  0  0  0
   58.9316   28.5069   52.3942 H   0  0  0  0  0  0  0  0  0  0  0  0
   58.2789   33.4180   50.1298 H   0  0  0  0  0  0  0  0  0  0  0  0
   59.5760   32.5360   48.3340 H   0  0  0  0  0  0  0  0  0  0  0  0
   63.6510   34.3783   47.1282 H   0  0  0  0  0  0  0  0  0  0  0  0
   63.4066   32.6743   46.4827 H   0  0  0  0  0  0  0  0  0  0  0  0
   61.7706   34.9226   46.0269 H   0  0  0  0  0  0  0  0  0  0  0  0
   61.4461   33.1769   45.6360 H   0  0  0  0  0  0  0  0  0  0  0  0
   58.5238   31.7644   47.3185 H   0  0  0  0  0  0  0  0  0  0  0  0
   57.5171   30.1048   45.7601 H   0  0  0  0  0  0  0  0  0  0  0  0
  1  2  2  0
  2  3  1  0
  3  4  2  0
  4  5  1  0
  5  6  2  0
  6  7  1  0
  7  8  1  0
  8  9  1  0
  9 10  1  0
 10 11  1  0
 11 12  1  0
 12 13  1  0
 13 14  1  0
 14 15  1  0
 14 16  1  0
 16 17  2  0
 17 18  1  0
 18 19  1  0
 18 20  2  0
 20 21  1  0
 21 22  2  0
 11 23  1  0
 23 24  1  0
  6 25  1  0
 25 26  2  0
 26  3  1  0
 24  8  1  0
 22 16  1  0
  1 27  1  0
  1 28  1  0
  2 29  1  0
  4 30  1  0
  5 31  1  0
  7 32  1  0
  7 33  1  0
  9 34  1  0
  9 35  1  0
 10 36  1  0
 10 37  1  0
 11 38  1  0
 12 39  1  0
 12 40  1  0
 13 41  1  0
 13 42  1  0
 15 43  1  0
 15 44  1  0
 15 45  1  0
 17 46  1  0
 19 47  1  0
 19 48  1  0
 19 49  1  0
 21 50  1  0
 22 51  1  0
 23 52  1  0
 23 53  1  0
 24 54  1  0
 24 55  1  0
 25 56  1  0
 26 57  1  0
M  CHG  1  22   1
M  END
>  <UniqueID>  (14) 
11

>  <SMILES>  (14) 
C=Cc1ccc(CN2CCC(CCN(C)c3cc(C)nc[nH+]3)CC2)cc1

>  <Energy>  (14) 
69.12353019774089

>  <Genealogy>  (14) 
C=Cc1ccc(CN2CCC(CCN(C)c3cc(C)nc[nH+]3)CC2)cc1 (protonated)
C=Cc1ccc(CN2CCC(CCN(C)c3cc(C)nc[nH+]3)CC2)cc1 (3D coordinates assigned)
C=Cc1ccc(CN2CCC(CCN(C)c3cc(C)nc[nH+]3)CC2)cc1 (nonaromatic ring conformer: 69.12353019774089 kcal/mol)

>  <smiles>  (14) 
C=Cc1ccc(CN2CCC(CCN(C)c3cc(C)ncn3)CC2)cc1

>  <score_type>  (14) 
oracle

>  <origin>  (14) 
adg

>  <m_score__min__energy>  (14) 
-6.5800000000000001

>  <m_primary>  (14) 
energy

$$$$
14:0
     RDKit          3D

 25 25  0  0  0  0  0  0  0  0999 V2000
   58.6510   32.4330   48.4540 C   0  0  0  0  0  0  0  0  0  0  0  0
   58.8480   33.2650   47.2130 C   0  0  0  0  0  0  0  0  0  0  0  0
   59.4420   34.5350   47.3260 C   0  0  0  0  0  0  0  0  0  0  0  0
   59.6330   35.3330   46.1970 C   0  0  0  0  0  0  0  0  0  0  0  0
   59.2360   34.8760   44.9420 C   0  0  0  0  0  0  0  0  0  0  0  0
   58.6430   33.6190   44.8100 C   0  0  0  0  0  0  0  0  0  0  0  0
   58.4390   32.8010   45.9360 C   0  0  0  0  0  0  0  0  0  0  0  0
   57.8090   31.4390   45.7480 C   0  0  0  0  0  0  0  0  0  0  0  0
   56.7000   31.5170   44.8730 O   0  0  0  0  0  0  0  0  0  0  0  0
   56.9870   30.9360   43.6130 C   0  0  0  0  0  0  0  0  0  0  0  0
   56.5110   29.4860   43.5790 C   0  0  0  0  0  0  0  0  0  0  0  0
   56.2780   29.0920   42.2740 F   0  0  0  0  0  0  0  0  0  0  0  0
   57.4810   28.6680   44.1290 F   0  0  0  0  0  0  0  0  0  0  0  0
   55.3440   29.3570   44.3100 F   0  0  0  0  0  0  0  0  0  0  0  0
   58.7998   33.0616   49.3443 H   0  0  0  0  0  0  0  0  0  0  0  0
   57.6307   32.0220   48.4617 H   0  0  0  0  0  0  0  0  0  0  0  0
   59.3787   31.6081   48.4617 H   0  0  0  0  0  0  0  0  0  0  0  0
   59.7589   34.9026   48.3132 H   0  0  0  0  0  0  0  0  0  0  0  0
   60.0979   36.3248   46.2982 H   0  0  0  0  0  0  0  0  0  0  0  0
   59.3900   35.5065   44.0539 H   0  0  0  0  0  0  0  0  0  0  0  0
   58.3323   33.2649   43.8160 H   0  0  0  0  0  0  0  0  0  0  0  0
   58.5556   30.7513   45.3241 H   0  0  0  0  0  0  0  0  0  0  0  0
   57.4629   31.0717   46.7254 H   0  0  0  0  0  0  0  0  0  0  0  0
   56.4727   31.5056   42.8249 H   0  0  0  0  0  0  0  0  0  0  0  0
   58.0740   30.9604   43.4463 H   0  0  0  0  0  0  0  0  0  0  0  0
  1  2  1  0
  2  3  2  0
  3  4  1  0
  4  5  2  0
  5  6  1  0
  6  7  2  0
  7  8  1  0
  8  9  1  0
  9 10  1  0
 10 11  1  0
 11 12  1  0
 11 13  1  0
 11 14  1  0
  7  2  1  0
  1 15  1  0
  1 16  1  0
  1 17  1  0
  3 18  1  0
  4 19  1  0
  5 20  1  0
  6 21  1  0
  8 22  1  0
  8 23  1  0
 10 24  1  0
 10 25  1  0
M  END
>  <UniqueID>  (15) 
12

>  <SMILES>  (15) 
Cc1ccccc1COCC(F)(F)F

>  <Energy>  (15) 
24.82221110770996

>  <Genealogy>  (15) 
Cc1ccccc1COCC(F)(F)F (3D coordinates assigned)
Cc1ccccc1COCC(F)(F)F (optimized conformer: 24.82221110770996 kcal/mol)

>  <smiles>  (15) 
Cc1ccccc1COCC(F)(F)F

>  <score_type>  (15) 
oracle

>  <origin>  (15) 
adg

>  <m_score__min__energy>  (15) 
-4.8300000000000001

>  <m_primary>  (15) 
energy

$$$$
15:0
     RDKit          3D

 42 44  0  0  1  0  0  0  0  0999 V2000
   55.1880   25.0210   45.6310 C   0  0  0  0  0  0  0  0  0  0  0  0
   55.2340   26.4230   45.9370 O   0  0  0  0  0  0  0  0  0  0  0  0
   56.4660   27.0550   45.9860 C   0  0  0  0  0  0  0  0  0  0  0  0
   57.5710   26.4690   46.5560 C   0  0  0  0  0  0  0  0  0  0  0  0
   58.7960   27.1070   46.6010 C   0  0  0  0  0  0  0  0  0  0  0  0
   58.9800   28.3900   46.0660 C   0  0  0  0  0  0  0  0  0  0  0  0
   60.2960   29.0830   46.1160 C   0  0  0  0  0  0  0  0  0  0  0  0
   60.3960   30.1540   46.9800 N   0  0  0  0  0  0  0  0  0  0  0  0
   60.7370   31.3430   46.8730 C   0  0  0  0  0  0  0  0  0  0  0  0
   61.9920   31.6910   47.2030 N   0  0  0  0  0  0  0  0  0  0  0  0
   62.3870   32.9700   47.1370 C   0  0  0  0  0  0  0  0  0  0  0  0
   63.7810   33.3320   47.5080 C   0  0  0  0  0  0  0  0  0  0  0  0
   61.5380   33.9300   46.7380 N   0  0  0  0  0  0  0  0  0  0  0  0
   60.2850   33.5810   46.4070 C   0  0  0  0  0  0  0  0  0  0  0  0
   59.4360   34.5670   46.0000 C   0  0  0  0  0  0  0  0  0  0  0  0
   58.1580   34.1860   45.6580 C   0  0  0  0  0  0  0  0  0  0  0  0
   57.6830   32.9150   45.6950 C   0  0  0  0  0  0  0  0  0  0  0  0
   58.5650   31.8890   46.1180 C   0  0  0  0  0  0  0  0  0  0  0  0
   59.8200   32.2750   46.4540 C   0  0  0  0  0  0  0  0  0  0  0  0
   57.8440   28.9420   45.5040 C   0  0  0  0  0  0  0  0  0  0  0  0
   56.6200   28.3130   45.4560 C   0  0  0  0  0  0  0  0  0  0  0  0
   55.5010   28.9010   44.8820 O   0  0  0  0  0  0  0  0  0  0  0  0
   55.6360   29.7910   43.7900 C   0  0  0  0  0  0  0  0  0  0  0  0
   55.1690   24.4420   46.5661 H   0  0  0  0  0  0  0  0  0  0  0  0
   54.2822   24.8029   45.0462 H   0  0  0  0  0  0  0  0  0  0  0  0
   56.0775   24.7440   45.0462 H   0  0  0  0  0  0  0  0  0  0  0  0
   57.4774   25.4622   46.9892 H   0  0  0  0  0  0  0  0  0  0  0  0
   59.6495   26.5947   47.0690 H   0  0  0  0  0  0  0  0  0  0  0  0
   61.0526   28.3420   46.4134 H   0  0  0  0  0  0  0  0  0  0  0  0
   60.4404   29.5058   45.1108 H   0  0  0  0  0  0  0  0  0  0  0  0
   63.8743   33.3562   48.6038 H   0  0  0  0  0  0  0  0  0  0  0  0
   64.4756   32.5844   47.0973 H   0  0  0  0  0  0  0  0  0  0  0  0
   64.0241   34.3231   47.0973 H   0  0  0  0  0  0  0  0  0  0  0  0
   61.8720   34.9290   46.6960 H   0  0  0  0  0  0  0  0  0  0  0  0
   59.7571   35.6178   45.9473 H   0  0  0  0  0  0  0  0  0  0  0  0
   57.4662   34.9751   45.3282 H   0  0  0  0  0  0  0  0  0  0  0  0
   56.6462   32.6883   45.4058 H   0  0  0  0  0  0  0  0  0  0  0  0
   58.2481   30.8369   46.1707 H   0  0  0  0  0  0  0  0  0  0  0  0
   57.9229   29.9484   45.0671 H   0  0  0  0  0  0  0  0  0  0  0  0
   55.7910   30.8128   44.1668 H   0  0  0  0  0  0  0  0  0  0  0  0
   56.4990   29.4913   43.1772 H   0  0  0  0  0  0  0  0  0  0  0  0
   54.7230   29.7607   43.1772 H   0  0  0  0  0  0  0  0  0  0  0  0
  1  2  1  0
  2  3  1  0
  3  4  2  0
  4  5  1  0
  5  6  2  0
  6  7  1  0
  7  8  1  0
  8  9  2  0
  9 10  1  0
 10 11  2  0
 11 12  1  0
 11 13  1  0
 13 14  1  0
 14 15  2  0
 15 16  1  0
 16 17  2  0
 17 18  1  0
 18 19  2  0
  6 20  1  0
 20 21  2  0
 21 22  1  0
 22 23  1  0
 21  3  1  0
 19  9  1  0
 19 14  1  0
  1 24  1  0
  1 25  1  0
  1 26  1  0
  4 27  1  0
  5 28  1  0
  7 29  1  0
  7 30  1  0
 12 31  1  0
 12 32  1  0
 12 33  1  0
 13 34  1  0
 15 35  1  0
 16 36  1  0
 17 37  1  0
 18 38  1  0
 20 39  1  0
 23 40  1  0
 23 41  1  0
 23 42  1  0
M  END
>  <smiles>  (16) 
COc1ccc(CN=c2nc(C)[nH]c3ccccc23)cc1OC

>  <score_type>  (16) 
oracle

>  <origin>  (16) 
adg

>  <m_score__min__energy>  (16) 
-8.3599999999999994

>  <m_primary>  (16) 
energy

$$$$
16:0
     RDKit          3D

 40 43  0  0  0  0  0  0  0  0999 V2000
   64.1720   31.9730   49.3590 C   0  0  0  0  0  0  0  0  0  0  0  0
   62.8900   32.0340   48.5830 C   0  0  0  0  0  0  0  0  0  0  0  0
   62.7620   32.9090   47.4940 C   0  0  0  0  0  0  0  0  0  0  0  0
   61.5810   32.9390   46.7480 C   0  0  0  0  0  0  0  0  0  0  0  0
   60.5180   32.0760   47.0650 C   0  0  0  0  0  0  0  0  0  0  0  0
   59.2490   32.1130   46.3010 C   0  0  0  0  0  0  0  0  0  0  0  0
   58.7910   30.9520   45.7610 N   0  0  0  0  0  0  0  0  0  0  0  0
   57.6380   30.9070   45.0460 C   0  0  0  0  0  0  0  0  0  0  0  0
   57.0850   29.3580   44.3350 S   0  0  0  0  0  0  0  0  0  0  0  0
   57.2150   28.4200   45.8970 C   0  0  0  0  0  0  0  0  0  0  0  0
   56.7650   27.0070   45.7050 C   0  0  0  0  0  0  0  0  0  0  0  0
   57.5630   26.0530   45.1550 N   0  0  0  0  0  0  0  0  0  0  0  0
   56.7520   24.9880   45.1150 C   0  0  0  0  0  0  0  0  0  0  0  0
   57.0420   23.7140   44.6310 C   0  0  0  0  0  0  0  0  0  0  0  0
   56.0190   22.7480   44.6790 C   0  0  0  0  0  0  0  0  0  0  0  0
   54.7470   23.0810   45.2000 C   0  0  0  0  0  0  0  0  0  0  0  0
   54.4900   24.3800   45.6770 C   0  0  0  0  0  0  0  0  0  0  0  0
   55.5270   25.3080   45.6150 C   0  0  0  0  0  0  0  0  0  0  0  0
   55.5040   26.5930   45.9960 N   0  0  0  0  0  0  0  0  0  0  0  0
   56.9120   32.0370   44.8550 N   0  0  0  0  0  0  0  0  0  0  0  0
   57.3250   33.2280   45.3550 C   0  0  0  0  0  0  0  0  0  0  0  0
   56.6330   34.2590   45.1420 O   0  0  0  0  0  0  0  0  0  0  0  0
   58.5180   33.3040   46.0920 C   0  0  0  0  0  0  0  0  0  0  0  0
   58.9980   34.5860   46.5580 C   0  0  0  0  0  0  0  0  0  0  0  0
   59.3820   35.6120   46.9300 N   0  0  0  0  0  0  0  0  0  0  0  0
   60.6470   31.2030   48.1570 C   0  0  0  0  0  0  0  0  0  0  0  0
   61.8290   31.1730   48.9020 C   0  0  0  0  0  0  0  0  0  0  0  0
   63.9494   31.9836   50.4362 H   0  0  0  0  0  0  0  0  0  0  0  0
   64.7107   31.0482   49.1050 H   0  0  0  0  0  0  0  0  0  0  0  0
   64.7961   32.8425   49.1050 H   0  0  0  0  0  0  0  0  0  0  0  0
   63.5956   33.5748   47.2261 H   0  0  0  0  0  0  0  0  0  0  0  0
   61.4826   33.6421   45.9078 H   0  0  0  0  0  0  0  0  0  0  0  0
   58.2622   28.4227   46.2335 H   0  0  0  0  0  0  0  0  0  0  0  0
   56.5704   28.8968   46.6501 H   0  0  0  0  0  0  0  0  0  0  0  0
   58.0354   23.4715   44.2256 H   0  0  0  0  0  0  0  0  0  0  0  0
   56.2099   21.7296   44.3096 H   0  0  0  0  0  0  0  0  0  0  0  0
   53.9535   22.3199   45.2326 H   0  0  0  0  0  0  0  0  0  0  0  0
   53.5052   24.6527   46.0843 H   0  0  0  0  0  0  0  0  0  0  0  0
   59.8129   30.5389   48.4277 H   0  0  0  0  0  0  0  0  0  0  0  0
   61.9281   30.4708   49.7428 H   0  0  0  0  0  0  0  0  0  0  0  0
  1  2  1  0
  2  3  2  0
  3  4  1  0
  4  5  2  0
  5  6  1  0
  6  7  1  0
  7  8  2  0
  8  9  1  0
  9 10  1  0
 10 11  1  0
 11 12  2  0
 12 13  1  0
 13 14  2  0
 14 15  1  0
 15 16  2  0
 16 17  1  0
 17 18  2  0
 18 19  1  0
  8 20  1  0
 20 21  1  0
 21 22  2  0
 21 23  1  0
 23 24  1  0
 24 25  3  0
  5 26  1  0
 26 27  2  0
 27  2  1  0
 23  6  2  0
 19 11  1  0
 18 13  1  0
  1 28  1  0
  1 29  1  0
  1 30  1  0
  3 31  1  0
  4 32  1  0
 10 33  1  0
 10 34  1  0
 14 35  1  0
 15 36  1  0
 16 37  1  0
 17 38  1  0
 26 39  1  0
 27 40  1  0
M  CHG  2  19  -1  20  -1
M  END
>  <UniqueID>  (17) 
13

>  <SMILES>  (17) 
Cc1ccc(-c2nc(SCc3nc4ccccc4[n-]3)[n-]c(=O)c2C#N)cc1

>  <Energy>  (17) 
81.07139793195822

>  <Genealogy>  (17) 
Cc1ccc(-c2nc(SCc3nc4ccccc4[n-]3)[n-]c(=O)c2C#N)cc1 (protonated)
Cc1ccc(-c2nc(SCc3nc4ccccc4[n-]3)[n-]c(=O)c2C#N)cc1 (3D coordinates assigned)
Cc1ccc(-c2nc(SCc3nc4ccccc4[n-]3)[n-]c(=O)c2C#N)cc1 (optimized conformer: 81.07139793195822 kcal/mol)

>  <smiles>  (17) 
Cc1ccc(-c2nc(SCc3nc4ccccc4[nH]3)[nH]c(=O)c2C#N)cc1

>  <score_type>  (17) 
oracle

>  <origin>  (17) 
adg

>  <m_score__min__energy>  (17) 
-11.039999999999999

>  <m_primary>  (17) 
energy

$$$$
17:0
     RDKit          3D

 48 50  0  0  0  0  0  0  0  0999 V2000
   54.7240   24.8780   45.6250 C   0  0  0  0  0  0  0  0  0  0  0  0
   55.0510   26.2200   45.9660 O   0  0  0  0  0  0  0  0  0  0  0  0
   56.3590   26.7150   46.0640 C   0  0  0  0  0  0  0  0  0  0  0  0
   56.6380   27.9700   45.5100 C   0  0  0  0  0  0  0  0  0  0  0  0
   57.9280   28.5030   45.5720 C   0  0  0  0  0  0  0  0  0  0  0  0
   58.9630   27.7800   46.1830 C   0  0  0  0  0  0  0  0  0  0  0  0
   60.2950   28.3870   46.3600 C   0  0  0  0  0  0  0  0  0  0  0  0
   61.0630   28.4100   45.3590 O   0  0  0  0  0  0  0  0  0  0  0  0
   60.7370   28.9830   47.6100 N   0  0  0  0  0  0  0  0  0  0  0  0
   61.3650   30.3070   47.4120 C   0  0  0  0  0  0  0  0  0  0  0  0
   60.3560   31.4690   47.2530 C   0  0  0  0  0  0  0  0  0  0  0  0
   58.9850   31.1130   47.6720 N   0  0  0  0  0  0  0  0  0  0  0  0
   58.1820   32.3440   47.8560 C   0  0  0  0  0  0  0  0  0  0  0  0
   58.5500   33.3830   46.8200 C   0  0  0  0  0  0  0  0  0  0  0  0
   59.0980   34.5970   47.2700 C   0  0  0  0  0  0  0  0  0  0  0  0
   59.5490   35.5570   46.3630 C   0  0  0  0  0  0  0  0  0  0  0  0
   59.4680   35.3140   44.9930 C   0  0  0  0  0  0  0  0  0  0  0  0
   58.9170   34.1220   44.5260 C   0  0  0  0  0  0  0  0  0  0  0  0
   58.4360   33.1540   45.4230 C   0  0  0  0  0  0  0  0  0  0  0  0
   57.8300   31.9630   44.9010 N   0  0  0  0  0  0  0  0  0  0  0  0
   56.6470   31.6900   45.1940 O   0  0  0  0  0  0  0  0  0  0  0  0
   58.6160   30.9870   44.3360 O   0  0  0  0  0  0  0  0  0  0  0  0
   59.0280   30.3270   48.9140 C   0  0  0  0  0  0  0  0  0  0  0  0
   59.6980   28.9640   48.6720 C   0  0  0  0  0  0  0  0  0  0  0  0
   58.6820   26.5360   46.7630 C   0  0  0  0  0  0  0  0  0  0  0  0
   57.3940   25.9980   46.6930 C   0  0  0  0  0  0  0  0  0  0  0  0
   54.5809   24.2906   46.5440 H   0  0  0  0  0  0  0  0  0  0  0  0
   53.7965   24.8655   45.0337 H   0  0  0  0  0  0  0  0  0  0  0  0
   55.5418   24.4403   45.0337 H   0  0  0  0  0  0  0  0  0  0  0  0
   55.8348   28.5413   45.0217 H   0  0  0  0  0  0  0  0  0  0  0  0
   58.1328   29.4936   45.1399 H   0  0  0  0  0  0  0  0  0  0  0  0
   61.5080   28.3640   47.9600 H   0  0  0  0  0  0  0  0  0  0  0  0
   62.0026   30.5202   48.2826 H   0  0  0  0  0  0  0  0  0  0  0  0
   61.9333   30.2504   46.4719 H   0  0  0  0  0  0  0  0  0  0  0  0
   60.6994   32.3160   47.8651 H   0  0  0  0  0  0  0  0  0  0  0  0
   60.3149   31.7210   46.1830 H   0  0  0  0  0  0  0  0  0  0  0  0
   57.1147   32.0971   47.7563 H   0  0  0  0  0  0  0  0  0  0  0  0
   58.3874   32.7538   48.8559 H   0  0  0  0  0  0  0  0  0  0  0  0
   59.1722   34.7925   48.3499 H   0  0  0  0  0  0  0  0  0  0  0  0
   59.9685   36.5056   46.7294 H   0  0  0  0  0  0  0  0  0  0  0  0
   59.8395   36.0641   44.2793 H   0  0  0  0  0  0  0  0  0  0  0  0
   58.8582   33.9373   43.4432 H   0  0  0  0  0  0  0  0  0  0  0  0
   59.6005   30.8812   49.6724 H   0  0  0  0  0  0  0  0  0  0  0  0
   57.9980   30.1580   49.2613 H   0  0  0  0  0  0  0  0  0  0  0  0
   60.1689   28.6381   49.6112 H   0  0  0  0  0  0  0  0  0  0  0  0
   58.9089   28.2763   48.3338 H   0  0  0  0  0  0  0  0  0  0  0  0
   59.4798   25.9794   47.2765 H   0  0  0  0  0  0  0  0  0  0  0  0
   57.1883   25.0103   47.1312 H   0  0  0  0  0  0  0  0  0  0  0  0
  1  2  1  0
  2  3  1  0
  3  4  2  0
  4  5  1  0
  5  6  2  0
  6  7  1  0
  7  8  2  0
  7  9  1  0
  9 10  1  0
 10 11  1  0
 11 12  1  0
 12 13  1  0
 13 14  1  0
 14 15  2  0
 15 16  1  0
 16 17  2  0
 17 18  1  0
 18 19  2  0
 19 20  1  0
 20 21  2  0
 20 22  1  0
 12 23  1  0
 23 24  1  0
  6 25  1  0
 25 26  2  0
 26  3  1  0
 24  9  1  0
 19 14  1  0
  1 27  1  0
  1 28  1  0
  1 29  1  0
  4 30  1  0
  5 31  1  0
  9 32  1  0
 10 33  1  0
 10 34  1  0
 11 35  1  0
 11 36  1  0
 13 37  1  0
 13 38  1  0
 15 39  1  0
 16 40  1  0
 17 41  1  0
 18 42  1  0
 23 43  1  0
 23 44  1  0
 24 45  1  0
 24 46  1  0
 25 47  1  0
 26 48  1  0
M  CHG  3   9   1  20   1  22  -1
M  END
>  <UniqueID>  (18) 
14

>  <SMILES>  (18) 
COc1ccc(C(=O)[NH+]2CCN(Cc3ccccc3[N+](=O)[O-])CC2)cc1

>  <Energy>  (18) 
75.23295335449062

>  <Genealogy>  (18) 
COc1ccc(C(=O)[NH+]2CCN(Cc3ccccc3[N+](=O)[O-])CC2)cc1 (protonated)
COc1ccc(C(=O)[NH+]2CCN(Cc3ccccc3[N+](=O)[O-])CC2)cc1 (3D coordinates assigned)
COc1ccc(C(=O)[NH+]2CCN(Cc3ccccc3[N+](=O)[O-])CC2)cc1 (nonaromatic ring conformer: 75.23295335449062 kcal/mol)

>  <smiles>  (18) 
COc1ccc(C(=O)N2CCN(Cc3ccccc3[N+](=O)[O-])CC2)cc1

>  <score_type>  (18) 
oracle

>  <origin>  (18) 
adg

>  <m_score__min__energy>  (18) 
-7.7199999999999998

>  <m_primary>  (18) 
energy

$$$$
18:0
     RDKit          3D

 37 39  0  0  0  0  0  0  0  0999 V2000
   55.5690   29.7200   43.7080 C   0  0  0  0  0  0  0  0  0  0  0  0
   57.0540   29.8430   43.3800 C   0  0  0  0  0  0  0  0  0  0  0  0
   57.6800   30.9300   44.1710 N   0  0  0  0  0  0  0  0  0  0  0  0
   57.7920   32.1710   43.5920 C   0  0  0  0  0  0  0  0  0  0  0  0
   57.4080   32.3700   42.4070 O   0  0  0  0  0  0  0  0  0  0  0  0
   58.3350   33.2430   44.2940 C   0  0  0  0  0  0  0  0  0  0  0  0
   58.7900   33.0820   45.6000 C   0  0  0  0  0  0  0  0  0  0  0  0
   59.4790   34.4950   46.4280 S   0  0  0  0  0  0  0  0  0  0  0  0
   58.5250   34.9400   47.5010 O   0  0  0  0  0  0  0  0  0  0  0  0
   59.6760   35.6320   45.4630 O   0  0  0  0  0  0  0  0  0  0  0  0
   61.0450   34.0790   47.1190 C   0  0  0  0  0  0  0  0  0  0  0  0
   61.1950   33.9970   48.5110 C   0  0  0  0  0  0  0  0  0  0  0  0
   62.4370   33.6760   49.0660 C   0  0  0  0  0  0  0  0  0  0  0  0
   63.5340   33.4320   48.2340 C   0  0  0  0  0  0  0  0  0  0  0  0
   63.3880   33.5070   46.8450 C   0  0  0  0  0  0  0  0  0  0  0  0
   62.1470   33.8290   46.2870 C   0  0  0  0  0  0  0  0  0  0  0  0
   58.7210   31.8020   46.1960 C   0  0  0  0  0  0  0  0  0  0  0  0
   59.1950   31.5730   47.5060 C   0  0  0  0  0  0  0  0  0  0  0  0
   59.1500   30.3010   48.0700 C   0  0  0  0  0  0  0  0  0  0  0  0
   58.6410   29.2340   47.3440 C   0  0  0  0  0  0  0  0  0  0  0  0
   58.1580   29.4300   46.0510 C   0  0  0  0  0  0  0  0  0  0  0  0
   58.1710   30.7150   45.4500 C   0  0  0  0  0  0  0  0  0  0  0  0
   55.4343   29.7088   44.7997 H   0  0  0  0  0  0  0  0  0  0  0  0
   55.0269   30.5763   43.2804 H   0  0  0  0  0  0  0  0  0  0  0  0
   55.1752   28.7862   43.2804 H   0  0  0  0  0  0  0  0  0  0  0  0
   57.5550   28.8921   43.6142 H   0  0  0  0  0  0  0  0  0  0  0  0
   57.1605   30.0788   42.3109 H   0  0  0  0  0  0  0  0  0  0  0  0
   58.4055   34.2290   43.8114 H   0  0  0  0  0  0  0  0  0  0  0  0
   60.3330   34.1858   49.1677 H   0  0  0  0  0  0  0  0  0  0  0  0
   62.5516   33.6153   50.1583 H   0  0  0  0  0  0  0  0  0  0  0  0
   64.5115   33.1811   48.6717 H   0  0  0  0  0  0  0  0  0  0  0  0
   64.2506   33.3124   46.1907 H   0  0  0  0  0  0  0  0  0  0  0  0
   62.0344   33.8864   45.1943 H   0  0  0  0  0  0  0  0  0  0  0  0
   59.6053   32.4108   48.0888 H   0  0  0  0  0  0  0  0  0  0  0  0
   59.5190   30.1416   49.0939 H   0  0  0  0  0  0  0  0  0  0  0  0
   58.6184   28.2290   47.7905 H   0  0  0  0  0  0  0  0  0  0  0  0
   57.7600   28.5735   45.4871 H   0  0  0  0  0  0  0  0  0  0  0  0
  1  2  1  0
  2  3  1  0
  3  4  1  0
  4  5  2  0
  4  6  1  0
  6  7  2  0
  7  8  1  0
  8  9  2  0
  8 10  2  0
  8 11  1  0
 11 12  2  0
 12 13  1  0
 13 14  2  0
 14 15  1  0
 15 16  2  0
  7 17  1  0
 17 18  2  0
 18 19  1  0
 19 20  2  0
 20 21  1  0
 21 22  2  0
 22  3  1  0
 16 11  1  0
 22 17  1  0
  1 23  1  0
  1 24  1  0
  1 25  1  0
  2 26  1  0
  2 27  1  0
  6 28  1  0
 12 29  1  0
 13 30  1  0
 14 31  1  0
 15 32  1  0
 16 33  1  0
 18 34  1  0
 19 35  1  0
 20 36  1  0
 21 37  1  0
M  END
>  <UniqueID>  (19) 
15

>  <SMILES>  (19) 
CCn1c(=O)cc(S(=O)(=O)c2ccccc2)c2ccccc21

>  <Energy>  (19) 
52.62460040191774

>  <Genealogy>  (19) 
CCn1c(=O)cc(S(=O)(=O)c2ccccc2)c2ccccc21 (3D coordinates assigned)
CCn1c(=O)cc(S(=O)(=O)c2ccccc2)c2ccccc21 (optimized conformer: 52.62460040191774 kcal/mol)

>  <smiles>  (19) 
CCn1c(=O)cc(S(=O)(=O)c2ccccc2)c2ccccc21

>  <score_type>  (19) 
oracle

>  <origin>  (19) 
adg

>  <m_score__min__energy>  (19) 
-7.9699999999999998

>  <m_primary>  (19) 
energy

$$$$
19:0
     RDKit          3D

 55 58  0  0  0  0  0  0  0  0999 V2000
   63.7400   33.5830   47.3660 C   0  0  0  0  0  0  0  0  0  0  0  0
   63.4250   32.1000   47.5760 C   0  0  0  0  0  0  0  0  0  0  0  0
   63.2580   31.7370   49.0770 C   0  0  1  0  0  0  0  0  0  0  0  0
   64.2510   32.4270   49.9830 C   0  0  0  0  0  0  0  0  0  0  0  0
   65.5810   32.7240   49.7370 C   0  0  0  0  0  0  0  0  0  0  0  0
   66.0800   33.2660   50.9090 C   0  0  0  0  0  0  0  0  0  0  0  0
   65.0450   33.2670   51.8240 C   0  0  0  0  0  0  0  0  0  0  0  0
   63.9450   32.7350   51.2600 N   0  0  0  0  0  0  0  0  0  0  0  0
   62.6170   32.6290   51.8750 C   0  0  0  0  0  0  0  0  0  0  0  0
   61.6900   31.7430   51.0240 C   0  0  0  0  0  0  0  0  0  0  0  0
   61.9080   32.0360   49.6020 N   0  0  0  0  0  0  0  0  0  0  0  0
   61.0320   32.9940   48.9770 C   0  0  0  0  0  0  0  0  0  0  0  0
   61.2440   34.5910   49.3090 S   0  0  0  0  0  0  0  0  0  0  0  0
   59.9550   32.5420   48.1220 N   0  0  0  0  0  0  0  0  0  0  0  0
   59.0020   33.5100   47.5510 C   0  0  0  0  0  0  0  0  0  0  0  0
   57.9000   32.8240   46.7360 C   0  0  0  0  0  0  0  0  0  0  0  0
   58.4790   31.8110   45.8450 N   0  0  0  0  0  0  0  0  0  0  0  0
   57.9760   31.6400   44.5050 C   0  0  0  0  0  0  0  0  0  0  0  0
   58.4020   32.5120   43.4860 C   0  0  0  0  0  0  0  0  0  0  0  0
   57.9280   32.3660   42.1810 C   0  0  0  0  0  0  0  0  0  0  0  0
   57.0210   31.3520   41.8770 C   0  0  0  0  0  0  0  0  0  0  0  0
   56.5880   30.4770   42.8770 C   0  0  0  0  0  0  0  0  0  0  0  0
   57.0650   30.6060   44.1980 C   0  0  0  0  0  0  0  0  0  0  0  0
   56.6700   29.7190   45.2140 O   0  0  0  0  0  0  0  0  0  0  0  0
   57.2820   28.4600   45.4740 C   0  0  0  0  0  0  0  0  0  0  0  0
   59.5150   30.8940   46.3450 C   0  0  0  0  0  0  0  0  0  0  0  0
   59.7840   31.1070   47.8370 C   0  0  0  0  0  0  0  0  0  0  0  0
   63.8450   34.0775   48.3430 H   0  0  0  0  0  0  0  0  0  0  0  0
   64.6792   33.6821   46.8021 H   0  0  0  0  0  0  0  0  0  0  0  0
   62.9221   34.0553   46.8021 H   0  0  0  0  0  0  0  0  0  0  0  0
   62.4904   31.8592   47.0482 H   0  0  0  0  0  0  0  0  0  0  0  0
   64.2716   31.5183   47.1824 H   0  0  0  0  0  0  0  0  0  0  0  0
   63.4380   30.6519   49.0913 H   0  0  0  0  0  0  0  0  0  0  0  0
   66.1309   32.5617   48.7982 H   0  0  0  0  0  0  0  0  0  0  0  0
   67.1050   33.6270   51.0792 H   0  0  0  0  0  0  0  0  0  0  0  0
   65.1100   33.6446   52.8551 H   0  0  0  0  0  0  0  0  0  0  0  0
   62.7179   32.1872   52.8773 H   0  0  0  0  0  0  0  0  0  0  0  0
   62.1784   33.6355   51.9427 H   0  0  0  0  0  0  0  0  0  0  0  0
   61.9135   30.6838   51.2192 H   0  0  0  0  0  0  0  0  0  0  0  0
   60.6417   31.9492   51.2857 H   0  0  0  0  0  0  0  0  0  0  0  0
   58.5362   34.0751   48.3718 H   0  0  0  0  0  0  0  0  0  0  0  0
   59.5594   34.1743   46.8742 H   0  0  0  0  0  0  0  0  0  0  0  0
   57.1895   32.3399   47.4222 H   0  0  0  0  0  0  0  0  0  0  0  0
   57.3820   33.5803   46.1280 H   0  0  0  0  0  0  0  0  0  0  0  0
   59.1151   33.3162   43.7199 H   0  0  0  0  0  0  0  0  0  0  0  0
   58.2705   33.0517   41.3920 H   0  0  0  0  0  0  0  0  0  0  0  0
   56.6457   31.2405   40.8490 H   0  0  0  0  0  0  0  0  0  0  0  0
   55.8693   29.6812   42.6318 H   0  0  0  0  0  0  0  0  0  0  0  0
   57.3568   28.3061   46.5606 H   0  0  0  0  0  0  0  0  0  0  0  0
   56.6732   27.6580   45.0311 H   0  0  0  0  0  0  0  0  0  0  0  0
   58.2888   28.4433   45.0311 H   0  0  0  0  0  0  0  0  0  0  0  0
   59.1811   29.8579   46.1869 H   0  0  0  0  0  0  0  0  0  0  0  0
   60.4465   31.0949   45.7954 H   0  0  0  0  0  0  0  0  0  0  0  0
   58.9345   30.7195   48.4186 H   0  0  0  0  0  0  0  0  0  0  0  0
   60.7042   30.5729   48.1162 H   0  0  0  0  0  0  0  0  0  0  0  0
  1  2  1  0
  2  3  1  0
  3  4  1  0
  4  5  2  0
  5  6  1  0
  6  7  2  0
  7  8  1  0
  8  9  1  0
  9 10  1  0
 10 11  1  0
 11 12  1  0
 12 13  2  0
 12 14  1  0
 14 15  1  0
 15 16  1  0
 16 17  1  0
 17 18  1  0
 18 19  2  0
 19 20  1  0
 20 21  2  0
 21 22  1  0
 22 23  2  0
 23 24  1  0
 24 25  1  0
 17 26  1  0
 26 27  1  0
 11  3  1  0
 27 14  1  0
  8  4  1  0
 23 18  1  0
  1 28  1  0
  1 29  1  0
  1 30  1  0
  2 31  1  0
  2 32  1  0
  3 33  1  6
  5 34  1  0
  6 35  1  0
  7 36  1  0
  9 37  1  0
  9 38  1  0
 10 39  1  0
 10 40  1  0
 15 41  1  0
 15 42  1  0
 16 43  1  0
 16 44  1  0
 19 45  1  0
 20 46  1  0
 21 47  1  0
 22 48  1  0
 25 49  1  0
 25 50  1  0
 25 51  1  0
 26 52  1  0
 26 53  1  0
 27 54  1  0
 27 55  1  0
M  END
>  <UniqueID>  (20) 
16

>  <SMILES>  (20) 
CC[C@H]1c2cccn2CCN1C(=S)N1CCN(c2ccccc2OC)CC1

>  <Energy>  (20) 
97.44380623636734

>  <Genealogy>  (20) 
CC[C@H]1c2cccn2CCN1C(=S)N1CCN(c2ccccc2OC)CC1 (chirality)
CC[C@H]1c2cccn2CCN1C(=S)N1CCN(c2ccccc2OC)CC1 (3D coordinates assigned)
CC[C@H]1c2cccn2CCN1C(=S)N1CCN(c2ccccc2OC)CC1 (nonaromatic ring conformer: 97.44380623636734 kcal/mol)

>  <smiles>  (20) 
CCC1c2cccn2CCN1C(=S)N1CCN(c2ccccc2OC)CC1

>  <score_type>  (20) 
oracle

>  <origin>  (20) 
adg

>  <m_score__min__energy>  (20) 
-7.5800000000000001

>  <m_primary>  (20) 
energy

$$$$
20:0
     RDKit          3D

 52 55  0  0  0  0  0  0  0  0999 V2000
   56.0140   22.9840   48.0370 C   0  0  0  0  0  0  0  0  0  0  0  0
   54.5680   22.5340   47.8540 C   0  0  0  0  0  0  0  0  0  0  0  0
   54.4160   21.6520   46.6110 C   0  0  0  0  0  0  0  0  0  0  0  0
   53.5020   22.2630   45.6490 N   0  0  0  0  0  0  0  0  0  0  0  0
   53.5900   23.5780   45.0760 C   0  0  0  0  0  0  0  0  0  0  0  0
   52.5900   24.0180   44.4490 O   0  0  0  0  0  0  0  0  0  0  0  0
   54.7970   24.4300   45.1890 C   0  0  0  0  0  0  0  0  0  0  0  0
   55.9730   24.0970   44.5030 C   0  0  0  0  0  0  0  0  0  0  0  0
   57.0990   24.9060   44.6400 C   0  0  0  0  0  0  0  0  0  0  0  0
   57.0340   26.0260   45.4710 C   0  0  0  0  0  0  0  0  0  0  0  0
   58.1750   26.8800   45.6380 N   0  0  0  0  0  0  0  0  0  0  0  0
   59.2610   26.4260   46.5230 C   0  0  0  0  0  0  0  0  0  0  0  0
   59.2150   27.1890   47.8620 C   0  0  0  0  0  0  0  0  0  0  0  0
   58.9530   28.6430   47.6080 C   0  0  0  0  0  0  0  0  0  0  0  0
   59.0600   29.7200   48.4570 C   0  0  0  0  0  0  0  0  0  0  0  0
   58.6380   30.8120   47.7830 N   0  0  0  0  0  0  0  0  0  0  0  0
   58.5210   32.1580   48.3320 C   0  0  0  0  0  0  0  0  0  0  0  0
   58.7430   33.1690   47.2490 C   0  0  0  0  0  0  0  0  0  0  0  0
   59.9180   33.9330   47.2060 C   0  0  0  0  0  0  0  0  0  0  0  0
   60.1120   34.8060   46.1820 N   0  0  0  0  0  0  0  0  0  0  0  0
   59.1880   34.9510   45.1960 C   0  0  0  0  0  0  0  0  0  0  0  0
   58.0220   34.1840   45.2300 C   0  0  0  0  0  0  0  0  0  0  0  0
   57.8280   33.3060   46.2500 N   0  0  0  0  0  0  0  0  0  0  0  0
   58.2440   30.4780   46.5610 N   0  0  0  0  0  0  0  0  0  0  0  0
   58.4160   29.1470   46.4470 C   0  0  0  0  0  0  0  0  0  0  0  0
   58.1650   28.3050   45.2290 C   0  0  2  0  0  0  0  0  0  0  0  0
   56.8670   28.7310   44.5230 C   0  0  0  0  0  0  0  0  0  0  0  0
   55.8760   26.3050   46.1230 N   0  0  0  0  0  0  0  0  0  0  0  0
   54.7970   25.5310   45.9880 N   0  0  0  0  0  0  0  0  0  0  0  0
   56.2428   23.0552   49.1106 H   0  0  0  0  0  0  0  0  0  0  0  0
   56.6879   22.2531   47.5662 H   0  0  0  0  0  0  0  0  0  0  0  0
   56.1541   23.9682   47.5662 H   0  0  0  0  0  0  0  0  0  0  0  0
   54.2552   21.9623   48.7402 H   0  0  0  0  0  0  0  0  0  0  0  0
   53.9385   23.4271   47.7268 H   0  0  0  0  0  0  0  0  0  0  0  0
   55.4011   21.5210   46.1393 H   0  0  0  0  0  0  0  0  0  0  0  0
   54.0054   20.6787   46.9178 H   0  0  0  0  0  0  0  0  0  0  0  0
   56.0067   23.2040   43.8615 H   0  0  0  0  0  0  0  0  0  0  0  0
   58.0270   24.6655   44.1005 H   0  0  0  0  0  0  0  0  0  0  0  0
   59.1462   25.3490   46.7150 H   0  0  0  0  0  0  0  0  0  0  0  0
   60.2265   26.6209   46.0333 H   0  0  0  0  0  0  0  0  0  0  0  0
   58.4111   26.7771   48.4898 H   0  0  0  0  0  0  0  0  0  0  0  0
   60.1806   27.0781   48.3771 H   0  0  0  0  0  0  0  0  0  0  0  0
   59.4229   29.6964   49.4951 H   0  0  0  0  0  0  0  0  0  0  0  0
   57.5154   32.2929   48.7569 H   0  0  0  0  0  0  0  0  0  0  0  0
   59.2774   32.2964   49.1186 H   0  0  0  0  0  0  0  0  0  0  0  0
   60.6772   33.8268   47.9949 H   0  0  0  0  0  0  0  0  0  0  0  0
   59.3574   35.6667   44.3780 H   0  0  0  0  0  0  0  0  0  0  0  0
   57.2661   34.2891   44.4378 H   0  0  0  0  0  0  0  0  0  0  0  0
   58.9607   28.4516   44.4837 H   0  0  0  0  0  0  0  0  0  0  0  0
   56.1051   28.9811   45.2760 H   0  0  0  0  0  0  0  0  0  0  0  0
   57.0638   29.6117   43.8940 H   0  0  0  0  0  0  0  0  0  0  0  0
   56.5036   27.9050   43.8940 H   0  0  0  0  0  0  0  0  0  0  0  0
  1  2  1  0
  2  3  1  0
  3  4  1  0
  4  5  1  0
  5  6  2  0
  5  7  1  0
  7  8  2  0
  8  9  1  0
  9 10  2  0
 10 11  1  0
 11 12  1  0
 12 13  1  0
 13 14  1  0
 14 15  2  0
 15 16  1  0
 16 17  1  0
 17 18  1  0
 18 19  2  0
 19 20  1  0
 20 21  2  0
 21 22  1  0
 22 23  2  0
 16 24  1  0
 24 25  2  0
 25 26  1  0
 26 27  1  0
 10 28  1  0
 28 29  2  0
 29  7  1  0
 26 11  1  0
 25 14  1  0
 23 18  1  0
  1 30  1  0
  1 31  1  0
  1 32  1  0
  2 33  1  0
  2 34  1  0
  3 35  1  0
  3 36  1  0
  8 37  1  0
  9 38  1  0
 12 39  1  0
 12 40  1  0
 13 41  1  0
 13 42  1  0
 15 43  1  0
 17 44  1  0
 17 45  1  0
 19 46  1  0
 21 47  1  0
 22 48  1  0
 26 49  1  6
 27 50  1  0
 27 51  1  0
 27 52  1  0
M  CHG  1   4  -1
M  END
>  <UniqueID>  (21) 
17

>  <SMILES>  (21) 
CCC[N-]C(=O)c1ccc(N2CCc3cn(Cc4cnccn4)nc3[C@@H]2C)nn1

>  <Energy>  (21) 
93.8235172546493

>  <Genealogy>  (21) 
CCC[N-]C(=O)c1ccc(N2CCc3cn(Cc4cnccn4)nc3C2C)nn1 (protonated)
CCC[N-]C(=O)c1ccc(N2CCc3cn(Cc4cnccn4)nc3[C@@H]2C)nn1 (chirality)
CCC[N-]C(=O)c1ccc(N2CCc3cn(Cc4cnccn4)nc3[C@@H]2C)nn1 (3D coordinates assigned)
CCC[N-]C(=O)c1ccc(N2CCc3cn(Cc4cnccn4)nc3[C@@H]2C)nn1 (nonaromatic ring conformer: 93.8235172546493 kcal/mol)

>  <smiles>  (21) 
CCCNC(=O)c1ccc(N2CCc3cn(Cc4cnccn4)nc3C2C)nn1

>  <score_type>  (21) 
oracle

>  <origin>  (21) 
adg

>  <m_score__min__energy>  (21) 
-9.9800000000000004

>  <m_primary>  (21) 
energy

$$$$
21:0
     RDKit          3D

 53 56  0  0  0  0  0  0  0  0999 V2000
   56.2690   29.9210   43.4130 C   0  0  0  0  0  0  0  0  0  0  0  0
   57.0360   31.2150   43.6700 C   0  0  0  0  0  0  0  0  0  0  0  0
   57.2750   31.3900   45.1210 N   0  0  0  0  0  0  0  0  0  0  0  0
   58.6240   30.9130   45.5020 C   0  0  0  0  0  0  0  0  0  0  0  0
   58.7110   30.7150   47.0130 C   0  0  0  0  0  0  0  0  0  0  0  0
   57.0420   32.7900   45.5540 C   0  0  0  0  0  0  0  0  0  0  0  0
   57.9880   33.7330   44.8050 C   0  0  0  0  0  0  0  0  0  0  0  0
   58.6910   34.5960   45.7000 O   0  0  0  0  0  0  0  0  0  0  0  0
   59.7510   34.2160   46.5380 C   0  0  0  0  0  0  0  0  0  0  0  0
   61.0540   34.2000   45.9900 C   0  0  0  0  0  0  0  0  0  0  0  0
   62.1620   33.8190   46.7670 C   0  0  0  0  0  0  0  0  0  0  0  0
   61.9320   33.4540   48.0890 C   0  0  0  0  0  0  0  0  0  0  0  0
   62.7900   33.0450   49.0850 C   0  0  0  0  0  0  0  0  0  0  0  0
   64.1700   32.8490   49.0910 C   0  0  0  0  0  0  0  0  0  0  0  0
   64.7610   32.3910   50.2820 C   0  0  0  0  0  0  0  0  0  0  0  0
   63.9690   32.1370   51.4230 C   0  0  0  0  0  0  0  0  0  0  0  0
   62.5770   32.3420   51.3890 C   0  0  0  0  0  0  0  0  0  0  0  0
   62.0100   32.8130   50.2010 C   0  0  0  0  0  0  0  0  0  0  0  0
   60.7010   33.0590   49.9400 N   0  0  0  0  0  0  0  0  0  0  0  0
   59.5870   32.9120   50.8360 C   0  0  0  0  0  0  0  0  0  0  0  0
   59.3890   33.8330   51.8760 C   0  0  0  0  0  0  0  0  0  0  0  0
   58.3050   33.6880   52.7480 C   0  0  0  0  0  0  0  0  0  0  0  0
   57.4130   32.6240   52.5840 C   0  0  0  0  0  0  0  0  0  0  0  0
   57.6040   31.7040   51.5500 C   0  0  0  0  0  0  0  0  0  0  0  0
   58.6870   31.8460   50.6770 C   0  0  0  0  0  0  0  0  0  0  0  0
   60.6670   33.4520   48.6400 C   0  0  0  0  0  0  0  0  0  0  0  0
   59.5540   33.8490   47.8930 C   0  0  0  0  0  0  0  0  0  0  0  0
   55.9957   29.4598   44.3735 H   0  0  0  0  0  0  0  0  0  0  0  0
   55.3566   30.1432   42.8401 H   0  0  0  0  0  0  0  0  0  0  0  0
   56.9019   29.2272   42.8401 H   0  0  0  0  0  0  0  0  0  0  0  0
   58.0019   31.1749   43.1452 H   0  0  0  0  0  0  0  0  0  0  0  0
   56.4416   32.0634   43.2999 H   0  0  0  0  0  0  0  0  0  0  0  0
   58.8256   29.9558   44.9988 H   0  0  0  0  0  0  0  0  0  0  0  0
   59.3675   31.6641   45.1971 H   0  0  0  0  0  0  0  0  0  0  0  0
   58.3189   31.6073   47.5229 H   0  0  0  0  0  0  0  0  0  0  0  0
   58.1161   29.8362   47.3025 H   0  0  0  0  0  0  0  0  0  0  0  0
   59.7607   30.5588   47.3025 H   0  0  0  0  0  0  0  0  0  0  0  0
   56.0007   33.0702   45.3368 H   0  0  0  0  0  0  0  0  0  0  0  0
   57.2318   32.8706   46.6345 H   0  0  0  0  0  0  0  0  0  0  0  0
   58.7176   33.1327   44.2417 H   0  0  0  0  0  0  0  0  0  0  0  0
   57.3856   34.3573   44.1287 H   0  0  0  0  0  0  0  0  0  0  0  0
   61.2033   34.4901   44.9395 H   0  0  0  0  0  0  0  0  0  0  0  0
   63.1771   33.8099   46.3433 H   0  0  0  0  0  0  0  0  0  0  0  0
   64.7762   33.0459   48.1945 H   0  0  0  0  0  0  0  0  0  0  0  0
   65.8482   32.2294   50.3250 H   0  0  0  0  0  0  0  0  0  0  0  0
   64.4443   31.7756   52.3469 H   0  0  0  0  0  0  0  0  0  0  0  0
   61.9532   32.1375   52.2716 H   0  0  0  0  0  0  0  0  0  0  0  0
   60.0886   34.6718   52.0059 H   0  0  0  0  0  0  0  0  0  0  0  0
   58.1543   34.4113   53.5630 H   0  0  0  0  0  0  0  0  0  0  0  0
   56.5602   32.5111   53.2695 H   0  0  0  0  0  0  0  0  0  0  0  0
   56.9016   30.8671   51.4226 H   0  0  0  0  0  0  0  0  0  0  0  0
   58.8343   31.1206   49.8634 H   0  0  0  0  0  0  0  0  0  0  0  0
   58.5515   33.8759   48.3449 H   0  0  0  0  0  0  0  0  0  0  0  0
  1  2  1  0
  2  3  1  0
  3  4  1  0
  4  5  1  0
  3  6  1  0
  6  7  1  0
  7  8  1  0
  8  9  1  0
  9 10  2  0
 10 11  1  0
 11 12  2  0
 12 13  1  0
 13 14  2  0
 14 15  1  0
 15 16  2  0
 16 17  1  0
 17 18  2  0
 18 19  1  0
 19 20  1  0
 20 21  2  0
 21 22  1  0
 22 23  2  0
 23 24  1  0
 24 25  2  0
 19 26  1  0
 26 27  2  0
 27  9  1  0
 26 12  1  0
 18 13  1  0
 25 20  1  0
  1 28  1  0
  1 29  1  0
  1 30  1  0
  2 31  1  0
  2 32  1  0
  4 33  1  0
  4 34  1  0
  5 35  1  0
  5 36  1  0
  5 37  1  0
  6 38  1  0
  6 39  1  0
  7 40  1  0
  7 41  1  0
 10 42  1  0
 11 43  1  0
 14 44  1  0
 15 45  1  0
 16 46  1  0
 17 47  1  0
 21 48  1  0
 22 49  1  0
 23 50  1  0
 24 51  1  0
 25 52  1  0
 27 53  1  0
M  END
>  <UniqueID>  (22) 
18

>  <SMILES>  (22) 
CCN(CC)CCOc1ccc2c3ccccc3n(-c3ccccc3)c2c1

>  <Energy>  (22) 
102.08380766983625

>  <Genealogy>  (22) 
CCN(CC)CCOc1ccc2c3ccccc3n(-c3ccccc3)c2c1 (3D coordinates assigned)
CCN(CC)CCOc1ccc2c3ccccc3n(-c3ccccc3)c2c1 (optimized conformer: 102.08380766983625 kcal/mol)

>  <smiles>  (22) 
CCN(CC)CCOc1ccc2c3ccccc3n(-c3ccccc3)c2c1

>  <score_type>  (22) 
oracle

>  <origin>  (22) 
adg

>  <m_score__min__energy>  (22) 
-7.8300000000000001

>  <m_primary>  (22) 
energy

$$$$
22:0
     RDKit          3D

 43 46  0  0  0  0  0  0  0  0999 V2000
   58.0550   32.5870   42.7990 O   0  0  0  0  0  0  0  0  0  0  0  0
   57.6570   32.3480   43.9740 C   0  0  0  0  0  0  0  0  0  0  0  0
   56.6080   31.2840   44.1580 C   0  0  0  0  0  0  0  0  0  0  0  0
   57.2090   29.9500   44.1530 N   0  0  0  0  0  0  0  0  0  0  0  0
   57.0200   28.9660   43.2360 C   0  0  0  0  0  0  0  0  0  0  0  0
   57.8020   27.8710   43.4470 N   0  0  0  0  0  0  0  0  0  0  0  0
   58.5050   28.2100   44.5430 C   0  0  0  0  0  0  0  0  0  0  0  0
   59.4920   27.4820   45.1990 C   0  0  0  0  0  0  0  0  0  0  0  0
   60.1100   28.0890   46.3090 C   0  0  0  0  0  0  0  0  0  0  0  0
   59.7190   29.3910   46.7060 C   0  0  0  0  0  0  0  0  0  0  0  0
   58.7460   30.0640   46.0200 N   0  0  0  0  0  0  0  0  0  0  0  0
   58.1590   29.4550   44.9590 C   0  0  0  0  0  0  0  0  0  0  0  0
   58.2450   33.0660   45.0850 N   0  0  0  0  0  0  0  0  0  0  0  0
   57.7870   32.8850   46.4750 C   0  0  0  0  0  0  0  0  0  0  0  0
   58.9890   32.7890   47.4210 C   0  0  0  0  0  0  0  0  0  0  0  0
   59.9990   33.8150   47.1200 N   0  0  0  0  0  0  0  0  0  0  0  0
   61.2480   33.8160   47.8360 C   0  0  0  0  0  0  0  0  0  0  0  0
   62.4360   33.4280   47.1930 C   0  0  0  0  0  0  0  0  0  0  0  0
   63.6500   33.4320   47.8890 C   0  0  0  0  0  0  0  0  0  0  0  0
   63.6870   33.8190   49.2320 C   0  0  0  0  0  0  0  0  0  0  0  0
   64.8660   33.8330   49.9040 F   0  0  0  0  0  0  0  0  0  0  0  0
   62.5100   34.2010   49.8810 C   0  0  0  0  0  0  0  0  0  0  0  0
   61.2950   34.1990   49.1890 C   0  0  0  0  0  0  0  0  0  0  0  0
   59.7440   34.7980   46.0590 C   0  0  0  0  0  0  0  0  0  0  0  0
   59.2730   34.0800   44.7920 C   0  0  0  0  0  0  0  0  0  0  0  0
   56.0969   31.4449   45.1187 H   0  0  0  0  0  0  0  0  0  0  0  0
   55.8921   31.3494   43.3254 H   0  0  0  0  0  0  0  0  0  0  0  0
   56.3050   29.0457   42.4039 H   0  0  0  0  0  0  0  0  0  0  0  0
   59.7779   26.4739   44.8645 H   0  0  0  0  0  0  0  0  0  0  0  0
   60.8935   27.5540   46.8657 H   0  0  0  0  0  0  0  0  0  0  0  0
   60.2019   29.8649   47.5733 H   0  0  0  0  0  0  0  0  0  0  0  0
   57.1631   33.7428   46.7664 H   0  0  0  0  0  0  0  0  0  0  0  0
   57.2029   31.9553   46.5419 H   0  0  0  0  0  0  0  0  0  0  0  0
   58.6405   32.9240   48.4556 H   0  0  0  0  0  0  0  0  0  0  0  0
   59.4529   31.8005   47.2882 H   0  0  0  0  0  0  0  0  0  0  0  0
   62.4114   33.1197   46.1374 H   0  0  0  0  0  0  0  0  0  0  0  0
   64.5766   33.1302   47.3787 H   0  0  0  0  0  0  0  0  0  0  0  0
   62.5393   34.5038   50.9381 H   0  0  0  0  0  0  0  0  0  0  0  0
   60.3710   34.4985   49.7052 H   0  0  0  0  0  0  0  0  0  0  0  0
   58.9660   35.5011   46.3914 H   0  0  0  0  0  0  0  0  0  0  0  0
   60.6714   35.3483   45.8421 H   0  0  0  0  0  0  0  0  0  0  0  0
   58.8524   34.8226   44.0980 H   0  0  0  0  0  0  0  0  0  0  0  0
   60.1397   33.5684   44.3480 H   0  0  0  0  0  0  0  0  0  0  0  0
  1  2  2  0
  2  3  1  0
  3  4  1  0
  4  5  1  0
  5  6  2  0
  6  7  1  0
  7  8  2  0
  8  9  1  0
  9 10  2  0
 10 11  1  0
 11 12  2  0
  2 13  1  0
 13 14  1  0
 14 15  1  0
 15 16  1  0
 16 17  1  0
 17 18  2  0
 18 19  1  0
 19 20  2  0
 20 21  1  0
 20 22  1  0
 22 23  2  0
 16 24  1  0
 24 25  1  0
 12  4  1  0
 25 13  1  0
 12  7  1  0
 23 17  1  0
  3 26  1  0
  3 27  1  0
  5 28  1  0
  8 29  1  0
  9 30  1  0
 10 31  1  0
 14 32  1  0
 14 33  1  0
 15 34  1  0
 15 35  1  0
 18 36  1  0
 19 37  1  0
 22 38  1  0
 23 39  1  0
 24 40  1  0
 24 41  1  0
 25 42  1  0
 25 43  1  0
M  END
>  <UniqueID>  (23) 
19

>  <SMILES>  (23) 
O=C(Cn1cnc2cccnc21)N1CCN(c2ccc(F)cc2)CC1

>  <Energy>  (23) 
90.45466452256912

>  <Genealogy>  (23) 
O=C(Cn1cnc2cccnc21)N1CCN(c2ccc(F)cc2)CC1 (3D coordinates assigned)
O=C(Cn1cnc2cccnc21)N1CCN(c2ccc(F)cc2)CC1 (nonaromatic ring conformer: 90.45466452256912 kcal/mol)

>  <smiles>  (23) 
O=C(Cn1cnc2cccnc21)N1CCN(c2ccc(F)cc2)CC1

>  <score_type>  (23) 
oracle

>  <origin>  (23) 
adg

>  <m_score__min__energy>  (23) 
-7.3099999999999996

>  <m_primary>  (23) 
energy

$$$$
23:0
     RDKit          3D

 62 65  0  0  0  0  0  0  0  0999 V2000
   59.2410   34.9500   47.2060 C   0  0  0  0  0  0  0  0  0  0  0  0
   60.5330   34.3590   47.3470 O   0  0  0  0  0  0  0  0  0  0  0  0
   61.0860   33.9080   48.5540 C   0  0  0  0  0  0  0  0  0  0  0  0
   60.2600   33.4550   49.6030 C   0  0  0  0  0  0  0  0  0  0  0  0
   60.8080   33.0510   50.8280 C   0  0  0  0  0  0  0  0  0  0  0  0
   59.9100   32.4950   51.9090 C   0  0  1  0  0  0  0  0  0  0  0  0
   58.3410   33.4460   51.9660 S   0  0  0  0  0  0  0  0  0  0  0  0
   57.3350   32.0390   51.3800 C   0  0  0  0  0  0  0  0  0  0  0  0
   58.2260   30.8580   51.3450 C   0  0  0  0  0  0  0  0  0  0  0  0
   57.8060   29.7150   51.0170 O   0  0  0  0  0  0  0  0  0  0  0  0
   59.5890   31.0940   51.6630 N   0  0  0  0  0  0  0  0  0  0  0  0
   60.5780   30.0350   51.8470 C   0  0  0  0  0  0  0  0  0  0  0  0
   61.1550   29.6060   50.4890 C   0  0  0  0  0  0  0  0  0  0  0  0
   60.3450   28.4490   49.8480 C   0  0  0  0  0  0  0  0  0  0  0  0
   59.4990   28.8360   48.6890 N   0  0  2  0  0  0  0  0  0  0  0  0
   59.3100   27.7230   47.7310 C   0  0  0  0  0  0  0  0  0  0  0  0
   58.2080   28.0510   46.7130 C   0  0  0  0  0  0  0  0  0  0  0  0
   58.2710   29.4800   46.2250 C   0  0  0  0  0  0  0  0  0  0  0  0
   57.4300   29.8780   45.1750 C   0  0  0  0  0  0  0  0  0  0  0  0
   57.3870   31.2150   44.7670 C   0  0  0  0  0  0  0  0  0  0  0  0
   58.1900   32.1660   45.4010 C   0  0  0  0  0  0  0  0  0  0  0  0
   59.0390   31.7830   46.4380 C   0  0  0  0  0  0  0  0  0  0  0  0
   59.0640   30.4480   46.8810 C   0  0  0  0  0  0  0  0  0  0  0  0
   59.9950   30.0420   47.9940 C   0  0  0  0  0  0  0  0  0  0  0  0
   62.1970   33.0980   51.0060 C   0  0  0  0  0  0  0  0  0  0  0  0
   63.0410   33.5280   49.9650 C   0  0  0  0  0  0  0  0  0  0  0  0
   64.4370   33.5640   50.1110 O   0  0  0  0  0  0  0  0  0  0  0  0
   65.3040   32.4620   49.8560 C   0  0  0  0  0  0  0  0  0  0  0  0
   62.4910   33.9150   48.7300 C   0  0  0  0  0  0  0  0  0  0  0  0
   63.3970   34.2800   47.7170 O   0  0  0  0  0  0  0  0  0  0  0  0
   63.3730   33.8140   46.3710 C   0  0  0  0  0  0  0  0  0  0  0  0
   58.8161   35.1444   48.2018 H   0  0  0  0  0  0  0  0  0  0  0  0
   59.3294   35.8972   46.6538 H   0  0  0  0  0  0  0  0  0  0  0  0
   58.5822   34.2637   46.6538 H   0  0  0  0  0  0  0  0  0  0  0  0
   59.1702   33.4182   49.4579 H   0  0  0  0  0  0  0  0  0  0  0  0
   60.4485   32.5788   52.8645 H   0  0  0  0  0  0  0  0  0  0  0  0
   56.4969   31.8601   52.0696 H   0  0  0  0  0  0  0  0  0  0  0  0
   56.9138   32.2439   50.3847 H   0  0  0  0  0  0  0  0  0  0  0  0
   61.3923   30.4055   52.4871 H   0  0  0  0  0  0  0  0  0  0  0  0
   60.0926   29.1689   52.3205 H   0  0  0  0  0  0  0  0  0  0  0  0
   61.1384   30.4698   49.8081 H   0  0  0  0  0  0  0  0  0  0  0  0
   62.1816   29.2478   50.6560 H   0  0  0  0  0  0  0  0  0  0  0  0
   61.0569   27.6821   49.5088 H   0  0  0  0  0  0  0  0  0  0  0  0
   59.6534   28.0927   50.6257 H   0  0  0  0  0  0  0  0  0  0  0  0
   58.5600   29.0720   49.0910 H   0  0  0  0  0  0  0  0  0  0  0  0
   60.2539   27.5467   47.1944 H   0  0  0  0  0  0  0  0  0  0  0  0
   59.0111   26.8256   48.2925 H   0  0  0  0  0  0  0  0  0  0  0  0
   58.3159   27.3790   45.8488 H   0  0  0  0  0  0  0  0  0  0  0  0
   57.2395   27.9143   47.2163 H   0  0  0  0  0  0  0  0  0  0  0  0
   56.7994   29.1325   44.6686 H   0  0  0  0  0  0  0  0  0  0  0  0
   56.7203   31.5179   43.9462 H   0  0  0  0  0  0  0  0  0  0  0  0
   58.1523   33.2180   45.0817 H   0  0  0  0  0  0  0  0  0  0  0  0
   59.6933   32.5290   46.9128 H   0  0  0  0  0  0  0  0  0  0  0  0
   60.9886   29.8304   47.5721 H   0  0  0  0  0  0  0  0  0  0  0  0
   60.0510   30.8659   48.7207 H   0  0  0  0  0  0  0  0  0  0  0  0
   62.6325   32.7956   51.9698 H   0  0  0  0  0  0  0  0  0  0  0  0
   65.6418   32.0326   50.8107 H   0  0  0  0  0  0  0  0  0  0  0  0
   64.7638   31.6961   49.2802 H   0  0  0  0  0  0  0  0  0  0  0  0
   66.1756   32.8067   49.2802 H   0  0  0  0  0  0  0  0  0  0  0  0
   63.3164   32.7155   46.3643 H   0  0  0  0  0  0  0  0  0  0  0  0
   62.4951   34.2295   45.8547 H   0  0  0  0  0  0  0  0  0  0  0  0
   64.2890   34.1372   45.8547 H   0  0  0  0  0  0  0  0  0  0  0  0
  1  2  1  0
  2  3  1  0
  3  4  2  0
  4  5  1  0
  5  6  1  0
  6  7  1  0
  7  8  1  0
  8  9  1  0
  9 10  2  0
  9 11  1  0
 11 12  1  0
 12 13  1  0
 13 14  1  0
 14 15  1  0
 15 16  1  0
 16 17  1  0
 17 18  1  0
 18 19  2  0
 19 20  1  0
 20 21  2  0
 21 22  1  0
 22 23  2  0
 23 24  1  0
  5 25  2  0
 25 26  1  0
 26 27  1  0
 27 28  1  0
 26 29  2  0
 29 30  1  0
 30 31  1  0
 29  3  1  0
 11  6  1  0
 24 15  1  0
 23 18  1  0
  1 32  1  0
  1 33  1  0
  1 34  1  0
  4 35  1  0
  6 36  1  1
  8 37  1  0
  8 38  1  0
 12 39  1  0
 12 40  1  0
 13 41  1  0
 13 42  1  0
 14 43  1  0
 14 44  1  0
 15 45  1  1
 16 46  1  0
 16 47  1  0
 17 48  1  0
 17 49  1  0
 19 50  1  0
 20 51  1  0
 21 52  1  0
 22 53  1  0
 24 54  1  0
 24 55  1  0
 25 56  1  0
 28 57  1  0
 28 58  1  0
 28 59  1  0
 31 60  1  0
 31 61  1  0
 31 62  1  0
M  CHG  1  15   1
M  END
>  <UniqueID>  (24) 
20

>  <SMILES>  (24) 
COc1cc([C@H]2SCC(=O)N2CCC[N@@H+]2CCc3ccccc3C2)cc(OC)c1OC

>  <Energy>  (24) 
68.33312041264281

>  <Genealogy>  (24) 
COc1cc(C2SCC(=O)N2CCC[NH+]2CCc3ccccc3C2)cc(OC)c1OC (protonated)
COc1cc([C@H]2SCC(=O)N2CCC[N@@H+]2CCc3ccccc3C2)cc(OC)c1OC (chirality)
COc1cc([C@H]2SCC(=O)N2CCC[N@@H+]2CCc3ccccc3C2)cc(OC)c1OC (3D coordinates assigned)
COc1cc([C@H]2SCC(=O)N2CCC[N@@H+]2CCc3ccccc3C2)cc(OC)c1OC (nonaromatic ring conformer: 68.33312041264281 kcal/mol)

>  <smiles>  (24) 
COc1cc(C2SCC(=O)N2CCCN2CCc3ccccc3C2)cc(OC)c1OC

>  <score_type>  (24) 
oracle

>  <origin>  (24) 
adg

>  <m_score__min__energy>  (24) 
-7.0499999999999998

>  <m_primary>  (24) 
energy

$$$$
24:0
     RDKit          3D

 23 25  0  0  0  0  0  0  0  0999 V2000
   60.0200   34.5830   48.2940 C   0  0  0  0  0  0  0  0  0  0  0  0
   59.2870   35.1380   46.7240 S   0  0  0  0  0  0  0  0  0  0  0  0
   58.7850   33.4890   46.2440 C   0  0  0  0  0  0  0  0  0  0  0  0
   59.5640   32.3350   46.3970 C   0  0  0  0  0  0  0  0  0  0  0  0
   58.9100   31.2490   45.9370 N   0  0  0  0  0  0  0  0  0  0  0  0
   59.1350   29.9380   45.8260 C   0  0  0  0  0  0  0  0  0  0  0  0
   57.9810   29.4140   45.2360 C   0  0  0  0  0  0  0  0  0  0  0  0
   57.7510   27.9990   44.9090 C   0  0  0  0  0  0  0  0  0  0  0  0
   58.1400   27.3460   43.7450 C   0  0  0  0  0  0  0  0  0  0  0  0
   57.7760   25.9930   43.7250 C   0  0  0  0  0  0  0  0  0  0  0  0
   57.1030   25.5780   44.8670 C   0  0  0  0  0  0  0  0  0  0  0  0
   56.9590   26.8950   45.9020 S   0  0  0  0  0  0  0  0  0  0  0  0
   57.0640   30.3960   44.9940 N   0  0  0  0  0  0  0  0  0  0  0  0
   57.7090   31.4840   45.4500 C   0  0  0  0  0  0  0  0  0  0  0  0
   57.2780   33.1030   45.5210 S   0  0  0  0  0  0  0  0  0  0  0  0
   59.4542   35.0114   49.1345 H   0  0  0  0  0  0  0  0  0  0  0  0
   59.9823   33.4850   48.3484 H   0  0  0  0  0  0  0  0  0  0  0  0
   61.0666   34.9171   48.3484 H   0  0  0  0  0  0  0  0  0  0  0  0
   60.5735   32.3170   46.8336 H   0  0  0  0  0  0  0  0  0  0  0  0
   60.0363   29.3873   46.1333 H   0  0  0  0  0  0  0  0  0  0  0  0
   58.6786   27.8410   42.9235 H   0  0  0  0  0  0  0  0  0  0  0  0
   58.0022   25.3220   42.8832 H   0  0  0  0  0  0  0  0  0  0  0  0
   56.7285   24.5620   45.0609 H   0  0  0  0  0  0  0  0  0  0  0  0
  1  2  1  0
  2  3  1  0
  3  4  2  0
  4  5  1  0
  5  6  1  0
  6  7  2  0
  7  8  1  0
  8  9  2  0
  9 10  1  0
 10 11  2  0
 11 12  1  0
  7 13  1  0
 13 14  2  0
 14 15  1  0
 15  3  1  0
 14  5  1  0
 12  8  1  0
  1 16  1  0
  1 17  1  0
  1 18  1  0
  4 19  1  0
  6 20  1  0
  9 21  1  0
 10 22  1  0
 11 23  1  0
M  END
>  <UniqueID>  (25) 
21

>  <SMILES>  (25) 
CSc1cn2cc(-c3cccs3)nc2s1

>  <Energy>  (25) 
124.95987465752147

>  <Genealogy>  (25) 
CSc1cn2cc(-c3cccs3)nc2s1 (3D coordinates assigned)
CSc1cn2cc(-c3cccs3)nc2s1 (optimized conformer: 124.95987465752147 kcal/mol)

>  <smiles>  (25) 
CSc1cn2cc(-c3cccs3)nc2s1

>  <score_type>  (25) 
oracle

>  <origin>  (25) 
adg

>  <m_score__min__energy>  (25) 
-5.6699999999999999

>  <m_primary>  (25) 
energy

$$$$
25:0
     RDKit          3D

 44 48  0  0  0  0  0  0  0  0999 V2000
   56.5740   26.8630   45.3360 O   0  0  0  0  0  0  0  0  0  0  0  0
   56.6580   28.1020   45.5400 C   0  0  0  0  0  0  0  0  0  0  0  0
   55.5510   28.9320   45.1630 N   0  0  0  0  0  0  0  0  0  0  0  0
   55.4650   29.7150   43.9370 C   0  0  0  0  0  0  0  0  0  0  0  0
   56.6430   29.4820   43.0110 C   0  0  0  0  0  0  0  0  0  0  0  0
   56.5430   30.7740   43.8080 C   0  0  0  0  0  0  0  0  0  0  0  0
   57.8900   28.6430   46.1540 C   0  0  0  0  0  0  0  0  0  0  0  0
   58.7320   29.5800   45.5580 C   0  0  0  0  0  0  0  0  0  0  0  0
   59.6930   29.8460   46.4510 N   0  0  0  0  0  0  0  0  0  0  0  0
   59.4030   29.1470   47.5340 C   0  0  0  0  0  0  0  0  0  0  0  0
   58.2850   28.4050   47.4320 N   0  0  0  0  0  0  0  0  0  0  0  0
   59.9970   29.7520   48.6960 C   0  0  0  0  0  0  0  0  0  0  0  0
   59.9720   29.3590   50.0280 C   0  0  0  0  0  0  0  0  0  0  0  0
   60.6840   30.1340   50.9520 C   0  0  0  0  0  0  0  0  0  0  0  0
   61.3870   31.2780   50.5300 C   0  0  0  0  0  0  0  0  0  0  0  0
   61.3790   31.6880   49.1820 C   0  0  0  0  0  0  0  0  0  0  0  0
   62.0940   32.8540   48.8570 O   0  0  0  0  0  0  0  0  0  0  0  0
   61.5530   34.1530   48.6100 C   0  0  0  0  0  0  0  0  0  0  0  0
   60.4320   34.1110   47.6010 C   0  0  0  0  0  0  0  0  0  0  0  0
   60.6870   34.2990   46.2310 C   0  0  0  0  0  0  0  0  0  0  0  0
   59.6460   34.2210   45.3010 C   0  0  0  0  0  0  0  0  0  0  0  0
   58.3470   33.9330   45.7280 C   0  0  0  0  0  0  0  0  0  0  0  0
   58.0880   33.7140   47.0830 C   0  0  0  0  0  0  0  0  0  0  0  0
   56.8310   33.4190   47.4940 F   0  0  0  0  0  0  0  0  0  0  0  0
   59.1280   33.7910   48.0160 C   0  0  0  0  0  0  0  0  0  0  0  0
   60.6660   30.8920   48.2570 C   0  0  0  0  0  0  0  0  0  0  0  0
   60.4860   31.0300   46.7550 C   0  0  0  0  0  0  0  0  0  0  0  0
   54.3699   29.7098   43.8339 H   0  0  0  0  0  0  0  0  0  0  0  0
   57.4066   28.7336   43.2696 H   0  0  0  0  0  0  0  0  0  0  0  0
   56.7584   29.2312   41.9462 H   0  0  0  0  0  0  0  0  0  0  0  0
   57.2342   30.9603   44.6432 H   0  0  0  0  0  0  0  0  0  0  0  0
   56.5560   31.8453   43.5589 H   0  0  0  0  0  0  0  0  0  0  0  0
   58.6276   30.0148   44.5530 H   0  0  0  0  0  0  0  0  0  0  0  0
   59.4112   28.4680   50.3468 H   0  0  0  0  0  0  0  0  0  0  0  0
   60.6939   29.8470   52.0138 H   0  0  0  0  0  0  0  0  0  0  0  0
   61.9544   31.8641   51.2679 H   0  0  0  0  0  0  0  0  0  0  0  0
   61.1665   34.5632   49.5547 H   0  0  0  0  0  0  0  0  0  0  0  0
   62.3555   34.7857   48.2030 H   0  0  0  0  0  0  0  0  0  0  0  0
   61.7113   34.5086   45.8891 H   0  0  0  0  0  0  0  0  0  0  0  0
   59.8496   34.3864   44.2327 H   0  0  0  0  0  0  0  0  0  0  0  0
   57.5275   33.8787   44.9962 H   0  0  0  0  0  0  0  0  0  0  0  0
   58.9238   33.6001   49.0799 H   0  0  0  0  0  0  0  0  0  0  0  0
   59.9459   31.9531   46.4975 H   0  0  0  0  0  0  0  0  0  0  0  0
   61.4293   31.0961   46.1930 H   0  0  0  0  0  0  0  0  0  0  0  0
  1  2  2  0
  2  3  1  0
  3  4  1  0
  4  5  1  0
  5  6  1  0
  2  7  1  0
  7  8  2  0
  8  9  1  0
  9 10  1  0
 10 11  2  0
 10 12  1  0
 12 13  2  0
 13 14  1  0
 14 15  2  0
 15 16  1  0
 16 17  1  0
 17 18  1  0
 18 19  1  0
 19 20  2  0
 20 21  1  0
 21 22  2  0
 22 23  1  0
 23 24  1  0
 23 25  2  0
 16 26  2  0
 26 27  1  0
  6  4  1  0
 11  7  1  0
 26 12  1  0
 27  9  1  0
 25 19  1  0
  4 28  1  0
  5 29  1  0
  5 30  1  0
  6 31  1  0
  6 32  1  0
  8 33  1  0
 13 34  1  0
 14 35  1  0
 15 36  1  0
 18 37  1  0
 18 38  1  0
 20 39  1  0
 21 40  1  0
 22 41  1  0
 25 42  1  0
 27 43  1  0
 27 44  1  0
M  CHG  1   3  -1
M  END
>  <UniqueID>  (26) 
22

>  <SMILES>  (26) 
O=C([N-]C1CC1)c1cn2c(n1)-c1cccc(OCc3cccc(F)c3)c1C2

>  <Energy>  (26) 
386.21243696843567

>  <Genealogy>  (26) 
O=C([N-]C1CC1)c1cn2c(n1)-c1cccc(OCc3cccc(F)c3)c1C2 (protonated)
O=C([N-]C1CC1)c1cn2c(n1)-c1cccc(OCc3cccc(F)c3)c1C2 (3D coordinates assigned)
O=C([N-]C1CC1)c1cn2c(n1)-c1cccc(OCc3cccc(F)c3)c1C2 (nonaromatic ring conformer: 386.21243696843567 kcal/mol)

>  <smiles>  (26) 
O=C(NC1CC1)c1cn2c(n1)-c1cccc(OCc3cccc(F)c3)c1C2

>  <score_type>  (26) 
oracle

>  <origin>  (26) 
adg

>  <m_score__min__energy>  (26) 
-9.6400000000000006

>  <m_primary>  (26) 
energy

$$$$
26:0
     RDKit          3D

 59 62  0  0  0  0  0  0  0  0999 V2000
   51.7160   23.3550   45.2080 C   0  0  0  0  0  0  0  0  0  0  0  0
   52.9540   22.6480   45.2550 O   0  0  0  0  0  0  0  0  0  0  0  0
   54.1910   23.2350   45.5630 C   0  0  0  0  0  0  0  0  0  0  0  0
   54.7010   23.2810   46.8730 C   0  0  0  0  0  0  0  0  0  0  0  0
   55.9450   23.8670   47.1290 C   0  0  0  0  0  0  0  0  0  0  0  0
   56.7070   24.4130   46.0790 C   0  0  0  0  0  0  0  0  0  0  0  0
   58.0100   25.0620   46.3520 C   0  0  0  0  0  0  0  0  0  0  0  0
   59.0080   24.8140   45.6200 O   0  0  0  0  0  0  0  0  0  0  0  0
   58.1490   25.9930   47.4370 N   0  0  0  0  0  0  0  0  0  0  0  0
   58.6460   27.3300   47.2510 C   0  0  0  0  0  0  0  0  0  0  0  0
   58.3370   28.0590   46.0930 C   0  0  0  0  0  0  0  0  0  0  0  0
   58.6970   29.4110   45.9790 C   0  0  0  0  0  0  0  0  0  0  0  0
   58.2540   30.2000   44.8650 N   0  0  0  0  0  0  0  0  0  0  0  0
   57.5180   31.4260   44.9880 C   0  0  0  0  0  0  0  0  0  0  0  0
   56.2880   31.4300   44.7110 O   0  0  0  0  0  0  0  0  0  0  0  0
   58.1750   32.6850   45.4180 C   0  0  0  0  0  0  0  0  0  0  0  0
   58.5340   33.6590   44.4720 C   0  0  0  0  0  0  0  0  0  0  0  0
   59.2210   34.8090   44.8670 C   0  0  0  0  0  0  0  0  0  0  0  0
   59.5560   34.9970   46.2080 C   0  0  0  0  0  0  0  0  0  0  0  0
   59.1920   34.0410   47.1660 C   0  0  0  0  0  0  0  0  0  0  0  0
   59.6060   34.2330   48.5940 C   0  0  0  0  0  0  0  0  0  0  0  0
   58.4990   32.8870   46.7680 C   0  0  0  0  0  0  0  0  0  0  0  0
   59.4580   30.0090   46.9880 C   0  0  0  0  0  0  0  0  0  0  0  0
   59.7750   29.2950   48.1560 C   0  0  0  0  0  0  0  0  0  0  0  0
   60.5070   29.9640   49.2570 C   0  0  0  0  0  0  0  0  0  0  0  0
   59.8850   30.2960   50.3010 O   0  0  0  0  0  0  0  0  0  0  0  0
   61.9020   30.2830   49.1540 N   0  0  0  0  0  0  0  0  0  0  0  0
   62.4510   31.4850   48.5930 C   0  0  0  0  0  0  0  0  0  0  0  0
   61.9590   31.9520   47.3670 C   0  0  0  0  0  0  0  0  0  0  0  0
   62.4810   33.1160   46.7930 C   0  0  0  0  0  0  0  0  0  0  0  0
   63.4870   33.8310   47.4490 C   0  0  0  0  0  0  0  0  0  0  0  0
   63.9650   33.3870   48.6840 C   0  0  0  0  0  0  0  0  0  0  0  0
   63.4440   32.2250   49.2600 C   0  0  0  0  0  0  0  0  0  0  0  0
   59.3650   27.9560   48.2790 C   0  0  0  0  0  0  0  0  0  0  0  0
   56.1870   24.3790   44.7740 C   0  0  0  0  0  0  0  0  0  0  0  0
   54.9430   23.7910   44.5220 C   0  0  0  0  0  0  0  0  0  0  0  0
   51.3681   23.5537   46.2324 H   0  0  0  0  0  0  0  0  0  0  0  0
   51.8580   24.3082   44.6777 H   0  0  0  0  0  0  0  0  0  0  0  0
   50.9672   22.7483   44.6777 H   0  0  0  0  0  0  0  0  0  0  0  0
   54.1177   22.8533   47.7017 H   0  0  0  0  0  0  0  0  0  0  0  0
   56.3307   23.9014   48.1586 H   0  0  0  0  0  0  0  0  0  0  0  0
   57.8020   25.7060   48.3790 H   0  0  0  0  0  0  0  0  0  0  0  0
   57.8067   27.5657   45.2651 H   0  0  0  0  0  0  0  0  0  0  0  0
   58.2724   33.5152   43.4133 H   0  0  0  0  0  0  0  0  0  0  0  0
   59.4982   35.5673   44.1199 H   0  0  0  0  0  0  0  0  0  0  0  0
   60.1074   35.8981   46.5144 H   0  0  0  0  0  0  0  0  0  0  0  0
   58.8111   33.8643   49.2590 H   0  0  0  0  0  0  0  0  0  0  0  0
   60.5332   33.6730   48.7854 H   0  0  0  0  0  0  0  0  0  0  0  0
   59.7775   35.3026   48.7854 H   0  0  0  0  0  0  0  0  0  0  0  0
   58.2085   32.1371   47.5185 H   0  0  0  0  0  0  0  0  0  0  0  0
   59.8104   31.0439   46.8669 H   0  0  0  0  0  0  0  0  0  0  0  0
   61.1580   31.4004   46.8531 H   0  0  0  0  0  0  0  0  0  0  0  0
   62.0991   33.4692   45.8238 H   0  0  0  0  0  0  0  0  0  0  0  0
   63.9017   34.7422   46.9932 H   0  0  0  0  0  0  0  0  0  0  0  0
   64.7524   33.9525   49.2039 H   0  0  0  0  0  0  0  0  0  0  0  0
   63.8124   31.8874   50.2400 H   0  0  0  0  0  0  0  0  0  0  0  0
   59.6109   27.3933   49.1916 H   0  0  0  0  0  0  0  0  0  0  0  0
   56.7620   24.8177   43.9451 H   0  0  0  0  0  0  0  0  0  0  0  0
   54.5516   23.7654   43.4943 H   0  0  0  0  0  0  0  0  0  0  0  0
  1  2  1  0
  2  3  1  0
  3  4  2  0
  4  5  1  0
  5  6  2  0
  6  7  1  0
  7  8  2  0
  7  9  1  0
  9 10  1  0
 10 11  2  0
 11 12  1  0
 12 13  1  0
 13 14  1  0
 14 15  2  0
 14 16  1  0
 16 17  2  0
 17 18  1  0
 18 19  2  0
 19 20  1  0
 20 21  1  0
 20 22  2  0
 12 23  2  0
 23 24  1  0
 24 25  1  0
 25 26  2  0
 25 27  1  0
 27 28  1  0
 28 29  2  0
 29 30  1  0
 30 31  2  0
 31 32  1  0
 32 33  2  0
 24 34  2  0
  6 35  1  0
 35 36  2  0
 36  3  1  0
 34 10  1  0
 22 16  1  0
 33 28  1  0
  1 37  1  0
  1 38  1  0
  1 39  1  0
  4 40  1  0
  5 41  1  0
  9 42  1  0
 11 43  1  0
 17 44  1  0
 18 45  1  0
 19 46  1  0
 21 47  1  0
 21 48  1  0
 21 49  1  0
 22 50  1  0
 23 51  1  0
 29 52  1  0
 30 53  1  0
 31 54  1  0
 32 55  1  0
 33 56  1  0
 34 57  1  0
 35 58  1  0
 36 59  1  0
M  CHG  2  13  -1  27  -1
M  END
>  <UniqueID>  (27) 
23

>  <SMILES>  (27) 
COc1ccc(C(=O)Nc2cc([N-]C(=O)c3cccc(C)c3)cc(C(=O)[N-]c3ccccc3)c2)cc1

>  <Energy>  (27) 
79.44612627610523

>  <Genealogy>  (27) 
COc1ccc(C(=O)Nc2cc([N-]C(=O)c3cccc(C)c3)cc(C(=O)[N-]c3ccccc3)c2)cc1 (protonated)
COc1ccc(C(=O)Nc2cc([N-]C(=O)c3cccc(C)c3)cc(C(=O)[N-]c3ccccc3)c2)cc1 (3D coordinates assigned)
COc1ccc(C(=O)Nc2cc([N-]C(=O)c3cccc(C)c3)cc(C(=O)[N-]c3ccccc3)c2)cc1 (optimized conformer: 79.44612627610523 kcal/mol)

>  <smiles>  (27) 
COc1ccc(C(=O)Nc2cc(NC(=O)c3cccc(C)c3)cc(C(=O)Nc3ccccc3)c2)cc1

>  <score_type>  (27) 
oracle

>  <origin>  (27) 
adg

>  <m_score__min__energy>  (27) 
-13.31

>  <m_primary>  (27) 
energy

$$$$
27:0
     RDKit          3D

 43 45  0  0  0  0  0  0  0  0999 V2000
   57.9031   30.1279   48.5482 H   0  0  0  0  0  0  0  0  0  0  0  0
   58.9020   29.9050   48.1450 C   0  0  0  0  0  0  0  0  0  0  0  0
   59.9680   30.3250   48.8370 C   0  0  0  0  0  0  0  0  0  0  0  0
   60.1637   29.8988   49.8320 H   0  0  0  0  0  0  0  0  0  0  0  0
   60.9070   31.3680   48.2860 C   0  0  0  0  0  0  0  0  0  0  0  0
   60.7760   31.4223   47.1952 H   0  0  0  0  0  0  0  0  0  0  0  0
   61.9332   31.0734   48.5508 H   0  0  0  0  0  0  0  0  0  0  0  0
   60.6530   32.7110   48.8660 N   0  0  0  0  0  0  0  0  0  0  0  0
   61.0830   32.7140   49.8230 H   0  0  0  0  0  0  0  0  0  0  0  0
   59.2130   33.0130   49.0430 C   0  0  0  0  0  0  0  0  0  0  0  0
   59.1120   33.9959   49.5264 H   0  0  0  0  0  0  0  0  0  0  0  0
   58.7708   32.2202   49.6641 H   0  0  0  0  0  0  0  0  0  0  0  0
   58.4680   33.0400   47.7010 C   0  0  0  0  0  0  0  0  0  0  0  0
   57.5290   33.5998   47.8230 H   0  0  0  0  0  0  0  0  0  0  0  0
   58.2643   32.0034   47.3945 H   0  0  0  0  0  0  0  0  0  0  0  0
   59.2770   33.6830   46.6580 N   0  0  0  0  0  0  0  0  0  0  0  0
   58.6900   33.8970   45.3620 C   0  0  0  0  0  0  0  0  0  0  0  0
   58.6790   35.0580   44.8690 O   0  0  0  0  0  0  0  0  0  0  0  0
   58.0930   32.7960   44.5890 C   0  0  0  0  0  0  0  0  0  0  0  0
   57.3820   31.8340   45.1310 O   0  0  0  0  0  0  0  0  0  0  0  0
   56.9780   31.0280   44.1770 C   0  0  0  0  0  0  0  0  0  0  0  0
   55.9130   29.4740   44.4650 Br  0  0  0  0  0  0  0  0  0  0  0  0
   57.4330   31.4740   42.9550 C   0  0  0  0  0  0  0  0  0  0  0  0
   57.2587   31.0104   41.9728 H   0  0  0  0  0  0  0  0  0  0  0  0
   58.1510   32.6200   43.2170 C   0  0  0  0  0  0  0  0  0  0  0  0
   58.6645   33.2627   42.4868 H   0  0  0  0  0  0  0  0  0  0  0  0
   60.4360   34.4940   47.0490 C   0  0  0  0  0  0  0  0  0  0  0  0
   60.0764   35.4338   47.4934 H   0  0  0  0  0  0  0  0  0  0  0  0
   61.0363   34.6803   46.1462 H   0  0  0  0  0  0  0  0  0  0  0  0
   61.3390   33.7710   48.0770 C   0  0  0  0  0  0  0  0  0  0  0  0
   61.7300   34.5224   48.7788 H   0  0  0  0  0  0  0  0  0  0  0  0
   62.1288   33.2683   47.4995 H   0  0  0  0  0  0  0  0  0  0  0  0
   58.9870   29.1570   46.8670 C   0  0  0  0  0  0  0  0  0  0  0  0
   59.6980   29.6430   45.7510 C   0  0  0  0  0  0  0  0  0  0  0  0
   60.2069   30.6166   45.8073 H   0  0  0  0  0  0  0  0  0  0  0  0
   59.7590   28.8920   44.5720 C   0  0  0  0  0  0  0  0  0  0  0  0
   60.3090   29.2806   43.7022 H   0  0  0  0  0  0  0  0  0  0  0  0
   59.1240   27.6510   44.4960 C   0  0  0  0  0  0  0  0  0  0  0  0
   59.1700   27.0657   43.5658 H   0  0  0  0  0  0  0  0  0  0  0  0
   58.4310   27.1530   45.6000 C   0  0  0  0  0  0  0  0  0  0  0  0
   57.9352   26.1728   45.5410 H   0  0  0  0  0  0  0  0  0  0  0  0
   58.3660   27.8990   46.7820 C   0  0  0  0  0  0  0  0  0  0  0  0
   57.8247   27.4978   47.6515 H   0  0  0  0  0  0  0  0  0  0  0  0
  1  2  1  0
  2  3  2  0
  3  4  1  0
  3  5  1  0
  5  6  1  0
  5  7  1  0
  5  8  1  0
  8  9  1  0
  8 10  1  0
 10 11  1  0
 10 12  1  0
 10 13  1  0
 13 14  1  0
 13 15  1  0
 13 16  1  0
 16 17  1  0
 17 18  2  0
 17 19  1  0
 19 20  1  0
 20 21  1  0
 21 22  1  0
 21 23  2  0
 23 24  1  0
 23 25  1  0
 25 26  1  0
 16 27  1  0
 27 28  1  0
 27 29  1  0
 27 30  1  0
 30 31  1  0
 30 32  1  0
  2 33  1  0
 33 34  2  0
 34 35  1  0
 34 36  1  0
 36 37  1  0
 36 38  2  0
 38 39  1  0
 38 40  1  0
 40 41  1  0
 40 42  2  0
 42 43  1  0
 30  8  1  0
 42 33  1  0
 25 19  2  0
M  CHG  1   8   1
M  END
>  <UniqueID>  (28) 
24

>  <SMILES>  (28) 
O=C(c1ccc(Br)o1)N1CC[NH+](C/C=C/c2ccccc2)CC1

>  <Energy>  (28) 
83.60354863795877

>  <Genealogy>  (28) 
O=C(c1ccc(Br)o1)N1CC[NH+](CC=Cc2ccccc2)CC1 (protonated)
O=C(c1ccc(Br)o1)N1CC[NH+](C/C=C/c2ccccc2)CC1 (cis-trans isomerization)
O=C(c1ccc(Br)o1)N1CC[NH+](C/C=C/c2ccccc2)CC1 (3D coordinates assigned)
O=C(c1ccc(Br)o1)N1CC[NH+](C/C=C/c2ccccc2)CC1 (nonaromatic ring conformer: 83.60354863795877 kcal/mol)

>  <smiles>  (28) 
O=C(c1ccc(Br)o1)N1CCN(CC=Cc2ccccc2)CC1

>  <score_type>  (28) 
oracle

>  <origin>  (28) 
adg

>  <m_score__min__energy>  (28) 
-6

>  <m_primary>  (28) 
energy

$$$$
28:0
     RDKit          3D

 45 47  0  0  0  0  0  0  0  0999 V2000
   55.7190   30.8550   52.1010 C   0  0  0  0  0  0  0  0  0  0  0  0
   56.9790   30.4400   51.5880 O   0  0  0  0  0  0  0  0  0  0  0  0
   57.8710   31.3220   50.9700 C   0  0  0  0  0  0  0  0  0  0  0  0
   57.9450   32.5180   51.3610 O   0  0  0  0  0  0  0  0  0  0  0  0
   58.7300   30.8280   49.8730 C   0  0  0  0  0  0  0  0  0  0  0  0
   58.8540   29.4880   49.5560 C   0  0  0  0  0  0  0  0  0  0  0  0
   59.7030   29.4180   48.4710 C   0  0  0  0  0  0  0  0  0  0  0  0
   60.0530   28.1750   47.7570 C   0  0  0  0  0  0  0  0  0  0  0  0
   60.7080   27.2850   48.3610 O   0  0  0  0  0  0  0  0  0  0  0  0
   59.6780   27.9540   46.3920 N   0  0  0  0  0  0  0  0  0  0  0  0
   58.7520   28.7510   45.6400 C   0  0  0  0  0  0  0  0  0  0  0  0
   59.2390   29.8130   44.8690 C   0  0  0  0  0  0  0  0  0  0  0  0
   58.3610   30.6070   44.1240 C   0  0  0  0  0  0  0  0  0  0  0  0
   56.9920   30.3320   44.1310 C   0  0  0  0  0  0  0  0  0  0  0  0
   56.4990   29.2560   44.8740 C   0  0  0  0  0  0  0  0  0  0  0  0
   55.1730   28.9740   44.8620 F   0  0  0  0  0  0  0  0  0  0  0  0
   57.3730   28.4640   45.6250 C   0  0  0  0  0  0  0  0  0  0  0  0
   60.0970   30.7180   48.1830 C   0  0  0  0  0  0  0  0  0  0  0  0
   61.0890   31.1220   47.1250 C   0  0  0  0  0  0  0  0  0  0  0  0
   59.4850   31.5830   49.0320 N   0  0  0  0  0  0  0  0  0  0  0  0
   59.5540   33.0510   48.9710 C   0  0  0  0  0  0  0  0  0  0  0  0
   59.0530   33.5620   47.6430 C   0  0  0  0  0  0  0  0  0  0  0  0
   59.8260   34.4680   46.8940 C   0  0  0  0  0  0  0  0  0  0  0  0
   59.3730   34.9210   45.6510 C   0  0  0  0  0  0  0  0  0  0  0  0
   58.1550   34.4670   45.1410 C   0  0  0  0  0  0  0  0  0  0  0  0
   57.3900   33.5520   45.8680 C   0  0  0  0  0  0  0  0  0  0  0  0
   57.8370   33.0970   47.1120 C   0  0  0  0  0  0  0  0  0  0  0  0
   55.7495   30.8450   53.2005 H   0  0  0  0  0  0  0  0  0  0  0  0
   55.4975   31.8736   51.7496 H   0  0  0  0  0  0  0  0  0  0  0  0
   54.9356   30.1674   51.7496 H   0  0  0  0  0  0  0  0  0  0  0  0
   58.3705   28.6433   50.0685 H   0  0  0  0  0  0  0  0  0  0  0  0
   60.3183   30.0243   44.8489 H   0  0  0  0  0  0  0  0  0  0  0  0
   58.7493   31.4489   43.5320 H   0  0  0  0  0  0  0  0  0  0  0  0
   56.3015   30.9624   43.5516 H   0  0  0  0  0  0  0  0  0  0  0  0
   56.9828   27.6149   46.2054 H   0  0  0  0  0  0  0  0  0  0  0  0
   62.0056   31.4953   47.6052 H   0  0  0  0  0  0  0  0  0  0  0  0
   61.3319   30.2511   46.4984 H   0  0  0  0  0  0  0  0  0  0  0  0
   60.6544   31.9148   46.4984 H   0  0  0  0  0  0  0  0  0  0  0  0
   58.9346   33.4738   49.7758 H   0  0  0  0  0  0  0  0  0  0  0  0
   60.6037   33.3573   49.0905 H   0  0  0  0  0  0  0  0  0  0  0  0
   60.7904   34.8214   47.2877 H   0  0  0  0  0  0  0  0  0  0  0  0
   59.9773   35.6364   45.0739 H   0  0  0  0  0  0  0  0  0  0  0  0
   57.7977   34.8302   44.1661 H   0  0  0  0  0  0  0  0  0  0  0  0
   56.4346   33.1890   45.4612 H   0  0  0  0  0  0  0  0  0  0  0  0
   57.2344   32.3716   47.6782 H   0  0  0  0  0  0  0  0  0  0  0  0
  1  2  1  0
  2  3  1  0
  3  4  2  0
  3  5  1  0
  5  6  2  0
  6  7  1  0
  7  8  1  0
  8  9  2  0
  8 10  1  0
 10 11  1  0
 11 12  2  0
 12 13  1  0
 13 14  2  0
 14 15  1  0
 15 16  1  0
 15 17  2  0
  7 18  2  0
 18 19  1  0
 18 20  1  0
 20 21  1  0
 21 22  1  0
 22 23  2  0
 23 24  1  0
 24 25  2  0
 25 26  1  0
 26 27  2  0
 20  5  1  0
 27 22  1  0
 17 11  1  0
  1 28  1  0
  1 29  1  0
  1 30  1  0
  6 31  1  0
 12 32  1  0
 13 33  1  0
 14 34  1  0
 17 35  1  0
 19 36  1  0
 19 37  1  0
 19 38  1  0
 21 39  1  0
 21 40  1  0
 23 41  1  0
 24 42  1  0
 25 43  1  0
 26 44  1  0
 27 45  1  0
M  CHG  1  10  -1
M  END
>  <UniqueID>  (29) 
25

>  <SMILES>  (29) 
COC(=O)c1cc(C(=O)[N-]c2cccc(F)c2)c(C)n1Cc1ccccc1

>  <Energy>  (29) 
77.26090945103805

>  <Genealogy>  (29) 
COC(=O)c1cc(C(=O)[N-]c2cccc(F)c2)c(C)n1Cc1ccccc1 (protonated)
COC(=O)c1cc(C(=O)[N-]c2cccc(F)c2)c(C)n1Cc1ccccc1 (3D coordinates assigned)
COC(=O)c1cc(C(=O)[N-]c2cccc(F)c2)c(C)n1Cc1ccccc1 (optimized conformer: 77.26090945103805 kcal/mol)

>  <smiles>  (29) 
COC(=O)c1cc(C(=O)Nc2cccc(F)c2)c(C)n1Cc1ccccc1

>  <score_type>  (29) 
oracle

>  <origin>  (29) 
adg

>  <m_score__min__energy>  (29) 
-9.1899999999999995

>  <m_primary>  (29) 
energy

$$$$
29:0
     RDKit          3D

 48 50  0  0  0  0  0  0  0  0999 V2000
   58.8740   31.9610   49.3350 C   0  0  0  0  0  0  0  0  0  0  0  0
   58.5130   31.8630   47.9610 O   0  0  0  0  0  0  0  0  0  0  0  0
   58.7370   32.8660   47.0030 C   0  0  0  0  0  0  0  0  0  0  0  0
   59.0990   34.1780   47.3720 C   0  0  0  0  0  0  0  0  0  0  0  0
   59.3150   35.1530   46.3950 C   0  0  0  0  0  0  0  0  0  0  0  0
   59.1740   34.8330   45.0440 C   0  0  0  0  0  0  0  0  0  0  0  0
   58.8160   33.5370   44.6650 C   0  0  0  0  0  0  0  0  0  0  0  0
   58.5960   32.5500   45.6380 C   0  0  0  0  0  0  0  0  0  0  0  0
   58.1470   30.9130   45.1500 S   0  0  0  0  0  0  0  0  0  0  0  0
   58.6610   30.6260   43.7670 O   0  0  0  0  0  0  0  0  0  0  0  0
   56.6480   30.8000   45.1620 O   0  0  0  0  0  0  0  0  0  0  0  0
   58.8410   29.7800   46.2670 N   0  0  0  0  0  0  0  0  0  0  0  0
   58.5870   28.3630   46.2370 C   0  0  0  0  0  0  0  0  0  0  0  0
   59.6090   27.4190   46.4450 C   0  0  0  0  0  0  0  0  0  0  0  0
   59.3260   26.0510   46.4120 C   0  0  0  0  0  0  0  0  0  0  0  0
   58.0200   25.5980   46.1610 C   0  0  0  0  0  0  0  0  0  0  0  0
   57.7120   24.1500   46.1360 C   0  0  0  0  0  0  0  0  0  0  0  0
   57.5670   23.5370   47.2290 O   0  0  0  0  0  0  0  0  0  0  0  0
   57.5810   23.4250   44.8980 N   0  0  0  0  0  0  0  0  0  0  0  0
   56.9650   24.0500   43.7170 C   0  0  0  0  0  0  0  0  0  0  0  0
   55.9850   23.0720   43.0630 C   0  0  0  0  0  0  0  0  0  0  0  0
   56.6380   21.7180   42.7110 C   0  0  0  0  0  0  0  0  0  0  0  0
   57.9800   21.4720   43.4230 C   0  0  0  0  0  0  0  0  0  0  0  0
   57.9690   22.0070   44.8590 C   0  0  0  0  0  0  0  0  0  0  0  0
   56.9970   26.5400   45.9760 C   0  0  0  0  0  0  0  0  0  0  0  0
   57.2790   27.9090   46.0110 C   0  0  0  0  0  0  0  0  0  0  0  0
   58.0012   31.7241   49.9612 H   0  0  0  0  0  0  0  0  0  0  0  0
   59.6851   31.2505   49.5526 H   0  0  0  0  0  0  0  0  0  0  0  0
   59.2145   32.9841   49.5526 H   0  0  0  0  0  0  0  0  0  0  0  0
   59.2120   34.4353   48.4355 H   0  0  0  0  0  0  0  0  0  0  0  0
   59.5966   36.1743   46.6911 H   0  0  0  0  0  0  0  0  0  0  0  0
   59.3450   35.6023   44.2765 H   0  0  0  0  0  0  0  0  0  0  0  0
   58.7060   33.2890   43.5990 H   0  0  0  0  0  0  0  0  0  0  0  0
   59.4430   30.1700   47.0250 H   0  0  0  0  0  0  0  0  0  0  0  0
   60.6375   27.7599   46.6348 H   0  0  0  0  0  0  0  0  0  0  0  0
   60.1324   25.3228   46.5839 H   0  0  0  0  0  0  0  0  0  0  0  0
   56.4245   24.9574   44.0244 H   0  0  0  0  0  0  0  0  0  0  0  0
   57.7514   24.3132   42.9943 H   0  0  0  0  0  0  0  0  0  0  0  0
   55.1524   22.8906   43.7586 H   0  0  0  0  0  0  0  0  0  0  0  0
   55.6392   23.5276   42.1234 H   0  0  0  0  0  0  0  0  0  0  0  0
   55.9428   20.9138   42.9937 H   0  0  0  0  0  0  0  0  0  0  0  0
   56.8464   21.7339   41.6310 H   0  0  0  0  0  0  0  0  0  0  0  0
   58.1769   20.3900   43.4477 H   0  0  0  0  0  0  0  0  0  0  0  0
   58.7651   22.0042   42.8659 H   0  0  0  0  0  0  0  0  0  0  0  0
   57.2514   21.4227   45.4536 H   0  0  0  0  0  0  0  0  0  0  0  0
   58.9841   21.9133   45.2722 H   0  0  0  0  0  0  0  0  0  0  0  0
   55.9657   26.1992   45.8022 H   0  0  0  0  0  0  0  0  0  0  0  0
   56.4680   28.6366   45.8600 H   0  0  0  0  0  0  0  0  0  0  0  0
  1  2  1  0
  2  3  1  0
  3  4  2  0
  4  5  1  0
  5  6  2  0
  6  7  1  0
  7  8  2  0
  8  9  1  0
  9 10  2  0
  9 11  2  0
  9 12  1  0
 12 13  1  0
 13 14  2  0
 14 15  1  0
 15 16  2  0
 16 17  1  0
 17 18  2  0
 17 19  1  0
 19 20  1  0
 20 21  1  0
 21 22  1  0
 22 23  1  0
 23 24  1  0
 16 25  1  0
 25 26  2  0
  8  3  1  0
 26 13  1  0
 24 19  1  0
  1 27  1  0
  1 28  1  0
  1 29  1  0
  4 30  1  0
  5 31  1  0
  6 32  1  0
  7 33  1  0
 12 34  1  0
 14 35  1  0
 15 36  1  0
 20 37  1  0
 20 38  1  0
 21 39  1  0
 21 40  1  0
 22 41  1  0
 22 42  1  0
 23 43  1  0
 23 44  1  0
 24 45  1  0
 24 46  1  0
 25 47  1  0
 26 48  1  0
M  END
>  <UniqueID>  (30) 
26

>  <SMILES>  (30) 
COc1ccccc1S(=O)(=O)Nc1ccc(C(=O)N2CCCCC2)cc1

>  <Energy>  (30) 
57.959440766155275

>  <Genealogy>  (30) 
COc1ccccc1S(=O)(=O)Nc1ccc(C(=O)N2CCCCC2)cc1 (3D coordinates assigned)
COc1ccccc1S(=O)(=O)Nc1ccc(C(=O)N2CCCCC2)cc1 (nonaromatic ring conformer: 57.959440766155275 kcal/mol)

>  <smiles>  (30) 
COc1ccccc1S(=O)(=O)Nc1ccc(C(=O)N2CCCCC2)cc1

>  <score_type>  (30) 
oracle

>  <origin>  (30) 
adg

>  <m_score__min__energy>  (30) 
-8.8300000000000001

>  <m_primary>  (30) 
energy

$$$$
30:0
     RDKit          3D

 51 54  0  0  0  0  0  0  0  0999 V2000
   68.1130   33.3980   50.8820 C   0  0  0  0  0  0  0  0  0  0  0  0
   66.6700   33.0490   50.7480 C   0  0  0  0  0  0  0  0  0  0  0  0
   66.0550   32.7850   49.5830 N   0  0  0  0  0  0  0  0  0  0  0  0
   64.7850   32.5490   49.9700 C   0  0  0  0  0  0  0  0  0  0  0  0
   63.6620   32.2260   49.0310 C   0  0  0  0  0  0  0  0  0  0  0  0
   62.9540   33.4530   48.6100 N   0  0  0  0  0  0  0  0  0  0  0  0
   62.7160   33.4650   47.1420 C   0  0  0  0  0  0  0  0  0  0  0  0
   61.3030   32.9940   46.7660 C   0  0  0  0  0  0  0  0  0  0  0  0
   60.1920   33.9130   47.3790 C   0  0  0  0  0  0  0  0  0  0  0  0
   60.7200   34.5790   48.6880 C   0  0  0  0  0  0  0  0  0  0  0  0
   61.7250   33.6730   49.4150 C   0  0  0  0  0  0  0  0  0  0  0  0
   59.7880   35.0340   46.3720 C   0  0  0  0  0  0  0  0  0  0  0  0
   58.7450   34.5820   45.3220 C   0  0  0  0  0  0  0  0  0  0  0  0
   58.7370   33.1130   45.1910 N   0  0  0  0  0  0  0  0  0  0  0  0
   57.9320   32.6900   44.0270 C   0  0  0  0  0  0  0  0  0  0  0  0
   57.5300   31.2550   44.1760 C   0  0  0  0  0  0  0  0  0  0  0  0
   56.2370   30.7510   44.1100 C   0  0  0  0  0  0  0  0  0  0  0  0
   56.1750   29.3690   44.3240 C   0  0  0  0  0  0  0  0  0  0  0  0
   57.4160   28.7760   44.5440 C   0  0  0  0  0  0  0  0  0  0  0  0
   58.5880   29.9810   44.4870 S   0  0  0  0  0  0  0  0  0  0  0  0
   58.2420   32.4850   46.4420 C   0  0  0  0  0  0  0  0  0  0  0  0
   58.9260   33.0720   47.7050 C   0  0  0  0  0  0  0  0  0  0  0  0
   64.6350   32.6800   51.3030 N   0  0  0  0  0  0  0  0  0  0  0  0
   65.8200   32.9900   51.7460 O   0  0  0  0  0  0  0  0  0  0  0  0
   68.3773   33.4619   51.9479 H   0  0  0  0  0  0  0  0  0  0  0  0
   68.7244   32.6218   50.3985 H   0  0  0  0  0  0  0  0  0  0  0  0
   68.3021   34.3678   50.3985 H   0  0  0  0  0  0  0  0  0  0  0  0
   66.4580   32.7720   48.6230 H   0  0  0  0  0  0  0  0  0  0  0  0
   64.0700   31.7231   48.1418 H   0  0  0  0  0  0  0  0  0  0  0  0
   62.9480   31.5704   49.5510 H   0  0  0  0  0  0  0  0  0  0  0  0
   62.8549   34.4914   46.7715 H   0  0  0  0  0  0  0  0  0  0  0  0
   63.4317   32.7664   46.6839 H   0  0  0  0  0  0  0  0  0  0  0  0
   61.2060   33.0032   45.6703 H   0  0  0  0  0  0  0  0  0  0  0  0
   61.1652   31.9805   47.1708 H   0  0  0  0  0  0  0  0  0  0  0  0
   61.2142   35.5278   48.4320 H   0  0  0  0  0  0  0  0  0  0  0  0
   59.8640   34.7513   49.3570 H   0  0  0  0  0  0  0  0  0  0  0  0
   62.0040   34.1446   50.3688 H   0  0  0  0  0  0  0  0  0  0  0  0
   61.2464   32.6966   49.5811 H   0  0  0  0  0  0  0  0  0  0  0  0
   59.3658   35.8757   46.9406 H   0  0  0  0  0  0  0  0  0  0  0  0
   60.6980   35.3136   45.8209 H   0  0  0  0  0  0  0  0  0  0  0  0
   57.7469   34.9216   45.6357 H   0  0  0  0  0  0  0  0  0  0  0  0
   59.0105   35.0215   44.3492 H   0  0  0  0  0  0  0  0  0  0  0  0
   57.0299   33.3160   43.9612 H   0  0  0  0  0  0  0  0  0  0  0  0
   58.5326   32.8035   43.1124 H   0  0  0  0  0  0  0  0  0  0  0  0
   55.3527   31.3740   43.9101 H   0  0  0  0  0  0  0  0  0  0  0  0
   55.2319   28.8028   44.3189 H   0  0  0  0  0  0  0  0  0  0  0  0
   57.5978   27.7061   44.7237 H   0  0  0  0  0  0  0  0  0  0  0  0
   57.1574   32.6523   46.5168 H   0  0  0  0  0  0  0  0  0  0  0  0
   58.4804   31.4121   46.3976 H   0  0  0  0  0  0  0  0  0  0  0  0
   58.2030   33.7160   48.2271 H   0  0  0  0  0  0  0  0  0  0  0  0
   59.2475   32.2239   48.3274 H   0  0  0  0  0  0  0  0  0  0  0  0
  1  2  1  0
  2  3  2  0
  3  4  1  0
  4  5  1  0
  5  6  1  0
  6  7  1  0
  7  8  1  0
  8  9  1  0
  9 10  1  0
 10 11  1  0
  9 12  1  0
 12 13  1  0
 13 14  1  0
 14 15  1  0
 15 16  1  0
 16 17  2  0
 17 18  1  0
 18 19  2  0
 19 20  1  0
 14 21  1  0
 21 22  1  0
  4 23  2  0
 23 24  1  0
 24  2  1  0
 11  6  1  0
 20 16  1  0
 22  9  1  0
  1 25  1  0
  1 26  1  0
  1 27  1  0
  3 28  1  0
  5 29  1  0
  5 30  1  0
  7 31  1  0
  7 32  1  0
  8 33  1  0
  8 34  1  0
 10 35  1  0
 10 36  1  0
 11 37  1  0
 11 38  1  0
 12 39  1  0
 12 40  1  0
 13 41  1  0
 13 42  1  0
 15 43  1  0
 15 44  1  0
 17 45  1  0
 18 46  1  0
 19 47  1  0
 21 48  1  0
 21 49  1  0
 22 50  1  0
 22 51  1  0
M  CHG  1   3   1
M  END
>  <UniqueID>  (31) 
27

>  <SMILES>  (31) 
Cc1[nH+]c(CN2CCC3(CC2)CCN(Cc2cccs2)CC3)no1

>  <Energy>  (31) 
128.9096715997287

>  <Genealogy>  (31) 
Cc1[nH+]c(CN2CCC3(CC2)CCN(Cc2cccs2)CC3)no1 (protonated)
Cc1[nH+]c(CN2CCC3(CC2)CCN(Cc2cccs2)CC3)no1 (3D coordinates assigned)
Cc1[nH+]c(CN2CCC3(CC2)CCN(Cc2cccs2)CC3)no1 (nonaromatic ring conformer: 128.9096715997287 kcal/mol)

>  <smiles>  (31) 
Cc1nc(CN2CCC3(CC2)CCN(Cc2cccs2)CC3)no1

>  <score_type>  (31) 
oracle

>  <origin>  (31) 
adg

>  <m_score__min__energy>  (31) 
-8.0099999999999998

>  <m_primary>  (31) 
energy

$$$$
31:0
     RDKit          3D

 44 48  0  0  0  0  0  0  0  0999 V2000
   58.2704   26.8301   47.1515 H   0  0  0  0  0  0  0  0  0  0  0  0
   58.0880   27.8080   46.6820 C   0  0  0  0  0  0  0  0  0  0  0  0
   58.9380   28.8830   46.9620 C   0  0  0  0  0  0  0  0  0  0  0  0
   59.7937   28.7396   47.6382 H   0  0  0  0  0  0  0  0  0  0  0  0
   58.7080   30.1470   46.3860 C   0  0  0  0  0  0  0  0  0  0  0  0
   59.5730   31.2690   46.6610 N   0  0  0  0  0  0  0  0  0  0  0  0
   60.5030   31.2720   47.6010 N   0  0  0  0  0  0  0  0  0  0  0  0
   61.0810   32.4890   47.5480 C   0  0  0  0  0  0  0  0  0  0  0  0
   62.1810   32.9160   48.4390 C   0  0  0  0  0  0  0  0  0  0  0  0
   61.9560   33.8760   49.4390 C   0  0  0  0  0  0  0  0  0  0  0  0
   60.9547   34.3149   49.5603 H   0  0  0  0  0  0  0  0  0  0  0  0
   62.9970   34.2770   50.2810 C   0  0  0  0  0  0  0  0  0  0  0  0
   62.8080   35.0294   51.0609 H   0  0  0  0  0  0  0  0  0  0  0  0
   64.2780   33.7300   50.1410 C   0  0  0  0  0  0  0  0  0  0  0  0
   65.2880   34.1680   51.0110 O   0  0  0  0  0  0  0  0  0  0  0  0
   65.0670   34.5830   52.3550 C   0  0  0  0  0  0  0  0  0  0  0  0
   65.4702   33.8258   53.0436 H   0  0  0  0  0  0  0  0  0  0  0  0
   65.5728   35.5440   52.5299 H   0  0  0  0  0  0  0  0  0  0  0  0
   63.9873   34.6997   52.5299 H   0  0  0  0  0  0  0  0  0  0  0  0
   64.5060   32.7690   49.1390 C   0  0  0  0  0  0  0  0  0  0  0  0
   65.5083   32.3322   49.0185 H   0  0  0  0  0  0  0  0  0  0  0  0
   63.4670   32.3660   48.2960 C   0  0  0  0  0  0  0  0  0  0  0  0
   63.6564   31.6140   47.5159 H   0  0  0  0  0  0  0  0  0  0  0  0
   60.5380   33.2740   46.5910 N   0  0  0  0  0  0  0  0  0  0  0  0
   59.5960   32.4740   46.0570 C   0  0  0  0  0  0  0  0  0  0  0  0
   58.9295   32.7666   45.2323 H   0  0  0  0  0  0  0  0  0  0  0  0
   57.5950   30.3100   45.5390 C   0  0  0  0  0  0  0  0  0  0  0  0
   57.3910   31.2935   45.0906 H   0  0  0  0  0  0  0  0  0  0  0  0
   56.7480   29.2350   45.2630 C   0  0  0  0  0  0  0  0  0  0  0  0
   55.8721   29.3814   44.6139 H   0  0  0  0  0  0  0  0  0  0  0  0
   57.0080   27.9690   45.8090 C   0  0  0  0  0  0  0  0  0  0  0  0
   56.1190   26.8630   45.5840 N   0  0  0  0  0  0  0  0  0  0  0  0
   56.3500   25.6000   45.8110 C   0  0  0  0  0  0  0  0  0  0  0  0
   56.3040   25.1510   47.1000 N   0  0  0  0  0  0  0  0  0  0  0  0
   56.5490   23.8670   47.3470 N   0  0  0  0  0  0  0  0  0  0  0  0
   56.5620   23.1970   48.5040 C   0  0  0  0  0  0  0  0  0  0  0  0
   56.3532   23.6325   49.4923 H   0  0  0  0  0  0  0  0  0  0  0  0
   56.8720   21.8990   48.2710 N   0  0  0  0  0  0  0  0  0  0  0  0
   57.0570   21.7520   46.9580 N   0  0  0  0  0  0  0  0  0  0  0  0
   56.8530   22.9660   46.4180 C   0  0  0  0  0  0  0  0  0  0  0  0
   56.9400   23.3320   45.0840 C   0  0  0  0  0  0  0  0  0  0  0  0
   57.1938   22.6007   44.3025 H   0  0  0  0  0  0  0  0  0  0  0  0
   56.6890   24.6810   44.7750 C   0  0  0  0  0  0  0  0  0  0  0  0
   56.7543   25.0273   43.7330 H   0  0  0  0  0  0  0  0  0  0  0  0
  1  2  1  0
  2  3  2  0
  3  4  1  0
  3  5  1  0
  5  6  1  0
  6  7  1  0
  7  8  2  0
  8  9  1  0
  9 10  2  0
 10 11  1  0
 10 12  1  0
 12 13  1  0
 12 14  2  0
 14 15  1  0
 15 16  1  0
 16 17  1  0
 16 18  1  0
 16 19  1  0
 14 20  1  0
 20 21  1  0
 20 22  2  0
 22 23  1  0
  8 24  1  0
 24 25  2  0
 25 26  1  0
  5 27  2  0
 27 28  1  0
 27 29  1  0
 29 30  1  0
 29 31  2  0
 31 32  1  0
 32 33  2  0
 33 34  1  0
 34 35  1  0
 35 36  1  0
 36 37  1  0
 36 38  2  0
 38 39  1  0
 39 40  2  0
 40 41  1  0
 41 42  1  0
 41 43  2  0
 43 44  1  0
 31  2  1  0
 43 33  1  0
 25  6  1  0
 40 35  1  0
 22  9  1  0
M  CHG  1  34  -1
M  END
>  <UniqueID>  (32) 
28

>  <SMILES>  (32) 
COc1ccc(-c2ncn(-c3ccc(/N=c4\ccc5nncn5[n-]4)cc3)n2)cc1

>  <Energy>  (32) 
138.47744800542438

>  <Genealogy>  (32) 
COc1ccc(-c2ncn(-c3ccc(N=c4ccc5nncn5[n-]4)cc3)n2)cc1 (protonated)
COc1ccc(-c2ncn(-c3ccc(/N=c4\ccc5nncn5[n-]4)cc3)n2)cc1 (cis-trans isomerization)
COc1ccc(-c2ncn(-c3ccc(/N=c4\ccc5nncn5[n-]4)cc3)n2)cc1 (3D coordinates assigned)
COc1ccc(-c2ncn(-c3ccc(/N=c4\ccc5nncn5[n-]4)cc3)n2)cc1 (optimized conformer: 138.47744800542438 kcal/mol)

>  <smiles>  (32) 
COc1ccc(-c2ncn(-c3ccc(N=c4ccc5nncn5[nH]4)cc3)n2)cc1

>  <score_type>  (32) 
oracle

>  <origin>  (32) 
adg

>  <m_score__min__energy>  (32) 
-8.9100000000000001

>  <m_primary>  (32) 
energy

$$$$
32:0
     RDKit          3D

 41 43  0  0  0  0  0  0  0  0999 V2000
   54.2270   24.2640   46.7670 H   0  0  0  0  0  0  0  0  0  0  0  0
   55.1960   24.2280   46.3790 N   0  0  0  0  0  0  0  0  0  0  0  0
   56.0120   25.2240   46.5000 C   0  0  0  0  0  0  0  0  0  0  0  0
   55.7590   26.4020   45.8690 N   0  0  0  0  0  0  0  0  0  0  0  0
   56.6020   27.4610   45.9810 C   0  0  0  0  0  0  0  0  0  0  0  0
   56.3763   28.4051   45.4636 H   0  0  0  0  0  0  0  0  0  0  0  0
   57.7660   27.3430   46.7630 C   0  0  0  0  0  0  0  0  0  0  0  0
   58.7230   28.4680   46.9270 C   0  0  0  0  0  0  0  0  0  0  0  0
   59.4270   28.6640   48.1310 C   0  0  0  0  0  0  0  0  0  0  0  0
   59.2779   27.9683   48.9699 H   0  0  0  0  0  0  0  0  0  0  0  0
   60.3130   29.7350   48.2680 C   0  0  0  0  0  0  0  0  0  0  0  0
   60.8668   29.8682   49.2090 H   0  0  0  0  0  0  0  0  0  0  0  0
   60.5020   30.6420   47.2150 C   0  0  0  0  0  0  0  0  0  0  0  0
   61.4460   31.7760   47.3540 C   0  0  0  0  0  0  0  0  0  0  0  0
   62.8200   31.5380   47.1700 C   0  0  0  0  0  0  0  0  0  0  0  0
   63.1659   30.5328   46.8872 H   0  0  0  0  0  0  0  0  0  0  0  0
   63.7490   32.5660   47.3430 C   0  0  0  0  0  0  0  0  0  0  0  0
   64.8207   32.3687   47.1929 H   0  0  0  0  0  0  0  0  0  0  0  0
   63.3200   33.8430   47.7060 C   0  0  0  0  0  0  0  0  0  0  0  0
   64.0544   34.6482   47.8552 H   0  0  0  0  0  0  0  0  0  0  0  0
   61.9580   34.0990   47.8800 C   0  0  0  0  0  0  0  0  0  0  0  0
   61.6258   35.1039   48.1796 H   0  0  0  0  0  0  0  0  0  0  0  0
   61.0110   33.0860   47.6760 C   0  0  0  0  0  0  0  0  0  0  0  0
   59.2630   33.4950   47.8860 S   0  0  0  0  0  0  0  0  0  0  0  0
   58.7930   33.6760   46.1160 C   0  0  0  0  0  0  0  0  0  0  0  0
   59.2706   32.8401   45.5839 H   0  0  0  0  0  0  0  0  0  0  0  0
   57.2830   33.5420   45.9000 C   0  0  0  0  0  0  0  0  0  0  0  0
   56.7757   33.4970   46.8750 H   0  0  0  0  0  0  0  0  0  0  0  0
   56.9149   34.4110   45.3349 H   0  0  0  0  0  0  0  0  0  0  0  0
   57.0737   32.6217   45.3349 H   0  0  0  0  0  0  0  0  0  0  0  0
   59.3350   34.9680   45.5020 C   0  0  0  0  0  0  0  0  0  0  0  0
   59.6259   35.6615   46.3047 H   0  0  0  0  0  0  0  0  0  0  0  0
   60.2126   34.7383   44.8799 H   0  0  0  0  0  0  0  0  0  0  0  0
   58.5562   35.4332   44.8799 H   0  0  0  0  0  0  0  0  0  0  0  0
   59.8120   30.4440   46.0090 C   0  0  0  0  0  0  0  0  0  0  0  0
   59.9720   31.1343   45.1677 H   0  0  0  0  0  0  0  0  0  0  0  0
   58.9230   29.3750   45.8710 C   0  0  0  0  0  0  0  0  0  0  0  0
   58.3741   29.2415   44.9271 H   0  0  0  0  0  0  0  0  0  0  0  0
   58.0040   26.1620   47.4000 N   0  0  0  0  0  0  0  0  0  0  0  0
   57.1600   25.1040   47.2870 C   0  0  0  0  0  0  0  0  0  0  0  0
   57.3783   24.1614   47.8103 H   0  0  0  0  0  0  0  0  0  0  0  0
  1  2  1  0
  2  3  2  0
  3  4  1  0
  4  5  1  0
  5  6  1  0
  5  7  2  0
  7  8  1  0
  8  9  2  0
  9 10  1  0
  9 11  1  0
 11 12  1  0
 11 13  2  0
 13 14  1  0
 14 15  2  0
 15 16  1  0
 15 17  1  0
 17 18  1  0
 17 19  2  0
 19 20  1  0
 19 21  1  0
 21 22  1  0
 21 23  2  0
 23 24  1  0
 24 25  1  0
 25 26  1  0
 25 27  1  0
 27 28  1  0
 27 29  1  0
 27 30  1  0
 25 31  1  0
 31 32  1  0
 31 33  1  0
 31 34  1  0
 13 35  1  0
 35 36  1  0
 35 37  2  0
 37 38  1  0
  7 39  1  0
 39 40  2  0
 40 41  1  0
 40  3  1  0
 37  8  1  0
 23 14  1  0
M  CHG  1   4  -1
M  END
>  <UniqueID>  (33) 
29

>  <SMILES>  (33) 
[H]/N=c1/cnc(-c2ccc(-c3ccccc3SC(C)C)cc2)c[n-]1

>  <Energy>  (33) 
49.50736252118367

>  <Genealogy>  (33) 
CC(C)Sc1ccccc1-c1ccc(-c2c[n-]c(=N)cn2)cc1 (protonated)
[H]/N=c1/cnc(-c2ccc(-c3ccccc3SC(C)C)cc2)c[n-]1 (cis-trans isomerization)
[H]/N=c1/cnc(-c2ccc(-c3ccccc3SC(C)C)cc2)c[n-]1 (3D coordinates assigned)
[H]/N=c1/cnc(-c2ccc(-c3ccccc3SC(C)C)cc2)c[n-]1 (optimized conformer: 49.50736252118367 kcal/mol)

>  <smiles>  (33) 
CC(C)Sc1ccccc1-c1ccc(-c2c[nH]c(=N)cn2)cc1

>  <score_type>  (33) 
oracle

>  <origin>  (33) 
adg

>  <m_score__min__energy>  (33) 
-9.3100000000000005

>  <m_primary>  (33) 
energy

$$$$
33:0
     RDKit          3D

 39 42  0  0  0  0  0  0  0  0999 V2000
   60.1380   34.3980   49.1630 C   0  0  0  0  0  0  0  0  0  0  0  0
   59.7710   34.2650   47.7580 N   0  0  0  0  0  0  0  0  0  0  0  0
   59.9030   35.3480   46.7860 C   0  0  0  0  0  0  0  0  0  0  0  0
   59.3220   34.8060   45.4620 C   0  0  0  0  0  0  0  0  0  0  0  0
   58.8990   33.4160   45.8060 C   0  0  0  0  0  0  0  0  0  0  0  0
   59.1720   33.1420   47.1220 C   0  0  0  0  0  0  0  0  0  0  0  0
   58.8790   31.8740   47.6580 C   0  0  0  0  0  0  0  0  0  0  0  0
   59.1760   31.5270   49.0150 N   0  0  0  0  0  0  0  0  0  0  0  0
   58.3980   32.1290   50.1010 C   0  0  0  0  0  0  0  0  0  0  0  0
   57.6120   31.0460   50.8770 C   0  0  0  0  0  0  0  0  0  0  0  0
   58.0840   29.7200   50.6800 O   0  0  0  0  0  0  0  0  0  0  0  0
   59.4950   29.6880   50.6090 C   0  0  0  0  0  0  0  0  0  0  0  0
   59.9440   30.3060   49.2830 C   0  0  0  0  0  0  0  0  0  0  0  0
   58.3090   30.9380   46.8450 N   0  0  0  0  0  0  0  0  0  0  0  0
   58.0180   31.1900   45.5350 C   0  0  0  0  0  0  0  0  0  0  0  0
   57.4320   30.1970   44.7440 C   0  0  0  0  0  0  0  0  0  0  0  0
   57.1390   30.4530   43.4010 C   0  0  0  0  0  0  0  0  0  0  0  0
   57.4290   31.7030   42.8420 C   0  0  0  0  0  0  0  0  0  0  0  0
   57.0580   32.0140   41.1560 Cl  0  0  0  0  0  0  0  0  0  0  0  0
   58.0160   32.7050   43.6240 C   0  0  0  0  0  0  0  0  0  0  0  0
   58.3130   32.4550   44.9730 C   0  0  0  0  0  0  0  0  0  0  0  0
   59.2908   34.0910   49.7939 H   0  0  0  0  0  0  0  0  0  0  0  0
   61.0060   33.7573   49.3775 H   0  0  0  0  0  0  0  0  0  0  0  0
   60.3940   35.4461   49.3775 H   0  0  0  0  0  0  0  0  0  0  0  0
   59.3372   36.2308   47.1185 H   0  0  0  0  0  0  0  0  0  0  0  0
   60.9519   35.6577   46.6684 H   0  0  0  0  0  0  0  0  0  0  0  0
   58.4618   35.4085   45.1350 H   0  0  0  0  0  0  0  0  0  0  0  0
   60.0444   34.8397   44.6332 H   0  0  0  0  0  0  0  0  0  0  0  0
   59.0815   32.6438   50.7923 H   0  0  0  0  0  0  0  0  0  0  0  0
   57.6821   32.8436   49.6688 H   0  0  0  0  0  0  0  0  0  0  0  0
   57.6765   31.2777   51.9504 H   0  0  0  0  0  0  0  0  0  0  0  0
   56.5817   31.0715   50.4924 H   0  0  0  0  0  0  0  0  0  0  0  0
   59.9190   30.2628   51.4455 H   0  0  0  0  0  0  0  0  0  0  0  0
   59.8455   28.6471   50.6702 H   0  0  0  0  0  0  0  0  0  0  0  0
   61.0143   30.5536   49.3400 H   0  0  0  0  0  0  0  0  0  0  0  0
   59.7717   29.5845   48.4708 H   0  0  0  0  0  0  0  0  0  0  0  0
   57.2012   29.2133   45.1788 H   0  0  0  0  0  0  0  0  0  0  0  0
   56.6789   29.6691   42.7815 H   0  0  0  0  0  0  0  0  0  0  0  0
   58.2440   33.6862   43.1822 H   0  0  0  0  0  0  0  0  0  0  0  0
  1  2  1  0
  2  3  1  0
  3  4  1  0
  4  5  1  0
  5  6  2  0
  6  7  1  0
  7  8  1  0
  8  9  1  0
  9 10  1  0
 10 11  1  0
 11 12  1  0
 12 13  1  0
  7 14  2  0
 14 15  1  0
 15 16  2  0
 16 17  1  0
 17 18  2  0
 18 19  1  0
 18 20  1  0
 20 21  2  0
  6  2  1  0
 13  8  1  0
 21 15  1  0
 21  5  1  0
  1 22  1  0
  1 23  1  0
  1 24  1  0
  3 25  1  0
  3 26  1  0
  4 27  1  0
  4 28  1  0
  9 29  1  0
  9 30  1  0
 10 31  1  0
 10 32  1  0
 12 33  1  0
 12 34  1  0
 13 35  1  0
 13 36  1  0
 16 37  1  0
 17 38  1  0
 20 39  1  0
M  END
>  <UniqueID>  (34) 
30

>  <SMILES>  (34) 
CN1CCc2c1c(N1CCOCC1)nc1ccc(Cl)cc21

>  <Energy>  (34) 
72.18717262648585

>  <Genealogy>  (34) 
CN1CCc2c1c(N1CCOCC1)nc1ccc(Cl)cc21 (3D coordinates assigned)
CN1CCc2c1c(N1CCOCC1)nc1ccc(Cl)cc21 (nonaromatic ring conformer: 72.18717262648585 kcal/mol)

>  <smiles>  (34) 
CN1CCc2c1c(N1CCOCC1)nc1ccc(Cl)cc21

>  <score_type>  (34) 
oracle

>  <origin>  (34) 
adg

>  <m_score__min__energy>  (34) 
-7.1299999999999999

>  <m_primary>  (34) 
energy

$$$$
34:0
     RDKit          3D

 51 54  0  0  0  0  0  0  0  0999 V2000
   55.5310   23.9940   46.8740 C   0  0  0  0  0  0  0  0  0  0  0  0
   56.3720   25.2180   46.7440 C   0  0  0  0  0  0  0  0  0  0  0  0
   57.5540   25.3770   47.3700 N   0  0  0  0  0  0  0  0  0  0  0  0
   57.9580   26.5790   46.9130 C   0  0  0  0  0  0  0  0  0  0  0  0
   57.0670   27.1040   46.0490 N   0  0  0  0  0  0  0  0  0  0  0  0
   57.1380   28.3660   45.3520 C   0  0  0  0  0  0  0  0  0  0  0  0
   58.3830   28.9980   45.1710 C   0  0  0  0  0  0  0  0  0  0  0  0
   58.4700   30.2180   44.4950 C   0  0  0  0  0  0  0  0  0  0  0  0
   57.3150   30.8330   43.9900 C   0  0  0  0  0  0  0  0  0  0  0  0
   57.3980   32.1660   43.2930 C   0  0  0  0  0  0  0  0  0  0  0  0
   58.5580   33.0280   43.8190 C   0  0  0  0  0  0  0  0  0  0  0  0
   58.0660   34.0480   44.7800 N   0  0  0  0  0  0  0  0  0  0  0  0
   59.0070   35.1940   44.9440 C   0  0  0  0  0  0  0  0  0  0  0  0
   59.6100   35.3220   46.3540 C   0  0  0  0  0  0  0  0  0  0  0  0
   59.8850   33.9990   46.9120 N   0  0  0  0  0  0  0  0  0  0  0  0
   61.2010   33.6870   47.3900 C   0  0  0  0  0  0  0  0  0  0  0  0
   62.2240   33.5530   46.4980 N   0  0  0  0  0  0  0  0  0  0  0  0
   63.4940   33.2780   46.9030 C   0  0  0  0  0  0  0  0  0  0  0  0
   63.7780   33.1200   48.2620 C   0  0  0  0  0  0  0  0  0  0  0  0
   62.7500   33.2570   49.1960 C   0  0  0  0  0  0  0  0  0  0  0  0
   61.4520   33.5440   48.7670 C   0  0  0  0  0  0  0  0  0  0  0  0
   60.1860   33.7810   49.9640 Cl  0  0  0  0  0  0  0  0  0  0  0  0
   58.8520   32.9630   46.8780 C   0  0  0  0  0  0  0  0  0  0  0  0
   57.6420   33.4450   46.0650 C   0  0  0  0  0  0  0  0  0  0  0  0
   56.0690   30.2130   44.1760 C   0  0  0  0  0  0  0  0  0  0  0  0
   55.9800   28.9920   44.8480 C   0  0  0  0  0  0  0  0  0  0  0  0
   56.0680   26.2480   45.9320 N   0  0  0  0  0  0  0  0  0  0  0  0
   55.3754   23.7675   47.9391 H   0  0  0  0  0  0  0  0  0  0  0  0
   54.5583   24.1643   46.3894 H   0  0  0  0  0  0  0  0  0  0  0  0
   56.0388   23.1471   46.3894 H   0  0  0  0  0  0  0  0  0  0  0  0
   58.8971   27.0698   47.2083 H   0  0  0  0  0  0  0  0  0  0  0  0
   59.2956   28.5272   45.5653 H   0  0  0  0  0  0  0  0  0  0  0  0
   59.4499   30.6987   44.3582 H   0  0  0  0  0  0  0  0  0  0  0  0
   57.5449   31.9939   42.2165 H   0  0  0  0  0  0  0  0  0  0  0  0
   56.4606   32.7073   43.4888 H   0  0  0  0  0  0  0  0  0  0  0  0
   59.2884   32.3793   44.3246 H   0  0  0  0  0  0  0  0  0  0  0  0
   59.0270   33.5437   42.9681 H   0  0  0  0  0  0  0  0  0  0  0  0
   59.8316   35.0679   44.2269 H   0  0  0  0  0  0  0  0  0  0  0  0
   58.4226   36.1090   44.7673 H   0  0  0  0  0  0  0  0  0  0  0  0
   60.5482   35.8935   46.2966 H   0  0  0  0  0  0  0  0  0  0  0  0
   58.8906   35.8413   47.0042 H   0  0  0  0  0  0  0  0  0  0  0  0
   62.0340   33.6650   45.4750 H   0  0  0  0  0  0  0  0  0  0  0  0
   64.2983   33.1799   46.1591 H   0  0  0  0  0  0  0  0  0  0  0  0
   64.8017   32.8899   48.5924 H   0  0  0  0  0  0  0  0  0  0  0  0
   62.9617   33.1391   50.2690 H   0  0  0  0  0  0  0  0  0  0  0  0
   59.2635   32.0551   46.4129 H   0  0  0  0  0  0  0  0  0  0  0  0
   58.5288   32.7455   47.9067 H   0  0  0  0  0  0  0  0  0  0  0  0
   56.9835   32.5882   45.8593 H   0  0  0  0  0  0  0  0  0  0  0  0
   57.1113   34.2101   46.6506 H   0  0  0  0  0  0  0  0  0  0  0  0
   55.1572   30.6921   43.7899 H   0  0  0  0  0  0  0  0  0  0  0  0
   54.9983   28.5150   44.9851 H   0  0  0  0  0  0  0  0  0  0  0  0
  1  2  1  0
  2  3  1  0
  3  4  2  0
  4  5  1  0
  5  6  1  0
  6  7  2  0
  7  8  1  0
  8  9  2  0
  9 10  1  0
 10 11  1  0
 11 12  1  0
 12 13  1  0
 13 14  1  0
 14 15  1  0
 15 16  1  0
 16 17  2  0
 17 18  1  0
 18 19  2  0
 19 20  1  0
 20 21  2  0
 21 22  1  0
 15 23  1  0
 23 24  1  0
  9 25  1  0
 25 26  2  0
  5 27  1  0
 27  2  2  0
 26  6  1  0
 24 12  1  0
 21 16  1  0
  1 28  1  0
  1 29  1  0
  1 30  1  0
  4 31  1  0
  7 32  1  0
  8 33  1  0
 10 34  1  0
 10 35  1  0
 11 36  1  0
 11 37  1  0
 13 38  1  0
 13 39  1  0
 14 40  1  0
 14 41  1  0
 17 42  1  0
 18 43  1  0
 19 44  1  0
 20 45  1  0
 23 46  1  0
 23 47  1  0
 24 48  1  0
 24 49  1  0
 25 50  1  0
 26 51  1  0
M  CHG  1  17   1
M  END
>  <UniqueID>  (35) 
31

>  <SMILES>  (35) 
Cc1ncn(-c2ccc(CCN3CCN(c4[nH+]cccc4Cl)CC3)cc2)n1

>  <Energy>  (35) 
100.43605095595768

>  <Genealogy>  (35) 
Cc1ncn(-c2ccc(CCN3CCN(c4[nH+]cccc4Cl)CC3)cc2)n1 (protonated)
Cc1ncn(-c2ccc(CCN3CCN(c4[nH+]cccc4Cl)CC3)cc2)n1 (3D coordinates assigned)
Cc1ncn(-c2ccc(CCN3CCN(c4[nH+]cccc4Cl)CC3)cc2)n1 (nonaromatic ring conformer: 100.43605095595768 kcal/mol)

>  <smiles>  (35) 
Cc1ncn(-c2ccc(CCN3CCN(c4ncccc4Cl)CC3)cc2)n1

>  <score_type>  (35) 
oracle

>  <origin>  (35) 
adg

>  <m_score__min__energy>  (35) 
-7.21

>  <m_primary>  (35) 
energy

$$$$
35:0
     RDKit          3D

 35 37  0  0  0  0  0  0  0  0999 V2000
   55.9820   24.0460   46.4980 C   0  0  0  0  0  0  0  0  0  0  0  0
   56.0930   25.4730   46.0690 C   0  0  0  0  0  0  0  0  0  0  0  0
   55.0550   26.3310   46.0440 N   0  0  0  0  0  0  0  0  0  0  0  0
   55.5220   27.4770   45.6440 O   0  0  0  0  0  0  0  0  0  0  0  0
   56.8110   27.4120   45.4090 C   0  0  0  0  0  0  0  0  0  0  0  0
   57.4860   28.4400   44.9820 N   0  0  0  0  0  0  0  0  0  0  0  0
   56.8820   29.9220   44.3100 S   0  0  0  0  0  0  0  0  0  0  0  0
   57.0340   29.8630   42.8160 O   0  0  0  0  0  0  0  0  0  0  0  0
   55.4180   30.0360   44.6300 O   0  0  0  0  0  0  0  0  0  0  0  0
   57.7650   31.3430   44.8990 C   0  0  0  0  0  0  0  0  0  0  0  0
   57.3930   32.6030   44.4020 C   0  0  0  0  0  0  0  0  0  0  0  0
   58.0110   33.7650   44.8690 C   0  0  0  0  0  0  0  0  0  0  0  0
   59.0100   33.6840   45.8360 C   0  0  0  0  0  0  0  0  0  0  0  0
   59.4070   32.4400   46.3290 C   0  0  0  0  0  0  0  0  0  0  0  0
   58.8060   31.2600   45.8610 C   0  0  0  0  0  0  0  0  0  0  0  0
   59.2950   29.9710   46.3920 C   0  0  0  0  0  0  0  0  0  0  0  0
   58.8580   29.5030   47.6430 C   0  0  0  0  0  0  0  0  0  0  0  0
   59.3300   28.2840   48.1400 C   0  0  0  0  0  0  0  0  0  0  0  0
   60.2290   27.5220   47.3900 C   0  0  0  0  0  0  0  0  0  0  0  0
   60.6520   27.9720   46.1360 C   0  0  0  0  0  0  0  0  0  0  0  0
   60.1820   29.1890   45.6340 C   0  0  0  0  0  0  0  0  0  0  0  0
   57.2490   26.1190   45.6750 C   0  0  0  0  0  0  0  0  0  0  0  0
   58.8460   25.3890   45.6050 Cl  0  0  0  0  0  0  0  0  0  0  0  0
   55.9779   23.9927   47.5967 H   0  0  0  0  0  0  0  0  0  0  0  0
   55.0478   23.6170   46.1066 H   0  0  0  0  0  0  0  0  0  0  0  0
   56.8387   23.4777   46.1066 H   0  0  0  0  0  0  0  0  0  0  0  0
   56.6063   32.6752   43.6366 H   0  0  0  0  0  0  0  0  0  0  0  0
   57.7084   34.7455   44.4726 H   0  0  0  0  0  0  0  0  0  0  0  0
   59.4867   34.6014   46.2116 H   0  0  0  0  0  0  0  0  0  0  0  0
   60.1980   32.3832   47.0913 H   0  0  0  0  0  0  0  0  0  0  0  0
   58.1435   30.0965   48.2323 H   0  0  0  0  0  0  0  0  0  0  0  0
   58.9927   27.9245   49.1234 H   0  0  0  0  0  0  0  0  0  0  0  0
   60.6043   26.5671   47.7865 H   0  0  0  0  0  0  0  0  0  0  0  0
   61.3552   27.3680   45.5438 H   0  0  0  0  0  0  0  0  0  0  0  0
   60.5079   29.5354   44.6421 H   0  0  0  0  0  0  0  0  0  0  0  0
  1  2  1  0
  2  3  1  0
  3  4  1  0
  4  5  1  0
  5  6  2  3
  6  7  1  0
  7  8  2  0
  7  9  2  0
  7 10  1  0
 10 11  2  0
 11 12  1  0
 12 13  2  0
 13 14  1  0
 14 15  2  0
 15 16  1  0
 16 17  2  0
 17 18  1  0
 18 19  2  0
 19 20  1  0
 20 21  2  0
  5 22  1  0
 22 23  1  0
 22  2  2  0
 15 10  1  0
 21 16  1  0
  1 24  1  0
  1 25  1  0
  1 26  1  0
 11 27  1  0
 12 28  1  0
 13 29  1  0
 14 30  1  0
 17 31  1  0
 18 32  1  0
 19 33  1  0
 20 34  1  0
 21 35  1  0
M  CHG  1   3  -1
M  END
>  <UniqueID>  (36) 
32

>  <SMILES>  (36) 
Cc1[n-]oc(=NS(=O)(=O)c2ccccc2-c2ccccc2)c1Cl

>  <Energy>  (36) 
83.00686559025345

>  <Genealogy>  (36) 
Cc1[n-]oc(=NS(=O)(=O)c2ccccc2-c2ccccc2)c1Cl (protonated)
Cc1[n-]oc(=NS(=O)(=O)c2ccccc2-c2ccccc2)c1Cl (3D coordinates assigned)
Cc1[n-]oc(=NS(=O)(=O)c2ccccc2-c2ccccc2)c1Cl (optimized conformer: 83.00686559025345 kcal/mol)

>  <smiles>  (36) 
Cc1[nH]oc(=NS(=O)(=O)c2ccccc2-c2ccccc2)c1Cl

>  <score_type>  (36) 
oracle

>  <origin>  (36) 
adg

>  <m_score__min__energy>  (36) 
-11.970000000000001

>  <m_primary>  (36) 
energy

$$$$
36:0
     RDKit          3D

 35 36  0  0  0  0  0  0  0  0999 V2000
   60.0315   28.5361   46.2284 H   0  0  0  0  0  0  0  0  0  0  0  0
   58.9910   28.5040   45.8730 C   0  0  0  0  0  0  0  0  0  0  0  0
   58.5730   29.4740   45.1090 N   0  0  0  0  0  0  0  0  0  0  0  0
   58.5120   30.8720   45.4410 C   0  0  0  0  0  0  0  0  0  0  0  0
   59.5600   31.5040   46.1340 C   0  0  0  0  0  0  0  0  0  0  0  0
   60.4535   30.9284   46.4175 H   0  0  0  0  0  0  0  0  0  0  0  0
   59.4730   32.8570   46.4640 C   0  0  0  0  0  0  0  0  0  0  0  0
   60.3035   33.3488   46.9916 H   0  0  0  0  0  0  0  0  0  0  0  0
   58.3330   33.5860   46.1250 C   0  0  0  0  0  0  0  0  0  0  0  0
   58.2701   34.6547   46.3777 H   0  0  0  0  0  0  0  0  0  0  0  0
   57.2720   32.9630   45.4660 C   0  0  0  0  0  0  0  0  0  0  0  0
   56.3714   33.5407   45.2107 H   0  0  0  0  0  0  0  0  0  0  0  0
   57.3490   31.5970   45.1260 C   0  0  0  0  0  0  0  0  0  0  0  0
   56.3030   30.9330   44.4660 O   0  0  0  0  0  0  0  0  0  0  0  0
   56.3640   30.4690   43.1220 C   0  0  0  0  0  0  0  0  0  0  0  0
   56.5074   29.3784   43.1168 H   0  0  0  0  0  0  0  0  0  0  0  0
   55.4254   30.7179   42.6052 H   0  0  0  0  0  0  0  0  0  0  0  0
   57.2064   30.9520   42.6052 H   0  0  0  0  0  0  0  0  0  0  0  0
   58.1470   27.3620   46.2900 C   0  0  0  0  0  0  0  0  0  0  0  0
   58.7380   26.3600   47.0690 C   0  0  0  0  0  0  0  0  0  0  0  0
   59.7864   26.4622   47.3857 H   0  0  0  0  0  0  0  0  0  0  0  0
   58.0090   25.2350   47.4460 C   0  0  0  0  0  0  0  0  0  0  0  0
   58.4869   24.4488   48.0489 H   0  0  0  0  0  0  0  0  0  0  0  0
   56.6760   25.1020   47.0620 C   0  0  0  0  0  0  0  0  0  0  0  0
   56.1122   24.2019   47.3483 H   0  0  0  0  0  0  0  0  0  0  0  0
   56.0460   26.1120   46.3100 C   0  0  0  0  0  0  0  0  0  0  0  0
   54.6970   26.0130   45.9270 O   0  0  0  0  0  0  0  0  0  0  0  0
   54.0450   24.8000   45.5640 C   0  0  0  0  0  0  0  0  0  0  0  0
   53.7520   24.2549   46.4734 H   0  0  0  0  0  0  0  0  0  0  0  0
   53.1486   25.0293   44.9691 H   0  0  0  0  0  0  0  0  0  0  0  0
   54.7308   24.1789   44.9691 H   0  0  0  0  0  0  0  0  0  0  0  0
   56.7780   27.2590   45.9350 C   0  0  0  0  0  0  0  0  0  0  0  0
   56.1150   28.3240   45.2350 N   0  0  0  0  0  0  0  0  0  0  0  0
   56.5610   29.2590   45.1100 H   0  0  0  0  0  0  0  0  0  0  0  0
   55.1400   28.2160   44.8810 H   0  0  0  0  0  0  0  0  0  0  0  0
  1  2  1  0
  2  3  2  0
  3  4  1  0
  4  5  2  0
  5  6  1  0
  5  7  1  0
  7  8  1  0
  7  9  2  0
  9 10  1  0
  9 11  1  0
 11 12  1  0
 11 13  2  0
 13 14  1  0
 14 15  1  0
 15 16  1  0
 15 17  1  0
 15 18  1  0
  2 19  1  0
 19 20  2  0
 20 21  1  0
 20 22  1  0
 22 23  1  0
 22 24  2  0
 24 25  1  0
 24 26  1  0
 26 27  1  0
 27 28  1  0
 28 29  1  0
 28 30  1  0
 28 31  1  0
 26 32  2  0
 32 33  1  0
 33 34  1  0
 33 35  1  0
 13  4  1  0
 32 19  1  0
M  END
>  <UniqueID>  (37) 
33

>  <SMILES>  (37) 
COc1ccccc1/N=C\c1cccc(OC)c1N

>  <Energy>  (37) 
47.70714704138676

>  <Genealogy>  (37) 
COc1ccccc1/N=C\c1cccc(OC)c1N (cis-trans isomerization)
COc1ccccc1/N=C\c1cccc(OC)c1N (3D coordinates assigned)
COc1ccccc1/N=C\c1cccc(OC)c1N (optimized conformer: 47.70714704138676 kcal/mol)

>  <smiles>  (37) 
COc1ccccc1N=Cc1cccc(OC)c1N

>  <score_type>  (37) 
oracle

>  <origin>  (37) 
adg

>  <m_score__min__energy>  (37) 
-7.6900000000000004

>  <m_primary>  (37) 
energy

$$$$
37:0
     RDKit          3D

 29 29  0  0  0  0  0  0  0  0999 V2000
   63.9140   32.9950   48.5770 C   0  0  0  0  0  0  0  0  0  0  0  0
   62.8130   33.8340   47.9100 C   0  0  0  0  0  0  0  0  0  0  0  0
   63.0220   33.8530   46.3910 C   0  0  0  0  0  0  0  0  0  0  0  0
   61.4020   33.2990   48.2440 C   0  0  0  0  0  0  0  0  0  0  0  0
   60.5510   34.3120   49.0240 C   0  0  0  0  0  0  0  0  0  0  0  0
   59.4570   34.8100   48.1910 N   0  0  0  0  0  0  0  0  0  0  0  0
   59.0650   34.2400   46.9250 C   0  0  0  0  0  0  0  0  0  0  0  0
   58.2000   33.1320   46.9140 C   0  0  0  0  0  0  0  0  0  0  0  0
   57.8040   32.5520   45.7060 C   0  0  0  0  0  0  0  0  0  0  0  0
   58.2680   33.0690   44.4940 C   0  0  0  0  0  0  0  0  0  0  0  0
   57.7690   32.3400   42.9790 Cl  0  0  0  0  0  0  0  0  0  0  0  0
   59.1330   34.1660   44.4910 C   0  0  0  0  0  0  0  0  0  0  0  0
   59.5330   34.7500   45.6980 C   0  0  0  0  0  0  0  0  0  0  0  0
   63.8187   33.0677   49.6704 H   0  0  0  0  0  0  0  0  0  0  0  0
   63.8114   31.9440   48.2690 H   0  0  0  0  0  0  0  0  0  0  0  0
   64.9001   33.3727   48.2690 H   0  0  0  0  0  0  0  0  0  0  0  0
   62.8830   34.8578   48.3061 H   0  0  0  0  0  0  0  0  0  0  0  0
   64.0951   33.9506   46.1697 H   0  0  0  0  0  0  0  0  0  0  0  0
   62.6417   32.9166   45.9568 H   0  0  0  0  0  0  0  0  0  0  0  0
   62.4791   34.7055   45.9568 H   0  0  0  0  0  0  0  0  0  0  0  0
   60.8860   33.0570   47.3031 H   0  0  0  0  0  0  0  0  0  0  0  0
   61.5266   32.4109   48.8810 H   0  0  0  0  0  0  0  0  0  0  0  0
   60.1330   33.8229   49.9162 H   0  0  0  0  0  0  0  0  0  0  0  0
   61.1876   35.1591   49.3194 H   0  0  0  0  0  0  0  0  0  0  0  0
   58.9230   35.6350   48.5500 H   0  0  0  0  0  0  0  0  0  0  0  0
   57.8318   32.7181   47.8643 H   0  0  0  0  0  0  0  0  0  0  0  0
   57.1253   31.6863   45.7094 H   0  0  0  0  0  0  0  0  0  0  0  0
   59.5007   34.5718   43.5370 H   0  0  0  0  0  0  0  0  0  0  0  0
   60.2165   35.6118   45.6888 H   0  0  0  0  0  0  0  0  0  0  0  0
  1  2  1  0
  2  3  1  0
  2  4  1  0
  4  5  1  0
  5  6  1  0
  6  7  1  0
  7  8  2  0
  8  9  1  0
  9 10  2  0
 10 11  1  0
 10 12  1  0
 12 13  2  0
 13  7  1  0
  1 14  1  0
  1 15  1  0
  1 16  1  0
  2 17  1  0
  3 18  1  0
  3 19  1  0
  3 20  1  0
  4 21  1  0
  4 22  1  0
  5 23  1  0
  5 24  1  0
  6 25  1  0
  8 26  1  0
  9 27  1  0
 12 28  1  0
 13 29  1  0
M  END
>  <UniqueID>  (38) 
34

>  <SMILES>  (38) 
CC(C)CCNc1ccc(Cl)cc1

>  <Energy>  (38) 
19.35198996626409

>  <Genealogy>  (38) 
CC(C)CCNc1ccc(Cl)cc1 (3D coordinates assigned)
CC(C)CCNc1ccc(Cl)cc1 (optimized conformer: 19.35198996626409 kcal/mol)

>  <smiles>  (38) 
CC(C)CCNc1ccc(Cl)cc1

>  <score_type>  (38) 
oracle

>  <origin>  (38) 
adg

>  <m_score__min__energy>  (38) 
-5.3300000000000001

>  <m_primary>  (38) 
energy

$$$$
38:0
     RDKit          3D

 54 57  0  0  0  0  0  0  0  0999 V2000
   62.8790   33.3070   46.7800 C   0  0  0  0  0  0  0  0  0  0  0  0
   62.3100   32.0760   47.1180 C   0  0  0  0  0  0  0  0  0  0  0  0
   62.6300   31.4660   48.3340 C   0  0  0  0  0  0  0  0  0  0  0  0
   63.5290   32.0840   49.2220 C   0  0  0  0  0  0  0  0  0  0  0  0
   63.8760   31.4180   50.5350 C   0  0  0  0  0  0  0  0  0  0  0  0
   62.8710   31.7010   51.5900 N   0  0  0  0  0  0  0  0  0  0  0  0
   62.6070   33.1650   51.7270 C   0  0  0  0  0  0  0  0  0  0  0  0
   61.2790   33.5880   51.0850 C   0  0  0  0  0  0  0  0  0  0  0  0
   60.1510   32.8800   51.7250 N   0  0  0  0  0  0  0  0  0  0  0  0
   58.8560   33.0900   51.0410 C   0  0  0  0  0  0  0  0  0  0  0  0
   58.5480   32.0550   49.9390 C   0  0  0  0  0  0  0  0  0  0  0  0
   59.5090   32.1820   48.8420 N   0  0  0  0  0  0  0  0  0  0  0  0
   59.3400   33.0960   47.7400 C   0  0  0  0  0  0  0  0  0  0  0  0
   59.7510   34.4350   47.8740 C   0  0  0  0  0  0  0  0  0  0  0  0
   59.6420   35.3260   46.8070 C   0  0  0  0  0  0  0  0  0  0  0  0
   59.1270   34.9010   45.5850 C   0  0  0  0  0  0  0  0  0  0  0  0
   58.7000   33.5770   45.4210 C   0  0  0  0  0  0  0  0  0  0  0  0
   58.1680   33.1600   44.1910 C   0  0  0  0  0  0  0  0  0  0  0  0
   57.7180   31.8500   44.0290 C   0  0  0  0  0  0  0  0  0  0  0  0
   57.7870   30.9490   45.0900 C   0  0  0  0  0  0  0  0  0  0  0  0
   58.3170   31.3460   46.3200 C   0  0  0  0  0  0  0  0  0  0  0  0
   58.7980   32.6600   46.5030 C   0  0  0  0  0  0  0  0  0  0  0  0
   60.4330   31.4710   52.0930 C   0  0  0  0  0  0  0  0  0  0  0  0
   61.6420   30.9080   51.3300 C   0  0  0  0  0  0  0  0  0  0  0  0
   64.0930   33.3240   48.8770 C   0  0  0  0  0  0  0  0  0  0  0  0
   63.7690   33.9300   47.6590 C   0  0  0  0  0  0  0  0  0  0  0  0
   62.6263   33.7854   45.8222 H   0  0  0  0  0  0  0  0  0  0  0  0
   61.6092   31.5865   46.4258 H   0  0  0  0  0  0  0  0  0  0  0  0
   62.1771   30.4989   48.5977 H   0  0  0  0  0  0  0  0  0  0  0  0
   63.9279   30.3305   50.3778 H   0  0  0  0  0  0  0  0  0  0  0  0
   64.8425   31.8203   50.8727 H   0  0  0  0  0  0  0  0  0  0  0  0
   63.2550   31.3640   52.5050 H   0  0  0  0  0  0  0  0  0  0  0  0
   62.5777   33.4191   52.7969 H   0  0  0  0  0  0  0  0  0  0  0  0
   63.4144   33.6993   51.2049 H   0  0  0  0  0  0  0  0  0  0  0  0
   61.1446   34.6725   51.2104 H   0  0  0  0  0  0  0  0  0  0  0  0
   61.3013   33.3320   50.0154 H   0  0  0  0  0  0  0  0  0  0  0  0
   58.0559   33.0404   51.7943 H   0  0  0  0  0  0  0  0  0  0  0  0
   58.9151   34.0707   50.5462 H   0  0  0  0  0  0  0  0  0  0  0  0
   58.6131   31.0423   50.3635 H   0  0  0  0  0  0  0  0  0  0  0  0
   57.5348   32.2355   49.5507 H   0  0  0  0  0  0  0  0  0  0  0  0
   60.3510   31.5650   48.8690 H   0  0  0  0  0  0  0  0  0  0  0  0
   60.1634   34.7832   48.8324 H   0  0  0  0  0  0  0  0  0  0  0  0
   59.9646   36.3703   46.9312 H   0  0  0  0  0  0  0  0  0  0  0  0
   59.0552   35.6078   44.7452 H   0  0  0  0  0  0  0  0  0  0  0  0
   58.1058   33.8687   43.3521 H   0  0  0  0  0  0  0  0  0  0  0  0
   57.3074   31.5269   43.0610 H   0  0  0  0  0  0  0  0  0  0  0  0
   57.4221   29.9197   44.9582 H   0  0  0  0  0  0  0  0  0  0  0  0
   58.3598   30.6285   47.1527 H   0  0  0  0  0  0  0  0  0  0  0  0
   60.6391   31.4202   53.1723 H   0  0  0  0  0  0  0  0  0  0  0  0
   59.5525   30.8676   51.8274 H   0  0  0  0  0  0  0  0  0  0  0  0
   61.8133   29.8693   51.6491 H   0  0  0  0  0  0  0  0  0  0  0  0
   61.4224   30.9573   50.2533 H   0  0  0  0  0  0  0  0  0  0  0  0
   64.7916   33.8196   49.5672 H   0  0  0  0  0  0  0  0  0  0  0  0
   64.2157   34.8992   47.3923 H   0  0  0  0  0  0  0  0  0  0  0  0
  1  2  2  0
  2  3  1  0
  3  4  2  0
  4  5  1  0
  5  6  1  0
  6  7  1  0
  7  8  1  0
  8  9  1  0
  9 10  1  0
 10 11  1  0
 11 12  1  0
 12 13  1  0
 13 14  2  0
 14 15  1  0
 15 16  2  0
 16 17  1  0
 17 18  2  0
 18 19  1  0
 19 20  2  0
 20 21  1  0
 21 22  2  0
  9 23  1  0
 23 24  1  0
  4 25  1  0
 25 26  2  0
 26  1  1  0
 24  6  1  0
 22 13  1  0
 22 17  1  0
  1 27  1  0
  2 28  1  0
  3 29  1  0
  5 30  1  0
  5 31  1  0
  6 32  1  0
  7 33  1  0
  7 34  1  0
  8 35  1  0
  8 36  1  0
 10 37  1  0
 10 38  1  0
 11 39  1  0
 11 40  1  0
 12 41  1  0
 14 42  1  0
 15 43  1  0
 16 44  1  0
 18 45  1  0
 19 46  1  0
 20 47  1  0
 21 48  1  0
 23 49  1  0
 23 50  1  0
 24 51  1  0
 24 52  1  0
 25 53  1  0
 26 54  1  0
M  CHG  1   6   1
M  END
>  <UniqueID>  (39) 
35

>  <SMILES>  (39) 
c1ccc(C[NH+]2CCN(CCNc3cccc4ccccc34)CC2)cc1

>  <Energy>  (39) 
79.17799291675686

>  <Genealogy>  (39) 
c1ccc(C[NH+]2CCN(CCNc3cccc4ccccc34)CC2)cc1 (protonated)
c1ccc(C[NH+]2CCN(CCNc3cccc4ccccc34)CC2)cc1 (3D coordinates assigned)
c1ccc(C[NH+]2CCN(CCNc3cccc4ccccc34)CC2)cc1 (nonaromatic ring conformer: 79.17799291675686 kcal/mol)

>  <smiles>  (39) 
c1ccc(CN2CCN(CCNc3cccc4ccccc34)CC2)cc1

>  <score_type>  (39) 
oracle

>  <origin>  (39) 
adg

>  <m_score__min__energy>  (39) 
-7.3700000000000001

>  <m_primary>  (39) 
energy

$$$$
39:0
     RDKit          3D

 47 49  0  0  0  0  0  0  0  0999 V2000
   58.5750   29.5800   46.9650 C   0  0  0  0  0  0  0  0  0  0  0  0
   57.7860   30.6910   46.5520 O   0  0  0  0  0  0  0  0  0  0  0  0
   57.7510   31.2130   45.2460 C   0  0  0  0  0  0  0  0  0  0  0  0
   57.3810   30.4300   44.1190 C   0  0  0  0  0  0  0  0  0  0  0  0
   56.9180   29.0040   44.2480 C   0  0  0  0  0  0  0  0  0  0  0  0
   57.4010   31.0090   42.8410 C   0  0  0  0  0  0  0  0  0  0  0  0
   57.7180   32.3540   42.6770 C   0  0  0  0  0  0  0  0  0  0  0  0
   58.0300   33.1400   43.7810 C   0  0  0  0  0  0  0  0  0  0  0  0
   58.0740   32.5810   45.0690 C   0  0  0  0  0  0  0  0  0  0  0  0
   58.4390   33.4610   46.2580 C   0  0  0  0  0  0  0  0  0  0  0  0
   59.3360   32.8180   47.2570 N   0  0  0  0  0  0  0  0  0  0  0  0
   60.6490   32.4310   46.6770 C   0  0  0  0  0  0  0  0  0  0  0  0
   61.6600   32.0530   47.7650 C   0  0  0  0  0  0  0  0  0  0  0  0
   61.8530   33.1840   48.6840 N   0  0  0  0  0  0  0  0  0  0  0  0
   63.0780   33.3100   49.4390 C   0  0  0  0  0  0  0  0  0  0  0  0
   63.1320   34.1190   50.5910 C   0  0  0  0  0  0  0  0  0  0  0  0
   64.3210   34.2400   51.3170 C   0  0  0  0  0  0  0  0  0  0  0  0
   65.4680   33.5590   50.9040 C   0  0  0  0  0  0  0  0  0  0  0  0
   65.4290   32.7560   49.7620 C   0  0  0  0  0  0  0  0  0  0  0  0
   64.2430   32.6310   49.0320 C   0  0  0  0  0  0  0  0  0  0  0  0
   60.8070   34.2120   48.7710 C   0  0  0  0  0  0  0  0  0  0  0  0
   59.4300   33.5760   48.5390 C   0  0  0  0  0  0  0  0  0  0  0  0
   58.6040   29.5392   48.0639 H   0  0  0  0  0  0  0  0  0  0  0  0
   58.1330   28.6512   46.5751 H   0  0  0  0  0  0  0  0  0  0  0  0
   59.5975   29.6913   46.5751 H   0  0  0  0  0  0  0  0  0  0  0  0
   56.8326   28.7411   45.3127 H   0  0  0  0  0  0  0  0  0  0  0  0
   55.9372   28.8916   43.7628 H   0  0  0  0  0  0  0  0  0  0  0  0
   57.6457   28.3369   43.7628 H   0  0  0  0  0  0  0  0  0  0  0  0
   57.1639   30.3939   41.9604 H   0  0  0  0  0  0  0  0  0  0  0  0
   57.7218   32.7972   41.6702 H   0  0  0  0  0  0  0  0  0  0  0  0
   58.2445   34.2102   43.6443 H   0  0  0  0  0  0  0  0  0  0  0  0
   58.9419   34.3616   45.8759 H   0  0  0  0  0  0  0  0  0  0  0  0
   57.4972   33.6801   46.7824 H   0  0  0  0  0  0  0  0  0  0  0  0
   58.8620   31.9130   47.4970 H   0  0  0  0  0  0  0  0  0  0  0  0
   60.5038   31.5684   46.0101 H   0  0  0  0  0  0  0  0  0  0  0  0
   61.0473   33.2943   46.1238 H   0  0  0  0  0  0  0  0  0  0  0  0
   61.2832   31.1862   48.3277 H   0  0  0  0  0  0  0  0  0  0  0  0
   62.6216   31.8013   47.2939 H   0  0  0  0  0  0  0  0  0  0  0  0
   62.2327   34.6592   50.9217 H   0  0  0  0  0  0  0  0  0  0  0  0
   64.3529   34.8733   52.2158 H   0  0  0  0  0  0  0  0  0  0  0  0
   66.4016   33.6549   51.4777 H   0  0  0  0  0  0  0  0  0  0  0  0
   66.3331   32.2208   49.4362 H   0  0  0  0  0  0  0  0  0  0  0  0
   64.2196   31.9976   48.1330 H   0  0  0  0  0  0  0  0  0  0  0  0
   60.8319   34.6743   49.7688 H   0  0  0  0  0  0  0  0  0  0  0  0
   60.9867   34.9778   48.0021 H   0  0  0  0  0  0  0  0  0  0  0  0
   59.2208   32.8850   49.3689 H   0  0  0  0  0  0  0  0  0  0  0  0
   58.6983   34.3957   48.4861 H   0  0  0  0  0  0  0  0  0  0  0  0
  1  2  1  0
  2  3  1  0
  3  4  2  0
  4  5  1  0
  4  6  1  0
  6  7  2  0
  7  8  1  0
  8  9  2  0
  9 10  1  0
 10 11  1  0
 11 12  1  0
 12 13  1  0
 13 14  1  0
 14 15  1  0
 15 16  2  0
 16 17  1  0
 17 18  2  0
 18 19  1  0
 19 20  2  0
 14 21  1  0
 21 22  1  0
  9  3  1  0
 22 11  1  0
 20 15  1  0
  1 23  1  0
  1 24  1  0
  1 25  1  0
  5 26  1  0
  5 27  1  0
  5 28  1  0
  6 29  1  0
  7 30  1  0
  8 31  1  0
 10 32  1  0
 10 33  1  0
 11 34  1  0
 12 35  1  0
 12 36  1  0
 13 37  1  0
 13 38  1  0
 16 39  1  0
 17 40  1  0
 18 41  1  0
 19 42  1  0
 20 43  1  0
 21 44  1  0
 21 45  1  0
 22 46  1  0
 22 47  1  0
M  CHG  1  11   1
M  END
>  <UniqueID>  (40) 
36

>  <SMILES>  (40) 
COc1c(C)cccc1C[NH+]1CCN(c2ccccc2)CC1

>  <Energy>  (40) 
68.71825709351997

>  <Genealogy>  (40) 
COc1c(C)cccc1C[NH+]1CCN(c2ccccc2)CC1 (protonated)
COc1c(C)cccc1C[NH+]1CCN(c2ccccc2)CC1 (3D coordinates assigned)
COc1c(C)cccc1C[NH+]1CCN(c2ccccc2)CC1 (nonaromatic ring conformer: 68.71825709351997 kcal/mol)

>  <smiles>  (40) 
COc1c(C)cccc1CN1CCN(c2ccccc2)CC1

>  <score_type>  (40) 
oracle

>  <origin>  (40) 
adg

>  <m_score__min__energy>  (40) 
-5.0099999999999998

>  <m_primary>  (40) 
energy

$$$$
40:0
     RDKit          3D

 39 41  0  0  0  0  0  0  0  0999 V2000
   57.3770   32.3430   41.4200 C   0  0  0  0  0  0  0  0  0  0  0  0
   57.3810   31.5130   42.6770 C   0  0  0  0  0  0  0  0  0  0  0  0
   56.6610   30.3050   42.6930 C   0  0  0  0  0  0  0  0  0  0  0  0
   56.6500   29.4970   43.8300 C   0  0  0  0  0  0  0  0  0  0  0  0
   57.3620   29.8790   44.9640 C   0  0  0  0  0  0  0  0  0  0  0  0
   58.0770   31.0770   44.9710 C   0  0  0  0  0  0  0  0  0  0  0  0
   58.0840   31.9180   43.8420 C   0  0  0  0  0  0  0  0  0  0  0  0
   58.8840   33.2040   43.9130 C   0  0  0  0  0  0  0  0  0  0  0  0
   58.2120   34.2080   44.7700 N   0  0  0  0  0  0  0  0  0  0  0  0
   56.9920   33.6690   45.4260 C   0  0  0  0  0  0  0  0  0  0  0  0
   57.1440   33.4630   46.9420 C   0  0  0  0  0  0  0  0  0  0  0  0
   58.4860   32.9390   47.2540 N   0  0  0  0  0  0  0  0  0  0  0  0
   58.6440   32.7000   48.7020 C   0  0  0  0  0  0  0  0  0  0  0  0
   59.7640   33.5960   49.2220 C   0  0  0  0  0  0  0  0  0  0  0  0
   59.9910   34.6130   48.1290 C   0  0  0  0  0  0  0  0  0  0  0  0
   59.5490   33.8860   46.8680 C   0  0  2  0  0  0  0  0  0  0  0  0
   59.1340   34.8540   45.7310 C   0  0  0  0  0  0  0  0  0  0  0  0
   57.3719   33.4105   41.6855 H   0  0  0  0  0  0  0  0  0  0  0  0
   58.2762   32.1167   40.8283 H   0  0  0  0  0  0  0  0  0  0  0  0
   56.4800   32.1080   40.8283 H   0  0  0  0  0  0  0  0  0  0  0  0
   56.1004   29.9939   41.7991 H   0  0  0  0  0  0  0  0  0  0  0  0
   56.0783   28.5572   43.8308 H   0  0  0  0  0  0  0  0  0  0  0  0
   57.3607   29.2351   45.8559 H   0  0  0  0  0  0  0  0  0  0  0  0
   58.6418   31.3678   45.8690 H   0  0  0  0  0  0  0  0  0  0  0  0
   59.8783   32.9851   44.3294 H   0  0  0  0  0  0  0  0  0  0  0  0
   58.9704   33.6163   42.8968 H   0  0  0  0  0  0  0  0  0  0  0  0
   56.1648   34.3731   45.2526 H   0  0  0  0  0  0  0  0  0  0  0  0
   56.8010   32.6795   44.9851 H   0  0  0  0  0  0  0  0  0  0  0  0
   57.0017   34.4254   47.4553 H   0  0  0  0  0  0  0  0  0  0  0  0
   56.3887   32.7395   47.2828 H   0  0  0  0  0  0  0  0  0  0  0  0
   57.7050   32.9403   49.2222 H   0  0  0  0  0  0  0  0  0  0  0  0
   58.8913   31.6438   48.8845 H   0  0  0  0  0  0  0  0  0  0  0  0
   59.4599   34.0928   50.1551 H   0  0  0  0  0  0  0  0  0  0  0  0
   60.6762   33.0257   49.4514 H   0  0  0  0  0  0  0  0  0  0  0  0
   59.3819   35.5134   48.2974 H   0  0  0  0  0  0  0  0  0  0  0  0
   61.0330   34.9617   48.0788 H   0  0  0  0  0  0  0  0  0  0  0  0
   60.3934   33.3288   46.4360 H   0  0  0  0  0  0  0  0  0  0  0  0
   58.6333   35.7283   46.1724 H   0  0  0  0  0  0  0  0  0  0  0  0
   60.0421   35.1523   45.1867 H   0  0  0  0  0  0  0  0  0  0  0  0
  1  2  1  0
  2  3  2  0
  3  4  1  0
  4  5  2  0
  5  6  1  0
  6  7  2  0
  7  8  1  0
  8  9  1  0
  9 10  1  0
 10 11  1  0
 11 12  1  0
 12 13  1  0
 13 14  1  0
 14 15  1  0
 15 16  1  0
 16 17  1  0
  7  2  1  0
 17  9  1  0
 16 12  1  0
  1 18  1  0
  1 19  1  0
  1 20  1  0
  3 21  1  0
  4 22  1  0
  5 23  1  0
  6 24  1  0
  8 25  1  0
  8 26  1  0
 10 27  1  0
 10 28  1  0
 11 29  1  0
 11 30  1  0
 13 31  1  0
 13 32  1  0
 14 33  1  0
 14 34  1  0
 15 35  1  0
 15 36  1  0
 16 37  1  6
 17 38  1  0
 17 39  1  0
M  END
>  <UniqueID>  (41) 
37

>  <SMILES>  (41) 
Cc1ccccc1CN1CCN2CCC[C@@H]2C1

>  <Energy>  (41) 
54.448664157320245

>  <Genealogy>  (41) 
Cc1ccccc1CN1CCN2CCC[C@@H]2C1 (chirality)
Cc1ccccc1CN1CCN2CCC[C@@H]2C1 (3D coordinates assigned)
Cc1ccccc1CN1CCN2CCC[C@@H]2C1 (nonaromatic ring conformer: 54.448664157320245 kcal/mol)

>  <smiles>  (41) 
Cc1ccccc1CN1CCN2CCCC2C1

>  <score_type>  (41) 
oracle

>  <origin>  (41) 
adg

>  <m_score__min__energy>  (41) 
-6.8200000000000003

>  <m_primary>  (41) 
energy

$$$$
41:0
     RDKit          3D

 43 45  0  0  0  0  0  0  0  0999 V2000
   57.3780   31.5990   42.5290 C   0  0  0  0  0  0  0  0  0  0  0  0
   57.9740   32.0830   43.8240 C   0  0  0  0  0  0  0  0  0  0  0  0
   57.9500   33.4540   44.1130 C   0  0  0  0  0  0  0  0  0  0  0  0
   58.5080   33.9370   45.2920 C   0  0  0  0  0  0  0  0  0  0  0  0
   59.0900   33.0580   46.2020 C   0  0  0  0  0  0  0  0  0  0  0  0
   59.1050   31.6700   45.9670 C   0  0  0  0  0  0  0  0  0  0  0  0
   59.7720   30.7830   47.0170 C   0  0  0  0  0  0  0  0  0  0  0  0
   61.2940   30.9690   47.1120 C   0  0  0  0  0  0  0  0  0  0  0  0
   59.0960   30.9290   48.3850 C   0  0  0  0  0  0  0  0  0  0  0  0
   58.5320   31.1780   44.7600 C   0  0  0  0  0  0  0  0  0  0  0  0
   58.5260   29.7740   44.4650 N   0  0  0  0  0  0  0  0  0  0  0  0
   57.8270   28.8330   45.2950 C   0  0  0  0  0  0  0  0  0  0  0  0
   57.3990   29.1980   46.4240 O   0  0  0  0  0  0  0  0  0  0  0  0
   57.6260   27.4310   44.8590 C   0  0  0  0  0  0  0  0  0  0  0  0
   57.0670   26.4910   45.7400 C   0  0  0  0  0  0  0  0  0  0  0  0
   56.8700   25.1670   45.3390 C   0  0  0  0  0  0  0  0  0  0  0  0
   57.2210   24.7530   44.0420 C   0  0  0  0  0  0  0  0  0  0  0  0
   57.0250   23.3900   43.6110 N   0  0  0  0  0  0  0  0  0  0  0  0
   57.7120   22.2850   43.9550 C   0  0  0  0  0  0  0  0  0  0  0  0
   57.1980   21.2140   43.3220 N   0  0  0  0  0  0  0  0  0  0  0  0
   56.1960   21.6850   42.5930 N   0  0  0  0  0  0  0  0  0  0  0  0
   56.0900   22.9940   42.7650 N   0  0  0  0  0  0  0  0  0  0  0  0
   57.7680   25.6970   43.1560 C   0  0  0  0  0  0  0  0  0  0  0  0
   57.9660   27.0210   43.5580 C   0  0  0  0  0  0  0  0  0  0  0  0
   56.5403   30.9188   42.7425 H   0  0  0  0  0  0  0  0  0  0  0  0
   57.0129   32.4595   41.9491 H   0  0  0  0  0  0  0  0  0  0  0  0
   58.1453   31.0651   41.9491 H   0  0  0  0  0  0  0  0  0  0  0  0
   57.4863   34.1536   43.4020 H   0  0  0  0  0  0  0  0  0  0  0  0
   58.4895   35.0158   45.5061 H   0  0  0  0  0  0  0  0  0  0  0  0
   59.5461   33.4553   47.1208 H   0  0  0  0  0  0  0  0  0  0  0  0
   59.6252   29.7493   46.6706 H   0  0  0  0  0  0  0  0  0  0  0  0
   61.5936   31.0056   48.1698 H   0  0  0  0  0  0  0  0  0  0  0  0
   61.7980   30.1258   46.6171 H   0  0  0  0  0  0  0  0  0  0  0  0
   61.5801   31.9088   46.6171 H   0  0  0  0  0  0  0  0  0  0  0  0
   59.8390   30.7685   49.1801 H   0  0  0  0  0  0  0  0  0  0  0  0
   58.6716   31.9395   48.4783 H   0  0  0  0  0  0  0  0  0  0  0  0
   58.2924   30.1837   48.4783 H   0  0  0  0  0  0  0  0  0  0  0  0
   59.0880   29.4330   43.6570 H   0  0  0  0  0  0  0  0  0  0  0  0
   56.7813   26.8002   46.7563 H   0  0  0  0  0  0  0  0  0  0  0  0
   56.4366   24.4424   46.0441 H   0  0  0  0  0  0  0  0  0  0  0  0
   58.5651   22.2607   44.6490 H   0  0  0  0  0  0  0  0  0  0  0  0
   58.0431   25.3908   42.1359 H   0  0  0  0  0  0  0  0  0  0  0  0
   58.3913   27.7481   42.8506 H   0  0  0  0  0  0  0  0  0  0  0  0
  1  2  1  0
  2  3  2  0
  3  4  1  0
  4  5  2  0
  5  6  1  0
  6  7  1  0
  7  8  1  0
  7  9  1  0
  6 10  2  0
 10 11  1  0
 11 12  1  0
 12 13  2  0
 12 14  1  0
 14 15  2  0
 15 16  1  0
 16 17  2  0
 17 18  1  0
 18 19  1  0
 19 20  2  0
 20 21  1  0
 21 22  2  0
 17 23  1  0
 23 24  2  0
 10  2  1  0
 24 14  1  0
 22 18  1  0
  1 25  1  0
  1 26  1  0
  1 27  1  0
  3 28  1  0
  4 29  1  0
  5 30  1  0
  7 31  1  0
  8 32  1  0
  8 33  1  0
  8 34  1  0
  9 35  1  0
  9 36  1  0
  9 37  1  0
 11 38  1  0
 15 39  1  0
 16 40  1  0
 19 41  1  0
 23 42  1  0
 24 43  1  0
M  END
>  <UniqueID>  (42) 
38

>  <SMILES>  (42) 
Cc1cccc(C(C)C)c1NC(=O)c1ccc(-n2cnnn2)cc1

>  <Energy>  (42) 
95.34061491073243

>  <Genealogy>  (42) 
Cc1cccc(C(C)C)c1NC(=O)c1ccc(-n2cnnn2)cc1 (3D coordinates assigned)
Cc1cccc(C(C)C)c1NC(=O)c1ccc(-n2cnnn2)cc1 (optimized conformer: 95.34061491073243 kcal/mol)

>  <smiles>  (42) 
Cc1cccc(C(C)C)c1NC(=O)c1ccc(-n2cnnn2)cc1

>  <score_type>  (42) 
oracle

>  <origin>  (42) 
adg

>  <m_score__min__energy>  (42) 
-8.6899999999999995

>  <m_primary>  (42) 
energy

$$$$
42:0
     RDKit          3D

 28 28  0  0  0  0  0  0  0  0999 V2000
   61.7920   33.5570   47.4700 C   0  0  0  0  0  0  0  0  0  0  0  0
   61.1860   34.1920   46.3510 O   0  0  0  0  0  0  0  0  0  0  0  0
   59.9330   34.8080   46.4240 C   0  0  0  0  0  0  0  0  0  0  0  0
   59.6620   35.8060   45.7040 O   0  0  0  0  0  0  0  0  0  0  0  0
   58.8960   34.2490   47.3440 C   0  0  0  0  0  0  0  0  0  0  0  0
   58.7000   32.8290   47.0660 N   0  0  0  0  0  0  0  0  0  0  0  0
   58.9740   31.8640   47.9340 N   0  0  0  0  0  0  0  0  0  0  0  0
   58.7490   30.6970   47.2900 C   0  0  0  0  0  0  0  0  0  0  0  0
   58.9440   29.3520   47.9220 C   0  0  0  0  0  0  0  0  0  0  0  0
   58.5880   29.4090   49.2550 F   0  0  0  0  0  0  0  0  0  0  0  0
   60.2660   28.9620   47.8120 F   0  0  0  0  0  0  0  0  0  0  0  0
   58.1510   28.4160   47.2840 F   0  0  0  0  0  0  0  0  0  0  0  0
   58.3610   30.9180   46.0150 N   0  0  0  0  0  0  0  0  0  0  0  0
   58.0880   29.9800   45.0070 N   0  0  0  0  0  0  0  0  0  0  0  0
   56.4910   29.7800   44.3740 S   0  0  0  0  0  0  0  0  0  0  0  0
   56.5750   29.3550   42.6470 C   0  0  0  0  0  0  0  0  0  0  0  0
   55.7450   31.0770   44.5100 O   0  0  0  0  0  0  0  0  0  0  0  0
   55.7660   28.7060   45.1330 O   0  0  0  0  0  0  0  0  0  0  0  0
   58.3300   32.2550   45.9010 C   0  0  0  0  0  0  0  0  0  0  0  0
   57.9760   33.0610   44.5160 S   0  0  0  0  0  0  0  0  0  0  0  0
   61.3849   33.9836   48.3986 H   0  0  0  0  0  0  0  0  0  0  0  0
   61.5802   32.4780   47.4385 H   0  0  0  0  0  0  0  0  0  0  0  0
   62.8797   33.7182   47.4385 H   0  0  0  0  0  0  0  0  0  0  0  0
   59.2263   34.3747   48.3857 H   0  0  0  0  0  0  0  0  0  0  0  0
   57.9472   34.7833   47.1883 H   0  0  0  0  0  0  0  0  0  0  0  0
   56.7873   28.2806   42.5437 H   0  0  0  0  0  0  0  0  0  0  0  0
   55.6137   29.5867   42.1652 H   0  0  0  0  0  0  0  0  0  0  0  0
   57.3759   29.9350   42.1652 H   0  0  0  0  0  0  0  0  0  0  0  0
  1  2  1  0
  2  3  1  0
  3  4  2  0
  3  5  1  0
  5  6  1  0
  6  7  1  0
  7  8  2  0
  8  9  1  0
  9 10  1  0
  9 11  1  0
  9 12  1  0
  8 13  1  0
 13 14  1  0
 14 15  1  0
 15 16  1  0
 15 17  2  0
 15 18  2  0
 13 19  1  0
 19 20  2  0
 19  6  1  0
  1 21  1  0
  1 22  1  0
  1 23  1  0
  5 24  1  0
  5 25  1  0
 16 26  1  0
 16 27  1  0
 16 28  1  0
M  CHG  1  14  -1
M  END
>  <UniqueID>  (43) 
39

>  <SMILES>  (43) 
COC(=O)Cn1nc(C(F)(F)F)n([N-]S(C)(=O)=O)c1=S

>  <Energy>  (43) 
64.03429791806109

>  <Genealogy>  (43) 
COC(=O)Cn1nc(C(F)(F)F)n([N-]S(C)(=O)=O)c1=S (protonated)
COC(=O)Cn1nc(C(F)(F)F)n([N-]S(C)(=O)=O)c1=S (3D coordinates assigned)
COC(=O)Cn1nc(C(F)(F)F)n([N-]S(C)(=O)=O)c1=S (optimized conformer: 64.03429791806109 kcal/mol)

>  <smiles>  (43) 
COC(=O)Cn1nc(C(F)(F)F)n(NS(C)(=O)=O)c1=S

>  <score_type>  (43) 
oracle

>  <origin>  (43) 
adg

>  <m_score__min__energy>  (43) 
-6.9299999999999997

>  <m_primary>  (43) 
energy

$$$$
43:0
     RDKit          3D

 40 41  0  0  0  0  0  0  0  0999 V2000
   61.6170   34.2110   49.3460 C   0  0  0  0  0  0  0  0  0  0  0  0
   60.7450   33.3570   48.4750 C   0  0  0  0  0  0  0  0  0  0  0  0
   61.3180   32.5020   47.5230 C   0  0  0  0  0  0  0  0  0  0  0  0
   60.5080   31.6790   46.7360 C   0  0  0  0  0  0  0  0  0  0  0  0
   59.1120   31.6840   46.9000 C   0  0  0  0  0  0  0  0  0  0  0  0
   58.2720   30.8430   46.0790 N   0  0  0  0  0  0  0  0  0  0  0  0
   57.5100   31.4090   44.9920 C   0  0  0  0  0  0  0  0  0  0  0  0
   56.2890   31.1180   44.8640 O   0  0  0  0  0  0  0  0  0  0  0  0
   58.1460   32.3360   43.9910 C   0  0  0  0  0  0  0  0  0  0  0  0
   57.9880   33.7450   44.4040 N   0  0  0  0  0  0  0  0  0  0  0  0
   59.2670   34.3060   44.8740 C   0  0  0  0  0  0  0  0  0  0  0  0
   56.9790   33.8510   45.4690 C   0  0  0  0  0  0  0  0  0  0  0  0
   58.1870   29.4370   46.3690 C   0  0  0  0  0  0  0  0  0  0  0  0
   58.9200   28.8900   47.4330 C   0  0  0  0  0  0  0  0  0  0  0  0
   58.8400   27.5230   47.7140 C   0  0  0  0  0  0  0  0  0  0  0  0
   58.0370   26.6910   46.9270 C   0  0  0  0  0  0  0  0  0  0  0  0
   57.9560   25.3330   47.2080 O   0  0  0  0  0  0  0  0  0  0  0  0
   57.3140   27.2280   45.8570 C   0  0  0  0  0  0  0  0  0  0  0  0
   57.3930   28.5950   45.5730 C   0  0  0  0  0  0  0  0  0  0  0  0
   58.5430   32.5350   47.8640 C   0  0  0  0  0  0  0  0  0  0  0  0
   59.3530   33.3570   48.6510 C   0  0  0  0  0  0  0  0  0  0  0  0
   61.3998   33.9983   50.4032 H   0  0  0  0  0  0  0  0  0  0  0  0
   62.6739   33.9889   49.1369 H   0  0  0  0  0  0  0  0  0  0  0  0
   61.4170   35.2723   49.1369 H   0  0  0  0  0  0  0  0  0  0  0  0
   62.4103   32.4789   47.3950 H   0  0  0  0  0  0  0  0  0  0  0  0
   60.9665   31.0221   45.9822 H   0  0  0  0  0  0  0  0  0  0  0  0
   59.2179   32.1014   43.9131 H   0  0  0  0  0  0  0  0  0  0  0  0
   57.6509   32.1968   43.0186 H   0  0  0  0  0  0  0  0  0  0  0  0
   59.2823   34.3127   45.9739 H   0  0  0  0  0  0  0  0  0  0  0  0
   60.0975   33.6895   44.4995 H   0  0  0  0  0  0  0  0  0  0  0  0
   59.3759   35.3345   44.4995 H   0  0  0  0  0  0  0  0  0  0  0  0
   57.4743   33.7990   46.4498 H   0  0  0  0  0  0  0  0  0  0  0  0
   56.4479   34.8099   45.3768 H   0  0  0  0  0  0  0  0  0  0  0  0
   56.2602   33.0234   45.3768 H   0  0  0  0  0  0  0  0  0  0  0  0
   59.5601   29.5393   48.0484 H   0  0  0  0  0  0  0  0  0  0  0  0
   59.4094   27.1010   48.5553 H   0  0  0  0  0  0  0  0  0  0  0  0
   56.6823   26.5741   45.2379 H   0  0  0  0  0  0  0  0  0  0  0  0
   56.8318   29.0121   44.7238 H   0  0  0  0  0  0  0  0  0  0  0  0
   57.4515   32.5535   47.9994 H   0  0  0  0  0  0  0  0  0  0  0  0
   58.8974   34.0073   49.4123 H   0  0  0  0  0  0  0  0  0  0  0  0
  1  2  1  0
  2  3  2  0
  3  4  1  0
  4  5  2  0
  5  6  1  0
  6  7  1  0
  7  8  2  0
  7  9  1  0
  9 10  1  0
 10 11  1  0
 10 12  1  0
  6 13  1  0
 13 14  2  0
 14 15  1  0
 15 16  2  0
 16 17  1  0
 16 18  1  0
 18 19  2  0
  5 20  1  0
 20 21  2  0
 21  2  1  0
 19 13  1  0
  1 22  1  0
  1 23  1  0
  1 24  1  0
  3 25  1  0
  4 26  1  0
  9 27  1  0
  9 28  1  0
 11 29  1  0
 11 30  1  0
 11 31  1  0
 12 32  1  0
 12 33  1  0
 12 34  1  0
 14 35  1  0
 15 36  1  0
 18 37  1  0
 19 38  1  0
 20 39  1  0
 21 40  1  0
M  CHG  1  17  -1
M  END
>  <UniqueID>  (44) 
40

>  <SMILES>  (44) 
Cc1ccc(N(C(=O)CN(C)C)c2ccc([O-])cc2)cc1

>  <Energy>  (44) 
49.542178987122426

>  <Genealogy>  (44) 
Cc1ccc(N(C(=O)CN(C)C)c2ccc([O-])cc2)cc1 (protonated)
Cc1ccc(N(C(=O)CN(C)C)c2ccc([O-])cc2)cc1 (3D coordinates assigned)
Cc1ccc(N(C(=O)CN(C)C)c2ccc([O-])cc2)cc1 (optimized conformer: 49.542178987122426 kcal/mol)

>  <smiles>  (44) 
Cc1ccc(N(C(=O)CN(C)C)c2ccc(O)cc2)cc1

>  <score_type>  (44) 
oracle

>  <origin>  (44) 
adg

>  <m_score__min__energy>  (44) 
-9.2400000000000002

>  <m_primary>  (44) 
energy

$$$$
44:0
     RDKit          3D

 38 39  0  0  0  0  0  0  0  0999 V2000
   60.3080   29.4710   46.3910 C   0  0  0  0  0  0  0  0  0  0  0  0
   59.9720   29.6520   44.9130 C   0  0  0  0  0  0  0  0  0  0  0  0
   58.5250   29.8010   44.7230 N   0  0  0  0  0  0  0  0  0  0  0  0
   57.6810   28.9130   44.1560 C   0  0  0  0  0  0  0  0  0  0  0  0
   58.1430   27.2780   43.5700 S   0  0  0  0  0  0  0  0  0  0  0  0
   58.5720   26.6170   45.2220 C   0  0  0  0  0  0  0  0  0  0  0  0
   57.5790   27.0910   46.2850 C   0  0  0  0  0  0  0  0  0  0  0  0
   56.2130   27.0660   45.7580 N   0  0  0  0  0  0  0  0  0  0  0  0
   55.5900   25.4450   45.7880 S   0  0  0  0  0  0  0  0  0  0  0  0
   56.2780   24.4760   44.4610 C   0  0  0  0  0  0  0  0  0  0  0  0
   55.9160   24.7950   47.1040 O   0  0  0  0  0  0  0  0  0  0  0  0
   54.0970   25.4950   45.6260 O   0  0  0  0  0  0  0  0  0  0  0  0
   56.4350   29.4080   44.0530 N   0  0  0  0  0  0  0  0  0  0  0  0
   56.4670   30.6380   44.5420 N   0  0  0  0  0  0  0  0  0  0  0  0
   57.7300   30.8730   44.9530 C   0  0  0  0  0  0  0  0  0  0  0  0
   58.1560   32.1750   45.5070 C   0  0  0  0  0  0  0  0  0  0  0  0
   58.4780   32.3300   46.8630 C   0  0  0  0  0  0  0  0  0  0  0  0
   58.8520   33.5810   47.3560 C   0  0  0  0  0  0  0  0  0  0  0  0
   58.8870   34.6750   46.4910 C   0  0  0  0  0  0  0  0  0  0  0  0
   58.5510   34.5180   45.1830 N   0  0  0  0  0  0  0  0  0  0  0  0
   58.1840   33.3090   44.6790 C   0  0  0  0  0  0  0  0  0  0  0  0
   59.5047   29.9038   47.0053 H   0  0  0  0  0  0  0  0  0  0  0  0
   60.4048   28.3987   46.6164 H   0  0  0  0  0  0  0  0  0  0  0  0
   61.2567   29.9801   46.6164 H   0  0  0  0  0  0  0  0  0  0  0  0
   60.4800   30.5515   44.5350 H   0  0  0  0  0  0  0  0  0  0  0  0
   60.3104   28.7618   44.3625 H   0  0  0  0  0  0  0  0  0  0  0  0
   58.5577   25.5178   45.1830 H   0  0  0  0  0  0  0  0  0  0  0  0
   59.5729   26.9836   45.4936 H   0  0  0  0  0  0  0  0  0  0  0  0
   57.6416   26.4277   47.1603 H   0  0  0  0  0  0  0  0  0  0  0  0
   57.8307   28.1225   46.5723 H   0  0  0  0  0  0  0  0  0  0  0  0
   56.2430   27.3630   44.7550 H   0  0  0  0  0  0  0  0  0  0  0  0
   56.8669   23.6466   44.8797 H   0  0  0  0  0  0  0  0  0  0  0  0
   55.4637   24.0716   43.8419 H   0  0  0  0  0  0  0  0  0  0  0  0
   56.9283   25.1115   43.8419 H   0  0  0  0  0  0  0  0  0  0  0  0
   58.4357   31.4637   47.5396 H   0  0  0  0  0  0  0  0  0  0  0  0
   59.1167   33.7032   48.4167 H   0  0  0  0  0  0  0  0  0  0  0  0
   59.1864   35.6644   46.8672 H   0  0  0  0  0  0  0  0  0  0  0  0
   57.9079   33.2191   43.6180 H   0  0  0  0  0  0  0  0  0  0  0  0
  1  2  1  0
  2  3  1  0
  3  4  1  0
  4  5  1  0
  5  6  1  0
  6  7  1  0
  7  8  1  0
  8  9  1  0
  9 10  1  0
  9 11  2  0
  9 12  2  0
  4 13  2  0
 13 14  1  0
 14 15  2  0
 15 16  1  0
 16 17  2  0
 17 18  1  0
 18 19  2  0
 19 20  1  0
 20 21  2  0
 15  3  1  0
 21 16  1  0
  1 22  1  0
  1 23  1  0
  1 24  1  0
  2 25  1  0
  2 26  1  0
  6 27  1  0
  6 28  1  0
  7 29  1  0
  7 30  1  0
  8 31  1  0
 10 32  1  0
 10 33  1  0
 10 34  1  0
 17 35  1  0
 18 36  1  0
 19 37  1  0
 21 38  1  0
M  END
>  <UniqueID>  (45) 
41

>  <SMILES>  (45) 
CCn1c(SCCNS(C)(=O)=O)nnc1-c1cccnc1

>  <Energy>  (45) 
63.690905209978325

>  <Genealogy>  (45) 
CCn1c(SCCNS(C)(=O)=O)nnc1-c1cccnc1 (3D coordinates assigned)
CCn1c(SCCNS(C)(=O)=O)nnc1-c1cccnc1 (optimized conformer: 63.690905209978325 kcal/mol)

>  <smiles>  (45) 
CCn1c(SCCNS(C)(=O)=O)nnc1-c1cccnc1

>  <score_type>  (45) 
oracle

>  <origin>  (45) 
adg

>  <m_score__min__energy>  (45) 
-8.0500000000000007

>  <m_primary>  (45) 
energy

$$$$
45:0
     RDKit          3D

 43 44  0  0  0  0  0  0  0  0999 V2000
   55.6000   29.7440   44.2020 C   0  0  0  0  0  0  0  0  0  0  0  0
   56.8970   29.7820   43.3750 C   0  0  0  0  0  0  0  0  0  0  0  0
   58.1390   29.3930   44.1020 N   0  0  1  0  0  0  0  0  0  0  0  0
   58.8720   30.5130   44.7440 C   0  0  0  0  0  0  0  0  0  0  0  0
   57.9550   31.6790   45.2090 C   0  0  0  0  0  0  0  0  0  0  0  0
   58.0060   32.8750   44.2180 C   0  0  0  0  0  0  0  0  0  0  0  0
   57.6680   34.2020   44.9040 C   0  0  0  0  0  0  0  0  0  0  0  0
   58.6850   34.5380   46.0130 C   0  0  0  0  0  0  0  0  0  0  0  0
   59.2860   33.2890   46.6900 C   0  0  0  0  0  0  0  0  0  0  0  0
   58.3110   32.1070   46.6610 C   0  0  0  0  0  0  0  0  0  0  0  0
   57.8750   28.3540   45.0830 C   0  0  0  0  0  0  0  0  0  0  0  0
   57.9770   28.6100   46.3150 O   0  0  0  0  0  0  0  0  0  0  0  0
   57.5170   26.9690   44.6770 C   0  0  0  0  0  0  0  0  0  0  0  0
   56.9410   26.0950   45.6160 C   0  0  0  0  0  0  0  0  0  0  0  0
   56.6050   24.7860   45.2580 C   0  0  0  0  0  0  0  0  0  0  0  0
   56.8470   24.3300   43.9580 C   0  0  0  0  0  0  0  0  0  0  0  0
   56.5030   22.9820   43.5900 C   0  0  0  0  0  0  0  0  0  0  0  0
   56.2260   21.8980   43.2940 N   0  0  0  0  0  0  0  0  0  0  0  0
   57.4340   25.1860   43.0190 C   0  0  0  0  0  0  0  0  0  0  0  0
   57.7700   26.4970   43.3750 C   0  0  0  0  0  0  0  0  0  0  0  0
   55.8481   29.7513   45.2736 H   0  0  0  0  0  0  0  0  0  0  0  0
   54.9860   30.6245   43.9618 H   0  0  0  0  0  0  0  0  0  0  0  0
   55.0386   28.8290   43.9618 H   0  0  0  0  0  0  0  0  0  0  0  0
   56.7751   29.0964   42.5235 H   0  0  0  0  0  0  0  0  0  0  0  0
   57.0366   30.8337   43.0845 H   0  0  0  0  0  0  0  0  0  0  0  0
   58.7580   28.9770   43.3710 H   0  0  0  0  0  0  0  0  0  0  0  0
   59.4054   30.1201   45.6221 H   0  0  0  0  0  0  0  0  0  0  0  0
   59.5544   30.9251   43.9861 H   0  0  0  0  0  0  0  0  0  0  0  0
   56.9155   31.3192   45.2128 H   0  0  0  0  0  0  0  0  0  0  0  0
   59.0187   32.9421   43.7939 H   0  0  0  0  0  0  0  0  0  0  0  0
   57.2570   32.6978   43.4321 H   0  0  0  0  0  0  0  0  0  0  0  0
   57.6789   35.0058   44.1532 H   0  0  0  0  0  0  0  0  0  0  0  0
   56.6729   34.1101   45.3636 H   0  0  0  0  0  0  0  0  0  0  0  0
   59.5043   35.1228   45.5696 H   0  0  0  0  0  0  0  0  0  0  0  0
   58.1459   35.1011   46.7891 H   0  0  0  0  0  0  0  0  0  0  0  0
   60.2074   33.0047   46.1607 H   0  0  0  0  0  0  0  0  0  0  0  0
   59.4966   33.5354   47.7412 H   0  0  0  0  0  0  0  0  0  0  0  0
   58.7724   31.2536   47.1795 H   0  0  0  0  0  0  0  0  0  0  0  0
   57.3821   32.4213   47.1593 H   0  0  0  0  0  0  0  0  0  0  0  0
   56.7530   26.4445   46.6419 H   0  0  0  0  0  0  0  0  0  0  0  0
   56.1496   24.1136   45.9999 H   0  0  0  0  0  0  0  0  0  0  0  0
   57.6318   24.8272   41.9982 H   0  0  0  0  0  0  0  0  0  0  0  0
   58.2347   27.1629   42.6329 H   0  0  0  0  0  0  0  0  0  0  0  0
  1  2  1  0
  2  3  1  0
  3  4  1  0
  4  5  1  0
  5  6  1  0
  6  7  1  0
  7  8  1  0
  8  9  1  0
  9 10  1  0
  3 11  1  0
 11 12  2  0
 11 13  1  0
 13 14  2  0
 14 15  1  0
 15 16  2  0
 16 17  1  0
 17 18  3  0
 16 19  1  0
 19 20  2  0
 10  5  1  0
 20 13  1  0
  1 21  1  0
  1 22  1  0
  1 23  1  0
  2 24  1  0
  2 25  1  0
  3 26  1  6
  4 27  1  0
  4 28  1  0
  5 29  1  0
  6 30  1  0
  6 31  1  0
  7 32  1  0
  7 33  1  0
  8 34  1  0
  8 35  1  0
  9 36  1  0
  9 37  1  0
 10 38  1  0
 10 39  1  0
 14 40  1  0
 15 41  1  0
 19 42  1  0
 20 43  1  0
M  CHG  1   3   1
M  END
>  <UniqueID>  (46) 
42

>  <SMILES>  (46) 
CC[N@@H+](CC1CCCCC1)C(=O)c1ccc(C#N)cc1

>  <Energy>  (46) 
51.81474902087235

>  <Genealogy>  (46) 
CC[NH+](CC1CCCCC1)C(=O)c1ccc(C#N)cc1 (protonated)
CC[N@@H+](CC1CCCCC1)C(=O)c1ccc(C#N)cc1 (chirality)
CC[N@@H+](CC1CCCCC1)C(=O)c1ccc(C#N)cc1 (3D coordinates assigned)
CC[N@@H+](CC1CCCCC1)C(=O)c1ccc(C#N)cc1 (nonaromatic ring conformer: 51.81474902087235 kcal/mol)

>  <smiles>  (46) 
CCN(CC1CCCCC1)C(=O)c1ccc(C#N)cc1

>  <score_type>  (46) 
oracle

>  <origin>  (46) 
adg

>  <m_score__min__energy>  (46) 
-6.1299999999999999

>  <m_primary>  (46) 
energy

$$$$
46:0
     RDKit          3D

 48 50  0  0  0  0  0  0  0  0999 V2000
   59.6850   34.5880   48.0650 C   0  0  0  0  0  0  0  0  0  0  0  0
   60.1970   34.5710   46.6670 C   0  0  0  0  0  0  0  0  0  0  0  0
   59.1520   34.9590   45.6460 C   0  0  0  0  0  0  0  0  0  0  0  0
   59.0610   33.9980   44.5120 C   0  0  0  0  0  0  0  0  0  0  0  0
   57.7650   33.2410   44.6060 C   0  0  0  0  0  0  0  0  0  0  0  0
   57.9120   31.8810   45.1750 C   0  0  0  0  0  0  0  0  0  0  0  0
   58.4780   31.7650   46.4310 C   0  0  0  0  0  0  0  0  0  0  0  0
   58.6350   30.5150   47.0040 C   0  0  0  0  0  0  0  0  0  0  0  0
   58.2500   29.3650   46.3790 C   0  0  0  0  0  0  0  0  0  0  0  0
   58.4070   28.0720   46.9620 N   0  0  0  0  0  0  0  0  0  0  0  0
   59.3080   27.0840   46.4090 C   0  0  0  0  0  0  0  0  0  0  0  0
   58.5920   25.9420   45.7860 C   0  0  0  0  0  0  0  0  0  0  0  0
   57.2850   26.1590   45.3550 C   0  0  0  0  0  0  0  0  0  0  0  0
   56.5720   25.1510   44.7740 N   0  0  0  0  0  0  0  0  0  0  0  0
   57.1480   23.9230   44.6180 C   0  0  0  0  0  0  0  0  0  0  0  0
   56.4480   22.9060   44.0390 N   0  0  0  0  0  0  0  0  0  0  0  0
   57.0410   21.7000   43.8960 C   0  0  0  0  0  0  0  0  0  0  0  0
   56.3660   20.7240   43.3400 N   0  0  0  0  0  0  0  0  0  0  0  0
   58.3110   21.4840   44.3130 N   0  0  0  0  0  0  0  0  0  0  0  0
   59.0390   22.4560   44.8880 C   0  0  0  0  0  0  0  0  0  0  0  0
   60.2470   22.2240   45.2770 N   0  0  0  0  0  0  0  0  0  0  0  0
   58.4590   23.7040   45.0490 C   0  0  0  0  0  0  0  0  0  0  0  0
   59.1430   24.7260   45.6230 N   0  0  0  0  0  0  0  0  0  0  0  0
   57.6790   29.4850   45.1150 C   0  0  0  0  0  0  0  0  0  0  0  0
   57.5100   30.7360   44.5150 C   0  0  0  0  0  0  0  0  0  0  0  0
   60.5322   34.5599   48.7661 H   0  0  0  0  0  0  0  0  0  0  0  0
   59.1021   35.5060   48.2309 H   0  0  0  0  0  0  0  0  0  0  0  0
   59.0425   33.7107   48.2309 H   0  0  0  0  0  0  0  0  0  0  0  0
   61.0369   35.2775   46.5936 H   0  0  0  0  0  0  0  0  0  0  0  0
   60.5050   33.5388   46.4439 H   0  0  0  0  0  0  0  0  0  0  0  0
   58.1733   35.0046   46.1461 H   0  0  0  0  0  0  0  0  0  0  0  0
   59.4458   35.9334   45.2286 H   0  0  0  0  0  0  0  0  0  0  0  0
   59.0972   34.5481   43.5601 H   0  0  0  0  0  0  0  0  0  0  0  0
   59.9041   33.2930   44.5574 H   0  0  0  0  0  0  0  0  0  0  0  0
   57.0743   33.8120   45.2439 H   0  0  0  0  0  0  0  0  0  0  0  0
   57.3859   33.1221   43.5802 H   0  0  0  0  0  0  0  0  0  0  0  0
   58.8030   32.6647   46.9740 H   0  0  0  0  0  0  0  0  0  0  0  0
   59.0885   30.4459   48.0038 H   0  0  0  0  0  0  0  0  0  0  0  0
   57.8400   27.8620   47.8140 H   0  0  0  0  0  0  0  0  0  0  0  0
   59.9336   27.5670   45.6439 H   0  0  0  0  0  0  0  0  0  0  0  0
   59.9134   26.6856   47.2365 H   0  0  0  0  0  0  0  0  0  0  0  0
   56.8247   27.1497   45.4840 H   0  0  0  0  0  0  0  0  0  0  0  0
   55.4620   23.0870   43.7190 H   0  0  0  0  0  0  0  0  0  0  0  0
   56.7820   19.7810   43.3320 H   0  0  0  0  0  0  0  0  0  0  0  0
   58.6790   20.5090   44.1550 H   0  0  0  0  0  0  0  0  0  0  0  0
   61.0350   22.5450   44.6750 H   0  0  0  0  0  0  0  0  0  0  0  0
   57.3555   28.5802   44.5796 H   0  0  0  0  0  0  0  0  0  0  0  0
   57.0562   30.8089   43.5156 H   0  0  0  0  0  0  0  0  0  0  0  0
  1  2  1  0
  2  3  1  0
  3  4  1  0
  4  5  1  0
  5  6  1  0
  6  7  2  0
  7  8  1  0
  8  9  2  0
  9 10  1  0
 10 11  1  0
 11 12  1  0
 12 13  2  0
 13 14  1  0
 14 15  2  0
 15 16  1  0
 16 17  1  0
 17 18  2  3
 17 19  1  0
 19 20  1  0
 20 21  2  3
 20 22  1  0
 22 23  2  0
  9 24  1  0
 24 25  2  0
 25  6  1  0
 23 12  1  0
 22 15  1  0
  1 26  1  0
  1 27  1  0
  1 28  1  0
  2 29  1  0
  2 30  1  0
  3 31  1  0
  3 32  1  0
  4 33  1  0
  4 34  1  0
  5 35  1  0
  5 36  1  0
  7 37  1  0
  8 38  1  0
 10 39  1  0
 11 40  1  0
 11 41  1  0
 13 42  1  0
 16 43  1  0
 18 44  1  0
 19 45  1  0
 21 46  1  0
 24 47  1  0
 25 48  1  0
M  END
>  <smiles>  (47) 
CCCCCc1ccc(NCc2cnc3[nH]c(=N)[nH]c(=N)c3n2)cc1

>  <score_type>  (47) 
oracle

>  <origin>  (47) 
adg

>  <m_score__min__energy>  (47) 
-8.2899999999999991

>  <m_primary>  (47) 
energy

$$$$
47:0
     RDKit          3D

 33 34  0  0  0  0  0  0  0  0999 V2000
   54.9210   26.3420   46.1170 N   0  0  0  0  0  0  0  0  0  0  0  0
   56.3420   26.2150   46.0790 C   0  0  0  0  0  0  0  0  0  0  0  0
   56.8440   25.0590   46.0710 O   0  0  0  0  0  0  0  0  0  0  0  0
   57.2170   27.4190   46.0470 C   0  0  0  0  0  0  0  0  0  0  0  0
   58.5180   27.3860   46.5960 C   0  0  0  0  0  0  0  0  0  0  0  0
   59.0210   26.2560   47.1530 F   0  0  0  0  0  0  0  0  0  0  0  0
   59.3300   28.5200   46.5570 C   0  0  0  0  0  0  0  0  0  0  0  0
   58.8690   29.7010   45.9800 C   0  0  0  0  0  0  0  0  0  0  0  0
   57.5730   29.7670   45.4380 C   0  0  0  0  0  0  0  0  0  0  0  0
   57.0500   30.9340   44.8530 O   0  0  0  0  0  0  0  0  0  0  0  0
   57.0280   31.2370   43.4550 C   0  0  0  0  0  0  0  0  0  0  0  0
   57.7640   32.5430   43.1670 C   0  0  0  0  0  0  0  0  0  0  0  0
   57.4120   33.5290   44.1340 O   0  0  0  0  0  0  0  0  0  0  0  0
   58.1560   33.8180   45.2870 C   0  0  0  0  0  0  0  0  0  0  0  0
   59.2580   34.6950   45.2760 C   0  0  0  0  0  0  0  0  0  0  0  0
   59.9650   34.9490   46.4550 C   0  0  0  0  0  0  0  0  0  0  0  0
   59.5810   34.3330   47.6500 C   0  0  0  0  0  0  0  0  0  0  0  0
   58.4890   33.4610   47.6660 C   0  0  0  0  0  0  0  0  0  0  0  0
   57.7800   33.2050   46.4880 C   0  0  0  0  0  0  0  0  0  0  0  0
   56.7590   28.6240   45.4660 C   0  0  0  0  0  0  0  0  0  0  0  0
   55.5110   28.7110   44.9400 F   0  0  0  0  0  0  0  0  0  0  0  0
   54.4600   27.0390   46.7420 H   0  0  0  0  0  0  0  0  0  0  0  0
   60.3424   28.4810   46.9854 H   0  0  0  0  0  0  0  0  0  0  0  0
   59.5216   30.5860   45.9481 H   0  0  0  0  0  0  0  0  0  0  0  0
   57.5149   30.4201   42.9021 H   0  0  0  0  0  0  0  0  0  0  0  0
   55.9809   31.3471   43.1366 H   0  0  0  0  0  0  0  0  0  0  0  0
   58.8488   32.3654   43.2072 H   0  0  0  0  0  0  0  0  0  0  0  0
   57.4796   32.9027   42.1671 H   0  0  0  0  0  0  0  0  0  0  0  0
   59.5631   35.1812   44.3376 H   0  0  0  0  0  0  0  0  0  0  0  0
   60.8250   35.6348   46.4425 H   0  0  0  0  0  0  0  0  0  0  0  0
   60.1380   34.5346   48.5769 H   0  0  0  0  0  0  0  0  0  0  0  0
   58.1869   32.9757   48.6058 H   0  0  0  0  0  0  0  0  0  0  0  0
   56.9214   32.5176   46.5053 H   0  0  0  0  0  0  0  0  0  0  0  0
  1  2  1  0
  2  3  2  0
  2  4  1  0
  4  5  2  0
  5  6  1  0
  5  7  1  0
  7  8  2  0
  8  9  1  0
  9 10  1  0
 10 11  1  0
 11 12  1  0
 12 13  1  0
 13 14  1  0
 14 15  2  0
 15 16  1  0
 16 17  2  0
 17 18  1  0
 18 19  2  0
  9 20  2  0
 20 21  1  0
 20  4  1  0
 19 14  1  0
  1 22  1  0
  7 23  1  0
  8 24  1  0
 11 25  1  0
 11 26  1  0
 12 27  1  0
 12 28  1  0
 15 29  1  0
 16 30  1  0
 17 31  1  0
 18 32  1  0
 19 33  1  0
M  CHG  1   1  -1
M  END
>  <UniqueID>  (48) 
43

>  <SMILES>  (48) 
[NH-]C(=O)c1c(F)ccc(OCCOc2ccccc2)c1F

>  <Energy>  (48) 
34.9916172766676

>  <Genealogy>  (48) 
[NH-]C(=O)c1c(F)ccc(OCCOc2ccccc2)c1F (protonated)
[NH-]C(=O)c1c(F)ccc(OCCOc2ccccc2)c1F (3D coordinates assigned)
[NH-]C(=O)c1c(F)ccc(OCCOc2ccccc2)c1F (optimized conformer: 34.9916172766676 kcal/mol)

>  <smiles>  (48) 
NC(=O)c1c(F)ccc(OCCOc2ccccc2)c1F

>  <score_type>  (48) 
oracle

>  <origin>  (48) 
adg

>  <m_score__min__energy>  (48) 
-10.26

>  <m_primary>  (48) 
energy

$$$$
