0:0
     RDKit          3D

 37 38  0  0  0  0  0  0  0  0999 V2000
   58.1120   32.4350   43.3550 C   0  0  0  0  0  0  0  0  0  0  0  0
   57.4370   33.0020   44.5990 C   0  0  0  0  0  0  0  0  0  0  0  0
   58.3660   33.8590   45.3390 N   0  0  0  0  0  0  0  0  0  0  0  0
   58.9200   34.9930   44.8780 C   0  0  0  0  0  0  0  0  0  0  0  0
   59.6560   35.5570   45.8940 C   0  0  0  0  0  0  0  0  0  0  0  0
   59.5570   34.7940   47.0000 N   0  0  0  0  0  0  0  0  0  0  0  0
   58.7700   33.7620   46.6280 C   0  0  0  0  0  0  0  0  0  0  0  0
   58.3520   32.6840   47.5900 C   0  0  0  0  0  0  0  0  0  0  0  0
   59.4480   31.7270   47.7950 N   0  0  0  0  0  0  0  0  0  0  0  0
   59.1700   30.2970   47.9910 C   0  0  0  0  0  0  0  0  0  0  0  0
   59.1560   29.5270   46.6660 C   0  0  0  0  0  0  0  0  0  0  0  0
   57.9480   29.8200   45.8850 C   0  0  0  0  0  0  0  0  0  0  0  0
   56.9930   30.0500   45.2740 N   0  0  0  0  0  0  0  0  0  0  0  0
   60.7730   32.2190   48.0500 C   0  0  0  0  0  0  0  0  0  0  0  0
   61.8170   31.8920   47.1730 C   0  0  0  0  0  0  0  0  0  0  0  0
   63.1120   32.3580   47.4120 C   0  0  0  0  0  0  0  0  0  0  0  0
   63.3740   33.1480   48.5330 C   0  0  0  0  0  0  0  0  0  0  0  0
   62.3430   33.4680   49.4210 C   0  0  0  0  0  0  0  0  0  0  0  0
   61.0430   33.0040   49.1880 C   0  0  0  0  0  0  0  0  0  0  0  0
   59.7780   33.3950   50.3440 Cl  0  0  0  0  0  0  0  0  0  0  0  0
   58.9222   31.7544   43.6555 H   0  0  0  0  0  0  0  0  0  0  0  0
   57.3727   31.8831   42.7560 H   0  0  0  0  0  0  0  0  0  0  0  0
   58.5280   33.2585   42.7560 H   0  0  0  0  0  0  0  0  0  0  0  0
   56.5601   33.5937   44.2976 H   0  0  0  0  0  0  0  0  0  0  0  0
   57.1268   32.1692   45.2472 H   0  0  0  0  0  0  0  0  0  0  0  0
   58.8048   35.4003   43.8627 H   0  0  0  0  0  0  0  0  0  0  0  0
   60.2364   36.4881   45.8155 H   0  0  0  0  0  0  0  0  0  0  0  0
   58.0857   33.1419   48.5540 H   0  0  0  0  0  0  0  0  0  0  0  0
   57.4855   32.1500   47.1728 H   0  0  0  0  0  0  0  0  0  0  0  0
   59.9476   29.8701   48.6414 H   0  0  0  0  0  0  0  0  0  0  0  0
   58.1736   30.2045   48.4478 H   0  0  0  0  0  0  0  0  0  0  0  0
   60.0401   29.8130   46.0773 H   0  0  0  0  0  0  0  0  0  0  0  0
   59.1672   28.4507   46.8927 H   0  0  0  0  0  0  0  0  0  0  0  0
   61.6152   31.2651   46.2920 H   0  0  0  0  0  0  0  0  0  0  0  0
   63.9254   32.1025   46.7170 H   0  0  0  0  0  0  0  0  0  0  0  0
   64.3930   33.5190   48.7176 H   0  0  0  0  0  0  0  0  0  0  0  0
   62.5539   34.0865   50.3059 H   0  0  0  0  0  0  0  0  0  0  0  0
  1  2  1  0
  2  3  1  0
  3  4  1  0
  4  5  2  0
  5  6  1  0
  6  7  2  0
  7  8  1  0
  8  9  1  0
  9 10  1  0
 10 11  1  0
 11 12  1  0
 12 13  3  0
  9 14  1  0
 14 15  2  0
 15 16  1  0
 16 17  2  0
 17 18  1  0
 18 19  2  0
 19 20  1  0
  7  3  1  0
 19 14  1  0
  1 21  1  0
  1 22  1  0
  1 23  1  0
  2 24  1  0
  2 25  1  0
  4 26  1  0
  5 27  1  0
  8 28  1  0
  8 29  1  0
 10 30  1  0
 10 31  1  0
 11 32  1  0
 11 33  1  0
 15 34  1  0
 16 35  1  0
 17 36  1  0
 18 37  1  0
M  END
>  <UniqueID>  (1) 
1

>  <SMILES>  (1) 
CCn1ccnc1CN(CCC#N)c1ccccc1Cl

>  <Energy>  (1) 
63.80017064453369

>  <Genealogy>  (1) 
CCn1ccnc1CN(CCC#N)c1ccccc1Cl (3D coordinates assigned)
CCn1ccnc1CN(CCC#N)c1ccccc1Cl (optimized conformer: 63.80017064453369 kcal/mol)

>  <smiles>  (1) 
CCn1ccnc1CN(CCC#N)c1ccccc1Cl

>  <score_type>  (1) 
oracle

>  <origin>  (1) 
adg

>  <m_score__min__energy>  (1) 
-6.2199999999999998

>  <m_primary>  (1) 
energy

$$$$
1:0
     RDKit          3D

 37 39  0  0  0  0  0  0  0  0999 V2000
   59.6240   27.6030   47.7380 C   0  0  0  0  0  0  0  0  0  0  0  0
   60.3480   28.5200   46.7560 C   0  0  0  0  0  0  0  0  0  0  0  0
   59.4650   29.6210   46.3180 N   0  0  0  0  0  0  0  0  0  0  0  0
   58.4070   29.2850   45.5160 C   0  0  0  0  0  0  0  0  0  0  0  0
   57.4960   30.2430   45.0470 C   0  0  0  0  0  0  0  0  0  0  0  0
   56.3560   29.8140   44.1860 C   0  0  0  0  0  0  0  0  0  0  0  0
   55.1410   29.3490   44.7710 N   0  0  0  0  0  0  0  0  0  0  0  0
   56.4450   29.8550   42.9290 O   0  0  0  0  0  0  0  0  0  0  0  0
   57.6940   31.5870   45.4090 C   0  0  0  0  0  0  0  0  0  0  0  0
   56.8890   32.4760   45.0130 O   0  0  0  0  0  0  0  0  0  0  0  0
   58.7930   31.9460   46.2090 C   0  0  0  0  0  0  0  0  0  0  0  0
   59.0110   33.2900   46.5640 C   0  0  0  0  0  0  0  0  0  0  0  0
   60.1090   33.6530   47.3410 C   0  0  0  0  0  0  0  0  0  0  0  0
   61.0190   32.6840   47.7800 C   0  0  0  0  0  0  0  0  0  0  0  0
   62.1970   33.0780   48.5940 C   0  0  0  0  0  0  0  0  0  0  0  0
   62.0390   33.8360   49.7650 C   0  0  0  0  0  0  0  0  0  0  0  0
   63.1600   34.1960   50.5170 C   0  0  0  0  0  0  0  0  0  0  0  0
   64.4030   33.8130   50.1180 N   0  0  0  0  0  0  0  0  0  0  0  0
   64.5890   33.0770   48.9890 C   0  0  0  0  0  0  0  0  0  0  0  0
   63.4940   32.6970   48.2080 C   0  0  0  0  0  0  0  0  0  0  0  0
   60.8060   31.3380   47.4370 C   0  0  0  0  0  0  0  0  0  0  0  0
   59.6920   30.9420   46.6560 C   0  0  0  0  0  0  0  0  0  0  0  0
   59.8636   27.9064   48.7678 H   0  0  0  0  0  0  0  0  0  0  0  0
   58.5384   27.6774   47.5770 H   0  0  0  0  0  0  0  0  0  0  0  0
   59.9482   26.5643   47.5770 H   0  0  0  0  0  0  0  0  0  0  0  0
   61.2368   28.9438   47.2464 H   0  0  0  0  0  0  0  0  0  0  0  0
   60.6415   27.9312   45.8744 H   0  0  0  0  0  0  0  0  0  0  0  0
   58.2673   28.2318   45.2309 H   0  0  0  0  0  0  0  0  0  0  0  0
   55.1500   28.7420   45.6210 H   0  0  0  0  0  0  0  0  0  0  0  0
   58.3063   34.0632   46.2241 H   0  0  0  0  0  0  0  0  0  0  0  0
   60.2619   34.7082   47.6114 H   0  0  0  0  0  0  0  0  0  0  0  0
   61.0347   34.1458   50.0897 H   0  0  0  0  0  0  0  0  0  0  0  0
   63.0373   34.7907   51.4342 H   0  0  0  0  0  0  0  0  0  0  0  0
   65.2320   34.0900   50.6900 H   0  0  0  0  0  0  0  0  0  0  0  0
   65.6050   32.7799   48.6897 H   0  0  0  0  0  0  0  0  0  0  0  0
   63.6464   32.1024   47.2952 H   0  0  0  0  0  0  0  0  0  0  0  0
   61.5195   30.5753   47.7823 H   0  0  0  0  0  0  0  0  0  0  0  0
  1  2  1  0
  2  3  1  0
  3  4  1  0
  4  5  2  0
  5  6  1  0
  6  7  1  0
  6  8  2  0
  5  9  1  0
  9 10  2  0
  9 11  1  0
 11 12  2  0
 12 13  1  0
 13 14  2  0
 14 15  1  0
 15 16  2  0
 16 17  1  0
 17 18  2  0
 18 19  1  0
 19 20  2  0
 14 21  1  0
 21 22  2  0
 22  3  1  0
 22 11  1  0
 20 15  1  0
  1 23  1  0
  1 24  1  0
  1 25  1  0
  2 26  1  0
  2 27  1  0
  4 28  1  0
  7 29  1  0
 12 30  1  0
 13 31  1  0
 16 32  1  0
 17 33  1  0
 18 34  1  0
 19 35  1  0
 20 36  1  0
 21 37  1  0
M  CHG  2   7  -1  18   1
M  END
>  <UniqueID>  (2) 
2

>  <SMILES>  (2) 
CCn1cc(C([NH-])=O)c(=O)c2ccc(-c3cc[nH+]cc3)cc21

>  <Energy>  (2) 
54.54754524538521

>  <Genealogy>  (2) 
CCn1cc(C([NH-])=O)c(=O)c2ccc(-c3cc[nH+]cc3)cc21 (protonated)
CCn1cc(C([NH-])=O)c(=O)c2ccc(-c3cc[nH+]cc3)cc21 (3D coordinates assigned)
CCn1cc(C([NH-])=O)c(=O)c2ccc(-c3cc[nH+]cc3)cc21 (optimized conformer: 54.54754524538521 kcal/mol)

>  <smiles>  (2) 
CCn1cc(C(N)=O)c(=O)c2ccc(-c3ccncc3)cc21

>  <score_type>  (2) 
oracle

>  <origin>  (2) 
adg

>  <m_score__min__energy>  (2) 
-9.1699999999999999

>  <m_primary>  (2) 
energy

$$$$
2:0
     RDKit          3D

 40 43  0  0  0  0  0  0  0  0999 V2000
   56.2800   29.9320   43.0050 C   0  0  0  0  0  0  0  0  0  0  0  0
   57.0250   31.1610   43.5370 C   0  0  0  0  0  0  0  0  0  0  0  0
   57.7390   31.8990   42.3890 C   0  0  0  0  0  0  0  0  0  0  0  0
   57.9700   30.7650   44.6720 C   0  0  0  0  0  0  0  0  0  0  0  0
   58.1280   29.3930   44.9680 C   0  0  0  0  0  0  0  0  0  0  0  0
   59.0570   28.9570   45.9090 C   0  0  0  0  0  0  0  0  0  0  0  0
   59.8510   29.8730   46.5850 C   0  0  0  0  0  0  0  0  0  0  0  0
   59.6800   31.2430   46.3710 C   0  0  0  0  0  0  0  0  0  0  0  0
   58.6910   31.7210   45.4580 C   0  0  0  0  0  0  0  0  0  0  0  0
   58.4470   33.2150   45.3980 C   0  0  0  0  0  0  0  0  0  0  0  0
   57.4180   33.6970   44.8570 O   0  0  0  0  0  0  0  0  0  0  0  0
   59.3730   34.1440   46.0830 C   0  0  0  0  0  0  0  0  0  0  0  0
   59.2600   35.3930   45.9640 O   0  0  0  0  0  0  0  0  0  0  0  0
   60.3980   33.5560   46.9340 C   0  0  0  0  0  0  0  0  0  0  0  0
   61.3680   34.1230   47.7290 C   0  0  0  0  0  0  0  0  0  0  0  0
   62.0450   33.1120   48.3280 N   0  0  0  0  0  0  0  0  0  0  0  0
   63.1540   33.2310   49.2420 C   0  0  0  0  0  0  0  0  0  0  0  0
   63.0380   34.0440   50.3860 C   0  0  0  0  0  0  0  0  0  0  0  0
   64.1060   34.1700   51.2800 C   0  0  0  0  0  0  0  0  0  0  0  0
   65.3010   33.4900   51.0440 C   0  0  0  0  0  0  0  0  0  0  0  0
   65.4340   32.6840   49.9120 C   0  0  0  0  0  0  0  0  0  0  0  0
   64.3700   32.5540   49.0130 C   0  0  0  0  0  0  0  0  0  0  0  0
   61.5400   31.9450   47.9380 N   0  0  0  0  0  0  0  0  0  0  0  0
   60.5290   32.2110   47.0900 C   0  0  0  0  0  0  0  0  0  0  0  0
   55.9151   29.3301   43.8503 H   0  0  0  0  0  0  0  0  0  0  0  0
   55.4270   30.2575   42.3914 H   0  0  0  0  0  0  0  0  0  0  0  0
   56.9631   29.3263   42.3914 H   0  0  0  0  0  0  0  0  0  0  0  0
   56.2998   31.8696   43.9635 H   0  0  0  0  0  0  0  0  0  0  0  0
   58.4464   32.6302   42.8071 H   0  0  0  0  0  0  0  0  0  0  0  0
   58.2857   31.1724   41.7700 H   0  0  0  0  0  0  0  0  0  0  0  0
   56.9947   32.4214   41.7700 H   0  0  0  0  0  0  0  0  0  0  0  0
   57.5042   28.6537   44.4443 H   0  0  0  0  0  0  0  0  0  0  0  0
   59.1621   27.8821   46.1176 H   0  0  0  0  0  0  0  0  0  0  0  0
   60.6168   29.5194   47.2910 H   0  0  0  0  0  0  0  0  0  0  0  0
   61.5591   35.1989   47.8554 H   0  0  0  0  0  0  0  0  0  0  0  0
   62.0994   34.5845   50.5780 H   0  0  0  0  0  0  0  0  0  0  0  0
   64.0036   34.8066   52.1712 H   0  0  0  0  0  0  0  0  0  0  0  0
   66.1387   33.5890   51.7501 H   0  0  0  0  0  0  0  0  0  0  0  0
   66.3775   32.1499   49.7264 H   0  0  0  0  0  0  0  0  0  0  0  0
   64.4825   31.9195   48.1215 H   0  0  0  0  0  0  0  0  0  0  0  0
  1  2  1  0
  2  3  1  0
  2  4  1  0
  4  5  2  0
  5  6  1  0
  6  7  2  0
  7  8  1  0
  8  9  2  0
  9 10  1  0
 10 11  2  0
 10 12  1  0
 12 13  2  0
 12 14  1  0
 14 15  2  0
 15 16  1  0
 16 17  1  0
 17 18  2  0
 18 19  1  0
 19 20  2  0
 20 21  1  0
 21 22  2  0
 16 23  1  0
 23 24  2  0
  9  4  1  0
 24 14  1  0
 24  8  1  0
 22 17  1  0
  1 25  1  0
  1 26  1  0
  1 27  1  0
  2 28  1  0
  3 29  1  0
  3 30  1  0
  3 31  1  0
  5 32  1  0
  6 33  1  0
  7 34  1  0
 15 35  1  0
 18 36  1  0
 19 37  1  0
 20 38  1  0
 21 39  1  0
 22 40  1  0
M  END
>  <UniqueID>  (3) 
3

>  <SMILES>  (3) 
CC(C)c1cccc2c1C(=O)C(=O)c1cn(-c3ccccc3)nc1-2

>  <Energy>  (3) 
88.63119982876832

>  <Genealogy>  (3) 
CC(C)c1cccc2c1C(=O)C(=O)c1cn(-c3ccccc3)nc1-2 (3D coordinates assigned)
CC(C)c1cccc2c1C(=O)C(=O)c1cn(-c3ccccc3)nc1-2 (nonaromatic ring conformer: 88.63119982876832 kcal/mol)

>  <smiles>  (3) 
CC(C)c1cccc2c1C(=O)C(=O)c1cn(-c3ccccc3)nc1-2

>  <score_type>  (3) 
oracle

>  <origin>  (3) 
adg

>  <m_score__min__energy>  (3) 
-8.3800000000000008

>  <m_primary>  (3) 
energy

$$$$
3:0
     RDKit          3D

 31 33  0  0  0  0  0  0  0  0999 V2000
   56.0758   32.2996   45.3330 H   0  0  0  0  0  0  0  0  0  0  0  0
   57.1110   32.0250   45.0820 C   0  0  0  0  0  0  0  0  0  0  0  0
   58.0790   32.8850   45.4320 C   0  0  0  0  0  0  0  0  0  0  0  0
   58.0330   34.5930   44.8690 S   0  0  0  0  0  0  0  0  0  0  0  0
   59.5000   34.8950   45.8590 C   0  0  0  0  0  0  0  0  0  0  0  0
   60.0210   36.0390   45.9370 O   0  0  0  0  0  0  0  0  0  0  0  0
   60.0590   33.7550   46.5110 N   0  0  0  0  0  0  0  0  0  0  0  0
   61.2520   33.7720   47.3160 C   0  0  0  0  0  0  0  0  0  0  0  0
   61.1900   34.1430   48.6700 C   0  0  0  0  0  0  0  0  0  0  0  0
   60.2245   34.4223   49.1170 H   0  0  0  0  0  0  0  0  0  0  0  0
   62.3490   34.1590   49.4520 C   0  0  0  0  0  0  0  0  0  0  0  0
   62.2936   34.4502   50.5113 H   0  0  0  0  0  0  0  0  0  0  0  0
   63.5780   33.8050   48.8880 C   0  0  0  0  0  0  0  0  0  0  0  0
   64.4891   33.8161   49.5042 H   0  0  0  0  0  0  0  0  0  0  0  0
   63.6500   33.4370   47.5420 C   0  0  0  0  0  0  0  0  0  0  0  0
   64.6181   33.1604   47.0991 H   0  0  0  0  0  0  0  0  0  0  0  0
   62.4920   33.4200   46.7570 C   0  0  0  0  0  0  0  0  0  0  0  0
   62.5526   33.1298   45.6977 H   0  0  0  0  0  0  0  0  0  0  0  0
   59.2690   32.6030   46.2450 C   0  0  0  0  0  0  0  0  0  0  0  0
   59.6030   31.4540   46.6370 O   0  0  0  0  0  0  0  0  0  0  0  0
   57.3220   30.7430   44.3890 C   0  0  0  0  0  0  0  0  0  0  0  0
   58.1870   29.4230   44.9860 S   0  0  0  0  0  0  0  0  0  0  0  0
   57.7590   28.3650   43.7530 C   0  0  0  0  0  0  0  0  0  0  0  0
   58.1390   26.9230   43.6890 C   0  0  0  0  0  0  0  0  0  0  0  0
   58.2437   26.5258   44.7094 H   0  0  0  0  0  0  0  0  0  0  0  0
   57.3582   26.3614   43.1552 H   0  0  0  0  0  0  0  0  0  0  0  0
   59.0952   26.8191   43.1552 H   0  0  0  0  0  0  0  0  0  0  0  0
   56.8810   29.0100   42.8910 C   0  0  0  0  0  0  0  0  0  0  0  0
   56.4303   28.5264   42.0118 H   0  0  0  0  0  0  0  0  0  0  0  0
   56.6280   30.3380   43.2550 C   0  0  0  0  0  0  0  0  0  0  0  0
   55.9461   30.9970   42.6975 H   0  0  0  0  0  0  0  0  0  0  0  0
  1  2  1  0
  2  3  2  0
  3  4  1  0
  4  5  1  0
  5  6  2  0
  5  7  1  0
  7  8  1  0
  8  9  2  0
  9 10  1  0
  9 11  1  0
 11 12  1  0
 11 13  2  0
 13 14  1  0
 13 15  1  0
 15 16  1  0
 15 17  2  0
 17 18  1  0
  7 19  1  0
 19 20  2  0
  2 21  1  0
 21 22  1  0
 22 23  1  0
 23 24  1  0
 24 25  1  0
 24 26  1  0
 24 27  1  0
 23 28  2  0
 28 29  1  0
 28 30  1  0
 30 31  1  0
 19  3  1  0
 30 21  2  0
 17  8  1  0
M  END
>  <UniqueID>  (4) 
4

>  <SMILES>  (4) 
Cc1ccc(/C=C2/SC(=O)N(c3ccccc3)C2=O)s1

>  <Energy>  (4) 
90.19294555730856

>  <Genealogy>  (4) 
Cc1ccc(/C=C2/SC(=O)N(c3ccccc3)C2=O)s1 (cis-trans isomerization)
Cc1ccc(/C=C2/SC(=O)N(c3ccccc3)C2=O)s1 (3D coordinates assigned)
Cc1ccc(/C=C2/SC(=O)N(c3ccccc3)C2=O)s1 (nonaromatic ring conformer: 90.19294555730856 kcal/mol)

>  <smiles>  (4) 
Cc1ccc(C=C2SC(=O)N(c3ccccc3)C2=O)s1

>  <score_type>  (4) 
oracle

>  <origin>  (4) 
adg

>  <m_score__min__energy>  (4) 
-7.71

>  <m_primary>  (4) 
energy

$$$$
4:0
     RDKit          3D

 78 82  0  0  0  0  0  0  0  0999 V2000
   58.8950   33.8960   52.1850 C   0  0  0  0  0  0  0  0  0  0  0  0
   60.4010   33.8420   51.9500 C   0  0  0  0  0  0  0  0  0  0  0  0
   60.6870   33.6710   50.5230 N   0  0  0  0  0  0  0  0  0  0  0  0
   59.7650   33.5170   49.5440 C   0  0  0  0  0  0  0  0  0  0  0  0
   60.3870   33.3200   48.3130 C   0  0  0  0  0  0  0  0  0  0  0  0
   59.6630   33.1470   46.9950 C   0  0  0  0  0  0  0  0  0  0  0  0
   58.2900   33.8320   46.9940 C   0  0  0  0  0  0  0  0  0  0  0  0
   57.5690   33.4820   45.6900 C   0  0  0  0  0  0  0  0  0  0  0  0
   57.2560   32.0330   45.5820 N   0  0  0  0  0  0  0  0  0  0  0  0
   57.1460   31.6200   44.1670 C   0  0  0  0  0  0  0  0  0  0  0  0
   58.2150   30.5860   43.7630 C   0  0  0  0  0  0  0  0  0  0  0  0
   57.8000   29.0910   43.7380 C   0  0  1  0  0  0  0  0  0  0  0  0
   58.9820   28.0820   43.7670 C   0  0  0  0  0  0  0  0  0  0  0  0
   59.2520   27.4050   45.1220 C   0  0  0  0  0  0  0  0  0  0  0  0
   57.9730   26.9470   45.8400 C   0  0  2  0  0  0  0  0  0  0  0  0
   57.3160   25.8500   45.1100 N   0  0  0  0  0  0  0  0  0  0  0  0
   56.0910   25.2440   45.5460 C   0  0  0  0  0  0  0  0  0  0  0  0
   55.5390   25.6190   46.6160 O   0  0  0  0  0  0  0  0  0  0  0  0
   55.4270   24.1880   44.7030 C   0  0  0  0  0  0  0  0  0  0  0  0
   56.3960   23.4920   43.7370 C   0  0  0  0  0  0  0  0  0  0  0  0
   55.8970   22.2040   43.3920 O   0  0  0  0  0  0  0  0  0  0  0  0
   56.8660   21.5180   42.6270 C   0  0  0  0  0  0  0  0  0  0  0  0
   58.1020   21.2270   43.4810 C   0  0  0  0  0  0  0  0  0  0  0  0
   58.1460   22.1990   44.6610 C   0  0  0  0  0  0  0  0  0  0  0  0
   57.7220   23.4910   44.2730 O   0  0  0  0  0  0  0  0  0  0  0  0
   57.0380   28.1490   46.0180 C   0  0  0  0  0  0  0  0  0  0  0  0
   56.6160   28.7390   44.6710 C   0  0  0  0  0  0  0  0  0  0  0  0
   58.1500   31.1430   46.3730 C   0  0  0  0  0  0  0  0  0  0  0  0
   59.5890   31.6690   46.5350 C   0  0  0  0  0  0  0  0  0  0  0  0
   61.7510   33.3500   48.5780 C   0  0  0  0  0  0  0  0  0  0  0  0
   62.8630   33.2080   47.7450 C   0  0  0  0  0  0  0  0  0  0  0  0
   64.1400   33.2830   48.3250 C   0  0  0  0  0  0  0  0  0  0  0  0
   64.2870   33.4900   49.7120 C   0  0  0  0  0  0  0  0  0  0  0  0
   63.1540   33.6310   50.5320 C   0  0  0  0  0  0  0  0  0  0  0  0
   61.8930   33.5600   49.9310 C   0  0  0  0  0  0  0  0  0  0  0  0
   58.6926   33.9033   53.2662 H   0  0  0  0  0  0  0  0  0  0  0  0
   58.4853   34.8094   51.7291 H   0  0  0  0  0  0  0  0  0  0  0  0
   58.4209   33.0143   51.7291 H   0  0  0  0  0  0  0  0  0  0  0  0
   60.8570   34.7792   52.3018 H   0  0  0  0  0  0  0  0  0  0  0  0
   60.8193   32.9885   52.5037 H   0  0  0  0  0  0  0  0  0  0  0  0
   58.6763   33.5437   49.6988 H   0  0  0  0  0  0  0  0  0  0  0  0
   60.2740   33.6642   46.2406 H   0  0  0  0  0  0  0  0  0  0  0  0
   57.6985   33.4772   47.8509 H   0  0  0  0  0  0  0  0  0  0  0  0
   58.4145   34.9221   47.0730 H   0  0  0  0  0  0  0  0  0  0  0  0
   56.6282   34.0502   45.6440 H   0  0  0  0  0  0  0  0  0  0  0  0
   58.2401   33.7412   44.8579 H   0  0  0  0  0  0  0  0  0  0  0  0
   56.1513   31.1788   44.0057 H   0  0  0  0  0  0  0  0  0  0  0  0
   57.2999   32.5156   43.5472 H   0  0  0  0  0  0  0  0  0  0  0  0
   58.5599   30.8481   42.7519 H   0  0  0  0  0  0  0  0  0  0  0  0
   58.9763   30.6498   44.5544 H   0  0  0  0  0  0  0  0  0  0  0  0
   57.3838   28.9535   42.7291 H   0  0  0  0  0  0  0  0  0  0  0  0
   59.8938   28.6219   43.4720 H   0  0  0  0  0  0  0  0  0  0  0  0
   58.6994   27.2713   43.0793 H   0  0  0  0  0  0  0  0  0  0  0  0
   59.7790   28.1204   45.7705 H   0  0  0  0  0  0  0  0  0  0  0  0
   59.8525   26.5053   44.9220 H   0  0  0  0  0  0  0  0  0  0  0  0
   58.2352   26.5520   46.8326 H   0  0  0  0  0  0  0  0  0  0  0  0
   57.7610   25.4750   44.2400 H   0  0  0  0  0  0  0  0  0  0  0  0
   54.9925   23.4292   45.3704 H   0  0  0  0  0  0  0  0  0  0  0  0
   54.6597   24.6886   44.0942 H   0  0  0  0  0  0  0  0  0  0  0  0
   56.4637   24.0523   42.7928 H   0  0  0  0  0  0  0  0  0  0  0  0
   56.4407   20.5693   42.2676 H   0  0  0  0  0  0  0  0  0  0  0  0
   57.1591   22.1450   41.7720 H   0  0  0  0  0  0  0  0  0  0  0  0
   58.0527   20.1947   43.8578 H   0  0  0  0  0  0  0  0  0  0  0  0
   59.0079   21.3510   42.8695 H   0  0  0  0  0  0  0  0  0  0  0  0
   57.4839   21.8277   45.4571 H   0  0  0  0  0  0  0  0  0  0  0  0
   59.1836   22.2653   45.0203 H   0  0  0  0  0  0  0  0  0  0  0  0
   57.5594   28.9237   46.5994 H   0  0  0  0  0  0  0  0  0  0  0  0
   56.1335   27.8065   46.5420 H   0  0  0  0  0  0  0  0  0  0  0  0
   56.0406   29.6571   44.8608 H   0  0  0  0  0  0  0  0  0  0  0  0
   56.0250   27.9667   44.1569 H   0  0  0  0  0  0  0  0  0  0  0  0
   57.7137   31.0197   47.3752 H   0  0  0  0  0  0  0  0  0  0  0  0
   58.2221   30.1962   45.8177 H   0  0  0  0  0  0  0  0  0  0  0  0
   60.1045   31.0466   47.2813 H   0  0  0  0  0  0  0  0  0  0  0  0
   60.0645   31.6160   45.5445 H   0  0  0  0  0  0  0  0  0  0  0  0
   62.7420   33.0420   46.6643 H   0  0  0  0  0  0  0  0  0  0  0  0
   65.0333   33.1793   47.6916 H   0  0  0  0  0  0  0  0  0  0  0  0
   65.2928   33.5414   50.1543 H   0  0  0  0  0  0  0  0  0  0  0  0
   63.2562   33.7925   51.6153 H   0  0  0  0  0  0  0  0  0  0  0  0
  1  2  1  0
  2  3  1  0
  3  4  1  0
  4  5  2  0
  5  6  1  0
  6  7  1  0
  7  8  1  0
  8  9  1  0
  9 10  1  0
 10 11  1  0
 11 12  1  0
 12 13  1  0
 13 14  1  0
 14 15  1  0
 15 16  1  0
 16 17  1  0
 17 18  2  0
 17 19  1  0
 19 20  1  0
 20 21  1  0
 21 22  1  0
 22 23  1  0
 23 24  1  0
 24 25  1  0
 15 26  1  0
 26 27  1  0
  9 28  1  0
 28 29  1  0
  5 30  1  0
 30 31  2  0
 31 32  1  0
 32 33  2  0
 33 34  1  0
 34 35  2  0
 35  3  1  0
 29  6  1  0
 35 30  1  0
 27 12  1  0
 25 20  1  0
  1 36  1  0
  1 37  1  0
  1 38  1  0
  2 39  1  0
  2 40  1  0
  4 41  1  0
  6 42  1  0
  7 43  1  0
  7 44  1  0
  8 45  1  0
  8 46  1  0
 10 47  1  0
 10 48  1  0
 11 49  1  0
 11 50  1  0
 12 51  1  6
 13 52  1  0
 13 53  1  0
 14 54  1  0
 14 55  1  0
 15 56  1  1
 16 57  1  0
 19 58  1  0
 19 59  1  0
 20 60  1  0
 22 61  1  0
 22 62  1  0
 23 63  1  0
 23 64  1  0
 24 65  1  0
 24 66  1  0
 26 67  1  0
 26 68  1  0
 27 69  1  0
 27 70  1  0
 28 71  1  0
 28 72  1  0
 29 73  1  0
 29 74  1  0
 31 75  1  0
 32 76  1  0
 33 77  1  0
 34 78  1  0
M  END
>  <UniqueID>  (5) 
5

>  <SMILES>  (5) 
CCn1cc(C2CCN(CCC3CCC(NC(=O)CC4OCCCO4)CC3)CC2)c2ccccc21

>  <Energy>  (5) 
129.70616874096376

>  <Genealogy>  (5) 
CCn1cc(C2CCN(CCC3CCC(NC(=O)CC4OCCCO4)CC3)CC2)c2ccccc21 (3D coordinates assigned)
CCn1cc(C2CCN(CCC3CCC(NC(=O)CC4OCCCO4)CC3)CC2)c2ccccc21 (nonaromatic ring conformer: 129.70616874096376 kcal/mol)

>  <smiles>  (5) 
CCn1cc(C2CCN(CCC3CCC(NC(=O)CC4OCCCO4)CC3)CC2)c2ccccc21

>  <score_type>  (5) 
oracle

>  <origin>  (5) 
adg

>  <m_score__min__energy>  (5) 
-10.69

>  <m_primary>  (5) 
energy

$$$$
5:0
     RDKit          3D

 47 51  0  0  0  0  0  0  0  0999 V2000
   50.2208   20.7748   46.5445 H   0  0  0  0  0  0  0  0  0  0  0  0
   51.1520   21.3430   46.6860 C   0  0  0  0  0  0  0  0  0  0  0  0
   51.7830   21.8910   45.6160 N   0  0  0  0  0  0  0  0  0  0  0  0
   52.9380   22.6000   45.7660 C   0  0  0  0  0  0  0  0  0  0  0  0
   53.6120   23.1850   44.6410 N   0  0  0  0  0  0  0  0  0  0  0  0
   54.8950   23.3290   44.4710 C   0  0  0  0  0  0  0  0  0  0  0  0
   55.4810   24.4990   44.8370 N   0  0  0  0  0  0  0  0  0  0  0  0
   56.8200   24.7090   44.6890 C   0  0  0  0  0  0  0  0  0  0  0  0
   57.4010   26.0120   45.1030 C   0  0  0  0  0  0  0  0  0  0  0  0
   58.0290   26.8330   44.1480 C   0  0  0  0  0  0  0  0  0  0  0  0
   58.0890   26.5022   43.1006 H   0  0  0  0  0  0  0  0  0  0  0  0
   58.5770   28.0640   44.5170 C   0  0  0  0  0  0  0  0  0  0  0  0
   59.0719   28.6909   43.7606 H   0  0  0  0  0  0  0  0  0  0  0  0
   58.5000   28.5050   45.8450 C   0  0  0  0  0  0  0  0  0  0  0  0
   59.0750   29.7690   46.2210 N   0  0  0  0  0  0  0  0  0  0  0  0
   58.4110   31.0080   45.9050 C   0  0  0  0  0  0  0  0  0  0  0  0
   57.3380   31.0020   45.2400 O   0  0  0  0  0  0  0  0  0  0  0  0
   59.0210   32.2890   46.3300 C   0  0  0  0  0  0  0  0  0  0  0  0
   58.3170   33.5090   46.2630 C   0  0  0  0  0  0  0  0  0  0  0  0
   57.0380   33.5570   45.8130 F   0  0  0  0  0  0  0  0  0  0  0  0
   58.9310   34.6950   46.6780 C   0  0  0  0  0  0  0  0  0  0  0  0
   58.3774   35.6443   46.6300 H   0  0  0  0  0  0  0  0  0  0  0  0
   60.2440   34.6790   47.1530 C   0  0  0  0  0  0  0  0  0  0  0  0
   60.7228   35.6155   47.4750 H   0  0  0  0  0  0  0  0  0  0  0  0
   60.9500   33.4770   47.2200 C   0  0  0  0  0  0  0  0  0  0  0  0
   61.9883   33.4714   47.5832 H   0  0  0  0  0  0  0  0  0  0  0  0
   60.3410   32.2750   46.8260 C   0  0  0  0  0  0  0  0  0  0  0  0
   61.1340   30.9910   46.8370 C   0  0  0  0  0  0  0  0  0  0  0  0
   61.6109   30.8549   45.8551 H   0  0  0  0  0  0  0  0  0  0  0  0
   61.8935   31.0563   47.6301 H   0  0  0  0  0  0  0  0  0  0  0  0
   60.2310   29.7870   47.1260 C   0  0  0  0  0  0  0  0  0  0  0  0
   60.8099   28.8617   46.9890 H   0  0  0  0  0  0  0  0  0  0  0  0
   59.8657   29.8625   48.1608 H   0  0  0  0  0  0  0  0  0  0  0  0
   57.8700   27.6950   46.8010 C   0  0  0  0  0  0  0  0  0  0  0  0
   57.8075   28.0318   47.8463 H   0  0  0  0  0  0  0  0  0  0  0  0
   57.3210   26.4630   46.4350 C   0  0  0  0  0  0  0  0  0  0  0  0
   56.8226   25.8408   47.1929 H   0  0  0  0  0  0  0  0  0  0  0  0
   57.6080   23.6900   44.1330 C   0  0  0  0  0  0  0  0  0  0  0  0
   58.6897   23.8313   43.9918 H   0  0  0  0  0  0  0  0  0  0  0  0
   56.9930   22.4950   43.7630 C   0  0  0  0  0  0  0  0  0  0  0  0
   57.5910   21.6811   43.3272 H   0  0  0  0  0  0  0  0  0  0  0  0
   55.6570   22.3350   43.9400 N   0  0  0  0  0  0  0  0  0  0  0  0
   53.4670   22.7620   47.0080 N   0  0  0  0  0  0  0  0  0  0  0  0
   52.8660   22.2270   48.1030 C   0  0  0  0  0  0  0  0  0  0  0  0
   53.3114   22.3669   49.0990 H   0  0  0  0  0  0  0  0  0  0  0  0
   51.6850   21.5010   47.9630 C   0  0  0  0  0  0  0  0  0  0  0  0
   51.1856   21.0632   48.8399 H   0  0  0  0  0  0  0  0  0  0  0  0
  1  2  1  0
  2  3  2  0
  3  4  1  0
  4  5  1  0
  5  6  2  0
  6  7  1  0
  7  8  2  0
  8  9  1  0
  9 10  2  0
 10 11  1  0
 10 12  1  0
 12 13  1  0
 12 14  2  0
 14 15  1  0
 15 16  1  0
 16 17  2  0
 16 18  1  0
 18 19  2  0
 19 20  1  0
 19 21  1  0
 21 22  1  0
 21 23  2  0
 23 24  1  0
 23 25  1  0
 25 26  1  0
 25 27  2  0
 27 28  1  0
 28 29  1  0
 28 30  1  0
 28 31  1  0
 31 32  1  0
 31 33  1  0
 14 34  1  0
 34 35  1  0
 34 36  2  0
 36 37  1  0
  8 38  1  0
 38 39  1  0
 38 40  2  0
 40 41  1  0
 40 42  1  0
  4 43  2  0
 43 44  1  0
 44 45  1  0
 44 46  2  0
 46 47  1  0
 46  2  1  0
 42  6  1  0
 36  9  1  0
 31 15  1  0
 27 18  1  0
M  CHG  1  42  -1
M  END
>  <UniqueID>  (6) 
6

>  <SMILES>  (6) 
O=C1c2c(F)cccc2CCN1c1ccc(-c2cc[n-]/c(=N\c3ncccn3)n2)cc1

>  <Energy>  (6) 
71.30048270496692

>  <Genealogy>  (6) 
O=C1c2c(F)cccc2CCN1c1ccc(-c2cc[n-]c(=Nc3ncccn3)n2)cc1 (protonated)
O=C1c2c(F)cccc2CCN1c1ccc(-c2cc[n-]/c(=N\c3ncccn3)n2)cc1 (cis-trans isomerization)
O=C1c2c(F)cccc2CCN1c1ccc(-c2cc[n-]/c(=N\c3ncccn3)n2)cc1 (3D coordinates assigned)
O=C1c2c(F)cccc2CCN1c1ccc(-c2cc[n-]/c(=N\c3ncccn3)n2)cc1 (nonaromatic ring conformer: 71.30048270496692 kcal/mol)

>  <smiles>  (6) 
O=C1c2c(F)cccc2CCN1c1ccc(-c2cc[nH]c(=Nc3ncccn3)n2)cc1

>  <score_type>  (6) 
oracle

>  <origin>  (6) 
adg

>  <m_score__min__energy>  (6) 
-10.68

>  <m_primary>  (6) 
energy

$$$$
6:0
     RDKit          3D

 37 40  0  0  0  0  0  0  0  0999 V2000
   59.3430   32.5980   50.2160 C   0  0  0  0  0  0  0  0  0  0  0  0
   60.3670   32.8610   49.2030 N   0  0  0  0  0  0  0  0  0  0  0  0
   61.7190   32.8870   49.3620 C   0  0  0  0  0  0  0  0  0  0  0  0
   62.4640   32.6480   50.5240 C   0  0  0  0  0  0  0  0  0  0  0  0
   63.8660   32.7450   50.4430 C   0  0  0  0  0  0  0  0  0  0  0  0
   64.4980   33.0820   49.2250 C   0  0  0  0  0  0  0  0  0  0  0  0
   63.7350   33.3260   48.0700 C   0  0  0  0  0  0  0  0  0  0  0  0
   62.3510   33.2190   48.1770 C   0  0  0  0  0  0  0  0  0  0  0  0
   61.3480   33.4100   47.2650 C   0  0  0  0  0  0  0  0  0  0  0  0
   61.4080   33.7770   45.9690 N   0  0  0  0  0  0  0  0  0  0  0  0
   60.2660   33.9280   45.2900 N   0  0  0  0  0  0  0  0  0  0  0  0
   59.0620   33.7270   45.8670 N   0  0  0  0  0  0  0  0  0  0  0  0
   57.8450   33.9520   45.0730 C   0  0  0  0  0  0  0  0  0  0  0  0
   57.5340   32.7340   44.2460 C   0  0  0  0  0  0  0  0  0  0  0  0
   57.7690   32.7340   42.8610 C   0  0  0  0  0  0  0  0  0  0  0  0
   57.5110   31.5890   42.1020 C   0  0  0  0  0  0  0  0  0  0  0  0
   57.0230   30.4330   42.7210 C   0  0  0  0  0  0  0  0  0  0  0  0
   56.7950   30.4210   44.1000 C   0  0  0  0  0  0  0  0  0  0  0  0
   56.1900   28.9700   44.8760 Cl  0  0  0  0  0  0  0  0  0  0  0  0
   57.0520   31.5670   44.8610 C   0  0  0  0  0  0  0  0  0  0  0  0
   58.9770   33.3670   47.1940 C   0  0  0  0  0  0  0  0  0  0  0  0
   57.8600   33.2010   47.7540 O   0  0  0  0  0  0  0  0  0  0  0  0
   60.1630   33.1970   47.9020 C   0  0  0  0  0  0  0  0  0  0  0  0
   59.7815   32.7106   51.2185 H   0  0  0  0  0  0  0  0  0  0  0  0
   58.5157   33.3128   50.0953 H   0  0  0  0  0  0  0  0  0  0  0  0
   58.9625   31.5730   50.0953 H   0  0  0  0  0  0  0  0  0  0  0  0
   61.9680   32.3920   51.4719 H   0  0  0  0  0  0  0  0  0  0  0  0
   64.4766   32.5563   51.3383 H   0  0  0  0  0  0  0  0  0  0  0  0
   65.5947   33.1539   49.1804 H   0  0  0  0  0  0  0  0  0  0  0  0
   64.2140   33.5919   47.1161 H   0  0  0  0  0  0  0  0  0  0  0  0
   60.3250   34.2160   44.2880 H   0  0  0  0  0  0  0  0  0  0  0  0
   57.0022   34.1573   45.7494 H   0  0  0  0  0  0  0  0  0  0  0  0
   58.0056   34.8100   44.4036 H   0  0  0  0  0  0  0  0  0  0  0  0
   58.1578   33.6392   42.3716 H   0  0  0  0  0  0  0  0  0  0  0  0
   57.6918   31.5967   41.0170 H   0  0  0  0  0  0  0  0  0  0  0  0
   56.8187   29.5332   42.1222 H   0  0  0  0  0  0  0  0  0  0  0  0
   56.8755   31.5537   45.9467 H   0  0  0  0  0  0  0  0  0  0  0  0
  1  2  1  0
  2  3  1  0
  3  4  2  0
  4  5  1  0
  5  6  2  0
  6  7  1  0
  7  8  2  0
  8  9  1  0
  9 10  1  0
 10 11  2  0
 11 12  1  0
 12 13  1  0
 13 14  1  0
 14 15  2  0
 15 16  1  0
 16 17  2  0
 17 18  1  0
 18 19  1  0
 18 20  2  0
 12 21  1  0
 21 22  2  0
 21 23  1  0
 23  2  1  0
  8  3  1  0
 23  9  2  0
 20 14  1  0
  1 24  1  0
  1 25  1  0
  1 26  1  0
  4 27  1  0
  5 28  1  0
  6 29  1  0
  7 30  1  0
 11 31  1  0
 13 32  1  0
 13 33  1  0
 15 34  1  0
 16 35  1  0
 17 36  1  0
 20 37  1  0
M  CHG  1  11   1
M  END
>  <UniqueID>  (7) 
7

>  <SMILES>  (7) 
Cn1c2ccccc2c2n[nH+]n(Cc3cccc(Cl)c3)c(=O)c21

>  <Energy>  (7) 
88.47930682772858

>  <Genealogy>  (7) 
Cn1c2ccccc2c2n[nH+]n(Cc3cccc(Cl)c3)c(=O)c21 (protonated)
Cn1c2ccccc2c2n[nH+]n(Cc3cccc(Cl)c3)c(=O)c21 (3D coordinates assigned)
Cn1c2ccccc2c2n[nH+]n(Cc3cccc(Cl)c3)c(=O)c21 (optimized conformer: 88.47930682772858 kcal/mol)

>  <smiles>  (7) 
Cn1c2ccccc2c2nnn(Cc3cccc(Cl)c3)c(=O)c21

>  <score_type>  (7) 
oracle

>  <origin>  (7) 
adg

>  <m_score__min__energy>  (7) 
-6.9500000000000002

>  <m_primary>  (7) 
energy

$$$$
7:0
     RDKit          3D

 58 62  0  0  0  0  0  0  0  0999 V2000
   56.2690   23.1530   43.1120 C   0  0  0  0  0  0  0  0  0  0  0  0
   55.4030   23.3150   44.3560 C   0  0  0  0  0  0  0  0  0  0  0  0
   55.7030   24.6090   45.0450 C   0  0  0  0  0  0  0  0  0  0  0  0
   56.9560   25.1500   45.2400 C   0  0  0  0  0  0  0  0  0  0  0  0
   56.7030   26.2970   45.9730 C   0  0  0  0  0  0  0  0  0  0  0  0
   57.6860   27.2870   46.4680 C   0  0  0  0  0  0  0  0  0  0  0  0
   58.6410   26.9460   47.4430 C   0  0  0  0  0  0  0  0  0  0  0  0
   59.5590   27.8980   47.8980 C   0  0  0  0  0  0  0  0  0  0  0  0
   59.5370   29.2080   47.3930 C   0  0  0  0  0  0  0  0  0  0  0  0
   60.5440   30.2350   47.8860 C   0  0  1  0  0  0  0  0  0  0  0  0
   61.1470   30.9290   46.7280 N   0  0  0  0  0  0  0  0  0  0  0  0
   62.0140   32.0330   47.1550 C   0  0  0  0  0  0  0  0  0  0  0  0
   61.1820   33.1360   47.8130 C   0  0  0  0  0  0  0  0  0  0  0  0
   60.2660   32.5760   48.8680 C   0  0  0  0  0  0  0  0  0  0  0  0
   59.7100   33.4450   49.8170 C   0  0  0  0  0  0  0  0  0  0  0  0
   58.8540   32.9610   50.8070 C   0  0  0  0  0  0  0  0  0  0  0  0
   58.5360   31.5950   50.8650 C   0  0  0  0  0  0  0  0  0  0  0  0
   57.6770   31.0910   51.9070 N   0  0  0  0  0  0  0  0  0  0  0  0
   56.2740   31.5160   51.9790 C   0  0  0  0  0  0  0  0  0  0  0  0
   55.4640   30.5630   52.8690 C   0  0  0  0  0  0  0  0  0  0  0  0
   55.8800   29.1730   52.6450 N   0  0  0  0  0  0  0  0  0  0  0  0
   57.2820   28.9290   53.0420 C   0  0  0  0  0  0  0  0  0  0  0  0
   58.1860   30.1740   52.9320 C   0  0  0  0  0  0  0  0  0  0  0  0
   59.0890   30.7240   49.9130 C   0  0  0  0  0  0  0  0  0  0  0  0
   59.9190   31.2070   48.8830 C   0  0  0  0  0  0  0  0  0  0  0  0
   58.5900   29.5440   46.4110 C   0  0  0  0  0  0  0  0  0  0  0  0
   57.6720   28.5940   45.9570 C   0  0  0  0  0  0  0  0  0  0  0  0
   55.4060   26.3800   46.1790 O   0  0  0  0  0  0  0  0  0  0  0  0
   54.7750   25.3790   45.6410 N   0  0  0  0  0  0  0  0  0  0  0  0
   57.3092   22.9584   43.4122 H   0  0  0  0  0  0  0  0  0  0  0  0
   55.8962   22.3090   42.5131 H   0  0  0  0  0  0  0  0  0  0  0  0
   56.2265   24.0747   42.5131 H   0  0  0  0  0  0  0  0  0  0  0  0
   54.3430   23.2996   44.0625 H   0  0  0  0  0  0  0  0  0  0  0  0
   55.6198   22.4877   45.0478 H   0  0  0  0  0  0  0  0  0  0  0  0
   57.9260   24.7625   44.8952 H   0  0  0  0  0  0  0  0  0  0  0  0
   58.6659   25.9244   47.8500 H   0  0  0  0  0  0  0  0  0  0  0  0
   60.3041   27.6183   48.6574 H   0  0  0  0  0  0  0  0  0  0  0  0
   61.3444   29.7157   48.4335 H   0  0  0  0  0  0  0  0  0  0  0  0
   60.4050   31.3030   46.0890 H   0  0  0  0  0  0  0  0  0  0  0  0
   61.7270   30.2450   46.1860 H   0  0  0  0  0  0  0  0  0  0  0  0
   62.7531   31.6559   47.8772 H   0  0  0  0  0  0  0  0  0  0  0  0
   62.5263   32.4476   46.2743 H   0  0  0  0  0  0  0  0  0  0  0  0
   61.8600   33.8666   48.2785 H   0  0  0  0  0  0  0  0  0  0  0  0
   60.5660   33.6149   47.0376 H   0  0  0  0  0  0  0  0  0  0  0  0
   59.9506   34.5178   49.7810 H   0  0  0  0  0  0  0  0  0  0  0  0
   58.4259   33.6539   51.5463 H   0  0  0  0  0  0  0  0  0  0  0  0
   56.2253   32.5315   52.3990 H   0  0  0  0  0  0  0  0  0  0  0  0
   55.8474   31.5018   50.9652 H   0  0  0  0  0  0  0  0  0  0  0  0
   55.6294   30.8249   53.9245 H   0  0  0  0  0  0  0  0  0  0  0  0
   54.3977   30.6605   52.6170 H   0  0  0  0  0  0  0  0  0  0  0  0
   55.7750   28.9560   51.6250 H   0  0  0  0  0  0  0  0  0  0  0  0
   57.2917   28.5846   54.0867 H   0  0  0  0  0  0  0  0  0  0  0  0
   57.6855   28.1777   52.3472 H   0  0  0  0  0  0  0  0  0  0  0  0
   58.2079   30.6920   53.9021 H   0  0  0  0  0  0  0  0  0  0  0  0
   59.1996   29.8531   52.6498 H   0  0  0  0  0  0  0  0  0  0  0  0
   58.8706   29.6475   49.9725 H   0  0  0  0  0  0  0  0  0  0  0  0
   58.5713   30.5628   45.9966 H   0  0  0  0  0  0  0  0  0  0  0  0
   56.9319   28.8727   45.1925 H   0  0  0  0  0  0  0  0  0  0  0  0
  1  2  1  0
  2  3  1  0
  3  4  1  0
  4  5  2  0
  5  6  1  0
  6  7  2  0
  7  8  1  0
  8  9  2  0
  9 10  1  0
 10 11  1  0
 11 12  1  0
 12 13  1  0
 13 14  1  0
 14 15  2  0
 15 16  1  0
 16 17  2  0
 17 18  1  0
 18 19  1  0
 19 20  1  0
 20 21  1  0
 21 22  1  0
 22 23  1  0
 17 24  1  0
 24 25  2  0
  9 26  1  0
 26 27  2  0
  5 28  1  0
 28 29  1  0
 29  3  2  0
 27  6  1  0
 25 10  1  0
 25 14  1  0
 23 18  1  0
  1 30  1  0
  1 31  1  0
  1 32  1  0
  2 33  1  0
  2 34  1  0
  4 35  1  0
  7 36  1  0
  8 37  1  0
 10 38  1  1
 11 39  1  0
 11 40  1  0
 12 41  1  0
 12 42  1  0
 13 43  1  0
 13 44  1  0
 15 45  1  0
 16 46  1  0
 19 47  1  0
 19 48  1  0
 20 49  1  0
 20 50  1  0
 21 51  1  0
 22 52  1  0
 22 53  1  0
 23 54  1  0
 23 55  1  0
 24 56  1  0
 26 57  1  0
 27 58  1  0
M  CHG  1  11   1
M  END
>  <UniqueID>  (8) 
8

>  <SMILES>  (8) 
CCc1cc(-c2ccc([C@H]3[NH2+]CCc4ccc(N5CCNCC5)cc43)cc2)on1

>  <Energy>  (8) 
101.57898107872158

>  <Genealogy>  (8) 
CCc1cc(-c2ccc(C3[NH2+]CCc4ccc(N5CCNCC5)cc43)cc2)on1 (protonated)
CCc1cc(-c2ccc([C@H]3[NH2+]CCc4ccc(N5CCNCC5)cc43)cc2)on1 (chirality)
CCc1cc(-c2ccc([C@H]3[NH2+]CCc4ccc(N5CCNCC5)cc43)cc2)on1 (3D coordinates assigned)
CCc1cc(-c2ccc([C@H]3[NH2+]CCc4ccc(N5CCNCC5)cc43)cc2)on1 (nonaromatic ring conformer: 101.57898107872158 kcal/mol)

>  <smiles>  (8) 
CCc1cc(-c2ccc(C3NCCc4ccc(N5CCNCC5)cc43)cc2)on1

>  <score_type>  (8) 
oracle

>  <origin>  (8) 
adg

>  <m_score__min__energy>  (8) 
-7.7000000000000002

>  <m_primary>  (8) 
energy

$$$$
8:0
     RDKit          3D

 49 51  0  0  0  0  0  0  0  0999 V2000
   53.3470   30.3850   51.2020 C   0  0  0  0  0  0  0  0  0  0  0  0
   54.3350   31.2130   52.0180 C   0  0  0  0  0  0  0  0  0  0  0  0
   55.7500   30.6080   52.0280 C   0  0  0  0  0  0  0  0  0  0  0  0
   56.8350   31.6430   52.2550 C   0  0  0  0  0  0  0  0  0  0  0  0
   57.0740   32.0030   53.3990 O   0  0  0  0  0  0  0  0  0  0  0  0
   57.6460   32.1560   51.1630 N   0  0  0  0  0  0  0  0  0  0  0  0
   58.6280   33.1310   51.6850 C   0  0  0  0  0  0  0  0  0  0  0  0
   59.4270   33.7550   50.5350 C   0  0  0  0  0  0  0  0  0  0  0  0
   59.9350   32.7150   49.6330 N   0  0  0  0  0  0  0  0  0  0  0  0
   60.9230   33.0670   48.6540 C   0  0  0  0  0  0  0  0  0  0  0  0
   62.1360   33.5540   48.9900 N   0  0  0  0  0  0  0  0  0  0  0  0
   62.7090   33.8410   47.8040 C   0  0  0  0  0  0  0  0  0  0  0  0
   61.8430   33.5300   46.7780 C   0  0  0  0  0  0  0  0  0  0  0  0
   60.7140   33.0360   47.3180 N   0  0  0  0  0  0  0  0  0  0  0  0
   59.5990   32.4840   46.5960 C   0  0  0  0  0  0  0  0  0  0  0  0
   59.5220   31.1040   46.3460 C   0  0  0  0  0  0  0  0  0  0  0  0
   58.4290   30.5690   45.6590 C   0  0  0  0  0  0  0  0  0  0  0  0
   57.4020   31.4110   45.1940 C   0  0  0  0  0  0  0  0  0  0  0  0
   56.2830   30.9230   44.5030 O   0  0  0  0  0  0  0  0  0  0  0  0
   56.3530   30.1020   43.3410 C   0  0  0  0  0  0  0  0  0  0  0  0
   57.4920   32.7900   45.4220 C   0  0  0  0  0  0  0  0  0  0  0  0
   58.5810   33.3240   46.1180 C   0  0  0  0  0  0  0  0  0  0  0  0
   59.7160   31.3030   49.9500 C   0  0  0  0  0  0  0  0  0  0  0  0
   58.2500   31.0540   50.3570 C   0  0  0  0  0  0  0  0  0  0  0  0
   52.6844   29.8297   51.8822 H   0  0  0  0  0  0  0  0  0  0  0  0
   52.7452   31.0525   50.5677 H   0  0  0  0  0  0  0  0  0  0  0  0
   53.8990   29.6758   50.5677 H   0  0  0  0  0  0  0  0  0  0  0  0
   54.3874   32.2238   51.5871 H   0  0  0  0  0  0  0  0  0  0  0  0
   53.9742   31.2322   53.0570 H   0  0  0  0  0  0  0  0  0  0  0  0
   55.8056   29.8596   52.8322 H   0  0  0  0  0  0  0  0  0  0  0  0
   55.9237   30.1606   51.0382 H   0  0  0  0  0  0  0  0  0  0  0  0
   57.0090   32.6920   50.5210 H   0  0  0  0  0  0  0  0  0  0  0  0
   58.0957   33.9252   52.2289 H   0  0  0  0  0  0  0  0  0  0  0  0
   59.3230   32.6100   52.3599 H   0  0  0  0  0  0  0  0  0  0  0  0
   58.7742   34.4362   49.9695 H   0  0  0  0  0  0  0  0  0  0  0  0
   60.2807   34.3066   50.9556 H   0  0  0  0  0  0  0  0  0  0  0  0
   63.7174   34.2608   47.6745 H   0  0  0  0  0  0  0  0  0  0  0  0
   62.0405   33.6626   45.7040 H   0  0  0  0  0  0  0  0  0  0  0  0
   60.3273   30.4400   46.6933 H   0  0  0  0  0  0  0  0  0  0  0  0
   58.3713   29.4850   45.4810 H   0  0  0  0  0  0  0  0  0  0  0  0
   56.4429   29.0477   43.6418 H   0  0  0  0  0  0  0  0  0  0  0  0
   55.4402   30.2358   42.7420 H   0  0  0  0  0  0  0  0  0  0  0  0
   57.2300   30.3884   42.7420 H   0  0  0  0  0  0  0  0  0  0  0  0
   56.7005   33.4577   45.0510 H   0  0  0  0  0  0  0  0  0  0  0  0
   58.6402   34.4086   46.2919 H   0  0  0  0  0  0  0  0  0  0  0  0
   59.9530   30.6938   49.0653 H   0  0  0  0  0  0  0  0  0  0  0  0
   60.3675   31.0256   50.7918 H   0  0  0  0  0  0  0  0  0  0  0  0
   57.6536   30.9289   49.4412 H   0  0  0  0  0  0  0  0  0  0  0  0
   58.2452   30.1564   50.9928 H   0  0  0  0  0  0  0  0  0  0  0  0
  1  2  1  0
  2  3  1  0
  3  4  1  0
  4  5  2  0
  4  6  1  0
  6  7  1  0
  7  8  1  0
  8  9  1  0
  9 10  1  0
 10 11  2  0
 11 12  1  0
 12 13  2  0
 13 14  1  0
 14 15  1  0
 15 16  2  0
 16 17  1  0
 17 18  2  0
 18 19  1  0
 19 20  1  0
 18 21  1  0
 21 22  2  0
  9 23  1  0
 23 24  1  0
 24  6  1  0
 14 10  1  0
 22 15  1  0
  1 25  1  0
  1 26  1  0
  1 27  1  0
  2 28  1  0
  2 29  1  0
  3 30  1  0
  3 31  1  0
  6 32  1  0
  7 33  1  0
  7 34  1  0
  8 35  1  0
  8 36  1  0
 12 37  1  0
 13 38  1  0
 16 39  1  0
 17 40  1  0
 20 41  1  0
 20 42  1  0
 20 43  1  0
 21 44  1  0
 22 45  1  0
 23 46  1  0
 23 47  1  0
 24 48  1  0
 24 49  1  0
M  CHG  1   6   1
M  END
>  <UniqueID>  (9) 
9

>  <SMILES>  (9) 
CCCC(=O)[NH+]1CCN(c2nccn2-c2ccc(OC)cc2)CC1

>  <Energy>  (9) 
89.2054919587392

>  <Genealogy>  (9) 
CCCC(=O)[NH+]1CCN(c2nccn2-c2ccc(OC)cc2)CC1 (protonated)
CCCC(=O)[NH+]1CCN(c2nccn2-c2ccc(OC)cc2)CC1 (3D coordinates assigned)
CCCC(=O)[NH+]1CCN(c2nccn2-c2ccc(OC)cc2)CC1 (nonaromatic ring conformer: 89.2054919587392 kcal/mol)

>  <smiles>  (9) 
CCCC(=O)N1CCN(c2nccn2-c2ccc(OC)cc2)CC1

>  <score_type>  (9) 
oracle

>  <origin>  (9) 
adg

>  <m_score__min__energy>  (9) 
-5.7400000000000002

>  <m_primary>  (9) 
energy

$$$$
9:0
     RDKit          3D

 23 23  0  0  0  0  0  0  0  0999 V2000
   57.7760   29.0240   53.0810 C   0  0  0  0  0  0  0  0  0  0  0  0
   56.9540   29.4350   51.9950 O   0  0  0  0  0  0  0  0  0  0  0  0
   56.0750   30.5200   52.0820 C   0  0  0  0  0  0  0  0  0  0  0  0
   56.5270   31.6980   52.1090 O   0  0  0  0  0  0  0  0  0  0  0  0
   54.6150   30.2830   52.1430 C   0  0  0  0  0  0  0  0  0  0  0  0
   54.1010   29.1150   52.7280 C   0  0  0  0  0  0  0  0  0  0  0  0
   52.7200   28.9150   52.7740 C   0  0  0  0  0  0  0  0  0  0  0  0
   51.8790   29.8470   52.2540 N   0  0  0  0  0  0  0  0  0  0  0  0
   52.3360   30.9920   51.6800 C   0  0  0  0  0  0  0  0  0  0  0  0
   51.3660   31.9590   51.1370 C   0  0  0  0  0  0  0  0  0  0  0  0
   51.1970   32.0640   49.8900 O   0  0  0  0  0  0  0  0  0  0  0  0
   50.6340   32.7620   52.0170 O   0  0  0  0  0  0  0  0  0  0  0  0
   50.6340   32.5550   53.4250 C   0  0  0  0  0  0  0  0  0  0  0  0
   53.7190   31.2280   51.6150 C   0  0  0  0  0  0  0  0  0  0  0  0
   57.2798   29.2721   54.0308 H   0  0  0  0  0  0  0  0  0  0  0  0
   57.9402   27.9377   53.0259 H   0  0  0  0  0  0  0  0  0  0  0  0
   58.7436   29.5444   53.0259 H   0  0  0  0  0  0  0  0  0  0  0  0
   54.7829   28.3610   53.1481 H   0  0  0  0  0  0  0  0  0  0  0  0
   52.3122   28.0017   53.2318 H   0  0  0  0  0  0  0  0  0  0  0  0
   51.6711   32.5017   53.7878 H   0  0  0  0  0  0  0  0  0  0  0  0
   50.1155   33.3903   53.9184 H   0  0  0  0  0  0  0  0  0  0  0  0
   50.1155   31.6131   53.6571 H   0  0  0  0  0  0  0  0  0  0  0  0
   54.0998   32.1503   51.1519 H   0  0  0  0  0  0  0  0  0  0  0  0
  1  2  1  0
  2  3  1  0
  3  4  2  0
  3  5  1  0
  5  6  2  0
  6  7  1  0
  7  8  2  0
  8  9  1  0
  9 10  1  0
 10 11  2  0
 10 12  1  0
 12 13  1  0
  9 14  2  0
 14  5  1  0
  1 15  1  0
  1 16  1  0
  1 17  1  0
  6 18  1  0
  7 19  1  0
 13 20  1  0
 13 21  1  0
 13 22  1  0
 14 23  1  0
M  END
>  <UniqueID>  (10) 
10

>  <SMILES>  (10) 
COC(=O)c1ccnc(C(=O)OC)c1

>  <Energy>  (10) 
17.86634273567694

>  <Genealogy>  (10) 
COC(=O)c1ccnc(C(=O)OC)c1 (3D coordinates assigned)
COC(=O)c1ccnc(C(=O)OC)c1 (optimized conformer: 17.86634273567694 kcal/mol)

>  <smiles>  (10) 
COC(=O)c1ccnc(C(=O)OC)c1

>  <score_type>  (10) 
oracle

>  <origin>  (10) 
adg

>  <m_score__min__energy>  (10) 
-4.8799999999999999

>  <m_primary>  (10) 
energy

$$$$
10:0
     RDKit          3D

 39 42  0  0  0  0  0  0  0  0999 V2000
   65.2913   33.5766   50.6178 H   0  0  0  0  0  0  0  0  0  0  0  0
   64.3750   33.5290   50.0110 C   0  0  0  0  0  0  0  0  0  0  0  0
   64.4360   33.0900   48.6870 C   0  0  0  0  0  0  0  0  0  0  0  0
   65.4015   32.7938   48.2511 H   0  0  0  0  0  0  0  0  0  0  0  0
   63.2730   33.0260   47.9140 C   0  0  0  0  0  0  0  0  0  0  0  0
   63.3281   32.6773   46.8722 H   0  0  0  0  0  0  0  0  0  0  0  0
   62.0310   33.4050   48.4600 C   0  0  0  0  0  0  0  0  0  0  0  0
   60.7950   33.3390   47.6400 C   0  0  0  0  0  0  0  0  0  0  0  0
   59.6600   32.6560   48.1110 C   0  0  0  0  0  0  0  0  0  0  0  0
   59.6884   32.1647   49.0948 H   0  0  0  0  0  0  0  0  0  0  0  0
   58.4960   32.5960   47.3400 C   0  0  0  0  0  0  0  0  0  0  0  0
   57.6187   32.0501   47.7174 H   0  0  0  0  0  0  0  0  0  0  0  0
   58.4380   33.2280   46.0860 C   0  0  0  0  0  0  0  0  0  0  0  0
   57.2080   33.1640   45.2610 C   0  0  0  0  0  0  0  0  0  0  0  0
   56.6540   34.2340   44.8920 O   0  0  0  0  0  0  0  0  0  0  0  0
   56.6620   31.9180   44.8080 N   0  0  0  0  0  0  0  0  0  0  0  0
   57.2440   30.7580   44.8990 C   0  0  0  0  0  0  0  0  0  0  0  0
   58.8130   30.3790   44.3250 S   0  0  0  0  0  0  0  0  0  0  0  0
   58.6760   28.8120   44.9110 C   0  0  0  0  0  0  0  0  0  0  0  0
   57.4940   28.6390   45.5200 C   0  0  0  0  0  0  0  0  0  0  0  0
   56.6670   29.7090   45.5400 N   0  0  0  0  0  0  0  0  0  0  0  0
   55.7270   29.7260   45.9950 H   0  0  0  0  0  0  0  0  0  0  0  0
   57.3470   27.3070   46.1330 C   0  0  0  0  0  0  0  0  0  0  0  0
   56.4943   26.7624   45.7012 H   0  0  0  0  0  0  0  0  0  0  0  0
   57.1486   27.3410   47.2144 H   0  0  0  0  0  0  0  0  0  0  0  0
   58.6930   26.6210   45.7710 C   0  0  0  0  0  0  0  0  0  0  0  0
   58.5039   25.7394   45.1410 H   0  0  0  0  0  0  0  0  0  0  0  0
   59.2113   26.2955   46.6850 H   0  0  0  0  0  0  0  0  0  0  0  0
   59.5660   27.6440   44.9950 C   0  0  0  0  0  0  0  0  0  0  0  0
   59.8262   27.2682   43.9945 H   0  0  0  0  0  0  0  0  0  0  0  0
   60.5305   27.8579   45.4788 H   0  0  0  0  0  0  0  0  0  0  0  0
   59.5760   33.8980   45.6070 C   0  0  0  0  0  0  0  0  0  0  0  0
   59.5507   34.3795   44.6183 H   0  0  0  0  0  0  0  0  0  0  0  0
   60.7400   33.9570   46.3780 C   0  0  0  0  0  0  0  0  0  0  0  0
   61.6213   34.4918   45.9942 H   0  0  0  0  0  0  0  0  0  0  0  0
   61.9830   33.8470   49.7970 C   0  0  0  0  0  0  0  0  0  0  0  0
   61.0213   34.1461   50.2393 H   0  0  0  0  0  0  0  0  0  0  0  0
   63.1490   33.9080   50.5650 C   0  0  0  0  0  0  0  0  0  0  0  0
   63.1018   34.2550   51.6078 H   0  0  0  0  0  0  0  0  0  0  0  0
  1  2  1  0
  2  3  2  0
  3  4  1  0
  3  5  1  0
  5  6  1  0
  5  7  2  0
  7  8  1  0
  8  9  2  0
  9 10  1  0
  9 11  1  0
 11 12  1  0
 11 13  2  0
 13 14  1  0
 14 15  2  0
 14 16  1  0
 16 17  2  0
 17 18  1  0
 18 19  1  0
 19 20  2  0
 20 21  1  0
 21 22  1  0
 20 23  1  0
 23 24  1  0
 23 25  1  0
 23 26  1  0
 26 27  1  0
 26 28  1  0
 26 29  1  0
 29 30  1  0
 29 31  1  0
 13 32  1  0
 32 33  1  0
 32 34  2  0
 34 35  1  0
  7 36  1  0
 36 37  1  0
 36 38  2  0
 38 39  1  0
 38  2  1  0
 34  8  1  0
 21 17  1  0
 29 19  1  0
M  END
>  <UniqueID>  (11) 
11

>  <SMILES>  (11) 
O=C(/N=c1/[nH]c2c(s1)CCC2)c1ccc(-c2ccccc2)cc1

>  <Energy>  (11) 
103.81934865816595

>  <Genealogy>  (11) 
O=C(/N=c1/[nH]c2c(s1)CCC2)c1ccc(-c2ccccc2)cc1 (cis-trans isomerization)
O=C(/N=c1/[nH]c2c(s1)CCC2)c1ccc(-c2ccccc2)cc1 (3D coordinates assigned)
O=C(/N=c1/[nH]c2c(s1)CCC2)c1ccc(-c2ccccc2)cc1 (nonaromatic ring conformer: 103.81934865816595 kcal/mol)

>  <smiles>  (11) 
O=C(N=c1[nH]c2c(s1)CCC2)c1ccc(-c2ccccc2)cc1

>  <score_type>  (11) 
oracle

>  <origin>  (11) 
adg

>  <m_score__min__energy>  (11) 
-8.3499999999999996

>  <m_primary>  (11) 
energy

$$$$
12:0
     RDKit          3D

 45 46  0  0  0  0  0  0  0  0999 V2000
   58.9760   30.8030   49.1030 C   0  0  0  0  0  0  0  0  0  0  0  0
   60.4040   31.2510   48.8090 C   0  0  0  0  0  0  0  0  0  0  0  0
   60.6120   31.3680   47.3470 N   0  0  0  0  0  0  0  0  0  0  0  0
   61.4760   32.5270   47.0190 C   0  0  0  0  0  0  0  0  0  0  0  0
   62.8880   32.3010   47.5540 C   0  0  0  0  0  0  0  0  0  0  0  0
   61.1730   30.1160   46.7910 C   0  0  0  0  0  0  0  0  0  0  0  0
   60.0750   29.2760   46.1910 C   0  0  0  0  0  0  0  0  0  0  0  0
   60.2700   27.8980   46.0090 C   0  0  0  0  0  0  0  0  0  0  0  0
   59.2470   27.1070   45.4790 C   0  0  0  0  0  0  0  0  0  0  0  0
   58.0280   27.6860   45.1170 C   0  0  0  0  0  0  0  0  0  0  0  0
   57.8280   29.0680   45.2680 C   0  0  0  0  0  0  0  0  0  0  0  0
   56.5350   29.6870   44.9120 C   0  0  0  0  0  0  0  0  0  0  0  0
   55.5080   28.9610   44.8430 O   0  0  0  0  0  0  0  0  0  0  0  0
   56.4020   31.0940   44.6740 N   0  0  0  0  0  0  0  0  0  0  0  0
   57.3720   31.9140   43.9590 C   0  0  0  0  0  0  0  0  0  0  0  0
   57.9910   32.8930   44.9130 C   0  0  0  0  0  0  0  0  0  0  0  0
   57.6470   32.8660   46.2750 C   0  0  0  0  0  0  0  0  0  0  0  0
   58.1970   33.8010   47.1580 C   0  0  0  0  0  0  0  0  0  0  0  0
   59.0850   34.7720   46.6870 C   0  0  0  0  0  0  0  0  0  0  0  0
   59.4190   34.8140   45.3300 C   0  0  0  0  0  0  0  0  0  0  0  0
   58.8710   33.8830   44.4440 C   0  0  0  0  0  0  0  0  0  0  0  0
   58.8490   29.8550   45.8230 C   0  0  0  0  0  0  0  0  0  0  0  0
   58.8235   30.7551   50.1913 H   0  0  0  0  0  0  0  0  0  0  0  0
   58.2685   31.5223   48.6649 H   0  0  0  0  0  0  0  0  0  0  0  0
   58.8062   29.8084   48.6649 H   0  0  0  0  0  0  0  0  0  0  0  0
   60.5827   32.2284   49.2809 H   0  0  0  0  0  0  0  0  0  0  0  0
   61.1047   30.5055   49.2130 H   0  0  0  0  0  0  0  0  0  0  0  0
   61.5170   32.6519   45.9269 H   0  0  0  0  0  0  0  0  0  0  0  0
   61.0562   33.4306   47.4852 H   0  0  0  0  0  0  0  0  0  0  0  0
   62.8683   32.3042   48.6538 H   0  0  0  0  0  0  0  0  0  0  0  0
   63.2646   31.3311   47.1968 H   0  0  0  0  0  0  0  0  0  0  0  0
   63.5485   33.1049   47.1968 H   0  0  0  0  0  0  0  0  0  0  0  0
   61.9094   30.3622   46.0118 H   0  0  0  0  0  0  0  0  0  0  0  0
   61.6577   29.5493   47.5996 H   0  0  0  0  0  0  0  0  0  0  0  0
   61.2311   27.4392   46.2844 H   0  0  0  0  0  0  0  0  0  0  0  0
   59.4018   26.0260   45.3465 H   0  0  0  0  0  0  0  0  0  0  0  0
   57.2216   27.0569   44.7121 H   0  0  0  0  0  0  0  0  0  0  0  0
   58.1555   31.2697   43.5335 H   0  0  0  0  0  0  0  0  0  0  0  0
   56.8677   32.4585   43.1471 H   0  0  0  0  0  0  0  0  0  0  0  0
   56.9431   32.1074   46.6480 H   0  0  0  0  0  0  0  0  0  0  0  0
   57.9302   33.7720   48.2248 H   0  0  0  0  0  0  0  0  0  0  0  0
   59.5210   35.5030   47.3838 H   0  0  0  0  0  0  0  0  0  0  0  0
   60.1145   35.5814   44.9593 H   0  0  0  0  0  0  0  0  0  0  0  0
   59.1293   33.9252   43.3756 H   0  0  0  0  0  0  0  0  0  0  0  0
   58.6881   30.9331   45.9709 H   0  0  0  0  0  0  0  0  0  0  0  0
  1  2  1  0
  2  3  1  0
  3  4  1  0
  4  5  1  0
  3  6  1  0
  6  7  1  0
  7  8  2  0
  8  9  1  0
  9 10  2  0
 10 11  1  0
 11 12  1  0
 12 13  2  0
 12 14  1  0
 14 15  1  0
 15 16  1  0
 16 17  2  0
 17 18  1  0
 18 19  2  0
 19 20  1  0
 20 21  2  0
 11 22  2  0
 22  7  1  0
 21 16  1  0
  1 23  1  0
  1 24  1  0
  1 25  1  0
  2 26  1  0
  2 27  1  0
  4 28  1  0
  4 29  1  0
  5 30  1  0
  5 31  1  0
  5 32  1  0
  6 33  1  0
  6 34  1  0
  8 35  1  0
  9 36  1  0
 10 37  1  0
 15 38  1  0
 15 39  1  0
 17 40  1  0
 18 41  1  0
 19 42  1  0
 20 43  1  0
 21 44  1  0
 22 45  1  0
M  CHG  1  14  -1
M  END
>  <UniqueID>  (12) 
12

>  <SMILES>  (12) 
CCN(CC)Cc1cccc(C(=O)[N-]Cc2ccccc2)c1

>  <Energy>  (12) 
45.979963602177236

>  <Genealogy>  (12) 
CCN(CC)Cc1cccc(C(=O)[N-]Cc2ccccc2)c1 (protonated)
CCN(CC)Cc1cccc(C(=O)[N-]Cc2ccccc2)c1 (3D coordinates assigned)
CCN(CC)Cc1cccc(C(=O)[N-]Cc2ccccc2)c1 (optimized conformer: 45.979963602177236 kcal/mol)

>  <smiles>  (12) 
CCN(CC)Cc1cccc(C(=O)NCc2ccccc2)c1

>  <score_type>  (12) 
oracle

>  <origin>  (12) 
adg

>  <m_score__min__energy>  (12) 
-9.3699999999999992

>  <m_primary>  (12) 
energy

$$$$
13:0
     RDKit          3D

 73 77  0  0  0  0  0  0  0  0999 V2000
   65.3560   32.5270   49.8900 C   0  0  0  0  0  0  0  0  0  0  0  0
   64.1650   32.4740   48.9870 C   0  0  0  0  0  0  0  0  0  0  0  0
   63.0220   31.7540   49.3620 C   0  0  0  0  0  0  0  0  0  0  0  0
   61.9070   31.7330   48.5130 C   0  0  0  0  0  0  0  0  0  0  0  0
   60.6770   31.0090   48.9110 C   0  0  0  0  0  0  0  0  0  0  0  0
   60.0400   31.3900   50.0990 C   0  0  0  0  0  0  0  0  0  0  0  0
   58.8460   30.7720   50.4950 C   0  0  0  0  0  0  0  0  0  0  0  0
   58.1770   31.1750   51.7560 C   0  0  0  0  0  0  0  0  0  0  0  0
   58.0550   32.4520   52.2860 C   0  0  0  0  0  0  0  0  0  0  0  0
   57.3740   32.3920   53.4470 N   0  0  0  0  0  0  0  0  0  0  0  0
   57.0790   31.1230   53.6720 N   0  0  0  0  0  0  0  0  0  0  0  0
   56.2950   30.6610   54.8090 C   0  0  0  0  0  0  0  0  0  0  0  0
   57.5330   30.3550   52.6660 C   0  0  0  0  0  0  0  0  0  0  0  0
   58.3060   29.7960   49.7080 N   0  0  0  0  0  0  0  0  0  0  0  0
   58.9020   29.3840   48.5510 C   0  0  0  0  0  0  0  0  0  0  0  0
   58.3090   28.3710   47.7810 C   0  0  0  0  0  0  0  0  0  0  0  0
   58.9050   27.9030   46.5890 C   0  0  0  0  0  0  0  0  0  0  0  0
   58.2660   26.8670   45.7790 N   0  0  0  0  0  0  0  0  0  0  0  0
   58.0140   25.5170   46.3140 C   0  0  0  0  0  0  0  0  0  0  0  0
   56.8750   24.8390   45.5400 C   0  0  0  0  0  0  0  0  0  0  0  0
   55.5220   25.0200   46.2320 C   0  0  0  0  0  0  0  0  0  0  0  0
   55.0090   26.3010   45.9850 O   0  0  0  0  0  0  0  0  0  0  0  0
   57.8630   27.1140   44.3820 C   0  0  0  0  0  0  0  0  0  0  0  0
   58.5210   28.4130   43.8610 C   0  0  0  0  0  0  0  0  0  0  0  0
   57.8900   29.6740   44.3140 N   0  0  0  0  0  0  0  0  0  0  0  0
   58.8120   30.7300   44.7350 C   0  0  0  0  0  0  0  0  0  0  0  0
   58.0150   32.0140   44.6830 C   0  0  0  0  0  0  0  0  0  0  0  0
   57.0280   31.7980   43.5510 C   0  0  0  0  0  0  0  0  0  0  0  0
   56.9090   30.2750   43.3950 C   0  0  2  0  0  0  0  0  0  0  0  0
   55.5050   29.7810   43.7490 C   0  0  0  0  0  0  0  0  0  0  0  0
   60.1380   28.4740   46.2090 C   0  0  0  0  0  0  0  0  0  0  0  0
   60.7330   29.4860   46.9640 C   0  0  0  0  0  0  0  0  0  0  0  0
   60.1160   29.9720   48.1300 C   0  0  0  0  0  0  0  0  0  0  0  0
   61.9480   32.4590   47.3130 C   0  0  0  0  0  0  0  0  0  0  0  0
   63.1040   33.1660   46.9760 C   0  0  0  0  0  0  0  0  0  0  0  0
   64.1750   33.1620   47.8120 N   0  0  0  0  0  0  0  0  0  0  0  0
   65.0224   32.5122   50.9381 H   0  0  0  0  0  0  0  0  0  0  0  0
   66.0007   31.6567   49.6980 H   0  0  0  0  0  0  0  0  0  0  0  0
   65.9209   33.4512   49.6980 H   0  0  0  0  0  0  0  0  0  0  0  0
   63.0004   31.2087   50.3171 H   0  0  0  0  0  0  0  0  0  0  0  0
   60.4800   32.1798   50.7255 H   0  0  0  0  0  0  0  0  0  0  0  0
   58.4525   33.3703   51.8292 H   0  0  0  0  0  0  0  0  0  0  0  0
   56.7952   30.9558   55.7433 H   0  0  0  0  0  0  0  0  0  0  0  0
   55.2928   31.1129   54.7712 H   0  0  0  0  0  0  0  0  0  0  0  0
   56.2048   29.5654   54.7712 H   0  0  0  0  0  0  0  0  0  0  0  0
   57.4134   29.2648   52.5811 H   0  0  0  0  0  0  0  0  0  0  0  0
   57.4020   29.3540   49.9920 H   0  0  0  0  0  0  0  0  0  0  0  0
   57.3573   27.9311   48.1139 H   0  0  0  0  0  0  0  0  0  0  0  0
   58.9279   24.9124   46.2176 H   0  0  0  0  0  0  0  0  0  0  0  0
   57.7261   25.6005   47.3724 H   0  0  0  0  0  0  0  0  0  0  0  0
   56.8200   25.2779   44.5329 H   0  0  0  0  0  0  0  0  0  0  0  0
   57.0908   23.7614   45.4941 H   0  0  0  0  0  0  0  0  0  0  0  0
   54.8165   24.2680   45.8489 H   0  0  0  0  0  0  0  0  0  0  0  0
   55.6588   24.8958   47.3164 H   0  0  0  0  0  0  0  0  0  0  0  0
   54.0990   26.3300   46.3790 H   0  0  0  0  0  0  0  0  0  0  0  0
   58.1827   26.2678   43.7561 H   0  0  0  0  0  0  0  0  0  0  0  0
   56.7692   27.2210   44.3363 H   0  0  0  0  0  0  0  0  0  0  0  0
   59.5690   28.4195   44.1951 H   0  0  0  0  0  0  0  0  0  0  0  0
   58.4040   28.3929   42.7674 H   0  0  0  0  0  0  0  0  0  0  0  0
   59.1694   30.5416   45.7581 H   0  0  0  0  0  0  0  0  0  0  0  0
   59.6993   30.7765   44.0865 H   0  0  0  0  0  0  0  0  0  0  0  0
   57.4871   32.1835   45.6330 H   0  0  0  0  0  0  0  0  0  0  0  0
   58.6512   32.8969   44.5227 H   0  0  0  0  0  0  0  0  0  0  0  0
   56.0512   32.2360   43.8039 H   0  0  0  0  0  0  0  0  0  0  0  0
   57.3634   32.2785   42.6201 H   0  0  0  0  0  0  0  0  0  0  0  0
   57.0990   29.9902   42.3496 H   0  0  0  0  0  0  0  0  0  0  0  0
   55.3949   29.7423   44.8428 H   0  0  0  0  0  0  0  0  0  0  0  0
   54.7572   30.4700   43.3294 H   0  0  0  0  0  0  0  0  0  0  0  0
   55.3534   28.7755   43.3294 H   0  0  0  0  0  0  0  0  0  0  0  0
   60.6407   28.1143   45.2991 H   0  0  0  0  0  0  0  0  0  0  0  0
   61.6965   29.9085   46.6427 H   0  0  0  0  0  0  0  0  0  0  0  0
   61.0759   32.4711   46.6427 H   0  0  0  0  0  0  0  0  0  0  0  0
   63.1477   33.7277   46.0312 H   0  0  0  0  0  0  0  0  0  0  0  0
  1  2  1  0
  2  3  2  0
  3  4  1  0
  4  5  1  0
  5  6  2  0
  6  7  1  0
  7  8  1  0
  8  9  1  0
  9 10  2  0
 10 11  1  0
 11 12  1  0
 11 13  1  0
  7 14  2  0
 14 15  1  0
 15 16  2  0
 16 17  1  0
 17 18  1  0
 18 19  1  0
 19 20  1  0
 20 21  1  0
 21 22  1  0
 18 23  1  0
 23 24  1  0
 24 25  1  0
 25 26  1  0
 26 27  1  0
 27 28  1  0
 28 29  1  0
 29 30  1  0
 17 31  2  0
 31 32  1  0
 32 33  2  0
  4 34  2  0
 34 35  1  0
 35 36  2  0
 36  2  1  0
 33  5  1  0
 13  8  2  0
 33 15  1  0
 29 25  1  0
  1 37  1  0
  1 38  1  0
  1 39  1  0
  3 40  1  0
  6 41  1  0
  9 42  1  0
 12 43  1  0
 12 44  1  0
 12 45  1  0
 13 46  1  0
 14 47  1  0
 16 48  1  0
 19 49  1  0
 19 50  1  0
 20 51  1  0
 20 52  1  0
 21 53  1  0
 21 54  1  0
 22 55  1  0
 23 56  1  0
 23 57  1  0
 24 58  1  0
 24 59  1  0
 26 60  1  0
 26 61  1  0
 27 62  1  0
 27 63  1  0
 28 64  1  0
 28 65  1  0
 29 66  1  6
 30 67  1  0
 30 68  1  0
 30 69  1  0
 31 70  1  0
 32 71  1  0
 34 72  1  0
 35 73  1  0
M  CHG  1  14   1
M  END
>  <UniqueID>  (13) 
13

>  <SMILES>  (13) 
Cc1cc(-c2cc(-c3cnn(C)c3)[nH+]c3cc(N(CCCO)CCN4CCC[C@@H]4C)ccc23)ccn1

>  <Energy>  (13) 
122.85622508896218

>  <Genealogy>  (13) 
Cc1cc(-c2cc(-c3cnn(C)c3)[nH+]c3cc(N(CCCO)CCN4CCCC4C)ccc23)ccn1 (protonated)
Cc1cc(-c2cc(-c3cnn(C)c3)[nH+]c3cc(N(CCCO)CCN4CCC[C@@H]4C)ccc23)ccn1 (chirality)
Cc1cc(-c2cc(-c3cnn(C)c3)[nH+]c3cc(N(CCCO)CCN4CCC[C@@H]4C)ccc23)ccn1 (3D coordinates assigned)
Cc1cc(-c2cc(-c3cnn(C)c3)[nH+]c3cc(N(CCCO)CCN4CCC[C@@H]4C)ccc23)ccn1 (nonaromatic ring conformer: 122.85622508896218 kcal/mol)

>  <smiles>  (13) 
Cc1cc(-c2cc(-c3cnn(C)c3)nc3cc(N(CCCO)CCN4CCCC4C)ccc23)ccn1

>  <score_type>  (13) 
oracle

>  <origin>  (13) 
adg

>  <m_score__min__energy>  (13) 
-8.4800000000000004

>  <m_primary>  (13) 
energy

$$$$
14:0
     RDKit          3D

 43 45  0  0  0  0  0  0  0  0999 V2000
   58.9230   35.0730   53.8880 C   0  0  0  0  0  0  0  0  0  0  0  0
   58.5320   34.8250   52.4960 N   0  0  0  0  0  0  0  0  0  0  0  0
   58.5920   33.3900   52.1580 C   0  0  0  0  0  0  0  0  0  0  0  0
   59.0160   33.1720   50.7190 C   0  0  0  0  0  0  0  0  0  0  0  0
   59.6070   34.1810   50.1310 N   0  0  0  0  0  0  0  0  0  0  0  0
   60.1520   34.3660   48.7780 C   0  0  1  0  0  0  0  0  0  0  0  0
   61.6050   33.9270   48.6430 C   0  0  0  0  0  0  0  0  0  0  0  0
   62.1280   33.6900   47.3570 C   0  0  0  0  0  0  0  0  0  0  0  0
   63.4630   33.3130   47.1880 C   0  0  0  0  0  0  0  0  0  0  0  0
   64.2980   33.1770   48.2980 C   0  0  0  0  0  0  0  0  0  0  0  0
   63.8010   33.4220   49.5790 C   0  0  0  0  0  0  0  0  0  0  0  0
   62.4670   33.8020   49.7540 C   0  0  0  0  0  0  0  0  0  0  0  0
   59.2620   33.7640   47.7060 C   0  0  0  0  0  0  0  0  0  0  0  0
   58.7680   34.5820   46.6710 C   0  0  0  0  0  0  0  0  0  0  0  0
   57.9730   34.0430   45.6580 C   0  0  0  0  0  0  0  0  0  0  0  0
   57.6610   32.6840   45.6640 C   0  0  0  0  0  0  0  0  0  0  0  0
   58.1450   31.8590   46.6810 C   0  0  0  0  0  0  0  0  0  0  0  0
   58.9570   32.3890   47.6990 C   0  0  0  0  0  0  0  0  0  0  0  0
   59.4260   31.5090   48.8170 C   0  0  0  0  0  0  0  0  0  0  0  0
   58.7560   31.8990   50.0610 N   0  0  0  0  0  0  0  0  0  0  0  0
   57.7720   30.9710   50.6370 C   0  0  0  0  0  0  0  0  0  0  0  0
   58.1897   34.6079   54.5633 H   0  0  0  0  0  0  0  0  0  0  0  0
   59.9173   34.6401   54.0723 H   0  0  0  0  0  0  0  0  0  0  0  0
   58.9552   36.1570   54.0723 H   0  0  0  0  0  0  0  0  0  0  0  0
   57.5700   35.2070   52.3350 H   0  0  0  0  0  0  0  0  0  0  0  0
   59.1940   35.3480   51.8770 H   0  0  0  0  0  0  0  0  0  0  0  0
   59.3171   32.8970   52.8222 H   0  0  0  0  0  0  0  0  0  0  0  0
   57.5863   32.9639   52.2883 H   0  0  0  0  0  0  0  0  0  0  0  0
   60.1568   35.4531   48.6099 H   0  0  0  0  0  0  0  0  0  0  0  0
   61.4788   33.8028   46.4762 H   0  0  0  0  0  0  0  0  0  0  0  0
   63.8564   33.1231   46.1784 H   0  0  0  0  0  0  0  0  0  0  0  0
   65.3476   32.8768   48.1633 H   0  0  0  0  0  0  0  0  0  0  0  0
   64.4605   33.3159   50.4530 H   0  0  0  0  0  0  0  0  0  0  0  0
   62.0859   34.0053   50.7657 H   0  0  0  0  0  0  0  0  0  0  0  0
   59.0108   35.6548   46.6609 H   0  0  0  0  0  0  0  0  0  0  0  0
   57.5924   34.6908   44.8545 H   0  0  0  0  0  0  0  0  0  0  0  0
   57.0326   32.2613   44.8663 H   0  0  0  0  0  0  0  0  0  0  0  0
   57.8898   30.7890   46.6858 H   0  0  0  0  0  0  0  0  0  0  0  0
   59.1856   30.4612   48.5842 H   0  0  0  0  0  0  0  0  0  0  0  0
   60.5140   31.6181   48.9372 H   0  0  0  0  0  0  0  0  0  0  0  0
   57.8222   31.0183   51.7348 H   0  0  0  0  0  0  0  0  0  0  0  0
   56.7625   31.2536   50.3036 H   0  0  0  0  0  0  0  0  0  0  0  0
   57.9950   29.9467   50.3036 H   0  0  0  0  0  0  0  0  0  0  0  0
  1  2  1  0
  2  3  1  0
  3  4  1  0
  4  5  2  0
  5  6  1  0
  6  7  1  0
  7  8  2  0
  8  9  1  0
  9 10  2  0
 10 11  1  0
 11 12  2  0
  6 13  1  0
 13 14  2  0
 14 15  1  0
 15 16  2  0
 16 17  1  0
 17 18  2  0
 18 19  1  0
 19 20  1  0
 20 21  1  0
 20  4  1  0
 12  7  1  0
 18 13  1  0
  1 22  1  0
  1 23  1  0
  1 24  1  0
  2 25  1  0
  2 26  1  0
  3 27  1  0
  3 28  1  0
  6 29  1  6
  8 30  1  0
  9 31  1  0
 10 32  1  0
 11 33  1  0
 12 34  1  0
 14 35  1  0
 15 36  1  0
 16 37  1  0
 17 38  1  0
 19 39  1  0
 19 40  1  0
 21 41  1  0
 21 42  1  0
 21 43  1  0
M  CHG  1   2   1
M  END
>  <UniqueID>  (14) 
14

>  <SMILES>  (14) 
C[NH2+]CC1=N[C@@H](c2ccccc2)c2ccccc2CN1C

>  <Energy>  (14) 
57.0466878605376

>  <Genealogy>  (14) 
C[NH2+]CC1=NC(c2ccccc2)c2ccccc2CN1C (protonated)
C[NH2+]CC1=N[C@@H](c2ccccc2)c2ccccc2CN1C (chirality)
C[NH2+]CC1=N[C@@H](c2ccccc2)c2ccccc2CN1C (3D coordinates assigned)
C[NH2+]CC1=N[C@@H](c2ccccc2)c2ccccc2CN1C (nonaromatic ring conformer: 57.0466878605376 kcal/mol)

>  <smiles>  (14) 
CNCC1=NC(c2ccccc2)c2ccccc2CN1C

>  <score_type>  (14) 
oracle

>  <origin>  (14) 
adg

>  <m_score__min__energy>  (14) 
-5.7400000000000002

>  <m_primary>  (14) 
energy

$$$$
15:0
     RDKit          3D

 45 48  0  0  0  0  0  0  0  0999 V2000
   64.0410   32.6270   48.2410 C   0  0  0  0  0  0  0  0  0  0  0  0
   62.6670   33.0410   47.8310 C   0  0  0  0  0  0  0  0  0  0  0  0
   61.4890   32.6640   48.4680 C   0  0  0  0  0  0  0  0  0  0  0  0
   60.3370   33.1150   47.7980 C   0  0  0  0  0  0  0  0  0  0  0  0
   60.6280   33.8010   46.6160 C   0  0  0  0  0  0  0  0  0  0  0  0
   62.2940   33.8560   46.4080 S   0  0  0  0  0  0  0  0  0  0  0  0
   59.6090   34.1550   45.5580 C   0  0  0  0  0  0  0  0  0  0  0  0
   58.1650   33.8130   45.9930 C   0  0  0  0  0  0  0  0  0  0  0  0
   58.1730   32.6420   46.8870 N   0  0  0  0  0  0  0  0  0  0  0  0
   58.1580   31.3420   46.2500 C   0  0  0  0  0  0  0  0  0  0  0  0
   57.1300   30.9760   45.6180 O   0  0  0  0  0  0  0  0  0  0  0  0
   59.3060   30.4780   46.3000 N   0  0  0  0  0  0  0  0  0  0  0  0
   59.2430   29.0510   46.1330 C   0  0  0  0  0  0  0  0  0  0  0  0
   59.8060   28.1740   47.0800 C   0  0  0  0  0  0  0  0  0  0  0  0
   59.7580   26.7910   46.8760 C   0  0  0  0  0  0  0  0  0  0  0  0
   59.1620   26.2720   45.7240 C   0  0  0  0  0  0  0  0  0  0  0  0
   59.1180   24.9310   45.5280 F   0  0  0  0  0  0  0  0  0  0  0  0
   58.6190   27.1360   44.7700 C   0  0  0  0  0  0  0  0  0  0  0  0
   58.6650   28.5190   44.9690 C   0  0  0  0  0  0  0  0  0  0  0  0
   58.8800   32.8950   48.1630 C   0  0  1  0  0  0  0  0  0  0  0  0
   58.5630   31.9230   49.3060 C   0  0  0  0  0  0  0  0  0  0  0  0
   57.9450   32.3360   50.5090 C   0  0  0  0  0  0  0  0  0  0  0  0
   57.7340   31.4320   51.5540 C   0  0  0  0  0  0  0  0  0  0  0  0
   58.1970   30.1210   51.4520 C   0  0  0  0  0  0  0  0  0  0  0  0
   58.9060   29.7230   50.3180 C   0  0  0  0  0  0  0  0  0  0  0  0
   59.1140   30.6240   49.2700 C   0  0  0  0  0  0  0  0  0  0  0  0
   64.1058   32.6075   49.3389 H   0  0  0  0  0  0  0  0  0  0  0  0
   64.2559   31.6242   47.8431 H   0  0  0  0  0  0  0  0  0  0  0  0
   64.7741   33.3441   47.8431 H   0  0  0  0  0  0  0  0  0  0  0  0
   61.4612   32.0757   49.3970 H   0  0  0  0  0  0  0  0  0  0  0  0
   59.6706   35.2344   45.3552 H   0  0  0  0  0  0  0  0  0  0  0  0
   59.8381   33.5626   44.6599 H   0  0  0  0  0  0  0  0  0  0  0  0
   57.7307   34.6734   46.5232 H   0  0  0  0  0  0  0  0  0  0  0  0
   57.5638   33.5827   45.1011 H   0  0  0  0  0  0  0  0  0  0  0  0
   60.2500   30.9090   46.3990 H   0  0  0  0  0  0  0  0  0  0  0  0
   60.2854   28.5781   47.9838 H   0  0  0  0  0  0  0  0  0  0  0  0
   60.1905   26.1106   47.6243 H   0  0  0  0  0  0  0  0  0  0  0  0
   58.1544   26.7274   43.8605 H   0  0  0  0  0  0  0  0  0  0  0  0
   58.2458   29.1947   44.2090 H   0  0  0  0  0  0  0  0  0  0  0  0
   58.5007   33.8032   48.6543 H   0  0  0  0  0  0  0  0  0  0  0  0
   57.6261   33.3825   50.6239 H   0  0  0  0  0  0  0  0  0  0  0  0
   57.2008   31.7561   52.4599 H   0  0  0  0  0  0  0  0  0  0  0  0
   58.0041   29.4029   52.2626 H   0  0  0  0  0  0  0  0  0  0  0  0
   59.3017   28.6990   50.2488 H   0  0  0  0  0  0  0  0  0  0  0  0
   59.7169   30.3158   48.4031 H   0  0  0  0  0  0  0  0  0  0  0  0
  1  2  1  0
  2  3  2  0
  3  4  1  0
  4  5  2  0
  5  6  1  0
  5  7  1  0
  7  8  1  0
  8  9  1  0
  9 10  1  0
 10 11  2  0
 10 12  1  0
 12 13  1  0
 13 14  2  0
 14 15  1  0
 15 16  2  0
 16 17  1  0
 16 18  1  0
 18 19  2  0
  9 20  1  0
 20 21  1  0
 21 22  2  0
 22 23  1  0
 23 24  2  0
 24 25  1  0
 25 26  2  0
  6  2  1  0
 19 13  1  0
 26 21  1  0
 20  4  1  0
  1 27  1  0
  1 28  1  0
  1 29  1  0
  3 30  1  0
  7 31  1  0
  7 32  1  0
  8 33  1  0
  8 34  1  0
 12 35  1  0
 14 36  1  0
 15 37  1  0
 18 38  1  0
 19 39  1  0
 20 40  1  1
 22 41  1  0
 23 42  1  0
 24 43  1  0
 25 44  1  0
 26 45  1  0
M  END
>  <UniqueID>  (15) 
15

>  <SMILES>  (15) 
Cc1cc2c(s1)CCN(C(=O)Nc1ccc(F)cc1)[C@H]2c1ccccc1

>  <Energy>  (15) 
98.19796805680753

>  <Genealogy>  (15) 
Cc1cc2c(s1)CCN(C(=O)Nc1ccc(F)cc1)[C@H]2c1ccccc1 (chirality)
Cc1cc2c(s1)CCN(C(=O)Nc1ccc(F)cc1)[C@H]2c1ccccc1 (3D coordinates assigned)
Cc1cc2c(s1)CCN(C(=O)Nc1ccc(F)cc1)[C@H]2c1ccccc1 (nonaromatic ring conformer: 98.19796805680753 kcal/mol)

>  <smiles>  (15) 
Cc1cc2c(s1)CCN(C(=O)Nc1ccc(F)cc1)C2c1ccccc1

>  <score_type>  (15) 
oracle

>  <origin>  (15) 
adg

>  <m_score__min__energy>  (15) 
-7.8799999999999999

>  <m_primary>  (15) 
energy

$$$$
16:0
     RDKit          3D

 52 54  0  0  0  0  0  0  0  0999 V2000
   65.8790   33.8040   51.2830 C   0  0  0  0  0  0  0  0  0  0  0  0
   65.9530   32.7580   49.7950 S   0  0  0  0  0  0  0  0  0  0  0  0
   64.2440   33.0660   49.3460 C   0  0  0  0  0  0  0  0  0  0  0  0
   63.3810   33.6840   50.2560 C   0  0  0  0  0  0  0  0  0  0  0  0
   62.0500   33.9290   49.9060 C   0  0  0  0  0  0  0  0  0  0  0  0
   61.5730   33.5770   48.6310 C   0  0  0  0  0  0  0  0  0  0  0  0
   60.1340   33.8520   48.2390 C   0  0  0  0  0  0  0  0  0  0  0  0
   59.8990   33.8410   46.7770 N   0  0  0  0  0  0  0  0  0  0  0  0
   59.0170   34.9380   46.3110 C   0  0  0  0  0  0  0  0  0  0  0  0
   58.5710   34.7180   44.8610 C   0  0  0  0  0  0  0  0  0  0  0  0
   57.7540   33.4190   44.7200 C   0  0  0  0  0  0  0  0  0  0  0  0
   58.1230   32.3660   45.7920 C   0  0  1  0  0  0  0  0  0  0  0  0
   57.8070   30.9690   45.3210 C   0  0  0  0  0  0  0  0  0  0  0  0
   56.6490   30.7170   44.8890 O   0  0  0  0  0  0  0  0  0  0  0  0
   58.8240   29.9520   45.3040 N   0  0  0  0  0  0  0  0  0  0  0  0
   58.5530   28.5500   45.1380 C   0  0  0  0  0  0  0  0  0  0  0  0
   58.4140   27.7380   46.2710 C   0  0  0  0  0  0  0  0  0  0  0  0
   58.1270   26.3760   46.1360 C   0  0  0  0  0  0  0  0  0  0  0  0
   57.9580   25.8060   44.8700 C   0  0  0  0  0  0  0  0  0  0  0  0
   57.6730   24.4320   44.7950 O   0  0  0  0  0  0  0  0  0  0  0  0
   56.6110   23.8530   44.0400 C   0  0  0  0  0  0  0  0  0  0  0  0
   56.5460   22.4910   44.2730 F   0  0  0  0  0  0  0  0  0  0  0  0
   55.4180   24.4290   44.4330 F   0  0  0  0  0  0  0  0  0  0  0  0
   56.7980   24.0930   42.6910 F   0  0  0  0  0  0  0  0  0  0  0  0
   58.0750   26.6230   43.7300 C   0  0  0  0  0  0  0  0  0  0  0  0
   58.3630   27.9860   43.8640 C   0  0  0  0  0  0  0  0  0  0  0  0
   59.6000   32.5020   46.2100 C   0  0  0  0  0  0  0  0  0  0  0  0
   62.4430   32.9360   47.7310 C   0  0  0  0  0  0  0  0  0  0  0  0
   63.7720   32.6910   48.0840 C   0  0  0  0  0  0  0  0  0  0  0  0
   65.9239   33.1691   52.1801 H   0  0  0  0  0  0  0  0  0  0  0  0
   66.7301   34.5009   51.2840 H   0  0  0  0  0  0  0  0  0  0  0  0
   64.9383   34.3741   51.2840 H   0  0  0  0  0  0  0  0  0  0  0  0
   63.7502   33.9781   51.2496 H   0  0  0  0  0  0  0  0  0  0  0  0
   61.3716   34.4001   50.6325 H   0  0  0  0  0  0  0  0  0  0  0  0
   59.4965   33.0822   48.6983 H   0  0  0  0  0  0  0  0  0  0  0  0
   59.8939   34.8651   48.5939 H   0  0  0  0  0  0  0  0  0  0  0  0
   58.1275   34.9811   46.9566 H   0  0  0  0  0  0  0  0  0  0  0  0
   59.5809   35.8811   46.3609 H   0  0  0  0  0  0  0  0  0  0  0  0
   57.9499   35.5687   44.5437 H   0  0  0  0  0  0  0  0  0  0  0  0
   59.4679   34.6355   44.2295 H   0  0  0  0  0  0  0  0  0  0  0  0
   56.6857   33.6621   44.8178 H   0  0  0  0  0  0  0  0  0  0  0  0
   57.9826   32.9864   43.7348 H   0  0  0  0  0  0  0  0  0  0  0  0
   57.5045   32.5572   46.6814 H   0  0  0  0  0  0  0  0  0  0  0  0
   59.8230   30.2540   45.3410 H   0  0  0  0  0  0  0  0  0  0  0  0
   58.5314   28.1747   47.2737 H   0  0  0  0  0  0  0  0  0  0  0  0
   58.0333   25.7472   47.0337 H   0  0  0  0  0  0  0  0  0  0  0  0
   57.9394   26.1881   42.7288 H   0  0  0  0  0  0  0  0  0  0  0  0
   58.4411   28.6194   42.9680 H   0  0  0  0  0  0  0  0  0  0  0  0
   59.8260   31.7374   46.9679 H   0  0  0  0  0  0  0  0  0  0  0  0
   60.2200   32.3687   45.3112 H   0  0  0  0  0  0  0  0  0  0  0  0
   62.0743   32.6254   46.7423 H   0  0  0  0  0  0  0  0  0  0  0  0
   64.4489   32.2021   47.3679 H   0  0  0  0  0  0  0  0  0  0  0  0
  1  2  1  0
  2  3  1  0
  3  4  2  0
  4  5  1  0
  5  6  2  0
  6  7  1  0
  7  8  1  0
  8  9  1  0
  9 10  1  0
 10 11  1  0
 11 12  1  0
 12 13  1  0
 13 14  2  0
 13 15  1  0
 15 16  1  0
 16 17  2  0
 17 18  1  0
 18 19  2  0
 19 20  1  0
 20 21  1  0
 21 22  1  0
 21 23  1  0
 21 24  1  0
 19 25  1  0
 25 26  2  0
 12 27  1  0
  6 28  1  0
 28 29  2  0
 29  3  1  0
 27  8  1  0
 26 16  1  0
  1 30  1  0
  1 31  1  0
  1 32  1  0
  4 33  1  0
  5 34  1  0
  7 35  1  0
  7 36  1  0
  9 37  1  0
  9 38  1  0
 10 39  1  0
 10 40  1  0
 11 41  1  0
 11 42  1  0
 12 43  1  1
 15 44  1  0
 17 45  1  0
 18 46  1  0
 25 47  1  0
 26 48  1  0
 27 49  1  0
 27 50  1  0
 28 51  1  0
 29 52  1  0
M  END
>  <UniqueID>  (16) 
16

>  <SMILES>  (16) 
CSc1ccc(CN2CCC[C@@H](C(=O)Nc3ccc(OC(F)(F)F)cc3)C2)cc1

>  <Energy>  (16) 
61.660431469577496

>  <Genealogy>  (16) 
CSc1ccc(CN2CCC[C@@H](C(=O)Nc3ccc(OC(F)(F)F)cc3)C2)cc1 (chirality)
CSc1ccc(CN2CCC[C@@H](C(=O)Nc3ccc(OC(F)(F)F)cc3)C2)cc1 (3D coordinates assigned)
CSc1ccc(CN2CCC[C@@H](C(=O)Nc3ccc(OC(F)(F)F)cc3)C2)cc1 (nonaromatic ring conformer: 61.660431469577496 kcal/mol)

>  <smiles>  (16) 
CSc1ccc(CN2CCCC(C(=O)Nc3ccc(OC(F)(F)F)cc3)C2)cc1

>  <score_type>  (16) 
oracle

>  <origin>  (16) 
adg

>  <m_score__min__energy>  (16) 
-8.4499999999999993

>  <m_primary>  (16) 
energy

$$$$
17:0
     RDKit          3D

 29 30  0  0  0  0  0  0  0  0999 V2000
   59.9320   35.0650   46.3850 C   0  0  0  0  0  0  0  0  0  0  0  0
   58.6950   34.5620   46.4290 C   0  0  0  0  0  0  0  0  0  0  0  0
   58.0430   33.9570   45.2180 C   0  0  0  0  0  0  0  0  0  0  0  0
   58.1420   32.4540   45.2540 C   0  0  0  0  0  0  0  0  0  0  0  0
   57.1750   31.6730   44.6100 C   0  0  0  0  0  0  0  0  0  0  0  0
   57.2250   30.2690   44.6580 C   0  0  0  0  0  0  0  0  0  0  0  0
   56.1540   29.4870   43.9340 C   0  0  0  0  0  0  0  0  0  0  0  0
   55.1430   29.1320   44.8340 O   0  0  0  0  0  0  0  0  0  0  0  0
   58.2850   29.6350   45.3590 C   0  0  0  0  0  0  0  0  0  0  0  0
   58.4040   28.2290   45.4210 C   0  0  0  0  0  0  0  0  0  0  0  0
   59.4520   27.6330   46.1250 C   0  0  0  0  0  0  0  0  0  0  0  0
   59.5520   26.2820   46.1750 F   0  0  0  0  0  0  0  0  0  0  0  0
   60.3980   28.4220   46.7780 C   0  0  0  0  0  0  0  0  0  0  0  0
   60.3080   29.8140   46.7300 C   0  0  0  0  0  0  0  0  0  0  0  0
   61.2460   30.5550   47.3720 F   0  0  0  0  0  0  0  0  0  0  0  0
   59.2590   30.4320   46.0220 C   0  0  0  0  0  0  0  0  0  0  0  0
   59.1730   31.8310   45.9660 C   0  0  0  0  0  0  0  0  0  0  0  0
   60.3809   35.5011   47.2896 H   0  0  0  0  0  0  0  0  0  0  0  0
   60.5015   35.0431   45.4442 H   0  0  0  0  0  0  0  0  0  0  0  0
   58.1388   34.5916   47.3776 H   0  0  0  0  0  0  0  0  0  0  0  0
   56.9826   34.2485   45.1955 H   0  0  0  0  0  0  0  0  0  0  0  0
   58.5591   34.3237   44.3185 H   0  0  0  0  0  0  0  0  0  0  0  0
   56.3622   32.1664   44.0570 H   0  0  0  0  0  0  0  0  0  0  0  0
   55.7283   30.1063   43.1308 H   0  0  0  0  0  0  0  0  0  0  0  0
   56.5951   28.5765   43.5022 H   0  0  0  0  0  0  0  0  0  0  0  0
   55.1470   28.1410   44.8780 H   0  0  0  0  0  0  0  0  0  0  0  0
   57.6633   27.5970   44.9093 H   0  0  0  0  0  0  0  0  0  0  0  0
   61.2190   27.9453   47.3336 H   0  0  0  0  0  0  0  0  0  0  0  0
   59.9232   32.4442   46.4868 H   0  0  0  0  0  0  0  0  0  0  0  0
  1  2  2  0
  2  3  1  0
  3  4  1  0
  4  5  2  0
  5  6  1  0
  6  7  1  0
  7  8  1  0
  6  9  2  0
  9 10  1  0
 10 11  2  0
 11 12  1  0
 11 13  1  0
 13 14  2  0
 14 15  1  0
 14 16  1  0
 16 17  2  0
 17  4  1  0
 16  9  1  0
  1 18  1  0
  1 19  1  0
  2 20  1  0
  3 21  1  0
  3 22  1  0
  5 23  1  0
  7 24  1  0
  7 25  1  0
  8 26  1  0
 10 27  1  0
 13 28  1  0
 17 29  1  0
M  END
>  <UniqueID>  (17) 
17

>  <SMILES>  (17) 
C=CCc1cc(CO)c2cc(F)cc(F)c2c1

>  <Energy>  (17) 
31.343988208610256

>  <Genealogy>  (17) 
C=CCc1cc(CO)c2cc(F)cc(F)c2c1 (3D coordinates assigned)
C=CCc1cc(CO)c2cc(F)cc(F)c2c1 (optimized conformer: 31.343988208610256 kcal/mol)

>  <smiles>  (17) 
C=CCc1cc(CO)c2cc(F)cc(F)c2c1

>  <score_type>  (17) 
oracle

>  <origin>  (17) 
adg

>  <m_score__min__energy>  (17) 
-7.0499999999999998

>  <m_primary>  (17) 
energy

$$$$
18:0
     RDKit          3D

 44 47  0  0  0  0  0  0  0  0999 V2000
   56.9010   20.7270   42.9670 C   0  0  0  0  0  0  0  0  0  0  0  0
   55.9360   21.7720   43.0270 O   0  0  0  0  0  0  0  0  0  0  0  0
   56.0780   22.9390   43.7920 C   0  0  0  0  0  0  0  0  0  0  0  0
   57.2200   23.7590   43.7120 C   0  0  0  0  0  0  0  0  0  0  0  0
   57.3120   24.9160   44.4890 C   0  0  0  0  0  0  0  0  0  0  0  0
   56.2670   25.2700   45.3640 C   0  0  0  0  0  0  0  0  0  0  0  0
   56.3150   26.4270   46.1570 O   0  0  0  0  0  0  0  0  0  0  0  0
   57.4950   27.0020   46.6440 C   0  0  0  0  0  0  0  0  0  0  0  0
   58.3640   26.2260   47.3470 N   0  0  0  0  0  0  0  0  0  0  0  0
   59.5130   26.7430   47.8600 C   0  0  0  0  0  0  0  0  0  0  0  0
   59.8230   28.0490   47.6640 N   0  0  0  0  0  0  0  0  0  0  0  0
   59.0030   28.8640   46.9520 C   0  0  0  0  0  0  0  0  0  0  0  0
   59.3490   30.2010   46.7460 C   0  0  0  0  0  0  0  0  0  0  0  0
   58.5040   31.0290   45.9840 C   0  0  0  0  0  0  0  0  0  0  0  0
   58.8290   32.4140   45.7370 N   0  0  0  0  0  0  0  0  0  0  0  0
   60.0070   33.0370   46.3570 C   0  0  0  0  0  0  0  0  0  0  0  0
   59.8160   34.5530   46.4650 C   0  0  0  0  0  0  0  0  0  0  0  0
   59.4310   35.1010   45.2210 O   0  0  0  0  0  0  0  0  0  0  0  0
   58.1520   34.6170   44.8660 C   0  0  0  0  0  0  0  0  0  0  0  0
   58.1950   33.1080   44.6090 C   0  0  0  0  0  0  0  0  0  0  0  0
   57.3650   30.5010   45.4530 N   0  0  0  0  0  0  0  0  0  0  0  0
   57.0010   29.2050   45.6400 C   0  0  0  0  0  0  0  0  0  0  0  0
   57.8090   28.3540   46.4080 C   0  0  0  0  0  0  0  0  0  0  0  0
   55.1350   24.4530   45.4400 C   0  0  0  0  0  0  0  0  0  0  0  0
   55.0410   23.2960   44.6610 C   0  0  0  0  0  0  0  0  0  0  0  0
   57.1792   20.4258   43.9877 H   0  0  0  0  0  0  0  0  0  0  0  0
   56.4749   19.8646   42.4335 H   0  0  0  0  0  0  0  0  0  0  0  0
   57.7945   21.0832   42.4335 H   0  0  0  0  0  0  0  0  0  0  0  0
   58.0431   23.4872   43.0347 H   0  0  0  0  0  0  0  0  0  0  0  0
   58.2053   25.5539   44.4171 H   0  0  0  0  0  0  0  0  0  0  0  0
   58.1390   25.2200   47.5130 H   0  0  0  0  0  0  0  0  0  0  0  0
   60.1937   26.0992   48.4363 H   0  0  0  0  0  0  0  0  0  0  0  0
   60.2770   30.6048   47.1770 H   0  0  0  0  0  0  0  0  0  0  0  0
   60.1511   32.6174   47.3636 H   0  0  0  0  0  0  0  0  0  0  0  0
   60.8887   32.8326   45.7319 H   0  0  0  0  0  0  0  0  0  0  0  0
   59.0350   34.7657   47.2098 H   0  0  0  0  0  0  0  0  0  0  0  0
   60.7703   35.0073   46.7697 H   0  0  0  0  0  0  0  0  0  0  0  0
   57.4478   34.8236   45.6854 H   0  0  0  0  0  0  0  0  0  0  0  0
   57.8261   35.1229   43.9452 H   0  0  0  0  0  0  0  0  0  0  0  0
   57.1688   32.7325   44.4831 H   0  0  0  0  0  0  0  0  0  0  0  0
   58.7817   32.9180   43.6982 H   0  0  0  0  0  0  0  0  0  0  0  0
   56.0729   28.8236   45.1891 H   0  0  0  0  0  0  0  0  0  0  0  0
   54.3119   24.7227   46.1181 H   0  0  0  0  0  0  0  0  0  0  0  0
   54.1452   22.6616   44.7317 H   0  0  0  0  0  0  0  0  0  0  0  0
  1  2  1  0
  2  3  1  0
  3  4  2  0
  4  5  1  0
  5  6  2  0
  6  7  1  0
  7  8  1  0
  8  9  2  0
  9 10  1  0
 10 11  2  0
 11 12  1  0
 12 13  2  0
 13 14  1  0
 14 15  1  0
 15 16  1  0
 16 17  1  0
 17 18  1  0
 18 19  1  0
 19 20  1  0
 14 21  2  0
 21 22  1  0
 22 23  2  0
  6 24  1  0
 24 25  2  0
 25  3  1  0
 23  8  1  0
 23 12  1  0
 20 15  1  0
  1 26  1  0
  1 27  1  0
  1 28  1  0
  4 29  1  0
  5 30  1  0
  9 31  1  0
 10 32  1  0
 13 33  1  0
 16 34  1  0
 16 35  1  0
 17 36  1  0
 17 37  1  0
 19 38  1  0
 19 39  1  0
 20 40  1  0
 20 41  1  0
 22 42  1  0
 24 43  1  0
 25 44  1  0
M  CHG  1   9   1
M  END
>  <UniqueID>  (18) 
18

>  <SMILES>  (18) 
COc1ccc(Oc2[nH+]cnc3cc(N4CCOCC4)ncc23)cc1

>  <Energy>  (18) 
63.79961348397941

>  <Genealogy>  (18) 
COc1ccc(Oc2[nH+]cnc3cc(N4CCOCC4)ncc23)cc1 (protonated)
COc1ccc(Oc2[nH+]cnc3cc(N4CCOCC4)ncc23)cc1 (3D coordinates assigned)
COc1ccc(Oc2[nH+]cnc3cc(N4CCOCC4)ncc23)cc1 (nonaromatic ring conformer: 63.79961348397941 kcal/mol)

>  <smiles>  (18) 
COc1ccc(Oc2ncnc3cc(N4CCOCC4)ncc23)cc1

>  <score_type>  (18) 
oracle

>  <origin>  (18) 
adg

>  <m_score__min__energy>  (18) 
-5.96

>  <m_primary>  (18) 
energy

$$$$
19:0
     RDKit          3D

 48 51  0  0  0  0  0  0  0  0999 V2000
   57.0360   24.4180   47.9270 C   0  0  0  0  0  0  0  0  0  0  0  0
   57.8690   23.8380   46.9280 O   0  0  0  0  0  0  0  0  0  0  0  0
   57.4390   23.4810   45.6390 C   0  0  0  0  0  0  0  0  0  0  0  0
   57.0530   22.1630   45.3260 C   0  0  0  0  0  0  0  0  0  0  0  0
   56.5780   21.8490   44.0500 C   0  0  0  0  0  0  0  0  0  0  0  0
   56.4780   22.8430   43.0770 C   0  0  0  0  0  0  0  0  0  0  0  0
   56.8650   24.1520   43.3710 C   0  0  0  0  0  0  0  0  0  0  0  0
   57.3690   24.4770   44.6390 C   0  0  0  0  0  0  0  0  0  0  0  0
   57.7550   25.8340   44.9080 N   0  0  0  0  0  0  0  0  0  0  0  0
   56.8460   26.8190   45.4270 C   0  0  0  0  0  0  0  0  0  0  0  0
   55.7710   26.4470   45.9730 O   0  0  0  0  0  0  0  0  0  0  0  0
   57.1720   28.2640   45.3650 C   0  0  0  0  0  0  0  0  0  0  0  0
   56.4060   29.1270   44.5630 C   0  0  0  0  0  0  0  0  0  0  0  0
   56.7130   30.4860   44.4960 C   0  0  0  0  0  0  0  0  0  0  0  0
   57.7890   31.0030   45.2200 C   0  0  0  0  0  0  0  0  0  0  0  0
   58.5800   30.1600   46.0230 C   0  0  0  0  0  0  0  0  0  0  0  0
   59.7020   30.6920   46.7660 N   0  0  0  0  0  0  0  0  0  0  0  0
   60.5040   29.7830   47.6100 C   0  0  0  0  0  0  0  0  0  0  0  0
   61.2540   30.5360   48.7120 C   0  0  0  0  0  0  0  0  0  0  0  0
   62.0230   31.6750   48.1160 C   0  0  0  0  0  0  0  0  0  0  0  0
   63.2950   32.0260   48.5850 C   0  0  0  0  0  0  0  0  0  0  0  0
   63.9660   33.1130   48.0190 C   0  0  0  0  0  0  0  0  0  0  0  0
   63.3500   33.8430   47.0010 C   0  0  0  0  0  0  0  0  0  0  0  0
   62.1060   33.4970   46.5700 N   0  0  0  0  0  0  0  0  0  0  0  0
   61.4380   32.4320   47.0930 C   0  0  0  0  0  0  0  0  0  0  0  0
   60.0410   32.1230   46.6290 C   0  0  0  0  0  0  0  0  0  0  0  0
   58.2630   28.7890   46.0830 C   0  0  0  0  0  0  0  0  0  0  0  0
   57.4185   24.1516   48.9233 H   0  0  0  0  0  0  0  0  0  0  0  0
   57.0362   25.5122   47.8146 H   0  0  0  0  0  0  0  0  0  0  0  0
   56.0098   24.0381   47.8146 H   0  0  0  0  0  0  0  0  0  0  0  0
   57.1260   21.3759   46.0910 H   0  0  0  0  0  0  0  0  0  0  0  0
   56.2825   20.8164   43.8126 H   0  0  0  0  0  0  0  0  0  0  0  0
   56.0937   22.5955   42.0765 H   0  0  0  0  0  0  0  0  0  0  0  0
   56.7740   24.9339   42.6027 H   0  0  0  0  0  0  0  0  0  0  0  0
   58.7750   26.0610   44.8990 H   0  0  0  0  0  0  0  0  0  0  0  0
   55.5594   28.7285   43.9847 H   0  0  0  0  0  0  0  0  0  0  0  0
   56.1040   31.1541   43.8693 H   0  0  0  0  0  0  0  0  0  0  0  0
   58.0202   32.0769   45.1625 H   0  0  0  0  0  0  0  0  0  0  0  0
   59.8328   29.0468   48.0764 H   0  0  0  0  0  0  0  0  0  0  0  0
   61.2488   29.2911   46.9671 H   0  0  0  0  0  0  0  0  0  0  0  0
   60.5317   30.9265   49.4439 H   0  0  0  0  0  0  0  0  0  0  0  0
   61.9525   29.8481   49.2109 H   0  0  0  0  0  0  0  0  0  0  0  0
   63.7638   31.4485   49.3954 H   0  0  0  0  0  0  0  0  0  0  0  0
   64.9700   33.3909   48.3722 H   0  0  0  0  0  0  0  0  0  0  0  0
   63.8705   34.6989   46.5465 H   0  0  0  0  0  0  0  0  0  0  0  0
   59.3318   32.7123   47.2288 H   0  0  0  0  0  0  0  0  0  0  0  0
   59.9795   32.3799   45.5612 H   0  0  0  0  0  0  0  0  0  0  0  0
   58.8778   28.1178   46.7008 H   0  0  0  0  0  0  0  0  0  0  0  0
  1  2  1  0
  2  3  1  0
  3  4  2  0
  4  5  1  0
  5  6  2  0
  6  7  1  0
  7  8  2  0
  8  9  1  0
  9 10  1  0
 10 11  2  0
 10 12  1  0
 12 13  2  0
 13 14  1  0
 14 15  2  0
 15 16  1  0
 16 17  1  0
 17 18  1  0
 18 19  1  0
 19 20  1  0
 20 21  2  0
 21 22  1  0
 22 23  2  0
 23 24  1  0
 24 25  2  0
 25 26  1  0
 16 27  2  0
  8  3  1  0
 27 12  1  0
 26 17  1  0
 25 20  1  0
  1 28  1  0
  1 29  1  0
  1 30  1  0
  4 31  1  0
  5 32  1  0
  6 33  1  0
  7 34  1  0
  9 35  1  0
 13 36  1  0
 14 37  1  0
 15 38  1  0
 18 39  1  0
 18 40  1  0
 19 41  1  0
 19 42  1  0
 21 43  1  0
 22 44  1  0
 23 45  1  0
 26 46  1  0
 26 47  1  0
 27 48  1  0
M  END
>  <UniqueID>  (19) 
19

>  <SMILES>  (19) 
COc1ccccc1NC(=O)c1cccc(N2CCc3cccnc3C2)c1

>  <Energy>  (19) 
64.51742944241636

>  <Genealogy>  (19) 
COc1ccccc1NC(=O)c1cccc(N2CCc3cccnc3C2)c1 (3D coordinates assigned)
COc1ccccc1NC(=O)c1cccc(N2CCc3cccnc3C2)c1 (nonaromatic ring conformer: 64.51742944241636 kcal/mol)

>  <smiles>  (19) 
COc1ccccc1NC(=O)c1cccc(N2CCc3cccnc3C2)c1

>  <score_type>  (19) 
oracle

>  <origin>  (19) 
adg

>  <m_score__min__energy>  (19) 
-8.4600000000000009

>  <m_primary>  (19) 
energy

$$$$
20:0
     RDKit          3D

 49 53  0  0  0  0  0  0  0  0999 V2000
   59.1937   26.6673   44.8199 H   0  0  0  0  0  0  0  0  0  0  0  0
   58.2310   26.8990   45.2990 C   0  0  0  0  0  0  0  0  0  0  0  0
   57.3700   29.0800   45.9760 N   0  0  0  0  0  0  0  0  0  0  0  0
   58.0770   30.2960   46.0950 N   0  0  0  0  0  0  0  0  0  0  0  0
   59.2180   30.3890   46.8600 C   0  0  0  0  0  0  0  0  0  0  0  0
   59.7340   29.2250   47.6060 C   0  0  0  0  0  0  0  0  0  0  0  0
   60.3390   28.0890   47.0790 C   0  0  0  0  0  0  0  0  0  0  0  0
   60.4496   27.8764   46.0054 H   0  0  0  0  0  0  0  0  0  0  0  0
   60.7720   27.2830   48.0750 N   0  0  0  0  0  0  0  0  0  0  0  0
   61.2760   26.3760   47.9690 H   0  0  0  0  0  0  0  0  0  0  0  0
   60.4580   27.9090   49.2260 C   0  0  0  0  0  0  0  0  0  0  0  0
   60.7710   27.5020   50.5260 C   0  0  0  0  0  0  0  0  0  0  0  0
   61.2786   26.5442   50.7128 H   0  0  0  0  0  0  0  0  0  0  0  0
   60.4170   28.3550   51.5900 C   0  0  0  0  0  0  0  0  0  0  0  0
   60.6468   28.0625   52.6252 H   0  0  0  0  0  0  0  0  0  0  0  0
   59.7690   29.5830   51.3350 C   0  0  0  0  0  0  0  0  0  0  0  0
   59.5014   30.2446   52.1721 H   0  0  0  0  0  0  0  0  0  0  0  0
   59.4630   29.9660   50.0130 C   0  0  0  0  0  0  0  0  0  0  0  0
   58.9606   30.9213   49.8010 H   0  0  0  0  0  0  0  0  0  0  0  0
   59.8180   29.0940   48.9810 C   0  0  0  0  0  0  0  0  0  0  0  0
   59.9120   31.5610   46.9110 N   0  0  0  0  0  0  0  0  0  0  0  0
   60.7850   31.6140   47.4870 H   0  0  0  0  0  0  0  0  0  0  0  0
   59.4760   32.6690   46.2480 C   0  0  0  0  0  0  0  0  0  0  0  0
   60.2060   33.8680   46.3060 C   0  0  0  0  0  0  0  0  0  0  0  0
   61.1419   33.9136   46.8823 H   0  0  0  0  0  0  0  0  0  0  0  0
   59.7440   35.0060   45.6310 C   0  0  0  0  0  0  0  0  0  0  0  0
   60.3213   35.9412   45.6774 H   0  0  0  0  0  0  0  0  0  0  0  0
   58.5570   34.9600   44.9010 C   0  0  0  0  0  0  0  0  0  0  0  0
   58.1973   35.8584   44.3781 H   0  0  0  0  0  0  0  0  0  0  0  0
   57.8240   33.7710   44.8340 C   0  0  0  0  0  0  0  0  0  0  0  0
   56.8884   33.7358   44.2566 H   0  0  0  0  0  0  0  0  0  0  0  0
   58.2800   32.6170   45.5040 C   0  0  0  0  0  0  0  0  0  0  0  0
   57.5860   31.3970   45.4500 C   0  0  0  0  0  0  0  0  0  0  0  0
   56.5140   31.3080   44.7900 O   0  0  0  0  0  0  0  0  0  0  0  0
   57.6630   25.9990   46.1110 C   0  0  0  0  0  0  0  0  0  0  0  0
   58.0120   25.9470   47.1529 H   0  0  0  0  0  0  0  0  0  0  0  0
   57.5820   28.1970   45.0390 C   0  0  0  0  0  0  0  0  0  0  0  0
   57.2633   28.4308   44.0125 H   0  0  0  0  0  0  0  0  0  0  0  0
   56.5910   25.0690   45.6860 C   0  0  0  0  0  0  0  0  0  0  0  0
   56.9630   23.7510   45.3490 C   0  0  0  0  0  0  0  0  0  0  0  0
   58.0194   23.4512   45.4142 H   0  0  0  0  0  0  0  0  0  0  0  0
   56.0100   22.8250   44.9350 C   0  0  0  0  0  0  0  0  0  0  0  0
   56.3154   21.8003   44.6769 H   0  0  0  0  0  0  0  0  0  0  0  0
   54.6680   23.1950   44.8470 C   0  0  0  0  0  0  0  0  0  0  0  0
   53.9179   22.4665   44.5056 H   0  0  0  0  0  0  0  0  0  0  0  0
   54.2770   24.4890   45.1920 C   0  0  0  0  0  0  0  0  0  0  0  0
   53.2179   24.7770   45.1191 H   0  0  0  0  0  0  0  0  0  0  0  0
   55.2220   25.4230   45.6300 C   0  0  0  0  0  0  0  0  0  0  0  0
   54.7750   26.6800   46.0310 O   0  0  0  0  0  0  0  0  0  0  0  0
  1  2  1  0
  2  3  2  0
  3  4  1  0
  4  5  1  0
  5  6  1  0
  6  7  2  0
  7  8  1  0
  7  9  1  0
  9 10  1  0
  9 11  1  0
 11 12  2  0
 12 13  1  0
 12 14  1  0
 14 15  1  0
 14 16  2  0
 16 17  1  0
 16 18  1  0
 18 19  1  0
 18 20  2  0
  5 21  2  0
 21 22  1  0
 21 23  1  0
 23 24  2  0
 24 25  1  0
 24 26  1  0
 26 27  1  0
 26 28  2  0
 28 29  1  0
 28 30  1  0
 30 31  1  0
 30 32  2  0
 32 33  1  0
 33 34  2  0
  2 35  1  0
 35 36  1  0
 35 37  2  0
 37 38  1  0
 37 39  1  0
 39 40  2  0
 40 41  1  0
 40 42  1  0
 42 43  1  0
 42 44  2  0
 44 45  1  0
 44 46  1  0
 46 47  1  0
 46 48  2  0
 48 49  1  0
 33  4  1  0
 48 39  1  0
 20  6  1  0
 32 23  1  0
 20 11  1  0
M  CHG  2  21   1  49  -1
M  END
>  <UniqueID>  (20) 
20

>  <SMILES>  (20) 
O=c1c2ccccc2[nH+]c(-c2c[nH]c3ccccc23)n1/N=C\C=C\c1ccccc1[O-]

>  <Energy>  (20) 
108.62863374307769

>  <Genealogy>  (20) 
O=c1c2ccccc2[nH+]c(-c2c[nH]c3ccccc23)n1N=CC=Cc1ccccc1[O-] (protonated)
O=c1c2ccccc2[nH+]c(-c2c[nH]c3ccccc23)n1/N=C\C=C\c1ccccc1[O-] (cis-trans isomerization)
O=c1c2ccccc2[nH+]c(-c2c[nH]c3ccccc23)n1/N=C\C=C\c1ccccc1[O-] (3D coordinates assigned)
O=c1c2ccccc2[nH+]c(-c2c[nH]c3ccccc23)n1/N=C\C=C\c1ccccc1[O-] (optimized conformer: 108.62863374307769 kcal/mol)

>  <smiles>  (20) 
O=c1c2ccccc2nc(-c2c[nH]c3ccccc23)n1N=CC=Cc1ccccc1O

>  <score_type>  (20) 
oracle

>  <origin>  (20) 
adg

>  <m_score__min__energy>  (20) 
-11.609999999999999

>  <m_primary>  (20) 
energy

$$$$
21:0
     RDKit          3D

 37 38  0  0  0  0  0  0  0  0999 V2000
   57.1930   24.9720   47.4700 C   0  0  0  0  0  0  0  0  0  0  0  0
   58.0030   25.9680   46.6940 C   0  0  0  0  0  0  0  0  0  0  0  0
   59.2570   26.3730   47.1630 C   0  0  0  0  0  0  0  0  0  0  0  0
   60.0010   27.3160   46.4550 C   0  0  0  0  0  0  0  0  0  0  0  0
   59.4970   27.8990   45.2800 C   0  0  0  0  0  0  0  0  0  0  0  0
   60.3760   28.8870   44.5550 C   0  0  0  0  0  0  0  0  0  0  0  0
   58.2220   27.4910   44.7910 C   0  0  0  0  0  0  0  0  0  0  0  0
   57.6520   28.0240   43.5700 N   0  0  0  0  0  0  0  0  0  0  0  0
   57.6010   29.4960   43.5750 C   0  0  0  0  0  0  0  0  0  0  0  0
   56.5650   30.0220   44.5420 C   0  0  0  0  0  0  0  0  0  0  0  0
   55.5350   29.3300   44.7570 O   0  0  0  0  0  0  0  0  0  0  0  0
   56.6470   31.3290   45.1280 N   0  0  0  0  0  0  0  0  0  0  0  0
   57.7990   31.9310   45.7320 C   0  0  0  0  0  0  0  0  0  0  0  0
   58.2440   33.2080   45.3510 C   0  0  0  0  0  0  0  0  0  0  0  0
   59.3620   33.7770   45.9690 C   0  0  0  0  0  0  0  0  0  0  0  0
   60.0620   33.0630   46.9460 C   0  0  0  0  0  0  0  0  0  0  0  0
   61.5810   33.8450   47.7990 Br  0  0  0  0  0  0  0  0  0  0  0  0
   59.6600   31.7670   47.2850 C   0  0  0  0  0  0  0  0  0  0  0  0
   58.5430   31.1960   46.6660 C   0  0  0  0  0  0  0  0  0  0  0  0
   58.1750   29.9300   46.9890 F   0  0  0  0  0  0  0  0  0  0  0  0
   57.4900   26.5320   45.5200 C   0  0  0  0  0  0  0  0  0  0  0  0
   57.3335   25.1448   48.5472 H   0  0  0  0  0  0  0  0  0  0  0  0
   56.1290   25.0871   47.2159 H   0  0  0  0  0  0  0  0  0  0  0  0
   57.5226   23.9538   47.2159 H   0  0  0  0  0  0  0  0  0  0  0  0
   59.6578   25.9458   48.0941 H   0  0  0  0  0  0  0  0  0  0  0  0
   60.9964   27.6076   46.8214 H   0  0  0  0  0  0  0  0  0  0  0  0
   60.9211   29.4997   45.2881 H   0  0  0  0  0  0  0  0  0  0  0  0
   61.0950   28.3440   43.9240 H   0  0  0  0  0  0  0  0  0  0  0  0
   59.7530   29.5380   43.9240 H   0  0  0  0  0  0  0  0  0  0  0  0
   56.6920   27.6420   43.4280 H   0  0  0  0  0  0  0  0  0  0  0  0
   58.2040   27.7070   42.7380 H   0  0  0  0  0  0  0  0  0  0  0  0
   58.5881   29.8848   43.8655 H   0  0  0  0  0  0  0  0  0  0  0  0
   57.3241   29.8304   42.5643 H   0  0  0  0  0  0  0  0  0  0  0  0
   57.7113   33.7620   44.5641 H   0  0  0  0  0  0  0  0  0  0  0  0
   59.6911   34.7878   45.6860 H   0  0  0  0  0  0  0  0  0  0  0  0
   60.2224   31.1964   48.0387 H   0  0  0  0  0  0  0  0  0  0  0  0
   56.4981   26.2213   45.1600 H   0  0  0  0  0  0  0  0  0  0  0  0
  1  2  1  0
  2  3  2  0
  3  4  1  0
  4  5  2  0
  5  6  1  0
  5  7  1  0
  7  8  1  0
  8  9  1  0
  9 10  1  0
 10 11  2  0
 10 12  1  0
 12 13  1  0
 13 14  2  0
 14 15  1  0
 15 16  2  0
 16 17  1  0
 16 18  1  0
 18 19  2  0
 19 20  1  0
  7 21  2  0
 21  2  1  0
 19 13  1  0
  1 22  1  0
  1 23  1  0
  1 24  1  0
  3 25  1  0
  4 26  1  0
  6 27  1  0
  6 28  1  0
  6 29  1  0
  8 30  1  0
  8 31  1  0
  9 32  1  0
  9 33  1  0
 14 34  1  0
 15 35  1  0
 18 36  1  0
 21 37  1  0
M  CHG  2   8   1  12  -1
M  END
>  <UniqueID>  (21) 
21

>  <SMILES>  (21) 
Cc1ccc(C)c([NH2+]CC(=O)[N-]c2ccc(Br)cc2F)c1

>  <Energy>  (21) 
41.14731084930474

>  <Genealogy>  (21) 
Cc1ccc(C)c([NH2+]CC(=O)[N-]c2ccc(Br)cc2F)c1 (protonated)
Cc1ccc(C)c([NH2+]CC(=O)[N-]c2ccc(Br)cc2F)c1 (3D coordinates assigned)
Cc1ccc(C)c([NH2+]CC(=O)[N-]c2ccc(Br)cc2F)c1 (optimized conformer: 41.14731084930474 kcal/mol)

>  <smiles>  (21) 
Cc1ccc(C)c(NCC(=O)Nc2ccc(Br)cc2F)c1

>  <score_type>  (21) 
oracle

>  <origin>  (21) 
adg

>  <m_score__min__energy>  (21) 
-7.96

>  <m_primary>  (21) 
energy

$$$$
22:0
     RDKit          3D

 42 44  0  0  0  0  0  0  0  0999 V2000
   60.7550   29.4080   49.7620 C   0  0  0  0  0  0  0  0  0  0  0  0
   60.7130   30.0210   48.4770 O   0  0  0  0  0  0  0  0  0  0  0  0
   60.1970   29.4080   47.3250 C   0  0  0  0  0  0  0  0  0  0  0  0
   60.7610   29.6090   46.0410 C   0  0  0  0  0  0  0  0  0  0  0  0
   60.2090   28.9780   44.9180 C   0  0  0  0  0  0  0  0  0  0  0  0
   59.0780   28.1720   45.0790 C   0  0  0  0  0  0  0  0  0  0  0  0
   58.5560   27.9410   46.3280 C   0  0  0  0  0  0  0  0  0  0  0  0
   59.0880   28.5570   47.4620 C   0  0  0  0  0  0  0  0  0  0  0  0
   57.4570   26.9500   46.2950 C   0  0  0  0  0  0  0  0  0  0  0  0
   57.5430   26.3770   44.8710 C   0  0  0  0  0  0  0  0  0  0  0  0
   58.3590   27.3880   44.0260 C   0  0  1  0  0  0  0  0  0  0  0  0
   57.4440   28.2290   43.2170 N   0  0  0  0  0  0  0  0  0  0  0  0
   56.8670   29.3900   43.9230 C   0  0  0  0  0  0  0  0  0  0  0  0
   57.2780   30.7550   43.3350 C   0  0  0  0  0  0  0  0  0  0  0  0
   57.6260   31.7590   44.4050 C   0  0  0  0  0  0  0  0  0  0  0  0
   57.7870   33.1150   44.0740 C   0  0  0  0  0  0  0  0  0  0  0  0
   58.1350   34.0440   45.0600 C   0  0  0  0  0  0  0  0  0  0  0  0
   58.3260   33.6280   46.3790 C   0  0  0  0  0  0  0  0  0  0  0  0
   58.1680   32.2800   46.7170 C   0  0  0  0  0  0  0  0  0  0  0  0
   57.8200   31.3480   45.7340 C   0  0  0  0  0  0  0  0  0  0  0  0
   60.7019   30.1836   50.5402 H   0  0  0  0  0  0  0  0  0  0  0  0
   59.9017   28.7221   49.8691 H   0  0  0  0  0  0  0  0  0  0  0  0
   61.6938   28.8449   49.8691 H   0  0  0  0  0  0  0  0  0  0  0  0
   61.6371   30.2640   45.9249 H   0  0  0  0  0  0  0  0  0  0  0  0
   60.6593   29.1149   43.9238 H   0  0  0  0  0  0  0  0  0  0  0  0
   58.6436   28.3779   48.4522 H   0  0  0  0  0  0  0  0  0  0  0  0
   57.6132   26.1626   47.0471 H   0  0  0  0  0  0  0  0  0  0  0  0
   56.4745   27.3878   46.5251 H   0  0  0  0  0  0  0  0  0  0  0  0
   58.0500   25.4010   44.8862 H   0  0  0  0  0  0  0  0  0  0  0  0
   56.5395   26.2286   44.4456 H   0  0  0  0  0  0  0  0  0  0  0  0
   59.0463   26.9335   43.2973 H   0  0  0  0  0  0  0  0  0  0  0  0
   56.6500   27.6370   42.8730 H   0  0  0  0  0  0  0  0  0  0  0  0
   57.9540   28.5750   42.3710 H   0  0  0  0  0  0  0  0  0  0  0  0
   55.7707   29.3111   43.8784 H   0  0  0  0  0  0  0  0  0  0  0  0
   57.2547   29.3592   44.9519 H   0  0  0  0  0  0  0  0  0  0  0  0
   58.1549   30.6111   42.6867 H   0  0  0  0  0  0  0  0  0  0  0  0
   56.4204   31.1495   42.7702 H   0  0  0  0  0  0  0  0  0  0  0  0
   57.6388   33.4471   43.0359 H   0  0  0  0  0  0  0  0  0  0  0  0
   58.2585   35.1046   44.7957 H   0  0  0  0  0  0  0  0  0  0  0  0
   58.6007   34.3604   47.1524 H   0  0  0  0  0  0  0  0  0  0  0  0
   58.3175   31.9527   47.7565 H   0  0  0  0  0  0  0  0  0  0  0  0
   57.6977   30.2884   46.0029 H   0  0  0  0  0  0  0  0  0  0  0  0
  1  2  1  0
  2  3  1  0
  3  4  2  0
  4  5  1  0
  5  6  2  0
  6  7  1  0
  7  8  2  0
  7  9  1  0
  9 10  1  0
 10 11  1  0
 11 12  1  0
 12 13  1  0
 13 14  1  0
 14 15  1  0
 15 16  2  0
 16 17  1  0
 17 18  2  0
 18 19  1  0
 19 20  2  0
  8  3  1  0
 20 15  1  0
 11  6  1  0
  1 21  1  0
  1 22  1  0
  1 23  1  0
  4 24  1  0
  5 25  1  0
  8 26  1  0
  9 27  1  0
  9 28  1  0
 10 29  1  0
 10 30  1  0
 11 31  1  6
 12 32  1  0
 12 33  1  0
 13 34  1  0
 13 35  1  0
 14 36  1  0
 14 37  1  0
 16 38  1  0
 17 39  1  0
 18 40  1  0
 19 41  1  0
 20 42  1  0
M  CHG  1  12   1
M  END
>  <UniqueID>  (22) 
22

>  <SMILES>  (22) 
COc1ccc2c(c1)CC[C@H]2[NH2+]CCc1ccccc1

>  <Energy>  (22) 
52.47857078228746

>  <Genealogy>  (22) 
COc1ccc2c(c1)CCC2[NH2+]CCc1ccccc1 (protonated)
COc1ccc2c(c1)CC[C@H]2[NH2+]CCc1ccccc1 (chirality)
COc1ccc2c(c1)CC[C@H]2[NH2+]CCc1ccccc1 (3D coordinates assigned)
COc1ccc2c(c1)CC[C@H]2[NH2+]CCc1ccccc1 (nonaromatic ring conformer: 52.47857078228746 kcal/mol)

>  <smiles>  (22) 
COc1ccc2c(c1)CCC2NCCc1ccccc1

>  <score_type>  (22) 
oracle

>  <origin>  (22) 
adg

>  <m_score__min__energy>  (22) 
-5.8099999999999996

>  <m_primary>  (22) 
energy

$$$$
23:0
     RDKit          3D

 37 38  0  0  0  0  0  0  0  0999 V2000
   55.5100   30.0710   43.7390 C   0  0  0  0  0  0  0  0  0  0  0  0
   55.5640   29.2110   44.8720 O   0  0  0  0  0  0  0  0  0  0  0  0
   56.6730   28.4290   45.2330 C   0  0  0  0  0  0  0  0  0  0  0  0
   57.9930   28.8820   45.0340 C   0  0  0  0  0  0  0  0  0  0  0  0
   59.0770   28.0590   45.3390 C   0  0  0  0  0  0  0  0  0  0  0  0
   58.8620   26.7730   45.8380 C   0  0  0  0  0  0  0  0  0  0  0  0
   57.5600   26.3160   46.0500 C   0  0  0  0  0  0  0  0  0  0  0  0
   56.4630   27.1430   45.7810 C   0  0  0  0  0  0  0  0  0  0  0  0
   55.1450   26.6310   46.0220 N   0  0  0  0  0  0  0  0  0  0  0  0
   54.7660   25.2560   45.9070 C   0  0  0  0  0  0  0  0  0  0  0  0
   53.7700   24.9520   45.2000 O   0  0  0  0  0  0  0  0  0  0  0  0
   55.5680   24.2340   46.5130 N   0  0  0  0  0  0  0  0  0  0  0  0
   56.2810   23.1920   45.8270 C   0  0  0  0  0  0  0  0  0  0  0  0
   57.6830   23.2140   45.7130 C   0  0  0  0  0  0  0  0  0  0  0  0
   58.3570   22.2000   45.0180 C   0  0  0  0  0  0  0  0  0  0  0  0
   59.8480   22.2500   44.8700 C   0  0  0  0  0  0  0  0  0  0  0  0
   57.6200   21.1840   44.3970 C   0  0  0  0  0  0  0  0  0  0  0  0
   56.2270   21.1690   44.4850 C   0  0  0  0  0  0  0  0  0  0  0  0
   55.5460   22.1770   45.1950 C   0  0  0  0  0  0  0  0  0  0  0  0
   54.1460   22.2000   45.2940 O   0  0  0  0  0  0  0  0  0  0  0  0
   53.4220   22.0900   46.5150 C   0  0  0  0  0  0  0  0  0  0  0  0
   55.4444   31.1164   44.0750 H   0  0  0  0  0  0  0  0  0  0  0  0
   56.4183   29.9369   43.1332 H   0  0  0  0  0  0  0  0  0  0  0  0
   54.6256   29.8243   43.1332 H   0  0  0  0  0  0  0  0  0  0  0  0
   58.1694   29.8919   44.6353 H   0  0  0  0  0  0  0  0  0  0  0  0
   60.1034   28.4239   45.1861 H   0  0  0  0  0  0  0  0  0  0  0  0
   59.7180   26.1202   46.0640 H   0  0  0  0  0  0  0  0  0  0  0  0
   57.3947   25.2976   46.4316 H   0  0  0  0  0  0  0  0  0  0  0  0
   58.2550   24.0334   46.1729 H   0  0  0  0  0  0  0  0  0  0  0  0
   60.3150   22.2657   45.8658 H   0  0  0  0  0  0  0  0  0  0  0  0
   60.1916   21.3629   44.3178 H   0  0  0  0  0  0  0  0  0  0  0  0
   60.1314   23.1582   44.3178 H   0  0  0  0  0  0  0  0  0  0  0  0
   58.1415   20.3938   43.8370 H   0  0  0  0  0  0  0  0  0  0  0  0
   55.6573   20.3647   43.9966 H   0  0  0  0  0  0  0  0  0  0  0  0
   54.1149   22.1953   47.3629 H   0  0  0  0  0  0  0  0  0  0  0  0
   52.6610   22.8828   46.5627 H   0  0  0  0  0  0  0  0  0  0  0  0
   52.9308   21.1069   46.5627 H   0  0  0  0  0  0  0  0  0  0  0  0
  1  2  1  0
  2  3  1  0
  3  4  2  0
  4  5  1  0
  5  6  2  0
  6  7  1  0
  7  8  2  0
  8  9  1  0
  9 10  1  0
 10 11  2  0
 10 12  1  0
 12 13  1  0
 13 14  2  0
 14 15  1  0
 15 16  1  0
 15 17  2  0
 17 18  1  0
 18 19  2  0
 19 20  1  0
 20 21  1  0
  8  3  1  0
 19 13  1  0
  1 22  1  0
  1 23  1  0
  1 24  1  0
  4 25  1  0
  5 26  1  0
  6 27  1  0
  7 28  1  0
 14 29  1  0
 16 30  1  0
 16 31  1  0
 16 32  1  0
 17 33  1  0
 18 34  1  0
 21 35  1  0
 21 36  1  0
 21 37  1  0
M  CHG  2   9  -1  12  -1
M  END
>  <UniqueID>  (23) 
23

>  <SMILES>  (23) 
COc1ccccc1[N-]C(=O)[N-]c1cc(C)ccc1OC

>  <Energy>  (23) 
43.21859117596711

>  <Genealogy>  (23) 
COc1ccccc1[N-]C(=O)[N-]c1cc(C)ccc1OC (protonated)
COc1ccccc1[N-]C(=O)[N-]c1cc(C)ccc1OC (3D coordinates assigned)
COc1ccccc1[N-]C(=O)[N-]c1cc(C)ccc1OC (optimized conformer: 43.21859117596711 kcal/mol)

>  <smiles>  (23) 
COc1ccccc1NC(=O)Nc1cc(C)ccc1OC

>  <score_type>  (23) 
oracle

>  <origin>  (23) 
adg

>  <m_score__min__energy>  (23) 
-11.07

>  <m_primary>  (23) 
energy

$$$$
24:0
     RDKit          3D

 61 64  0  0  0  0  0  0  0  0999 V2000
   59.2420   33.1130   49.3670 C   0  0  0  0  0  0  0  0  0  0  0  0
   58.2800   32.6990   48.2490 C   0  0  0  0  0  0  0  0  0  0  0  0
   58.4330   33.4870   47.0040 N   0  0  0  0  0  0  0  0  0  0  0  0
   59.3760   34.6320   47.0930 C   0  0  0  0  0  0  0  0  0  0  0  0
   59.6470   35.3520   45.7620 C   0  0  0  0  0  0  0  0  0  0  0  0
   57.1700   33.7090   46.2610 C   0  0  0  0  0  0  0  0  0  0  0  0
   57.2990   33.2840   44.7910 C   0  0  0  0  0  0  0  0  0  0  0  0
   58.0120   32.0540   44.6740 O   0  0  0  0  0  0  0  0  0  0  0  0
   57.4540   30.7970   44.9230 C   0  0  0  0  0  0  0  0  0  0  0  0
   56.2170   30.6070   44.7390 O   0  0  0  0  0  0  0  0  0  0  0  0
   58.3200   29.6730   45.3510 C   0  0  0  0  0  0  0  0  0  0  0  0
   57.8910   28.3480   45.1380 C   0  0  0  0  0  0  0  0  0  0  0  0
   58.7160   27.2680   45.4650 C   0  0  0  0  0  0  0  0  0  0  0  0
   58.1620   25.6270   45.1880 Cl  0  0  0  0  0  0  0  0  0  0  0  0
   59.9800   27.4950   46.0090 C   0  0  0  0  0  0  0  0  0  0  0  0
   60.4180   28.8010   46.2400 C   0  0  0  0  0  0  0  0  0  0  0  0
   59.6000   29.8960   45.9210 C   0  0  0  0  0  0  0  0  0  0  0  0
   60.0320   31.2180   46.2790 N   0  0  0  0  0  0  0  0  0  0  0  0
   61.1730   31.4900   47.1110 C   0  0  0  0  0  0  0  0  0  0  0  0
   62.0800   32.5080   46.7940 C   0  0  0  0  0  0  0  0  0  0  0  0
   63.1520   32.7840   47.6420 C   0  0  0  0  0  0  0  0  0  0  0  0
   63.3420   32.0650   48.8430 C   0  0  0  0  0  0  0  0  0  0  0  0
   62.3780   31.0790   49.1930 C   0  0  0  0  0  0  0  0  0  0  0  0
   61.3340   30.7840   48.3070 C   0  0  0  0  0  0  0  0  0  0  0  0
   62.3690   30.3940   50.4150 O   0  0  0  0  0  0  0  0  0  0  0  0
   62.9420   30.8930   51.6120 C   0  0  0  0  0  0  0  0  0  0  0  0
   64.4280   30.7190   51.5650 C   0  0  0  0  0  0  0  0  0  0  0  0
   65.0670   29.8730   52.4900 C   0  0  0  0  0  0  0  0  0  0  0  0
   66.4560   29.7380   52.4820 C   0  0  0  0  0  0  0  0  0  0  0  0
   67.2190   30.4520   51.5600 C   0  0  0  0  0  0  0  0  0  0  0  0
   66.5940   31.2920   50.6360 C   0  0  0  0  0  0  0  0  0  0  0  0
   65.1920   31.4200   50.6130 C   0  0  0  0  0  0  0  0  0  0  0  0
   64.5720   32.3630   49.6440 C   0  0  0  0  0  0  0  0  0  0  0  0
   65.1550   33.4650   49.4600 O   0  0  0  0  0  0  0  0  0  0  0  0
   58.7770   32.9129   50.3436 H   0  0  0  0  0  0  0  0  0  0  0  0
   60.1749   32.5367   49.2801 H   0  0  0  0  0  0  0  0  0  0  0  0
   59.4648   34.1867   49.2801 H   0  0  0  0  0  0  0  0  0  0  0  0
   58.4588   31.6397   48.0127 H   0  0  0  0  0  0  0  0  0  0  0  0
   57.2609   32.8824   48.6201 H   0  0  0  0  0  0  0  0  0  0  0  0
   58.9582   35.3648   47.7990 H   0  0  0  0  0  0  0  0  0  0  0  0
   60.3396   34.2136   47.4193 H   0  0  0  0  0  0  0  0  0  0  0  0
   60.0279   36.3641   45.9635 H   0  0  0  0  0  0  0  0  0  0  0  0
   60.3941   34.7872   45.1851 H   0  0  0  0  0  0  0  0  0  0  0  0
   58.7129   35.4199   45.1851 H   0  0  0  0  0  0  0  0  0  0  0  0
   56.3692   33.1215   46.7339 H   0  0  0  0  0  0  0  0  0  0  0  0
   56.9371   34.7837   46.2901 H   0  0  0  0  0  0  0  0  0  0  0  0
   56.2933   33.1586   44.3634 H   0  0  0  0  0  0  0  0  0  0  0  0
   57.8545   34.0634   44.2488 H   0  0  0  0  0  0  0  0  0  0  0  0
   56.8953   28.1612   44.7094 H   0  0  0  0  0  0  0  0  0  0  0  0
   60.6326   26.6447   46.2563 H   0  0  0  0  0  0  0  0  0  0  0  0
   61.4132   28.9729   46.6759 H   0  0  0  0  0  0  0  0  0  0  0  0
   59.4620   32.0210   45.9310 H   0  0  0  0  0  0  0  0  0  0  0  0
   61.9465   33.0928   45.8719 H   0  0  0  0  0  0  0  0  0  0  0  0
   63.8638   33.5774   47.3703 H   0  0  0  0  0  0  0  0  0  0  0  0
   60.6261   29.9802   48.5574 H   0  0  0  0  0  0  0  0  0  0  0  0
   62.7011   31.9612   51.7161 H   0  0  0  0  0  0  0  0  0  0  0  0
   62.5353   30.3396   52.4713 H   0  0  0  0  0  0  0  0  0  0  0  0
   64.4679   29.3144   53.2242 H   0  0  0  0  0  0  0  0  0  0  0  0
   66.9482   29.0686   53.2029 H   0  0  0  0  0  0  0  0  0  0  0  0
   68.3146   30.3538   51.5601 H   0  0  0  0  0  0  0  0  0  0  0  0
   67.2038   31.8601   49.9181 H   0  0  0  0  0  0  0  0  0  0  0  0
  1  2  1  0
  2  3  1  0
  3  4  1  0
  4  5  1  0
  3  6  1  0
  6  7  1  0
  7  8  1  0
  8  9  1  0
  9 10  2  0
  9 11  1  0
 11 12  2  0
 12 13  1  0
 13 14  1  0
 13 15  2  0
 15 16  1  0
 16 17  2  0
 17 18  1  0
 18 19  1  0
 19 20  2  0
 20 21  1  0
 21 22  2  0
 22 23  1  0
 23 24  2  0
 23 25  1  0
 25 26  1  0
 26 27  1  0
 27 28  2  0
 28 29  1  0
 29 30  2  0
 30 31  1  0
 31 32  2  0
 32 33  1  0
 33 34  2  0
 17 11  1  0
 24 19  1  0
 32 27  1  0
 33 22  1  0
  1 35  1  0
  1 36  1  0
  1 37  1  0
  2 38  1  0
  2 39  1  0
  4 40  1  0
  4 41  1  0
  5 42  1  0
  5 43  1  0
  5 44  1  0
  6 45  1  0
  6 46  1  0
  7 47  1  0
  7 48  1  0
 12 49  1  0
 15 50  1  0
 16 51  1  0
 18 52  1  0
 20 53  1  0
 21 54  1  0
 24 55  1  0
 26 56  1  0
 26 57  1  0
 28 58  1  0
 29 59  1  0
 30 60  1  0
 31 61  1  0
M  END
>  <UniqueID>  (24) 
24

>  <SMILES>  (24) 
CCN(CC)CCOC(=O)c1cc(Cl)ccc1Nc1ccc2c(c1)OCc1ccccc1C2=O

>  <Energy>  (24) 
89.70952201873584

>  <Genealogy>  (24) 
CCN(CC)CCOC(=O)c1cc(Cl)ccc1Nc1ccc2c(c1)OCc1ccccc1C2=O (3D coordinates assigned)
CCN(CC)CCOC(=O)c1cc(Cl)ccc1Nc1ccc2c(c1)OCc1ccccc1C2=O (nonaromatic ring conformer: 89.70952201873584 kcal/mol)

>  <smiles>  (24) 
CCN(CC)CCOC(=O)c1cc(Cl)ccc1Nc1ccc2c(c1)OCc1ccccc1C2=O

>  <score_type>  (24) 
oracle

>  <origin>  (24) 
adg

>  <m_score__min__energy>  (24) 
-9.0199999999999996

>  <m_primary>  (24) 
energy

$$$$
25:0
     RDKit          3D

 26 27  0  0  0  0  0  0  0  0999 V2000
   58.9340   34.4860   45.2990 C   0  0  0  0  0  0  0  0  0  0  0  0
   57.7900   33.4680   46.2830 S   0  0  0  0  0  0  0  0  0  0  0  0
   57.4790   32.3250   44.9430 C   0  0  0  0  0  0  0  0  0  0  0  0
   57.7080   32.7050   43.6600 N   0  0  0  0  0  0  0  0  0  0  0  0
   57.4780   31.8530   42.6280 C   0  0  0  0  0  0  0  0  0  0  0  0
   57.7640   32.3430   41.0960 S   0  0  0  0  0  0  0  0  0  0  0  0
   57.0000   30.5650   42.8830 C   0  0  0  0  0  0  0  0  0  0  0  0
   56.7610   30.1860   44.2140 C   0  0  0  0  0  0  0  0  0  0  0  0
   56.2620   28.8850   44.5590 N   0  0  0  0  0  0  0  0  0  0  0  0
   57.1880   27.6760   45.3910 S   0  0  0  0  0  0  0  0  0  0  0  0
   56.2900   26.9240   46.3340 O   0  0  0  0  0  0  0  0  0  0  0  0
   57.7650   26.7140   44.3920 O   0  0  0  0  0  0  0  0  0  0  0  0
   58.5010   28.4340   46.2730 C   0  0  0  0  0  0  0  0  0  0  0  0
   58.6230   28.4990   47.6530 C   0  0  0  0  0  0  0  0  0  0  0  0
   59.7680   29.1910   48.0650 C   0  0  0  0  0  0  0  0  0  0  0  0
   60.5400   29.6680   47.0130 C   0  0  0  0  0  0  0  0  0  0  0  0
   59.7990   29.2300   45.5680 S   0  0  0  0  0  0  0  0  0  0  0  0
   57.0130   31.0770   45.2090 N   0  0  0  0  0  0  0  0  0  0  0  0
   59.5833   35.0638   45.9733 H   0  0  0  0  0  0  0  0  0  0  0  0
   59.5521   33.8338   44.6645 H   0  0  0  0  0  0  0  0  0  0  0  0
   58.3580   35.1757   44.6645 H   0  0  0  0  0  0  0  0  0  0  0  0
   56.8146   29.8619   42.0576 H   0  0  0  0  0  0  0  0  0  0  0  0
   55.3090   28.6150   44.2290 H   0  0  0  0  0  0  0  0  0  0  0  0
   57.8972   28.0541   48.3497 H   0  0  0  0  0  0  0  0  0  0  0  0
   60.0317   29.3428   49.1221 H   0  0  0  0  0  0  0  0  0  0  0  0
   61.4772   30.2359   47.1089 H   0  0  0  0  0  0  0  0  0  0  0  0
  1  2  1  0
  2  3  1  0
  3  4  2  0
  4  5  1  0
  5  6  2  0
  5  7  1  0
  7  8  2  0
  8  9  1  0
  9 10  1  0
 10 11  2  0
 10 12  2  0
 10 13  1  0
 13 14  2  0
 14 15  1  0
 15 16  2  0
 16 17  1  0
  8 18  1  0
 18  3  1  0
 17 13  1  0
  1 19  1  0
  1 20  1  0
  1 21  1  0
  7 22  1  0
  9 23  1  0
 14 24  1  0
 15 25  1  0
 16 26  1  0
M  CHG  1  18  -1
M  END
>  <UniqueID>  (25) 
25

>  <SMILES>  (25) 
CSc1nc(=S)cc(NS(=O)(=O)c2cccs2)[n-]1

>  <Energy>  (25) 
51.291646035028094

>  <Genealogy>  (25) 
CSc1nc(=S)cc(NS(=O)(=O)c2cccs2)[n-]1 (protonated)
CSc1nc(=S)cc(NS(=O)(=O)c2cccs2)[n-]1 (3D coordinates assigned)
CSc1nc(=S)cc(NS(=O)(=O)c2cccs2)[n-]1 (optimized conformer: 51.291646035028094 kcal/mol)

>  <smiles>  (25) 
CSc1nc(=S)cc(NS(=O)(=O)c2cccs2)[nH]1

>  <score_type>  (25) 
oracle

>  <origin>  (25) 
adg

>  <m_score__min__energy>  (25) 
-8.3800000000000008

>  <m_primary>  (25) 
energy

$$$$
26:0
     RDKit          3D

 50 51  0  0  0  0  0  0  0  0999 V2000
   57.8050   32.3440   41.6720 C   0  0  0  0  0  0  0  0  0  0  0  0
   57.7760   31.8650   43.1200 C   0  0  0  0  0  0  0  0  0  0  0  0
   57.8880   33.0040   44.1640 C   0  0  0  0  0  0  0  0  0  0  0  0
   58.4460   32.6170   45.4830 N   0  0  0  0  0  0  0  0  0  0  0  0
   58.4830   31.1560   45.7150 C   0  0  0  0  0  0  0  0  0  0  0  0
   59.7920   30.7240   46.3910 C   0  0  0  0  0  0  0  0  0  0  0  0
   60.3550   29.4410   45.7810 C   0  0  0  0  0  0  0  0  0  0  0  0
   57.8990   33.3970   46.6200 C   0  0  0  0  0  0  0  0  0  0  0  0
   58.8040   34.5960   46.9240 C   0  0  0  0  0  0  0  0  0  0  0  0
   60.1890   34.1500   47.3150 C   0  0  0  0  0  0  0  0  0  0  0  0
   61.2350   34.2020   46.3810 C   0  0  0  0  0  0  0  0  0  0  0  0
   62.5080   33.7350   46.7200 C   0  0  0  0  0  0  0  0  0  0  0  0
   62.7500   33.1900   47.9890 C   0  0  0  0  0  0  0  0  0  0  0  0
   64.0700   32.7310   48.3220 N   0  0  0  0  0  0  0  0  0  0  0  0
   64.7560   33.0620   49.5390 C   0  0  0  0  0  0  0  0  0  0  0  0
   64.1560   33.3780   50.6350 N   0  0  0  0  0  0  0  0  0  0  0  0
   65.1290   33.5760   51.7010 C   0  0  0  0  0  0  0  0  0  0  0  0
   66.4930   33.2960   51.0430 C   0  0  0  0  0  0  0  0  0  0  0  0
   66.1590   32.9640   49.6700 N   0  0  0  0  0  0  0  0  0  0  0  0
   61.7080   33.1590   48.9320 C   0  0  0  0  0  0  0  0  0  0  0  0
   60.4350   33.6270   48.5930 C   0  0  0  0  0  0  0  0  0  0  0  0
   57.8715   33.4418   41.6502 H   0  0  0  0  0  0  0  0  0  0  0  0
   58.6787   31.9135   41.1608 H   0  0  0  0  0  0  0  0  0  0  0  0
   56.8857   32.0221   41.1608 H   0  0  0  0  0  0  0  0  0  0  0  0
   56.8282   31.3330   43.2892 H   0  0  0  0  0  0  0  0  0  0  0  0
   58.6556   31.2192   43.2587 H   0  0  0  0  0  0  0  0  0  0  0  0
   58.5338   33.7876   43.7409 H   0  0  0  0  0  0  0  0  0  0  0  0
   56.8567   33.3325   44.3602 H   0  0  0  0  0  0  0  0  0  0  0  0
   57.6381   30.8757   46.3612 H   0  0  0  0  0  0  0  0  0  0  0  0
   58.4164   30.6511   44.7400 H   0  0  0  0  0  0  0  0  0  0  0  0
   60.5339   31.5278   46.2747 H   0  0  0  0  0  0  0  0  0  0  0  0
   59.5784   30.5302   47.4525 H   0  0  0  0  0  0  0  0  0  0  0  0
   60.6564   28.7541   46.5855 H   0  0  0  0  0  0  0  0  0  0  0  0
   59.5845   28.9618   45.1592 H   0  0  0  0  0  0  0  0  0  0  0  0
   61.2294   29.6836   45.1592 H   0  0  0  0  0  0  0  0  0  0  0  0
   56.8924   33.7578   46.3621 H   0  0  0  0  0  0  0  0  0  0  0  0
   57.8502   32.7501   47.5083 H   0  0  0  0  0  0  0  0  0  0  0  0
   58.8713   35.2306   46.0281 H   0  0  0  0  0  0  0  0  0  0  0  0
   58.3687   35.1557   47.7650 H   0  0  0  0  0  0  0  0  0  0  0  0
   61.0521   34.6124   45.3769 H   0  0  0  0  0  0  0  0  0  0  0  0
   63.3254   33.7954   45.9864 H   0  0  0  0  0  0  0  0  0  0  0  0
   64.5600   32.0990   47.6500 H   0  0  0  0  0  0  0  0  0  0  0  0
   63.1220   33.4370   50.7630 H   0  0  0  0  0  0  0  0  0  0  0  0
   65.0854   34.6080   52.0791 H   0  0  0  0  0  0  0  0  0  0  0  0
   64.9406   32.9196   52.5634 H   0  0  0  0  0  0  0  0  0  0  0  0
   67.1372   34.1867   51.0843 H   0  0  0  0  0  0  0  0  0  0  0  0
   67.0504   32.4939   51.5489 H   0  0  0  0  0  0  0  0  0  0  0  0
   66.8320   32.7020   48.9160 H   0  0  0  0  0  0  0  0  0  0  0  0
   61.8952   32.7646   49.9416 H   0  0  0  0  0  0  0  0  0  0  0  0
   59.6218   33.5848   49.3326 H   0  0  0  0  0  0  0  0  0  0  0  0
  1  2  1  0
  2  3  1  0
  3  4  1  0
  4  5  1  0
  5  6  1  0
  6  7  1  0
  4  8  1  0
  8  9  1  0
  9 10  1  0
 10 11  2  0
 11 12  1  0
 12 13  2  0
 13 14  1  0
 14 15  1  0
 15 16  2  0
 16 17  1  0
 17 18  1  0
 18 19  1  0
 13 20  1  0
 20 21  2  0
 21 10  1  0
 19 15  1  0
  1 22  1  0
  1 23  1  0
  1 24  1  0
  2 25  1  0
  2 26  1  0
  3 27  1  0
  3 28  1  0
  5 29  1  0
  5 30  1  0
  6 31  1  0
  6 32  1  0
  7 33  1  0
  7 34  1  0
  7 35  1  0
  8 36  1  0
  8 37  1  0
  9 38  1  0
  9 39  1  0
 11 40  1  0
 12 41  1  0
 14 42  1  0
 16 43  1  0
 17 44  1  0
 17 45  1  0
 18 46  1  0
 18 47  1  0
 19 48  1  0
 20 49  1  0
 21 50  1  0
M  CHG  1  16   1
M  END
>  <UniqueID>  (26) 
26

>  <SMILES>  (26) 
CCCN(CCC)CCc1ccc(NC2=[NH+]CCN2)cc1

>  <Energy>  (26) 
59.83360008511176

>  <Genealogy>  (26) 
CCCN(CCC)CCc1ccc(NC2=[NH+]CCN2)cc1 (protonated)
CCCN(CCC)CCc1ccc(NC2=[NH+]CCN2)cc1 (3D coordinates assigned)
CCCN(CCC)CCc1ccc(NC2=[NH+]CCN2)cc1 (nonaromatic ring conformer: 59.83360008511176 kcal/mol)

>  <smiles>  (26) 
CCCN(CCC)CCc1ccc(NC2=NCCN2)cc1

>  <score_type>  (26) 
oracle

>  <origin>  (26) 
adg

>  <m_score__min__energy>  (26) 
-5.8200000000000003

>  <m_primary>  (26) 
energy

$$$$
27:0
     RDKit          3D

 53 56  0  0  1  0  0  0  0  0999 V2000
   55.0290   25.2350   45.6230 C   0  0  0  0  0  0  0  0  0  0  0  0
   55.3880   26.5280   46.0500 O   0  0  0  0  0  0  0  0  0  0  0  0
   56.6080   27.1080   45.7540 C   0  0  0  0  0  0  0  0  0  0  0  0
   56.5880   28.3640   45.1960 C   0  0  0  0  0  0  0  0  0  0  0  0
   57.8050   28.9370   44.9030 C   0  0  0  0  0  0  0  0  0  0  0  0
   58.9790   28.2360   45.1770 C   0  0  0  0  0  0  0  0  0  0  0  0
   60.3320   28.8740   44.8310 C   0  0  0  0  0  0  0  0  0  0  0  0
   60.7700   29.2210   46.1210 N   0  0  0  0  0  0  0  0  0  0  0  0
   60.2530   29.9850   46.9520 C   0  0  0  0  0  0  0  0  0  0  0  0
   59.8130   31.1830   46.5080 N   0  0  0  0  0  0  0  0  0  0  0  0
   59.2470   32.0430   47.3520 C   0  0  0  0  0  0  0  0  0  0  0  0
   58.7870   33.3070   46.8670 N   0  0  0  0  0  0  0  0  0  0  0  0
   57.4680   33.4320   46.2760 C   0  0  0  0  0  0  0  0  0  0  0  0
   59.6240   34.4890   46.9550 C   0  0  0  0  0  0  0  0  0  0  0  0
   61.0080   34.2100   47.3430 C   0  0  0  0  0  0  0  0  0  0  0  0
   61.9820   33.8830   46.4060 C   0  0  0  0  0  0  0  0  0  0  0  0
   63.2850   33.6240   46.8210 C   0  0  0  0  0  0  0  0  0  0  0  0
   63.6400   33.6870   48.1560 C   0  0  0  0  0  0  0  0  0  0  0  0
   62.6700   34.0140   49.0970 C   0  0  0  0  0  0  0  0  0  0  0  0
   61.3750   34.2680   48.6710 C   0  0  0  0  0  0  0  0  0  0  0  0
   59.0980   31.7520   48.6520 N   0  0  0  0  0  0  0  0  0  0  0  0
   59.5360   30.5630   49.0930 C   0  0  0  0  0  0  0  0  0  0  0  0
   59.3650   30.3030   50.4340 C   0  0  0  0  0  0  0  0  0  0  0  0
   59.8200   29.0780   50.8700 C   0  0  0  0  0  0  0  0  0  0  0  0
   60.4050   28.1470   50.0800 C   0  0  0  0  0  0  0  0  0  0  0  0
   60.8090   26.9850   50.6280 F   0  0  0  0  0  0  0  0  0  0  0  0
   60.5830   28.4110   48.6940 C   0  0  0  0  0  0  0  0  0  0  0  0
   60.1350   29.6170   48.2690 C   0  0  0  0  0  0  0  0  0  0  0  0
   58.9500   26.9690   45.7410 C   0  0  0  0  0  0  0  0  0  0  0  0
   57.7380   26.3900   46.0360 C   0  0  0  0  0  0  0  0  0  0  0  0
   54.8514   24.5953   46.5001 H   0  0  0  0  0  0  0  0  0  0  0  0
   54.1122   25.2901   45.0177 H   0  0  0  0  0  0  0  0  0  0  0  0
   55.8430   24.8096   45.0177 H   0  0  0  0  0  0  0  0  0  0  0  0
   55.6423   28.8877   44.9927 H   0  0  0  0  0  0  0  0  0  0  0  0
   57.8511   29.9409   44.4558 H   0  0  0  0  0  0  0  0  0  0  0  0
   61.0111   28.1562   44.3477 H   0  0  0  0  0  0  0  0  0  0  0  0
   60.2835   29.7085   44.1160 H   0  0  0  0  0  0  0  0  0  0  0  0
   56.7140   33.5035   47.0738 H   0  0  0  0  0  0  0  0  0  0  0  0
   57.4297   34.3378   45.6531 H   0  0  0  0  0  0  0  0  0  0  0  0
   57.2602   32.5495   45.6531 H   0  0  0  0  0  0  0  0  0  0  0  0
   59.6328   34.9808   45.9711 H   0  0  0  0  0  0  0  0  0  0  0  0
   59.1945   35.1257   47.7424 H   0  0  0  0  0  0  0  0  0  0  0  0
   61.7230   33.8291   45.3383 H   0  0  0  0  0  0  0  0  0  0  0  0
   64.0476   33.3640   46.0721 H   0  0  0  0  0  0  0  0  0  0  0  0
   64.6744   33.4815   48.4688 H   0  0  0  0  0  0  0  0  0  0  0  0
   62.9264   34.0705   50.1652 H   0  0  0  0  0  0  0  0  0  0  0  0
   60.6120   34.5254   49.4204 H   0  0  0  0  0  0  0  0  0  0  0  0
   58.6490   32.4610   49.2700 H   0  0  0  0  0  0  0  0  0  0  0  0
   58.8946   31.0279   51.1146 H   0  0  0  0  0  0  0  0  0  0  0  0
   59.6993   28.8390   51.9369 H   0  0  0  0  0  0  0  0  0  0  0  0
   61.0524   27.6855   48.0133 H   0  0  0  0  0  0  0  0  0  0  0  0
   59.8873   26.4327   45.9502 H   0  0  0  0  0  0  0  0  0  0  0  0
   57.6792   25.3863   46.4823 H   0  0  0  0  0  0  0  0  0  0  0  0
  1  2  1  0
  2  3  1  0
  3  4  2  0
  4  5  1  0
  5  6  2  0
  6  7  1  0
  7  8  1  0
  8  9  2  0
  9 10  1  0
 10 11  2  0
 11 12  1  0
 12 13  1  0
 12 14  1  0
 14 15  1  0
 15 16  2  0
 16 17  1  0
 17 18  2  0
 18 19  1  0
 19 20  2  0
 11 21  1  0
 21 22  1  0
 22 23  2  0
 23 24  1  0
 24 25  2  0
 25 26  1  0
 25 27  1  0
 27 28  2  0
  6 29  1  0
 29 30  2  0
 30  3  1  0
 28  9  1  0
 20 15  1  0
 28 22  1  0
  1 31  1  0
  1 32  1  0
  1 33  1  0
  4 34  1  0
  5 35  1  0
  7 36  1  0
  7 37  1  0
 13 38  1  0
 13 39  1  0
 13 40  1  0
 14 41  1  0
 14 42  1  0
 16 43  1  0
 17 44  1  0
 18 45  1  0
 19 46  1  0
 20 47  1  0
 21 48  1  0
 23 49  1  0
 24 50  1  0
 27 51  1  0
 29 52  1  0
 30 53  1  0
M  END
>  <smiles>  (27) 
COc1ccc(CN=c2nc(N(C)Cc3ccccc3)[nH]c3ccc(F)cc23)cc1

>  <score_type>  (27) 
oracle

>  <origin>  (27) 
adg

>  <m_score__min__energy>  (27) 
-8.4199999999999999

>  <m_primary>  (27) 
energy

$$$$
28:0
     RDKit          3D

 37 38  0  0  0  0  0  0  0  0999 V2000
   64.8810   32.9890   49.4580 C   0  0  0  0  0  0  0  0  0  0  0  0
   63.5370   33.2930   48.7950 C   0  0  0  0  0  0  0  0  0  0  0  0
   63.4690   32.7420   47.4220 N   0  0  0  0  0  0  0  0  0  0  0  0
   63.3720   33.8300   46.4270 C   0  0  0  0  0  0  0  0  0  0  0  0
   62.3170   31.8200   47.2870 C   0  0  0  0  0  0  0  0  0  0  0  0
   61.2270   32.1800   48.3040 C   0  0  0  0  0  0  0  0  0  0  0  0
   60.2960   33.2070   47.7350 C   0  0  0  0  0  0  0  0  0  0  0  0
   60.3840   34.5880   47.8920 C   0  0  0  0  0  0  0  0  0  0  0  0
   59.4140   35.2050   47.1800 N   0  0  0  0  0  0  0  0  0  0  0  0
   58.7230   34.2270   46.5670 C   0  0  0  0  0  0  0  0  0  0  0  0
   57.6400   34.3720   45.7040 C   0  0  0  0  0  0  0  0  0  0  0  0
   57.0780   33.2070   45.1510 C   0  0  0  0  0  0  0  0  0  0  0  0
   57.6010   31.9300   45.4610 C   0  0  0  0  0  0  0  0  0  0  0  0
   57.0010   30.8060   44.8750 O   0  0  0  0  0  0  0  0  0  0  0  0
   56.9900   30.5400   43.4770 C   0  0  0  0  0  0  0  0  0  0  0  0
   58.7060   31.8210   46.3430 C   0  0  0  0  0  0  0  0  0  0  0  0
   59.2350   32.9950   46.8770 C   0  0  0  0  0  0  0  0  0  0  0  0
   64.7647   33.0153   50.5515 H   0  0  0  0  0  0  0  0  0  0  0  0
   65.2244   31.9905   49.1497 H   0  0  0  0  0  0  0  0  0  0  0  0
   65.6207   33.7425   49.1497 H   0  0  0  0  0  0  0  0  0  0  0  0
   62.7324   32.8476   49.3986 H   0  0  0  0  0  0  0  0  0  0  0  0
   63.4233   34.3854   48.7332 H   0  0  0  0  0  0  0  0  0  0  0  0
   63.2859   34.7956   46.9468 H   0  0  0  0  0  0  0  0  0  0  0  0
   64.2735   33.8319   45.7967 H   0  0  0  0  0  0  0  0  0  0  0  0
   62.4843   33.6724   45.7967 H   0  0  0  0  0  0  0  0  0  0  0  0
   61.9054   31.8996   46.2700 H   0  0  0  0  0  0  0  0  0  0  0  0
   62.6574   30.7911   47.4755 H   0  0  0  0  0  0  0  0  0  0  0  0
   60.6558   31.2749   48.5579 H   0  0  0  0  0  0  0  0  0  0  0  0
   61.7040   32.5930   49.2051 H   0  0  0  0  0  0  0  0  0  0  0  0
   61.1357   35.1036   48.5077 H   0  0  0  0  0  0  0  0  0  0  0  0
   59.2480   36.2340   47.1100 H   0  0  0  0  0  0  0  0  0  0  0  0
   57.2365   35.3664   45.4622 H   0  0  0  0  0  0  0  0  0  0  0  0
   56.2198   33.2904   44.4680 H   0  0  0  0  0  0  0  0  0  0  0  0
   56.9451   29.4536   43.3108 H   0  0  0  0  0  0  0  0  0  0  0  0
   56.1108   31.0175   43.0198 H   0  0  0  0  0  0  0  0  0  0  0  0
   57.9056   30.9433   43.0198 H   0  0  0  0  0  0  0  0  0  0  0  0
   59.1328   30.8398   46.5981 H   0  0  0  0  0  0  0  0  0  0  0  0
  1  2  1  0
  2  3  1  0
  3  4  1  0
  3  5  1  0
  5  6  1  0
  6  7  1  0
  7  8  2  0
  8  9  1  0
  9 10  1  0
 10 11  2  0
 11 12  1  0
 12 13  2  0
 13 14  1  0
 14 15  1  0
 13 16  1  0
 16 17  2  0
 17  7  1  0
 17 10  1  0
  1 18  1  0
  1 19  1  0
  1 20  1  0
  2 21  1  0
  2 22  1  0
  4 23  1  0
  4 24  1  0
  4 25  1  0
  5 26  1  0
  5 27  1  0
  6 28  1  0
  6 29  1  0
  8 30  1  0
  9 31  1  0
 11 32  1  0
 12 33  1  0
 15 34  1  0
 15 35  1  0
 15 36  1  0
 16 37  1  0
M  END
>  <UniqueID>  (28) 
27

>  <SMILES>  (28) 
CCN(C)CCc1c[nH]c2ccc(OC)cc12

>  <Energy>  (28) 
66.18186189147691

>  <Genealogy>  (28) 
CCN(C)CCc1c[nH]c2ccc(OC)cc12 (3D coordinates assigned)
CCN(C)CCc1c[nH]c2ccc(OC)cc12 (optimized conformer: 66.18186189147691 kcal/mol)

>  <smiles>  (28) 
CCN(C)CCc1c[nH]c2ccc(OC)cc12

>  <score_type>  (28) 
oracle

>  <origin>  (28) 
adg

>  <m_score__min__energy>  (28) 
-6.1900000000000004

>  <m_primary>  (28) 
energy

$$$$
29:0
     RDKit          3D

 40 41  0  0  0  0  0  0  0  0999 V2000
   55.8080   25.2660   45.7750 C   0  0  0  0  0  0  0  0  0  0  0  0
   55.5190   26.6280   45.9920 O   0  0  0  0  0  0  0  0  0  0  0  0
   56.7240   27.3650   46.0120 C   0  0  0  0  0  0  0  0  0  0  0  0
   57.6770   26.8300   44.9390 C   0  0  0  0  0  0  0  0  0  0  0  0
   57.9150   27.8250   43.7900 C   0  0  0  0  0  0  0  0  0  0  0  0
   57.8430   29.2260   44.2590 N   0  0  0  0  0  0  0  0  0  0  0  0
   56.6970   29.9550   44.0670 C   0  0  0  0  0  0  0  0  0  0  0  0
   55.6900   29.4380   43.5090 O   0  0  0  0  0  0  0  0  0  0  0  0
   56.6240   31.2820   44.4850 C   0  0  0  0  0  0  0  0  0  0  0  0
   57.7300   31.8620   45.1170 C   0  0  0  0  0  0  0  0  0  0  0  0
   57.7410   33.3240   45.5500 C   0  0  0  0  0  0  0  0  0  0  0  0
   58.8580   34.1780   44.8910 C   0  0  0  0  0  0  0  0  0  0  0  0
   59.9690   34.5720   45.8770 C   0  0  0  0  0  0  0  0  0  0  0  0
   60.2710   33.4560   46.7770 N   0  0  0  0  0  0  0  0  0  0  0  0
   59.1530   33.1530   47.6910 C   0  0  0  0  0  0  0  0  0  0  0  0
   57.7610   33.4420   47.0850 C   0  0  0  0  0  0  0  0  0  0  0  0
   58.8580   31.1140   45.2790 N   0  0  0  0  0  0  0  0  0  0  0  0
   58.9220   29.8180   44.8680 C   0  0  0  0  0  0  0  0  0  0  0  0
   59.9920   29.1730   45.0480 O   0  0  0  0  0  0  0  0  0  0  0  0
   55.9163   24.7554   46.7433 H   0  0  0  0  0  0  0  0  0  0  0  0
   54.9880   24.8033   45.2062 H   0  0  0  0  0  0  0  0  0  0  0  0
   56.7452   25.1761   45.2062 H   0  0  0  0  0  0  0  0  0  0  0  0
   56.5073   28.4248   45.8124 H   0  0  0  0  0  0  0  0  0  0  0  0
   57.1958   27.2631   47.0004 H   0  0  0  0  0  0  0  0  0  0  0  0
   58.6442   26.6037   45.4116 H   0  0  0  0  0  0  0  0  0  0  0  0
   57.2102   25.9338   44.5043 H   0  0  0  0  0  0  0  0  0  0  0  0
   58.9114   27.6430   43.3609 H   0  0  0  0  0  0  0  0  0  0  0  0
   57.1287   27.6739   43.0357 H   0  0  0  0  0  0  0  0  0  0  0  0
   55.7074   31.8674   44.3202 H   0  0  0  0  0  0  0  0  0  0  0  0
   56.8006   33.7548   45.1757 H   0  0  0  0  0  0  0  0  0  0  0  0
   59.3060   33.5977   44.0709 H   0  0  0  0  0  0  0  0  0  0  0  0
   58.3933   35.1068   44.5285 H   0  0  0  0  0  0  0  0  0  0  0  0
   60.8754   34.8394   45.3141 H   0  0  0  0  0  0  0  0  0  0  0  0
   59.6286   35.4307   46.4743 H   0  0  0  0  0  0  0  0  0  0  0  0
   61.1050   33.7140   47.3530 H   0  0  0  0  0  0  0  0  0  0  0  0
   59.2014   32.0869   47.9577 H   0  0  0  0  0  0  0  0  0  0  0  0
   59.2657   33.8095   48.5664 H   0  0  0  0  0  0  0  0  0  0  0  0
   57.0403   32.7232   47.5019 H   0  0  0  0  0  0  0  0  0  0  0  0
   57.4980   34.4791   47.3404 H   0  0  0  0  0  0  0  0  0  0  0  0
   59.7020   31.5410   45.7240 H   0  0  0  0  0  0  0  0  0  0  0  0
  1  2  1  0
  2  3  1  0
  3  4  1  0
  4  5  1  0
  5  6  1  0
  6  7  1  0
  7  8  2  0
  7  9  1  0
  9 10  2  0
 10 11  1  0
 11 12  1  0
 12 13  1  0
 13 14  1  0
 14 15  1  0
 15 16  1  0
 10 17  1  0
 17 18  1  0
 18 19  2  0
 18  6  1  0
 16 11  1  0
  1 20  1  0
  1 21  1  0
  1 22  1  0
  3 23  1  0
  3 24  1  0
  4 25  1  0
  4 26  1  0
  5 27  1  0
  5 28  1  0
  9 29  1  0
 11 30  1  0
 12 31  1  0
 12 32  1  0
 13 33  1  0
 13 34  1  0
 14 35  1  0
 15 36  1  0
 15 37  1  0
 16 38  1  0
 16 39  1  0
 17 40  1  0
M  END
>  <UniqueID>  (29) 
28

>  <SMILES>  (29) 
COCCCn1c(=O)cc(C2CCNCC2)[nH]c1=O

>  <Energy>  (29) 
46.70443899402952

>  <Genealogy>  (29) 
COCCCn1c(=O)cc(C2CCNCC2)[nH]c1=O (3D coordinates assigned)
COCCCn1c(=O)cc(C2CCNCC2)[nH]c1=O (nonaromatic ring conformer: 46.70443899402952 kcal/mol)

>  <smiles>  (29) 
COCCCn1c(=O)cc(C2CCNCC2)[nH]c1=O

>  <score_type>  (29) 
oracle

>  <origin>  (29) 
adg

>  <m_score__min__energy>  (29) 
-6.6900000000000004

>  <m_primary>  (29) 
energy

$$$$
30:0
     RDKit          3D

 46 49  0  0  0  0  0  0  0  0999 V2000
   57.0100   34.2070   45.1460 C   0  0  0  0  0  0  0  0  0  0  0  0
   58.2640   33.6670   45.7470 C   0  0  0  0  0  0  0  0  0  0  0  0
   59.5000   34.2790   45.7210 C   0  0  0  0  0  0  0  0  0  0  0  0
   60.3040   33.4500   46.4770 C   0  0  0  0  0  0  0  0  0  0  0  0
   61.7590   33.6840   46.7490 C   0  0  0  0  0  0  0  0  0  0  0  0
   59.5590   32.4170   46.9380 N   0  0  0  0  0  0  0  0  0  0  0  0
   59.9670   31.3560   47.8210 C   0  0  0  0  0  0  0  0  0  0  0  0
   60.9850   31.5570   48.7570 C   0  0  0  0  0  0  0  0  0  0  0  0
   61.3830   30.5010   49.5670 C   0  0  0  0  0  0  0  0  0  0  0  0
   60.7810   29.2520   49.4130 C   0  0  0  0  0  0  0  0  0  0  0  0
   61.1400   28.2990   50.1560 O   0  0  0  0  0  0  0  0  0  0  0  0
   59.8170   29.0780   48.4530 N   0  0  0  0  0  0  0  0  0  0  0  0
   59.1590   27.7770   48.2510 C   0  0  0  0  0  0  0  0  0  0  0  0
   59.9730   26.8430   47.3340 C   0  0  0  0  0  0  0  0  0  0  0  0
   59.1610   26.2520   46.1690 C   0  0  0  0  0  0  0  0  0  0  0  0
   57.9930   27.0730   45.8380 N   0  0  0  0  0  0  0  0  0  0  0  0
   56.6830   26.7920   46.0590 C   0  0  0  0  0  0  0  0  0  0  0  0
   56.2790   25.7430   46.6250 O   0  0  0  0  0  0  0  0  0  0  0  0
   55.8680   27.7320   45.6140 O   0  0  0  0  0  0  0  0  0  0  0  0
   56.6430   28.6560   45.0980 C   0  0  0  0  0  0  0  0  0  0  0  0
   56.2800   29.8510   44.4840 C   0  0  0  0  0  0  0  0  0  0  0  0
   57.3140   30.6760   44.0010 C   0  0  0  0  0  0  0  0  0  0  0  0
   58.6660   30.2920   44.1500 C   0  0  0  0  0  0  0  0  0  0  0  0
   59.0000   29.0770   44.7790 C   0  0  0  0  0  0  0  0  0  0  0  0
   57.9510   28.2770   45.2350 C   0  0  0  0  0  0  0  0  0  0  0  0
   59.4140   30.1180   47.7140 N   0  0  0  0  0  0  0  0  0  0  0  0
   58.3160   32.5510   46.4990 N   0  0  0  0  0  0  0  0  0  0  0  0
   56.3180   34.5050   45.9475 H   0  0  0  0  0  0  0  0  0  0  0  0
   57.2489   35.0820   44.5237 H   0  0  0  0  0  0  0  0  0  0  0  0
   56.5384   33.4322   44.5237 H   0  0  0  0  0  0  0  0  0  0  0  0
   59.7807   35.2139   45.2138 H   0  0  0  0  0  0  0  0  0  0  0  0
   61.9291   33.7114   47.8354 H   0  0  0  0  0  0  0  0  0  0  0  0
   62.3505   32.8694   46.3056 H   0  0  0  0  0  0  0  0  0  0  0  0
   62.0653   34.6429   46.3056 H   0  0  0  0  0  0  0  0  0  0  0  0
   61.4663   32.5416   48.8514 H   0  0  0  0  0  0  0  0  0  0  0  0
   62.1671   30.6485   50.3243 H   0  0  0  0  0  0  0  0  0  0  0  0
   59.0324   27.2895   49.2289 H   0  0  0  0  0  0  0  0  0  0  0  0
   58.1899   27.9631   47.7650 H   0  0  0  0  0  0  0  0  0  0  0  0
   60.8139   27.4153   46.9151 H   0  0  0  0  0  0  0  0  0  0  0  0
   60.3055   25.9970   47.9535 H   0  0  0  0  0  0  0  0  0  0  0  0
   59.8095   26.1845   45.2831 H   0  0  0  0  0  0  0  0  0  0  0  0
   58.8007   25.2593   46.4768 H   0  0  0  0  0  0  0  0  0  0  0  0
   55.2239   30.1405   44.3798 H   0  0  0  0  0  0  0  0  0  0  0  0
   57.0677   31.6260   43.5042 H   0  0  0  0  0  0  0  0  0  0  0  0
   59.4641   30.9476   43.7715 H   0  0  0  0  0  0  0  0  0  0  0  0
   60.0486   28.7699   44.9062 H   0  0  0  0  0  0  0  0  0  0  0  0
  1  2  1  0
  2  3  1  0
  3  4  2  0
  4  5  1  0
  4  6  1  0
  6  7  1  0
  7  8  1  0
  8  9  2  0
  9 10  1  0
 10 11  2  0
 10 12  1  0
 12 13  1  0
 13 14  1  0
 14 15  1  0
 15 16  1  0
 16 17  1  0
 17 18  2  0
 17 19  1  0
 19 20  1  0
 20 21  2  0
 21 22  1  0
 22 23  2  0
 23 24  1  0
 24 25  2  0
 12 26  1  0
  6 27  1  0
 27  2  2  0
 26  7  2  0
 25 16  1  0
 25 20  1  0
  1 28  1  0
  1 29  1  0
  1 30  1  0
  3 31  1  0
  5 32  1  0
  5 33  1  0
  5 34  1  0
  8 35  1  0
  9 36  1  0
 13 37  1  0
 13 38  1  0
 14 39  1  0
 14 40  1  0
 15 41  1  0
 15 42  1  0
 21 43  1  0
 22 44  1  0
 23 45  1  0
 24 46  1  0
M  END
>  <UniqueID>  (30) 
29

>  <SMILES>  (30) 
Cc1cc(C)n(-c2ccc(=O)n(CCCn3c(=O)oc4ccccc43)n2)n1

>  <Energy>  (30) 
113.45615790004653

>  <Genealogy>  (30) 
Cc1cc(C)n(-c2ccc(=O)n(CCCn3c(=O)oc4ccccc43)n2)n1 (3D coordinates assigned)
Cc1cc(C)n(-c2ccc(=O)n(CCCn3c(=O)oc4ccccc43)n2)n1 (optimized conformer: 113.45615790004653 kcal/mol)

>  <smiles>  (30) 
Cc1cc(C)n(-c2ccc(=O)n(CCCn3c(=O)oc4ccccc43)n2)n1

>  <score_type>  (30) 
oracle

>  <origin>  (30) 
adg

>  <m_score__min__energy>  (30) 
-7.79

>  <m_primary>  (30) 
energy

$$$$
31:0
     RDKit          3D

 38 40  0  0  0  0  0  0  0  0999 V2000
   56.1421   29.3501   44.7701 H   0  0  0  0  0  0  0  0  0  0  0  0
   56.5960   28.5700   45.3990 C   0  0  0  0  0  0  0  0  0  0  0  0
   55.9400   27.4020   45.6170 N   0  0  0  0  0  0  0  0  0  0  0  0
   56.4670   26.4140   46.3870 C   0  0  0  0  0  0  0  0  0  0  0  0
   55.7810   25.3170   46.5510 N   0  0  0  0  0  0  0  0  0  0  0  0
   55.7930   24.1250   45.7000 C   0  0  0  0  0  0  0  0  0  0  0  0
   54.7636   23.8935   45.3891 H   0  0  0  0  0  0  0  0  0  0  0  0
   56.2175   23.2872   46.2726 H   0  0  0  0  0  0  0  0  0  0  0  0
   56.6510   24.3540   44.4590 C   0  0  0  0  0  0  0  0  0  0  0  0
   57.6720   24.6265   44.7643 H   0  0  0  0  0  0  0  0  0  0  0  0
   56.6813   23.4325   43.8591 H   0  0  0  0  0  0  0  0  0  0  0  0
   56.2181   25.1680   43.8591 H   0  0  0  0  0  0  0  0  0  0  0  0
   57.7350   26.6170   46.9660 C   0  0  0  0  0  0  0  0  0  0  0  0
   58.1915   25.8347   47.5901 H   0  0  0  0  0  0  0  0  0  0  0  0
   58.3890   27.7870   46.7470 N   0  0  0  0  0  0  0  0  0  0  0  0
   57.8560   28.7770   45.9800 C   0  0  0  0  0  0  0  0  0  0  0  0
   58.6080   30.0320   45.7660 C   0  0  0  0  0  0  0  0  0  0  0  0
   59.7290   29.9960   45.1890 O   0  0  0  0  0  0  0  0  0  0  0  0
   58.0500   31.2910   46.1770 N   0  0  0  0  0  0  0  0  0  0  0  0
   57.0180   31.3460   46.3360 H   0  0  0  0  0  0  0  0  0  0  0  0
   58.8040   32.5130   46.2630 C   0  0  0  0  0  0  0  0  0  0  0  0
   58.3450   33.6980   45.6650 C   0  0  0  0  0  0  0  0  0  0  0  0
   57.3823   33.7066   45.1329 H   0  0  0  0  0  0  0  0  0  0  0  0
   59.1070   34.8650   45.7440 C   0  0  0  0  0  0  0  0  0  0  0  0
   58.7368   35.7928   45.2834 H   0  0  0  0  0  0  0  0  0  0  0  0
   60.3370   34.8600   46.4050 C   0  0  0  0  0  0  0  0  0  0  0  0
   60.9274   35.7861   46.4669 H   0  0  0  0  0  0  0  0  0  0  0  0
   60.8280   33.6760   46.9940 C   0  0  0  0  0  0  0  0  0  0  0  0
   62.1590   33.5830   47.7220 C   0  0  0  0  0  0  0  0  0  0  0  0
   61.7483   33.9956   48.6554 H   0  0  0  0  0  0  0  0  0  0  0  0
   63.4210   33.8190   46.9020 C   0  0  0  0  0  0  0  0  0  0  0  0
   63.3436   34.0802   45.8363 H   0  0  0  0  0  0  0  0  0  0  0  0
   64.3003   34.4728   46.9984 H   0  0  0  0  0  0  0  0  0  0  0  0
   63.0680   32.4130   47.3690 C   0  0  0  0  0  0  0  0  0  0  0  0
   62.7357   31.6587   46.6405 H   0  0  0  0  0  0  0  0  0  0  0  0
   63.5869   31.6307   47.9424 H   0  0  0  0  0  0  0  0  0  0  0  0
   60.0500   32.5080   46.9070 C   0  0  0  0  0  0  0  0  0  0  0  0
   60.4250   31.5743   47.3516 H   0  0  0  0  0  0  0  0  0  0  0  0
  1  2  1  0
  2  3  1  0
  3  4  1  0
  4  5  2  0
  5  6  1  0
  6  7  1  0
  6  8  1  0
  6  9  1  0
  9 10  1  0
  9 11  1  0
  9 12  1  0
  4 13  1  0
 13 14  1  0
 13 15  2  0
 15 16  1  0
 16 17  1  0
 17 18  2  0
 17 19  1  0
 19 20  1  0
 19 21  1  0
 21 22  2  0
 22 23  1  0
 22 24  1  0
 24 25  1  0
 24 26  2  0
 26 27  1  0
 26 28  1  0
 28 29  1  0
 29 30  1  0
 29 31  1  0
 31 32  1  0
 31 33  1  0
 31 34  1  0
 34 35  1  0
 34 36  1  0
 28 37  2  0
 37 38  1  0
 16  2  2  0
 37 21  1  0
 34 29  1  0
M  CHG  1   3  -1
M  END
>  <UniqueID>  (31) 
30

>  <SMILES>  (31) 
CC/N=c1\cnc(C(=O)Nc2cccc(C3CC3)c2)c[n-]1

>  <Energy>  (31) 
312.1482541597906

>  <Genealogy>  (31) 
CCN=c1cnc(C(=O)Nc2cccc(C3CC3)c2)c[n-]1 (protonated)
CC/N=c1\cnc(C(=O)Nc2cccc(C3CC3)c2)c[n-]1 (cis-trans isomerization)
CC/N=c1\cnc(C(=O)Nc2cccc(C3CC3)c2)c[n-]1 (3D coordinates assigned)
CC/N=c1\cnc(C(=O)Nc2cccc(C3CC3)c2)c[n-]1 (nonaromatic ring conformer: 312.1482541597906 kcal/mol)

>  <smiles>  (31) 
CCN=c1cnc(C(=O)Nc2cccc(C3CC3)c2)c[nH]1

>  <score_type>  (31) 
oracle

>  <origin>  (31) 
adg

>  <m_score__min__energy>  (31) 
-8.8300000000000001

>  <m_primary>  (31) 
energy

$$$$
32:0
     RDKit          3D

 49 50  0  0  1  0  0  0  0  0999 V2000
   62.7900   33.8410   46.7390 C   0  0  0  0  0  0  0  0  0  0  0  0
   61.7550   33.5410   47.8270 C   0  0  0  0  0  0  0  0  0  0  0  0
   60.7020   34.4950   47.7990 N   0  0  0  0  0  0  0  0  0  0  0  0
   59.8450   34.5490   48.9340 C   0  0  0  0  0  0  0  0  0  0  0  0
   59.7280   33.2710   49.6930 C   0  0  0  0  0  0  0  0  0  0  0  0
   60.0450   34.6600   46.5280 C   0  0  0  0  0  0  0  0  0  0  0  0
   59.2030   33.5120   46.2000 C   0  0  0  0  0  0  0  0  0  0  0  0
   59.0540   32.3520   46.6030 N   0  0  0  0  0  0  0  0  0  0  0  0
   58.2590   31.4550   46.1940 N   0  0  0  0  0  0  0  0  0  0  0  0
   57.4350   31.7860   45.1610 C   0  0  0  0  0  0  0  0  0  0  0  0
   56.5610   31.2040   44.5240 N   0  0  0  0  0  0  0  0  0  0  0  0
   56.3450   29.8080   44.4750 C   0  0  0  0  0  0  0  0  0  0  0  0
   55.2240   29.3810   44.8560 O   0  0  0  0  0  0  0  0  0  0  0  0
   57.3470   28.8150   43.9990 C   0  0  0  0  0  0  0  0  0  0  0  0
   57.7090   27.9900   45.2170 C   0  0  0  0  0  0  0  0  0  0  0  0
   56.7630   27.0430   45.5640 C   0  0  0  0  0  0  0  0  0  0  0  0
   56.9920   26.2620   46.6710 C   0  0  0  0  0  0  0  0  0  0  0  0
   56.1200   25.2890   47.1080 O   0  0  0  0  0  0  0  0  0  0  0  0
   56.6210   23.9640   47.3590 C   0  0  0  0  0  0  0  0  0  0  0  0
   58.1580   26.4440   47.4040 C   0  0  0  0  0  0  0  0  0  0  0  0
   59.1030   27.4040   47.0410 C   0  0  0  0  0  0  0  0  0  0  0  0
   60.2220   27.5180   47.8180 O   0  0  0  0  0  0  0  0  0  0  0  0
   60.3880   28.4380   48.8770 C   0  0  0  0  0  0  0  0  0  0  0  0
   58.8750   28.2010   45.9140 C   0  0  0  0  0  0  0  0  0  0  0  0
   57.9240   33.5790   44.8140 S   0  0  0  0  0  0  0  0  0  0  0  0
   63.7455   34.1180   47.2083 H   0  0  0  0  0  0  0  0  0  0  0  0
   62.9340   32.9476   46.1136 H   0  0  0  0  0  0  0  0  0  0  0  0
   62.4339   34.6729   46.1136 H   0  0  0  0  0  0  0  0  0  0  0  0
   61.3368   32.5374   47.6600 H   0  0  0  0  0  0  0  0  0  0  0  0
   62.2501   33.5913   48.8080 H   0  0  0  0  0  0  0  0  0  0  0  0
   60.2319   35.3186   49.6181 H   0  0  0  0  0  0  0  0  0  0  0  0
   58.8387   34.7736   48.5506 H   0  0  0  0  0  0  0  0  0  0  0  0
   59.7474   33.4825   50.7723 H   0  0  0  0  0  0  0  0  0  0  0  0
   58.7808   32.7757   49.4333 H   0  0  0  0  0  0  0  0  0  0  0  0
   60.5696   32.6120   49.4333 H   0  0  0  0  0  0  0  0  0  0  0  0
   59.4175   35.5627   46.5660 H   0  0  0  0  0  0  0  0  0  0  0  0
   60.8192   34.7494   45.7517 H   0  0  0  0  0  0  0  0  0  0  0  0
   58.1940   30.4710   46.5970 H   0  0  0  0  0  0  0  0  0  0  0  0
   56.9127   28.1753   43.2166 H   0  0  0  0  0  0  0  0  0  0  0  0
   58.2293   29.3037   43.5600 H   0  0  0  0  0  0  0  0  0  0  0  0
   55.8476   26.9177   44.9671 H   0  0  0  0  0  0  0  0  0  0  0  0
   56.6847   23.7955   48.4442 H   0  0  0  0  0  0  0  0  0  0  0  0
   55.9406   23.2240   46.9124 H   0  0  0  0  0  0  0  0  0  0  0  0
   57.6208   23.8593   46.9124 H   0  0  0  0  0  0  0  0  0  0  0  0
   58.3401   25.8177   48.2897 H   0  0  0  0  0  0  0  0  0  0  0  0
   60.2930   27.9117   49.8382 H   0  0  0  0  0  0  0  0  0  0  0  0
   61.3840   28.8999   48.8087 H   0  0  0  0  0  0  0  0  0  0  0  0
   59.6162   29.2189   48.8087 H   0  0  0  0  0  0  0  0  0  0  0  0
   59.5997   28.9659   45.5982 H   0  0  0  0  0  0  0  0  0  0  0  0
  1  2  1  0
  2  3  1  0
  3  4  1  0
  4  5  1  0
  3  6  1  0
  6  7  1  0
  7  8  2  0
  8  9  1  0
  9 10  1  0
 10 11  2  0
 11 12  1  0
 12 13  2  0
 12 14  1  0
 14 15  1  0
 15 16  2  0
 16 17  1  0
 17 18  1  0
 18 19  1  0
 17 20  2  0
 20 21  1  0
 21 22  1  0
 22 23  1  0
 21 24  2  0
 10 25  1  0
 25  7  1  0
 24 15  1  0
  1 26  1  0
  1 27  1  0
  1 28  1  0
  2 29  1  0
  2 30  1  0
  4 31  1  0
  4 32  1  0
  5 33  1  0
  5 34  1  0
  5 35  1  0
  6 36  1  0
  6 37  1  0
  9 38  1  0
 14 39  1  0
 14 40  1  0
 16 41  1  0
 19 42  1  0
 19 43  1  0
 19 44  1  0
 20 45  1  0
 23 46  1  0
 23 47  1  0
 23 48  1  0
 24 49  1  0
M  END
>  <smiles>  (32) 
CCN(CC)Cc1n[nH]c(=NC(=O)Cc2cc(OC)cc(OC)c2)s1

>  <score_type>  (32) 
oracle

>  <origin>  (32) 
adg

>  <m_score__min__energy>  (32) 
-7.5899999999999999

>  <m_primary>  (32) 
energy

$$$$
33:0
     RDKit          3D

 44 45  0  0  0  0  0  0  0  0999 V2000
   62.3750   31.2980   48.5820 N   0  0  0  0  0  0  0  0  0  0  0  0
   63.3300   31.5820   47.5090 C   0  0  0  0  0  0  0  0  0  0  0  0
   63.5520   33.0940   47.3200 C   0  0  0  0  0  0  0  0  0  0  0  0
   62.3420   33.8200   46.7070 C   0  0  0  0  0  0  0  0  0  0  0  0
   61.0910   33.4010   47.3430 N   0  0  0  0  0  0  0  0  0  0  0  0
   59.8090   33.5390   46.7110 C   0  0  0  0  0  0  0  0  0  0  0  0
   59.7490   34.2030   45.4760 C   0  0  0  0  0  0  0  0  0  0  0  0
   58.5250   34.4410   44.8520 C   0  0  0  0  0  0  0  0  0  0  0  0
   57.3400   34.0460   45.4690 C   0  0  0  0  0  0  0  0  0  0  0  0
   57.3760   33.4040   46.7080 C   0  0  0  0  0  0  0  0  0  0  0  0
   58.6030   33.1300   47.3430 C   0  0  0  0  0  0  0  0  0  0  0  0
   58.5880   32.4220   48.6800 C   0  0  0  0  0  0  0  0  0  0  0  0
   59.7630   31.5470   48.8090 N   0  0  0  0  0  0  0  0  0  0  0  0
   59.4390   30.1180   48.7000 C   0  0  0  0  0  0  0  0  0  0  0  0
   59.3790   29.7420   47.2490 C   0  0  0  0  0  0  0  0  0  0  0  0
   60.5410   29.3450   46.5670 C   0  0  0  0  0  0  0  0  0  0  0  0
   60.4850   29.0320   45.2050 C   0  0  0  0  0  0  0  0  0  0  0  0
   59.2740   29.1250   44.5130 C   0  0  0  0  0  0  0  0  0  0  0  0
   58.1160   29.5360   45.1810 C   0  0  0  0  0  0  0  0  0  0  0  0
   58.1690   29.8530   46.5420 C   0  0  0  0  0  0  0  0  0  0  0  0
   62.8920   30.9140   49.4050 H   0  0  0  0  0  0  0  0  0  0  0  0
   61.6730   30.5880   48.2720 H   0  0  0  0  0  0  0  0  0  0  0  0
   61.8860   32.1740   48.8780 H   0  0  0  0  0  0  0  0  0  0  0  0
   64.2924   31.1098   47.7558 H   0  0  0  0  0  0  0  0  0  0  0  0
   62.9181   31.1792   46.5719 H   0  0  0  0  0  0  0  0  0  0  0  0
   63.7646   33.5402   48.3027 H   0  0  0  0  0  0  0  0  0  0  0  0
   64.3903   33.2127   46.6178 H   0  0  0  0  0  0  0  0  0  0  0  0
   62.4678   34.9042   46.8438 H   0  0  0  0  0  0  0  0  0  0  0  0
   62.2899   33.5657   45.6381 H   0  0  0  0  0  0  0  0  0  0  0  0
   61.0950   33.4010   48.3890 H   0  0  0  0  0  0  0  0  0  0  0  0
   60.6789   34.5398   44.9945 H   0  0  0  0  0  0  0  0  0  0  0  0
   58.4950   34.9407   43.8725 H   0  0  0  0  0  0  0  0  0  0  0  0
   56.3745   34.2403   44.9791 H   0  0  0  0  0  0  0  0  0  0  0  0
   56.4346   33.1085   47.1943 H   0  0  0  0  0  0  0  0  0  0  0  0
   58.6025   33.1699   49.4865 H   0  0  0  0  0  0  0  0  0  0  0  0
   57.6771   31.8094   48.7496 H   0  0  0  0  0  0  0  0  0  0  0  0
   60.1930   31.7110   49.7500 H   0  0  0  0  0  0  0  0  0  0  0  0
   60.2159   29.5239   49.2035 H   0  0  0  0  0  0  0  0  0  0  0  0
   58.4679   29.9189   49.1768 H   0  0  0  0  0  0  0  0  0  0  0  0
   61.4979   29.2801   47.1057 H   0  0  0  0  0  0  0  0  0  0  0  0
   61.3956   28.7120   44.6774 H   0  0  0  0  0  0  0  0  0  0  0  0
   59.2318   28.8748   43.4427 H   0  0  0  0  0  0  0  0  0  0  0  0
   57.1635   29.6099   44.6358 H   0  0  0  0  0  0  0  0  0  0  0  0
   57.2601   30.1906   47.0615 H   0  0  0  0  0  0  0  0  0  0  0  0
  1  2  1  0
  2  3  1  0
  3  4  1  0
  4  5  1  0
  5  6  1  0
  6  7  2  0
  7  8  1  0
  8  9  2  0
  9 10  1  0
 10 11  2  0
 11 12  1  0
 12 13  1  0
 13 14  1  0
 14 15  1  0
 15 16  2  0
 16 17  1  0
 17 18  2  0
 18 19  1  0
 19 20  2  0
 11  6  1  0
 20 15  1  0
  1 21  1  0
  1 22  1  0
  1 23  1  0
  2 24  1  0
  2 25  1  0
  3 26  1  0
  3 27  1  0
  4 28  1  0
  4 29  1  0
  5 30  1  0
  7 31  1  0
  8 32  1  0
  9 33  1  0
 10 34  1  0
 12 35  1  0
 12 36  1  0
 13 37  1  0
 14 38  1  0
 14 39  1  0
 16 40  1  0
 17 41  1  0
 18 42  1  0
 19 43  1  0
 20 44  1  0
M  CHG  1   1   1
M  END
>  <UniqueID>  (33) 
31

>  <SMILES>  (33) 
[NH3+]CCCNc1ccccc1CNCc1ccccc1

>  <Energy>  (33) 
44.102213217409904

>  <Genealogy>  (33) 
[NH3+]CCCNc1ccccc1CNCc1ccccc1 (protonated)
[NH3+]CCCNc1ccccc1CNCc1ccccc1 (3D coordinates assigned)
[NH3+]CCCNc1ccccc1CNCc1ccccc1 (optimized conformer: 44.102213217409904 kcal/mol)

>  <smiles>  (33) 
NCCCNc1ccccc1CNCc1ccccc1

>  <score_type>  (33) 
oracle

>  <origin>  (33) 
adg

>  <m_score__min__energy>  (33) 
-6.0899999999999999

>  <m_primary>  (33) 
energy

$$$$
34:0
     RDKit          3D

 31 33  0  0  1  0  0  0  0  0999 V2000
   57.5590   32.5490   40.7380 Cl  0  0  0  0  0  0  0  0  0  0  0  0
   57.3910   31.6720   42.2440 C   0  0  0  0  0  0  0  0  0  0  0  0
   56.6570   30.4810   42.2600 C   0  0  0  0  0  0  0  0  0  0  0  0
   56.4830   29.7440   43.3970 C   0  0  0  0  0  0  0  0  0  0  0  0
   57.0560   30.1810   44.6170 C   0  0  0  0  0  0  0  0  0  0  0  0
   56.9640   29.3820   45.7070 N   0  0  0  0  0  0  0  0  0  0  0  0
   57.5340   28.3430   46.0380 C   0  0  0  0  0  0  0  0  0  0  0  0
   57.1120   27.1740   45.4820 N   0  0  0  0  0  0  0  0  0  0  0  0
   57.6500   25.9830   45.7620 C   0  0  0  0  0  0  0  0  0  0  0  0
   57.1410   24.7470   45.1180 C   0  0  0  0  0  0  0  0  0  0  0  0
   55.4160   24.5660   45.4370 Cl  0  0  0  0  0  0  0  0  0  0  0  0
   57.9950   23.3430   45.7910 Cl  0  0  0  0  0  0  0  0  0  0  0  0
   57.3910   24.8780   43.3750 Cl  0  0  0  0  0  0  0  0  0  0  0  0
   58.6610   25.9340   46.6350 N   0  0  0  0  0  0  0  0  0  0  0  0
   59.1030   27.0730   47.2030 C   0  0  0  0  0  0  0  0  0  0  0  0
   60.1340   26.9680   48.0870 C   0  0  0  0  0  0  0  0  0  0  0  0
   60.5970   28.1140   48.6740 C   0  0  0  0  0  0  0  0  0  0  0  0
   60.1040   29.3620   48.4440 C   0  0  0  0  0  0  0  0  0  0  0  0
   59.0390   29.4440   47.5270 C   0  0  0  0  0  0  0  0  0  0  0  0
   58.5570   28.3160   46.9260 C   0  0  0  0  0  0  0  0  0  0  0  0
   57.8040   31.3860   44.6200 C   0  0  0  0  0  0  0  0  0  0  0  0
   57.9460   32.0940   43.4300 C   0  0  0  0  0  0  0  0  0  0  0  0
   56.2036   30.1252   41.3231 H   0  0  0  0  0  0  0  0  0  0  0  0
   55.8988   28.8125   43.3655 H   0  0  0  0  0  0  0  0  0  0  0  0
   56.3230   27.1740   44.7930 H   0  0  0  0  0  0  0  0  0  0  0  0
   60.5811   25.9908   48.3220 H   0  0  0  0  0  0  0  0  0  0  0  0
   61.4306   28.0198   49.3855 H   0  0  0  0  0  0  0  0  0  0  0  0
   60.5130   30.2522   48.9443 H   0  0  0  0  0  0  0  0  0  0  0  0
   58.5926   30.4218   47.2932 H   0  0  0  0  0  0  0  0  0  0  0  0
   58.2647   31.7553   45.5481 H   0  0  0  0  0  0  0  0  0  0  0  0
   58.5255   33.0289   43.4382 H   0  0  0  0  0  0  0  0  0  0  0  0
  1  2  1  0
  2  3  2  0
  3  4  1  0
  4  5  2  0
  5  6  1  0
  6  7  2  0
  7  8  1  0
  8  9  1  0
  9 10  1  0
 10 11  1  0
 10 12  1  0
 10 13  1  0
  9 14  2  0
 14 15  1  0
 15 16  2  0
 16 17  1  0
 17 18  2  0
 18 19  1  0
 19 20  2  0
  5 21  1  0
 21 22  2  0
 22  2  1  0
 20  7  1  0
 20 15  1  0
  3 23  1  0
  4 24  1  0
  8 25  1  0
 16 26  1  0
 17 27  1  0
 18 28  1  0
 19 29  1  0
 21 30  1  0
 22 31  1  0
M  END
>  <smiles>  (34) 
Clc1ccc(N=c2[nH]c(C(Cl)(Cl)Cl)nc3ccccc23)cc1

>  <score_type>  (34) 
oracle

>  <origin>  (34) 
adg

>  <m_score__min__energy>  (34) 
-7.71

>  <m_primary>  (34) 
energy

$$$$
35:0
     RDKit          3D

 34 36  0  0  0  0  0  0  0  0999 V2000
   58.5180   27.7920   47.8410 C   0  0  0  0  0  0  0  0  0  0  0  0
   57.4290   27.6060   46.9440 O   0  0  0  0  0  0  0  0  0  0  0  0
   57.5510   27.1260   45.6300 C   0  0  0  0  0  0  0  0  0  0  0  0
   57.5150   25.7490   45.3330 C   0  0  0  0  0  0  0  0  0  0  0  0
   57.6270   25.3090   44.0120 C   0  0  0  0  0  0  0  0  0  0  0  0
   57.7730   26.2300   42.9740 C   0  0  0  0  0  0  0  0  0  0  0  0
   57.8130   27.5970   43.2540 C   0  0  0  0  0  0  0  0  0  0  0  0
   57.7070   28.0530   44.5780 C   0  0  0  0  0  0  0  0  0  0  0  0
   57.7580   29.5110   44.8570 C   0  0  0  0  0  0  0  0  0  0  0  0
   58.9160   30.1380   45.4010 C   0  0  0  0  0  0  0  0  0  0  0  0
   60.2020   29.3470   45.5180 C   0  0  0  0  0  0  0  0  0  0  0  0
   58.8420   31.4760   45.7400 N   0  0  0  0  0  0  0  0  0  0  0  0
   59.7630   32.2840   46.3790 C   0  0  0  0  0  0  0  0  0  0  0  0
   61.0580   31.8350   47.0010 C   0  0  0  0  0  0  0  0  0  0  0  0
   59.3680   33.6190   46.5060 C   0  0  0  0  0  0  0  0  0  0  0  0
   57.8290   33.8020   45.8630 S   0  0  0  0  0  0  0  0  0  0  0  0
   57.7260   32.1890   45.4340 C   0  0  0  0  0  0  0  0  0  0  0  0
   56.6360   31.6250   44.8720 N   0  0  0  0  0  0  0  0  0  0  0  0
   56.6240   30.3010   44.5910 C   0  0  0  0  0  0  0  0  0  0  0  0
   55.5840   29.7880   44.0970 O   0  0  0  0  0  0  0  0  0  0  0  0
   58.1542   27.7299   48.8772 H   0  0  0  0  0  0  0  0  0  0  0  0
   59.2720   27.0096   47.6696 H   0  0  0  0  0  0  0  0  0  0  0  0
   58.9696   28.7803   47.6696 H   0  0  0  0  0  0  0  0  0  0  0  0
   57.3981   25.0168   46.1456 H   0  0  0  0  0  0  0  0  0  0  0  0
   57.6000   24.2322   43.7891 H   0  0  0  0  0  0  0  0  0  0  0  0
   57.8566   25.8788   41.9349 H   0  0  0  0  0  0  0  0  0  0  0  0
   57.9281   28.3206   42.4335 H   0  0  0  0  0  0  0  0  0  0  0  0
   60.4451   29.1975   46.5803 H   0  0  0  0  0  0  0  0  0  0  0  0
   60.0770   28.3695   45.0293 H   0  0  0  0  0  0  0  0  0  0  0  0
   61.0181   29.8995   45.0293 H   0  0  0  0  0  0  0  0  0  0  0  0
   60.9685   31.8660   48.0969 H   0  0  0  0  0  0  0  0  0  0  0  0
   61.2817   30.8068   46.6803 H   0  0  0  0  0  0  0  0  0  0  0  0
   61.8702   32.5040   46.6803 H   0  0  0  0  0  0  0  0  0  0  0  0
   59.9704   34.4219   46.9560 H   0  0  0  0  0  0  0  0  0  0  0  0
  1  2  1  0
  2  3  1  0
  3  4  2  0
  4  5  1  0
  5  6  2  0
  6  7  1  0
  7  8  2  0
  8  9  1  0
  9 10  2  0
 10 11  1  0
 10 12  1  0
 12 13  1  0
 13 14  1  0
 13 15  2  0
 15 16  1  0
 16 17  1  0
 17 18  2  0
 18 19  1  0
 19 20  2  0
  8  3  1  0
 19  9  1  0
 17 12  1  0
  1 21  1  0
  1 22  1  0
  1 23  1  0
  4 24  1  0
  5 25  1  0
  6 26  1  0
  7 27  1  0
 11 28  1  0
 11 29  1  0
 11 30  1  0
 14 31  1  0
 14 32  1  0
 14 33  1  0
 15 34  1  0
M  END
>  <UniqueID>  (35) 
32

>  <SMILES>  (35) 
COc1ccccc1-c1c(C)n2c(C)csc2nc1=O

>  <Energy>  (35) 
86.99236376918101

>  <Genealogy>  (35) 
COc1ccccc1-c1c(C)n2c(C)csc2nc1=O (3D coordinates assigned)
COc1ccccc1-c1c(C)n2c(C)csc2nc1=O (optimized conformer: 86.99236376918101 kcal/mol)

>  <smiles>  (35) 
COc1ccccc1-c1c(C)n2c(C)csc2nc1=O

>  <score_type>  (35) 
oracle

>  <origin>  (35) 
adg

>  <m_score__min__energy>  (35) 
-7.0599999999999996

>  <m_primary>  (35) 
energy

$$$$
36:0
     RDKit          3D

 15 16  0  0  0  0  0  0  0  0999 V2000
   54.9210   26.3400   45.9840 O   0  0  0  0  0  0  0  0  0  0  0  0
   56.2450   26.7280   45.7960 C   0  0  0  0  0  0  0  0  0  0  0  0
   57.3260   25.9070   46.1150 C   0  0  0  0  0  0  0  0  0  0  0  0
   58.7600   26.7290   45.7450 S   0  0  0  0  0  0  0  0  0  0  0  0
   58.0050   28.1190   45.1840 C   0  0  0  0  0  0  0  0  0  0  0  0
   58.5690   29.2890   44.6870 C   0  0  0  0  0  0  0  0  0  0  0  0
   57.6980   30.3120   44.2820 C   0  0  0  0  0  0  0  0  0  0  0  0
   56.3050   30.1260   44.3860 C   0  0  0  0  0  0  0  0  0  0  0  0
   55.7960   28.9590   44.8800 N   0  0  0  0  0  0  0  0  0  0  0  0
   56.6350   27.9650   45.2750 C   0  0  0  0  0  0  0  0  0  0  0  0
   54.3640   26.7200   46.7400 H   0  0  0  0  0  0  0  0  0  0  0  0
   57.2586   24.8934   46.5370 H   0  0  0  0  0  0  0  0  0  0  0  0
   59.6601   29.4084   44.6139 H   0  0  0  0  0  0  0  0  0  0  0  0
   58.1010   31.2554   43.8849 H   0  0  0  0  0  0  0  0  0  0  0  0
   55.6222   30.9272   44.0667 H   0  0  0  0  0  0  0  0  0  0  0  0
  1  2  1  0
  2  3  2  0
  3  4  1  0
  4  5  1  0
  5  6  2  0
  6  7  1  0
  7  8  2  0
  8  9  1  0
  9 10  2  0
 10  2  1  0
 10  5  1  0
  1 11  1  0
  3 12  1  0
  6 13  1  0
  7 14  1  0
  8 15  1  0
M  END
>  <UniqueID>  (36) 
33

>  <SMILES>  (36) 
Oc1csc2cccnc12

>  <Energy>  (36) 
47.92561018359697

>  <Genealogy>  (36) 
Oc1csc2cccnc12 (3D coordinates assigned)
Oc1csc2cccnc12 (optimized conformer: 47.92561018359697 kcal/mol)

>  <smiles>  (36) 
Oc1csc2cccnc12

>  <score_type>  (36) 
oracle

>  <origin>  (36) 
adg

>  <m_score__min__energy>  (36) 
-5.9900000000000002

>  <m_primary>  (36) 
energy

$$$$
37:0
     RDKit          3D

 36 39  0  0  0  0  0  0  0  0999 V2000
   56.7650   30.4190   42.7210 C   0  0  0  0  0  0  0  0  0  0  0  0
   57.1320   30.0500   44.1570 C   0  0  1  0  0  0  0  0  0  0  0  0
   57.7310   31.2290   44.8950 C   0  0  0  0  0  0  0  0  0  0  0  0
   59.0510   31.1730   45.3790 C   0  0  0  0  0  0  0  0  0  0  0  0
   59.6170   32.2780   46.0210 C   0  0  0  0  0  0  0  0  0  0  0  0
   58.8790   33.4550   46.1740 C   0  0  0  0  0  0  0  0  0  0  0  0
   59.6560   34.9640   47.0500 Br  0  0  0  0  0  0  0  0  0  0  0  0
   57.5760   33.5300   45.6740 C   0  0  0  0  0  0  0  0  0  0  0  0
   57.0060   32.4270   45.0310 C   0  0  0  0  0  0  0  0  0  0  0  0
   55.9930   29.5380   44.8450 O   0  0  0  0  0  0  0  0  0  0  0  0
   56.1920   28.2360   45.2340 N   0  0  0  0  0  0  0  0  0  0  0  0
   57.3710   27.8990   44.8370 C   0  0  0  0  0  0  0  0  0  0  0  0
   57.9660   26.5690   45.0650 C   0  0  0  0  0  0  0  0  0  0  0  0
   59.1030   26.4400   45.9000 C   0  0  0  0  0  0  0  0  0  0  0  0
   59.6810   25.1800   46.1260 C   0  0  0  0  0  0  0  0  0  0  0  0
   59.1090   24.0700   45.5110 C   0  0  0  0  0  0  0  0  0  0  0  0
   58.0140   24.1810   44.7050 C   0  0  0  0  0  0  0  0  0  0  0  0
   57.4160   25.4170   44.4600 C   0  0  0  0  0  0  0  0  0  0  0  0
   57.6260   22.8420   44.1920 C   0  0  0  0  0  0  0  0  0  0  0  0
   58.6850   21.9130   44.8360 C   0  0  0  0  0  0  0  0  0  0  0  0
   59.5290   22.7630   45.6120 O   0  0  0  0  0  0  0  0  0  0  0  0
   58.0150   28.9330   44.1720 O   0  0  0  0  0  0  0  0  0  0  0  0
   55.9893   31.1989   42.7296 H   0  0  0  0  0  0  0  0  0  0  0  0
   57.6575   30.7953   42.1996 H   0  0  0  0  0  0  0  0  0  0  0  0
   56.3839   29.5286   42.1996 H   0  0  0  0  0  0  0  0  0  0  0  0
   59.6413   30.2536   45.2513 H   0  0  0  0  0  0  0  0  0  0  0  0
   60.6456   32.2212   46.4067 H   0  0  0  0  0  0  0  0  0  0  0  0
   56.9976   34.4589   45.7866 H   0  0  0  0  0  0  0  0  0  0  0  0
   55.9844   32.4963   44.6290 H   0  0  0  0  0  0  0  0  0  0  0  0
   59.5362   27.3328   46.3747 H   0  0  0  0  0  0  0  0  0  0  0  0
   60.5640   25.0730   46.7731 H   0  0  0  0  0  0  0  0  0  0  0  0
   56.5332   25.4933   43.8083 H   0  0  0  0  0  0  0  0  0  0  0  0
   56.6105   22.5714   44.5168 H   0  0  0  0  0  0  0  0  0  0  0  0
   57.6035   22.7841   43.0938 H   0  0  0  0  0  0  0  0  0  0  0  0
   58.1980   21.1659   45.4799 H   0  0  0  0  0  0  0  0  0  0  0  0
   59.2563   21.3620   44.0744 H   0  0  0  0  0  0  0  0  0  0  0  0
  2  1  1  6
  2  3  1  0
  3  4  2  0
  4  5  1  0
  5  6  2  0
  6  7  1  0
  6  8  1  0
  8  9  2  0
  2 10  1  0
 10 11  1  0
 11 12  2  0
 12 13  1  0
 13 14  2  0
 14 15  1  0
 15 16  2  0
 16 17  1  0
 17 18  2  0
 17 19  1  0
 19 20  1  0
 20 21  1  0
 12 22  1  0
 22  2  1  0
  9  3  1  0
 18 13  1  0
 21 16  1  0
  1 23  1  0
  1 24  1  0
  1 25  1  0
  4 26  1  0
  5 27  1  0
  8 28  1  0
  9 29  1  0
 14 30  1  0
 15 31  1  0
 18 32  1  0
 19 33  1  0
 19 34  1  0
 20 35  1  0
 20 36  1  0
M  END
>  <UniqueID>  (37) 
34

>  <SMILES>  (37) 
C[C@@]1(c2ccc(Br)cc2)ON=C(c2ccc3c(c2)CCO3)O1

>  <Energy>  (37) 
77.22634156103601

>  <Genealogy>  (37) 
C[C@@]1(c2ccc(Br)cc2)ON=C(c2ccc3c(c2)CCO3)O1 (chirality)
C[C@@]1(c2ccc(Br)cc2)ON=C(c2ccc3c(c2)CCO3)O1 (3D coordinates assigned)
C[C@@]1(c2ccc(Br)cc2)ON=C(c2ccc3c(c2)CCO3)O1 (nonaromatic ring conformer: 77.22634156103601 kcal/mol)

>  <smiles>  (37) 
CC1(c2ccc(Br)cc2)ON=C(c2ccc3c(c2)CCO3)O1

>  <score_type>  (37) 
oracle

>  <origin>  (37) 
adg

>  <m_score__min__energy>  (37) 
-8.5

>  <m_primary>  (37) 
energy

$$$$
38:0
     RDKit          3D

 30 32  0  0  0  0  0  0  0  0999 V2000
   62.6350   33.8320   46.8370 C   0  0  0  0  0  0  0  0  0  0  0  0
   61.4630   34.1240   47.7660 C   0  0  0  0  0  0  0  0  0  0  0  0
   60.2030   33.7710   47.1180 N   0  0  0  0  0  0  0  0  0  0  0  0
   59.1760   34.6030   46.8150 C   0  0  0  0  0  0  0  0  0  0  0  0
   58.2020   33.8840   46.1300 C   0  0  0  0  0  0  0  0  0  0  0  0
   58.6450   32.6180   46.0060 N   0  0  0  0  0  0  0  0  0  0  0  0
   58.0970   31.5300   45.4150 C   0  0  0  0  0  0  0  0  0  0  0  0
   56.9620   31.6050   44.8710 O   0  0  0  0  0  0  0  0  0  0  0  0
   58.8440   30.3280   45.4410 C   0  0  0  0  0  0  0  0  0  0  0  0
   58.3840   29.0550   44.8410 C   0  0  0  0  0  0  0  0  0  0  0  0
   58.5740   27.7580   45.3010 C   0  0  0  0  0  0  0  0  0  0  0  0
   57.9380   26.9770   44.3580 C   0  0  0  0  0  0  0  0  0  0  0  0
   57.7690   25.4940   44.4090 C   0  0  0  0  0  0  0  0  0  0  0  0
   57.3970   27.7720   43.4220 N   0  0  0  0  0  0  0  0  0  0  0  0
   57.6810   29.0030   43.7300 O   0  0  0  0  0  0  0  0  0  0  0  0
   60.0660   30.3400   46.0610 N   0  0  0  0  0  0  0  0  0  0  0  0
   60.5670   31.4420   46.6320 N   0  0  0  0  0  0  0  0  0  0  0  0
   59.8410   32.5830   46.6000 C   0  0  0  0  0  0  0  0  0  0  0  0
   63.5305   33.6089   47.4355 H   0  0  0  0  0  0  0  0  0  0  0  0
   62.3931   32.9667   46.2024 H   0  0  0  0  0  0  0  0  0  0  0  0
   62.8274   34.7097   46.2024 H   0  0  0  0  0  0  0  0  0  0  0  0
   61.5748   33.5342   48.6877 H   0  0  0  0  0  0  0  0  0  0  0  0
   61.4543   35.1978   48.0047 H   0  0  0  0  0  0  0  0  0  0  0  0
   59.1220   35.6718   47.0693 H   0  0  0  0  0  0  0  0  0  0  0  0
   57.2447   34.2775   45.7575 H   0  0  0  0  0  0  0  0  0  0  0  0
   59.1070   27.4302   46.2057 H   0  0  0  0  0  0  0  0  0  0  0  0
   57.7315   25.1651   45.4580 H   0  0  0  0  0  0  0  0  0  0  0  0
   56.8331   25.2140   43.9033 H   0  0  0  0  0  0  0  0  0  0  0  0
   58.6179   25.0106   43.9033 H   0  0  0  0  0  0  0  0  0  0  0  0
   56.8350   27.4780   42.5930 H   0  0  0  0  0  0  0  0  0  0  0  0
  1  2  1  0
  2  3  1  0
  3  4  1  0
  4  5  2  0
  5  6  1  0
  6  7  1  0
  7  8  2  0
  7  9  1  0
  9 10  1  0
 10 11  2  0
 11 12  1  0
 12 13  1  0
 12 14  2  0
 14 15  1  0
  9 16  2  0
 16 17  1  0
 17 18  2  0
 18  3  1  0
 18  6  1  0
 15 10  1  0
  1 19  1  0
  1 20  1  0
  1 21  1  0
  2 22  1  0
  2 23  1  0
  4 24  1  0
  5 25  1  0
 11 26  1  0
 13 27  1  0
 13 28  1  0
 13 29  1  0
 14 30  1  0
M  CHG  1  14   1
M  END
>  <UniqueID>  (38) 
35

>  <SMILES>  (38) 
CCn1ccn2c(=O)c(-c3cc(C)[nH+]o3)nnc12

>  <Energy>  (38) 
100.8216480014307

>  <Genealogy>  (38) 
CCn1ccn2c(=O)c(-c3cc(C)[nH+]o3)nnc12 (protonated)
CCn1ccn2c(=O)c(-c3cc(C)[nH+]o3)nnc12 (3D coordinates assigned)
CCn1ccn2c(=O)c(-c3cc(C)[nH+]o3)nnc12 (optimized conformer: 100.8216480014307 kcal/mol)

>  <smiles>  (38) 
CCn1ccn2c(=O)c(-c3cc(C)no3)nnc12

>  <score_type>  (38) 
oracle

>  <origin>  (38) 
adg

>  <m_score__min__energy>  (38) 
-4.9900000000000002

>  <m_primary>  (38) 
energy

$$$$
39:0
     RDKit          3D

 31 32  0  0  0  0  0  0  0  0999 V2000
   56.2730   29.8700   42.6550 C   0  0  0  0  0  0  0  0  0  0  0  0
   56.0210   29.9940   44.4520 S   0  0  0  0  0  0  0  0  0  0  0  0
   57.6790   29.4200   44.8490 C   0  0  0  0  0  0  0  0  0  0  0  0
   57.9930   28.0720   44.6520 C   0  0  0  0  0  0  0  0  0  0  0  0
   59.2810   27.6080   44.9150 C   0  0  0  0  0  0  0  0  0  0  0  0
   60.2470   28.5020   45.3760 C   0  0  0  0  0  0  0  0  0  0  0  0
   59.9330   29.8110   45.5690 N   0  0  0  0  0  0  0  0  0  0  0  0
   58.6780   30.2930   45.3290 C   0  0  0  0  0  0  0  0  0  0  0  0
   58.4000   31.6850   45.5540 N   0  0  0  0  0  0  0  0  0  0  0  0
   58.5150   32.2550   46.9030 C   0  0  0  0  0  0  0  0  0  0  0  0
   59.2310   33.6060   46.8340 C   0  0  0  0  0  0  0  0  0  0  0  0
   58.5470   34.5900   45.8580 C   0  0  0  0  0  0  0  0  0  0  0  0
   57.5810   33.9180   44.8670 C   0  0  0  0  0  0  0  0  0  0  0  0
   58.0980   32.5510   44.4060 C   0  0  0  0  0  0  0  0  0  0  0  0
   57.2432   29.3926   42.4529 H   0  0  0  0  0  0  0  0  0  0  0  0
   55.4676   29.2653   42.2127 H   0  0  0  0  0  0  0  0  0  0  0  0
   56.2606   30.8771   42.2127 H   0  0  0  0  0  0  0  0  0  0  0  0
   57.2223   27.3762   44.2888 H   0  0  0  0  0  0  0  0  0  0  0  0
   59.5326   26.5484   44.7606 H   0  0  0  0  0  0  0  0  0  0  0  0
   61.2670   28.1469   45.5843 H   0  0  0  0  0  0  0  0  0  0  0  0
   60.6740   30.4530   45.9280 H   0  0  0  0  0  0  0  0  0  0  0  0
   57.5099   32.3953   47.3274 H   0  0  0  0  0  0  0  0  0  0  0  0
   59.0929   31.5690   47.5398 H   0  0  0  0  0  0  0  0  0  0  0  0
   59.2375   34.0534   47.8389 H   0  0  0  0  0  0  0  0  0  0  0  0
   60.2513   33.4247   46.4650 H   0  0  0  0  0  0  0  0  0  0  0  0
   57.9807   35.3253   46.4484 H   0  0  0  0  0  0  0  0  0  0  0  0
   59.3461   35.0522   45.2599 H   0  0  0  0  0  0  0  0  0  0  0  0
   56.6054   33.7829   45.3569 H   0  0  0  0  0  0  0  0  0  0  0  0
   57.4931   34.5662   43.9826 H   0  0  0  0  0  0  0  0  0  0  0  0
   57.3304   32.0678   43.7836 H   0  0  0  0  0  0  0  0  0  0  0  0
   59.0229   32.7033   43.8304 H   0  0  0  0  0  0  0  0  0  0  0  0
  1  2  1  0
  2  3  1  0
  3  4  2  0
  4  5  1  0
  5  6  2  0
  6  7  1  0
  7  8  2  0
  8  9  1  0
  9 10  1  0
 10 11  1  0
 11 12  1  0
 12 13  1  0
 13 14  1  0
  8  3  1  0
 14  9  1  0
  1 15  1  0
  1 16  1  0
  1 17  1  0
  4 18  1  0
  5 19  1  0
  6 20  1  0
  7 21  1  0
 10 22  1  0
 10 23  1  0
 11 24  1  0
 11 25  1  0
 12 26  1  0
 12 27  1  0
 13 28  1  0
 13 29  1  0
 14 30  1  0
 14 31  1  0
M  CHG  1   7   1
M  END
>  <UniqueID>  (39) 
36

>  <SMILES>  (39) 
CSc1ccc[nH+]c1N1CCCCC1

>  <Energy>  (39) 
31.509148172054697

>  <Genealogy>  (39) 
CSc1ccc[nH+]c1N1CCCCC1 (protonated)
CSc1ccc[nH+]c1N1CCCCC1 (3D coordinates assigned)
CSc1ccc[nH+]c1N1CCCCC1 (nonaromatic ring conformer: 31.509148172054697 kcal/mol)

>  <smiles>  (39) 
CSc1cccnc1N1CCCCC1

>  <score_type>  (39) 
oracle

>  <origin>  (39) 
adg

>  <m_score__min__energy>  (39) 
-4.1900000000000004

>  <m_primary>  (39) 
energy

$$$$
40:0
     RDKit          3D

 32 31  0  0  0  0  0  0  0  0999 V2000
   58.9320   34.2590   47.1740 C   0  0  0  0  0  0  0  0  0  0  0  0
   57.8050   33.6390   46.8300 C   0  0  0  0  0  0  0  0  0  0  0  0
   57.5300   33.2030   45.4480 C   0  0  0  0  0  0  0  0  0  0  0  0
   57.5750   34.0310   44.4970 O   0  0  0  0  0  0  0  0  0  0  0  0
   57.2090   31.8290   45.1910 N   0  0  0  0  0  0  0  0  0  0  0  0
   57.0170   31.3000   43.8410 C   0  0  0  0  0  0  0  0  0  0  0  0
   56.2350   29.9740   43.8520 C   0  0  0  0  0  0  0  0  0  0  0  0
   56.1180   29.3760   45.1930 N   0  0  0  0  0  0  0  0  0  0  0  0
   56.8680   28.1190   45.3280 C   0  0  0  0  0  0  0  0  0  0  0  0
   57.9630   28.2860   46.3880 C   0  0  0  0  0  0  0  0  0  0  0  0
   58.5230   29.6560   46.3540 N   0  0  0  0  0  0  0  0  0  0  0  0
   58.8990   30.0830   47.7120 C   0  0  0  0  0  0  0  0  0  0  0  0
   59.7050   29.7240   45.4770 C   0  0  0  0  0  0  0  0  0  0  0  0
   59.0942   34.5663   48.2177 H   0  0  0  0  0  0  0  0  0  0  0  0
   59.7009   34.4639   46.4145 H   0  0  0  0  0  0  0  0  0  0  0  0
   57.0502   33.4445   47.6061 H   0  0  0  0  0  0  0  0  0  0  0  0
   57.0470   31.1870   46.0000 H   0  0  0  0  0  0  0  0  0  0  0  0
   56.4588   32.0376   43.2457 H   0  0  0  0  0  0  0  0  0  0  0  0
   58.0085   31.1084   43.4048 H   0  0  0  0  0  0  0  0  0  0  0  0
   55.2229   30.1627   43.4647 H   0  0  0  0  0  0  0  0  0  0  0  0
   56.7932   29.2622   43.2262 H   0  0  0  0  0  0  0  0  0  0  0  0
   56.4500   30.0570   45.9170 H   0  0  0  0  0  0  0  0  0  0  0  0
   56.1826   27.3145   45.6330 H   0  0  0  0  0  0  0  0  0  0  0  0
   57.3293   27.8629   44.3628 H   0  0  0  0  0  0  0  0  0  0  0  0
   57.5338   28.0964   47.3829 H   0  0  0  0  0  0  0  0  0  0  0  0
   58.7706   27.5696   46.1766 H   0  0  0  0  0  0  0  0  0  0  0  0
   58.3605   29.4715   48.4509 H   0  0  0  0  0  0  0  0  0  0  0  0
   59.9828   29.9547   47.8498 H   0  0  0  0  0  0  0  0  0  0  0  0
   58.6346   31.1418   47.8498 H   0  0  0  0  0  0  0  0  0  0  0  0
   60.6154   29.7764   46.0921 H   0  0  0  0  0  0  0  0  0  0  0  0
   59.7426   28.8265   44.8421 H   0  0  0  0  0  0  0  0  0  0  0  0
   59.6394   30.6199   44.8421 H   0  0  0  0  0  0  0  0  0  0  0  0
  1  2  2  0
  2  3  1  0
  3  4  2  0
  3  5  1  0
  5  6  1  0
  6  7  1  0
  7  8  1  0
  8  9  1  0
  9 10  1  0
 10 11  1  0
 11 12  1  0
 11 13  1  0
  1 14  1  0
  1 15  1  0
  2 16  1  0
  5 17  1  0
  6 18  1  0
  6 19  1  0
  7 20  1  0
  7 21  1  0
  8 22  1  0
  9 23  1  0
  9 24  1  0
 10 25  1  0
 10 26  1  0
 12 27  1  0
 12 28  1  0
 12 29  1  0
 13 30  1  0
 13 31  1  0
 13 32  1  0
M  END
>  <UniqueID>  (40) 
37

>  <SMILES>  (40) 
C=CC(=O)NCCNCCN(C)C

>  <Energy>  (40) 
21.089905438382537

>  <Genealogy>  (40) 
C=CC(=O)NCCNCCN(C)C (3D coordinates assigned)
C=CC(=O)NCCNCCN(C)C (optimized conformer: 21.089905438382537 kcal/mol)

>  <smiles>  (40) 
C=CC(=O)NCCNCCN(C)C

>  <score_type>  (40) 
oracle

>  <origin>  (40) 
adg

>  <m_score__min__energy>  (40) 
-4.1100000000000003

>  <m_primary>  (40) 
energy

$$$$
41:0
     RDKit          3D

 41 43  0  0  0  0  0  0  0  0999 V2000
   54.6510   30.2680   44.9430 H   0  0  0  0  0  0  0  0  0  0  0  0
   55.1320   29.4100   44.5940 N   0  0  0  0  0  0  0  0  0  0  0  0
   56.3640   29.1570   44.9030 C   0  0  0  0  0  0  0  0  0  0  0  0
   56.7060   28.1570   45.7540 N   0  0  0  0  0  0  0  0  0  0  0  0
   58.0480   28.1820   45.7110 C   0  0  0  0  0  0  0  0  0  0  0  0
   58.9260   27.3230   46.3670 C   0  0  0  0  0  0  0  0  0  0  0  0
   58.5556   26.5508   47.0573 H   0  0  0  0  0  0  0  0  0  0  0  0
   60.3020   27.4750   46.1180 C   0  0  0  0  0  0  0  0  0  0  0  0
   61.0255   26.8237   46.6302 H   0  0  0  0  0  0  0  0  0  0  0  0
   60.7600   28.4580   45.2150 C   0  0  0  0  0  0  0  0  0  0  0  0
   61.8378   28.5613   45.0209 H   0  0  0  0  0  0  0  0  0  0  0  0
   59.8480   29.3070   44.5610 C   0  0  0  0  0  0  0  0  0  0  0  0
   60.1928   30.0640   43.8413 H   0  0  0  0  0  0  0  0  0  0  0  0
   58.4870   29.1570   44.8560 C   0  0  0  0  0  0  0  0  0  0  0  0
   57.4230   29.8250   44.3650 N   0  0  0  0  0  0  0  0  0  0  0  0
   57.4020   30.8650   43.3240 C   0  0  0  0  0  0  0  0  0  0  0  0
   58.0982   30.5732   42.5239 H   0  0  0  0  0  0  0  0  0  0  0  0
   56.3665   30.9443   42.9614 H   0  0  0  0  0  0  0  0  0  0  0  0
   57.8140   32.2610   43.8500 C   0  0  0  0  0  0  0  0  0  0  0  0
   58.8782   32.2155   44.1245 H   0  0  0  0  0  0  0  0  0  0  0  0
   57.5864   32.9621   43.0335 H   0  0  0  0  0  0  0  0  0  0  0  0
   57.0290   32.7890   45.0820 C   0  0  0  0  0  0  0  0  0  0  0  0
   56.3053   33.5338   44.7193 H   0  0  0  0  0  0  0  0  0  0  0  0
   56.5849   31.8935   45.5411 H   0  0  0  0  0  0  0  0  0  0  0  0
   57.8220   33.4270   46.1710 N   0  0  0  0  0  0  0  0  0  0  0  0
   57.1100   33.8350   46.8270 H   0  0  0  0  0  0  0  0  0  0  0  0
   58.6130   32.4700   46.9780 C   0  0  0  0  0  0  0  0  0  0  0  0
   57.9674   31.6286   47.2699 H   0  0  0  0  0  0  0  0  0  0  0  0
   59.4590   32.1193   46.3687 H   0  0  0  0  0  0  0  0  0  0  0  0
   59.1740   33.1370   48.2500 C   0  0  0  0  0  0  0  0  0  0  0  0
   58.4135   33.0784   49.0426 H   0  0  0  0  0  0  0  0  0  0  0  0
   60.0937   32.6013   48.5279 H   0  0  0  0  0  0  0  0  0  0  0  0
   59.5450   34.6150   48.0320 C   0  0  0  0  0  0  0  0  0  0  0  0
   58.7049   35.2463   48.3569 H   0  0  0  0  0  0  0  0  0  0  0  0
   60.4490   34.8347   48.6190 H   0  0  0  0  0  0  0  0  0  0  0  0
   59.8450   34.9050   46.5610 C   0  0  0  0  0  0  0  0  0  0  0  0
   60.0956   35.9701   46.4477 H   0  0  0  0  0  0  0  0  0  0  0  0
   60.6896   34.2757   46.2438 H   0  0  0  0  0  0  0  0  0  0  0  0
   58.6250   34.5760   45.6750 C   0  0  0  0  0  0  0  0  0  0  0  0
   57.9753   35.4627   45.6345 H   0  0  0  0  0  0  0  0  0  0  0  0
   59.0119   34.2955   44.6842 H   0  0  0  0  0  0  0  0  0  0  0  0
  1  2  1  0
  2  3  2  0
  3  4  1  0
  4  5  1  0
  5  6  2  0
  6  7  1  0
  6  8  1  0
  8  9  1  0
  8 10  2  0
 10 11  1  0
 10 12  1  0
 12 13  1  0
 12 14  2  0
 14 15  1  0
 15 16  1  0
 16 17  1  0
 16 18  1  0
 16 19  1  0
 19 20  1  0
 19 21  1  0
 19 22  1  0
 22 23  1  0
 22 24  1  0
 22 25  1  0
 25 26  1  0
 25 27  1  0
 27 28  1  0
 27 29  1  0
 27 30  1  0
 30 31  1  0
 30 32  1  0
 30 33  1  0
 33 34  1  0
 33 35  1  0
 33 36  1  0
 36 37  1  0
 36 38  1  0
 36 39  1  0
 39 40  1  0
 39 41  1  0
 15  3  1  0
 39 25  1  0
 14  5  1  0
M  CHG  2   4  -1  25   1
M  END
>  <UniqueID>  (41) 
38

>  <SMILES>  (41) 
[H]/N=c1\[n-]c2ccccc2n1CCC[NH+]1CCCCC1

>  <Energy>  (41) 
92.34427469250501

>  <Genealogy>  (41) 
N=c1[n-]c2ccccc2n1CCC[NH+]1CCCCC1 (protonated)
[H]/N=c1\[n-]c2ccccc2n1CCC[NH+]1CCCCC1 (cis-trans isomerization)
[H]/N=c1\[n-]c2ccccc2n1CCC[NH+]1CCCCC1 (3D coordinates assigned)
[H]/N=c1\[n-]c2ccccc2n1CCC[NH+]1CCCCC1 (nonaromatic ring conformer: 92.34427469250501 kcal/mol)

>  <smiles>  (41) 
N=c1[nH]c2ccccc2n1CCCN1CCCCC1

>  <score_type>  (41) 
oracle

>  <origin>  (41) 
adg

>  <m_score__min__energy>  (41) 
-7.5

>  <m_primary>  (41) 
energy

$$$$
42:0
     RDKit          3D

 30 33  0  0  0  0  0  0  0  0999 V2000
   60.3600   30.5310   46.2020 C   0  0  0  0  0  0  0  0  0  0  0  0
   59.1350   29.7000   45.9960 C   0  0  0  0  0  0  0  0  0  0  0  0
   59.0300   28.3560   46.3980 C   0  0  0  0  0  0  0  0  0  0  0  0
   57.4630   27.7680   46.0340 S   0  0  0  0  0  0  0  0  0  0  0  0
   57.0200   29.2510   45.3970 C   0  0  0  0  0  0  0  0  0  0  0  0
   55.8870   29.7000   44.8380 N   0  0  0  0  0  0  0  0  0  0  0  0
   56.1510   30.9630   44.5010 N   0  0  0  0  0  0  0  0  0  0  0  0
   57.4300   31.2360   44.8700 C   0  0  0  0  0  0  0  0  0  0  0  0
   58.1130   32.5370   44.5760 C   0  0  0  0  0  0  0  0  0  0  0  0
   57.6420   33.7980   45.8120 S   0  0  0  0  0  0  0  0  0  0  0  0
   59.2230   33.7870   46.6520 C   0  0  0  0  0  0  0  0  0  0  0  0
   60.4090   33.7700   45.9990 N   0  0  0  0  0  0  0  0  0  0  0  0
   61.4430   33.7790   46.8800 C   0  0  0  0  0  0  0  0  0  0  0  0
   62.7900   33.7820   46.5140 C   0  0  0  0  0  0  0  0  0  0  0  0
   63.7630   33.8050   47.5280 C   0  0  0  0  0  0  0  0  0  0  0  0
   63.3820   33.8260   48.8850 C   0  0  0  0  0  0  0  0  0  0  0  0
   62.0240   33.8220   49.2400 C   0  0  0  0  0  0  0  0  0  0  0  0
   61.0790   33.7990   48.2180 C   0  0  0  0  0  0  0  0  0  0  0  0
   59.4050   33.7980   48.3360 S   0  0  0  0  0  0  0  0  0  0  0  0
   57.9820   30.1480   45.4390 N   0  0  0  0  0  0  0  0  0  0  0  0
   60.5422   30.6546   47.2797 H   0  0  0  0  0  0  0  0  0  0  0  0
   61.2239   30.0317   45.7389 H   0  0  0  0  0  0  0  0  0  0  0  0
   60.2155   31.5183   45.7389 H   0  0  0  0  0  0  0  0  0  0  0  0
   59.8318   27.7719   46.8735 H   0  0  0  0  0  0  0  0  0  0  0  0
   59.2026   32.3892   44.6063 H   0  0  0  0  0  0  0  0  0  0  0  0
   57.8059   32.8835   43.5782 H   0  0  0  0  0  0  0  0  0  0  0  0
   63.0839   33.7667   45.4541 H   0  0  0  0  0  0  0  0  0  0  0  0
   64.8300   33.8066   47.2606 H   0  0  0  0  0  0  0  0  0  0  0  0
   64.1527   33.8456   49.6696 H   0  0  0  0  0  0  0  0  0  0  0  0
   61.7153   33.8366   50.2957 H   0  0  0  0  0  0  0  0  0  0  0  0
  1  2  1  0
  2  3  2  0
  3  4  1  0
  4  5  1  0
  5  6  2  0
  6  7  1  0
  7  8  2  0
  8  9  1  0
  9 10  1  0
 10 11  1  0
 11 12  2  0
 12 13  1  0
 13 14  2  0
 14 15  1  0
 15 16  2  0
 16 17  1  0
 17 18  2  0
 18 19  1  0
  8 20  1  0
 20  2  1  0
 20  5  1  0
 19 11  1  0
 18 13  1  0
  1 21  1  0
  1 22  1  0
  1 23  1  0
  3 24  1  0
  9 25  1  0
  9 26  1  0
 14 27  1  0
 15 28  1  0
 16 29  1  0
 17 30  1  0
M  END
>  <UniqueID>  (42) 
39

>  <SMILES>  (42) 
Cc1csc2nnc(CSc3nc4ccccc4s3)n12

>  <Energy>  (42) 
148.0853934250896

>  <Genealogy>  (42) 
Cc1csc2nnc(CSc3nc4ccccc4s3)n12 (3D coordinates assigned)
Cc1csc2nnc(CSc3nc4ccccc4s3)n12 (optimized conformer: 148.0853934250896 kcal/mol)

>  <smiles>  (42) 
Cc1csc2nnc(CSc3nc4ccccc4s3)n12

>  <score_type>  (42) 
oracle

>  <origin>  (42) 
adg

>  <m_score__min__energy>  (42) 
-8.1999999999999993

>  <m_primary>  (42) 
energy

$$$$
43:0
     RDKit          3D

 14 14  0  0  0  0  0  0  0  0999 V2000
   58.8650   34.2290   44.9140 C   0  0  0  0  0  0  0  0  0  0  0  0
   57.8860   33.1350   45.9890 S   0  0  0  0  0  0  0  0  0  0  0  0
   57.4000   32.0540   44.6460 C   0  0  0  0  0  0  0  0  0  0  0  0
   57.7770   32.3400   43.3310 C   0  0  0  0  0  0  0  0  0  0  0  0
   57.3920   31.5040   42.3290 N   0  0  0  0  0  0  0  0  0  0  0  0
   56.6460   30.3970   42.5860 C   0  0  0  0  0  0  0  0  0  0  0  0
   56.2680   30.1130   43.9000 C   0  0  0  0  0  0  0  0  0  0  0  0
   56.6520   30.9480   44.9010 N   0  0  0  0  0  0  0  0  0  0  0  0
   59.4709   34.9060   45.5341 H   0  0  0  0  0  0  0  0  0  0  0  0
   59.5273   33.6222   44.2790 H   0  0  0  0  0  0  0  0  0  0  0  0
   58.1887   34.8201   44.2790 H   0  0  0  0  0  0  0  0  0  0  0  0
   58.3795   33.2329   43.1081 H   0  0  0  0  0  0  0  0  0  0  0  0
   56.3425   29.7302   41.7654 H   0  0  0  0  0  0  0  0  0  0  0  0
   55.6644   29.2208   44.1229 H   0  0  0  0  0  0  0  0  0  0  0  0
  1  2  1  0
  2  3  1  0
  3  4  2  0
  4  5  1  0
  5  6  2  0
  6  7  1  0
  7  8  2  0
  8  3  1  0
  1  9  1  0
  1 10  1  0
  1 11  1  0
  4 12  1  0
  6 13  1  0
  7 14  1  0
M  END
>  <UniqueID>  (43) 
40

>  <SMILES>  (43) 
CSc1cnccn1

>  <Energy>  (43) 
10.314713276686003

>  <Genealogy>  (43) 
CSc1cnccn1 (3D coordinates assigned)
CSc1cnccn1 (optimized conformer: 10.314713276686003 kcal/mol)

>  <smiles>  (43) 
CSc1cnccn1

>  <score_type>  (43) 
oracle

>  <origin>  (43) 
adg

>  <m_score__min__energy>  (43) 
-3.9300000000000002

>  <m_primary>  (43) 
energy

$$$$
44:0
     RDKit          3D

 66 69  0  0  0  0  0  0  0  0999 V2000
   67.2380   29.6190   51.6390 C   0  0  0  0  0  0  0  0  0  0  0  0
   66.7510   30.9510   51.7580 O   0  0  0  0  0  0  0  0  0  0  0  0
   65.7130   31.4860   50.9790 C   0  0  0  0  0  0  0  0  0  0  0  0
   64.4550   30.8860   51.0470 C   0  0  0  0  0  0  0  0  0  0  0  0
   63.3850   31.3800   50.2960 C   0  0  0  0  0  0  0  0  0  0  0  0
   63.5450   32.4960   49.4410 C   0  0  0  0  0  0  0  0  0  0  0  0
   62.4310   33.0050   48.6380 N   0  0  0  0  0  0  0  0  0  0  0  0
   61.1340   33.2620   49.3050 C   0  0  0  0  0  0  0  0  0  0  0  0
   60.0070   33.7740   48.3890 C   0  0  0  0  0  0  0  0  0  0  0  0
   60.1140   33.3120   46.9960 N   0  0  0  0  0  0  0  0  0  0  0  0
   59.8410   31.8900   46.8430 C   0  0  0  0  0  0  0  0  0  0  0  0
   60.6510   31.1530   46.3010 O   0  0  0  0  0  0  0  0  0  0  0  0
   58.5730   31.2810   47.3880 C   0  0  0  0  0  0  0  0  0  0  0  0
   58.6040   29.8020   47.3040 N   0  0  0  0  0  0  0  0  0  0  0  0
   59.4690   29.0700   48.0960 C   0  0  0  0  0  0  0  0  0  0  0  0
   60.4220   29.7270   49.0690 C   0  0  0  0  0  0  0  0  0  0  0  0
   59.5200   27.6730   47.9720 C   0  0  0  0  0  0  0  0  0  0  0  0
   58.6890   27.0240   47.0730 C   0  0  0  0  0  0  0  0  0  0  0  0
   57.7930   27.7550   46.3000 C   0  0  0  0  0  0  0  0  0  0  0  0
   56.9450   27.0510   45.3890 N   0  0  0  0  0  0  0  0  0  0  0  0
   55.8810   25.7640   45.8560 S   0  0  0  0  0  0  0  0  0  0  0  0
   54.4810   26.2920   45.9930 O   0  0  0  0  0  0  0  0  0  0  0  0
   56.3230   25.1750   47.1670 O   0  0  0  0  0  0  0  0  0  0  0  0
   55.9400   24.4880   44.6090 C   0  0  0  0  0  0  0  0  0  0  0  0
   57.1950   23.6740   44.7730 C   0  0  0  0  0  0  0  0  0  0  0  0
   57.3250   22.4360   44.1210 C   0  0  0  0  0  0  0  0  0  0  0  0
   58.5220   21.7160   44.2060 C   0  0  0  0  0  0  0  0  0  0  0  0
   59.5970   22.2290   44.9360 C   0  0  0  0  0  0  0  0  0  0  0  0
   59.4780   23.4630   45.5820 C   0  0  0  0  0  0  0  0  0  0  0  0
   58.2840   24.1860   45.4990 C   0  0  0  0  0  0  0  0  0  0  0  0
   57.7780   29.1570   46.4050 C   0  0  0  0  0  0  0  0  0  0  0  0
   57.0160   29.8180   45.6460 O   0  0  0  0  0  0  0  0  0  0  0  0
   61.4080   33.7120   46.4300 C   0  0  0  0  0  0  0  0  0  0  0  0
   62.6000   33.1010   47.1730 C   0  0  0  0  0  0  0  0  0  0  0  0
   64.8290   33.0910   49.3800 C   0  0  0  0  0  0  0  0  0  0  0  0
   65.8950   32.5930   50.1380 C   0  0  0  0  0  0  0  0  0  0  0  0
   67.3932   29.1944   52.6418 H   0  0  0  0  0  0  0  0  0  0  0  0
   66.5050   29.0081   51.0916 H   0  0  0  0  0  0  0  0  0  0  0  0
   68.1921   29.6250   51.0916 H   0  0  0  0  0  0  0  0  0  0  0  0
   64.3037   30.0136   51.6997 H   0  0  0  0  0  0  0  0  0  0  0  0
   62.4016   30.8929   50.3708 H   0  0  0  0  0  0  0  0  0  0  0  0
   60.7966   32.3209   49.7637 H   0  0  0  0  0  0  0  0  0  0  0  0
   61.3221   34.0669   50.0308 H   0  0  0  0  0  0  0  0  0  0  0  0
   59.0456   33.4273   48.7959 H   0  0  0  0  0  0  0  0  0  0  0  0
   60.0862   34.8710   48.3683 H   0  0  0  0  0  0  0  0  0  0  0  0
   59.3860   33.8400   46.4620 H   0  0  0  0  0  0  0  0  0  0  0  0
   58.4575   31.5773   48.4410 H   0  0  0  0  0  0  0  0  0  0  0  0
   57.7276   31.6443   46.7853 H   0  0  0  0  0  0  0  0  0  0  0  0
   60.1037   29.5075   50.0988 H   0  0  0  0  0  0  0  0  0  0  0  0
   61.4376   29.3362   48.9080 H   0  0  0  0  0  0  0  0  0  0  0  0
   60.4180   30.8151   48.9080 H   0  0  0  0  0  0  0  0  0  0  0  0
   60.2209   27.0922   48.5896 H   0  0  0  0  0  0  0  0  0  0  0  0
   58.7379   25.9299   46.9706 H   0  0  0  0  0  0  0  0  0  0  0  0
   55.0630   23.8326   44.7151 H   0  0  0  0  0  0  0  0  0  0  0  0
   55.9360   24.9532   43.6122 H   0  0  0  0  0  0  0  0  0  0  0  0
   56.4823   22.0311   43.5414 H   0  0  0  0  0  0  0  0  0  0  0  0
   58.6165   20.7452   43.6975 H   0  0  0  0  0  0  0  0  0  0  0  0
   60.5372   21.6619   45.0025 H   0  0  0  0  0  0  0  0  0  0  0  0
   60.3251   23.8659   46.1566 H   0  0  0  0  0  0  0  0  0  0  0  0
   58.1967   25.1594   46.0039 H   0  0  0  0  0  0  0  0  0  0  0  0
   61.4463   33.3883   45.3794 H   0  0  0  0  0  0  0  0  0  0  0  0
   61.4855   34.8051   46.5256 H   0  0  0  0  0  0  0  0  0  0  0  0
   62.7655   32.0870   46.7800 H   0  0  0  0  0  0  0  0  0  0  0  0
   63.4517   33.7758   47.0020 H   0  0  0  0  0  0  0  0  0  0  0  0
   64.9912   33.9599   48.7253 H   0  0  0  0  0  0  0  0  0  0  0  0
   66.8824   33.0734   50.0735 H   0  0  0  0  0  0  0  0  0  0  0  0
  1  2  1  0
  2  3  1  0
  3  4  2  0
  4  5  1  0
  5  6  2  0
  6  7  1  0
  7  8  1  0
  8  9  1  0
  9 10  1  0
 10 11  1  0
 11 12  2  0
 11 13  1  0
 13 14  1  0
 14 15  1  0
 15 16  1  0
 15 17  2  0
 17 18  1  0
 18 19  2  0
 19 20  1  0
 20 21  1  0
 21 22  2  0
 21 23  2  0
 21 24  1  0
 24 25  1  0
 25 26  2  0
 26 27  1  0
 27 28  2  0
 28 29  1  0
 29 30  2  0
 19 31  1  0
 31 32  2  0
 10 33  1  0
 33 34  1  0
  6 35  1  0
 35 36  2  0
 36  3  1  0
 34  7  1  0
 31 14  1  0
 30 25  1  0
  1 37  1  0
  1 38  1  0
  1 39  1  0
  4 40  1  0
  5 41  1  0
  8 42  1  0
  8 43  1  0
  9 44  1  0
  9 45  1  0
 10 46  1  0
 13 47  1  0
 13 48  1  0
 16 49  1  0
 16 50  1  0
 16 51  1  0
 17 52  1  0
 18 53  1  0
 24 54  1  0
 24 55  1  0
 26 56  1  0
 27 57  1  0
 28 58  1  0
 29 59  1  0
 30 60  1  0
 33 61  1  0
 33 62  1  0
 34 63  1  0
 34 64  1  0
 35 65  1  0
 36 66  1  0
M  CHG  2  10   1  20  -1
M  END
>  <UniqueID>  (44) 
41

>  <SMILES>  (44) 
COc1ccc(N2CC[NH+](C(=O)Cn3c(C)ccc([N-]S(=O)(=O)Cc4ccccc4)c3=O)CC2)cc1

>  <Energy>  (44) 
87.37262108462588

>  <Genealogy>  (44) 
COc1ccc(N2CC[NH+](C(=O)Cn3c(C)ccc([N-]S(=O)(=O)Cc4ccccc4)c3=O)CC2)cc1 (protonated)
COc1ccc(N2CC[NH+](C(=O)Cn3c(C)ccc([N-]S(=O)(=O)Cc4ccccc4)c3=O)CC2)cc1 (3D coordinates assigned)
COc1ccc(N2CC[NH+](C(=O)Cn3c(C)ccc([N-]S(=O)(=O)Cc4ccccc4)c3=O)CC2)cc1 (nonaromatic ring conformer: 87.37262108462588 kcal/mol)

>  <smiles>  (44) 
COc1ccc(N2CCN(C(=O)Cn3c(C)ccc(NS(=O)(=O)Cc4ccccc4)c3=O)CC2)cc1

>  <score_type>  (44) 
oracle

>  <origin>  (44) 
adg

>  <m_score__min__energy>  (44) 
-10.57

>  <m_primary>  (44) 
energy

$$$$
45:0
     RDKit          3D

 32 34  0  0  0  0  0  0  0  0999 V2000
   57.5820   22.9670   44.1650 C   0  0  0  0  0  0  0  0  0  0  0  0
   58.4310   23.5330   45.6210 S   0  0  0  0  0  0  0  0  0  0  0  0
   57.7260   23.0200   46.8460 O   0  0  0  0  0  0  0  0  0  0  0  0
   59.8390   23.0060   45.6190 O   0  0  0  0  0  0  0  0  0  0  0  0
   58.4520   25.2930   45.6380 C   0  0  0  0  0  0  0  0  0  0  0  0
   57.8770   26.0140   44.5840 C   0  0  0  0  0  0  0  0  0  0  0  0
   57.8830   27.4120   44.6030 C   0  0  0  0  0  0  0  0  0  0  0  0
   58.4550   28.1070   45.6810 C   0  0  0  0  0  0  0  0  0  0  0  0
   58.4570   29.5450   45.7020 N   0  0  0  0  0  0  0  0  0  0  0  0
   57.4000   30.4290   45.3130 C   0  0  0  0  0  0  0  0  0  0  0  0
   56.2930   30.0560   44.8420 O   0  0  0  0  0  0  0  0  0  0  0  0
   57.8150   31.8150   45.4930 C   0  0  0  0  0  0  0  0  0  0  0  0
   57.1360   33.0090   45.2500 C   0  0  0  0  0  0  0  0  0  0  0  0
   57.8050   34.2160   45.5210 C   0  0  0  0  0  0  0  0  0  0  0  0
   59.1250   34.2060   46.0210 C   0  0  0  0  0  0  0  0  0  0  0  0
   59.7900   32.9890   46.2560 C   0  0  0  0  0  0  0  0  0  0  0  0
   59.1060   31.8070   45.9780 C   0  0  0  0  0  0  0  0  0  0  0  0
   59.5180   30.4150   46.1170 C   0  0  0  0  0  0  0  0  0  0  0  0
   60.6230   30.0230   46.5780 O   0  0  0  0  0  0  0  0  0  0  0  0
   59.0210   27.3780   46.7400 C   0  0  0  0  0  0  0  0  0  0  0  0
   59.0170   25.9800   46.7190 C   0  0  0  0  0  0  0  0  0  0  0  0
   56.7003   22.3792   44.4599 H   0  0  0  0  0  0  0  0  0  0  0  0
   57.2620   23.8331   43.5671 H   0  0  0  0  0  0  0  0  0  0  0  0
   58.2584   22.3385   43.5671 H   0  0  0  0  0  0  0  0  0  0  0  0
   57.4194   25.4789   43.7388 H   0  0  0  0  0  0  0  0  0  0  0  0
   57.4366   27.9715   43.7677 H   0  0  0  0  0  0  0  0  0  0  0  0
   56.1082   33.0066   44.8582 H   0  0  0  0  0  0  0  0  0  0  0  0
   57.2960   35.1746   45.3421 H   0  0  0  0  0  0  0  0  0  0  0  0
   59.6374   35.1570   46.2284 H   0  0  0  0  0  0  0  0  0  0  0  0
   60.8180   32.9708   46.6470 H   0  0  0  0  0  0  0  0  0  0  0  0
   59.4703   27.9104   47.5913 H   0  0  0  0  0  0  0  0  0  0  0  0
   59.4593   25.4180   47.5548 H   0  0  0  0  0  0  0  0  0  0  0  0
  1  2  1  0
  2  3  2  0
  2  4  2  0
  2  5  1  0
  5  6  2  0
  6  7  1  0
  7  8  2  0
  8  9  1  0
  9 10  1  0
 10 11  2  0
 10 12  1  0
 12 13  2  0
 13 14  1  0
 14 15  2  0
 15 16  1  0
 16 17  2  0
 17 18  1  0
 18 19  2  0
  8 20  1  0
 20 21  2  0
 21  5  1  0
 18  9  1  0
 17 12  1  0
  1 22  1  0
  1 23  1  0
  1 24  1  0
  6 25  1  0
  7 26  1  0
 13 27  1  0
 14 28  1  0
 15 29  1  0
 16 30  1  0
 20 31  1  0
 21 32  1  0
M  END
>  <UniqueID>  (45) 
42

>  <SMILES>  (45) 
CS(=O)(=O)c1ccc(N2C(=O)c3ccccc3C2=O)cc1

>  <Energy>  (45) 
68.88561439869983

>  <Genealogy>  (45) 
CS(=O)(=O)c1ccc(N2C(=O)c3ccccc3C2=O)cc1 (3D coordinates assigned)
CS(=O)(=O)c1ccc(N2C(=O)c3ccccc3C2=O)cc1 (nonaromatic ring conformer: 68.88561439869983 kcal/mol)

>  <smiles>  (45) 
CS(=O)(=O)c1ccc(N2C(=O)c3ccccc3C2=O)cc1

>  <score_type>  (45) 
oracle

>  <origin>  (45) 
adg

>  <m_score__min__energy>  (45) 
-7.7300000000000004

>  <m_primary>  (45) 
energy

$$$$
46:0
     RDKit          3D

 52 52  0  0  0  0  0  0  0  0999 V2000
   55.6920   29.7290   43.6920 C   0  0  0  0  0  0  0  0  0  0  0  0
   56.6410   30.8590   44.0730 C   0  0  0  0  0  0  0  0  0  0  0  0
   57.4140   30.4910   45.2650 N   0  0  0  0  0  0  0  0  0  0  0  0
   57.4610   29.0290   45.4690 C   0  0  0  0  0  0  0  0  0  0  0  0
   58.7610   28.3820   44.9480 C   0  0  0  0  0  0  0  0  0  0  0  0
   60.0240   29.2460   45.1230 C   0  0  0  0  0  0  0  0  0  0  0  0
   59.8140   30.3440   46.0830 N   0  0  0  0  0  0  0  0  0  0  0  0
   61.0720   30.6850   46.7680 C   0  0  0  0  0  0  0  0  0  0  0  0
   60.9510   30.5020   48.2970 C   0  0  0  0  0  0  0  0  0  0  0  0
   60.2980   31.6970   49.0140 C   0  0  0  0  0  0  0  0  0  0  0  0
   58.7750   31.7360   48.8480 C   0  0  0  0  0  0  0  0  0  0  0  0
   58.4280   32.0060   47.4430 N   0  0  0  0  0  0  0  0  0  0  0  0
   57.9020   33.3720   47.2430 C   0  0  0  0  0  0  0  0  0  0  0  0
   57.0150   33.4750   45.9640 C   0  0  0  0  0  0  0  0  0  0  0  0
   57.6750   34.2430   44.8070 C   0  0  0  0  0  0  0  0  0  0  0  0
   59.1590   33.8830   44.6790 C   0  0  0  0  0  0  0  0  0  0  0  0
   59.9540   34.2100   45.9600 C   0  0  0  0  0  0  0  0  0  0  0  0
   59.0730   34.3690   47.2130 C   0  0  0  0  0  0  0  0  0  0  0  0
   55.2969   29.2586   44.6045 H   0  0  0  0  0  0  0  0  0  0  0  0
   54.8593   30.1340   43.0983 H   0  0  0  0  0  0  0  0  0  0  0  0
   56.2348   28.9788   43.0983 H   0  0  0  0  0  0  0  0  0  0  0  0
   57.3305   31.0516   43.2379 H   0  0  0  0  0  0  0  0  0  0  0  0
   56.0536   31.7631   44.2910 H   0  0  0  0  0  0  0  0  0  0  0  0
   57.0090   30.9730   46.1020 H   0  0  0  0  0  0  0  0  0  0  0  0
   57.3763   28.8238   46.5464 H   0  0  0  0  0  0  0  0  0  0  0  0
   56.6282   28.5932   44.8975 H   0  0  0  0  0  0  0  0  0  0  0  0
   58.9145   27.4369   45.4895 H   0  0  0  0  0  0  0  0  0  0  0  0
   58.6269   28.2429   43.8651 H   0  0  0  0  0  0  0  0  0  0  0  0
   60.8429   28.6080   45.4869 H   0  0  0  0  0  0  0  0  0  0  0  0
   60.2690   29.6906   44.1471 H   0  0  0  0  0  0  0  0  0  0  0  0
   59.1080   30.0500   46.7980 H   0  0  0  0  0  0  0  0  0  0  0  0
   59.4570   31.1840   45.5760 H   0  0  0  0  0  0  0  0  0  0  0  0
   61.8725   30.0310   46.3919 H   0  0  0  0  0  0  0  0  0  0  0  0
   61.3012   31.7413   46.5637 H   0  0  0  0  0  0  0  0  0  0  0  0
   60.3438   29.6059   48.4924 H   0  0  0  0  0  0  0  0  0  0  0  0
   61.9738   30.4106   48.6915 H   0  0  0  0  0  0  0  0  0  0  0  0
   60.5321   31.6325   50.0869 H   0  0  0  0  0  0  0  0  0  0  0  0
   60.7019   32.6138   48.5598 H   0  0  0  0  0  0  0  0  0  0  0  0
   58.3510   30.7663   49.1480 H   0  0  0  0  0  0  0  0  0  0  0  0
   58.3633   32.5355   49.4815 H   0  0  0  0  0  0  0  0  0  0  0  0
   57.7190   31.3040   47.1270 H   0  0  0  0  0  0  0  0  0  0  0  0
   57.2439   33.6244   48.0875 H   0  0  0  0  0  0  0  0  0  0  0  0
   56.7873   32.4561   45.6177 H   0  0  0  0  0  0  0  0  0  0  0  0
   56.1127   34.0373   46.2462 H   0  0  0  0  0  0  0  0  0  0  0  0
   57.1616   33.9883   43.8681 H   0  0  0  0  0  0  0  0  0  0  0  0
   57.5942   35.3205   45.0129 H   0  0  0  0  0  0  0  0  0  0  0  0
   59.2452   32.8056   44.4747 H   0  0  0  0  0  0  0  0  0  0  0  0
   59.5810   34.4827   43.8591 H   0  0  0  0  0  0  0  0  0  0  0  0
   60.6710   33.3956   46.1409 H   0  0  0  0  0  0  0  0  0  0  0  0
   60.4502   35.1772   45.7917 H   0  0  0  0  0  0  0  0  0  0  0  0
   59.6963   34.2073   48.1048 H   0  0  0  0  0  0  0  0  0  0  0  0
   58.6469   35.3830   47.1943 H   0  0  0  0  0  0  0  0  0  0  0  0
  1  2  1  0
  2  3  1  0
  3  4  1  0
  4  5  1  0
  5  6  1  0
  6  7  1  0
  7  8  1  0
  8  9  1  0
  9 10  1  0
 10 11  1  0
 11 12  1  0
 12 13  1  0
 13 14  1  0
 14 15  1  0
 15 16  1  0
 16 17  1  0
 17 18  1  0
 18 13  1  0
  1 19  1  0
  1 20  1  0
  1 21  1  0
  2 22  1  0
  2 23  1  0
  3 24  1  0
  4 25  1  0
  4 26  1  0
  5 27  1  0
  5 28  1  0
  6 29  1  0
  6 30  1  0
  7 31  1  0
  7 32  1  0
  8 33  1  0
  8 34  1  0
  9 35  1  0
  9 36  1  0
 10 37  1  0
 10 38  1  0
 11 39  1  0
 11 40  1  0
 12 41  1  0
 13 42  1  0
 14 43  1  0
 14 44  1  0
 15 45  1  0
 15 46  1  0
 16 47  1  0
 16 48  1  0
 17 49  1  0
 17 50  1  0
 18 51  1  0
 18 52  1  0
M  CHG  1   7   1
M  END
>  <UniqueID>  (46) 
43

>  <SMILES>  (46) 
CCNCCC[NH2+]CCCCNC1CCCCC1

>  <Energy>  (46) 
43.55763859420219

>  <Genealogy>  (46) 
CCNCCC[NH2+]CCCCNC1CCCCC1 (protonated)
CCNCCC[NH2+]CCCCNC1CCCCC1 (3D coordinates assigned)
CCNCCC[NH2+]CCCCNC1CCCCC1 (nonaromatic ring conformer: 43.55763859420219 kcal/mol)

>  <smiles>  (46) 
CCNCCCNCCCCNC1CCCCC1

>  <score_type>  (46) 
oracle

>  <origin>  (46) 
adg

>  <m_score__min__energy>  (46) 
-3.1400000000000001

>  <m_primary>  (46) 
energy

$$$$
47:0
     RDKit          3D

 43 46  0  0  0  0  0  0  0  0999 V2000
   60.0190   35.2710   45.7490 O   0  0  0  0  0  0  0  0  0  0  0  0
   59.8070   34.2980   46.8750 S   0  0  0  0  0  0  0  0  0  0  0  0
   58.9220   34.9430   47.9030 O   0  0  0  0  0  0  0  0  0  0  0  0
   61.3330   33.8970   47.6570 C   0  0  0  0  0  0  0  0  0  0  0  0
   61.5020   34.1630   49.0240 C   0  0  0  0  0  0  0  0  0  0  0  0
   62.7010   33.8300   49.6620 C   0  0  0  0  0  0  0  0  0  0  0  0
   63.7380   33.2330   48.9380 C   0  0  0  0  0  0  0  0  0  0  0  0
   65.2380   32.8090   49.7420 Cl  0  0  0  0  0  0  0  0  0  0  0  0
   63.5770   32.9750   47.5720 C   0  0  0  0  0  0  0  0  0  0  0  0
   62.3800   33.3080   46.9310 C   0  0  0  0  0  0  0  0  0  0  0  0
   59.0320   32.8400   46.2390 C   0  0  0  0  0  0  0  0  0  0  0  0
   58.5510   32.8460   44.9620 N   0  0  0  0  0  0  0  0  0  0  0  0
   57.8990   31.7690   44.4420 C   0  0  0  0  0  0  0  0  0  0  0  0
   57.4010   31.7850   43.1290 C   0  0  0  0  0  0  0  0  0  0  0  0
   56.7300   30.6670   42.6230 C   0  0  0  0  0  0  0  0  0  0  0  0
   56.5520   29.5320   43.4200 C   0  0  0  0  0  0  0  0  0  0  0  0
   57.0450   29.5080   44.7280 C   0  0  0  0  0  0  0  0  0  0  0  0
   57.7170   30.6230   45.2410 C   0  0  0  0  0  0  0  0  0  0  0  0
   58.2030   30.6110   46.5060 N   0  0  0  0  0  0  0  0  0  0  0  0
   58.8620   31.6790   47.0290 C   0  0  0  0  0  0  0  0  0  0  0  0
   59.3630   31.5920   48.3710 N   0  0  0  0  0  0  0  0  0  0  0  0
   60.2760   30.5020   48.7350 C   0  0  0  0  0  0  0  0  0  0  0  0
   60.0100   30.0570   50.1750 C   0  0  0  0  0  0  0  0  0  0  0  0
   58.6180   30.0460   50.4120 O   0  0  0  0  0  0  0  0  0  0  0  0
   58.1110   31.3700   50.4960 C   0  0  0  0  0  0  0  0  0  0  0  0
   58.6940   32.3380   49.4400 C   0  0  0  0  0  0  0  0  0  0  0  0
   60.6892   34.6348   49.5956 H   0  0  0  0  0  0  0  0  0  0  0  0
   62.8287   34.0379   50.7346 H   0  0  0  0  0  0  0  0  0  0  0  0
   64.3940   32.5092   47.0014 H   0  0  0  0  0  0  0  0  0  0  0  0
   62.2585   33.1081   45.8562 H   0  0  0  0  0  0  0  0  0  0  0  0
   58.6800   33.6980   44.3690 H   0  0  0  0  0  0  0  0  0  0  0  0
   57.5386   32.6762   42.4990 H   0  0  0  0  0  0  0  0  0  0  0  0
   56.3409   30.6807   41.5942 H   0  0  0  0  0  0  0  0  0  0  0  0
   56.0228   28.6559   43.0169 H   0  0  0  0  0  0  0  0  0  0  0  0
   56.9048   28.6138   45.3531 H   0  0  0  0  0  0  0  0  0  0  0  0
   60.1176   29.6516   48.0555 H   0  0  0  0  0  0  0  0  0  0  0  0
   61.3139   30.8567   48.6520 H   0  0  0  0  0  0  0  0  0  0  0  0
   60.4165   29.0464   50.3280 H   0  0  0  0  0  0  0  0  0  0  0  0
   60.4962   30.7557   50.8717 H   0  0  0  0  0  0  0  0  0  0  0  0
   57.0197   31.3310   50.3636 H   0  0  0  0  0  0  0  0  0  0  0  0
   58.4059   31.7605   51.4811 H   0  0  0  0  0  0  0  0  0  0  0  0
   57.8780   32.9358   49.0078 H   0  0  0  0  0  0  0  0  0  0  0  0
   59.4291   32.9948   49.9281 H   0  0  0  0  0  0  0  0  0  0  0  0
  1  2  2  0
  2  3  2  0
  2  4  1  0
  4  5  2  0
  5  6  1  0
  6  7  2  0
  7  8  1  0
  7  9  1  0
  9 10  2  0
  2 11  1  0
 11 12  2  0
 12 13  1  0
 13 14  2  0
 14 15  1  0
 15 16  2  0
 16 17  1  0
 17 18  2  0
 18 19  1  0
 19 20  2  0
 20 21  1  0
 21 22  1  0
 22 23  1  0
 23 24  1  0
 24 25  1  0
 25 26  1  0
 10  4  1  0
 20 11  1  0
 26 21  1  0
 18 13  1  0
  5 27  1  0
  6 28  1  0
  9 29  1  0
 10 30  1  0
 12 31  1  0
 14 32  1  0
 15 33  1  0
 16 34  1  0
 17 35  1  0
 22 36  1  0
 22 37  1  0
 23 38  1  0
 23 39  1  0
 25 40  1  0
 25 41  1  0
 26 42  1  0
 26 43  1  0
M  CHG  1  12   1
M  END
>  <UniqueID>  (47) 
44

>  <SMILES>  (47) 
O=S(=O)(c1ccc(Cl)cc1)c1[nH+]c2ccccc2nc1N1CCOCC1

>  <Energy>  (47) 
63.73148867808201

>  <Genealogy>  (47) 
O=S(=O)(c1ccc(Cl)cc1)c1[nH+]c2ccccc2nc1N1CCOCC1 (protonated)
O=S(=O)(c1ccc(Cl)cc1)c1[nH+]c2ccccc2nc1N1CCOCC1 (3D coordinates assigned)
O=S(=O)(c1ccc(Cl)cc1)c1[nH+]c2ccccc2nc1N1CCOCC1 (nonaromatic ring conformer: 63.73148867808201 kcal/mol)

>  <smiles>  (47) 
O=S(=O)(c1ccc(Cl)cc1)c1nc2ccccc2nc1N1CCOCC1

>  <score_type>  (47) 
oracle

>  <origin>  (47) 
adg

>  <m_score__min__energy>  (47) 
-6.9699999999999998

>  <m_primary>  (47) 
energy

$$$$
