0:0
     RDKit          3D

 54 57  0  0  0  0  0  0  0  0999 V2000
   57.8940   33.5090   45.4400 C   0  0  0  0  0  0  0  0  0  0  0  0
   58.9930   34.4560   45.9170 C   0  0  0  0  0  0  0  0  0  0  0  0
   59.3120   34.2280   47.3440 N   0  0  0  0  0  0  0  0  0  0  0  0
   58.6740   32.9850   47.8050 C   0  0  0  0  0  0  0  0  0  0  0  0
   60.7750   34.1980   47.5990 C   0  0  0  0  0  0  0  0  0  0  0  0
   61.5290   33.7970   46.3230 C   0  0  0  0  0  0  0  0  0  0  0  0
   63.0560   33.8370   46.4810 C   0  0  0  0  0  0  0  0  0  0  0  0
   63.5800   32.5340   46.8910 N   0  0  0  0  0  0  0  0  0  0  0  0
   63.0820   31.8740   48.0660 C   0  0  0  0  0  0  0  0  0  0  0  0
   63.6420   32.1140   49.3320 C   0  0  0  0  0  0  0  0  0  0  0  0
   64.6380   33.0970   49.5070 C   0  0  0  0  0  0  0  0  0  0  0  0
   65.1600   33.3600   50.7710 C   0  0  0  0  0  0  0  0  0  0  0  0
   64.6840   32.6700   51.8800 C   0  0  0  0  0  0  0  0  0  0  0  0
   63.6910   31.7010   51.7330 C   0  0  0  0  0  0  0  0  0  0  0  0
   63.1630   31.3840   50.4560 C   0  0  0  0  0  0  0  0  0  0  0  0
   62.1900   30.4130   50.2890 N   0  0  0  0  0  0  0  0  0  0  0  0
   61.8890   29.4620   51.3810 C   0  0  0  0  0  0  0  0  0  0  0  0
   61.5160   30.3150   49.0880 C   0  0  0  0  0  0  0  0  0  0  0  0
   60.3850   29.5450   48.9520 N   0  0  0  0  0  0  0  0  0  0  0  0
   59.7640   29.3980   47.7460 C   0  0  0  0  0  0  0  0  0  0  0  0
   58.6210   28.5960   47.6110 C   0  0  0  0  0  0  0  0  0  0  0  0
   58.0040   28.4590   46.3630 C   0  0  0  0  0  0  0  0  0  0  0  0
   58.5230   29.1210   45.2460 C   0  0  0  0  0  0  0  0  0  0  0  0
   59.6590   29.9270   45.3730 C   0  0  0  0  0  0  0  0  0  0  0  0
   60.2760   30.0680   46.6200 C   0  0  0  0  0  0  0  0  0  0  0  0
   61.3620   30.8650   46.7590 N   0  0  0  0  0  0  0  0  0  0  0  0
   61.9820   31.0210   47.9580 C   0  0  0  0  0  0  0  0  0  0  0  0
   57.3847   33.0702   46.3107 H   0  0  0  0  0  0  0  0  0  0  0  0
   57.1665   34.0677   44.8329 H   0  0  0  0  0  0  0  0  0  0  0  0
   58.3391   32.7070   44.8329 H   0  0  0  0  0  0  0  0  0  0  0  0
   59.8983   34.2874   45.3153 H   0  0  0  0  0  0  0  0  0  0  0  0
   58.6373   35.4903   45.8000 H   0  0  0  0  0  0  0  0  0  0  0  0
   58.6634   32.9643   48.9048 H   0  0  0  0  0  0  0  0  0  0  0  0
   57.6418   32.9408   47.4275 H   0  0  0  0  0  0  0  0  0  0  0  0
   59.2398   32.1205   47.4275 H   0  0  0  0  0  0  0  0  0  0  0  0
   61.1083   35.1962   47.9192 H   0  0  0  0  0  0  0  0  0  0  0  0
   60.9863   33.4601   48.3869 H   0  0  0  0  0  0  0  0  0  0  0  0
   61.2331   32.7734   46.0499 H   0  0  0  0  0  0  0  0  0  0  0  0
   61.2631   34.5274   45.5446 H   0  0  0  0  0  0  0  0  0  0  0  0
   63.5089   34.1193   45.5191 H   0  0  0  0  0  0  0  0  0  0  0  0
   63.3064   34.5734   47.2588 H   0  0  0  0  0  0  0  0  0  0  0  0
   64.5220   32.2560   46.5340 H   0  0  0  0  0  0  0  0  0  0  0  0
   65.0059   33.6611   48.6372 H   0  0  0  0  0  0  0  0  0  0  0  0
   65.9506   34.1152   50.8921 H   0  0  0  0  0  0  0  0  0  0  0  0
   65.0920   32.8889   52.8778 H   0  0  0  0  0  0  0  0  0  0  0  0
   63.3120   31.1749   52.6216 H   0  0  0  0  0  0  0  0  0  0  0  0
   62.0454   29.9563   52.3512 H   0  0  0  0  0  0  0  0  0  0  0  0
   60.8426   29.1322   51.3020 H   0  0  0  0  0  0  0  0  0  0  0  0
   62.5551   28.5902   51.3020 H   0  0  0  0  0  0  0  0  0  0  0  0
   59.9450   29.0830   49.7780 H   0  0  0  0  0  0  0  0  0  0  0  0
   58.2094   28.0742   48.4875 H   0  0  0  0  0  0  0  0  0  0  0  0
   57.1083   27.8289   46.2601 H   0  0  0  0  0  0  0  0  0  0  0  0
   58.0370   29.0077   44.2657 H   0  0  0  0  0  0  0  0  0  0  0  0
   60.0660   30.4486   44.4942 H   0  0  0  0  0  0  0  0  0  0  0  0
  1  2  1  0
  2  3  1  0
  3  4  1  0
  3  5  1  0
  5  6  1  0
  6  7  1  0
  7  8  1  0
  8  9  1  0
  9 10  2  0
 10 11  1  0
 11 12  2  0
 12 13  1  0
 13 14  2  0
 14 15  1  0
 15 16  2  0
 16 17  1  0
 16 18  1  0
 18 19  2  0
 19 20  1  0
 20 21  2  0
 21 22  1  0
 22 23  2  0
 23 24  1  0
 24 25  2  0
 25 26  1  0
 26 27  2  0
 27  9  1  0
 15 10  1  0
 27 18  1  0
 25 20  1  0
  1 28  1  0
  1 29  1  0
  1 30  1  0
  2 31  1  0
  2 32  1  0
  4 33  1  0
  4 34  1  0
  4 35  1  0
  5 36  1  0
  5 37  1  0
  6 38  1  0
  6 39  1  0
  7 40  1  0
  7 41  1  0
  8 42  1  0
 11 43  1  0
 12 44  1  0
 13 45  1  0
 14 46  1  0
 17 47  1  0
 17 48  1  0
 17 49  1  0
 19 50  1  0
 21 51  1  0
 22 52  1  0
 23 53  1  0
 24 54  1  0
M  CHG  2  16   1  19   1
M  END
>  <UniqueID>  (1) 
1

>  <SMILES>  (1) 
CCN(C)CCCNc1c2ccccc2[n+](C)c2[nH+]c3ccccc3nc12

>  <Energy>  (1) 
80.72396535791535

>  <Genealogy>  (1) 
CCN(C)CCCNc1c2ccccc2[n+](C)c2[nH+]c3ccccc3nc12 (protonated)
CCN(C)CCCNc1c2ccccc2[n+](C)c2[nH+]c3ccccc3nc12 (3D coordinates assigned)
CCN(C)CCCNc1c2ccccc2[n+](C)c2[nH+]c3ccccc3nc12 (optimized conformer: 80.72396535791535 kcal/mol)

>  <smiles>  (1) 
CCN(C)CCCNc1c2ccccc2[n+](C)c2nc3ccccc3nc12

>  <score_type>  (1) 
oracle

>  <origin>  (1) 
adg

>  <m_score__min__energy>  (1) 
-5.3899999999999997

>  <m_primary>  (1) 
energy

$$$$
1:0
     RDKit          3D

 51 54  0  0  0  0  0  0  0  0999 V2000
   56.7690   30.1690   43.5440 C   0  0  0  0  0  0  0  0  0  0  0  0
   56.9890   30.4910   44.8950 O   0  0  0  0  0  0  0  0  0  0  0  0
   57.5850   31.7130   45.2500 C   0  0  0  0  0  0  0  0  0  0  0  0
   56.8470   32.8780   45.2440 C   0  0  0  0  0  0  0  0  0  0  0  0
   57.3950   34.1050   45.5880 C   0  0  0  0  0  0  0  0  0  0  0  0
   58.7210   34.1850   45.9500 C   0  0  0  0  0  0  0  0  0  0  0  0
   59.4560   33.0230   45.9540 C   0  0  0  0  0  0  0  0  0  0  0  0
   58.9110   31.7950   45.6120 C   0  0  0  0  0  0  0  0  0  0  0  0
   59.6850   30.6240   45.6260 N   0  0  0  0  0  0  0  0  0  0  0  0
   59.5160   29.6350   46.4400 C   0  0  0  0  0  0  0  0  0  0  0  0
   60.1830   29.6210   47.6080 N   0  0  0  0  0  0  0  0  0  0  0  0
   60.0180   28.5880   48.4780 C   0  0  0  0  0  0  0  0  0  0  0  0
   60.6770   28.4990   49.7130 N   0  0  0  0  0  0  0  0  0  0  0  0
   61.2710   29.6290   50.4120 C   0  0  0  0  0  0  0  0  0  0  0  0
   60.7670   29.5160   51.8380 C   0  0  0  0  0  0  0  0  0  0  0  0
   61.2720   28.4050   52.4540 O   0  0  0  0  0  0  0  0  0  0  0  0
   61.6230   27.3550   51.6550 C   0  0  0  0  0  0  0  0  0  0  0  0
   60.8080   27.2010   50.3940 C   0  0  0  0  0  0  0  0  0  0  0  0
   59.1800   27.6220   48.1130 N   0  0  0  0  0  0  0  0  0  0  0  0
   58.5050   27.6330   46.9370 C   0  0  0  0  0  0  0  0  0  0  0  0
   57.6430   26.5350   46.6770 N   0  0  0  0  0  0  0  0  0  0  0  0
   57.9190   25.1810   47.1170 C   0  0  0  0  0  0  0  0  0  0  0  0
   56.6370   24.5600   47.5970 C   0  0  0  0  0  0  0  0  0  0  0  0
   55.5510   24.7710   46.7870 O   0  0  0  0  0  0  0  0  0  0  0  0
   55.8570   25.4210   45.6010 C   0  0  0  0  0  0  0  0  0  0  0  0
   56.4280   26.8050   45.9300 C   0  0  0  0  0  0  0  0  0  0  0  0
   58.6700   28.6600   46.0730 N   0  0  0  0  0  0  0  0  0  0  0  0
   56.1495   29.2623   43.4793 H   0  0  0  0  0  0  0  0  0  0  0  0
   56.2511   31.0031   43.0479 H   0  0  0  0  0  0  0  0  0  0  0  0
   57.7343   29.9897   43.0479 H   0  0  0  0  0  0  0  0  0  0  0  0
   55.7863   32.8326   44.9562 H   0  0  0  0  0  0  0  0  0  0  0  0
   56.7720   35.0114   45.5716 H   0  0  0  0  0  0  0  0  0  0  0  0
   59.1773   35.1468   46.2269 H   0  0  0  0  0  0  0  0  0  0  0  0
   60.5173   33.0695   46.2395 H   0  0  0  0  0  0  0  0  0  0  0  0
   62.3689   29.5675   50.3838 H   0  0  0  0  0  0  0  0  0  0  0  0
   60.9979   30.5900   49.9517 H   0  0  0  0  0  0  0  0  0  0  0  0
   61.0764   30.4097   52.3998 H   0  0  0  0  0  0  0  0  0  0  0  0
   59.6704   29.4332   51.8144 H   0  0  0  0  0  0  0  0  0  0  0  0
   62.6759   27.4864   51.3648 H   0  0  0  0  0  0  0  0  0  0  0  0
   61.4382   26.4473   52.2483 H   0  0  0  0  0  0  0  0  0  0  0  0
   61.3080   26.4872   49.7229 H   0  0  0  0  0  0  0  0  0  0  0  0
   59.8062   26.8303   50.6566 H   0  0  0  0  0  0  0  0  0  0  0  0
   58.3234   24.5945   46.2788 H   0  0  0  0  0  0  0  0  0  0  0  0
   58.6573   25.1948   47.9323 H   0  0  0  0  0  0  0  0  0  0  0  0
   56.7943   23.4745   47.6807 H   0  0  0  0  0  0  0  0  0  0  0  0
   56.4024   25.0432   48.5570 H   0  0  0  0  0  0  0  0  0  0  0  0
   56.6022   24.8371   45.0409 H   0  0  0  0  0  0  0  0  0  0  0  0
   54.9500   25.5268   44.9877 H   0  0  0  0  0  0  0  0  0  0  0  0
   56.6550   27.3601   45.0078 H   0  0  0  0  0  0  0  0  0  0  0  0
   55.7183   27.4231   46.4995 H   0  0  0  0  0  0  0  0  0  0  0  0
   58.1490   28.6640   45.1680 H   0  0  0  0  0  0  0  0  0  0  0  0
  1  2  1  0
  2  3  1  0
  3  4  2  0
  4  5  1  0
  5  6  2  0
  6  7  1  0
  7  8  2  0
  8  9  1  0
  9 10  2  3
 10 11  1  0
 11 12  2  0
 12 13  1  0
 13 14  1  0
 14 15  1  0
 15 16  1  0
 16 17  1  0
 17 18  1  0
 12 19  1  0
 19 20  2  0
 20 21  1  0
 21 22  1  0
 22 23  1  0
 23 24  1  0
 24 25  1  0
 25 26  1  0
 20 27  1  0
  8  3  1  0
 27 10  1  0
 18 13  1  0
 26 21  1  0
  1 28  1  0
  1 29  1  0
  1 30  1  0
  4 31  1  0
  5 32  1  0
  6 33  1  0
  7 34  1  0
 14 35  1  0
 14 36  1  0
 15 37  1  0
 15 38  1  0
 17 39  1  0
 17 40  1  0
 18 41  1  0
 18 42  1  0
 22 43  1  0
 22 44  1  0
 23 45  1  0
 23 46  1  0
 25 47  1  0
 25 48  1  0
 26 49  1  0
 26 50  1  0
 27 51  1  0
M  END
>  <smiles>  (2) 
COc1ccccc1N=c1nc(N2CCOCC2)nc(N2CCOCC2)[nH]1

>  <score_type>  (2) 
oracle

>  <origin>  (2) 
adg

>  <m_score__min__energy>  (2) 
-6.4199999999999999

>  <m_primary>  (2) 
energy

$$$$
2:0
     RDKit          3D

 44 46  0  0  0  0  0  0  0  0999 V2000
   63.3940   33.7500   46.4050 C   0  0  0  0  0  0  0  0  0  0  0  0
   63.1060   33.8390   47.8990 C   0  0  0  0  0  0  0  0  0  0  0  0
   63.1390   32.4870   48.5070 N   0  0  0  0  0  0  0  0  0  0  0  0
   64.3630   32.3290   49.3150 C   0  0  0  0  0  0  0  0  0  0  0  0
   61.9480   32.2280   49.3470 C   0  0  0  0  0  0  0  0  0  0  0  0
   60.9460   31.2730   48.6640 C   0  0  0  0  0  0  0  0  0  0  0  0
   61.3260   30.9010   47.2860 N   0  0  0  0  0  0  0  0  0  0  0  0
   60.1980   30.9430   46.3680 C   0  0  0  0  0  0  0  0  0  0  0  0
   59.5390   32.1570   45.9970 C   0  0  0  0  0  0  0  0  0  0  0  0
   59.9570   33.4190   46.4870 C   0  0  0  0  0  0  0  0  0  0  0  0
   59.2980   34.5900   46.1220 C   0  0  0  0  0  0  0  0  0  0  0  0
   58.2110   34.5430   45.2610 C   0  0  0  0  0  0  0  0  0  0  0  0
   57.7700   33.3250   44.7570 C   0  0  0  0  0  0  0  0  0  0  0  0
   58.4120   32.1090   45.1040 C   0  0  0  0  0  0  0  0  0  0  0  0
   57.9670   30.9010   44.5970 N   0  0  0  0  0  0  0  0  0  0  0  0
   56.8020   30.8380   43.6930 C   0  0  0  0  0  0  0  0  0  0  0  0
   58.6280   29.7590   44.9490 C   0  0  0  0  0  0  0  0  0  0  0  0
   58.2930   28.1780   44.4600 S   0  0  0  0  0  0  0  0  0  0  0  0
   59.5360   27.4580   45.3320 C   0  0  0  0  0  0  0  0  0  0  0  0
   60.2280   28.4490   46.0190 C   0  0  0  0  0  0  0  0  0  0  0  0
   59.7150   29.7450   45.8060 C   0  0  0  0  0  0  0  0  0  0  0  0
   64.4346   33.4284   46.2507 H   0  0  0  0  0  0  0  0  0  0  0  0
   62.7125   33.0206   45.9430 H   0  0  0  0  0  0  0  0  0  0  0  0
   63.2428   34.7368   45.9430 H   0  0  0  0  0  0  0  0  0  0  0  0
   63.8668   34.4721   48.3789 H   0  0  0  0  0  0  0  0  0  0  0  0
   62.1073   34.2755   48.0472 H   0  0  0  0  0  0  0  0  0  0  0  0
   64.1038   32.3625   50.3835 H   0  0  0  0  0  0  0  0  0  0  0  0
   64.8340   31.3626   49.0820 H   0  0  0  0  0  0  0  0  0  0  0  0
   65.0639   33.1441   49.0820 H   0  0  0  0  0  0  0  0  0  0  0  0
   62.2754   31.7778   50.2957 H   0  0  0  0  0  0  0  0  0  0  0  0
   61.4380   33.1884   49.5130 H   0  0  0  0  0  0  0  0  0  0  0  0
   60.8766   30.3544   49.2652 H   0  0  0  0  0  0  0  0  0  0  0  0
   59.9859   31.8060   48.6002 H   0  0  0  0  0  0  0  0  0  0  0  0
   61.6980   29.9250   47.3040 H   0  0  0  0  0  0  0  0  0  0  0  0
   62.1460   31.4590   46.9700 H   0  0  0  0  0  0  0  0  0  0  0  0
   60.8185   33.4747   47.1687 H   0  0  0  0  0  0  0  0  0  0  0  0
   59.6409   35.5572   46.5182 H   0  0  0  0  0  0  0  0  0  0  0  0
   57.6965   35.4727   44.9763 H   0  0  0  0  0  0  0  0  0  0  0  0
   56.9065   33.3039   44.0759 H   0  0  0  0  0  0  0  0  0  0  0  0
   55.8783   30.7880   44.2882 H   0  0  0  0  0  0  0  0  0  0  0  0
   56.7812   31.7363   43.0585 H   0  0  0  0  0  0  0  0  0  0  0  0
   56.8782   29.9427   43.0585 H   0  0  0  0  0  0  0  0  0  0  0  0
   59.7641   26.3822   45.3554 H   0  0  0  0  0  0  0  0  0  0  0  0
   61.0927   28.2419   46.6666 H   0  0  0  0  0  0  0  0  0  0  0  0
  1  2  1  0
  2  3  1  0
  3  4  1  0
  3  5  1  0
  5  6  1  0
  6  7  1  0
  7  8  1  0
  8  9  2  0
  9 10  1  0
 10 11  2  0
 11 12  1  0
 12 13  2  0
 13 14  1  0
 14 15  2  0
 15 16  1  0
 15 17  1  0
 17 18  1  0
 18 19  1  0
 19 20  2  0
 20 21  1  0
 21  8  1  0
 14  9  1  0
 21 17  2  0
  1 22  1  0
  1 23  1  0
  1 24  1  0
  2 25  1  0
  2 26  1  0
  4 27  1  0
  4 28  1  0
  4 29  1  0
  5 30  1  0
  5 31  1  0
  6 32  1  0
  6 33  1  0
  7 34  1  0
  7 35  1  0
 10 36  1  0
 11 37  1  0
 12 38  1  0
 13 39  1  0
 16 40  1  0
 16 41  1  0
 16 42  1  0
 19 43  1  0
 20 44  1  0
M  CHG  2   7   1  15   1
M  END
>  <UniqueID>  (3) 
2

>  <SMILES>  (3) 
CCN(C)CC[NH2+]c1c2ccccc2[n+](C)c2sccc12

>  <Energy>  (3) 
89.42909897173361

>  <Genealogy>  (3) 
CCN(C)CC[NH2+]c1c2ccccc2[n+](C)c2sccc12 (protonated)
CCN(C)CC[NH2+]c1c2ccccc2[n+](C)c2sccc12 (3D coordinates assigned)
CCN(C)CC[NH2+]c1c2ccccc2[n+](C)c2sccc12 (optimized conformer: 89.42909897173361 kcal/mol)

>  <smiles>  (3) 
CCN(C)CCNc1c2ccccc2[n+](C)c2sccc12

>  <score_type>  (3) 
oracle

>  <origin>  (3) 
adg

>  <m_score__min__energy>  (3) 
-3.6000000000000001

>  <m_primary>  (3) 
energy

$$$$
3:0
     RDKit          3D

 62 66  0  0  0  0  0  0  0  0999 V2000
   62.4233   35.0475   51.5877 H   0  0  0  0  0  0  0  0  0  0  0  0
   63.0360   34.2290   51.1820 C   0  0  0  0  0  0  0  0  0  0  0  0
   64.4300   34.3080   51.2360 C   0  0  0  0  0  0  0  0  0  0  0  0
   64.9142   35.1847   51.6909 H   0  0  0  0  0  0  0  0  0  0  0  0
   65.2100   33.2710   50.7110 C   0  0  0  0  0  0  0  0  0  0  0  0
   67.1160   33.3880   50.7660 Br  0  0  0  0  0  0  0  0  0  0  0  0
   64.5940   32.1520   50.1410 C   0  0  0  0  0  0  0  0  0  0  0  0
   65.2091   31.3472   49.7122 H   0  0  0  0  0  0  0  0  0  0  0  0
   63.1970   32.0520   50.1140 C   0  0  0  0  0  0  0  0  0  0  0  0
   62.5880   30.9230   49.4690 N   0  0  0  0  0  0  0  0  0  0  0  0
   61.5650   30.9170   48.6550 C   0  0  0  0  0  0  0  0  0  0  0  0
   61.1490   32.0750   47.9890 C   0  0  0  0  0  0  0  0  0  0  0  0
   61.6835   33.0223   48.1532 H   0  0  0  0  0  0  0  0  0  0  0  0
   60.0640   32.0350   47.1210 C   0  0  0  0  0  0  0  0  0  0  0  0
   59.7443   32.9604   46.6195 H   0  0  0  0  0  0  0  0  0  0  0  0
   59.3820   30.8710   46.8740 N   0  0  0  0  0  0  0  0  0  0  0  0
   59.7030   29.7360   47.5940 C   0  0  0  0  0  0  0  0  0  0  0  0
   58.9170   28.5640   47.4790 C   0  0  0  0  0  0  0  0  0  0  0  0
   59.2570   27.4000   48.1990 C   0  0  0  0  0  0  0  0  0  0  0  0
   58.4680   26.2090   48.0580 N   0  0  0  0  0  0  0  0  0  0  0  0
   58.2730   25.6320   48.9060 H   0  0  0  0  0  0  0  0  0  0  0  0
   58.0830   25.6810   46.7490 C   0  0  0  0  0  0  0  0  0  0  0  0
   58.4848   24.6631   46.6374 H   0  0  0  0  0  0  0  0  0  0  0  0
   58.4907   26.3390   45.9675 H   0  0  0  0  0  0  0  0  0  0  0  0
   56.5600   25.6380   46.6120 C   0  0  0  0  0  0  0  0  0  0  0  0
   56.1410   26.6215   46.8710 H   0  0  0  0  0  0  0  0  0  0  0  0
   56.1530   24.8746   47.2913 H   0  0  0  0  0  0  0  0  0  0  0  0
   56.1980   25.3000   45.2190 N   0  0  0  0  0  0  0  0  0  0  0  0
   55.3440   24.1050   45.1340 C   0  0  0  0  0  0  0  0  0  0  0  0
   55.0963   23.7584   46.1482 H   0  0  0  0  0  0  0  0  0  0  0  0
   54.4179   24.3538   44.5951 H   0  0  0  0  0  0  0  0  0  0  0  0
   55.8793   23.3093   44.5951 H   0  0  0  0  0  0  0  0  0  0  0  0
   57.3660   25.2450   44.3080 C   0  0  0  0  0  0  0  0  0  0  0  0
   57.1037   24.6095   43.4493 H   0  0  0  0  0  0  0  0  0  0  0  0
   58.2053   24.8444   44.8954 H   0  0  0  0  0  0  0  0  0  0  0  0
   57.8160   26.6140   43.7740 C   0  0  0  0  0  0  0  0  0  0  0  0
   58.0359   27.2830   44.6191 H   0  0  0  0  0  0  0  0  0  0  0  0
   58.7203   26.4890   43.1604 H   0  0  0  0  0  0  0  0  0  0  0  0
   57.0139   27.0499   43.1604 H   0  0  0  0  0  0  0  0  0  0  0  0
   60.3860   27.3900   49.0320 C   0  0  0  0  0  0  0  0  0  0  0  0
   60.7330   26.1960   49.6860 O   0  0  0  0  0  0  0  0  0  0  0  0
   61.1460   26.1040   51.0460 C   0  0  0  0  0  0  0  0  0  0  0  0
   60.2857   26.2956   51.7042 H   0  0  0  0  0  0  0  0  0  0  0  0
   61.5403   25.0960   51.2421 H   0  0  0  0  0  0  0  0  0  0  0  0
   61.9309   26.8493   51.2421 H   0  0  0  0  0  0  0  0  0  0  0  0
   61.1450   28.5590   49.1800 C   0  0  0  0  0  0  0  0  0  0  0  0
   62.0157   28.5568   49.8522 H   0  0  0  0  0  0  0  0  0  0  0  0
   60.8120   29.7360   48.4830 C   0  0  0  0  0  0  0  0  0  0  0  0
   57.7390   28.5870   46.6640 N   0  0  0  0  0  0  0  0  0  0  0  0
   57.0890   27.7700   46.6540 H   0  0  0  0  0  0  0  0  0  0  0  0
   57.4580   29.7090   45.8280 C   0  0  0  0  0  0  0  0  0  0  0  0
   56.3810   29.6670   44.9220 C   0  0  0  0  0  0  0  0  0  0  0  0
   55.5330   28.5650   44.8800 O   0  0  0  0  0  0  0  0  0  0  0  0
   56.1600   30.7310   44.0490 C   0  0  0  0  0  0  0  0  0  0  0  0
   55.3049   30.7062   43.3574 H   0  0  0  0  0  0  0  0  0  0  0  0
   57.0210   31.8250   44.0520 C   0  0  0  0  0  0  0  0  0  0  0  0
   56.8597   32.6510   43.3437 H   0  0  0  0  0  0  0  0  0  0  0  0
   58.0890   31.8780   44.9510 C   0  0  0  0  0  0  0  0  0  0  0  0
   58.7736   32.7387   44.9302 H   0  0  0  0  0  0  0  0  0  0  0  0
   58.3020   30.8380   45.8890 C   0  0  0  0  0  0  0  0  0  0  0  0
   62.4190   33.1110   50.6130 C   0  0  0  0  0  0  0  0  0  0  0  0
   61.3217   33.0599   50.5556 H   0  0  0  0  0  0  0  0  0  0  0  0
  1  2  1  0
  2  3  2  0
  3  4  1  0
  3  5  1  0
  5  6  1  0
  5  7  2  0
  7  8  1  0
  7  9  1  0
  9 10  1  0
 10 11  2  0
 11 12  1  0
 12 13  1  0
 12 14  2  0
 14 15  1  0
 14 16  1  0
 16 17  1  0
 17 18  2  0
 18 19  1  0
 19 20  1  0
 20 21  1  0
 20 22  1  0
 22 23  1  0
 22 24  1  0
 22 25  1  0
 25 26  1  0
 25 27  1  0
 25 28  1  0
 28 29  1  0
 29 30  1  0
 29 31  1  0
 29 32  1  0
 28 33  1  0
 33 34  1  0
 33 35  1  0
 33 36  1  0
 36 37  1  0
 36 38  1  0
 36 39  1  0
 19 40  2  0
 40 41  1  0
 41 42  1  0
 42 43  1  0
 42 44  1  0
 42 45  1  0
 40 46  1  0
 46 47  1  0
 46 48  2  0
 18 49  1  0
 49 50  1  0
 49 51  1  0
 51 52  2  0
 52 53  1  0
 52 54  1  0
 54 55  1  0
 54 56  2  0
 56 57  1  0
 56 58  1  0
 58 59  1  0
 58 60  2  0
  9 61  2  0
 61 62  1  0
 61  2  1  0
 48 11  1  0
 60 51  1  0
 60 16  1  0
 48 17  1  0
M  CHG  1  53  -1
M  END
>  <UniqueID>  (4) 
3

>  <SMILES>  (4) 
CCN(C)CCNc1c(OC)cc2/c(=N/c3cccc(Br)c3)ccn3c2c1Nc1c([O-])cccc1-3

>  <Energy>  (4) 
98.39447851903114

>  <Genealogy>  (4) 
CCN(C)CCNc1c(OC)cc2c(=Nc3cccc(Br)c3)ccn3c2c1Nc1c([O-])cccc1-3 (protonated)
CCN(C)CCNc1c(OC)cc2/c(=N/c3cccc(Br)c3)ccn3c2c1Nc1c([O-])cccc1-3 (cis-trans isomerization)
CCN(C)CCNc1c(OC)cc2/c(=N/c3cccc(Br)c3)ccn3c2c1Nc1c([O-])cccc1-3 (3D coordinates assigned)
CCN(C)CCNc1c(OC)cc2/c(=N/c3cccc(Br)c3)ccn3c2c1Nc1c([O-])cccc1-3 (nonaromatic ring conformer: 98.39447851903114 kcal/mol)

>  <smiles>  (4) 
CCN(C)CCNc1c(OC)cc2c(=Nc3cccc(Br)c3)ccn3c2c1Nc1c(O)cccc1-3

>  <score_type>  (4) 
oracle

>  <origin>  (4) 
adg

>  <m_score__min__energy>  (4) 
-10.789999999999999

>  <m_primary>  (4) 
energy

$$$$
4:0
     RDKit          3D

 44 46  0  0  0  0  0  0  0  0999 V2000
   56.3100   29.5850   42.6080 C   0  0  0  0  0  0  0  0  0  0  0  0
   57.0460   29.7540   43.9340 C   0  0  0  0  0  0  0  0  0  0  0  0
   56.5830   30.9160   44.6250 O   0  0  0  0  0  0  0  0  0  0  0  0
   57.3960   31.8670   45.2600 C   0  0  0  0  0  0  0  0  0  0  0  0
   57.3200   33.1960   44.8250 C   0  0  0  0  0  0  0  0  0  0  0  0
   58.1040   34.1880   45.4220 C   0  0  0  0  0  0  0  0  0  0  0  0
   58.9750   33.8650   46.4730 C   0  0  0  0  0  0  0  0  0  0  0  0
   59.8100   34.9380   47.1380 C   0  0  0  0  0  0  0  0  0  0  0  0
   60.2510   34.5540   48.4930 N   0  0  0  0  0  0  0  0  0  0  0  0
   61.6610   34.1110   48.5750 C   0  0  2  0  0  0  0  0  0  0  0  0
   62.2650   33.8440   47.1670 C   0  0  0  0  0  0  0  0  0  0  0  0
   63.6040   33.0590   47.1680 C   0  0  0  0  0  0  0  0  0  0  0  0
   64.1690   32.7930   48.5700 C   0  0  0  0  0  0  0  0  0  0  0  0
   63.0860   32.2400   49.4520 C   0  0  0  0  0  0  0  0  0  0  0  0
   63.3140   31.1500   50.2400 N   0  0  0  0  0  0  0  0  0  0  0  0
   62.3300   30.6140   51.0100 C   0  0  0  0  0  0  0  0  0  0  0  0
   61.0520   31.1730   51.0050 C   0  0  0  0  0  0  0  0  0  0  0  0
   60.7950   32.2940   50.2150 C   0  0  0  0  0  0  0  0  0  0  0  0
   61.8210   32.8560   49.4310 C   0  0  0  0  0  0  0  0  0  0  0  0
   59.0560   32.5340   46.9110 C   0  0  0  0  0  0  0  0  0  0  0  0
   58.2730   31.5430   46.3140 C   0  0  0  0  0  0  0  0  0  0  0  0
   55.2548   29.3427   42.8026 H   0  0  0  0  0  0  0  0  0  0  0  0
   56.3713   30.5206   42.0328 H   0  0  0  0  0  0  0  0  0  0  0  0
   56.7733   28.7699   42.0328 H   0  0  0  0  0  0  0  0  0  0  0  0
   56.8694   28.8672   44.5604 H   0  0  0  0  0  0  0  0  0  0  0  0
   58.1206   29.8693   43.7294 H   0  0  0  0  0  0  0  0  0  0  0  0
   56.6365   33.4622   44.0053 H   0  0  0  0  0  0  0  0  0  0  0  0
   58.0374   35.2266   45.0658 H   0  0  0  0  0  0  0  0  0  0  0  0
   60.6990   35.1274   46.5184 H   0  0  0  0  0  0  0  0  0  0  0  0
   59.1835   35.8371   47.2333 H   0  0  0  0  0  0  0  0  0  0  0  0
   60.1390   35.4080   49.0880 H   0  0  0  0  0  0  0  0  0  0  0  0
   62.2082   34.9376   49.0519 H   0  0  0  0  0  0  0  0  0  0  0  0
   61.5314   33.2675   46.5843 H   0  0  0  0  0  0  0  0  0  0  0  0
   62.4864   34.8308   46.7343 H   0  0  0  0  0  0  0  0  0  0  0  0
   63.4382   32.0911   46.6722 H   0  0  0  0  0  0  0  0  0  0  0  0
   64.3402   33.6835   46.6407 H   0  0  0  0  0  0  0  0  0  0  0  0
   64.9921   32.0666   48.5014 H   0  0  0  0  0  0  0  0  0  0  0  0
   64.5441   33.7344   48.9979 H   0  0  0  0  0  0  0  0  0  0  0  0
   64.2580   30.7040   50.2560 H   0  0  0  0  0  0  0  0  0  0  0  0
   62.5423   29.7368   51.6389 H   0  0  0  0  0  0  0  0  0  0  0  0
   60.2526   30.7332   51.6194 H   0  0  0  0  0  0  0  0  0  0  0  0
   59.7893   32.7395   50.2046 H   0  0  0  0  0  0  0  0  0  0  0  0
   59.7408   32.2693   47.7301 H   0  0  0  0  0  0  0  0  0  0  0  0
   58.3415   30.5040   46.6688 H   0  0  0  0  0  0  0  0  0  0  0  0
  1  2  1  0
  2  3  1  0
  3  4  1  0
  4  5  2  0
  5  6  1  0
  6  7  2  0
  7  8  1  0
  8  9  1  0
  9 10  1  0
 10 11  1  0
 11 12  1  0
 12 13  1  0
 13 14  1  0
 14 15  2  0
 15 16  1  0
 16 17  2  0
 17 18  1  0
 18 19  2  0
  7 20  1  0
 20 21  2  0
 21  4  1  0
 19 10  1  0
 19 14  1  0
  1 22  1  0
  1 23  1  0
  1 24  1  0
  2 25  1  0
  2 26  1  0
  5 27  1  0
  6 28  1  0
  8 29  1  0
  8 30  1  0
  9 31  1  0
 10 32  1  1
 11 33  1  0
 11 34  1  0
 12 35  1  0
 12 36  1  0
 13 37  1  0
 13 38  1  0
 15 39  1  0
 16 40  1  0
 17 41  1  0
 18 42  1  0
 20 43  1  0
 21 44  1  0
M  CHG  1  15   1
M  END
>  <UniqueID>  (5) 
4

>  <SMILES>  (5) 
CCOc1ccc(CN[C@@H]2CCCc3[nH+]cccc32)cc1

>  <Energy>  (5) 
53.72168272624494

>  <Genealogy>  (5) 
CCOc1ccc(CNC2CCCc3[nH+]cccc32)cc1 (protonated)
CCOc1ccc(CN[C@@H]2CCCc3[nH+]cccc32)cc1 (chirality)
CCOc1ccc(CN[C@@H]2CCCc3[nH+]cccc32)cc1 (3D coordinates assigned)
CCOc1ccc(CN[C@@H]2CCCc3[nH+]cccc32)cc1 (nonaromatic ring conformer: 53.72168272624494 kcal/mol)

>  <smiles>  (5) 
CCOc1ccc(CNC2CCCc3ncccc32)cc1

>  <score_type>  (5) 
oracle

>  <origin>  (5) 
adg

>  <m_score__min__energy>  (5) 
-5.96

>  <m_primary>  (5) 
energy

$$$$
5:0
     RDKit          3D

 43 45  0  0  0  0  0  0  0  0999 V2000
   65.4350   32.7240   49.8750 C   0  0  0  0  0  0  0  0  0  0  0  0
   64.2400   33.2550   49.0850 C   0  0  0  0  0  0  0  0  0  0  0  0
   63.7720   32.2750   48.0000 C   0  0  0  0  0  0  0  0  0  0  0  0
   62.3650   32.5680   47.5450 C   0  0  0  0  0  0  0  0  0  0  0  0
   61.3410   31.6010   47.7190 C   0  0  0  0  0  0  0  0  0  0  0  0
   60.0210   31.8760   47.3230 C   0  0  0  0  0  0  0  0  0  0  0  0
   59.7550   33.1210   46.7540 C   0  0  0  0  0  0  0  0  0  0  0  0
   58.5800   33.6810   46.2860 C   0  0  0  0  0  0  0  0  0  0  0  0
   57.2160   33.0500   46.2500 C   0  0  0  0  0  0  0  0  0  0  0  0
   56.9080   32.4180   44.8710 C   0  0  1  0  0  0  0  0  0  0  0  0
   57.9530   32.7580   43.8150 C   0  0  0  0  0  0  0  0  0  0  0  0
   57.8390   31.6320   42.8000 C   0  0  0  0  0  0  0  0  0  0  0  0
   56.8870   30.6120   43.4260 C   0  0  0  0  0  0  0  0  0  0  0  0
   56.7400   30.9490   44.8520 N   0  0  0  0  0  0  0  0  0  0  0  0
   57.7610   30.2240   45.6360 C   0  0  0  0  0  0  0  0  0  0  0  0
   58.9190   34.9670   45.8730 C   0  0  0  0  0  0  0  0  0  0  0  0
   60.2380   35.1920   46.0600 N   0  0  0  0  0  0  0  0  0  0  0  0
   60.7370   34.0640   46.5950 C   0  0  0  0  0  0  0  0  0  0  0  0
   62.0540   33.8250   46.9800 C   0  0  0  0  0  0  0  0  0  0  0  0
   65.2317   32.8143   50.9523 H   0  0  0  0  0  0  0  0  0  0  0  0
   65.6021   31.6669   49.6208 H   0  0  0  0  0  0  0  0  0  0  0  0
   66.3315   33.3084   49.6208 H   0  0  0  0  0  0  0  0  0  0  0  0
   63.4078   33.4342   49.7816 H   0  0  0  0  0  0  0  0  0  0  0  0
   64.5548   34.1828   48.5849 H   0  0  0  0  0  0  0  0  0  0  0  0
   64.4483   32.3521   47.1359 H   0  0  0  0  0  0  0  0  0  0  0  0
   63.7874   31.2615   48.4273 H   0  0  0  0  0  0  0  0  0  0  0  0
   61.5829   30.6265   48.1683 H   0  0  0  0  0  0  0  0  0  0  0  0
   59.2221   31.1320   47.4577 H   0  0  0  0  0  0  0  0  0  0  0  0
   57.1667   32.2656   47.0196 H   0  0  0  0  0  0  0  0  0  0  0  0
   56.4713   33.8375   46.4378 H   0  0  0  0  0  0  0  0  0  0  0  0
   55.9350   32.8749   44.6373 H   0  0  0  0  0  0  0  0  0  0  0  0
   57.7328   33.7288   43.3469 H   0  0  0  0  0  0  0  0  0  0  0  0
   58.9653   32.8436   44.2368 H   0  0  0  0  0  0  0  0  0  0  0  0
   57.4286   32.0094   41.8518 H   0  0  0  0  0  0  0  0  0  0  0  0
   58.8192   31.1883   42.5711 H   0  0  0  0  0  0  0  0  0  0  0  0
   55.9076   30.6593   42.9275 H   0  0  0  0  0  0  0  0  0  0  0  0
   57.2859   29.5933   43.3112 H   0  0  0  0  0  0  0  0  0  0  0  0
   57.5657   30.3627   46.7096 H   0  0  0  0  0  0  0  0  0  0  0  0
   57.7188   29.1524   45.3911 H   0  0  0  0  0  0  0  0  0  0  0  0
   58.7588   30.6171   45.3911 H   0  0  0  0  0  0  0  0  0  0  0  0
   58.2118   35.6975   45.4532 H   0  0  0  0  0  0  0  0  0  0  0  0
   60.7590   36.0700   45.8440 H   0  0  0  0  0  0  0  0  0  0  0  0
   62.8301   34.5933   46.8479 H   0  0  0  0  0  0  0  0  0  0  0  0
  1  2  1  0
  2  3  1  0
  3  4  1  0
  4  5  2  0
  5  6  1  0
  6  7  2  0
  7  8  1  0
  8  9  1  0
  9 10  1  0
 10 11  1  0
 11 12  1  0
 12 13  1  0
 13 14  1  0
 14 15  1  0
  8 16  2  0
 16 17  1  0
 17 18  1  0
 18 19  2  0
 19  4  1  0
 18  7  1  0
 14 10  1  0
  1 20  1  0
  1 21  1  0
  1 22  1  0
  2 23  1  0
  2 24  1  0
  3 25  1  0
  3 26  1  0
  5 27  1  0
  6 28  1  0
  9 29  1  0
  9 30  1  0
 10 31  1  6
 11 32  1  0
 11 33  1  0
 12 34  1  0
 12 35  1  0
 13 36  1  0
 13 37  1  0
 15 38  1  0
 15 39  1  0
 15 40  1  0
 16 41  1  0
 17 42  1  0
 19 43  1  0
M  END
>  <UniqueID>  (6) 
5

>  <SMILES>  (6) 
CCCc1ccc2c(C[C@H]3CCCN3C)c[nH]c2c1

>  <Energy>  (6) 
76.48910045079688

>  <Genealogy>  (6) 
CCCc1ccc2c(C[C@H]3CCCN3C)c[nH]c2c1 (chirality)
CCCc1ccc2c(C[C@H]3CCCN3C)c[nH]c2c1 (3D coordinates assigned)
CCCc1ccc2c(C[C@H]3CCCN3C)c[nH]c2c1 (nonaromatic ring conformer: 76.48910045079688 kcal/mol)

>  <smiles>  (6) 
CCCc1ccc2c(CC3CCCN3C)c[nH]c2c1

>  <score_type>  (6) 
oracle

>  <origin>  (6) 
adg

>  <m_score__min__energy>  (6) 
-7.5300000000000002

>  <m_primary>  (6) 
energy

$$$$
6:0
     RDKit          3D

 50 53  0  0  0  0  0  0  0  0999 V2000
   59.2740   33.4400   51.6790 C   0  0  0  0  0  0  0  0  0  0  0  0
   60.6970   33.4440   51.1340 C   0  0  0  0  0  0  0  0  0  0  0  0
   60.6920   33.7370   49.7020 N   0  0  0  0  0  0  0  0  0  0  0  0
   59.6440   34.1950   48.9770 C   0  0  0  0  0  0  0  0  0  0  0  0
   60.0310   34.2920   47.6450 C   0  0  0  0  0  0  0  0  0  0  0  0
   59.1990   34.8380   46.5240 C   0  0  0  0  0  0  0  0  0  0  0  0
   58.7540   33.7240   45.6210 C   0  0  0  0  0  0  0  0  0  0  0  0
   58.4670   33.8380   44.2650 C   0  0  0  0  0  0  0  0  0  0  0  0
   58.1380   32.6280   43.7550 N   0  0  0  0  0  0  0  0  0  0  0  0
   57.7960   32.3400   42.3650 C   0  0  0  0  0  0  0  0  0  0  0  0
   58.2190   31.7490   44.7750 C   0  0  0  0  0  0  0  0  0  0  0  0
   57.9850   30.3750   44.7380 C   0  0  0  0  0  0  0  0  0  0  0  0
   58.1360   29.6360   45.9370 C   0  0  0  0  0  0  0  0  0  0  0  0
   57.9190   28.2490   45.9830 O   0  0  0  0  0  0  0  0  0  0  0  0
   57.9290   27.3950   44.8450 C   0  0  0  0  0  0  0  0  0  0  0  0
   58.5160   30.2940   47.1330 C   0  0  0  0  0  0  0  0  0  0  0  0
   58.6560   29.5250   48.2980 O   0  0  0  0  0  0  0  0  0  0  0  0
   59.7130   28.5990   48.5290 C   0  0  0  0  0  0  0  0  0  0  0  0
   58.7430   31.6920   47.1310 C   0  0  0  0  0  0  0  0  0  0  0  0
   58.5910   32.3840   45.9300 C   0  0  0  0  0  0  0  0  0  0  0  0
   61.3170   33.8960   47.5570 N   0  0  0  0  0  0  0  0  0  0  0  0
   62.1610   33.8130   46.4980 C   0  0  0  0  0  0  0  0  0  0  0  0
   63.4610   33.3510   46.7320 C   0  0  0  0  0  0  0  0  0  0  0  0
   63.8310   32.9950   48.0420 C   0  0  0  0  0  0  0  0  0  0  0  0
   62.9370   33.1020   49.0700 N   0  0  0  0  0  0  0  0  0  0  0  0
   61.6840   33.5600   48.8030 C   0  0  0  0  0  0  0  0  0  0  0  0
   59.3025   33.4401   52.7786 H   0  0  0  0  0  0  0  0  0  0  0  0
   58.7436   34.3367   51.3259 H   0  0  0  0  0  0  0  0  0  0  0  0
   58.7486   32.5404   51.3259 H   0  0  0  0  0  0  0  0  0  0  0  0
   61.2844   34.2116   51.6592 H   0  0  0  0  0  0  0  0  0  0  0  0
   61.1438   32.4517   51.2942 H   0  0  0  0  0  0  0  0  0  0  0  0
   58.6507   34.4484   49.3759 H   0  0  0  0  0  0  0  0  0  0  0  0
   58.3153   35.3440   46.9400 H   0  0  0  0  0  0  0  0  0  0  0  0
   59.8014   35.5526   45.9439 H   0  0  0  0  0  0  0  0  0  0  0  0
   58.5022   34.7753   43.6903 H   0  0  0  0  0  0  0  0  0  0  0  0
   56.9549   31.6317   42.3335 H   0  0  0  0  0  0  0  0  0  0  0  0
   57.5092   33.2726   41.8572 H   0  0  0  0  0  0  0  0  0  0  0  0
   58.6662   31.8986   41.8572 H   0  0  0  0  0  0  0  0  0  0  0  0
   57.6907   29.8777   43.8020 H   0  0  0  0  0  0  0  0  0  0  0  0
   57.9413   26.3455   45.1743 H   0  0  0  0  0  0  0  0  0  0  0  0
   57.0286   27.5791   44.2405 H   0  0  0  0  0  0  0  0  0  0  0  0
   58.8248   27.6002   44.2405 H   0  0  0  0  0  0  0  0  0  0  0  0
   59.8586   28.4714   49.6118 H   0  0  0  0  0  0  0  0  0  0  0  0
   59.4566   27.6296   48.0768 H   0  0  0  0  0  0  0  0  0  0  0  0
   60.6403   28.9807   48.0768 H   0  0  0  0  0  0  0  0  0  0  0  0
   59.0317   32.2182   48.0528 H   0  0  0  0  0  0  0  0  0  0  0  0
   61.8338   34.0997   45.4877 H   0  0  0  0  0  0  0  0  0  0  0  0
   64.1818   33.2675   45.9053 H   0  0  0  0  0  0  0  0  0  0  0  0
   64.8486   32.6274   48.2404 H   0  0  0  0  0  0  0  0  0  0  0  0
   63.2240   32.8360   50.0370 H   0  0  0  0  0  0  0  0  0  0  0  0
  1  2  1  0
  2  3  1  0
  3  4  1  0
  4  5  2  0
  5  6  1  0
  6  7  1  0
  7  8  2  0
  8  9  1  0
  9 10  1  0
  9 11  1  0
 11 12  2  0
 12 13  1  0
 13 14  1  0
 14 15  1  0
 13 16  2  0
 16 17  1  0
 17 18  1  0
 16 19  1  0
 19 20  2  0
  5 21  1  0
 21 22  1  0
 22 23  2  0
 23 24  1  0
 24 25  2  0
 25 26  1  0
 26  3  2  0
 20  7  1  0
 26 21  1  0
 20 11  1  0
  1 27  1  0
  1 28  1  0
  1 29  1  0
  2 30  1  0
  2 31  1  0
  4 32  1  0
  6 33  1  0
  6 34  1  0
  8 35  1  0
 10 36  1  0
 10 37  1  0
 10 38  1  0
 12 39  1  0
 15 40  1  0
 15 41  1  0
 15 42  1  0
 18 43  1  0
 18 44  1  0
 18 45  1  0
 19 46  1  0
 22 47  1  0
 23 48  1  0
 24 49  1  0
 25 50  1  0
M  CHG  2   3   1  25   1
M  END
>  <UniqueID>  (7) 
6

>  <SMILES>  (7) 
CC[n+]1cc(Cc2cn(C)c3cc(OC)c(OC)cc23)n2ccc[nH+]c21

>  <Energy>  (7) 
117.0985660268216

>  <Genealogy>  (7) 
CC[n+]1cc(Cc2cn(C)c3cc(OC)c(OC)cc23)n2ccc[nH+]c21 (protonated)
CC[n+]1cc(Cc2cn(C)c3cc(OC)c(OC)cc23)n2ccc[nH+]c21 (3D coordinates assigned)
CC[n+]1cc(Cc2cn(C)c3cc(OC)c(OC)cc23)n2ccc[nH+]c21 (optimized conformer: 117.0985660268216 kcal/mol)

>  <smiles>  (7) 
CC[n+]1cc(Cc2cn(C)c3cc(OC)c(OC)cc23)n2cccnc21

>  <score_type>  (7) 
oracle

>  <origin>  (7) 
adg

>  <m_score__min__energy>  (7) 
-4.6200000000000001

>  <m_primary>  (7) 
energy

$$$$
7:0
     RDKit          3D

 47 50  0  0  0  0  0  0  0  0999 V2000
   55.5850   30.2850   52.2980 C   0  0  0  0  0  0  0  0  0  0  0  0
   56.0260   31.6800   52.1990 N   0  0  0  0  0  0  0  0  0  0  0  0
   57.3830   31.8500   52.7320 C   0  0  0  0  0  0  0  0  0  0  0  0
   58.3520   32.1160   51.6240 C   0  0  0  0  0  0  0  0  0  0  0  0
   57.9810   32.3460   50.3480 N   0  0  0  0  0  0  0  0  0  0  0  0
   59.0490   32.5080   49.5180 C   0  0  0  0  0  0  0  0  0  0  0  0
   58.8450   32.6850   48.0640 C   0  0  0  0  0  0  0  0  0  0  0  0
   58.9380   33.9670   47.5000 C   0  0  0  0  0  0  0  0  0  0  0  0
   58.7430   34.1540   46.1290 C   0  0  0  0  0  0  0  0  0  0  0  0
   58.4390   33.0630   45.3030 C   0  0  0  0  0  0  0  0  0  0  0  0
   58.2450   33.2410   43.9250 C   0  0  0  0  0  0  0  0  0  0  0  0
   57.9280   32.1470   43.1060 C   0  0  0  0  0  0  0  0  0  0  0  0
   57.7630   32.3370   41.6270 C   0  0  0  0  0  0  0  0  0  0  0  0
   57.8280   30.8660   43.6690 C   0  0  0  0  0  0  0  0  0  0  0  0
   58.0170   30.6790   45.0410 C   0  0  0  0  0  0  0  0  0  0  0  0
   58.3210   31.7700   45.8660 C   0  0  0  0  0  0  0  0  0  0  0  0
   58.5160   31.5930   47.2440 C   0  0  0  0  0  0  0  0  0  0  0  0
   60.2980   32.4110   50.1560 C   0  0  0  0  0  0  0  0  0  0  0  0
   61.6420   32.6150   49.5820 C   0  0  0  0  0  0  0  0  0  0  0  0
   62.8020   32.2600   50.2880 C   0  0  0  0  0  0  0  0  0  0  0  0
   64.0510   32.4600   49.6990 C   0  0  0  0  0  0  0  0  0  0  0  0
   64.1370   32.9920   48.4120 C   0  0  0  0  0  0  0  0  0  0  0  0
   62.9610   33.3100   47.7220 C   0  0  0  0  0  0  0  0  0  0  0  0
   63.0230   33.8710   46.3380 C   0  0  0  0  0  0  0  0  0  0  0  0
   61.7540   33.1110   48.3190 N   0  0  0  0  0  0  0  0  0  0  0  0
   60.0240   32.0830   51.7840 S   0  0  0  0  0  0  0  0  0  0  0  0
   55.4958   30.0029   53.3575 H   0  0  0  0  0  0  0  0  0  0  0  0
   54.6078   30.1735   51.8054 H   0  0  0  0  0  0  0  0  0  0  0  0
   56.3205   29.6321   51.8054 H   0  0  0  0  0  0  0  0  0  0  0  0
   56.0510   31.9240   51.1810 H   0  0  0  0  0  0  0  0  0  0  0  0
   57.3930   32.6978   53.4328 H   0  0  0  0  0  0  0  0  0  0  0  0
   57.6799   30.9261   53.2499 H   0  0  0  0  0  0  0  0  0  0  0  0
   59.1660   34.8307   48.1419 H   0  0  0  0  0  0  0  0  0  0  0  0
   58.8284   35.1616   45.6961 H   0  0  0  0  0  0  0  0  0  0  0  0
   58.3420   34.2441   43.4842 H   0  0  0  0  0  0  0  0  0  0  0  0
   57.0523   33.1554   41.4395 H   0  0  0  0  0  0  0  0  0  0  0  0
   58.7360   32.5864   41.1785 H   0  0  0  0  0  0  0  0  0  0  0  0
   57.3797   31.4086   41.1785 H   0  0  0  0  0  0  0  0  0  0  0  0
   57.5993   30.0030   43.0263 H   0  0  0  0  0  0  0  0  0  0  0  0
   57.9268   29.6721   45.4746 H   0  0  0  0  0  0  0  0  0  0  0  0
   58.4104   30.5912   47.6858 H   0  0  0  0  0  0  0  0  0  0  0  0
   62.7271   31.8279   51.2968 H   0  0  0  0  0  0  0  0  0  0  0  0
   64.9671   32.1985   50.2489 H   0  0  0  0  0  0  0  0  0  0  0  0
   65.1184   33.1598   47.9444 H   0  0  0  0  0  0  0  0  0  0  0  0
   63.1437   34.9631   46.3901 H   0  0  0  0  0  0  0  0  0  0  0  0
   63.8782   33.4327   45.8027 H   0  0  0  0  0  0  0  0  0  0  0  0
   62.0928   33.6300   45.8027 H   0  0  0  0  0  0  0  0  0  0  0  0
  1  2  1  0
  2  3  1  0
  3  4  1  0
  4  5  2  0
  5  6  1  0
  6  7  1  0
  7  8  2  0
  8  9  1  0
  9 10  2  0
 10 11  1  0
 11 12  2  0
 12 13  1  0
 12 14  1  0
 14 15  2  0
 15 16  1  0
 16 17  2  0
  6 18  2  0
 18 19  1  0
 19 20  2  0
 20 21  1  0
 21 22  2  0
 22 23  1  0
 23 24  1  0
 23 25  2  0
 18 26  1  0
 26  4  1  0
 17  7  1  0
 25 19  1  0
 16 10  1  0
  1 27  1  0
  1 28  1  0
  1 29  1  0
  2 30  1  0
  3 31  1  0
  3 32  1  0
  8 33  1  0
  9 34  1  0
 11 35  1  0
 13 36  1  0
 13 37  1  0
 13 38  1  0
 14 39  1  0
 15 40  1  0
 17 41  1  0
 20 42  1  0
 21 43  1  0
 22 44  1  0
 24 45  1  0
 24 46  1  0
 24 47  1  0
M  END
>  <UniqueID>  (8) 
7

>  <SMILES>  (8) 
CNCc1nc(-c2ccc3cc(C)ccc3c2)c(-c2cccc(C)n2)s1

>  <Energy>  (8) 
87.47715877066798

>  <Genealogy>  (8) 
CNCc1nc(-c2ccc3cc(C)ccc3c2)c(-c2cccc(C)n2)s1 (3D coordinates assigned)
CNCc1nc(-c2ccc3cc(C)ccc3c2)c(-c2cccc(C)n2)s1 (optimized conformer: 87.47715877066798 kcal/mol)

>  <smiles>  (8) 
CNCc1nc(-c2ccc3cc(C)ccc3c2)c(-c2cccc(C)n2)s1

>  <score_type>  (8) 
oracle

>  <origin>  (8) 
adg

>  <m_score__min__energy>  (8) 
-8.9900000000000002

>  <m_primary>  (8) 
energy

$$$$
8:0
     RDKit          3D

 56 59  0  0  0  0  0  0  0  0999 V2000
   55.9060   29.7870   43.0570 C   0  0  0  0  0  0  0  0  0  0  0  0
   55.9590   29.8170   44.4810 O   0  0  0  0  0  0  0  0  0  0  0  0
   57.1350   29.6820   45.2350 C   0  0  0  0  0  0  0  0  0  0  0  0
   58.0940   30.7100   45.3140 C   0  0  0  0  0  0  0  0  0  0  0  0
   59.2510   30.5400   46.0760 C   0  0  0  0  0  0  0  0  0  0  0  0
   59.4680   29.3480   46.7780 C   0  0  0  0  0  0  0  0  0  0  0  0
   60.7330   29.1540   47.5710 C   0  0  0  0  0  0  0  0  0  0  0  0
   60.7030   29.9990   48.8500 C   0  0  0  0  0  0  0  0  0  0  0  0
   61.5510   31.1990   48.6920 N   0  0  0  0  0  0  0  0  0  0  0  0
   62.5580   31.2780   49.7700 C   0  0  0  0  0  0  0  0  0  0  0  0
   63.6710   32.3040   49.4560 C   0  0  0  0  0  0  0  0  0  0  0  0
   63.2690   33.2770   48.4160 N   0  0  0  0  0  0  0  0  0  0  0  0
   62.2340   34.2270   48.8810 C   0  0  0  0  0  0  0  0  0  0  0  0
   61.0080   34.1330   48.0260 C   0  0  0  0  0  0  0  0  0  0  0  0
   59.7730   33.6390   48.4380 C   0  0  0  0  0  0  0  0  0  0  0  0
   58.9710   33.7700   47.3300 C   0  0  0  0  0  0  0  0  0  0  0  0
   57.6300   33.4500   47.1290 C   0  0  0  0  0  0  0  0  0  0  0  0
   57.0780   33.7080   45.8600 C   0  0  0  0  0  0  0  0  0  0  0  0
   57.8720   34.2740   44.8370 C   0  0  0  0  0  0  0  0  0  0  0  0
   59.2240   34.5860   45.0720 C   0  0  0  0  0  0  0  0  0  0  0  0
   59.7410   34.3190   46.3380 C   0  0  0  0  0  0  0  0  0  0  0  0
   60.9610   34.5320   46.7680 O   0  0  0  0  0  0  0  0  0  0  0  0
   62.8900   32.5960   47.1540 C   0  0  0  0  0  0  0  0  0  0  0  0
   62.2130   31.2280   47.3770 C   0  0  0  0  0  0  0  0  0  0  0  0
   58.5220   28.3160   46.6910 C   0  0  0  0  0  0  0  0  0  0  0  0
   57.3510   28.4780   45.9240 C   0  0  0  0  0  0  0  0  0  0  0  0
   56.3820   27.4690   45.8210 O   0  0  0  0  0  0  0  0  0  0  0  0
   56.6650   26.0730   45.8370 C   0  0  0  0  0  0  0  0  0  0  0  0
   54.9906   29.2689   42.7350 H   0  0  0  0  0  0  0  0  0  0  0  0
   55.9008   30.8161   42.6685 H   0  0  0  0  0  0  0  0  0  0  0  0
   56.7856   29.2528   42.6685 H   0  0  0  0  0  0  0  0  0  0  0  0
   57.9303   31.6530   44.7718 H   0  0  0  0  0  0  0  0  0  0  0  0
   59.9967   31.3471   46.1254 H   0  0  0  0  0  0  0  0  0  0  0  0
   60.8309   28.0923   47.8414 H   0  0  0  0  0  0  0  0  0  0  0  0
   61.5888   29.4707   46.9567 H   0  0  0  0  0  0  0  0  0  0  0  0
   59.6681   30.3104   49.0550 H   0  0  0  0  0  0  0  0  0  0  0  0
   61.0878   29.3965   49.6860 H   0  0  0  0  0  0  0  0  0  0  0  0
   62.0558   31.5745   50.7027 H   0  0  0  0  0  0  0  0  0  0  0  0
   63.0285   30.2883   49.8655 H   0  0  0  0  0  0  0  0  0  0  0  0
   63.9144   32.8532   50.3775 H   0  0  0  0  0  0  0  0  0  0  0  0
   64.5400   31.7477   49.0747 H   0  0  0  0  0  0  0  0  0  0  0  0
   61.9677   33.9902   49.9217 H   0  0  0  0  0  0  0  0  0  0  0  0
   62.6354   35.2489   48.8133 H   0  0  0  0  0  0  0  0  0  0  0  0
   59.5015   33.2360   49.4249 H   0  0  0  0  0  0  0  0  0  0  0  0
   57.0232   33.0107   47.9345 H   0  0  0  0  0  0  0  0  0  0  0  0
   56.0227   33.4677   45.6635 H   0  0  0  0  0  0  0  0  0  0  0  0
   57.4298   34.4722   43.8495 H   0  0  0  0  0  0  0  0  0  0  0  0
   59.8515   35.0258   44.2828 H   0  0  0  0  0  0  0  0  0  0  0  0
   62.1929   33.2446   46.6032 H   0  0  0  0  0  0  0  0  0  0  0  0
   63.8177   32.4121   46.5923 H   0  0  0  0  0  0  0  0  0  0  0  0
   61.4641   31.0600   46.5890 H   0  0  0  0  0  0  0  0  0  0  0  0
   62.9776   30.4380   47.3415 H   0  0  0  0  0  0  0  0  0  0  0  0
   58.6959   27.3711   47.2267 H   0  0  0  0  0  0  0  0  0  0  0  0
   56.7355   25.7251   46.8781 H   0  0  0  0  0  0  0  0  0  0  0  0
   55.8588   25.5295   45.3226 H   0  0  0  0  0  0  0  0  0  0  0  0
   57.6192   25.8864   45.3226 H   0  0  0  0  0  0  0  0  0  0  0  0
  1  2  1  0
  2  3  1  0
  3  4  2  0
  4  5  1  0
  5  6  2  0
  6  7  1  0
  7  8  1  0
  8  9  1  0
  9 10  1  0
 10 11  1  0
 11 12  1  0
 12 13  1  0
 13 14  1  0
 14 15  2  0
 15 16  1  0
 16 17  2  0
 17 18  1  0
 18 19  2  0
 19 20  1  0
 20 21  2  0
 21 22  1  0
 12 23  1  0
 23 24  1  0
  6 25  1  0
 25 26  2  0
 26 27  1  0
 27 28  1  0
 26  3  1  0
 24  9  1  0
 22 14  1  0
 21 16  1  0
  1 29  1  0
  1 30  1  0
  1 31  1  0
  4 32  1  0
  5 33  1  0
  7 34  1  0
  7 35  1  0
  8 36  1  0
  8 37  1  0
 10 38  1  0
 10 39  1  0
 11 40  1  0
 11 41  1  0
 13 42  1  0
 13 43  1  0
 15 44  1  0
 17 45  1  0
 18 46  1  0
 19 47  1  0
 20 48  1  0
 23 49  1  0
 23 50  1  0
 24 51  1  0
 24 52  1  0
 25 53  1  0
 28 54  1  0
 28 55  1  0
 28 56  1  0
M  END
>  <UniqueID>  (9) 
8

>  <SMILES>  (9) 
COc1ccc(CCN2CCN(Cc3cc4ccccc4o3)CC2)cc1OC

>  <Energy>  (9) 
100.73383408458969

>  <Genealogy>  (9) 
COc1ccc(CCN2CCN(Cc3cc4ccccc4o3)CC2)cc1OC (3D coordinates assigned)
COc1ccc(CCN2CCN(Cc3cc4ccccc4o3)CC2)cc1OC (nonaromatic ring conformer: 100.73383408458969 kcal/mol)

>  <smiles>  (9) 
COc1ccc(CCN2CCN(Cc3cc4ccccc4o3)CC2)cc1OC

>  <score_type>  (9) 
oracle

>  <origin>  (9) 
adg

>  <m_score__min__energy>  (9) 
-9.1400000000000006

>  <m_primary>  (9) 
energy

$$$$
9:0
     RDKit          3D

 66 68  0  0  0  0  0  0  0  0999 V2000
   64.4480   33.4330   50.5580 C   0  0  0  0  0  0  0  0  0  0  0  0
   64.5010   33.0360   49.0880 C   0  0  0  0  0  0  0  0  0  0  0  0
   63.6370   33.8570   48.3240 O   0  0  0  0  0  0  0  0  0  0  0  0
   63.4760   33.3630   47.0090 C   0  0  0  0  0  0  0  0  0  0  0  0
   62.1220   32.6570   46.8800 C   0  0  0  0  0  0  0  0  0  0  0  0
   62.1610   31.2500   47.4870 C   0  0  0  0  0  0  0  0  0  0  0  0
   60.9430   30.9910   48.2920 N   0  0  0  0  0  0  0  0  0  0  0  0
   61.1390   31.4080   49.7010 C   0  0  0  0  0  0  0  0  0  0  0  0
   61.1320   32.9350   49.8850 C   0  0  0  0  0  0  0  0  0  0  0  0
   59.7640   33.4960   49.8380 N   0  0  0  0  0  0  0  0  0  0  0  0
   59.2480   33.8360   51.1920 C   0  0  0  0  0  0  0  0  0  0  0  0
   58.4290   32.7360   51.8470 C   0  0  0  0  0  0  0  0  0  0  0  0
   58.4100   32.5890   53.2450 C   0  0  0  0  0  0  0  0  0  0  0  0
   57.6620   31.5620   53.8240 C   0  0  0  0  0  0  0  0  0  0  0  0
   56.9660   30.6950   53.0410 N   0  0  0  0  0  0  0  0  0  0  0  0
   56.9900   30.7930   51.6850 C   0  0  0  0  0  0  0  0  0  0  0  0
   57.7250   31.8060   51.0650 C   0  0  0  0  0  0  0  0  0  0  0  0
   59.6260   34.6090   48.8650 C   0  0  0  0  0  0  0  0  0  0  0  0
   59.1090   34.1250   47.5290 C   0  0  0  0  0  0  0  0  0  0  0  0
   59.5360   34.6970   46.3150 C   0  0  0  0  0  0  0  0  0  0  0  0
   59.1320   34.1500   45.0940 C   0  0  0  0  0  0  0  0  0  0  0  0
   58.3140   33.0190   45.0690 C   0  0  0  0  0  0  0  0  0  0  0  0
   57.7710   32.2680   43.3980 Br  0  0  0  0  0  0  0  0  0  0  0  0
   57.8870   32.4400   46.2660 C   0  0  0  0  0  0  0  0  0  0  0  0
   58.2830   32.9870   47.4900 C   0  0  0  0  0  0  0  0  0  0  0  0
   60.4650   29.5930   48.1430 C   0  0  0  0  0  0  0  0  0  0  0  0
   59.6960   29.3450   46.8650 C   0  0  0  0  0  0  0  0  0  0  0  0
   60.3670   29.1280   45.6510 C   0  0  0  0  0  0  0  0  0  0  0  0
   59.6270   28.8980   44.4900 C   0  0  0  0  0  0  0  0  0  0  0  0
   58.2330   28.8760   44.5470 C   0  0  0  0  0  0  0  0  0  0  0  0
   57.5960   29.0880   45.7720 C   0  0  0  0  0  0  0  0  0  0  0  0
   58.3330   29.3140   46.8920 N   0  0  0  0  0  0  0  0  0  0  0  0
   64.5677   32.5367   51.1844 H   0  0  0  0  0  0  0  0  0  0  0  0
   65.2593   34.1433   50.7755 H   0  0  0  0  0  0  0  0  0  0  0  0
   63.4788   33.9056   50.7755 H   0  0  0  0  0  0  0  0  0  0  0  0
   65.5307   33.1506   48.7184 H   0  0  0  0  0  0  0  0  0  0  0  0
   64.1785   31.9890   48.9891 H   0  0  0  0  0  0  0  0  0  0  0  0
   63.5203   34.2001   46.2968 H   0  0  0  0  0  0  0  0  0  0  0  0
   64.2810   32.6460   46.7901 H   0  0  0  0  0  0  0  0  0  0  0  0
   61.3582   33.2508   47.4033 H   0  0  0  0  0  0  0  0  0  0  0  0
   61.8819   32.5645   45.8105 H   0  0  0  0  0  0  0  0  0  0  0  0
   62.2221   30.5089   46.6764 H   0  0  0  0  0  0  0  0  0  0  0  0
   63.0407   31.1727   48.1429 H   0  0  0  0  0  0  0  0  0  0  0  0
   60.3292   30.9784   50.3091 H   0  0  0  0  0  0  0  0  0  0  0  0
   62.1282   31.0443   50.0161 H   0  0  0  0  0  0  0  0  0  0  0  0
   61.5809   33.1767   50.8597 H   0  0  0  0  0  0  0  0  0  0  0  0
   61.7078   33.3779   49.0589 H   0  0  0  0  0  0  0  0  0  0  0  0
   60.1074   34.0582   51.8417 H   0  0  0  0  0  0  0  0  0  0  0  0
   58.5733   34.6953   51.0638 H   0  0  0  0  0  0  0  0  0  0  0  0
   58.9824   33.2807   53.8805 H   0  0  0  0  0  0  0  0  0  0  0  0
   57.6356   31.4537   54.9183 H   0  0  0  0  0  0  0  0  0  0  0  0
   56.4130   29.9320   53.4900 H   0  0  0  0  0  0  0  0  0  0  0  0
   56.4282   30.0714   51.0737 H   0  0  0  0  0  0  0  0  0  0  0  0
   57.7523   31.8751   49.9675 H   0  0  0  0  0  0  0  0  0  0  0  0
   58.9236   35.3519   49.2708 H   0  0  0  0  0  0  0  0  0  0  0  0
   60.6209   35.0510   48.7073 H   0  0  0  0  0  0  0  0  0  0  0  0
   60.1918   35.5801   46.3279 H   0  0  0  0  0  0  0  0  0  0  0  0
   59.4593   34.6116   44.1507 H   0  0  0  0  0  0  0  0  0  0  0  0
   57.2380   31.5521   46.2456 H   0  0  0  0  0  0  0  0  0  0  0  0
   57.9463   32.5242   48.4294 H   0  0  0  0  0  0  0  0  0  0  0  0
   61.3382   28.9243   48.1579 H   0  0  0  0  0  0  0  0  0  0  0  0
   59.7733   29.3999   48.9762 H   0  0  0  0  0  0  0  0  0  0  0  0
   61.4664   29.1391   45.6151 H   0  0  0  0  0  0  0  0  0  0  0  0
   60.1419   28.7344   43.5318 H   0  0  0  0  0  0  0  0  0  0  0  0
   57.6421   28.6937   43.6373 H   0  0  0  0  0  0  0  0  0  0  0  0
   56.4977   29.0721   45.8305 H   0  0  0  0  0  0  0  0  0  0  0  0
  1  2  1  0
  2  3  1  0
  3  4  1  0
  4  5  1  0
  5  6  1  0
  6  7  1  0
  7  8  1  0
  8  9  1  0
  9 10  1  0
 10 11  1  0
 11 12  1  0
 12 13  2  0
 13 14  1  0
 14 15  2  0
 15 16  1  0
 16 17  2  0
 10 18  1  0
 18 19  1  0
 19 20  2  0
 20 21  1  0
 21 22  2  0
 22 23  1  0
 22 24  1  0
 24 25  2  0
  7 26  1  0
 26 27  1  0
 27 28  2  0
 28 29  1  0
 29 30  2  0
 30 31  1  0
 31 32  2  0
 17 12  1  0
 25 19  1  0
 32 27  1  0
  1 33  1  0
  1 34  1  0
  1 35  1  0
  2 36  1  0
  2 37  1  0
  4 38  1  0
  4 39  1  0
  5 40  1  0
  5 41  1  0
  6 42  1  0
  6 43  1  0
  8 44  1  0
  8 45  1  0
  9 46  1  0
  9 47  1  0
 11 48  1  0
 11 49  1  0
 13 50  1  0
 14 51  1  0
 15 52  1  0
 16 53  1  0
 17 54  1  0
 18 55  1  0
 18 56  1  0
 20 57  1  0
 21 58  1  0
 24 59  1  0
 25 60  1  0
 26 61  1  0
 26 62  1  0
 28 63  1  0
 29 64  1  0
 30 65  1  0
 31 66  1  0
M  CHG  1  15   1
M  END
>  <UniqueID>  (10) 
9

>  <SMILES>  (10) 
CCOCCCN(CCN(Cc1cc[nH+]cc1)Cc1ccc(Br)cc1)Cc1ccccn1

>  <Energy>  (10) 
72.80612866583418

>  <Genealogy>  (10) 
CCOCCCN(CCN(Cc1cc[nH+]cc1)Cc1ccc(Br)cc1)Cc1ccccn1 (protonated)
CCOCCCN(CCN(Cc1cc[nH+]cc1)Cc1ccc(Br)cc1)Cc1ccccn1 (3D coordinates assigned)
CCOCCCN(CCN(Cc1cc[nH+]cc1)Cc1ccc(Br)cc1)Cc1ccccn1 (optimized conformer: 72.80612866583418 kcal/mol)

>  <smiles>  (10) 
CCOCCCN(CCN(Cc1ccncc1)Cc1ccc(Br)cc1)Cc1ccccn1

>  <score_type>  (10) 
oracle

>  <origin>  (10) 
adg

>  <m_score__min__energy>  (10) 
-7.0999999999999996

>  <m_primary>  (10) 
energy

$$$$
10:0
     RDKit          3D

 56 56  0  0  0  0  0  0  0  0999 V2000
   63.0290   34.2040   50.6850 C   0  0  0  0  0  0  0  0  0  0  0  0
   63.0090   34.1450   49.1530 C   0  0  0  0  0  0  0  0  0  0  0  0
   62.7940   32.7740   48.6200 N   0  0  0  0  0  0  0  0  0  0  0  0
   63.3360   32.5820   47.2440 C   0  0  0  0  0  0  0  0  0  0  0  0
   63.3610   33.8450   46.3620 C   0  0  0  0  0  0  0  0  0  0  0  0
   63.1530   31.6720   49.5580 C   0  0  0  0  0  0  0  0  0  0  0  0
   62.0120   30.7140   49.9460 C   0  0  0  0  0  0  0  0  0  0  0  0
   61.0330   30.6960   48.9260 O   0  0  0  0  0  0  0  0  0  0  0  0
   60.2020   29.5540   49.0250 C   0  0  0  0  0  0  0  0  0  0  0  0
   58.8930   29.8580   49.7600 C   0  0  0  0  0  0  0  0  0  0  0  0
   58.4740   31.1800   49.4660 O   0  0  0  0  0  0  0  0  0  0  0  0
   58.2010   31.9130   50.6450 C   0  0  0  0  0  0  0  0  0  0  0  0
   59.2640   32.9910   50.8900 C   0  0  0  0  0  0  0  0  0  0  0  0
   60.0290   33.2600   49.6600 N   0  0  0  0  0  0  0  0  0  0  0  0
   59.6990   34.5600   49.0520 C   0  0  0  0  0  0  0  0  0  0  0  0
   60.0180   34.6010   47.5480 C   0  0  0  0  0  0  0  0  0  0  0  0
   60.2760   33.2830   47.0600 O   0  0  0  0  0  0  0  0  0  0  0  0
   59.3880   32.5160   46.2870 C   0  0  0  0  0  0  0  0  0  0  0  0
   58.3560   33.1790   45.6100 C   0  0  0  0  0  0  0  0  0  0  0  0
   57.4310   32.4610   44.8450 C   0  0  0  0  0  0  0  0  0  0  0  0
   57.5330   31.0700   44.7490 C   0  0  0  0  0  0  0  0  0  0  0  0
   56.2610   30.0850   43.7170 Br  0  0  0  0  0  0  0  0  0  0  0  0
   58.5670   30.4000   45.4080 C   0  0  0  0  0  0  0  0  0  0  0  0
   59.4940   31.1150   46.1720 C   0  0  0  0  0  0  0  0  0  0  0  0
   62.7011   33.2367   51.0935 H   0  0  0  0  0  0  0  0  0  0  0  0
   64.0507   34.4204   51.0303 H   0  0  0  0  0  0  0  0  0  0  0  0
   62.3495   34.9972   51.0303 H   0  0  0  0  0  0  0  0  0  0  0  0
   62.1974   34.7922   48.7893 H   0  0  0  0  0  0  0  0  0  0  0  0
   63.9958   34.4802   48.8012 H   0  0  0  0  0  0  0  0  0  0  0  0
   61.7550   32.6810   48.5050 H   0  0  0  0  0  0  0  0  0  0  0  0
   64.3674   32.2105   47.3342 H   0  0  0  0  0  0  0  0  0  0  0  0
   62.6546   31.8771   46.7452 H   0  0  0  0  0  0  0  0  0  0  0  0
   63.3787   34.7392   47.0024 H   0  0  0  0  0  0  0  0  0  0  0  0
   64.2590   33.8310   45.7269 H   0  0  0  0  0  0  0  0  0  0  0  0
   62.4631   33.8666   45.7269 H   0  0  0  0  0  0  0  0  0  0  0  0
   63.9475   31.0749   49.0866 H   0  0  0  0  0  0  0  0  0  0  0  0
   63.4544   32.1665   50.4932 H   0  0  0  0  0  0  0  0  0  0  0  0
   62.4167   29.7002   50.0814 H   0  0  0  0  0  0  0  0  0  0  0  0
   61.5523   31.0584   50.8841 H   0  0  0  0  0  0  0  0  0  0  0  0
   59.9656   29.1980   48.0114 H   0  0  0  0  0  0  0  0  0  0  0  0
   60.7441   28.7885   49.5996 H   0  0  0  0  0  0  0  0  0  0  0  0
   58.1181   29.1483   49.4348 H   0  0  0  0  0  0  0  0  0  0  0  0
   59.0534   29.7600   50.8438 H   0  0  0  0  0  0  0  0  0  0  0  0
   57.2173   32.3955   50.5472 H   0  0  0  0  0  0  0  0  0  0  0  0
   58.2101   31.2167   51.4965 H   0  0  0  0  0  0  0  0  0  0  0  0
   58.7694   33.9175   51.2171 H   0  0  0  0  0  0  0  0  0  0  0  0
   59.9573   32.6330   51.6654 H   0  0  0  0  0  0  0  0  0  0  0  0
   59.8460   32.4970   48.9660 H   0  0  0  0  0  0  0  0  0  0  0  0
   58.6249   34.7526   49.1908 H   0  0  0  0  0  0  0  0  0  0  0  0
   60.3129   35.3273   49.5464 H   0  0  0  0  0  0  0  0  0  0  0  0
   59.1605   35.0271   47.0066 H   0  0  0  0  0  0  0  0  0  0  0  0
   60.9111   35.2230   47.3883 H   0  0  0  0  0  0  0  0  0  0  0  0
   58.2725   34.2735   45.6807 H   0  0  0  0  0  0  0  0  0  0  0  0
   56.6232   32.9908   44.3189 H   0  0  0  0  0  0  0  0  0  0  0  0
   58.6519   29.3064   45.3254 H   0  0  0  0  0  0  0  0  0  0  0  0
   60.3086   30.5828   46.6850 H   0  0  0  0  0  0  0  0  0  0  0  0
  1  2  1  0
  2  3  1  0
  3  4  1  0
  4  5  1  0
  3  6  1  0
  6  7  1  0
  7  8  1  0
  8  9  1  0
  9 10  1  0
 10 11  1  0
 11 12  1  0
 12 13  1  0
 13 14  1  0
 14 15  1  0
 15 16  1  0
 16 17  1  0
 17 18  1  0
 18 19  2  0
 19 20  1  0
 20 21  2  0
 21 22  1  0
 21 23  1  0
 23 24  2  0
 24 18  1  0
  1 25  1  0
  1 26  1  0
  1 27  1  0
  2 28  1  0
  2 29  1  0
  3 30  1  0
  4 31  1  0
  4 32  1  0
  5 33  1  0
  5 34  1  0
  5 35  1  0
  6 36  1  0
  6 37  1  0
  7 38  1  0
  7 39  1  0
  9 40  1  0
  9 41  1  0
 10 42  1  0
 10 43  1  0
 12 44  1  0
 12 45  1  0
 13 46  1  0
 13 47  1  0
 14 48  1  0
 15 49  1  0
 15 50  1  0
 16 51  1  0
 16 52  1  0
 19 53  1  0
 20 54  1  0
 23 55  1  0
 24 56  1  0
M  CHG  1   3   1
M  END
>  <UniqueID>  (11) 
10

>  <SMILES>  (11) 
CC[NH+](CC)CCOCCOCCNCCOc1ccc(Br)cc1

>  <Energy>  (11) 
60.27325108353961

>  <Genealogy>  (11) 
CC[NH+](CC)CCOCCOCCNCCOc1ccc(Br)cc1 (protonated)
CC[NH+](CC)CCOCCOCCNCCOc1ccc(Br)cc1 (3D coordinates assigned)
CC[NH+](CC)CCOCCOCCNCCOc1ccc(Br)cc1 (optimized conformer: 60.27325108353961 kcal/mol)

>  <smiles>  (11) 
CCN(CC)CCOCCOCCNCCOc1ccc(Br)cc1

>  <score_type>  (11) 
oracle

>  <origin>  (11) 
adg

>  <m_score__min__energy>  (11) 
-3.2400000000000002

>  <m_primary>  (11) 
energy

$$$$
11:0
     RDKit          3D

 58 60  0  0  0  0  0  0  0  0999 V2000
   59.1630   34.6290   46.7880 C   0  0  0  0  0  0  0  0  0  0  0  0
   58.5370   33.9500   45.5680 C   0  0  0  0  0  0  0  0  0  0  0  0
   57.7580   32.6760   45.9390 C   0  0  0  0  0  0  0  0  0  0  0  0
   57.2080   31.9290   44.7080 C   0  0  0  0  0  0  0  0  0  0  0  0
   56.9880   30.4890   44.9950 N   0  0  0  0  0  0  0  0  0  0  0  0
   55.9200   29.9580   44.1120 C   0  0  0  0  0  0  0  0  0  0  0  0
   56.4850   29.7340   42.7120 C   0  0  0  0  0  0  0  0  0  0  0  0
   58.2520   29.7180   44.8610 C   0  0  0  0  0  0  0  0  0  0  0  0
   58.5420   28.8080   46.0900 C   0  0  2  0  0  0  0  0  0  0  0  0
   57.3680   28.1330   46.4700 O   0  0  0  0  0  0  0  0  0  0  0  0
   59.1580   29.5460   47.2700 C   0  0  0  0  0  0  0  0  0  0  0  0
   60.2830   30.3880   47.0990 C   0  0  0  0  0  0  0  0  0  0  0  0
   60.7560   31.1630   48.1710 C   0  0  0  0  0  0  0  0  0  0  0  0
   61.9360   32.0630   48.0290 C   0  0  0  0  0  0  0  0  0  0  0  0
   62.9740   32.0740   48.9840 C   0  0  0  0  0  0  0  0  0  0  0  0
   64.0660   32.9330   48.8300 C   0  0  0  0  0  0  0  0  0  0  0  0
   64.1350   33.7920   47.7300 C   0  0  0  0  0  0  0  0  0  0  0  0
   63.1130   33.7980   46.7820 C   0  0  0  0  0  0  0  0  0  0  0  0
   62.0190   32.9400   46.9280 C   0  0  0  0  0  0  0  0  0  0  0  0
   60.0880   31.1190   49.3590 N   0  0  0  0  0  0  0  0  0  0  0  0
   58.9980   30.3250   49.5700 C   0  0  0  0  0  0  0  0  0  0  0  0
   58.3080   30.3810   50.8770 C   0  0  0  0  0  0  0  0  0  0  0  0
   57.4780   31.4740   51.1840 C   0  0  0  0  0  0  0  0  0  0  0  0
   56.8190   31.5310   52.4140 C   0  0  0  0  0  0  0  0  0  0  0  0
   56.9950   30.5090   53.3560 C   0  0  0  0  0  0  0  0  0  0  0  0
   56.3500   30.5670   54.5440 F   0  0  0  0  0  0  0  0  0  0  0  0
   57.8330   29.4270   53.0690 C   0  0  0  0  0  0  0  0  0  0  0  0
   58.4850   29.3610   51.8350 C   0  0  0  0  0  0  0  0  0  0  0  0
   58.5160   29.5230   48.5240 C   0  0  0  0  0  0  0  0  0  0  0  0
   58.7525   34.1838   47.7063 H   0  0  0  0  0  0  0  0  0  0  0  0
   60.2536   34.4869   46.7674 H   0  0  0  0  0  0  0  0  0  0  0  0
   58.9329   35.7045   46.7674 H   0  0  0  0  0  0  0  0  0  0  0  0
   57.8469   34.6578   45.0855 H   0  0  0  0  0  0  0  0  0  0  0  0
   59.3539   33.6578   44.8918 H   0  0  0  0  0  0  0  0  0  0  0  0
   58.4308   32.0005   46.4877 H   0  0  0  0  0  0  0  0  0  0  0  0
   56.8968   32.9823   46.5510 H   0  0  0  0  0  0  0  0  0  0  0  0
   56.2512   32.3842   44.4124 H   0  0  0  0  0  0  0  0  0  0  0  0
   57.9482   32.0090   43.8983 H   0  0  0  0  0  0  0  0  0  0  0  0
   55.5506   29.0038   44.5157 H   0  0  0  0  0  0  0  0  0  0  0  0
   55.0912   30.6795   44.0628 H   0  0  0  0  0  0  0  0  0  0  0  0
   57.5051   29.3296   42.7887 H   0  0  0  0  0  0  0  0  0  0  0  0
   55.8476   29.0206   42.1692 H   0  0  0  0  0  0  0  0  0  0  0  0
   56.5096   30.6904   42.1692 H   0  0  0  0  0  0  0  0  0  0  0  0
   58.1830   29.0846   43.9643 H   0  0  0  0  0  0  0  0  0  0  0  0
   59.0746   30.4446   44.7879 H   0  0  0  0  0  0  0  0  0  0  0  0
   59.3033   28.0796   45.7739 H   0  0  0  0  0  0  0  0  0  0  0  0
   56.6070   28.7100   46.2070 H   0  0  0  0  0  0  0  0  0  0  0  0
   60.7886   30.4356   46.1233 H   0  0  0  0  0  0  0  0  0  0  0  0
   62.9239   31.4032   49.8544 H   0  0  0  0  0  0  0  0  0  0  0  0
   64.8735   32.9328   49.5770 H   0  0  0  0  0  0  0  0  0  0  0  0
   64.9973   34.4647   47.6119 H   0  0  0  0  0  0  0  0  0  0  0  0
   63.1674   34.4779   45.9190 H   0  0  0  0  0  0  0  0  0  0  0  0
   61.2154   32.9491   46.1769 H   0  0  0  0  0  0  0  0  0  0  0  0
   57.3475   32.2860   50.4535 H   0  0  0  0  0  0  0  0  0  0  0  0
   56.1597   32.3810   52.6439 H   0  0  0  0  0  0  0  0  0  0  0  0
   57.9785   28.6298   53.8129 H   0  0  0  0  0  0  0  0  0  0  0  0
   59.1410   28.5075   51.6090 H   0  0  0  0  0  0  0  0  0  0  0  0
   57.6392   28.8780   48.6828 H   0  0  0  0  0  0  0  0  0  0  0  0
  1  2  1  0
  2  3  1  0
  3  4  1  0
  4  5  1  0
  5  6  1  0
  6  7  1  0
  5  8  1  0
  8  9  1  0
  9 10  1  0
  9 11  1  0
 11 12  2  0
 12 13  1  0
 13 14  1  0
 14 15  2  0
 15 16  1  0
 16 17  2  0
 17 18  1  0
 18 19  2  0
 13 20  2  0
 20 21  1  0
 21 22  1  0
 22 23  2  0
 23 24  1  0
 24 25  2  0
 25 26  1  0
 25 27  1  0
 27 28  2  0
 21 29  2  0
 29 11  1  0
 19 14  1  0
 28 22  1  0
  1 30  1  0
  1 31  1  0
  1 32  1  0
  2 33  1  0
  2 34  1  0
  3 35  1  0
  3 36  1  0
  4 37  1  0
  4 38  1  0
  6 39  1  0
  6 40  1  0
  7 41  1  0
  7 42  1  0
  7 43  1  0
  8 44  1  0
  8 45  1  0
  9 46  1  6
 10 47  1  0
 12 48  1  0
 15 49  1  0
 16 50  1  0
 17 51  1  0
 18 52  1  0
 19 53  1  0
 23 54  1  0
 24 55  1  0
 27 56  1  0
 28 57  1  0
 29 58  1  0
M  END
>  <UniqueID>  (12) 
11

>  <SMILES>  (12) 
CCCCN(CC)C[C@H](O)c1cc(-c2ccccc2)nc(-c2ccc(F)cc2)c1

>  <Energy>  (12) 
67.17504943573647

>  <Genealogy>  (12) 
CCCCN(CC)C[C@H](O)c1cc(-c2ccccc2)nc(-c2ccc(F)cc2)c1 (chirality)
CCCCN(CC)C[C@H](O)c1cc(-c2ccccc2)nc(-c2ccc(F)cc2)c1 (3D coordinates assigned)
CCCCN(CC)C[C@H](O)c1cc(-c2ccccc2)nc(-c2ccc(F)cc2)c1 (optimized conformer: 67.17504943573647 kcal/mol)

>  <smiles>  (12) 
CCCCN(CC)CC(O)c1cc(-c2ccccc2)nc(-c2ccc(F)cc2)c1

>  <score_type>  (12) 
oracle

>  <origin>  (12) 
adg

>  <m_score__min__energy>  (12) 
-8.1699999999999999

>  <m_primary>  (12) 
energy

$$$$
12:0
     RDKit          3D

 44 46  0  0  1  0  0  0  0  0999 V2000
   60.2930   28.6160   48.7250 C   0  0  0  0  0  0  0  0  0  0  0  0
   59.7370   27.2920   48.2580 C   0  0  0  0  0  0  0  0  0  0  0  0
   58.6120   27.5060   47.3110 C   0  0  0  0  0  0  0  0  0  0  0  0
   57.6720   26.5290   47.0870 C   0  0  0  0  0  0  0  0  0  0  0  0
   56.6700   26.8260   46.1930 C   0  0  0  0  0  0  0  0  0  0  0  0
   55.7650   25.9380   45.9520 N   0  0  0  0  0  0  0  0  0  0  0  0
   56.1240   24.7870   45.1930 C   0  0  0  0  0  0  0  0  0  0  0  0
   57.3160   24.6900   44.5020 C   0  0  0  0  0  0  0  0  0  0  0  0
   57.5980   23.5370   43.7830 C   0  0  0  0  0  0  0  0  0  0  0  0
   56.6790   22.4920   43.7680 C   0  0  0  0  0  0  0  0  0  0  0  0
   56.9620   21.2370   43.0000 C   0  0  0  0  0  0  0  0  0  0  0  0
   56.0970   20.2150   43.3750 O   0  0  0  0  0  0  0  0  0  0  0  0
   55.4890   22.5880   44.4580 C   0  0  0  0  0  0  0  0  0  0  0  0
   55.1970   23.7390   45.1810 C   0  0  0  0  0  0  0  0  0  0  0  0
   56.6320   28.0430   45.5700 N   0  0  0  0  0  0  0  0  0  0  0  0
   57.5380   29.0000   45.7770 C   0  0  0  0  0  0  0  0  0  0  0  0
   57.6090   30.2940   45.1840 C   0  0  0  0  0  0  0  0  0  0  0  0
   58.2830   31.6580   45.9570 S   0  0  0  0  0  0  0  0  0  0  0  0
   57.9880   32.8360   44.6180 C   0  0  0  0  0  0  0  0  0  0  0  0
   58.3230   34.2550   44.5930 C   0  0  0  0  0  0  0  0  0  0  0  0
   57.3840   32.0320   43.6880 N   0  0  0  0  0  0  0  0  0  0  0  0
   57.1800   30.7880   43.9220 C   0  0  0  0  0  0  0  0  0  0  0  0
   56.5130   29.8980   42.8750 C   0  0  0  0  0  0  0  0  0  0  0  0
   58.5230   28.6750   46.6730 N   0  0  0  0  0  0  0  0  0  0  0  0
   60.3038   28.6418   49.8246 H   0  0  0  0  0  0  0  0  0  0  0  0
   61.3182   28.7376   48.3453 H   0  0  0  0  0  0  0  0  0  0  0  0
   59.6620   29.4331   48.3453 H   0  0  0  0  0  0  0  0  0  0  0  0
   60.5319   26.7231   47.7535 H   0  0  0  0  0  0  0  0  0  0  0  0
   59.3669   26.7335   49.1304 H   0  0  0  0  0  0  0  0  0  0  0  0
   57.7187   25.5561   47.5982 H   0  0  0  0  0  0  0  0  0  0  0  0
   58.0367   25.5208   44.5215 H   0  0  0  0  0  0  0  0  0  0  0  0
   58.5434   23.4495   43.2276 H   0  0  0  0  0  0  0  0  0  0  0  0
   56.8371   21.4373   41.9256 H   0  0  0  0  0  0  0  0  0  0  0  0
   57.9927   20.9196   43.2167 H   0  0  0  0  0  0  0  0  0  0  0  0
   56.6200   19.3930   43.5310 H   0  0  0  0  0  0  0  0  0  0  0  0
   54.7714   21.7546   44.4364 H   0  0  0  0  0  0  0  0  0  0  0  0
   54.2509   23.8246   45.7356 H   0  0  0  0  0  0  0  0  0  0  0  0
   55.8610   28.1770   44.9320 H   0  0  0  0  0  0  0  0  0  0  0  0
   58.4113   34.6291   45.6237 H   0  0  0  0  0  0  0  0  0  0  0  0
   59.2793   34.3968   44.0682 H   0  0  0  0  0  0  0  0  0  0  0  0
   57.5311   34.8095   44.0682 H   0  0  0  0  0  0  0  0  0  0  0  0
   55.9266   29.1155   43.3788 H   0  0  0  0  0  0  0  0  0  0  0  0
   55.8473   30.5074   42.2461 H   0  0  0  0  0  0  0  0  0  0  0  0
   57.2848   29.4302   42.2461 H   0  0  0  0  0  0  0  0  0  0  0  0
  1  2  1  0
  2  3  1  0
  3  4  2  0
  4  5  1  0
  5  6  2  0
  6  7  1  0
  7  8  2  0
  8  9  1  0
  9 10  2  0
 10 11  1  0
 11 12  1  0
 10 13  1  0
 13 14  2  0
  5 15  1  0
 15 16  1  0
 16 17  1  0
 17 18  1  0
 18 19  1  0
 19 20  1  0
 19 21  2  0
 21 22  1  0
 22 23  1  0
 16 24  2  0
 24  3  1  0
 14  7  1  0
 22 17  2  0
  1 25  1  0
  1 26  1  0
  1 27  1  0
  2 28  1  0
  2 29  1  0
  4 30  1  0
  8 31  1  0
  9 32  1  0
 11 33  1  0
 11 34  1  0
 12 35  1  0
 13 36  1  0
 14 37  1  0
 15 38  1  0
 20 39  1  0
 20 40  1  0
 20 41  1  0
 23 42  1  0
 23 43  1  0
 23 44  1  0
M  END
>  <smiles>  (13) 
CCc1cc(=Nc2ccc(CO)cc2)[nH]c(-c2sc(C)nc2C)n1

>  <score_type>  (13) 
oracle

>  <origin>  (13) 
adg

>  <m_score__min__energy>  (13) 
-8.2699999999999996

>  <m_primary>  (13) 
energy

$$$$
13:0
     RDKit          3D

 57 59  0  0  0  0  0  0  0  0999 V2000
   56.6620   23.1610   44.5860 C   0  0  0  0  0  0  0  0  0  0  0  0
   55.4800   24.0320   44.1760 C   0  0  0  0  0  0  0  0  0  0  0  0
   54.6770   24.7410   45.6100 S   0  0  0  0  0  0  0  0  0  0  0  0
   53.2110   24.8930   45.3210 O   0  0  0  0  0  0  0  0  0  0  0  0
   54.8410   23.8150   46.7810 O   0  0  0  0  0  0  0  0  0  0  0  0
   55.3300   26.2980   46.0180 N   0  0  0  0  0  0  0  0  0  0  0  0
   56.7040   26.4340   45.5330 C   0  0  0  0  0  0  0  0  0  0  0  0
   57.2800   27.7570   46.0320 C   0  0  0  0  0  0  0  0  0  0  0  0
   56.7880   28.8550   45.2650 O   0  0  0  0  0  0  0  0  0  0  0  0
   57.4190   30.0990   45.1080 C   0  0  0  0  0  0  0  0  0  0  0  0
   56.8850   30.9800   44.1640 C   0  0  0  0  0  0  0  0  0  0  0  0
   57.4010   32.2670   44.0220 C   0  0  0  0  0  0  0  0  0  0  0  0
   58.4810   32.6800   44.8090 C   0  0  0  0  0  0  0  0  0  0  0  0
   59.0980   31.7790   45.6970 C   0  0  0  0  0  0  0  0  0  0  0  0
   58.5410   30.4940   45.8660 C   0  0  0  0  0  0  0  0  0  0  0  0
   60.3080   32.3120   46.4590 C   0  0  2  0  0  0  0  0  0  0  0  0
   61.0040   31.3350   47.4460 C   0  0  0  0  0  0  0  0  0  0  0  0
   62.2350   31.9370   48.0880 C   0  0  0  0  0  0  0  0  0  0  0  0
   62.9990   32.8950   47.3950 C   0  0  0  0  0  0  0  0  0  0  0  0
   64.1370   33.4530   47.9830 C   0  0  0  0  0  0  0  0  0  0  0  0
   64.5140   33.0780   49.2740 C   0  0  0  0  0  0  0  0  0  0  0  0
   63.7440   32.1550   49.9840 C   0  0  0  0  0  0  0  0  0  0  0  0
   62.6020   31.5940   49.4010 C   0  0  0  0  0  0  0  0  0  0  0  0
   59.9170   33.6470   47.1480 C   0  0  2  0  0  0  0  0  0  0  0  0
   59.0570   33.3620   48.3150 N   0  0  0  0  0  0  0  0  0  0  0  0
   59.6690   33.8110   49.5680 C   0  0  0  0  0  0  0  0  0  0  0  0
   59.2340   34.6540   46.1560 C   0  0  0  0  0  0  0  0  0  0  0  0
   58.9930   34.0950   44.7380 C   0  0  0  0  0  0  0  0  0  0  0  0
   56.7218   23.1170   45.6835 H   0  0  0  0  0  0  0  0  0  0  0  0
   56.5258   22.1457   44.1852 H   0  0  0  0  0  0  0  0  0  0  0  0
   57.5914   23.5918   44.1852 H   0  0  0  0  0  0  0  0  0  0  0  0
   55.8397   24.8441   43.5270 H   0  0  0  0  0  0  0  0  0  0  0  0
   54.7517   23.4048   43.6411 H   0  0  0  0  0  0  0  0  0  0  0  0
   57.3130   25.6003   45.9126 H   0  0  0  0  0  0  0  0  0  0  0  0
   56.7127   26.4168   44.4332 H   0  0  0  0  0  0  0  0  0  0  0  0
   56.9948   27.8983   47.0850 H   0  0  0  0  0  0  0  0  0  0  0  0
   58.3746   27.7219   45.9284 H   0  0  0  0  0  0  0  0  0  0  0  0
   56.0494   30.6548   43.5268 H   0  0  0  0  0  0  0  0  0  0  0  0
   56.9583   32.9587   43.2901 H   0  0  0  0  0  0  0  0  0  0  0  0
   58.9838   29.7967   46.5924 H   0  0  0  0  0  0  0  0  0  0  0  0
   61.0890   32.4667   45.7000 H   0  0  0  0  0  0  0  0  0  0  0  0
   60.2896   31.0654   48.2378 H   0  0  0  0  0  0  0  0  0  0  0  0
   61.3245   30.4530   46.8721 H   0  0  0  0  0  0  0  0  0  0  0  0
   62.6980   33.2063   46.3838 H   0  0  0  0  0  0  0  0  0  0  0  0
   64.7370   34.1891   47.4278 H   0  0  0  0  0  0  0  0  0  0  0  0
   65.4167   33.5094   49.7312 H   0  0  0  0  0  0  0  0  0  0  0  0
   64.0358   31.8677   51.0049 H   0  0  0  0  0  0  0  0  0  0  0  0
   61.9890   30.8816   49.9726 H   0  0  0  0  0  0  0  0  0  0  0  0
   60.8373   34.1418   47.4917 H   0  0  0  0  0  0  0  0  0  0  0  0
   58.1270   33.8320   48.2030 H   0  0  0  0  0  0  0  0  0  0  0  0
   59.1070   33.3987   50.4190 H   0  0  0  0  0  0  0  0  0  0  0  0
   60.7111   33.4616   49.6129 H   0  0  0  0  0  0  0  0  0  0  0  0
   59.6485   34.9099   49.6129 H   0  0  0  0  0  0  0  0  0  0  0  0
   58.2618   34.9465   46.5793 H   0  0  0  0  0  0  0  0  0  0  0  0
   59.9278   35.5002   46.0438 H   0  0  0  0  0  0  0  0  0  0  0  0
   58.2514   34.7229   44.2225 H   0  0  0  0  0  0  0  0  0  0  0  0
   59.9446   34.1019   44.1863 H   0  0  0  0  0  0  0  0  0  0  0  0
  1  2  1  0
  2  3  1  0
  3  4  2  0
  3  5  2  0
  3  6  1  0
  6  7  1  0
  7  8  1  0
  8  9  1  0
  9 10  1  0
 10 11  2  0
 11 12  1  0
 12 13  2  0
 13 14  1  0
 14 15  2  0
 14 16  1  0
 16 17  1  0
 17 18  1  0
 18 19  2  0
 19 20  1  0
 20 21  2  0
 21 22  1  0
 22 23  2  0
 16 24  1  0
 24 25  1  0
 25 26  1  0
 24 27  1  0
 27 28  1  0
 15 10  1  0
 23 18  1  0
 28 13  1  0
  1 29  1  0
  1 30  1  0
  1 31  1  0
  2 32  1  0
  2 33  1  0
  7 34  1  0
  7 35  1  0
  8 36  1  0
  8 37  1  0
 11 38  1  0
 12 39  1  0
 15 40  1  0
 16 41  1  6
 17 42  1  0
 17 43  1  0
 19 44  1  0
 20 45  1  0
 21 46  1  0
 22 47  1  0
 23 48  1  0
 24 49  1  1
 25 50  1  0
 26 51  1  0
 26 52  1  0
 26 53  1  0
 27 54  1  0
 27 55  1  0
 28 56  1  0
 28 57  1  0
M  CHG  1   6  -1
M  END
>  <UniqueID>  (14) 
12

>  <SMILES>  (14) 
CCS(=O)(=O)[N-]CCOc1ccc2c(c1)[C@H](Cc1ccccc1)[C@H](NC)CC2

>  <Energy>  (14) 
58.64347459177402

>  <Genealogy>  (14) 
CCS(=O)(=O)[N-]CCOc1ccc2c(c1)C(Cc1ccccc1)C(NC)CC2 (protonated)
CCS(=O)(=O)[N-]CCOc1ccc2c(c1)[C@H](Cc1ccccc1)[C@H](NC)CC2 (chirality)
CCS(=O)(=O)[N-]CCOc1ccc2c(c1)[C@H](Cc1ccccc1)[C@H](NC)CC2 (3D coordinates assigned)
CCS(=O)(=O)[N-]CCOc1ccc2c(c1)[C@H](Cc1ccccc1)[C@H](NC)CC2 (nonaromatic ring conformer: 58.64347459177402 kcal/mol)

>  <smiles>  (14) 
CCS(=O)(=O)NCCOc1ccc2c(c1)C(Cc1ccccc1)C(NC)CC2

>  <score_type>  (14) 
oracle

>  <origin>  (14) 
adg

>  <m_score__min__energy>  (14) 
-11.41

>  <m_primary>  (14) 
energy

$$$$
14:0
     RDKit          3D

 59 61  0  0  0  0  0  0  0  0999 V2000
   58.1970   30.1030   50.9620 C   0  0  0  0  0  0  0  0  0  0  0  0
   58.9300   30.1940   49.6240 C   0  0  0  0  0  0  0  0  0  0  0  0
   60.2330   30.8860   49.7650 N   0  0  0  0  0  0  0  0  0  0  0  0
   61.3260   30.1900   49.0320 C   0  0  0  0  0  0  0  0  0  0  0  0
   60.7760   29.3600   47.8980 C   0  0  0  0  0  0  0  0  0  0  0  0
   60.3330   28.0500   48.1400 C   0  0  0  0  0  0  0  0  0  0  0  0
   59.7580   27.2950   47.1120 C   0  0  0  0  0  0  0  0  0  0  0  0
   59.6090   27.8430   45.8300 C   0  0  0  0  0  0  0  0  0  0  0  0
   58.8990   27.0650   44.7530 C   0  0  0  0  0  0  0  0  0  0  0  0
   57.5210   27.5480   44.5760 N   0  0  0  0  0  0  0  0  0  0  0  0
   57.4470   28.7640   43.7450 C   0  0  0  0  0  0  0  0  0  0  0  0
   56.3030   29.6580   44.2340 C   0  0  0  0  0  0  0  0  0  0  0  0
   56.7900   31.0320   44.4880 N   0  0  0  0  0  0  0  0  0  0  0  0
   57.7350   31.0410   45.6170 C   0  0  0  0  0  0  0  0  0  0  0  0
   57.4560   31.5820   43.2920 C   0  0  0  0  0  0  0  0  0  0  0  0
   60.0490   29.1540   45.5860 C   0  0  0  0  0  0  0  0  0  0  0  0
   60.6180   29.9090   46.6130 C   0  0  0  0  0  0  0  0  0  0  0  0
   60.1100   32.3320   49.4300 C   0  0  0  0  0  0  0  0  0  0  0  0
   58.6780   32.7540   48.9910 C   0  0  0  0  0  0  0  0  0  0  0  0
   58.8790   33.3360   47.6440 C   0  0  0  0  0  0  0  0  0  0  0  0
   57.8860   33.8450   46.8010 C   0  0  0  0  0  0  0  0  0  0  0  0
   58.2600   34.3570   45.5490 C   0  0  0  0  0  0  0  0  0  0  0  0
   59.6110   34.3530   45.1600 C   0  0  0  0  0  0  0  0  0  0  0  0
   60.5910   33.8380   46.0200 C   0  0  0  0  0  0  0  0  0  0  0  0
   60.1990   33.3350   47.2630 C   0  0  0  0  0  0  0  0  0  0  0  0
   61.0840   32.7530   48.2970 C   0  0  0  0  0  0  0  0  0  0  0  0
   58.9222   30.1930   51.7842 H   0  0  0  0  0  0  0  0  0  0  0  0
   57.4600   30.9165   51.0324 H   0  0  0  0  0  0  0  0  0  0  0  0
   57.6813   29.1339   51.0324 H   0  0  0  0  0  0  0  0  0  0  0  0
   59.1046   29.1773   49.2421 H   0  0  0  0  0  0  0  0  0  0  0  0
   58.3057   30.7720   48.9268 H   0  0  0  0  0  0  0  0  0  0  0  0
   62.0200   30.9400   48.6247 H   0  0  0  0  0  0  0  0  0  0  0  0
   61.8473   29.5220   49.7334 H   0  0  0  0  0  0  0  0  0  0  0  0
   60.4387   27.6143   49.1445 H   0  0  0  0  0  0  0  0  0  0  0  0
   59.4213   26.2668   47.3104 H   0  0  0  0  0  0  0  0  0  0  0  0
   59.4455   27.1812   43.8055 H   0  0  0  0  0  0  0  0  0  0  0  0
   58.8641   26.0065   45.0501 H   0  0  0  0  0  0  0  0  0  0  0  0
   56.9880   26.7870   44.0920 H   0  0  0  0  0  0  0  0  0  0  0  0
   58.3968   29.3141   43.8173 H   0  0  0  0  0  0  0  0  0  0  0  0
   57.2629   28.4783   42.6988 H   0  0  0  0  0  0  0  0  0  0  0  0
   55.5151   29.6894   43.4670 H   0  0  0  0  0  0  0  0  0  0  0  0
   55.9039   29.2435   45.1715 H   0  0  0  0  0  0  0  0  0  0  0  0
   57.1751   31.0357   46.5638 H   0  0  0  0  0  0  0  0  0  0  0  0
   58.3765   30.1489   45.5653 H   0  0  0  0  0  0  0  0  0  0  0  0
   58.3594   31.9451   45.5653 H   0  0  0  0  0  0  0  0  0  0  0  0
   58.2698   32.2541   43.6019 H   0  0  0  0  0  0  0  0  0  0  0  0
   57.8693   30.7585   42.6911 H   0  0  0  0  0  0  0  0  0  0  0  0
   56.7255   32.1435   42.6911 H   0  0  0  0  0  0  0  0  0  0  0  0
   59.9448   29.5881   44.5807 H   0  0  0  0  0  0  0  0  0  0  0  0
   60.9451   30.9406   46.4158 H   0  0  0  0  0  0  0  0  0  0  0  0
   60.3612   32.8440   50.3706 H   0  0  0  0  0  0  0  0  0  0  0  0
   58.0091   31.8819   48.9453 H   0  0  0  0  0  0  0  0  0  0  0  0
   58.2079   33.4583   49.6931 H   0  0  0  0  0  0  0  0  0  0  0  0
   56.8313   33.8441   47.1135 H   0  0  0  0  0  0  0  0  0  0  0  0
   57.4946   34.7622   44.8707 H   0  0  0  0  0  0  0  0  0  0  0  0
   59.9000   34.7552   44.1778 H   0  0  0  0  0  0  0  0  0  0  0  0
   61.6497   33.8301   45.7214 H   0  0  0  0  0  0  0  0  0  0  0  0
   61.6255   31.8806   47.9024 H   0  0  0  0  0  0  0  0  0  0  0  0
   61.8546   33.4585   48.6411 H   0  0  0  0  0  0  0  0  0  0  0  0
  1  2  1  0
  2  3  1  0
  3  4  1  0
  4  5  1  0
  5  6  2  0
  6  7  1  0
  7  8  2  0
  8  9  1  0
  9 10  1  0
 10 11  1  0
 11 12  1  0
 12 13  1  0
 13 14  1  0
 13 15  1  0
  8 16  1  0
 16 17  2  0
  3 18  1  0
 18 19  1  0
 19 20  1  0
 20 21  2  0
 21 22  1  0
 22 23  2  0
 23 24  1  0
 24 25  2  0
 25 26  1  0
 17  5  1  0
 26 18  1  0
 25 20  1  0
  1 27  1  0
  1 28  1  0
  1 29  1  0
  2 30  1  0
  2 31  1  0
  4 32  1  0
  4 33  1  0
  6 34  1  0
  7 35  1  0
  9 36  1  0
  9 37  1  0
 10 38  1  0
 11 39  1  0
 11 40  1  0
 12 41  1  0
 12 42  1  0
 14 43  1  0
 14 44  1  0
 14 45  1  0
 15 46  1  0
 15 47  1  0
 15 48  1  0
 16 49  1  0
 17 50  1  0
 18 51  1  0
 19 52  1  0
 19 53  1  0
 21 54  1  0
 22 55  1  0
 23 56  1  0
 24 57  1  0
 26 58  1  0
 26 59  1  0
M  END
>  <UniqueID>  (15) 
13

>  <SMILES>  (15) 
CCN(Cc1ccc(CNCCN(C)C)cc1)C1Cc2ccccc2C1

>  <Energy>  (15) 
70.33807309322958

>  <Genealogy>  (15) 
CCN(Cc1ccc(CNCCN(C)C)cc1)C1Cc2ccccc2C1 (3D coordinates assigned)
CCN(Cc1ccc(CNCCN(C)C)cc1)C1Cc2ccccc2C1 (nonaromatic ring conformer: 70.33807309322958 kcal/mol)

>  <smiles>  (15) 
CCN(Cc1ccc(CNCCN(C)C)cc1)C1Cc2ccccc2C1

>  <score_type>  (15) 
oracle

>  <origin>  (15) 
adg

>  <m_score__min__energy>  (15) 
-7.9199999999999999

>  <m_primary>  (15) 
energy

$$$$
15:0
     RDKit          3D

 50 51  0  0  0  0  0  0  0  0999 V2000
   64.1840   32.0630   49.2130 C   0  0  0  0  0  0  0  0  0  0  0  0
   63.7380   32.4400   47.8610 N   0  0  0  0  0  0  0  0  0  0  0  0
   62.8240   31.4290   47.3000 C   0  0  0  0  0  0  0  0  0  0  0  0
   63.2060   33.8290   47.7630 C   0  0  0  0  0  0  0  0  0  0  0  0
   62.0710   34.2250   48.7450 C   0  0  0  0  0  0  0  0  0  0  0  0
   60.6390   34.2270   48.1860 C   0  0  0  0  0  0  0  0  0  0  0  0
   60.5850   34.3560   46.6580 C   0  0  0  0  0  0  0  0  0  0  0  0
   59.4750   33.5080   46.0970 C   0  0  0  0  0  0  0  0  0  0  0  0
   58.6700   33.9900   45.0550 C   0  0  0  0  0  0  0  0  0  0  0  0
   57.6290   33.2070   44.5500 C   0  0  0  0  0  0  0  0  0  0  0  0
   57.3730   31.9340   45.0740 C   0  0  0  0  0  0  0  0  0  0  0  0
   56.3390   31.1780   44.4970 O   0  0  0  0  0  0  0  0  0  0  0  0
   56.2430   29.7510   44.4910 C   0  0  0  0  0  0  0  0  0  0  0  0
   57.3920   29.1150   43.6990 C   0  0  0  0  0  0  0  0  0  0  0  0
   58.4470   28.5250   44.5970 C   0  0  0  0  0  0  0  0  0  0  0  0
   58.0990   27.5600   45.5570 C   0  0  0  0  0  0  0  0  0  0  0  0
   59.0650   27.0560   46.4320 C   0  0  0  0  0  0  0  0  0  0  0  0
   60.3850   27.5100   46.3560 C   0  0  0  0  0  0  0  0  0  0  0  0
   60.7410   28.4670   45.4010 C   0  0  0  0  0  0  0  0  0  0  0  0
   59.7780   28.9710   44.5220 C   0  0  0  0  0  0  0  0  0  0  0  0
   58.1560   31.4690   46.1490 C   0  0  0  0  0  0  0  0  0  0  0  0
   59.2000   32.2500   46.6520 C   0  0  0  0  0  0  0  0  0  0  0  0
   63.5679   32.5838   49.9608 H   0  0  0  0  0  0  0  0  0  0  0  0
   64.0788   30.9759   49.3440 H   0  0  0  0  0  0  0  0  0  0  0  0
   65.2384   32.3478   49.3440 H   0  0  0  0  0  0  0  0  0  0  0  0
   64.5920   32.4140   47.2540 H   0  0  0  0  0  0  0  0  0  0  0  0
   62.3319   30.8847   48.1195 H   0  0  0  0  0  0  0  0  0  0  0  0
   62.0627   31.9262   46.6809 H   0  0  0  0  0  0  0  0  0  0  0  0
   63.3952   30.7216   46.6809 H   0  0  0  0  0  0  0  0  0  0  0  0
   64.0464   34.5180   47.9335 H   0  0  0  0  0  0  0  0  0  0  0  0
   62.7497   33.8880   46.7638 H   0  0  0  0  0  0  0  0  0  0  0  0
   62.0983   33.5181   49.5873 H   0  0  0  0  0  0  0  0  0  0  0  0
   62.2760   35.2717   49.0142 H   0  0  0  0  0  0  0  0  0  0  0  0
   60.1501   33.2848   48.4745 H   0  0  0  0  0  0  0  0  0  0  0  0
   60.1262   35.1050   48.6058 H   0  0  0  0  0  0  0  0  0  0  0  0
   60.4082   35.4079   46.3894 H   0  0  0  0  0  0  0  0  0  0  0  0
   61.5421   34.0134   46.2377 H   0  0  0  0  0  0  0  0  0  0  0  0
   58.8588   34.9884   44.6336 H   0  0  0  0  0  0  0  0  0  0  0  0
   57.0039   33.5946   43.7321 H   0  0  0  0  0  0  0  0  0  0  0  0
   56.2783   29.3858   45.5280 H   0  0  0  0  0  0  0  0  0  0  0  0
   55.2945   29.4704   44.0097 H   0  0  0  0  0  0  0  0  0  0  0  0
   56.9832   28.3170   43.0617 H   0  0  0  0  0  0  0  0  0  0  0  0
   57.8651   29.9059   43.0985 H   0  0  0  0  0  0  0  0  0  0  0  0
   57.0616   27.1996   45.6201 H   0  0  0  0  0  0  0  0  0  0  0  0
   58.7863   26.3009   47.1817 H   0  0  0  0  0  0  0  0  0  0  0  0
   61.1435   27.1143   47.0475 H   0  0  0  0  0  0  0  0  0  0  0  0
   61.7798   28.8237   45.3413 H   0  0  0  0  0  0  0  0  0  0  0  0
   60.0630   29.7199   43.7683 H   0  0  0  0  0  0  0  0  0  0  0  0
   57.9444   30.4859   46.5948 H   0  0  0  0  0  0  0  0  0  0  0  0
   59.8094   31.8758   47.4879 H   0  0  0  0  0  0  0  0  0  0  0  0
  1  2  1  0
  2  3  1  0
  2  4  1  0
  4  5  1  0
  5  6  1  0
  6  7  1  0
  7  8  1  0
  8  9  2  0
  9 10  1  0
 10 11  2  0
 11 12  1  0
 12 13  1  0
 13 14  1  0
 14 15  1  0
 15 16  2  0
 16 17  1  0
 17 18  2  0
 18 19  1  0
 19 20  2  0
 11 21  1  0
 21 22  2  0
 22  8  1  0
 20 15  1  0
  1 23  1  0
  1 24  1  0
  1 25  1  0
  2 26  1  0
  3 27  1  0
  3 28  1  0
  3 29  1  0
  4 30  1  0
  4 31  1  0
  5 32  1  0
  5 33  1  0
  6 34  1  0
  6 35  1  0
  7 36  1  0
  7 37  1  0
  9 38  1  0
 10 39  1  0
 13 40  1  0
 13 41  1  0
 14 42  1  0
 14 43  1  0
 16 44  1  0
 17 45  1  0
 18 46  1  0
 19 47  1  0
 20 48  1  0
 21 49  1  0
 22 50  1  0
M  CHG  1   2   1
M  END
>  <UniqueID>  (16) 
14

>  <SMILES>  (16) 
C[NH+](C)CCCCc1ccc(OCCc2ccccc2)cc1

>  <Energy>  (16) 
49.0784783799397

>  <Genealogy>  (16) 
C[NH+](C)CCCCc1ccc(OCCc2ccccc2)cc1 (protonated)
C[NH+](C)CCCCc1ccc(OCCc2ccccc2)cc1 (3D coordinates assigned)
C[NH+](C)CCCCc1ccc(OCCc2ccccc2)cc1 (optimized conformer: 49.0784783799397 kcal/mol)

>  <smiles>  (16) 
CN(C)CCCCc1ccc(OCCc2ccccc2)cc1

>  <score_type>  (16) 
oracle

>  <origin>  (16) 
adg

>  <m_score__min__energy>  (16) 
-6.2000000000000002

>  <m_primary>  (16) 
energy

$$$$
16:0
     RDKit          3D

 44 45  0  0  0  0  0  0  0  0999 V2000
   61.7320   31.2430   50.6250 C   0  0  0  0  0  0  0  0  0  0  0  0
   62.9310   31.2520   49.6760 C   0  0  0  0  0  0  0  0  0  0  0  0
   63.6880   32.5200   49.8040 N   0  0  0  0  0  0  0  0  0  0  0  0
   64.7680   32.3970   50.8120 C   0  0  0  0  0  0  0  0  0  0  0  0
   66.1260   32.6530   50.1650 C   0  0  0  0  0  0  0  0  0  0  0  0
   64.2250   32.9600   48.4920 C   0  0  0  0  0  0  0  0  0  0  0  0
   63.3550   32.4410   47.3460 C   0  0  0  0  0  0  0  0  0  0  0  0
   62.6630   33.8400   46.3950 S   0  0  0  0  0  0  0  0  0  0  0  0
   61.2700   34.0790   47.5000 C   0  0  0  0  0  0  0  0  0  0  0  0
   61.3660   33.9870   48.8400 N   0  0  0  0  0  0  0  0  0  0  0  0
   60.1250   34.2240   49.3040 C   0  0  0  0  0  0  0  0  0  0  0  0
   59.2850   34.4530   48.2310 C   0  0  0  0  0  0  0  0  0  0  0  0
   60.0110   34.3660   47.1000 N   0  0  0  0  0  0  0  0  0  0  0  0
   59.5100   34.4970   45.7320 C   0  0  0  0  0  0  0  0  0  0  0  0
   58.8290   33.2260   45.3030 C   0  0  0  0  0  0  0  0  0  0  0  0
   58.0940   33.1880   44.1060 C   0  0  0  0  0  0  0  0  0  0  0  0
   57.4300   32.0180   43.7250 C   0  0  0  0  0  0  0  0  0  0  0  0
   57.4890   30.8790   44.5370 C   0  0  0  0  0  0  0  0  0  0  0  0
   56.6500   29.4150   44.0610 Cl  0  0  0  0  0  0  0  0  0  0  0  0
   58.2160   30.9120   45.7310 C   0  0  0  0  0  0  0  0  0  0  0  0
   58.8840   32.0790   46.1130 C   0  0  0  0  0  0  0  0  0  0  0  0
   62.0881   31.2457   51.6658 H   0  0  0  0  0  0  0  0  0  0  0  0
   61.1159   32.1365   50.4460 H   0  0  0  0  0  0  0  0  0  0  0  0
   61.1294   30.3403   50.4460 H   0  0  0  0  0  0  0  0  0  0  0  0
   63.5934   30.4090   49.9223 H   0  0  0  0  0  0  0  0  0  0  0  0
   62.5660   31.1596   48.6424 H   0  0  0  0  0  0  0  0  0  0  0  0
   64.6028   33.1328   51.6128 H   0  0  0  0  0  0  0  0  0  0  0  0
   64.7555   31.3789   51.2282 H   0  0  0  0  0  0  0  0  0  0  0  0
   66.8845   32.7960   50.9488 H   0  0  0  0  0  0  0  0  0  0  0  0
   66.4026   31.7912   49.5399 H   0  0  0  0  0  0  0  0  0  0  0  0
   66.0699   33.5564   49.5399 H   0  0  0  0  0  0  0  0  0  0  0  0
   64.2440   34.0594   48.4607 H   0  0  0  0  0  0  0  0  0  0  0  0
   65.2410   32.5554   48.3738 H   0  0  0  0  0  0  0  0  0  0  0  0
   63.9673   31.8160   46.6793 H   0  0  0  0  0  0  0  0  0  0  0  0
   62.5285   31.8472   47.7634 H   0  0  0  0  0  0  0  0  0  0  0  0
   62.2210   33.7760   49.4010 H   0  0  0  0  0  0  0  0  0  0  0  0
   59.8283   34.2338   50.3632 H   0  0  0  0  0  0  0  0  0  0  0  0
   58.2081   34.6693   48.2904 H   0  0  0  0  0  0  0  0  0  0  0  0
   58.7903   35.3277   45.6868 H   0  0  0  0  0  0  0  0  0  0  0  0
   60.3562   34.6954   45.0578 H   0  0  0  0  0  0  0  0  0  0  0  0
   58.0408   34.0816   43.4667 H   0  0  0  0  0  0  0  0  0  0  0  0
   56.8597   31.9924   42.7847 H   0  0  0  0  0  0  0  0  0  0  0  0
   58.2623   30.0183   46.3706 H   0  0  0  0  0  0  0  0  0  0  0  0
   59.4557   32.0996   47.0525 H   0  0  0  0  0  0  0  0  0  0  0  0
  1  2  1  0
  2  3  1  0
  3  4  1  0
  4  5  1  0
  3  6  1  0
  6  7  1  0
  7  8  1  0
  8  9  1  0
  9 10  2  0
 10 11  1  0
 11 12  2  0
 12 13  1  0
 13 14  1  0
 14 15  1  0
 15 16  2  0
 16 17  1  0
 17 18  2  0
 18 19  1  0
 18 20  1  0
 20 21  2  0
 13  9  1  0
 21 15  1  0
  1 22  1  0
  1 23  1  0
  1 24  1  0
  2 25  1  0
  2 26  1  0
  4 27  1  0
  4 28  1  0
  5 29  1  0
  5 30  1  0
  5 31  1  0
  6 32  1  0
  6 33  1  0
  7 34  1  0
  7 35  1  0
 10 36  1  0
 11 37  1  0
 12 38  1  0
 14 39  1  0
 14 40  1  0
 16 41  1  0
 17 42  1  0
 20 43  1  0
 21 44  1  0
M  CHG  1  10   1
M  END
>  <UniqueID>  (17) 
15

>  <SMILES>  (17) 
CCN(CC)CCSc1[nH+]ccn1Cc1ccc(Cl)cc1

>  <Energy>  (17) 
64.72369934379472

>  <Genealogy>  (17) 
CCN(CC)CCSc1[nH+]ccn1Cc1ccc(Cl)cc1 (protonated)
CCN(CC)CCSc1[nH+]ccn1Cc1ccc(Cl)cc1 (3D coordinates assigned)
CCN(CC)CCSc1[nH+]ccn1Cc1ccc(Cl)cc1 (optimized conformer: 64.72369934379472 kcal/mol)

>  <smiles>  (17) 
CCN(CC)CCSc1nccn1Cc1ccc(Cl)cc1

>  <score_type>  (17) 
oracle

>  <origin>  (17) 
adg

>  <m_score__min__energy>  (17) 
-5.0300000000000002

>  <m_primary>  (17) 
energy

$$$$
17:0
     RDKit          3D

 32 34  0  0  0  0  0  0  0  0999 V2000
   54.2880   24.2610   45.9830 C   0  0  0  0  0  0  0  0  0  0  0  0
   55.4910   25.1160   45.7700 C   0  0  0  0  0  0  0  0  0  0  0  0
   56.6930   24.6410   45.3960 N   0  0  0  0  0  0  0  0  0  0  0  0
   57.4790   25.7280   45.2990 C   0  0  0  0  0  0  0  0  0  0  0  0
   56.7120   26.8350   45.6170 C   0  0  0  0  0  0  0  0  0  0  0  0
   57.1290   28.2480   45.6510 C   0  0  0  0  0  0  0  0  0  0  0  0
   58.3340   28.6550   46.2370 C   0  0  0  0  0  0  0  0  0  0  0  0
   58.6720   30.0060   46.2360 C   0  0  0  0  0  0  0  0  0  0  0  0
   57.8000   30.9340   45.6500 C   0  0  0  0  0  0  0  0  0  0  0  0
   58.1040   32.3430   45.6220 N   0  0  0  0  0  0  0  0  0  0  0  0
   58.7930   33.0210   46.7070 C   0  0  0  0  0  0  0  0  0  0  0  0
   58.7610   34.5020   46.3560 C   0  0  0  0  0  0  0  0  0  0  0  0
   58.4220   34.5720   44.8700 C   0  0  0  0  0  0  0  0  0  0  0  0
   57.7710   33.2380   44.5260 C   0  0  0  0  0  0  0  0  0  0  0  0
   56.6430   30.4820   45.0940 N   0  0  0  0  0  0  0  0  0  0  0  0
   56.3200   29.1880   45.0950 N   0  0  0  0  0  0  0  0  0  0  0  0
   55.4960   26.4240   45.9000 O   0  0  0  0  0  0  0  0  0  0  0  0
   54.1129   24.1366   47.0618 H   0  0  0  0  0  0  0  0  0  0  0  0
   53.4115   24.7399   45.5221 H   0  0  0  0  0  0  0  0  0  0  0  0
   54.4521   23.2758   45.5221 H   0  0  0  0  0  0  0  0  0  0  0  0
   56.9620   23.6480   45.2170 H   0  0  0  0  0  0  0  0  0  0  0  0
   58.5422   25.7357   45.0171 H   0  0  0  0  0  0  0  0  0  0  0  0
   59.0072   27.9146   46.6938 H   0  0  0  0  0  0  0  0  0  0  0  0
   59.6153   30.3421   46.6912 H   0  0  0  0  0  0  0  0  0  0  0  0
   58.2753   32.8420   47.6609 H   0  0  0  0  0  0  0  0  0  0  0  0
   59.8235   32.6545   46.8244 H   0  0  0  0  0  0  0  0  0  0  0  0
   57.9921   35.0192   46.9487 H   0  0  0  0  0  0  0  0  0  0  0  0
   59.7224   34.9898   46.5745 H   0  0  0  0  0  0  0  0  0  0  0  0
   57.7240   35.3996   44.6755 H   0  0  0  0  0  0  0  0  0  0  0  0
   59.3191   34.7525   44.2595 H   0  0  0  0  0  0  0  0  0  0  0  0
   56.6802   33.3537   44.4433 H   0  0  0  0  0  0  0  0  0  0  0  0
   58.1286   32.8488   43.5613 H   0  0  0  0  0  0  0  0  0  0  0  0
  1  2  1  0
  2  3  2  0
  3  4  1  0
  4  5  2  0
  5  6  1  0
  6  7  2  0
  7  8  1  0
  8  9  2  0
  9 10  1  0
 10 11  1  0
 11 12  1  0
 12 13  1  0
 13 14  1  0
  9 15  1  0
 15 16  2  0
  5 17  1  0
 17  2  1  0
 16  6  1  0
 14 10  1  0
  1 18  1  0
  1 19  1  0
  1 20  1  0
  3 21  1  0
  4 22  1  0
  7 23  1  0
  8 24  1  0
 11 25  1  0
 11 26  1  0
 12 27  1  0
 12 28  1  0
 13 29  1  0
 13 30  1  0
 14 31  1  0
 14 32  1  0
M  CHG  1   3   1
M  END
>  <UniqueID>  (18) 
16

>  <SMILES>  (18) 
Cc1[nH+]cc(-c2ccc(N3CCCC3)nn2)o1

>  <Energy>  (18) 
63.63257006940204

>  <Genealogy>  (18) 
Cc1[nH+]cc(-c2ccc(N3CCCC3)nn2)o1 (protonated)
Cc1[nH+]cc(-c2ccc(N3CCCC3)nn2)o1 (3D coordinates assigned)
Cc1[nH+]cc(-c2ccc(N3CCCC3)nn2)o1 (nonaromatic ring conformer: 63.63257006940204 kcal/mol)

>  <smiles>  (18) 
Cc1ncc(-c2ccc(N3CCCC3)nn2)o1

>  <score_type>  (18) 
oracle

>  <origin>  (18) 
adg

>  <m_score__min__energy>  (18) 
-4.7999999999999998

>  <m_primary>  (18) 
energy

$$$$
18:0
     RDKit          3D

 34 36  0  0  0  0  0  0  0  0999 V2000
   62.9140   32.7560   49.0580 C   0  0  0  0  0  0  0  0  0  0  0  0
   62.9150   32.3550   47.5810 C   0  0  0  0  0  0  0  0  0  0  0  0
   63.5230   33.4570   46.7090 C   0  0  0  0  0  0  0  0  0  0  0  0
   61.5460   32.0470   47.1420 N   0  0  0  0  0  0  0  0  0  0  0  0
   61.1390   30.8420   46.7510 N   0  0  0  0  0  0  0  0  0  0  0  0
   59.8420   30.9060   46.3720 C   0  0  0  0  0  0  0  0  0  0  0  0
   59.0800   29.7580   45.8520 C   0  0  0  0  0  0  0  0  0  0  0  0
   59.3530   28.6050   46.2800 O   0  0  0  0  0  0  0  0  0  0  0  0
   57.9800   29.9250   44.8850 C   0  0  0  0  0  0  0  0  0  0  0  0
   58.0100   30.7400   43.7590 C   0  0  0  0  0  0  0  0  0  0  0  0
   56.8490   30.6530   42.9810 C   0  0  0  0  0  0  0  0  0  0  0  0
   55.9080   29.7620   43.4770 C   0  0  0  0  0  0  0  0  0  0  0  0
   56.5230   29.0780   44.8840 S   0  0  0  0  0  0  0  0  0  0  0  0
   59.4250   32.2200   46.4980 C   0  0  0  0  0  0  0  0  0  0  0  0
   58.2370   32.8680   46.1560 C   0  0  0  0  0  0  0  0  0  0  0  0
   58.1640   34.2550   46.3690 C   0  0  0  0  0  0  0  0  0  0  0  0
   59.2720   34.9600   46.8880 C   0  0  0  0  0  0  0  0  0  0  0  0
   60.4690   34.2860   47.1930 C   0  0  0  0  0  0  0  0  0  0  0  0
   60.5120   32.9040   46.9840 C   0  0  0  0  0  0  0  0  0  0  0  0
   62.9163   31.8512   49.6836 H   0  0  0  0  0  0  0  0  0  0  0  0
   63.8107   33.3547   49.2760 H   0  0  0  0  0  0  0  0  0  0  0  0
   62.0144   33.3503   49.2760 H   0  0  0  0  0  0  0  0  0  0  0  0
   63.5379   31.4554   47.4680 H   0  0  0  0  0  0  0  0  0  0  0  0
   63.9539   34.2380   47.3527 H   0  0  0  0  0  0  0  0  0  0  0  0
   64.3123   33.0285   46.0739 H   0  0  0  0  0  0  0  0  0  0  0  0
   62.7395   33.8962   46.0739 H   0  0  0  0  0  0  0  0  0  0  0  0
   61.7360   29.9840   46.7350 H   0  0  0  0  0  0  0  0  0  0  0  0
   58.8612   31.3887   43.5046 H   0  0  0  0  0  0  0  0  0  0  0  0
   56.6970   31.2371   42.0614 H   0  0  0  0  0  0  0  0  0  0  0  0
   54.9287   29.5414   43.0272 H   0  0  0  0  0  0  0  0  0  0  0  0
   57.3869   32.3119   45.7341 H   0  0  0  0  0  0  0  0  0  0  0  0
   57.2365   34.7958   46.1296 H   0  0  0  0  0  0  0  0  0  0  0  0
   59.1988   36.0447   47.0552 H   0  0  0  0  0  0  0  0  0  0  0  0
   61.3426   34.8287   47.5832 H   0  0  0  0  0  0  0  0  0  0  0  0
  1  2  1  0
  2  3  1  0
  2  4  1  0
  4  5  1  0
  5  6  2  0
  6  7  1  0
  7  8  2  0
  7  9  1  0
  9 10  2  0
 10 11  1  0
 11 12  2  0
 12 13  1  0
  6 14  1  0
 14 15  2  0
 15 16  1  0
 16 17  2  0
 17 18  1  0
 18 19  2  0
 19  4  1  0
 13  9  1  0
 19 14  1  0
  1 20  1  0
  1 21  1  0
  1 22  1  0
  2 23  1  0
  3 24  1  0
  3 25  1  0
  3 26  1  0
  5 27  1  0
 10 28  1  0
 11 29  1  0
 12 30  1  0
 15 31  1  0
 16 32  1  0
 17 33  1  0
 18 34  1  0
M  CHG  1   5   1
M  END
>  <UniqueID>  (19) 
17

>  <SMILES>  (19) 
CC(C)n1[nH+]c(C(=O)c2cccs2)c2ccccc21

>  <Energy>  (19) 
101.63237966437966

>  <Genealogy>  (19) 
CC(C)n1[nH+]c(C(=O)c2cccs2)c2ccccc21 (protonated)
CC(C)n1[nH+]c(C(=O)c2cccs2)c2ccccc21 (3D coordinates assigned)
CC(C)n1[nH+]c(C(=O)c2cccs2)c2ccccc21 (optimized conformer: 101.63237966437966 kcal/mol)

>  <smiles>  (19) 
CC(C)n1nc(C(=O)c2cccs2)c2ccccc21

>  <score_type>  (19) 
oracle

>  <origin>  (19) 
adg

>  <m_score__min__energy>  (19) 
-5.75

>  <m_primary>  (19) 
energy

$$$$
19:0
     RDKit          3D

 42 43  0  0  0  0  0  0  0  0999 V2000
   60.7420   30.0910   46.5910 C   0  0  0  0  0  0  0  0  0  0  0  0
   60.3290   29.0820   45.6730 O   0  0  0  0  0  0  0  0  0  0  0  0
   59.0840   28.4300   45.7100 C   0  0  0  0  0  0  0  0  0  0  0  0
   57.9010   29.0510   45.2610 C   0  0  0  0  0  0  0  0  0  0  0  0
   56.6700   28.3680   45.3120 C   0  0  0  0  0  0  0  0  0  0  0  0
   55.4690   28.9660   44.8870 O   0  0  0  0  0  0  0  0  0  0  0  0
   55.3290   29.7490   43.7060 C   0  0  0  0  0  0  0  0  0  0  0  0
   56.6280   27.0500   45.7940 C   0  0  0  0  0  0  0  0  0  0  0  0
   55.3620   26.3740   45.8550 N   0  0  0  0  0  0  0  0  0  0  0  0
   55.1670   24.9620   45.9950 C   0  0  0  0  0  0  0  0  0  0  0  0
   55.5530   24.3600   47.0320 O   0  0  0  0  0  0  0  0  0  0  0  0
   54.5410   24.1860   44.8780 C   0  0  0  0  0  0  0  0  0  0  0  0
   55.6190   23.6920   43.8980 C   0  0  0  0  0  0  0  0  0  0  0  0
   55.9390   22.2530   44.0340 N   0  0  0  0  0  0  0  0  0  0  0  0
   57.2390   21.8420   43.4620 C   0  0  0  0  0  0  0  0  0  0  0  0
   58.3880   21.8590   44.4980 C   0  0  0  0  0  0  0  0  0  0  0  0
   57.9460   22.1310   45.8140 O   0  0  0  0  0  0  0  0  0  0  0  0
   56.8800   21.2720   46.1420 C   0  0  0  0  0  0  0  0  0  0  0  0
   55.6210   21.6590   45.3500 C   0  0  0  0  0  0  0  0  0  0  0  0
   57.8050   26.4430   46.2630 C   0  0  0  0  0  0  0  0  0  0  0  0
   59.0240   27.1250   46.2150 C   0  0  0  0  0  0  0  0  0  0  0  0
   60.4760   26.3280   46.8070 Cl  0  0  0  0  0  0  0  0  0  0  0  0
   60.5952   29.7324   47.6205 H   0  0  0  0  0  0  0  0  0  0  0  0
   61.8060   30.3194   46.4305 H   0  0  0  0  0  0  0  0  0  0  0  0
   60.1436   30.9999   46.4305 H   0  0  0  0  0  0  0  0  0  0  0  0
   57.9393   30.0775   44.8675 H   0  0  0  0  0  0  0  0  0  0  0  0
   55.1415   30.7974   43.9812 H   0  0  0  0  0  0  0  0  0  0  0  0
   56.2528   29.6853   43.1122 H   0  0  0  0  0  0  0  0  0  0  0  0
   54.4845   29.3692   43.1122 H   0  0  0  0  0  0  0  0  0  0  0  0
   54.0052   23.3201   45.2941 H   0  0  0  0  0  0  0  0  0  0  0  0
   53.8407   24.8401   44.3379 H   0  0  0  0  0  0  0  0  0  0  0  0
   55.2639   23.8725   42.8727 H   0  0  0  0  0  0  0  0  0  0  0  0
   56.5399   24.2472   44.1298 H   0  0  0  0  0  0  0  0  0  0  0  0
   57.1401   20.8209   43.0650 H   0  0  0  0  0  0  0  0  0  0  0  0
   57.4955   22.5659   42.6744 H   0  0  0  0  0  0  0  0  0  0  0  0
   58.8804   20.8754   44.4906 H   0  0  0  0  0  0  0  0  0  0  0  0
   59.0766   22.6671   44.2102 H   0  0  0  0  0  0  0  0  0  0  0  0
   57.1593   20.2367   45.8966 H   0  0  0  0  0  0  0  0  0  0  0  0
   56.6674   21.3596   47.2177 H   0  0  0  0  0  0  0  0  0  0  0  0
   55.0128   20.7563   45.1916 H   0  0  0  0  0  0  0  0  0  0  0  0
   55.0780   22.4157   45.9353 H   0  0  0  0  0  0  0  0  0  0  0  0
   57.7668   25.4224   46.6714 H   0  0  0  0  0  0  0  0  0  0  0  0
  1  2  1  0
  2  3  1  0
  3  4  2  0
  4  5  1  0
  5  6  1  0
  6  7  1  0
  5  8  2  0
  8  9  1  0
  9 10  1  0
 10 11  2  0
 10 12  1  0
 12 13  1  0
 13 14  1  0
 14 15  1  0
 15 16  1  0
 16 17  1  0
 17 18  1  0
 18 19  1  0
  8 20  1  0
 20 21  2  0
 21 22  1  0
 21  3  1  0
 19 14  1  0
  1 23  1  0
  1 24  1  0
  1 25  1  0
  4 26  1  0
  7 27  1  0
  7 28  1  0
  7 29  1  0
 12 30  1  0
 12 31  1  0
 13 32  1  0
 13 33  1  0
 15 34  1  0
 15 35  1  0
 16 36  1  0
 16 37  1  0
 18 38  1  0
 18 39  1  0
 19 40  1  0
 19 41  1  0
 20 42  1  0
M  CHG  1   9  -1
M  END
>  <UniqueID>  (20) 
18

>  <SMILES>  (20) 
COc1cc(OC)c([N-]C(=O)CCN2CCOCC2)cc1Cl

>  <Energy>  (20) 
56.923404446590425

>  <Genealogy>  (20) 
COc1cc(OC)c([N-]C(=O)CCN2CCOCC2)cc1Cl (protonated)
COc1cc(OC)c([N-]C(=O)CCN2CCOCC2)cc1Cl (3D coordinates assigned)
COc1cc(OC)c([N-]C(=O)CCN2CCOCC2)cc1Cl (nonaromatic ring conformer: 56.923404446590425 kcal/mol)

>  <smiles>  (20) 
COc1cc(OC)c(NC(=O)CCN2CCOCC2)cc1Cl

>  <score_type>  (20) 
oracle

>  <origin>  (20) 
adg

>  <m_score__min__energy>  (20) 
-9.1500000000000004

>  <m_primary>  (20) 
energy

$$$$
20:0
     RDKit          3D

 48 51  0  0  0  0  0  0  0  0999 V2000
   58.8620   30.8430   47.4280 O   0  0  0  0  0  0  0  0  0  0  0  0
   59.2550   32.0310   47.5740 C   0  0  0  0  0  0  0  0  0  0  0  0
   60.4470   32.4090   48.3570 C   0  0  0  0  0  0  0  0  0  0  0  0
   60.5480   33.9260   48.1370 C   0  0  0  0  0  0  0  0  0  0  0  0
   59.2650   34.3670   47.4030 C   0  0  0  0  0  0  0  0  0  0  0  0
   58.5900   33.1440   47.0080 N   0  0  0  0  0  0  0  0  0  0  0  0
   57.2980   33.0970   46.3220 C   0  0  0  0  0  0  0  0  0  0  0  0
   57.4720   33.2640   44.8090 C   0  0  0  0  0  0  0  0  0  0  0  0
   57.0660   32.0900   44.1060 O   0  0  0  0  0  0  0  0  0  0  0  0
   57.4810   30.7800   44.3920 C   0  0  0  0  0  0  0  0  0  0  0  0
   58.8150   30.3500   44.2330 C   0  0  0  0  0  0  0  0  0  0  0  0
   59.1760   29.0360   44.5430 C   0  0  0  0  0  0  0  0  0  0  0  0
   58.2120   28.1350   45.0130 C   0  0  0  0  0  0  0  0  0  0  0  0
   58.5390   26.8160   45.3360 C   0  0  0  0  0  0  0  0  0  0  0  0
   57.5430   25.9460   45.7970 C   0  0  0  0  0  0  0  0  0  0  0  0
   57.8980   24.5330   46.1870 C   0  0  0  0  0  0  0  0  0  0  0  0
   57.5320   23.5780   45.0830 C   0  0  0  0  0  0  0  0  0  0  0  0
   56.6070   23.9590   44.0950 C   0  0  0  0  0  0  0  0  0  0  0  0
   56.2940   23.0850   43.0490 C   0  0  0  0  0  0  0  0  0  0  0  0
   56.9040   21.8290   42.9780 C   0  0  0  0  0  0  0  0  0  0  0  0
   57.8310   21.4460   43.9520 C   0  0  0  0  0  0  0  0  0  0  0  0
   58.1470   22.3180   44.9990 C   0  0  0  0  0  0  0  0  0  0  0  0
   56.2320   26.4470   45.9350 C   0  0  0  0  0  0  0  0  0  0  0  0
   55.3060   25.7070   46.3610 O   0  0  0  0  0  0  0  0  0  0  0  0
   55.9560   27.7080   45.6180 O   0  0  0  0  0  0  0  0  0  0  0  0
   56.8770   28.5560   45.1690 C   0  0  0  0  0  0  0  0  0  0  0  0
   56.5210   29.8720   44.8550 C   0  0  0  0  0  0  0  0  0  0  0  0
   60.3093   32.1737   49.4227 H   0  0  0  0  0  0  0  0  0  0  0  0
   61.3538   31.8681   48.0487 H   0  0  0  0  0  0  0  0  0  0  0  0
   60.6250   34.4429   49.1049 H   0  0  0  0  0  0  0  0  0  0  0  0
   61.4414   34.1762   47.5461 H   0  0  0  0  0  0  0  0  0  0  0  0
   58.6243   34.9575   48.0744 H   0  0  0  0  0  0  0  0  0  0  0  0
   59.4955   34.9992   46.5329 H   0  0  0  0  0  0  0  0  0  0  0  0
   56.8188   32.1277   46.5239 H   0  0  0  0  0  0  0  0  0  0  0  0
   56.6732   33.9217   46.6956 H   0  0  0  0  0  0  0  0  0  0  0  0
   56.8610   34.1136   44.4700 H   0  0  0  0  0  0  0  0  0  0  0  0
   58.5373   33.4418   44.6003 H   0  0  0  0  0  0  0  0  0  0  0  0
   59.5756   31.0531   43.8628 H   0  0  0  0  0  0  0  0  0  0  0  0
   60.2187   28.7088   44.4177 H   0  0  0  0  0  0  0  0  0  0  0  0
   59.5749   26.4619   45.2287 H   0  0  0  0  0  0  0  0  0  0  0  0
   58.9796   24.4701   46.3773 H   0  0  0  0  0  0  0  0  0  0  0  0
   57.3389   24.2615   47.0945 H   0  0  0  0  0  0  0  0  0  0  0  0
   56.1279   24.9479   44.1449 H   0  0  0  0  0  0  0  0  0  0  0  0
   55.5666   23.3863   42.2808 H   0  0  0  0  0  0  0  0  0  0  0  0
   56.6546   21.1421   42.1558 H   0  0  0  0  0  0  0  0  0  0  0  0
   58.3121   20.4584   43.8949 H   0  0  0  0  0  0  0  0  0  0  0  0
   58.8809   22.0155   45.7605 H   0  0  0  0  0  0  0  0  0  0  0  0
   55.4766   30.1966   44.9730 H   0  0  0  0  0  0  0  0  0  0  0  0
  1  2  2  0
  2  3  1  0
  3  4  1  0
  4  5  1  0
  5  6  1  0
  6  7  1  0
  7  8  1  0
  8  9  1  0
  9 10  1  0
 10 11  2  0
 11 12  1  0
 12 13  2  0
 13 14  1  0
 14 15  2  0
 15 16  1  0
 16 17  1  0
 17 18  2  0
 18 19  1  0
 19 20  2  0
 20 21  1  0
 21 22  2  0
 15 23  1  0
 23 24  2  0
 23 25  1  0
 25 26  1  0
 26 27  2  0
  6  2  1  0
 27 10  1  0
 26 13  1  0
 22 17  1  0
  3 28  1  0
  3 29  1  0
  4 30  1  0
  4 31  1  0
  5 32  1  0
  5 33  1  0
  7 34  1  0
  7 35  1  0
  8 36  1  0
  8 37  1  0
 11 38  1  0
 12 39  1  0
 14 40  1  0
 16 41  1  0
 16 42  1  0
 18 43  1  0
 19 44  1  0
 20 45  1  0
 21 46  1  0
 22 47  1  0
 27 48  1  0
M  END
>  <UniqueID>  (21) 
19

>  <SMILES>  (21) 
O=C1CCCN1CCOc1ccc2cc(Cc3ccccc3)c(=O)oc2c1

>  <Energy>  (21) 
57.55081462340874

>  <Genealogy>  (21) 
O=C1CCCN1CCOc1ccc2cc(Cc3ccccc3)c(=O)oc2c1 (3D coordinates assigned)
O=C1CCCN1CCOc1ccc2cc(Cc3ccccc3)c(=O)oc2c1 (nonaromatic ring conformer: 57.55081462340874 kcal/mol)

>  <smiles>  (21) 
O=C1CCCN1CCOc1ccc2cc(Cc3ccccc3)c(=O)oc2c1

>  <score_type>  (21) 
oracle

>  <origin>  (21) 
adg

>  <m_score__min__energy>  (21) 
-9.2300000000000004

>  <m_primary>  (21) 
energy

$$$$
21:0
     RDKit          3D

 47 50  0  0  0  0  0  0  0  0999 V2000
   56.8570   27.2640   45.7200 C   0  0  0  0  0  0  0  0  0  0  0  0
   55.9900   28.2890   45.2470 O   0  0  0  0  0  0  0  0  0  0  0  0
   56.3970   29.3610   44.4380 C   0  0  0  0  0  0  0  0  0  0  0  0
   56.2110   29.3650   43.0420 C   0  0  0  0  0  0  0  0  0  0  0  0
   56.6430   30.4530   42.2800 C   0  0  0  0  0  0  0  0  0  0  0  0
   57.2580   31.5440   42.8980 C   0  0  0  0  0  0  0  0  0  0  0  0
   57.4390   31.5620   44.2890 C   0  0  0  0  0  0  0  0  0  0  0  0
   58.0770   32.6870   44.9180 N   0  0  0  0  0  0  0  0  0  0  0  0
   57.8900   33.9490   44.5510 N   0  0  0  0  0  0  0  0  0  0  0  0
   58.5970   34.7580   45.3670 C   0  0  0  0  0  0  0  0  0  0  0  0
   59.2610   33.9660   46.2810 C   0  0  0  0  0  0  0  0  0  0  0  0
   58.9020   32.6800   45.9870 C   0  0  0  0  0  0  0  0  0  0  0  0
   59.3360   31.5190   46.8210 C   0  0  0  0  0  0  0  0  0  0  0  0
   59.7800   32.0310   48.2030 C   0  0  0  0  0  0  0  0  0  0  0  0
   60.7450   33.1630   48.0730 N   0  0  0  0  0  0  0  0  0  0  0  0
   61.4190   33.4260   49.3860 C   0  0  1  0  0  0  0  0  0  0  0  0
   62.0030   32.1110   49.9420 C   0  0  0  0  0  0  0  0  0  0  0  0
   63.1120   31.5830   49.0190 C   0  0  0  0  0  0  0  0  0  0  0  0
   63.8590   32.7380   48.3300 C   0  0  0  0  0  0  0  0  0  0  0  0
   63.9010   33.8760   49.1660 O   0  0  0  0  0  0  0  0  0  0  0  0
   62.6110   34.4510   49.3470 C   0  0  0  0  0  0  0  0  0  0  0  0
   60.0640   34.3510   47.4850 C   0  0  0  0  0  0  0  0  0  0  0  0
   57.0130   30.4590   45.0500 C   0  0  0  0  0  0  0  0  0  0  0  0
   56.8578   27.2631   46.8200 H   0  0  0  0  0  0  0  0  0  0  0  0
   56.5059   26.2884   45.3528 H   0  0  0  0  0  0  0  0  0  0  0  0
   57.8774   27.4484   45.3528 H   0  0  0  0  0  0  0  0  0  0  0  0
   55.7245   28.5095   42.5507 H   0  0  0  0  0  0  0  0  0  0  0  0
   56.4983   30.4505   41.1896 H   0  0  0  0  0  0  0  0  0  0  0  0
   57.6024   32.3940   42.2906 H   0  0  0  0  0  0  0  0  0  0  0  0
   57.2860   34.2620   43.7570 H   0  0  0  0  0  0  0  0  0  0  0  0
   58.6370   35.8559   45.3131 H   0  0  0  0  0  0  0  0  0  0  0  0
   58.4976   30.8169   46.9400 H   0  0  0  0  0  0  0  0  0  0  0  0
   60.1738   31.0021   46.3301 H   0  0  0  0  0  0  0  0  0  0  0  0
   58.8958   32.3750   48.7596 H   0  0  0  0  0  0  0  0  0  0  0  0
   60.2773   31.2079   48.7370 H   0  0  0  0  0  0  0  0  0  0  0  0
   60.6247   33.8609   50.0105 H   0  0  0  0  0  0  0  0  0  0  0  0
   62.4216   32.2951   50.9424 H   0  0  0  0  0  0  0  0  0  0  0  0
   61.2003   31.3611   49.9993 H   0  0  0  0  0  0  0  0  0  0  0  0
   63.8275   30.9983   49.6158 H   0  0  0  0  0  0  0  0  0  0  0  0
   62.6499   30.9550   48.2431 H   0  0  0  0  0  0  0  0  0  0  0  0
   64.8869   32.4186   48.1033 H   0  0  0  0  0  0  0  0  0  0  0  0
   63.3270   32.9998   47.4035 H   0  0  0  0  0  0  0  0  0  0  0  0
   62.6155   35.0037   50.2981 H   0  0  0  0  0  0  0  0  0  0  0  0
   62.4357   35.0888   48.4681 H   0  0  0  0  0  0  0  0  0  0  0  0
   59.3945   34.7917   48.2384 H   0  0  0  0  0  0  0  0  0  0  0  0
   60.8298   35.0787   47.1783 H   0  0  0  0  0  0  0  0  0  0  0  0
   57.1656   30.4589   46.1394 H   0  0  0  0  0  0  0  0  0  0  0  0
  1  2  1  0
  2  3  1  0
  3  4  2  0
  4  5  1  0
  5  6  2  0
  6  7  1  0
  7  8  1  0
  8  9  1  0
  9 10  2  0
 10 11  1  0
 11 12  2  0
 12 13  1  0
 13 14  1  0
 14 15  1  0
 15 16  1  0
 16 17  1  0
 17 18  1  0
 18 19  1  0
 19 20  1  0
 20 21  1  0
 15 22  1  0
  7 23  2  0
 23  3  1  0
 12  8  1  0
 21 16  1  0
 22 11  1  0
  1 24  1  0
  1 25  1  0
  1 26  1  0
  4 27  1  0
  5 28  1  0
  6 29  1  0
  9 30  1  0
 10 31  1  0
 13 32  1  0
 13 33  1  0
 14 34  1  0
 14 35  1  0
 16 36  1  1
 17 37  1  0
 17 38  1  0
 18 39  1  0
 18 40  1  0
 19 41  1  0
 19 42  1  0
 21 43  1  0
 21 44  1  0
 22 45  1  0
 22 46  1  0
 23 47  1  0
M  CHG  1   9   1
M  END
>  <UniqueID>  (22) 
20

>  <SMILES>  (22) 
COc1cccc(-n2[nH+]cc3c2CCN([C@H]2CCCOC2)C3)c1

>  <Energy>  (22) 
107.18801280745515

>  <Genealogy>  (22) 
COc1cccc(-n2[nH+]cc3c2CCN(C2CCCOC2)C3)c1 (protonated)
COc1cccc(-n2[nH+]cc3c2CCN([C@H]2CCCOC2)C3)c1 (chirality)
COc1cccc(-n2[nH+]cc3c2CCN([C@H]2CCCOC2)C3)c1 (3D coordinates assigned)
COc1cccc(-n2[nH+]cc3c2CCN([C@H]2CCCOC2)C3)c1 (nonaromatic ring conformer: 107.18801280745515 kcal/mol)

>  <smiles>  (22) 
COc1cccc(-n2ncc3c2CCN(C2CCCOC2)C3)c1

>  <score_type>  (22) 
oracle

>  <origin>  (22) 
adg

>  <m_score__min__energy>  (22) 
-6.7199999999999998

>  <m_primary>  (22) 
energy

$$$$
22:0
     RDKit          3D

 42 42  0  0  0  0  0  0  0  0999 V2000
   57.0190   33.4970   45.2440 C   0  0  0  0  0  0  0  0  0  0  0  0
   58.1810   32.7020   45.7710 C   0  0  0  0  0  0  0  0  0  0  0  0
   59.3070   33.3620   46.2900 C   0  0  0  0  0  0  0  0  0  0  0  0
   60.3910   32.6300   46.7820 C   0  0  0  0  0  0  0  0  0  0  0  0
   61.7920   33.4640   47.4290 Cl  0  0  0  0  0  0  0  0  0  0  0  0
   60.3580   31.2350   46.7590 C   0  0  0  0  0  0  0  0  0  0  0  0
   59.2440   30.5670   46.2460 C   0  0  0  0  0  0  0  0  0  0  0  0
   58.1420   31.2930   45.7480 C   0  0  0  0  0  0  0  0  0  0  0  0
   57.0030   30.6590   45.2210 O   0  0  0  0  0  0  0  0  0  0  0  0
   56.5550   30.7360   43.8670 C   0  0  0  0  0  0  0  0  0  0  0  0
   56.9430   29.4630   43.0970 C   0  0  0  0  0  0  0  0  0  0  0  0
   57.3710   28.3760   43.9970 N   0  0  0  0  0  0  0  0  0  0  0  0
   58.8440   28.2330   44.0800 C   0  0  0  0  0  0  0  0  0  0  0  0
   59.2840   27.3090   45.2320 C   0  0  0  0  0  0  0  0  0  0  0  0
   58.0950   26.9200   46.1420 C   0  0  0  0  0  0  0  0  0  0  0  0
   56.9590   26.2970   45.4260 N   0  0  0  0  0  0  0  0  0  0  0  0
   57.3800   25.2580   44.4740 C   0  0  0  0  0  0  0  0  0  0  0  0
   55.9120   25.7980   46.3320 C   0  0  0  0  0  0  0  0  0  0  0  0
   56.4355   33.8962   46.0867 H   0  0  0  0  0  0  0  0  0  0  0  0
   57.3928   34.3295   44.6298 H   0  0  0  0  0  0  0  0  0  0  0  0
   56.3785   32.8470   44.6298 H   0  0  0  0  0  0  0  0  0  0  0  0
   59.3357   34.4615   46.3093 H   0  0  0  0  0  0  0  0  0  0  0  0
   61.2120   30.6599   47.1461 H   0  0  0  0  0  0  0  0  0  0  0  0
   59.2259   29.4673   46.2302 H   0  0  0  0  0  0  0  0  0  0  0  0
   55.4607   30.8474   43.8538 H   0  0  0  0  0  0  0  0  0  0  0  0
   57.0308   31.6022   43.3841 H   0  0  0  0  0  0  0  0  0  0  0  0
   56.0732   29.1209   42.5171 H   0  0  0  0  0  0  0  0  0  0  0  0
   57.7899   29.7107   42.4402 H   0  0  0  0  0  0  0  0  0  0  0  0
   56.9770   27.4840   43.6150 H   0  0  0  0  0  0  0  0  0  0  0  0
   56.9350   28.5180   44.9360 H   0  0  0  0  0  0  0  0  0  0  0  0
   59.2116   27.8138   43.1317 H   0  0  0  0  0  0  0  0  0  0  0  0
   59.2660   29.2305   44.2723 H   0  0  0  0  0  0  0  0  0  0  0  0
   59.7216   26.3936   44.8070 H   0  0  0  0  0  0  0  0  0  0  0  0
   60.0198   27.8516   45.8437 H   0  0  0  0  0  0  0  0  0  0  0  0
   58.4581   26.2081   46.8979 H   0  0  0  0  0  0  0  0  0  0  0  0
   57.7161   27.8542   46.5822 H   0  0  0  0  0  0  0  0  0  0  0  0
   57.7371   24.3768   45.0272 H   0  0  0  0  0  0  0  0  0  0  0  0
   56.5265   24.9728   43.8414 H   0  0  0  0  0  0  0  0  0  0  0  0
   58.1913   25.6473   43.8414 H   0  0  0  0  0  0  0  0  0  0  0  0
   56.2275   25.9484   47.3750 H   0  0  0  0  0  0  0  0  0  0  0  0
   54.9766   26.3471   46.1491 H   0  0  0  0  0  0  0  0  0  0  0  0
   55.7494   24.7256   46.1491 H   0  0  0  0  0  0  0  0  0  0  0  0
  1  2  1  0
  2  3  2  0
  3  4  1  0
  4  5  1  0
  4  6  2  0
  6  7  1  0
  7  8  2  0
  8  9  1  0
  9 10  1  0
 10 11  1  0
 11 12  1  0
 12 13  1  0
 13 14  1  0
 14 15  1  0
 15 16  1  0
 16 17  1  0
 16 18  1  0
  8  2  1  0
  1 19  1  0
  1 20  1  0
  1 21  1  0
  3 22  1  0
  6 23  1  0
  7 24  1  0
 10 25  1  0
 10 26  1  0
 11 27  1  0
 11 28  1  0
 12 29  1  0
 12 30  1  0
 13 31  1  0
 13 32  1  0
 14 33  1  0
 14 34  1  0
 15 35  1  0
 15 36  1  0
 17 37  1  0
 17 38  1  0
 17 39  1  0
 18 40  1  0
 18 41  1  0
 18 42  1  0
M  CHG  1  12   1
M  END
>  <UniqueID>  (23) 
21

>  <SMILES>  (23) 
Cc1cc(Cl)ccc1OCC[NH2+]CCCN(C)C

>  <Energy>  (23) 
41.2431451982783

>  <Genealogy>  (23) 
Cc1cc(Cl)ccc1OCC[NH2+]CCCN(C)C (protonated)
Cc1cc(Cl)ccc1OCC[NH2+]CCCN(C)C (3D coordinates assigned)
Cc1cc(Cl)ccc1OCC[NH2+]CCCN(C)C (optimized conformer: 41.2431451982783 kcal/mol)

>  <smiles>  (23) 
Cc1cc(Cl)ccc1OCCNCCCN(C)C

>  <score_type>  (23) 
oracle

>  <origin>  (23) 
adg

>  <m_score__min__energy>  (23) 
-3.6699999999999999

>  <m_primary>  (23) 
energy

$$$$
23:0
     RDKit          3D

 58 61  0  0  0  0  0  0  0  0999 V2000
   59.3370   33.4790   50.7150 C   0  0  0  0  0  0  0  0  0  0  0  0
   59.6900   34.1510   49.5100 O   0  0  0  0  0  0  0  0  0  0  0  0
   60.9080   33.9830   48.8320 C   0  0  0  0  0  0  0  0  0  0  0  0
   62.1500   34.0880   49.4900 C   0  0  0  0  0  0  0  0  0  0  0  0
   63.3410   33.8940   48.7870 C   0  0  0  0  0  0  0  0  0  0  0  0
   63.3090   33.5950   47.4230 C   0  0  0  0  0  0  0  0  0  0  0  0
   62.0850   33.4930   46.7600 C   0  0  0  0  0  0  0  0  0  0  0  0
   60.8830   33.6910   47.4550 C   0  0  0  0  0  0  0  0  0  0  0  0
   59.6340   33.5930   46.7560 N   0  0  0  0  0  0  0  0  0  0  0  0
   59.5480   34.0180   45.3560 C   0  0  0  0  0  0  0  0  0  0  0  0
   58.0910   33.9660   44.8730 C   0  0  0  0  0  0  0  0  0  0  0  0
   57.4600   32.6320   45.0830 N   0  0  0  0  0  0  0  0  0  0  0  0
   57.6990   31.7500   43.9080 C   0  0  0  0  0  0  0  0  0  0  0  0
   56.6820   30.5810   43.8060 C   0  0  2  0  0  0  0  0  0  0  0  0
   55.7620   30.5910   44.8680 O   0  0  0  0  0  0  0  0  0  0  0  0
   57.3690   29.2020   43.7120 C   0  0  0  0  0  0  0  0  0  0  0  0
   57.6700   28.6660   45.0030 O   0  0  0  0  0  0  0  0  0  0  0  0
   58.6680   29.1180   45.8810 C   0  0  0  0  0  0  0  0  0  0  0  0
   59.9070   29.6230   45.4380 C   0  0  0  0  0  0  0  0  0  0  0  0
   60.8560   30.0750   46.3580 C   0  0  0  0  0  0  0  0  0  0  0  0
   60.5900   30.0230   47.7330 C   0  0  0  0  0  0  0  0  0  0  0  0
   61.5360   30.4800   48.6640 C   0  0  0  0  0  0  0  0  0  0  0  0
   61.2580   30.4220   50.0330 C   0  0  0  0  0  0  0  0  0  0  0  0
   60.0370   29.9080   50.4810 C   0  0  0  0  0  0  0  0  0  0  0  0
   59.0880   29.4490   49.5630 C   0  0  0  0  0  0  0  0  0  0  0  0
   59.3550   29.5040   48.1860 C   0  0  0  0  0  0  0  0  0  0  0  0
   58.4090   29.0500   47.2550 C   0  0  0  0  0  0  0  0  0  0  0  0
   57.8630   31.9680   46.3610 C   0  0  0  0  0  0  0  0  0  0  0  0
   58.4850   32.9310   47.3780 C   0  0  0  0  0  0  0  0  0  0  0  0
   59.6542   34.0828   51.5780 H   0  0  0  0  0  0  0  0  0  0  0  0
   58.2470   33.3352   50.7489 H   0  0  0  0  0  0  0  0  0  0  0  0
   59.8372   32.4999   50.7489 H   0  0  0  0  0  0  0  0  0  0  0  0
   62.1814   34.3242   50.5639 H   0  0  0  0  0  0  0  0  0  0  0  0
   64.3060   33.9768   49.3084 H   0  0  0  0  0  0  0  0  0  0  0  0
   64.2481   33.4400   46.8715 H   0  0  0  0  0  0  0  0  0  0  0  0
   62.0630   33.2559   45.6861 H   0  0  0  0  0  0  0  0  0  0  0  0
   59.9240   35.0478   45.2654 H   0  0  0  0  0  0  0  0  0  0  0  0
   60.1549   33.3401   44.7378 H   0  0  0  0  0  0  0  0  0  0  0  0
   57.5107   34.7201   45.4249 H   0  0  0  0  0  0  0  0  0  0  0  0
   58.0935   34.1645   43.7911 H   0  0  0  0  0  0  0  0  0  0  0  0
   56.4270   32.8110   45.1340 H   0  0  0  0  0  0  0  0  0  0  0  0
   57.6266   32.3576   42.9939 H   0  0  0  0  0  0  0  0  0  0  0  0
   58.6979   31.3056   44.0296 H   0  0  0  0  0  0  0  0  0  0  0  0
   56.1325   30.7457   42.8674 H   0  0  0  0  0  0  0  0  0  0  0  0
   56.1680   30.0930   45.6240 H   0  0  0  0  0  0  0  0  0  0  0  0
   56.6990   28.5063   43.1857 H   0  0  0  0  0  0  0  0  0  0  0  0
   58.3160   29.3299   43.1672 H   0  0  0  0  0  0  0  0  0  0  0  0
   60.1281   29.6614   44.3611 H   0  0  0  0  0  0  0  0  0  0  0  0
   61.8171   30.4738   46.0014 H   0  0  0  0  0  0  0  0  0  0  0  0
   62.4978   30.8845   48.3158 H   0  0  0  0  0  0  0  0  0  0  0  0
   62.0016   30.7816   50.7595 H   0  0  0  0  0  0  0  0  0  0  0  0
   59.8227   29.8648   51.5591 H   0  0  0  0  0  0  0  0  0  0  0  0
   58.1299   29.0438   49.9205 H   0  0  0  0  0  0  0  0  0  0  0  0
   57.4532   28.6360   47.6085 H   0  0  0  0  0  0  0  0  0  0  0  0
   56.9701   31.5120   46.8136 H   0  0  0  0  0  0  0  0  0  0  0  0
   58.6302   31.2206   46.1105 H   0  0  0  0  0  0  0  0  0  0  0  0
   57.7413   33.6842   47.6774 H   0  0  0  0  0  0  0  0  0  0  0  0
   58.8102   32.3754   48.2700 H   0  0  0  0  0  0  0  0  0  0  0  0
  1  2  1  0
  2  3  1  0
  3  4  2  0
  4  5  1  0
  5  6  2  0
  6  7  1  0
  7  8  2  0
  8  9  1  0
  9 10  1  0
 10 11  1  0
 11 12  1  0
 12 13  1  0
 13 14  1  0
 14 15  1  0
 14 16  1  0
 16 17  1  0
 17 18  1  0
 18 19  2  0
 19 20  1  0
 20 21  2  0
 21 22  1  0
 22 23  2  0
 23 24  1  0
 24 25  2  0
 25 26  1  0
 26 27  2  0
 12 28  1  0
 28 29  1  0
  8  3  1  0
 29  9  1  0
 27 18  1  0
 26 21  1  0
  1 30  1  0
  1 31  1  0
  1 32  1  0
  4 33  1  0
  5 34  1  0
  6 35  1  0
  7 36  1  0
 10 37  1  0
 10 38  1  0
 11 39  1  0
 11 40  1  0
 12 41  1  0
 13 42  1  0
 13 43  1  0
 14 44  1  6
 15 45  1  0
 16 46  1  0
 16 47  1  0
 19 48  1  0
 20 49  1  0
 22 50  1  0
 23 51  1  0
 24 52  1  0
 25 53  1  0
 27 54  1  0
 28 55  1  0
 28 56  1  0
 29 57  1  0
 29 58  1  0
M  CHG  1  12   1
M  END
>  <UniqueID>  (24) 
22

>  <SMILES>  (24) 
COc1ccccc1N1CC[NH+](C[C@H](O)COc2ccc3ccccc3c2)CC1

>  <Energy>  (24) 
79.59588544500436

>  <Genealogy>  (24) 
COc1ccccc1N1CC[NH+](CC(O)COc2ccc3ccccc3c2)CC1 (protonated)
COc1ccccc1N1CC[NH+](C[C@H](O)COc2ccc3ccccc3c2)CC1 (chirality)
COc1ccccc1N1CC[NH+](C[C@H](O)COc2ccc3ccccc3c2)CC1 (3D coordinates assigned)
COc1ccccc1N1CC[NH+](C[C@H](O)COc2ccc3ccccc3c2)CC1 (nonaromatic ring conformer: 79.59588544500436 kcal/mol)

>  <smiles>  (24) 
COc1ccccc1N1CCN(CC(O)COc2ccc3ccccc3c2)CC1

>  <score_type>  (24) 
oracle

>  <origin>  (24) 
adg

>  <m_score__min__energy>  (24) 
-6.5599999999999996

>  <m_primary>  (24) 
energy

$$$$
24:0
     RDKit          3D

 53 57  0  0  0  0  0  0  0  0999 V2000
   62.0520   31.6230   51.3790 C   0  0  0  0  0  0  0  0  0  0  0  0
   63.0790   30.9730   50.6400 O   0  0  0  0  0  0  0  0  0  0  0  0
   64.4510   31.2260   50.7980 C   0  0  0  0  0  0  0  0  0  0  0  0
   65.2620   30.3480   51.4630 N   0  0  0  0  0  0  0  0  0  0  0  0
   66.5940   30.5800   51.6170 C   0  0  0  0  0  0  0  0  0  0  0  0
   67.1700   31.7400   51.1030 C   0  0  0  0  0  0  0  0  0  0  0  0
   66.3700   32.6540   50.4210 C   0  0  0  0  0  0  0  0  0  0  0  0
   65.0020   32.4020   50.2460 C   0  0  0  0  0  0  0  0  0  0  0  0
   64.1690   33.3710   49.4390 C   0  0  0  0  0  0  0  0  0  0  0  0
   64.1080   32.9570   48.0250 N   0  0  0  0  0  0  0  0  0  0  0  0
   62.9970   33.5890   47.2940 C   0  0  0  0  0  0  0  0  0  0  0  0
   61.8610   32.6220   47.0820 C   0  0  0  0  0  0  0  0  0  0  0  0
   60.5900   33.0970   46.7260 C   0  0  0  0  0  0  0  0  0  0  0  0
   59.5590   32.2010   46.4290 C   0  0  0  0  0  0  0  0  0  0  0  0
   59.7760   30.8130   46.4960 C   0  0  0  0  0  0  0  0  0  0  0  0
   58.7020   29.8530   46.1360 C   0  0  0  0  0  0  0  0  0  0  0  0
   57.5380   30.1330   45.4180 C   0  0  0  0  0  0  0  0  0  0  0  0
   56.7160   29.0170   45.2160 C   0  0  0  0  0  0  0  0  0  0  0  0
   57.2280   27.8500   45.7710 C   0  0  0  0  0  0  0  0  0  0  0  0
   56.6000   26.5250   45.7220 C   0  0  0  0  0  0  0  0  0  0  0  0
   57.2930   25.3940   45.4190 N   0  0  0  0  0  0  0  0  0  0  0  0
   56.3450   24.4470   45.4910 C   0  0  0  0  0  0  0  0  0  0  0  0
   56.4890   23.0790   45.2720 C   0  0  0  0  0  0  0  0  0  0  0  0
   55.3420   22.2730   45.4050 C   0  0  0  0  0  0  0  0  0  0  0  0
   54.0980   22.8500   45.7490 C   0  0  0  0  0  0  0  0  0  0  0  0
   53.9930   24.2380   45.9640 C   0  0  0  0  0  0  0  0  0  0  0  0
   55.1480   25.0040   45.8220 C   0  0  0  0  0  0  0  0  0  0  0  0
   55.2790   26.3280   45.9780 N   0  0  0  0  0  0  0  0  0  0  0  0
   58.6960   28.2060   46.5060 S   0  0  0  0  0  0  0  0  0  0  0  0
   61.0380   30.3450   46.9050 C   0  0  0  0  0  0  0  0  0  0  0  0
   62.0690   31.2410   47.1980 C   0  0  0  0  0  0  0  0  0  0  0  0
   62.2425   31.5024   52.4556 H   0  0  0  0  0  0  0  0  0  0  0  0
   62.0400   32.6935   51.1264 H   0  0  0  0  0  0  0  0  0  0  0  0
   61.0793   31.1757   51.1264 H   0  0  0  0  0  0  0  0  0  0  0  0
   64.8770   29.4670   51.8680 H   0  0  0  0  0  0  0  0  0  0  0  0
   67.2190   29.8483   52.1498 H   0  0  0  0  0  0  0  0  0  0  0  0
   68.2451   31.9320   51.2344 H   0  0  0  0  0  0  0  0  0  0  0  0
   66.8132   33.5767   50.0183 H   0  0  0  0  0  0  0  0  0  0  0  0
   63.1494   33.3999   49.8507 H   0  0  0  0  0  0  0  0  0  0  0  0
   64.6328   34.3668   49.4953 H   0  0  0  0  0  0  0  0  0  0  0  0
   64.9950   33.2720   47.5680 H   0  0  0  0  0  0  0  0  0  0  0  0
   62.6313   34.4502   47.8725 H   0  0  0  0  0  0  0  0  0  0  0  0
   63.3675   33.9107   46.3095 H   0  0  0  0  0  0  0  0  0  0  0  0
   60.4037   34.1801   46.6803 H   0  0  0  0  0  0  0  0  0  0  0  0
   58.5694   32.5848   46.1404 H   0  0  0  0  0  0  0  0  0  0  0  0
   57.2892   31.1376   45.0452 H   0  0  0  0  0  0  0  0  0  0  0  0
   55.7607   29.0598   44.6724 H   0  0  0  0  0  0  0  0  0  0  0  0
   57.4634   22.6440   45.0048 H   0  0  0  0  0  0  0  0  0  0  0  0
   55.4143   21.1878   45.2402 H   0  0  0  0  0  0  0  0  0  0  0  0
   53.2077   22.2118   45.8492 H   0  0  0  0  0  0  0  0  0  0  0  0
   53.0326   24.7010   46.2346 H   0  0  0  0  0  0  0  0  0  0  0  0
   61.2147   29.2630   46.9950 H   0  0  0  0  0  0  0  0  0  0  0  0
   63.0491   30.8605   47.5214 H   0  0  0  0  0  0  0  0  0  0  0  0
  1  2  1  0
  2  3  1  0
  3  4  2  0
  4  5  1  0
  5  6  2  0
  6  7  1  0
  7  8  2  0
  8  9  1  0
  9 10  1  0
 10 11  1  0
 11 12  1  0
 12 13  2  0
 13 14  1  0
 14 15  2  0
 15 16  1  0
 16 17  2  0
 17 18  1  0
 18 19  2  0
 19 20  1  0
 20 21  2  0
 21 22  1  0
 22 23  2  0
 23 24  1  0
 24 25  2  0
 25 26  1  0
 26 27  2  0
 27 28  1  0
 19 29  1  0
 15 30  1  0
 30 31  2  0
  8  3  1  0
 31 12  1  0
 29 16  1  0
 28 20  1  0
 27 22  1  0
  1 32  1  0
  1 33  1  0
  1 34  1  0
  4 35  1  0
  5 36  1  0
  6 37  1  0
  7 38  1  0
  9 39  1  0
  9 40  1  0
 10 41  1  0
 11 42  1  0
 11 43  1  0
 13 44  1  0
 14 45  1  0
 17 46  1  0
 18 47  1  0
 23 48  1  0
 24 49  1  0
 25 50  1  0
 26 51  1  0
 30 52  1  0
 31 53  1  0
M  CHG  2   4   1  28  -1
M  END
>  <UniqueID>  (25) 
23

>  <SMILES>  (25) 
COc1[nH+]cccc1CNCc1ccc(-c2ccc(-c3nc4ccccc4[n-]3)s2)cc1

>  <Energy>  (25) 
117.44585411495984

>  <Genealogy>  (25) 
COc1[nH+]cccc1CNCc1ccc(-c2ccc(-c3nc4ccccc4[n-]3)s2)cc1 (protonated)
COc1[nH+]cccc1CNCc1ccc(-c2ccc(-c3nc4ccccc4[n-]3)s2)cc1 (3D coordinates assigned)
COc1[nH+]cccc1CNCc1ccc(-c2ccc(-c3nc4ccccc4[n-]3)s2)cc1 (optimized conformer: 117.44585411495984 kcal/mol)

>  <smiles>  (25) 
COc1ncccc1CNCc1ccc(-c2ccc(-c3nc4ccccc4[nH]3)s2)cc1

>  <score_type>  (25) 
oracle

>  <origin>  (25) 
adg

>  <m_score__min__energy>  (25) 
-8.5099999999999998

>  <m_primary>  (25) 
energy

$$$$
25:0
     RDKit          3D

 47 50  0  0  0  0  0  0  0  0999 V2000
   57.8170   34.2190   45.7910 C   0  0  0  0  0  0  0  0  0  0  0  0
   58.5220   33.8400   44.4960 C   0  0  0  0  0  0  0  0  0  0  0  0
   58.0270   32.5560   44.0040 N   0  0  0  0  0  0  0  0  0  0  0  0
   57.4090   32.3990   42.8380 N   0  0  0  0  0  0  0  0  0  0  0  0
   57.1150   31.0850   42.6850 C   0  0  0  0  0  0  0  0  0  0  0  0
   57.5750   30.4060   43.7940 C   0  0  0  0  0  0  0  0  0  0  0  0
   57.5400   29.0610   44.1420 C   0  0  0  0  0  0  0  0  0  0  0  0
   58.1130   28.6930   45.3740 C   0  0  0  0  0  0  0  0  0  0  0  0
   58.7000   29.6680   46.2240 C   0  0  0  0  0  0  0  0  0  0  0  0
   59.2470   29.2750   47.4970 N   0  0  0  0  0  0  0  0  0  0  0  0
   59.2240   28.0310   48.0080 C   0  0  0  0  0  0  0  0  0  0  0  0
   59.9320   28.0380   49.1890 C   0  0  0  0  0  0  0  0  0  0  0  0
   60.3970   29.2790   49.4310 N   0  0  0  0  0  0  0  0  0  0  0  0
   59.9560   30.0130   48.3870 C   0  0  0  0  0  0  0  0  0  0  0  0
   60.2140   31.4660   48.2830 C   0  0  0  0  0  0  0  0  0  0  0  0
   61.3790   31.9030   47.6350 C   0  0  0  0  0  0  0  0  0  0  0  0
   61.6390   33.2670   47.4890 C   0  0  0  0  0  0  0  0  0  0  0  0
   63.0880   33.8010   46.6560 Cl  0  0  0  0  0  0  0  0  0  0  0  0
   60.7420   34.2070   48.0000 C   0  0  0  0  0  0  0  0  0  0  0  0
   59.5900   33.7860   48.6680 C   0  0  0  0  0  0  0  0  0  0  0  0
   59.3200   32.4130   48.8310 C   0  0  0  0  0  0  0  0  0  0  0  0
   58.1900   31.9510   49.5310 O   0  0  0  0  0  0  0  0  0  0  0  0
   57.9060   32.1770   50.9110 C   0  0  0  0  0  0  0  0  0  0  0  0
   57.7100   30.8520   51.6600 C   0  0  0  0  0  0  0  0  0  0  0  0
   58.1440   29.7090   50.8600 N   0  0  0  0  0  0  0  0  0  0  0  0
   58.7340   31.0220   45.8150 C   0  0  0  0  0  0  0  0  0  0  0  0
   58.1450   31.3510   44.5960 C   0  0  0  0  0  0  0  0  0  0  0  0
   58.4242   33.8926   46.6482 H   0  0  0  0  0  0  0  0  0  0  0  0
   57.6840   35.3102   45.8303 H   0  0  0  0  0  0  0  0  0  0  0  0
   56.8334   33.7281   45.8303 H   0  0  0  0  0  0  0  0  0  0  0  0
   58.3322   34.6157   43.7395 H   0  0  0  0  0  0  0  0  0  0  0  0
   59.6018   33.7563   44.6886 H   0  0  0  0  0  0  0  0  0  0  0  0
   56.5980   30.6366   41.8238 H   0  0  0  0  0  0  0  0  0  0  0  0
   57.0817   28.3120   43.4795 H   0  0  0  0  0  0  0  0  0  0  0  0
   58.1061   27.6371   45.6824 H   0  0  0  0  0  0  0  0  0  0  0  0
   58.7257   27.1587   47.5599 H   0  0  0  0  0  0  0  0  0  0  0  0
   60.0933   27.1634   49.8363 H   0  0  0  0  0  0  0  0  0  0  0  0
   62.0928   31.1657   47.2390 H   0  0  0  0  0  0  0  0  0  0  0  0
   60.9430   35.2814   47.8762 H   0  0  0  0  0  0  0  0  0  0  0  0
   58.8884   34.5319   49.0698 H   0  0  0  0  0  0  0  0  0  0  0  0
   58.7445   32.7255   51.3650 H   0  0  0  0  0  0  0  0  0  0  0  0
   56.9764   32.7604   50.9849 H   0  0  0  0  0  0  0  0  0  0  0  0
   58.2959   30.8787   52.5906 H   0  0  0  0  0  0  0  0  0  0  0  0
   56.6372   30.7339   51.8725 H   0  0  0  0  0  0  0  0  0  0  0  0
   59.0710   29.3790   51.2110 H   0  0  0  0  0  0  0  0  0  0  0  0
   58.2680   30.0150   49.8670 H   0  0  0  0  0  0  0  0  0  0  0  0
   59.2108   31.7913   46.4402 H   0  0  0  0  0  0  0  0  0  0  0  0
  1  2  1  0
  2  3  1  0
  3  4  1  0
  4  5  2  0
  5  6  1  0
  6  7  2  0
  7  8  1  0
  8  9  2  0
  9 10  1  0
 10 11  1  0
 11 12  2  0
 12 13  1  0
 13 14  2  0
 14 15  1  0
 15 16  2  0
 16 17  1  0
 17 18  1  0
 17 19  2  0
 19 20  1  0
 20 21  2  0
 21 22  1  0
 22 23  1  0
 23 24  1  0
 24 25  1  0
  9 26  1  0
 26 27  2  0
 27  3  1  0
 27  6  1  0
 14 10  1  0
 21 15  1  0
  1 28  1  0
  1 29  1  0
  1 30  1  0
  2 31  1  0
  2 32  1  0
  5 33  1  0
  7 34  1  0
  8 35  1  0
 11 36  1  0
 12 37  1  0
 16 38  1  0
 19 39  1  0
 20 40  1  0
 23 41  1  0
 23 42  1  0
 24 43  1  0
 24 44  1  0
 25 45  1  0
 25 46  1  0
 26 47  1  0
M  END
>  <UniqueID>  (26) 
24

>  <SMILES>  (26) 
CCn1ncc2ccc(-n3ccnc3-c3cc(Cl)ccc3OCCN)cc21

>  <Energy>  (26) 
121.35719595049213

>  <Genealogy>  (26) 
CCn1ncc2ccc(-n3ccnc3-c3cc(Cl)ccc3OCCN)cc21 (3D coordinates assigned)
CCn1ncc2ccc(-n3ccnc3-c3cc(Cl)ccc3OCCN)cc21 (optimized conformer: 121.35719595049213 kcal/mol)

>  <smiles>  (26) 
CCn1ncc2ccc(-n3ccnc3-c3cc(Cl)ccc3OCCN)cc21

>  <score_type>  (26) 
oracle

>  <origin>  (26) 
adg

>  <m_score__min__energy>  (26) 
-7.7699999999999996

>  <m_primary>  (26) 
energy

$$$$
26:0
     RDKit          3D

 36 38  0  0  0  0  0  0  0  0999 V2000
   65.7100   33.2380   50.8850 C   0  0  0  0  0  0  0  0  0  0  0  0
   64.4340   33.8610   50.9960 O   0  0  0  0  0  0  0  0  0  0  0  0
   63.4550   33.8460   49.9930 C   0  0  0  0  0  0  0  0  0  0  0  0
   62.1140   34.1930   50.2410 C   0  0  0  0  0  0  0  0  0  0  0  0
   61.1730   34.1640   49.2080 C   0  0  0  0  0  0  0  0  0  0  0  0
   61.5510   33.7870   47.9040 C   0  0  0  0  0  0  0  0  0  0  0  0
   60.5940   33.7530   46.8240 N   0  0  0  0  0  0  0  0  0  0  0  0
   59.9950   32.6750   46.2790 C   0  0  0  0  0  0  0  0  0  0  0  0
   59.1710   33.1500   45.2760 C   0  0  0  0  0  0  0  0  0  0  0  0
   58.2950   32.3680   44.3680 C   0  0  0  0  0  0  0  0  0  0  0  0
   58.2160   32.7110   43.0080 C   0  0  0  0  0  0  0  0  0  0  0  0
   57.3950   31.9880   42.1350 C   0  0  0  0  0  0  0  0  0  0  0  0
   57.3240   32.3470   40.7520 N   0  0  0  0  0  0  0  0  0  0  0  0
   56.6450   30.9110   42.6200 C   0  0  0  0  0  0  0  0  0  0  0  0
   56.7060   30.5480   43.9770 C   0  0  0  0  0  0  0  0  0  0  0  0
   55.9330   29.4400   44.4760 N   0  0  0  0  0  0  0  0  0  0  0  0
   54.7420   29.2870   44.1300 O   0  0  0  0  0  0  0  0  0  0  0  0
   56.4930   28.5280   45.3410 O   0  0  0  0  0  0  0  0  0  0  0  0
   57.5350   31.2830   44.8430 C   0  0  0  0  0  0  0  0  0  0  0  0
   59.2930   34.4920   45.2410 N   0  0  0  0  0  0  0  0  0  0  0  0
   60.1580   34.8290   46.1860 N   0  0  0  0  0  0  0  0  0  0  0  0
   62.8940   33.4480   47.6640 C   0  0  0  0  0  0  0  0  0  0  0  0
   63.8320   33.4760   48.6990 C   0  0  0  0  0  0  0  0  0  0  0  0
   66.1111   33.0422   51.8904 H   0  0  0  0  0  0  0  0  0  0  0  0
   65.6081   32.2883   50.3395 H   0  0  0  0  0  0  0  0  0  0  0  0
   66.3962   33.9024   50.3395 H   0  0  0  0  0  0  0  0  0  0  0  0
   61.8044   34.4889   51.2542 H   0  0  0  0  0  0  0  0  0  0  0  0
   60.1279   34.4379   49.4148 H   0  0  0  0  0  0  0  0  0  0  0  0
   60.1345   31.6246   46.5743 H   0  0  0  0  0  0  0  0  0  0  0  0
   58.8057   33.5569   42.6251 H   0  0  0  0  0  0  0  0  0  0  0  0
   57.9760   33.0570   40.3500 H   0  0  0  0  0  0  0  0  0  0  0  0
   56.6190   31.9070   40.1200 H   0  0  0  0  0  0  0  0  0  0  0  0
   56.0012   30.3425   41.9327 H   0  0  0  0  0  0  0  0  0  0  0  0
   57.5902   31.0061   45.9061 H   0  0  0  0  0  0  0  0  0  0  0  0
   63.2096   33.1577   46.6510 H   0  0  0  0  0  0  0  0  0  0  0  0
   64.8778   33.2041   48.4934 H   0  0  0  0  0  0  0  0  0  0  0  0
  1  2  1  0
  2  3  1  0
  3  4  2  0
  4  5  1  0
  5  6  2  0
  6  7  1  0
  7  8  1  0
  8  9  2  0
  9 10  1  0
 10 11  2  0
 11 12  1  0
 12 13  1  0
 12 14  2  0
 14 15  1  0
 15 16  1  0
 16 17  2  0
 16 18  1  0
 15 19  2  0
  9 20  1  0
 20 21  2  0
  6 22  1  0
 22 23  2  0
 23  3  1  0
 21  7  1  0
 19 10  1  0
  1 24  1  0
  1 25  1  0
  1 26  1  0
  4 27  1  0
  5 28  1  0
  8 29  1  0
 11 30  1  0
 13 31  1  0
 13 32  1  0
 14 33  1  0
 19 34  1  0
 22 35  1  0
 23 36  1  0
M  CHG  2  16   1  18  -1
M  END
>  <UniqueID>  (27) 
25

>  <SMILES>  (27) 
COc1ccc(-n2cc(-c3cc(N)cc([N+](=O)[O-])c3)nn2)cc1

>  <Energy>  (27) 
77.0783412451531

>  <Genealogy>  (27) 
COc1ccc(-n2cc(-c3cc(N)cc([N+](=O)[O-])c3)nn2)cc1 (3D coordinates assigned)
COc1ccc(-n2cc(-c3cc(N)cc([N+](=O)[O-])c3)nn2)cc1 (optimized conformer: 77.0783412451531 kcal/mol)

>  <smiles>  (27) 
COc1ccc(-n2cc(-c3cc(N)cc([N+](=O)[O-])c3)nn2)cc1

>  <score_type>  (27) 
oracle

>  <origin>  (27) 
adg

>  <m_score__min__energy>  (27) 
-7.5700000000000003

>  <m_primary>  (27) 
energy

$$$$
27:0
     RDKit          3D

 68 71  0  0  0  0  0  0  0  0999 V2000
   65.0610   31.6100   50.5810 C   0  0  0  0  0  0  0  0  0  0  0  0
   64.9720   32.7870   49.6010 C   0  0  0  0  0  0  0  0  0  0  0  0
   63.6350   32.9120   48.9580 N   0  0  0  0  0  0  0  0  0  0  0  0
   63.7400   32.6060   47.5070 C   0  0  0  0  0  0  0  0  0  0  0  0
   63.3720   33.7970   46.6140 C   0  0  0  0  0  0  0  0  0  0  0  0
   62.9690   34.2160   49.2420 C   0  0  0  0  0  0  0  0  0  0  0  0
   61.5260   34.1140   49.7840 C   0  0  0  0  0  0  0  0  0  0  0  0
   61.1860   32.7510   50.0380 O   0  0  0  0  0  0  0  0  0  0  0  0
   60.6890   31.8370   49.0950 C   0  0  0  0  0  0  0  0  0  0  0  0
   59.7910   32.2020   48.0750 C   0  0  0  0  0  0  0  0  0  0  0  0
   59.3200   31.2450   47.1720 C   0  0  0  0  0  0  0  0  0  0  0  0
   59.7320   29.9030   47.2700 C   0  0  0  0  0  0  0  0  0  0  0  0
   59.2210   28.8820   46.3190 C   0  0  0  0  0  0  0  0  0  0  0  0
   59.5210   28.9710   44.9470 C   0  0  0  0  0  0  0  0  0  0  0  0
   59.0470   28.0100   44.0490 C   0  0  0  0  0  0  0  0  0  0  0  0
   58.2610   26.9410   44.5090 C   0  0  0  0  0  0  0  0  0  0  0  0
   57.7680   25.9440   43.6470 C   0  0  0  0  0  0  0  0  0  0  0  0
   58.0390   25.9900   42.4140 O   0  0  0  0  0  0  0  0  0  0  0  0
   56.9980   24.9250   44.1480 N   0  0  0  0  0  0  0  0  0  0  0  0
   56.5080   23.8450   43.2750 C   0  0  0  0  0  0  0  0  0  0  0  0
   55.7530   22.7990   44.1010 C   0  0  0  0  0  0  0  0  0  0  0  0
   56.2800   21.4460   43.8140 N   0  0  0  0  0  0  0  0  0  0  0  0
   57.6940   21.4800   43.3890 C   0  0  0  0  0  0  0  0  0  0  0  0
   58.6310   21.8590   44.5600 C   0  0  0  0  0  0  0  0  0  0  0  0
   58.0270   21.7010   45.8340 O   0  0  0  0  0  0  0  0  0  0  0  0
   57.3250   20.4780   45.8900 C   0  0  0  0  0  0  0  0  0  0  0  0
   56.0980   20.5140   44.9540 C   0  0  0  0  0  0  0  0  0  0  0  0
   56.7280   24.8650   45.4870 C   0  0  0  0  0  0  0  0  0  0  0  0
   57.1990   25.8170   46.3310 N   0  0  0  0  0  0  0  0  0  0  0  0
   57.9530   26.8480   45.8780 C   0  0  0  0  0  0  0  0  0  0  0  0
   58.4310   27.8110   46.7750 C   0  0  0  0  0  0  0  0  0  0  0  0
   60.6310   29.5440   48.2900 C   0  0  0  0  0  0  0  0  0  0  0  0
   61.1020   30.5030   49.1910 C   0  0  0  0  0  0  0  0  0  0  0  0
   65.0323   31.9893   51.6131 H   0  0  0  0  0  0  0  0  0  0  0  0
   64.2117   30.9307   50.4163 H   0  0  0  0  0  0  0  0  0  0  0  0
   66.0028   31.0661   50.4163 H   0  0  0  0  0  0  0  0  0  0  0  0
   65.1848   33.7163   50.1498 H   0  0  0  0  0  0  0  0  0  0  0  0
   65.7047   32.6039   48.8012 H   0  0  0  0  0  0  0  0  0  0  0  0
   63.0280   32.1650   49.3760 H   0  0  0  0  0  0  0  0  0  0  0  0
   64.7758   32.3091   47.2857 H   0  0  0  0  0  0  0  0  0  0  0  0
   63.0252   31.7988   47.2890 H   0  0  0  0  0  0  0  0  0  0  0  0
   63.1057   34.6588   47.2436 H   0  0  0  0  0  0  0  0  0  0  0  0
   64.2313   34.0584   45.9789 H   0  0  0  0  0  0  0  0  0  0  0  0
   62.5150   33.5281   45.9789 H   0  0  0  0  0  0  0  0  0  0  0  0
   63.5751   34.7524   49.9870 H   0  0  0  0  0  0  0  0  0  0  0  0
   62.8959   34.7378   48.2764 H   0  0  0  0  0  0  0  0  0  0  0  0
   61.4486   34.6874   50.7195 H   0  0  0  0  0  0  0  0  0  0  0  0
   60.8328   34.5212   49.0332 H   0  0  0  0  0  0  0  0  0  0  0  0
   59.4578   33.2467   47.9879 H   0  0  0  0  0  0  0  0  0  0  0  0
   58.6206   31.5436   46.3772 H   0  0  0  0  0  0  0  0  0  0  0  0
   60.1349   29.8055   44.5772 H   0  0  0  0  0  0  0  0  0  0  0  0
   59.2904   28.0914   42.9794 H   0  0  0  0  0  0  0  0  0  0  0  0
   55.8311   24.2683   42.5183 H   0  0  0  0  0  0  0  0  0  0  0  0
   57.3662   23.3633   42.7835 H   0  0  0  0  0  0  0  0  0  0  0  0
   55.8804   23.0195   45.1711 H   0  0  0  0  0  0  0  0  0  0  0  0
   54.6860   22.8331   43.8359 H   0  0  0  0  0  0  0  0  0  0  0  0
   57.9776   20.4863   43.0120 H   0  0  0  0  0  0  0  0  0  0  0  0
   57.7991   22.2426   42.6033 H   0  0  0  0  0  0  0  0  0  0  0  0
   59.5238   21.2180   44.5147 H   0  0  0  0  0  0  0  0  0  0  0  0
   58.8804   22.9244   44.4468 H   0  0  0  0  0  0  0  0  0  0  0  0
   57.9940   19.6623   45.5783 H   0  0  0  0  0  0  0  0  0  0  0  0
   56.9802   20.3133   46.9215 H   0  0  0  0  0  0  0  0  0  0  0  0
   55.9263   19.5021   44.5584 H   0  0  0  0  0  0  0  0  0  0  0  0
   55.2392   20.8694   45.5423 H   0  0  0  0  0  0  0  0  0  0  0  0
   56.1229   24.0366   45.8839 H   0  0  0  0  0  0  0  0  0  0  0  0
   58.1869   27.7295   47.8445 H   0  0  0  0  0  0  0  0  0  0  0  0
   60.9662   28.5001   48.3794 H   0  0  0  0  0  0  0  0  0  0  0  0
   61.8045   30.2064   49.9838 H   0  0  0  0  0  0  0  0  0  0  0  0
  1  2  1  0
  2  3  1  0
  3  4  1  0
  4  5  1  0
  3  6  1  0
  6  7  1  0
  7  8  1  0
  8  9  1  0
  9 10  2  0
 10 11  1  0
 11 12  2  0
 12 13  1  0
 13 14  2  0
 14 15  1  0
 15 16  2  0
 16 17  1  0
 17 18  2  0
 17 19  1  0
 19 20  1  0
 20 21  1  0
 21 22  1  0
 22 23  1  0
 23 24  1  0
 24 25  1  0
 25 26  1  0
 26 27  1  0
 19 28  1  0
 28 29  2  0
 29 30  1  0
 30 31  2  0
 12 32  1  0
 32 33  2  0
 33  9  1  0
 31 13  1  0
 30 16  1  0
 27 22  1  0
  1 34  1  0
  1 35  1  0
  1 36  1  0
  2 37  1  0
  2 38  1  0
  3 39  1  0
  4 40  1  0
  4 41  1  0
  5 42  1  0
  5 43  1  0
  5 44  1  0
  6 45  1  0
  6 46  1  0
  7 47  1  0
  7 48  1  0
 10 49  1  0
 11 50  1  0
 14 51  1  0
 15 52  1  0
 20 53  1  0
 20 54  1  0
 21 55  1  0
 21 56  1  0
 23 57  1  0
 23 58  1  0
 24 59  1  0
 24 60  1  0
 26 61  1  0
 26 62  1  0
 27 63  1  0
 27 64  1  0
 28 65  1  0
 31 66  1  0
 32 67  1  0
 33 68  1  0
M  CHG  1   3   1
M  END
>  <UniqueID>  (28) 
26

>  <SMILES>  (28) 
CC[NH+](CC)CCOc1ccc(-c2ccc3c(=O)n(CCN4CCOCC4)cnc3c2)cc1

>  <Energy>  (28) 
96.06154090200212

>  <Genealogy>  (28) 
CC[NH+](CC)CCOc1ccc(-c2ccc3c(=O)n(CCN4CCOCC4)cnc3c2)cc1 (protonated)
CC[NH+](CC)CCOc1ccc(-c2ccc3c(=O)n(CCN4CCOCC4)cnc3c2)cc1 (3D coordinates assigned)
CC[NH+](CC)CCOc1ccc(-c2ccc3c(=O)n(CCN4CCOCC4)cnc3c2)cc1 (nonaromatic ring conformer: 96.06154090200212 kcal/mol)

>  <smiles>  (28) 
CCN(CC)CCOc1ccc(-c2ccc3c(=O)n(CCN4CCOCC4)cnc3c2)cc1

>  <score_type>  (28) 
oracle

>  <origin>  (28) 
adg

>  <m_score__min__energy>  (28) 
-7.0800000000000001

>  <m_primary>  (28) 
energy

$$$$
28:0
     RDKit          3D

 48 50  0  0  0  0  0  0  0  0999 V2000
   55.9500   22.6780   43.0650 C   0  0  0  0  0  0  0  0  0  0  0  0
   56.8420   23.9130   43.1390 C   0  0  0  0  0  0  0  0  0  0  0  0
   56.7600   24.5230   44.4290 O   0  0  0  0  0  0  0  0  0  0  0  0
   57.2640   25.7910   44.7690 C   0  0  0  0  0  0  0  0  0  0  0  0
   58.1430   26.5030   43.9300 C   0  0  0  0  0  0  0  0  0  0  0  0
   58.6280   27.7550   44.3110 C   0  0  0  0  0  0  0  0  0  0  0  0
   58.2340   28.3310   45.5290 C   0  0  0  0  0  0  0  0  0  0  0  0
   58.7790   29.6470   45.9560 C   0  0  0  0  0  0  0  0  0  0  0  0
   59.9920   29.6980   46.5670 N   0  0  0  0  0  0  0  0  0  0  0  0
   60.5660   30.8810   46.9110 C   0  0  0  0  0  0  0  0  0  0  0  0
   61.8430   30.8940   47.4960 C   0  0  0  0  0  0  0  0  0  0  0  0
   62.4630   32.1030   47.8070 C   0  0  0  0  0  0  0  0  0  0  0  0
   61.8140   33.3070   47.5410 C   0  0  0  0  0  0  0  0  0  0  0  0
   60.5380   33.3110   46.9730 C   0  0  0  0  0  0  0  0  0  0  0  0
   59.8830   32.0950   46.6520 C   0  0  0  0  0  0  0  0  0  0  0  0
   58.6220   32.0560   46.0840 N   0  0  0  0  0  0  0  0  0  0  0  0
   57.8680   33.2990   45.7930 C   0  0  0  0  0  0  0  0  0  0  0  0
   58.5280   34.0680   44.6880 C   0  0  0  0  0  0  0  0  0  0  0  0
   58.8720   35.2670   44.8800 O   0  0  0  0  0  0  0  0  0  0  0  0
   58.7190   33.4630   43.4410 O   0  0  0  0  0  0  0  0  0  0  0  0
   57.8570   32.4500   42.9400 C   0  0  0  0  0  0  0  0  0  0  0  0
   58.0760   30.8450   45.7240 C   0  0  0  0  0  0  0  0  0  0  0  0
   56.9320   30.7950   45.1870 O   0  0  0  0  0  0  0  0  0  0  0  0
   57.3550   27.6250   46.3650 C   0  0  0  0  0  0  0  0  0  0  0  0
   56.8660   26.3580   45.9900 C   0  0  0  0  0  0  0  0  0  0  0  0
   55.9860   25.6270   46.8060 O   0  0  0  0  0  0  0  0  0  0  0  0
   56.2750   24.3530   47.3700 C   0  0  0  0  0  0  0  0  0  0  0  0
   55.7061   22.3403   44.0831 H   0  0  0  0  0  0  0  0  0  0  0  0
   55.0222   22.9274   42.5293 H   0  0  0  0  0  0  0  0  0  0  0  0
   56.4784   21.8756   42.5293 H   0  0  0  0  0  0  0  0  0  0  0  0
   57.8837   23.6173   42.9457 H   0  0  0  0  0  0  0  0  0  0  0  0
   56.5029   24.6380   42.3845 H   0  0  0  0  0  0  0  0  0  0  0  0
   58.4497   26.0690   42.9669 H   0  0  0  0  0  0  0  0  0  0  0  0
   59.3242   28.2944   43.6519 H   0  0  0  0  0  0  0  0  0  0  0  0
   60.5160   28.8080   46.7360 H   0  0  0  0  0  0  0  0  0  0  0  0
   62.3565   29.9450   47.7098 H   0  0  0  0  0  0  0  0  0  0  0  0
   63.4643   32.1066   48.2623 H   0  0  0  0  0  0  0  0  0  0  0  0
   62.3094   34.2597   47.7797 H   0  0  0  0  0  0  0  0  0  0  0  0
   60.0353   34.2686   46.7723 H   0  0  0  0  0  0  0  0  0  0  0  0
   56.8432   33.0381   45.4903 H   0  0  0  0  0  0  0  0  0  0  0  0
   57.8490   33.9234   46.6984 H   0  0  0  0  0  0  0  0  0  0  0  0
   57.3977   31.9103   43.7813 H   0  0  0  0  0  0  0  0  0  0  0  0
   57.0691   32.9099   42.3255 H   0  0  0  0  0  0  0  0  0  0  0  0
   58.4371   31.7458   42.3255 H   0  0  0  0  0  0  0  0  0  0  0  0
   57.0444   28.0658   47.3237 H   0  0  0  0  0  0  0  0  0  0  0  0
   56.2585   24.4256   48.4675 H   0  0  0  0  0  0  0  0  0  0  0  0
   55.5191   23.6256   47.0393 H   0  0  0  0  0  0  0  0  0  0  0  0
   57.2708   24.0230   47.0393 H   0  0  0  0  0  0  0  0  0  0  0  0
  1  2  1  0
  2  3  1  0
  3  4  1  0
  4  5  2  0
  5  6  1  0
  6  7  2  0
  7  8  1  0
  8  9  2  0
  9 10  1  0
 10 11  2  0
 11 12  1  0
 12 13  2  0
 13 14  1  0
 14 15  2  0
 15 16  1  0
 16 17  1  0
 17 18  1  0
 18 19  2  0
 18 20  1  0
 20 21  1  0
 16 22  1  0
 22 23  2  0
  7 24  1  0
 24 25  2  0
 25 26  1  0
 26 27  1  0
 25  4  1  0
 22  8  1  0
 15 10  1  0
  1 28  1  0
  1 29  1  0
  1 30  1  0
  2 31  1  0
  2 32  1  0
  5 33  1  0
  6 34  1  0
  9 35  1  0
 11 36  1  0
 12 37  1  0
 13 38  1  0
 14 39  1  0
 17 40  1  0
 17 41  1  0
 21 42  1  0
 21 43  1  0
 21 44  1  0
 24 45  1  0
 27 46  1  0
 27 47  1  0
 27 48  1  0
M  CHG  1   9   1
M  END
>  <UniqueID>  (29) 
27

>  <SMILES>  (29) 
CCOc1ccc(-c2[nH+]c3ccccc3n(CC(=O)OC)c2=O)cc1OC

>  <Energy>  (29) 
61.75201998387459

>  <Genealogy>  (29) 
CCOc1ccc(-c2[nH+]c3ccccc3n(CC(=O)OC)c2=O)cc1OC (protonated)
CCOc1ccc(-c2[nH+]c3ccccc3n(CC(=O)OC)c2=O)cc1OC (3D coordinates assigned)
CCOc1ccc(-c2[nH+]c3ccccc3n(CC(=O)OC)c2=O)cc1OC (optimized conformer: 61.75201998387459 kcal/mol)

>  <smiles>  (29) 
CCOc1ccc(-c2nc3ccccc3n(CC(=O)OC)c2=O)cc1OC

>  <score_type>  (29) 
oracle

>  <origin>  (29) 
adg

>  <m_score__min__energy>  (29) 
-5.8200000000000003

>  <m_primary>  (29) 
energy

$$$$
29:0
     RDKit          3D

 51 54  0  0  0  0  0  0  0  0999 V2000
   52.5180   21.8830   48.0350 C   0  0  0  0  0  0  0  0  0  0  0  0
   53.0460   22.6690   46.9110 C   0  0  0  0  0  0  0  0  0  0  0  0
   53.4940   23.3070   45.9820 C   0  0  0  0  0  0  0  0  0  0  0  0
   54.0300   24.0890   44.8680 C   0  0  0  0  0  0  0  0  0  0  0  0
   55.4490   24.2900   45.1100 N   0  0  0  0  0  0  0  0  0  0  0  0
   56.6450   21.1500   43.8850 C   0  0  0  0  0  0  0  0  0  0  0  0
   55.1390   26.3550   45.9700 O   0  0  0  0  0  0  0  0  0  0  0  0
   57.2620   25.5950   45.8740 C   0  0  0  0  0  0  0  0  0  0  0  0
   57.8570   26.7920   46.4580 C   0  0  0  0  0  0  0  0  0  0  0  0
   58.7460   26.7380   47.5110 C   0  0  0  0  0  0  0  0  0  0  0  0
   59.2520   27.9460   47.9890 C   0  0  0  0  0  0  0  0  0  0  0  0
   58.8880   29.1570   47.4400 C   0  0  0  0  0  0  0  0  0  0  0  0
   59.3800   30.4090   47.9000 N   0  0  0  0  0  0  0  0  0  0  0  0
   59.2040   30.8150   49.3000 C   0  0  0  0  0  0  0  0  0  0  0  0
   59.2990   32.3180   49.3360 C   0  0  0  0  0  0  0  0  0  0  0  0
   60.5010   32.8220   48.8920 O   0  0  0  0  0  0  0  0  0  0  0  0
   61.0970   32.0650   47.9140 C   0  0  0  0  0  0  0  0  0  0  0  0
   60.0730   31.3520   47.0460 C   0  0  0  0  0  0  0  0  0  0  0  0
   58.0170   29.1430   46.4160 N   0  0  0  0  0  0  0  0  0  0  0  0
   57.4890   28.0160   45.9030 C   0  0  0  0  0  0  0  0  0  0  0  0
   58.1350   24.5770   45.5300 C   0  0  0  0  0  0  0  0  0  0  0  0
   57.6170   23.4440   44.9840 C   0  0  0  0  0  0  0  0  0  0  0  0
   58.4890   22.4320   44.6410 C   0  0  0  0  0  0  0  0  0  0  0  0
   59.9350   22.5920   44.8700 C   0  0  0  0  0  0  0  0  0  0  0  0
   57.9720   21.2940   44.0930 N   0  0  0  0  0  0  0  0  0  0  0  0
   55.9310   25.4230   45.6540 C   0  0  0  0  0  0  0  0  0  0  0  0
   56.2250   20.0270   43.3530 N   0  0  0  0  0  0  0  0  0  0  0  0
   55.7710   22.1220   44.2090 N   0  0  0  0  0  0  0  0  0  0  0  0
   56.2620   23.2570   44.7530 C   0  0  0  0  0  0  0  0  0  0  0  0
   52.8286   22.3453   48.9836 H   0  0  0  0  0  0  0  0  0  0  0  0
   51.4196   21.8585   47.9813 H   0  0  0  0  0  0  0  0  0  0  0  0
   52.9107   20.8569   47.9813 H   0  0  0  0  0  0  0  0  0  0  0  0
   53.8848   23.5438   43.9237 H   0  0  0  0  0  0  0  0  0  0  0  0
   53.5118   25.0563   44.7925 H   0  0  0  0  0  0  0  0  0  0  0  0
   59.0446   25.7778   47.9570 H   0  0  0  0  0  0  0  0  0  0  0  0
   59.9624   27.9324   48.8287 H   0  0  0  0  0  0  0  0  0  0  0  0
   58.2195   30.4895   49.6672 H   0  0  0  0  0  0  0  0  0  0  0  0
   59.9710   30.3569   49.9418 H   0  0  0  0  0  0  0  0  0  0  0  0
   58.4987   32.7287   48.7030 H   0  0  0  0  0  0  0  0  0  0  0  0
   59.2048   32.6137   50.3913 H   0  0  0  0  0  0  0  0  0  0  0  0
   61.7066   32.7229   47.2771 H   0  0  0  0  0  0  0  0  0  0  0  0
   61.7182   31.3015   48.4051 H   0  0  0  0  0  0  0  0  0  0  0  0
   59.3603   32.0782   46.6281 H   0  0  0  0  0  0  0  0  0  0  0  0
   60.5605   30.8368   46.2052 H   0  0  0  0  0  0  0  0  0  0  0  0
   56.7810   28.0604   45.0623 H   0  0  0  0  0  0  0  0  0  0  0  0
   59.2177   24.6816   45.6937 H   0  0  0  0  0  0  0  0  0  0  0  0
   60.1347   22.6141   45.9515 H   0  0  0  0  0  0  0  0  0  0  0  0
   60.4739   21.7480   44.4148 H   0  0  0  0  0  0  0  0  0  0  0  0
   60.2764   23.5334   44.4148 H   0  0  0  0  0  0  0  0  0  0  0  0
   58.6720   20.5600   43.8520 H   0  0  0  0  0  0  0  0  0  0  0  0
   56.6360   19.1630   43.7680 H   0  0  0  0  0  0  0  0  0  0  0  0
  1  2  1  0
  2  3  3  0
  3  4  1  0
  4  5  1  0
  5  6  1  0
  6  7  2  0
  6  8  1  0
  8  9  1  0
  9 10  2  0
 10 11  1  0
 11 12  2  0
 12 13  1  0
 13 14  1  0
 14 15  1  0
 15 16  1  0
 16 17  1  0
 17 18  1  0
 12 19  1  0
 19 20  2  0
  8 21  2  0
 21 22  1  0
 22 23  2  0
 23 24  1  0
 23 25  1  0
 25 26  1  0
 26 27  2  3
 26 28  1  0
 28 29  2  0
 29  5  1  0
 20  9  1  0
 29 22  1  0
 18 13  1  0
  1 30  1  0
  1 31  1  0
  1 32  1  0
  4 33  1  0
  4 34  1  0
 10 35  1  0
 11 36  1  0
 14 37  1  0
 14 38  1  0
 15 39  1  0
 15 40  1  0
 17 41  1  0
 17 42  1  0
 18 43  1  0
 18 44  1  0
 20 45  1  0
 21 46  1  0
 24 47  1  0
 24 48  1  0
 24 49  1  0
 25 50  1  0
 27 51  1  0
M  END
>  <smiles>  (30) 
CC#CCn1c(=O)c(-c2ccc(N3CCOCC3)nc2)cc2c(C)[nH]c(=N)nc21

>  <score_type>  (30) 
oracle

>  <origin>  (30) 
adg

>  <m_score__min__energy>  (30) 
-8.2899999999999991

>  <m_primary>  (30) 
energy

$$$$
30:0
     RDKit          3D

 49 51  0  0  0  0  0  0  0  0999 V2000
   57.4120   31.9370   41.8570 C   0  0  0  0  0  0  0  0  0  0  0  0
   56.6780   30.8410   42.6200 C   0  0  0  0  0  0  0  0  0  0  0  0
   57.3050   30.6250   43.9280 N   0  0  0  0  0  0  0  0  0  0  0  0
   57.5370   31.5340   44.9170 C   0  0  0  0  0  0  0  0  0  0  0  0
   57.0610   32.9570   44.9070 C   0  0  0  0  0  0  0  0  0  0  0  0
   57.8080   33.7260   45.9080 N   0  0  0  0  0  0  0  0  0  0  0  0
   58.9610   34.3910   45.2910 C   0  0  0  0  0  0  0  0  0  0  0  0
   59.6890   35.3070   46.2930 C   0  0  0  0  0  0  0  0  0  0  0  0
   60.5570   34.6010   47.2640 N   0  0  0  0  0  0  0  0  0  0  0  0
   60.0260   34.4900   48.6370 C   0  0  0  0  0  0  0  0  0  0  0  0
   59.3310   33.1330   48.9080 C   0  0  0  0  0  0  0  0  0  0  0  0
   59.5260   32.1800   47.8810 O   0  0  0  0  0  0  0  0  0  0  0  0
   60.8860   32.1350   47.5220 C   0  0  0  0  0  0  0  0  0  0  0  0
   61.2620   33.4050   46.7520 C   0  0  0  0  0  0  0  0  0  0  0  0
   58.1930   30.9940   45.9740 N   0  0  0  0  0  0  0  0  0  0  0  0
   58.4010   29.7160   45.6200 C   0  0  0  0  0  0  0  0  0  0  0  0
   59.0500   28.7190   46.3440 C   0  0  0  0  0  0  0  0  0  0  0  0
   59.1680   27.4430   45.7510 C   0  0  0  0  0  0  0  0  0  0  0  0
   59.8220   26.3230   46.5020 C   0  0  0  0  0  0  0  0  0  0  0  0
   58.6100   27.2070   44.4680 C   0  0  0  0  0  0  0  0  0  0  0  0
   57.9600   28.2390   43.7660 C   0  0  0  0  0  0  0  0  0  0  0  0
   57.8730   29.4890   44.3830 C   0  0  0  0  0  0  0  0  0  0  0  0
   57.8776   32.6322   42.5711 H   0  0  0  0  0  0  0  0  0  0  0  0
   58.1904   31.4852   41.2245 H   0  0  0  0  0  0  0  0  0  0  0  0
   56.6979   32.4848   41.2245 H   0  0  0  0  0  0  0  0  0  0  0  0
   55.6293   31.1396   42.7650 H   0  0  0  0  0  0  0  0  0  0  0  0
   56.7269   29.9071   42.0408 H   0  0  0  0  0  0  0  0  0  0  0  0
   57.2265   33.3927   43.9106 H   0  0  0  0  0  0  0  0  0  0  0  0
   55.9875   32.9877   45.1451 H   0  0  0  0  0  0  0  0  0  0  0  0
   58.1690   33.0470   46.6190 H   0  0  0  0  0  0  0  0  0  0  0  0
   59.6641   33.6256   44.9307 H   0  0  0  0  0  0  0  0  0  0  0  0
   58.5964   35.0114   44.4591 H   0  0  0  0  0  0  0  0  0  0  0  0
   60.3146   36.0092   45.7224 H   0  0  0  0  0  0  0  0  0  0  0  0
   58.9053   35.8044   46.8833 H   0  0  0  0  0  0  0  0  0  0  0  0
   60.8594   34.6049   49.3457 H   0  0  0  0  0  0  0  0  0  0  0  0
   59.2694   35.2785   48.7624 H   0  0  0  0  0  0  0  0  0  0  0  0
   59.7300   32.7195   49.8460 H   0  0  0  0  0  0  0  0  0  0  0  0
   58.2502   33.3303   48.9630 H   0  0  0  0  0  0  0  0  0  0  0  0
   61.5014   32.0634   48.4309 H   0  0  0  0  0  0  0  0  0  0  0  0
   61.0642   31.2571   46.8835 H   0  0  0  0  0  0  0  0  0  0  0  0
   62.3461   33.5668   46.8442 H   0  0  0  0  0  0  0  0  0  0  0  0
   60.9652   33.2627   45.7024 H   0  0  0  0  0  0  0  0  0  0  0  0
   58.4740   31.4650   46.8640 H   0  0  0  0  0  0  0  0  0  0  0  0
   59.4577   28.9192   47.3459 H   0  0  0  0  0  0  0  0  0  0  0  0
   59.7199   26.4978   47.5832 H   0  0  0  0  0  0  0  0  0  0  0  0
   59.3374   25.3717   46.2370 H   0  0  0  0  0  0  0  0  0  0  0  0
   60.8886   26.2775   46.2370 H   0  0  0  0  0  0  0  0  0  0  0  0
   58.6863   26.2065   44.0172 H   0  0  0  0  0  0  0  0  0  0  0  0
   57.5352   28.0672   42.7660 H   0  0  0  0  0  0  0  0  0  0  0  0
  1  2  1  0
  2  3  1  0
  3  4  1  0
  4  5  1  0
  5  6  1  0
  6  7  1  0
  7  8  1  0
  8  9  1  0
  9 10  1  0
 10 11  1  0
 11 12  1  0
 12 13  1  0
 13 14  1  0
  4 15  2  0
 15 16  1  0
 16 17  2  0
 17 18  1  0
 18 19  1  0
 18 20  2  0
 20 21  1  0
 21 22  2  0
 22  3  1  0
 14  9  1  0
 22 16  1  0
  1 23  1  0
  1 24  1  0
  1 25  1  0
  2 26  1  0
  2 27  1  0
  5 28  1  0
  5 29  1  0
  6 30  1  0
  7 31  1  0
  7 32  1  0
  8 33  1  0
  8 34  1  0
 10 35  1  0
 10 36  1  0
 11 37  1  0
 11 38  1  0
 13 39  1  0
 13 40  1  0
 14 41  1  0
 14 42  1  0
 15 43  1  0
 17 44  1  0
 19 45  1  0
 19 46  1  0
 19 47  1  0
 20 48  1  0
 21 49  1  0
M  CHG  1  15   1
M  END
>  <UniqueID>  (31) 
28

>  <SMILES>  (31) 
CCn1c(CNCCN2CCOCC2)[nH+]c2cc(C)ccc21

>  <Energy>  (31) 
95.94925980836048

>  <Genealogy>  (31) 
CCn1c(CNCCN2CCOCC2)[nH+]c2cc(C)ccc21 (protonated)
CCn1c(CNCCN2CCOCC2)[nH+]c2cc(C)ccc21 (3D coordinates assigned)
CCn1c(CNCCN2CCOCC2)[nH+]c2cc(C)ccc21 (nonaromatic ring conformer: 95.94925980836048 kcal/mol)

>  <smiles>  (31) 
CCn1c(CNCCN2CCOCC2)nc2cc(C)ccc21

>  <score_type>  (31) 
oracle

>  <origin>  (31) 
adg

>  <m_score__min__energy>  (31) 
-5.1100000000000003

>  <m_primary>  (31) 
energy

$$$$
31:0
     RDKit          3D

 38 39  0  0  0  0  0  0  0  0999 V2000
   58.8720   28.1980   48.0820 C   0  0  0  0  0  0  0  0  0  0  0  0
   58.4810   27.1250   47.0720 C   0  0  0  0  0  0  0  0  0  0  0  0
   57.3670   27.5470   46.3080 O   0  0  0  0  0  0  0  0  0  0  0  0
   57.4230   27.0390   44.9870 C   0  0  0  0  0  0  0  0  0  0  0  0
   58.0880   28.0470   44.0440 C   0  0  0  0  0  0  0  0  0  0  0  0
   57.8550   29.4250   44.4990 N   0  0  0  0  0  0  0  0  0  0  0  0
   56.7400   30.1700   44.3150 C   0  0  0  0  0  0  0  0  0  0  0  0
   55.4910   29.6860   43.6480 C   0  0  0  0  0  0  0  0  0  0  0  0
   56.8510   31.4160   44.8240 N   0  0  0  0  0  0  0  0  0  0  0  0
   58.0970   31.4640   45.3370 C   0  0  0  0  0  0  0  0  0  0  0  0
   58.6450   32.6720   45.9910 C   0  0  0  0  0  0  0  0  0  0  0  0
   58.7860   32.7000   47.3890 C   0  0  0  0  0  0  0  0  0  0  0  0
   59.2860   33.8400   48.0270 C   0  0  0  0  0  0  0  0  0  0  0  0
   59.6350   34.9660   47.2770 C   0  0  0  0  0  0  0  0  0  0  0  0
   59.4770   34.9560   45.8890 C   0  0  0  0  0  0  0  0  0  0  0  0
   58.9790   33.8180   45.2470 C   0  0  0  0  0  0  0  0  0  0  0  0
   58.7160   30.2340   45.1570 C   0  0  0  0  0  0  0  0  0  0  0  0
   60.0920   29.8420   45.6160 C   0  0  0  0  0  0  0  0  0  0  0  0
   58.7308   27.8105   49.1018 H   0  0  0  0  0  0  0  0  0  0  0  0
   59.9275   28.4713   47.9365 H   0  0  0  0  0  0  0  0  0  0  0  0
   58.2398   29.0863   47.9365 H   0  0  0  0  0  0  0  0  0  0  0  0
   59.3302   26.9342   46.3993 H   0  0  0  0  0  0  0  0  0  0  0  0
   58.2134   26.2061   47.6142 H   0  0  0  0  0  0  0  0  0  0  0  0
   58.0040   26.1050   44.9842 H   0  0  0  0  0  0  0  0  0  0  0  0
   56.3969   26.8528   44.6371 H   0  0  0  0  0  0  0  0  0  0  0  0
   59.1708   27.8549   44.0174 H   0  0  0  0  0  0  0  0  0  0  0  0
   57.6518   27.9300   43.0410 H   0  0  0  0  0  0  0  0  0  0  0  0
   54.7539   29.4004   44.4129 H   0  0  0  0  0  0  0  0  0  0  0  0
   55.0759   30.4884   43.0204 H   0  0  0  0  0  0  0  0  0  0  0  0
   55.7250   28.8135   43.0204 H   0  0  0  0  0  0  0  0  0  0  0  0
   58.5015   31.8203   47.9850 H   0  0  0  0  0  0  0  0  0  0  0  0
   59.4046   33.8500   49.1205 H   0  0  0  0  0  0  0  0  0  0  0  0
   60.0339   35.8597   47.7791 H   0  0  0  0  0  0  0  0  0  0  0  0
   59.7450   35.8454   45.2998 H   0  0  0  0  0  0  0  0  0  0  0  0
   58.8478   33.8190   44.1549 H   0  0  0  0  0  0  0  0  0  0  0  0
   60.1231   29.8331   46.7155 H   0  0  0  0  0  0  0  0  0  0  0  0
   60.3340   28.8392   45.2343 H   0  0  0  0  0  0  0  0  0  0  0  0
   60.8262   30.5667   45.2343 H   0  0  0  0  0  0  0  0  0  0  0  0
  1  2  1  0
  2  3  1  0
  3  4  1  0
  4  5  1  0
  5  6  1  0
  6  7  1  0
  7  8  1  0
  7  9  2  0
  9 10  1  0
 10 11  1  0
 11 12  2  0
 12 13  1  0
 13 14  2  0
 14 15  1  0
 15 16  2  0
 10 17  2  0
 17 18  1  0
 17  6  1  0
 16 11  1  0
  1 19  1  0
  1 20  1  0
  1 21  1  0
  2 22  1  0
  2 23  1  0
  4 24  1  0
  4 25  1  0
  5 26  1  0
  5 27  1  0
  8 28  1  0
  8 29  1  0
  8 30  1  0
 12 31  1  0
 13 32  1  0
 14 33  1  0
 15 34  1  0
 16 35  1  0
 18 36  1  0
 18 37  1  0
 18 38  1  0
M  END
>  <UniqueID>  (32) 
29

>  <SMILES>  (32) 
CCOCCn1c(C)nc(-c2ccccc2)c1C

>  <Energy>  (32) 
68.28559691569835

>  <Genealogy>  (32) 
CCOCCn1c(C)nc(-c2ccccc2)c1C (3D coordinates assigned)
CCOCCn1c(C)nc(-c2ccccc2)c1C (optimized conformer: 68.28559691569835 kcal/mol)

>  <smiles>  (32) 
CCOCCn1c(C)nc(-c2ccccc2)c1C

>  <score_type>  (32) 
oracle

>  <origin>  (32) 
adg

>  <m_score__min__energy>  (32) 
-6.8499999999999996

>  <m_primary>  (32) 
energy

$$$$
32:0
     RDKit          3D

 40 41  0  0  0  0  0  0  0  0999 V2000
   59.1920   32.5340   46.4110 C   0  0  0  0  0  0  0  0  0  0  0  0
   58.5030   31.2940   45.8450 C   0  0  0  0  0  0  0  0  0  0  0  0
   57.1900   31.6520   45.2670 N   0  0  0  0  0  0  0  0  0  0  0  0
   57.0040   33.1140   45.3020 C   0  0  0  0  0  0  0  0  0  0  0  0
   57.0410   31.1420   43.8840 C   0  0  0  0  0  0  0  0  0  0  0  0
   56.4300   29.7340   43.8830 C   0  0  0  0  0  0  0  0  0  0  0  0
   56.4210   29.1700   45.2340 N   0  0  0  0  0  0  0  0  0  0  0  0
   56.8990   27.8580   45.5680 C   0  0  0  0  0  0  0  0  0  0  0  0
   58.2310   27.4840   45.5740 C   0  0  0  0  0  0  0  0  0  0  0  0
   58.2410   26.1560   45.9600 C   0  0  0  0  0  0  0  0  0  0  0  0
   59.3800   25.3660   46.0820 O   0  0  0  0  0  0  0  0  0  0  0  0
   56.9880   25.7090   46.1870 N   0  0  0  0  0  0  0  0  0  0  0  0
   56.6010   24.3790   46.5660 C   0  0  0  0  0  0  0  0  0  0  0  0
   56.5400   24.0370   47.9260 C   0  0  0  0  0  0  0  0  0  0  0  0
   56.1580   22.7500   48.3140 C   0  0  0  0  0  0  0  0  0  0  0  0
   55.8430   21.7920   47.3480 C   0  0  0  0  0  0  0  0  0  0  0  0
   55.9140   22.1180   45.9910 C   0  0  0  0  0  0  0  0  0  0  0  0
   56.2940   23.4060   45.5930 C   0  0  0  0  0  0  0  0  0  0  0  0
   56.4410   23.7500   43.8740 Cl  0  0  0  0  0  0  0  0  0  0  0  0
   56.1630   26.7410   45.9280 C   0  0  0  0  0  0  0  0  0  0  0  0
   54.7770   26.6580   46.0020 O   0  0  0  0  0  0  0  0  0  0  0  0
   59.1707   32.4957   47.5101 H   0  0  0  0  0  0  0  0  0  0  0  0
   60.2358   32.5634   46.0653 H   0  0  0  0  0  0  0  0  0  0  0  0
   58.6657   33.4359   46.0653 H   0  0  0  0  0  0  0  0  0  0  0  0
   59.1363   30.8538   45.0607 H   0  0  0  0  0  0  0  0  0  0  0  0
   58.3491   30.5692   46.6580 H   0  0  0  0  0  0  0  0  0  0  0  0
   56.9608   33.4532   46.3475 H   0  0  0  0  0  0  0  0  0  0  0  0
   57.8471   33.6032   44.7923 H   0  0  0  0  0  0  0  0  0  0  0  0
   56.0652   33.3765   44.7923 H   0  0  0  0  0  0  0  0  0  0  0  0
   56.3846   31.8200   43.3188 H   0  0  0  0  0  0  0  0  0  0  0  0
   58.0361   31.0939   43.4177 H   0  0  0  0  0  0  0  0  0  0  0  0
   55.3972   29.7894   43.5085 H   0  0  0  0  0  0  0  0  0  0  0  0
   57.0383   29.0862   43.2346 H   0  0  0  0  0  0  0  0  0  0  0  0
   55.9170   29.7070   45.9750 H   0  0  0  0  0  0  0  0  0  0  0  0
   59.0995   28.1111   45.3242 H   0  0  0  0  0  0  0  0  0  0  0  0
   59.8960   25.0680   45.2630 H   0  0  0  0  0  0  0  0  0  0  0  0
   56.7942   24.7860   48.6904 H   0  0  0  0  0  0  0  0  0  0  0  0
   56.1054   22.4912   49.3818 H   0  0  0  0  0  0  0  0  0  0  0  0
   55.5389   20.7805   47.6553 H   0  0  0  0  0  0  0  0  0  0  0  0
   55.6704   21.3598   45.2322 H   0  0  0  0  0  0  0  0  0  0  0  0
  1  2  1  0
  2  3  1  0
  3  4  1  0
  3  5  1  0
  5  6  1  0
  6  7  1  0
  7  8  1  0
  8  9  1  0
  9 10  2  0
 10 11  1  0
 10 12  1  0
 12 13  1  0
 13 14  2  0
 14 15  1  0
 15 16  2  0
 16 17  1  0
 17 18  2  0
 18 19  1  0
 12 20  1  0
 20 21  1  0
 20  8  2  0
 18 13  1  0
  1 22  1  0
  1 23  1  0
  1 24  1  0
  2 25  1  0
  2 26  1  0
  4 27  1  0
  4 28  1  0
  4 29  1  0
  5 30  1  0
  5 31  1  0
  6 32  1  0
  6 33  1  0
  7 34  1  0
  9 35  1  0
 11 36  1  0
 14 37  1  0
 15 38  1  0
 16 39  1  0
 17 40  1  0
M  CHG  1  21  -1
M  END
>  <UniqueID>  (33) 
30

>  <SMILES>  (33) 
CCN(C)CCNc1cc(O)n(-c2ccccc2Cl)c1[O-]

>  <Energy>  (33) 
71.83248027339917

>  <Genealogy>  (33) 
CCN(C)CCNc1cc(O)n(-c2ccccc2Cl)c1[O-] (protonated)
CCN(C)CCNc1cc(O)n(-c2ccccc2Cl)c1[O-] (3D coordinates assigned)
CCN(C)CCNc1cc(O)n(-c2ccccc2Cl)c1[O-] (optimized conformer: 71.83248027339917 kcal/mol)

>  <smiles>  (33) 
CCN(C)CCNc1cc(O)n(-c2ccccc2Cl)c1O

>  <score_type>  (33) 
oracle

>  <origin>  (33) 
adg

>  <m_score__min__energy>  (33) 
-9.9000000000000004

>  <m_primary>  (33) 
energy

$$$$
33:0
     RDKit          3D

 38 40  0  0  0  0  0  0  0  0999 V2000
   58.9290   22.8310   45.1310 C   0  0  0  0  0  0  0  0  0  0  0  0
   58.9040   23.9290   46.0370 O   0  0  0  0  0  0  0  0  0  0  0  0
   58.1880   25.1160   45.8230 C   0  0  0  0  0  0  0  0  0  0  0  0
   56.8350   25.1500   46.1880 C   0  0  0  0  0  0  0  0  0  0  0  0
   56.0740   26.3060   45.9970 C   0  0  0  0  0  0  0  0  0  0  0  0
   56.6600   27.4460   45.4390 C   0  0  0  0  0  0  0  0  0  0  0  0
   55.9190   28.5680   45.2440 N   0  0  0  0  0  0  0  0  0  0  0  0
   56.4500   29.7000   44.7100 C   0  0  0  0  0  0  0  0  0  0  0  0
   55.7060   30.7010   44.5400 O   0  0  0  0  0  0  0  0  0  0  0  0
   57.8150   29.7450   44.3540 C   0  0  0  0  0  0  0  0  0  0  0  0
   58.4420   30.9980   43.7690 C   0  0  0  0  0  0  0  0  0  0  0  0
   58.8120   32.0120   44.7820 N   0  0  0  0  0  0  0  0  0  0  0  0
   58.5120   33.4160   44.4390 C   0  0  0  0  0  0  0  0  0  0  0  0
   57.1290   33.8840   44.9480 C   0  0  0  0  0  0  0  0  0  0  0  0
   56.6690   33.1940   46.1650 N   0  0  0  0  0  0  0  0  0  0  0  0
   57.7840   32.6920   46.9710 C   0  0  0  0  0  0  0  0  0  0  0  0
   58.5800   31.6330   46.1940 C   0  0  0  0  0  0  0  0  0  0  0  0
   58.5850   28.5810   44.5120 C   0  0  0  0  0  0  0  0  0  0  0  0
   58.0200   27.4280   45.0680 C   0  0  0  0  0  0  0  0  0  0  0  0
   58.7790   26.2640   45.2580 C   0  0  0  0  0  0  0  0  0  0  0  0
   58.9505   21.8884   45.6977 H   0  0  0  0  0  0  0  0  0  0  0  0
   58.0300   22.8577   44.4977 H   0  0  0  0  0  0  0  0  0  0  0  0
   59.8258   22.8986   44.4977 H   0  0  0  0  0  0  0  0  0  0  0  0
   56.3676   24.2574   46.6293 H   0  0  0  0  0  0  0  0  0  0  0  0
   55.0127   26.3192   46.2860 H   0  0  0  0  0  0  0  0  0  0  0  0
   59.3508   30.7075   43.2216 H   0  0  0  0  0  0  0  0  0  0  0  0
   57.6857   31.4591   43.1167 H   0  0  0  0  0  0  0  0  0  0  0  0
   59.2850   34.0582   44.8862 H   0  0  0  0  0  0  0  0  0  0  0  0
   58.4989   33.4893   43.3415 H   0  0  0  0  0  0  0  0  0  0  0  0
   57.1869   34.9612   45.1631 H   0  0  0  0  0  0  0  0  0  0  0  0
   56.4035   33.6461   44.1562 H   0  0  0  0  0  0  0  0  0  0  0  0
   56.0590   32.3870   45.8970 H   0  0  0  0  0  0  0  0  0  0  0  0
   58.4503   33.5289   47.2272 H   0  0  0  0  0  0  0  0  0  0  0  0
   57.3812   32.2321   47.8855 H   0  0  0  0  0  0  0  0  0  0  0  0
   59.5543   31.4949   46.6855 H   0  0  0  0  0  0  0  0  0  0  0  0
   57.9875   30.7062   46.1953 H   0  0  0  0  0  0  0  0  0  0  0  0
   59.6388   28.5758   44.1967 H   0  0  0  0  0  0  0  0  0  0  0  0
   59.8391   26.2470   44.9651 H   0  0  0  0  0  0  0  0  0  0  0  0
  1  2  1  0
  2  3  1  0
  3  4  2  0
  4  5  1  0
  5  6  2  0
  6  7  1  0
  7  8  1  0
  8  9  2  0
  8 10  1  0
 10 11  1  0
 11 12  1  0
 12 13  1  0
 13 14  1  0
 14 15  1  0
 15 16  1  0
 16 17  1  0
 10 18  2  0
 18 19  1  0
 19 20  2  0
 20  3  1  0
 19  6  1  0
 17 12  1  0
  1 21  1  0
  1 22  1  0
  1 23  1  0
  4 24  1  0
  5 25  1  0
 11 26  1  0
 11 27  1  0
 13 28  1  0
 13 29  1  0
 14 30  1  0
 14 31  1  0
 15 32  1  0
 16 33  1  0
 16 34  1  0
 17 35  1  0
 17 36  1  0
 18 37  1  0
 20 38  1  0
M  CHG  1   7  -1
M  END
>  <UniqueID>  (34) 
31

>  <SMILES>  (34) 
COc1ccc2[n-]c(=O)c(CN3CCNCC3)cc2c1

>  <Energy>  (34) 
57.34635523114833

>  <Genealogy>  (34) 
COc1ccc2[n-]c(=O)c(CN3CCNCC3)cc2c1 (protonated)
COc1ccc2[n-]c(=O)c(CN3CCNCC3)cc2c1 (3D coordinates assigned)
COc1ccc2[n-]c(=O)c(CN3CCNCC3)cc2c1 (nonaromatic ring conformer: 57.34635523114833 kcal/mol)

>  <smiles>  (34) 
COc1ccc2[nH]c(=O)c(CN3CCNCC3)cc2c1

>  <score_type>  (34) 
oracle

>  <origin>  (34) 
adg

>  <m_score__min__energy>  (34) 
-8.5299999999999994

>  <m_primary>  (34) 
energy

$$$$
34:0
     RDKit          3D

 42 45  0  0  0  0  0  0  0  0999 V2000
   56.6490   29.8990   43.2380 C   0  0  0  0  0  0  0  0  0  0  0  0
   56.6140   30.5610   44.4980 O   0  0  0  0  0  0  0  0  0  0  0  0
   57.6530   30.5350   45.4460 C   0  0  0  0  0  0  0  0  0  0  0  0
   58.2030   29.3230   45.9000 C   0  0  0  0  0  0  0  0  0  0  0  0
   59.2320   29.3220   46.8380 C   0  0  0  0  0  0  0  0  0  0  0  0
   59.7420   30.5240   47.3200 C   0  0  0  0  0  0  0  0  0  0  0  0
   59.2450   31.7550   46.8540 C   0  0  0  0  0  0  0  0  0  0  0  0
   58.1500   31.7560   45.9490 C   0  0  0  0  0  0  0  0  0  0  0  0
   57.5450   33.0560   45.4630 C   0  0  0  0  0  0  0  0  0  0  0  0
   57.8080   34.2110   46.4260 C   0  0  0  0  0  0  0  0  0  0  0  0
   59.3010   34.3130   46.7180 C   0  0  0  0  0  0  0  0  0  0  0  0
   59.8120   33.0490   47.4360 C   0  0  2  0  0  0  0  0  0  0  0  0
   61.3420   33.0760   47.4450 C   0  0  0  0  0  0  0  0  0  0  0  0
   62.0100   33.7570   46.4090 C   0  0  0  0  0  0  0  0  0  0  0  0
   63.3990   33.7870   46.3630 C   0  0  0  0  0  0  0  0  0  0  0  0
   64.1320   33.1810   47.3300 N   0  0  0  0  0  0  0  0  0  0  0  0
   63.5420   32.5590   48.3880 C   0  0  0  0  0  0  0  0  0  0  0  0
   64.3410   31.9810   49.3880 C   0  0  0  0  0  0  0  0  0  0  0  0
   63.7550   31.3760   50.4990 C   0  0  0  0  0  0  0  0  0  0  0  0
   62.3690   31.3490   50.6280 C   0  0  0  0  0  0  0  0  0  0  0  0
   61.5560   31.9130   49.6420 C   0  0  0  0  0  0  0  0  0  0  0  0
   62.1240   32.5090   48.4910 C   0  0  0  0  0  0  0  0  0  0  0  0
   56.7065   28.8120   43.3964 H   0  0  0  0  0  0  0  0  0  0  0  0
   55.7369   30.1394   42.6721 H   0  0  0  0  0  0  0  0  0  0  0  0
   57.5307   30.2342   42.6721 H   0  0  0  0  0  0  0  0  0  0  0  0
   57.8175   28.3689   45.5113 H   0  0  0  0  0  0  0  0  0  0  0  0
   59.6433   28.3679   47.1994 H   0  0  0  0  0  0  0  0  0  0  0  0
   60.5429   30.5114   48.0740 H   0  0  0  0  0  0  0  0  0  0  0  0
   57.9804   33.3051   44.4840 H   0  0  0  0  0  0  0  0  0  0  0  0
   56.4562   32.9161   45.3934 H   0  0  0  0  0  0  0  0  0  0  0  0
   57.4600   35.1507   45.9723 H   0  0  0  0  0  0  0  0  0  0  0  0
   57.2665   34.0293   47.3661 H   0  0  0  0  0  0  0  0  0  0  0  0
   59.8454   34.4327   45.7697 H   0  0  0  0  0  0  0  0  0  0  0  0
   59.4711   35.1804   47.3728 H   0  0  0  0  0  0  0  0  0  0  0  0
   59.4456   33.0600   48.4731 H   0  0  0  0  0  0  0  0  0  0  0  0
   61.4275   34.2697   45.6293 H   0  0  0  0  0  0  0  0  0  0  0  0
   63.9071   34.3057   45.5367 H   0  0  0  0  0  0  0  0  0  0  0  0
   65.1740   33.2210   47.2560 H   0  0  0  0  0  0  0  0  0  0  0  0
   65.4367   32.0058   49.2940 H   0  0  0  0  0  0  0  0  0  0  0  0
   64.3881   30.9197   51.2742 H   0  0  0  0  0  0  0  0  0  0  0  0
   61.9113   30.8806   51.5118 H   0  0  0  0  0  0  0  0  0  0  0  0
   60.4627   31.8937   49.7615 H   0  0  0  0  0  0  0  0  0  0  0  0
  1  2  1  0
  2  3  1  0
  3  4  2  0
  4  5  1  0
  5  6  2  0
  6  7  1  0
  7  8  2  0
  8  9  1  0
  9 10  1  0
 10 11  1  0
 11 12  1  0
 12 13  1  0
 13 14  2  0
 14 15  1  0
 15 16  2  0
 16 17  1  0
 17 18  2  0
 18 19  1  0
 19 20  2  0
 20 21  1  0
 21 22  2  0
  8  3  1  0
 22 13  1  0
 12  7  1  0
 22 17  1  0
  1 23  1  0
  1 24  1  0
  1 25  1  0
  4 26  1  0
  5 27  1  0
  6 28  1  0
  9 29  1  0
  9 30  1  0
 10 31  1  0
 10 32  1  0
 11 33  1  0
 11 34  1  0
 12 35  1  1
 14 36  1  0
 15 37  1  0
 16 38  1  0
 18 39  1  0
 19 40  1  0
 20 41  1  0
 21 42  1  0
M  CHG  1  16   1
M  END
>  <UniqueID>  (35) 
32

>  <SMILES>  (35) 
COc1cccc2c1CCC[C@@H]2c1cc[nH+]c2ccccc12

>  <Energy>  (35) 
54.983711756131925

>  <Genealogy>  (35) 
COc1cccc2c1CCCC2c1cc[nH+]c2ccccc12 (protonated)
COc1cccc2c1CCC[C@@H]2c1cc[nH+]c2ccccc12 (chirality)
COc1cccc2c1CCC[C@@H]2c1cc[nH+]c2ccccc12 (3D coordinates assigned)
COc1cccc2c1CCC[C@@H]2c1cc[nH+]c2ccccc12 (nonaromatic ring conformer: 54.983711756131925 kcal/mol)

>  <smiles>  (35) 
COc1cccc2c1CCCC2c1ccnc2ccccc12

>  <score_type>  (35) 
oracle

>  <origin>  (35) 
adg

>  <m_score__min__energy>  (35) 
-7.3099999999999996

>  <m_primary>  (35) 
energy

$$$$
35:0
     RDKit          3D

 50 52  0  0  0  0  0  0  0  0999 V2000
   57.4010   25.1680   44.4210 C   0  0  0  0  0  0  0  0  0  0  0  0
   56.8240   25.9400   45.6180 C   0  0  0  0  0  0  0  0  0  0  0  0
   57.3080   27.3340   45.7410 N   0  0  0  0  0  0  0  0  0  0  0  0
   58.3530   27.4960   46.7640 C   0  0  0  0  0  0  0  0  0  0  0  0
   58.5290   28.9770   47.0930 C   0  0  0  0  0  0  0  0  0  0  0  0
   58.3490   29.8620   45.9260 N   0  0  0  0  0  0  0  0  0  0  0  0
   58.6200   31.2580   46.1000 C   0  0  0  0  0  0  0  0  0  0  0  0
   57.7400   32.1590   45.5890 N   0  0  0  0  0  0  0  0  0  0  0  0
   57.9810   33.4920   45.6400 C   0  0  0  0  0  0  0  0  0  0  0  0
   57.0180   34.4450   45.0210 C   0  0  0  0  0  0  0  0  0  0  0  0
   59.1460   33.9480   46.1660 N   0  0  0  0  0  0  0  0  0  0  0  0
   60.0710   33.1000   46.6920 C   0  0  0  0  0  0  0  0  0  0  0  0
   61.2920   33.6420   47.2320 N   0  0  0  0  0  0  0  0  0  0  0  0
   62.4750   33.7980   46.3770 C   0  0  0  0  0  0  0  0  0  0  0  0
   63.7220   33.1750   47.0470 C   0  0  0  0  0  0  0  0  0  0  0  0
   63.5130   32.7960   48.3980 O   0  0  0  0  0  0  0  0  0  0  0  0
   62.8750   33.8410   49.1040 C   0  0  0  0  0  0  0  0  0  0  0  0
   61.4120   33.9420   48.6640 C   0  0  0  0  0  0  0  0  0  0  0  0
   59.8130   31.7160   46.7040 C   0  0  0  0  0  0  0  0  0  0  0  0
   60.7330   30.8540   47.3210 O   0  0  0  0  0  0  0  0  0  0  0  0
   60.8520   30.6870   48.7280 C   0  0  0  0  0  0  0  0  0  0  0  0
   57.9310   29.4130   44.5830 C   0  0  0  0  0  0  0  0  0  0  0  0
   57.7820   27.8930   44.4660 C   0  0  0  0  0  0  0  0  0  0  0  0
   58.0223   24.3368   44.7858 H   0  0  0  0  0  0  0  0  0  0  0  0
   56.5775   24.7696   43.8102 H   0  0  0  0  0  0  0  0  0  0  0  0
   58.0163   25.8450   43.8102 H   0  0  0  0  0  0  0  0  0  0  0  0
   55.7291   25.9643   45.5155 H   0  0  0  0  0  0  0  0  0  0  0  0
   57.1599   25.4114   46.5223 H   0  0  0  0  0  0  0  0  0  0  0  0
   58.0606   26.9519   47.6742 H   0  0  0  0  0  0  0  0  0  0  0  0
   59.3023   27.0936   46.3807 H   0  0  0  0  0  0  0  0  0  0  0  0
   57.7893   29.2544   47.8584 H   0  0  0  0  0  0  0  0  0  0  0  0
   59.5623   29.1107   47.4456 H   0  0  0  0  0  0  0  0  0  0  0  0
   56.4746   34.9827   45.8119 H   0  0  0  0  0  0  0  0  0  0  0  0
   57.5659   35.1664   44.3970 H   0  0  0  0  0  0  0  0  0  0  0  0
   56.3024   33.8896   44.3970 H   0  0  0  0  0  0  0  0  0  0  0  0
   62.2936   33.2961   45.4151 H   0  0  0  0  0  0  0  0  0  0  0  0
   62.6579   34.8713   46.2200 H   0  0  0  0  0  0  0  0  0  0  0  0
   64.0128   32.2807   46.4763 H   0  0  0  0  0  0  0  0  0  0  0  0
   64.5066   33.9460   47.0467 H   0  0  0  0  0  0  0  0  0  0  0  0
   62.9188   33.6333   50.1833 H   0  0  0  0  0  0  0  0  0  0  0  0
   63.3865   34.7910   48.8899 H   0  0  0  0  0  0  0  0  0  0  0  0
   60.8094   33.2226   49.2378 H   0  0  0  0  0  0  0  0  0  0  0  0
   61.0513   34.9647   48.8482 H   0  0  0  0  0  0  0  0  0  0  0  0
   60.2871   31.4797   49.2404 H   0  0  0  0  0  0  0  0  0  0  0  0
   60.4490   29.7048   49.0161 H   0  0  0  0  0  0  0  0  0  0  0  0
   61.9119   30.7473   49.0161 H   0  0  0  0  0  0  0  0  0  0  0  0
   56.9621   29.8771   44.3466 H   0  0  0  0  0  0  0  0  0  0  0  0
   58.7211   29.7158   43.8801 H   0  0  0  0  0  0  0  0  0  0  0  0
   57.0565   27.6581   43.6732 H   0  0  0  0  0  0  0  0  0  0  0  0
   58.7594   27.4524   44.2200 H   0  0  0  0  0  0  0  0  0  0  0  0
  1  2  1  0
  2  3  1  0
  3  4  1  0
  4  5  1  0
  5  6  1  0
  6  7  1  0
  7  8  2  0
  8  9  1  0
  9 10  1  0
  9 11  2  0
 11 12  1  0
 12 13  1  0
 13 14  1  0
 14 15  1  0
 15 16  1  0
 16 17  1  0
 17 18  1  0
 12 19  2  0
 19 20  1  0
 20 21  1  0
  6 22  1  0
 22 23  1  0
 23  3  1  0
 19  7  1  0
 18 13  1  0
  1 24  1  0
  1 25  1  0
  1 26  1  0
  2 27  1  0
  2 28  1  0
  4 29  1  0
  4 30  1  0
  5 31  1  0
  5 32  1  0
 10 33  1  0
 10 34  1  0
 10 35  1  0
 14 36  1  0
 14 37  1  0
 15 38  1  0
 15 39  1  0
 17 40  1  0
 17 41  1  0
 18 42  1  0
 18 43  1  0
 21 44  1  0
 21 45  1  0
 21 46  1  0
 22 47  1  0
 22 48  1  0
 23 49  1  0
 23 50  1  0
M  END
>  <UniqueID>  (36) 
33

>  <SMILES>  (36) 
CCN1CCN(c2nc(C)nc(N3CCOCC3)c2OC)CC1

>  <Energy>  (36) 
73.59937481625809

>  <Genealogy>  (36) 
CCN1CCN(c2nc(C)nc(N3CCOCC3)c2OC)CC1 (3D coordinates assigned)
CCN1CCN(c2nc(C)nc(N3CCOCC3)c2OC)CC1 (nonaromatic ring conformer: 73.59937481625809 kcal/mol)

>  <smiles>  (36) 
CCN1CCN(c2nc(C)nc(N3CCOCC3)c2OC)CC1

>  <score_type>  (36) 
oracle

>  <origin>  (36) 
adg

>  <m_score__min__energy>  (36) 
-6.1600000000000001

>  <m_primary>  (36) 
energy

$$$$
36:0
     RDKit          3D

 50 53  0  0  0  0  0  0  0  0999 V2000
   60.3960   27.5440   46.6500 C   0  0  0  0  0  0  0  0  0  0  0  0
   59.8960   27.8510   47.9480 O   0  0  0  0  0  0  0  0  0  0  0  0
   60.0540   29.0910   48.5880 C   0  0  0  0  0  0  0  0  0  0  0  0
   60.6550   29.2080   49.8490 C   0  0  0  0  0  0  0  0  0  0  0  0
   60.7780   30.4650   50.4370 C   0  0  0  0  0  0  0  0  0  0  0  0
   60.3260   31.5770   49.8000 N   0  0  0  0  0  0  0  0  0  0  0  0
   59.7400   31.5130   48.5590 C   0  0  0  0  0  0  0  0  0  0  0  0
   59.5950   30.2480   47.9460 C   0  0  0  0  0  0  0  0  0  0  0  0
   59.0010   30.1520   46.7340 N   0  0  0  0  0  0  0  0  0  0  0  0
   58.5340   31.2400   46.0760 C   0  0  0  0  0  0  0  0  0  0  0  0
   57.8780   31.0440   44.7610 C   0  0  0  0  0  0  0  0  0  0  0  0
   57.0080   29.9560   44.5710 C   0  0  0  0  0  0  0  0  0  0  0  0
   56.3920   29.7490   43.3330 C   0  0  0  0  0  0  0  0  0  0  0  0
   56.6480   30.6190   42.2700 C   0  0  0  0  0  0  0  0  0  0  0  0
   57.5240   31.6930   42.4410 C   0  0  0  0  0  0  0  0  0  0  0  0
   58.1410   31.9050   43.6780 C   0  0  0  0  0  0  0  0  0  0  0  0
   58.6550   32.5060   46.6790 C   0  0  0  0  0  0  0  0  0  0  0  0
   58.1580   33.5150   46.1030 O   0  0  0  0  0  0  0  0  0  0  0  0
   59.2730   32.6380   47.9040 N   0  0  0  0  0  0  0  0  0  0  0  0
   59.3660   33.9850   48.5150 C   0  0  0  0  0  0  0  0  0  0  0  0
   60.7620   34.5910   48.3260 C   0  0  0  0  0  0  0  0  0  0  0  0
   61.7960   33.5470   48.5100 N   0  0  0  0  0  0  0  0  0  0  0  0
   62.4200   33.1550   47.2340 C   0  0  0  0  0  0  0  0  0  0  0  0
   63.3880   31.9770   47.4710 C   0  0  0  0  0  0  0  0  0  0  0  0
   63.6430   31.7510   48.8470 O   0  0  0  0  0  0  0  0  0  0  0  0
   64.0120   32.9640   49.4740 C   0  0  0  0  0  0  0  0  0  0  0  0
   62.8380   33.9640   49.4710 C   0  0  0  0  0  0  0  0  0  0  0  0
   61.3300   26.9705   46.7431 H   0  0  0  0  0  0  0  0  0  0  0  0
   59.6521   26.9468   46.1023 H   0  0  0  0  0  0  0  0  0  0  0  0
   60.5920   28.4776   46.1023 H   0  0  0  0  0  0  0  0  0  0  0  0
   61.0268   28.3137   50.3705 H   0  0  0  0  0  0  0  0  0  0  0  0
   61.2462   30.5584   51.4280 H   0  0  0  0  0  0  0  0  0  0  0  0
   60.4440   32.4740   50.3140 H   0  0  0  0  0  0  0  0  0  0  0  0
   56.8106   29.2629   45.4020 H   0  0  0  0  0  0  0  0  0  0  0  0
   55.7054   28.9007   43.1958 H   0  0  0  0  0  0  0  0  0  0  0  0
   56.1592   30.4578   41.2978 H   0  0  0  0  0  0  0  0  0  0  0  0
   57.7291   32.3734   41.6013 H   0  0  0  0  0  0  0  0  0  0  0  0
   58.8353   32.7486   43.8057 H   0  0  0  0  0  0  0  0  0  0  0  0
   58.6229   34.6442   48.0425 H   0  0  0  0  0  0  0  0  0  0  0  0
   59.1737   33.8894   49.5938 H   0  0  0  0  0  0  0  0  0  0  0  0
   60.8433   35.0096   47.3120 H   0  0  0  0  0  0  0  0  0  0  0  0
   60.9146   35.3859   49.0709 H   0  0  0  0  0  0  0  0  0  0  0  0
   61.6383   32.8491   46.5231 H   0  0  0  0  0  0  0  0  0  0  0  0
   62.9781   34.0091   46.8229 H   0  0  0  0  0  0  0  0  0  0  0  0
   62.9470   31.0661   47.0399 H   0  0  0  0  0  0  0  0  0  0  0  0
   64.3451   32.2298   46.9913 H   0  0  0  0  0  0  0  0  0  0  0  0
   64.3063   32.7572   50.5135 H   0  0  0  0  0  0  0  0  0  0  0  0
   64.8518   33.4060   48.9178 H   0  0  0  0  0  0  0  0  0  0  0  0
   62.4009   34.0101   50.4794 H   0  0  0  0  0  0  0  0  0  0  0  0
   63.2175   34.9524   49.1727 H   0  0  0  0  0  0  0  0  0  0  0  0
  1  2  1  0
  2  3  1  0
  3  4  2  0
  4  5  1  0
  5  6  2  0
  6  7  1  0
  7  8  2  0
  8  9  1  0
  9 10  2  0
 10 11  1  0
 11 12  2  0
 12 13  1  0
 13 14  2  0
 14 15  1  0
 15 16  2  0
 10 17  1  0
 17 18  2  0
 17 19  1  0
 19 20  1  0
 20 21  1  0
 21 22  1  0
 22 23  1  0
 23 24  1  0
 24 25  1  0
 25 26  1  0
 26 27  1  0
  8  3  1  0
 16 11  1  0
 27 22  1  0
 19  7  1  0
  1 28  1  0
  1 29  1  0
  1 30  1  0
  4 31  1  0
  5 32  1  0
  6 33  1  0
 12 34  1  0
 13 35  1  0
 14 36  1  0
 15 37  1  0
 16 38  1  0
 20 39  1  0
 20 40  1  0
 21 41  1  0
 21 42  1  0
 23 43  1  0
 23 44  1  0
 24 45  1  0
 24 46  1  0
 26 47  1  0
 26 48  1  0
 27 49  1  0
 27 50  1  0
M  CHG  1   6   1
M  END
>  <UniqueID>  (37) 
34

>  <SMILES>  (37) 
COc1cc[nH+]c2c1nc(-c1ccccc1)c(=O)n2CCN1CCOCC1

>  <Energy>  (37) 
76.86911068613469

>  <Genealogy>  (37) 
COc1cc[nH+]c2c1nc(-c1ccccc1)c(=O)n2CCN1CCOCC1 (protonated)
COc1cc[nH+]c2c1nc(-c1ccccc1)c(=O)n2CCN1CCOCC1 (3D coordinates assigned)
COc1cc[nH+]c2c1nc(-c1ccccc1)c(=O)n2CCN1CCOCC1 (nonaromatic ring conformer: 76.86911068613469 kcal/mol)

>  <smiles>  (37) 
COc1ccnc2c1nc(-c1ccccc1)c(=O)n2CCN1CCOCC1

>  <score_type>  (37) 
oracle

>  <origin>  (37) 
adg

>  <m_score__min__energy>  (37) 
-6.0599999999999996

>  <m_primary>  (37) 
energy

$$$$
37:0
     RDKit          3D

 46 48  0  0  0  0  0  0  0  0999 V2000
   62.9920   33.8460   46.6070 C   0  0  0  0  0  0  0  0  0  0  0  0
   63.7730   32.6180   47.0700 C   0  0  0  0  0  0  0  0  0  0  0  0
   63.3660   32.2350   48.4410 N   0  0  0  0  0  0  0  0  0  0  0  0
   64.4600   32.5150   49.3880 C   0  0  0  0  0  0  0  0  0  0  0  0
   62.1280   32.9370   48.8540 C   0  0  0  0  0  0  0  0  0  0  0  0
   61.2850   32.0320   49.7640 C   0  0  0  0  0  0  0  0  0  0  0  0
   60.3680   31.0990   48.9650 C   0  0  0  0  0  0  0  0  0  0  0  0
   60.8210   30.9760   47.5800 N   0  0  0  0  0  0  0  0  0  0  0  0
   59.8880   30.9730   46.4880 C   0  0  0  0  0  0  0  0  0  0  0  0
   59.3000   32.1690   46.0140 C   0  0  0  0  0  0  0  0  0  0  0  0
   59.6190   33.4120   46.5970 C   0  0  0  0  0  0  0  0  0  0  0  0
   59.0270   34.5870   46.1390 C   0  0  0  0  0  0  0  0  0  0  0  0
   58.1120   34.5470   45.0920 C   0  0  0  0  0  0  0  0  0  0  0  0
   57.7770   33.3330   44.4950 C   0  0  0  0  0  0  0  0  0  0  0  0
   58.3540   32.1180   44.9380 C   0  0  0  0  0  0  0  0  0  0  0  0
   58.0220   30.9050   44.3570 N   0  0  0  0  0  0  0  0  0  0  0  0
   57.0460   30.8300   43.2540 C   0  0  0  0  0  0  0  0  0  0  0  0
   58.6300   29.7690   44.8220 C   0  0  0  0  0  0  0  0  0  0  0  0
   58.4500   28.1870   44.2630 S   0  0  0  0  0  0  0  0  0  0  0  0
   59.5500   27.4990   45.3370 C   0  0  0  0  0  0  0  0  0  0  0  0
   60.0730   28.5030   46.1450 C   0  0  0  0  0  0  0  0  0  0  0  0
   59.5470   29.7740   45.8580 C   0  0  0  0  0  0  0  0  0  0  0  0
   62.6358   34.4061   47.4841 H   0  0  0  0  0  0  0  0  0  0  0  0
   63.6467   34.4902   46.0017 H   0  0  0  0  0  0  0  0  0  0  0  0
   62.1310   33.5262   46.0017 H   0  0  0  0  0  0  0  0  0  0  0  0
   63.5721   31.7811   46.3850 H   0  0  0  0  0  0  0  0  0  0  0  0
   64.8468   32.8568   47.0698 H   0  0  0  0  0  0  0  0  0  0  0  0
   64.0866   32.4194   50.4183 H   0  0  0  0  0  0  0  0  0  0  0  0
   65.2777   31.7972   49.2263 H   0  0  0  0  0  0  0  0  0  0  0  0
   64.8323   33.5374   49.2263 H   0  0  0  0  0  0  0  0  0  0  0  0
   62.3949   33.8540   49.3998 H   0  0  0  0  0  0  0  0  0  0  0  0
   61.5428   33.1908   47.9579 H   0  0  0  0  0  0  0  0  0  0  0  0
   61.9611   31.4214   50.3805 H   0  0  0  0  0  0  0  0  0  0  0  0
   60.6489   32.6783   50.3867 H   0  0  0  0  0  0  0  0  0  0  0  0
   60.3711   30.1039   49.4339 H   0  0  0  0  0  0  0  0  0  0  0  0
   59.3528   31.5226   48.9646 H   0  0  0  0  0  0  0  0  0  0  0  0
   61.8330   31.1320   47.3740 H   0  0  0  0  0  0  0  0  0  0  0  0
   60.3439   33.4548   47.4233 H   0  0  0  0  0  0  0  0  0  0  0  0
   59.2838   35.5490   46.6066 H   0  0  0  0  0  0  0  0  0  0  0  0
   57.6503   35.4787   44.7333 H   0  0  0  0  0  0  0  0  0  0  0  0
   57.0532   33.3184   43.6668 H   0  0  0  0  0  0  0  0  0  0  0  0
   56.0299   30.7519   43.6682 H   0  0  0  0  0  0  0  0  0  0  0  0
   57.1212   31.7366   42.6356 H   0  0  0  0  0  0  0  0  0  0  0  0
   57.2588   29.9456   42.6356 H   0  0  0  0  0  0  0  0  0  0  0  0
   59.8116   26.4319   45.3905 H   0  0  0  0  0  0  0  0  0  0  0  0
   60.8225   28.3206   46.9292 H   0  0  0  0  0  0  0  0  0  0  0  0
  1  2  1  0
  2  3  1  0
  3  4  1  0
  3  5  1  0
  5  6  1  0
  6  7  1  0
  7  8  1  0
  8  9  1  0
  9 10  2  0
 10 11  1  0
 11 12  2  0
 12 13  1  0
 13 14  2  0
 14 15  1  0
 15 16  2  0
 16 17  1  0
 16 18  1  0
 18 19  1  0
 19 20  1  0
 20 21  2  0
 21 22  1  0
 22  9  1  0
 15 10  1  0
 22 18  2  0
  1 23  1  0
  1 24  1  0
  1 25  1  0
  2 26  1  0
  2 27  1  0
  4 28  1  0
  4 29  1  0
  4 30  1  0
  5 31  1  0
  5 32  1  0
  6 33  1  0
  6 34  1  0
  7 35  1  0
  7 36  1  0
  8 37  1  0
 11 38  1  0
 12 39  1  0
 13 40  1  0
 14 41  1  0
 17 42  1  0
 17 43  1  0
 17 44  1  0
 20 45  1  0
 21 46  1  0
M  CHG  1  16   1
M  END
>  <UniqueID>  (38) 
35

>  <SMILES>  (38) 
CCN(C)CCCNc1c2ccccc2[n+](C)c2sccc12

>  <Energy>  (38) 
88.72955875832471

>  <Genealogy>  (38) 
CCN(C)CCCNc1c2ccccc2[n+](C)c2sccc12 (3D coordinates assigned)
CCN(C)CCCNc1c2ccccc2[n+](C)c2sccc12 (optimized conformer: 88.72955875832471 kcal/mol)

>  <smiles>  (38) 
CCN(C)CCCNc1c2ccccc2[n+](C)c2sccc12

>  <score_type>  (38) 
oracle

>  <origin>  (38) 
adg

>  <m_score__min__energy>  (38) 
-5.3300000000000001

>  <m_primary>  (38) 
energy

$$$$
38:0
     RDKit          3D

 66 69  0  0  0  0  0  0  0  0999 V2000
   56.7250   31.4970   51.8900 C   0  0  0  0  0  0  0  0  0  0  0  0
   58.1330   31.8610   52.3820 C   0  0  0  0  0  0  0  0  0  0  0  0
   58.7250   33.0320   51.6960 N   0  0  0  0  0  0  0  0  0  0  0  0
   58.5090   34.2910   52.4330 C   0  0  0  0  0  0  0  0  0  0  0  0
   60.1410   32.8400   51.3090 C   0  0  0  0  0  0  0  0  0  0  0  0
   60.2350   32.4020   49.8410 C   0  0  0  0  0  0  0  0  0  0  0  0
   58.9060   32.1430   49.2580 N   0  0  0  0  0  0  0  0  0  0  0  0
   59.0120   31.9070   47.8280 C   0  0  0  0  0  0  0  0  0  0  0  0
   59.0800   33.0000   46.9110 C   0  0  0  0  0  0  0  0  0  0  0  0
   59.4290   34.3020   47.3410 C   0  0  0  0  0  0  0  0  0  0  0  0
   59.5200   35.3560   46.4360 C   0  0  0  0  0  0  0  0  0  0  0  0
   59.2790   35.1410   45.0840 C   0  0  0  0  0  0  0  0  0  0  0  0
   58.9230   33.8750   44.6280 C   0  0  0  0  0  0  0  0  0  0  0  0
   58.7870   32.7860   45.5240 C   0  0  0  0  0  0  0  0  0  0  0  0
   58.3850   31.5410   45.0820 N   0  0  0  0  0  0  0  0  0  0  0  0
   57.7350   31.3700   43.7710 C   0  0  0  0  0  0  0  0  0  0  0  0
   58.5550   30.4710   45.9210 C   0  0  0  0  0  0  0  0  0  0  0  0
   58.4790   29.1030   45.6690 C   0  0  0  0  0  0  0  0  0  0  0  0
   58.3080   28.3540   44.4970 C   0  0  0  0  0  0  0  0  0  0  0  0
   58.3250   26.9550   44.5870 C   0  0  0  0  0  0  0  0  0  0  0  0
   58.5470   26.3110   45.8280 C   0  0  0  0  0  0  0  0  0  0  0  0
   58.5540   24.9140   45.9700 O   0  0  0  0  0  0  0  0  0  0  0  0
   57.4110   24.0610   45.8740 C   0  0  0  0  0  0  0  0  0  0  0  0
   56.3710   24.6310   44.9010 C   0  0  0  0  0  0  0  0  0  0  0  0
   55.0420   24.9430   45.6080 C   0  0  0  0  0  0  0  0  0  0  0  0
   54.9930   26.3320   46.0570 N   0  0  0  0  0  0  0  0  0  0  0  0
   58.7730   27.0860   46.9760 C   0  0  0  0  0  0  0  0  0  0  0  0
   58.7540   28.4840   46.8690 C   0  0  0  0  0  0  0  0  0  0  0  0
   59.0420   29.3850   47.8410 N   0  0  0  0  0  0  0  0  0  0  0  0
   59.6950   29.0520   49.1120 C   0  0  0  0  0  0  0  0  0  0  0  0
   58.8780   30.6140   47.2620 C   0  0  0  0  0  0  0  0  0  0  0  0
   56.0670   31.3269   52.7549 H   0  0  0  0  0  0  0  0  0  0  0  0
   56.3248   32.3212   51.2813 H   0  0  0  0  0  0  0  0  0  0  0  0
   56.7744   30.5821   51.2813 H   0  0  0  0  0  0  0  0  0  0  0  0
   58.0773   32.0819   53.4582 H   0  0  0  0  0  0  0  0  0  0  0  0
   58.7809   31.0002   52.1600 H   0  0  0  0  0  0  0  0  0  0  0  0
   58.5429   34.0932   53.5145 H   0  0  0  0  0  0  0  0  0  0  0  0
   59.2967   35.0113   52.1671 H   0  0  0  0  0  0  0  0  0  0  0  0
   57.5263   34.7076   52.1671 H   0  0  0  0  0  0  0  0  0  0  0  0
   60.6853   33.7867   51.4412 H   0  0  0  0  0  0  0  0  0  0  0  0
   60.5842   32.0598   51.9453 H   0  0  0  0  0  0  0  0  0  0  0  0
   60.7277   33.1980   49.2633 H   0  0  0  0  0  0  0  0  0  0  0  0
   60.8128   31.4668   49.8008 H   0  0  0  0  0  0  0  0  0  0  0  0
   58.4390   31.3330   49.7210 H   0  0  0  0  0  0  0  0  0  0  0  0
   58.3300   32.9730   49.4750 H   0  0  0  0  0  0  0  0  0  0  0  0
   59.6315   34.4842   48.4067 H   0  0  0  0  0  0  0  0  0  0  0  0
   59.7836   36.3628   46.7922 H   0  0  0  0  0  0  0  0  0  0  0  0
   59.3700   35.9744   44.3719 H   0  0  0  0  0  0  0  0  0  0  0  0
   58.7443   33.7174   43.5541 H   0  0  0  0  0  0  0  0  0  0  0  0
   56.6807   31.0926   43.9179 H   0  0  0  0  0  0  0  0  0  0  0  0
   57.7910   32.3134   43.2081 H   0  0  0  0  0  0  0  0  0  0  0  0
   58.2480   30.5763   43.2081 H   0  0  0  0  0  0  0  0  0  0  0  0
   58.1636   28.8529   43.5274 H   0  0  0  0  0  0  0  0  0  0  0  0
   58.1639   26.3504   43.6823 H   0  0  0  0  0  0  0  0  0  0  0  0
   57.7314   23.0712   45.5168 H   0  0  0  0  0  0  0  0  0  0  0  0
   56.9499   23.9845   46.8698 H   0  0  0  0  0  0  0  0  0  0  0  0
   56.7661   25.5578   44.4596 H   0  0  0  0  0  0  0  0  0  0  0  0
   56.1775   23.8760   44.1248 H   0  0  0  0  0  0  0  0  0  0  0  0
   54.2129   24.7633   44.9078 H   0  0  0  0  0  0  0  0  0  0  0  0
   54.9558   24.2901   46.4891 H   0  0  0  0  0  0  0  0  0  0  0  0
   54.0260   26.7020   45.9090 H   0  0  0  0  0  0  0  0  0  0  0  0
   55.1900   26.3610   47.0850 H   0  0  0  0  0  0  0  0  0  0  0  0
   58.9624   26.6035   47.9462 H   0  0  0  0  0  0  0  0  0  0  0  0
   59.0579   29.3769   49.9477 H   0  0  0  0  0  0  0  0  0  0  0  0
   59.8503   27.9646   49.1706 H   0  0  0  0  0  0  0  0  0  0  0  0
   60.6664   29.5648   49.1706 H   0  0  0  0  0  0  0  0  0  0  0  0
  1  2  1  0
  2  3  1  0
  3  4  1  0
  3  5  1  0
  5  6  1  0
  6  7  1  0
  7  8  1  0
  8  9  2  0
  9 10  1  0
 10 11  2  0
 11 12  1  0
 12 13  2  0
 13 14  1  0
 14 15  2  0
 15 16  1  0
 15 17  1  0
 17 18  1  0
 18 19  2  0
 19 20  1  0
 20 21  2  0
 21 22  1  0
 22 23  1  0
 23 24  1  0
 24 25  1  0
 25 26  1  0
 21 27  1  0
 27 28  2  0
 28 29  1  0
 29 30  1  0
 29 31  1  0
 31  8  1  0
 14  9  1  0
 31 17  2  0
 28 18  1  0
  1 32  1  0
  1 33  1  0
  1 34  1  0
  2 35  1  0
  2 36  1  0
  4 37  1  0
  4 38  1  0
  4 39  1  0
  5 40  1  0
  5 41  1  0
  6 42  1  0
  6 43  1  0
  7 44  1  0
  7 45  1  0
 10 46  1  0
 11 47  1  0
 12 48  1  0
 13 49  1  0
 16 50  1  0
 16 51  1  0
 16 52  1  0
 19 53  1  0
 20 54  1  0
 23 55  1  0
 23 56  1  0
 24 57  1  0
 24 58  1  0
 25 59  1  0
 25 60  1  0
 26 61  1  0
 26 62  1  0
 27 63  1  0
 30 64  1  0
 30 65  1  0
 30 66  1  0
M  CHG  2   7   1  15   1
M  END
>  <UniqueID>  (39) 
36

>  <SMILES>  (39) 
CCN(C)CC[NH2+]c1c2ccccc2[n+](C)c2c3ccc(OCCCN)cc3n(C)c12

>  <Energy>  (39) 
138.6684771103308

>  <Genealogy>  (39) 
CCN(C)CC[NH2+]c1c2ccccc2[n+](C)c2c3ccc(OCCCN)cc3n(C)c12 (protonated)
CCN(C)CC[NH2+]c1c2ccccc2[n+](C)c2c3ccc(OCCCN)cc3n(C)c12 (3D coordinates assigned)
CCN(C)CC[NH2+]c1c2ccccc2[n+](C)c2c3ccc(OCCCN)cc3n(C)c12 (optimized conformer: 138.6684771103308 kcal/mol)

>  <smiles>  (39) 
CCN(C)CCNc1c2ccccc2[n+](C)c2c3ccc(OCCCN)cc3n(C)c12

>  <score_type>  (39) 
oracle

>  <origin>  (39) 
adg

>  <m_score__min__energy>  (39) 
-5.4900000000000002

>  <m_primary>  (39) 
energy

$$$$
39:0
     RDKit          3D

 45 47  0  0  0  0  0  0  0  0999 V2000
   57.7690   31.9690   42.9420 C   0  0  0  0  0  0  0  0  0  0  0  0
   57.8660   31.1880   44.2560 C   0  0  0  0  0  0  0  0  0  0  0  0
   58.3460   32.0170   45.3720 N   0  0  0  0  0  0  0  0  0  0  0  0
   58.5690   33.4130   44.9740 C   0  0  0  0  0  0  0  0  0  0  0  0
   58.9910   34.2540   46.1860 C   0  0  0  0  0  0  0  0  0  0  0  0
   59.6570   33.4210   47.2170 N   0  0  0  0  0  0  0  0  0  0  0  0
   58.8790   32.7630   48.1420 C   0  0  0  0  0  0  0  0  0  0  0  0
   57.6190   32.8490   48.1020 O   0  0  0  0  0  0  0  0  0  0  0  0
   59.4710   31.9760   49.1410 C   0  0  0  0  0  0  0  0  0  0  0  0
   58.6570   31.2980   50.1130 N   0  0  0  0  0  0  0  0  0  0  0  0
   58.6170   29.8330   50.1300 C   0  0  0  0  0  0  0  0  0  0  0  0
   58.2560   29.3490   51.5370 C   0  0  0  0  0  0  0  0  0  0  0  0
   57.0710   29.9750   51.9970 O   0  0  0  0  0  0  0  0  0  0  0  0
   57.2880   31.3670   52.1390 C   0  0  0  0  0  0  0  0  0  0  0  0
   57.5690   32.0160   50.7800 C   0  0  0  0  0  0  0  0  0  0  0  0
   60.8220   31.8490   49.1800 N   0  0  0  0  0  0  0  0  0  0  0  0
   61.6180   32.4940   48.2870 C   0  0  0  0  0  0  0  0  0  0  0  0
   63.0120   32.3560   48.3700 C   0  0  0  0  0  0  0  0  0  0  0  0
   63.8410   33.0240   47.4700 C   0  0  0  0  0  0  0  0  0  0  0  0
   63.2870   33.8370   46.4840 C   0  0  0  0  0  0  0  0  0  0  0  0
   61.9010   33.9840   46.3860 C   0  0  0  0  0  0  0  0  0  0  0  0
   61.0340   33.3100   47.2830 C   0  0  0  0  0  0  0  0  0  0  0  0
   57.6361   33.0389   43.1603 H   0  0  0  0  0  0  0  0  0  0  0  0
   58.6919   31.8252   42.3610 H   0  0  0  0  0  0  0  0  0  0  0  0
   56.9093   31.6038   42.3610 H   0  0  0  0  0  0  0  0  0  0  0  0
   56.8687   30.7992   44.5093 H   0  0  0  0  0  0  0  0  0  0  0  0
   58.5924   30.3753   44.1079 H   0  0  0  0  0  0  0  0  0  0  0  0
   57.6390   31.9890   46.1440 H   0  0  0  0  0  0  0  0  0  0  0  0
   59.3623   33.4506   44.2129 H   0  0  0  0  0  0  0  0  0  0  0  0
   57.6330   33.8212   44.5650 H   0  0  0  0  0  0  0  0  0  0  0  0
   59.6883   35.0369   45.8531 H   0  0  0  0  0  0  0  0  0  0  0  0
   58.0882   34.6987   46.6302 H   0  0  0  0  0  0  0  0  0  0  0  0
   57.8602   29.4785   49.4148 H   0  0  0  0  0  0  0  0  0  0  0  0
   59.6030   29.4358   49.8472 H   0  0  0  0  0  0  0  0  0  0  0  0
   58.1032   28.2599   51.5153 H   0  0  0  0  0  0  0  0  0  0  0  0
   59.0786   29.6073   52.2201 H   0  0  0  0  0  0  0  0  0  0  0  0
   56.3923   31.8283   52.5805 H   0  0  0  0  0  0  0  0  0  0  0  0
   58.1602   31.5228   52.7909 H   0  0  0  0  0  0  0  0  0  0  0  0
   56.6634   31.9703   50.1573 H   0  0  0  0  0  0  0  0  0  0  0  0
   57.8590   33.0667   50.9279 H   0  0  0  0  0  0  0  0  0  0  0  0
   61.2540   31.2610   49.9290 H   0  0  0  0  0  0  0  0  0  0  0  0
   63.4530   31.7173   49.1494 H   0  0  0  0  0  0  0  0  0  0  0  0
   64.9328   32.9090   47.5385 H   0  0  0  0  0  0  0  0  0  0  0  0
   63.9444   34.3663   45.7785 H   0  0  0  0  0  0  0  0  0  0  0  0
   61.4772   34.6305   45.6034 H   0  0  0  0  0  0  0  0  0  0  0  0
  1  2  1  0
  2  3  1  0
  3  4  1  0
  4  5  1  0
  5  6  1  0
  6  7  1  0
  7  8  2  0
  7  9  1  0
  9 10  1  0
 10 11  1  0
 11 12  1  0
 12 13  1  0
 13 14  1  0
 14 15  1  0
  9 16  2  0
 16 17  1  0
 17 18  2  0
 18 19  1  0
 19 20  2  0
 20 21  1  0
 21 22  2  0
 22  6  1  0
 15 10  1  0
 22 17  1  0
  1 23  1  0
  1 24  1  0
  1 25  1  0
  2 26  1  0
  2 27  1  0
  3 28  1  0
  4 29  1  0
  4 30  1  0
  5 31  1  0
  5 32  1  0
 11 33  1  0
 11 34  1  0
 12 35  1  0
 12 36  1  0
 14 37  1  0
 14 38  1  0
 15 39  1  0
 15 40  1  0
 16 41  1  0
 18 42  1  0
 19 43  1  0
 20 44  1  0
 21 45  1  0
M  CHG  1  16   1
M  END
>  <UniqueID>  (40) 
37

>  <SMILES>  (40) 
CCNCCn1c(=O)c(N2CCOCC2)[nH+]c2ccccc21

>  <Energy>  (40) 
58.11670397477931

>  <Genealogy>  (40) 
CCNCCn1c(=O)c(N2CCOCC2)[nH+]c2ccccc21 (protonated)
CCNCCn1c(=O)c(N2CCOCC2)[nH+]c2ccccc21 (3D coordinates assigned)
CCNCCn1c(=O)c(N2CCOCC2)[nH+]c2ccccc21 (nonaromatic ring conformer: 58.11670397477931 kcal/mol)

>  <smiles>  (40) 
CCNCCn1c(=O)c(N2CCOCC2)nc2ccccc21

>  <score_type>  (40) 
oracle

>  <origin>  (40) 
adg

>  <m_score__min__energy>  (40) 
-4.7300000000000004

>  <m_primary>  (40) 
energy

$$$$
40:0
     RDKit          3D

 43 45  0  0  0  0  0  0  0  0999 V2000
   59.3620   25.6500   46.0320 C   0  0  0  0  0  0  0  0  0  0  0  0
   59.5470   26.7720   45.1740 O   0  0  0  0  0  0  0  0  0  0  0  0
   59.1620   28.0850   45.4890 C   0  0  0  0  0  0  0  0  0  0  0  0
   59.9520   28.9320   46.2770 C   0  0  0  0  0  0  0  0  0  0  0  0
   59.5340   30.2430   46.5740 C   0  0  0  0  0  0  0  0  0  0  0  0
   60.3380   31.0950   47.3490 O   0  0  0  0  0  0  0  0  0  0  0  0
   61.7400   31.2820   47.1800 C   0  0  0  0  0  0  0  0  0  0  0  0
   58.2840   30.7100   46.0830 C   0  0  0  0  0  0  0  0  0  0  0  0
   57.7670   32.1320   46.3520 C   0  0  2  0  0  0  0  0  0  0  0  0
   57.6160   32.9060   45.1030 N   0  0  0  0  0  0  0  0  0  0  0  0
   58.8820   33.4820   44.6420 C   0  0  0  0  0  0  0  0  0  0  0  0
   59.3760   34.5270   45.6430 C   0  0  0  0  0  0  0  0  0  0  0  0
   59.3560   34.0020   47.0540 C   0  0  0  0  0  0  0  0  0  0  0  0
   60.0940   34.6650   48.0460 C   0  0  0  0  0  0  0  0  0  0  0  0
   60.0620   34.2170   49.3690 C   0  0  0  0  0  0  0  0  0  0  0  0
   59.2820   33.1120   49.7150 C   0  0  0  0  0  0  0  0  0  0  0  0
   58.5310   32.4520   48.7390 C   0  0  0  0  0  0  0  0  0  0  0  0
   58.5540   32.8920   47.4050 C   0  0  0  0  0  0  0  0  0  0  0  0
   57.5040   29.8570   45.2650 C   0  0  0  0  0  0  0  0  0  0  0  0
   56.2920   30.3370   44.7390 O   0  0  0  0  0  0  0  0  0  0  0  0
   55.8080   30.0650   43.4270 C   0  0  0  0  0  0  0  0  0  0  0  0
   57.9510   28.5530   44.9860 C   0  0  0  0  0  0  0  0  0  0  0  0
   59.4160   25.9775   47.0807 H   0  0  0  0  0  0  0  0  0  0  0  0
   58.3774   25.1992   45.8389 H   0  0  0  0  0  0  0  0  0  0  0  0
   60.1497   24.9069   45.8389 H   0  0  0  0  0  0  0  0  0  0  0  0
   60.9128   28.5674   46.6693 H   0  0  0  0  0  0  0  0  0  0  0  0
   62.2228   31.3464   48.1663 H   0  0  0  0  0  0  0  0  0  0  0  0
   62.1586   30.4317   46.6216 H   0  0  0  0  0  0  0  0  0  0  0  0
   61.9212   32.2123   46.6216 H   0  0  0  0  0  0  0  0  0  0  0  0
   56.7655   32.0000   46.7874 H   0  0  0  0  0  0  0  0  0  0  0  0
   57.2360   32.2870   44.3470 H   0  0  0  0  0  0  0  0  0  0  0  0
   59.6329   32.6836   44.5484 H   0  0  0  0  0  0  0  0  0  0  0  0
   58.7255   33.9631   43.6652 H   0  0  0  0  0  0  0  0  0  0  0  0
   60.4066   34.8101   45.3829 H   0  0  0  0  0  0  0  0  0  0  0  0
   58.7028   35.3954   45.5914 H   0  0  0  0  0  0  0  0  0  0  0  0
   60.7015   35.5428   47.7806 H   0  0  0  0  0  0  0  0  0  0  0  0
   60.6521   34.7356   50.1390 H   0  0  0  0  0  0  0  0  0  0  0  0
   59.2587   32.7606   50.7571 H   0  0  0  0  0  0  0  0  0  0  0  0
   57.9177   31.5822   49.0169 H   0  0  0  0  0  0  0  0  0  0  0  0
   54.8508   29.5271   43.4935 H   0  0  0  0  0  0  0  0  0  0  0  0
   55.6597   31.0119   42.8872 H   0  0  0  0  0  0  0  0  0  0  0  0
   56.5398   29.4460   42.8872 H   0  0  0  0  0  0  0  0  0  0  0  0
   57.3336   27.8919   44.3600 H   0  0  0  0  0  0  0  0  0  0  0  0
  1  2  1  0
  2  3  1  0
  3  4  2  0
  4  5  1  0
  5  6  1  0
  6  7  1  0
  5  8  2  0
  8  9  1  0
  9 10  1  0
 10 11  1  0
 11 12  1  0
 12 13  1  0
 13 14  2  0
 14 15  1  0
 15 16  2  0
 16 17  1  0
 17 18  2  0
  8 19  1  0
 19 20  1  0
 20 21  1  0
 19 22  2  0
 22  3  1  0
 18  9  1  0
 18 13  1  0
  1 23  1  0
  1 24  1  0
  1 25  1  0
  4 26  1  0
  7 27  1  0
  7 28  1  0
  7 29  1  0
  9 30  1  1
 10 31  1  0
 11 32  1  0
 11 33  1  0
 12 34  1  0
 12 35  1  0
 14 36  1  0
 15 37  1  0
 16 38  1  0
 17 39  1  0
 21 40  1  0
 21 41  1  0
 21 42  1  0
 22 43  1  0
M  END
>  <UniqueID>  (41) 
38

>  <SMILES>  (41) 
COc1cc(OC)c([C@@H]2NCCc3ccccc32)c(OC)c1

>  <Energy>  (41) 
50.25633519584862

>  <Genealogy>  (41) 
COc1cc(OC)c([C@@H]2NCCc3ccccc32)c(OC)c1 (chirality)
COc1cc(OC)c([C@@H]2NCCc3ccccc32)c(OC)c1 (3D coordinates assigned)
COc1cc(OC)c([C@@H]2NCCc3ccccc32)c(OC)c1 (nonaromatic ring conformer: 50.25633519584862 kcal/mol)

>  <smiles>  (41) 
COc1cc(OC)c(C2NCCc3ccccc32)c(OC)c1

>  <score_type>  (41) 
oracle

>  <origin>  (41) 
adg

>  <m_score__min__energy>  (41) 
-6.4699999999999998

>  <m_primary>  (41) 
energy

$$$$
