0:0
     RDKit          3D

 60 64  0  0  0  0  0  0  0  0999 V2000
   59.2640   34.9360   45.2630 C   0  0  0  0  0  0  0  0  0  0  0  0
   59.3460   33.7980   46.1160 O   0  0  0  0  0  0  0  0  0  0  0  0
   59.8780   33.8150   47.4140 C   0  0  0  0  0  0  0  0  0  0  0  0
   59.0730   33.6420   48.5550 C   0  0  0  0  0  0  0  0  0  0  0  0
   59.6460   33.6180   49.8270 C   0  0  0  0  0  0  0  0  0  0  0  0
   61.0330   33.7580   49.9830 C   0  0  0  0  0  0  0  0  0  0  0  0
   61.6600   33.6010   51.3450 C   0  0  0  0  0  0  0  0  0  0  0  0
   61.6910   32.1850   51.7540 N   0  0  0  0  0  0  0  0  0  0  0  0
   62.4420   31.3330   50.8140 C   0  0  0  0  0  0  0  0  0  0  0  0
   61.5310   30.7570   49.7610 C   0  0  0  0  0  0  0  0  0  0  0  0
   60.2990   30.1950   50.1270 C   0  0  0  0  0  0  0  0  0  0  0  0
   59.3900   29.7880   49.1470 C   0  0  0  0  0  0  0  0  0  0  0  0
   59.7050   29.9150   47.7830 C   0  0  0  0  0  0  0  0  0  0  0  0
   58.7010   29.5730   46.7450 C   0  0  0  0  0  0  0  0  0  0  0  0
   58.2530   30.5510   45.8400 C   0  0  0  0  0  0  0  0  0  0  0  0
   57.2750   30.2430   44.8920 C   0  0  0  0  0  0  0  0  0  0  0  0
   56.7350   28.9580   44.8310 C   0  0  0  0  0  0  0  0  0  0  0  0
   57.1720   27.9600   45.7180 C   0  0  0  0  0  0  0  0  0  0  0  0
   56.6010   26.5970   45.6530 C   0  0  0  0  0  0  0  0  0  0  0  0
   55.3150   26.3160   46.0010 N   0  0  0  0  0  0  0  0  0  0  0  0
   55.2360   24.9940   45.7960 C   0  0  0  0  0  0  0  0  0  0  0  0
   54.1360   24.1640   45.9960 C   0  0  0  0  0  0  0  0  0  0  0  0
   54.2930   22.7940   45.7120 C   0  0  0  0  0  0  0  0  0  0  0  0
   55.5310   22.2970   45.2430 C   0  0  0  0  0  0  0  0  0  0  0  0
   56.6210   23.1680   45.0540 C   0  0  0  0  0  0  0  0  0  0  0  0
   56.4280   24.5170   45.3460 C   0  0  0  0  0  0  0  0  0  0  0  0
   57.3180   25.5140   45.2460 N   0  0  0  0  0  0  0  0  0  0  0  0
   58.1570   28.2770   46.6710 C   0  0  0  0  0  0  0  0  0  0  0  0
   60.9680   30.4150   47.4220 C   0  0  0  0  0  0  0  0  0  0  0  0
   61.8750   30.8290   48.4020 C   0  0  0  0  0  0  0  0  0  0  0  0
   61.8330   33.9770   48.8510 C   0  0  0  0  0  0  0  0  0  0  0  0
   61.2620   33.9950   47.5640 C   0  0  0  0  0  0  0  0  0  0  0  0
   62.0400   34.1630   46.4070 O   0  0  0  0  0  0  0  0  0  0  0  0
   63.4240   33.8420   46.3130 C   0  0  0  0  0  0  0  0  0  0  0  0
   59.1983   35.8483   45.8741 H   0  0  0  0  0  0  0  0  0  0  0  0
   60.1610   34.9838   44.6281 H   0  0  0  0  0  0  0  0  0  0  0  0
   58.3694   34.8547   44.6281 H   0  0  0  0  0  0  0  0  0  0  0  0
   57.9849   33.5249   48.4435 H   0  0  0  0  0  0  0  0  0  0  0  0
   59.0064   33.4886   50.7125 H   0  0  0  0  0  0  0  0  0  0  0  0
   62.6889   33.9887   51.3139 H   0  0  0  0  0  0  0  0  0  0  0  0
   61.0576   34.1626   52.0742 H   0  0  0  0  0  0  0  0  0  0  0  0
   62.1880   32.1410   52.6740 H   0  0  0  0  0  0  0  0  0  0  0  0
   63.2207   31.9367   50.3248 H   0  0  0  0  0  0  0  0  0  0  0  0
   62.8944   30.5037   51.3776 H   0  0  0  0  0  0  0  0  0  0  0  0
   60.0472   30.0741   51.1909 H   0  0  0  0  0  0  0  0  0  0  0  0
   58.4196   29.3646   49.4454 H   0  0  0  0  0  0  0  0  0  0  0  0
   58.6757   31.5658   45.8789 H   0  0  0  0  0  0  0  0  0  0  0  0
   56.9290   31.0165   44.1906 H   0  0  0  0  0  0  0  0  0  0  0  0
   55.9622   28.7248   44.0837 H   0  0  0  0  0  0  0  0  0  0  0  0
   53.1792   24.5641   46.3625 H   0  0  0  0  0  0  0  0  0  0  0  0
   53.4471   22.1057   45.8559 H   0  0  0  0  0  0  0  0  0  0  0  0
   55.6430   21.2247   45.0248 H   0  0  0  0  0  0  0  0  0  0  0  0
   57.5901   22.7970   44.6890 H   0  0  0  0  0  0  0  0  0  0  0  0
   58.5069   27.5013   47.3680 H   0  0  0  0  0  0  0  0  0  0  0  0
   61.2451   30.4811   46.3595 H   0  0  0  0  0  0  0  0  0  0  0  0
   62.8627   31.2129   48.1068 H   0  0  0  0  0  0  0  0  0  0  0  0
   62.9149   34.1359   48.9701 H   0  0  0  0  0  0  0  0  0  0  0  0
   63.8471   33.7439   47.3236 H   0  0  0  0  0  0  0  0  0  0  0  0
   63.5441   32.8921   45.7714 H   0  0  0  0  0  0  0  0  0  0  0  0
   63.9500   34.6420   45.7714 H   0  0  0  0  0  0  0  0  0  0  0  0
  1  2  1  0
  2  3  1  0
  3  4  2  0
  4  5  1  0
  5  6  2  0
  6  7  1  0
  7  8  1  0
  8  9  1  0
  9 10  1  0
 10 11  2  0
 11 12  1  0
 12 13  2  0
 13 14  1  0
 14 15  2  0
 15 16  1  0
 16 17  2  0
 17 18  1  0
 18 19  1  0
 19 20  2  0
 20 21  1  0
 21 22  2  0
 22 23  1  0
 23 24  2  0
 24 25  1  0
 25 26  2  0
 26 27  1  0
 18 28  2  0
 13 29  1  0
 29 30  2  0
  6 31  1  0
 31 32  2  0
 32 33  1  0
 33 34  1  0
 32  3  1  0
 30 10  1  0
 28 14  1  0
 27 19  1  0
 26 21  1  0
  1 35  1  0
  1 36  1  0
  1 37  1  0
  4 38  1  0
  5 39  1  0
  7 40  1  0
  7 41  1  0
  8 42  1  0
  9 43  1  0
  9 44  1  0
 11 45  1  0
 12 46  1  0
 15 47  1  0
 16 48  1  0
 17 49  1  0
 22 50  1  0
 23 51  1  0
 24 52  1  0
 25 53  1  0
 28 54  1  0
 29 55  1  0
 30 56  1  0
 31 57  1  0
 34 58  1  0
 34 59  1  0
 34 60  1  0
M  CHG  1  27  -1
M  END
>  <UniqueID>  (1) 
1

>  <SMILES>  (1) 
COc1ccc(CNCc2ccc(-c3cccc(-c4nc5ccccc5[n-]4)c3)cc2)cc1OC

>  <Energy>  (1) 
99.55015847618296

>  <Genealogy>  (1) 
COc1ccc(CNCc2ccc(-c3cccc(-c4nc5ccccc5[n-]4)c3)cc2)cc1OC (protonated)
COc1ccc(CNCc2ccc(-c3cccc(-c4nc5ccccc5[n-]4)c3)cc2)cc1OC (3D coordinates assigned)
COc1ccc(CNCc2ccc(-c3cccc(-c4nc5ccccc5[n-]4)c3)cc2)cc1OC (optimized conformer: 99.55015847618296 kcal/mol)

>  <smiles>  (1) 
COc1ccc(CNCc2ccc(-c3cccc(-c4nc5ccccc5[nH]4)c3)cc2)cc1OC

>  <score_type>  (1) 
oracle

>  <origin>  (1) 
adg

>  <m_score__min__energy>  (1) 
-10.24

>  <m_primary>  (1) 
energy

$$$$
1:0
     RDKit          3D

 49 52  0  0  0  0  0  0  0  0999 V2000
   63.3690   33.8170   46.3630 C   0  0  0  0  0  0  0  0  0  0  0  0
   63.6090   33.4700   47.8320 C   0  0  0  0  0  0  0  0  0  0  0  0
   63.4330   31.9710   48.1070 C   0  0  0  0  0  0  0  0  0  0  0  0
   62.2090   31.7000   48.8610 N   0  0  0  0  0  0  0  0  0  0  0  0
   60.9050   32.0430   48.3610 C   0  0  0  0  0  0  0  0  0  0  0  0
   60.5540   31.9990   47.0000 C   0  0  0  0  0  0  0  0  0  0  0  0
   59.2360   32.3750   46.7620 C   0  0  0  0  0  0  0  0  0  0  0  0
   58.5900   32.3340   45.4800 N   0  0  0  0  0  0  0  0  0  0  0  0
   58.6920   33.4110   44.4920 C   0  0  0  0  0  0  0  0  0  0  0  0
   58.1190   32.8460   43.1720 C   0  0  0  0  0  0  0  0  0  0  0  0
   57.6580   31.4840   43.5540 C   0  0  0  0  0  0  0  0  0  0  0  0
   56.9850   30.5560   42.7570 C   0  0  0  0  0  0  0  0  0  0  0  0
   56.5790   29.3440   43.3360 C   0  0  0  0  0  0  0  0  0  0  0  0
   56.8350   29.0900   44.6960 C   0  0  0  0  0  0  0  0  0  0  0  0
   57.5080   30.0410   45.4810 C   0  0  0  0  0  0  0  0  0  0  0  0
   57.9380   31.2270   44.8710 C   0  0  0  0  0  0  0  0  0  0  0  0
   58.4910   32.7190   48.2340 S   0  0  0  0  0  0  0  0  0  0  0  0
   59.8490   32.4380   49.1840 C   0  0  0  0  0  0  0  0  0  0  0  0
   59.8700   32.5560   50.9370 S   0  0  0  0  0  0  0  0  0  0  0  0
   59.7530   33.9950   51.3550 O   0  0  0  0  0  0  0  0  0  0  0  0
   61.1720   32.0070   51.4450 O   0  0  0  0  0  0  0  0  0  0  0  0
   58.5090   31.6570   51.5990 C   0  0  0  0  0  0  0  0  0  0  0  0
   58.6140   30.2810   51.8530 C   0  0  0  0  0  0  0  0  0  0  0  0
   57.5170   29.5740   52.3550 C   0  0  0  0  0  0  0  0  0  0  0  0
   56.3120   30.2360   52.6100 C   0  0  0  0  0  0  0  0  0  0  0  0
   54.8140   29.2700   53.2940 Br  0  0  0  0  0  0  0  0  0  0  0  0
   56.2050   31.6100   52.3620 C   0  0  0  0  0  0  0  0  0  0  0  0
   57.3000   32.3180   51.8580 C   0  0  0  0  0  0  0  0  0  0  0  0
   62.7444   34.7201   46.2969 H   0  0  0  0  0  0  0  0  0  0  0  0
   64.3336   34.0012   45.8674 H   0  0  0  0  0  0  0  0  0  0  0  0
   62.8563   32.9794   45.8674 H   0  0  0  0  0  0  0  0  0  0  0  0
   64.6344   33.7623   48.1026 H   0  0  0  0  0  0  0  0  0  0  0  0
   62.8668   34.0144   48.4343 H   0  0  0  0  0  0  0  0  0  0  0  0
   63.3866   31.4354   47.1473 H   0  0  0  0  0  0  0  0  0  0  0  0
   64.2889   31.6294   48.7077 H   0  0  0  0  0  0  0  0  0  0  0  0
   62.2780   31.2160   49.7830 H   0  0  0  0  0  0  0  0  0  0  0  0
   61.2511   31.6978   46.2042 H   0  0  0  0  0  0  0  0  0  0  0  0
   58.1071   34.2836   44.8183 H   0  0  0  0  0  0  0  0  0  0  0  0
   59.7340   33.7404   44.3664 H   0  0  0  0  0  0  0  0  0  0  0  0
   57.2799   33.4595   42.8122 H   0  0  0  0  0  0  0  0  0  0  0  0
   58.8530   32.8379   42.3528 H   0  0  0  0  0  0  0  0  0  0  0  0
   56.7775   30.7703   41.6982 H   0  0  0  0  0  0  0  0  0  0  0  0
   56.0595   28.5909   42.7253 H   0  0  0  0  0  0  0  0  0  0  0  0
   56.5065   28.1420   45.1469 H   0  0  0  0  0  0  0  0  0  0  0  0
   57.6932   29.8588   46.5499 H   0  0  0  0  0  0  0  0  0  0  0  0
   59.5613   29.7574   51.6568 H   0  0  0  0  0  0  0  0  0  0  0  0
   57.6021   28.4947   52.5497 H   0  0  0  0  0  0  0  0  0  0  0  0
   55.2584   32.1327   52.5639 H   0  0  0  0  0  0  0  0  0  0  0  0
   57.2128   33.3972   51.6640 H   0  0  0  0  0  0  0  0  0  0  0  0
  1  2  1  0
  2  3  1  0
  3  4  1  0
  4  5  1  0
  5  6  1  0
  6  7  2  0
  7  8  1  0
  8  9  1  0
  9 10  1  0
 10 11  1  0
 11 12  2  0
 12 13  1  0
 13 14  2  0
 14 15  1  0
 15 16  2  0
  7 17  1  0
 17 18  1  0
 18 19  1  0
 19 20  2  0
 19 21  2  0
 19 22  1  0
 22 23  2  0
 23 24  1  0
 24 25  2  0
 25 26  1  0
 25 27  1  0
 27 28  2  0
 18  5  2  0
 28 22  1  0
 16  8  1  0
 16 11  1  0
  1 29  1  0
  1 30  1  0
  1 31  1  0
  2 32  1  0
  2 33  1  0
  3 34  1  0
  3 35  1  0
  4 36  1  0
  6 37  1  0
  9 38  1  0
  9 39  1  0
 10 40  1  0
 10 41  1  0
 12 42  1  0
 13 43  1  0
 14 44  1  0
 15 45  1  0
 23 46  1  0
 24 47  1  0
 27 48  1  0
 28 49  1  0
M  END
>  <UniqueID>  (2) 
2

>  <SMILES>  (2) 
CCCNc1cc(N2CCc3ccccc32)sc1S(=O)(=O)c1ccc(Br)cc1

>  <Energy>  (2) 
92.39028366758615

>  <Genealogy>  (2) 
CCCNc1cc(N2CCc3ccccc32)sc1S(=O)(=O)c1ccc(Br)cc1 (3D coordinates assigned)
CCCNc1cc(N2CCc3ccccc32)sc1S(=O)(=O)c1ccc(Br)cc1 (nonaromatic ring conformer: 92.39028366758615 kcal/mol)

>  <smiles>  (2) 
CCCNc1cc(N2CCc3ccccc32)sc1S(=O)(=O)c1ccc(Br)cc1

>  <score_type>  (2) 
oracle

>  <origin>  (2) 
adg

>  <m_score__min__energy>  (2) 
-8.9800000000000004

>  <m_primary>  (2) 
energy

$$$$
2:0
     RDKit          3D

 39 41  0  0  0  0  0  0  0  0999 V2000
   59.4810   22.2720   44.8620 C   0  0  0  0  0  0  0  0  0  0  0  0
   58.1950   22.0120   45.6400 C   0  0  0  0  0  0  0  0  0  0  0  0
   57.3520   23.2630   45.7130 C   0  0  0  0  0  0  0  0  0  0  0  0
   57.7300   24.3760   44.9490 C   0  0  0  0  0  0  0  0  0  0  0  0
   57.0200   25.5830   45.0320 C   0  0  0  0  0  0  0  0  0  0  0  0
   57.4780   26.7470   44.3020 N   0  0  0  0  0  0  0  0  0  0  0  0
   58.2940   27.6300   45.1540 C   0  0  0  0  0  0  0  0  0  0  0  0
   57.9130   29.0730   44.9830 C   0  0  0  0  0  0  0  0  0  0  0  0
   56.7910   29.4760   44.3490 N   0  0  0  0  0  0  0  0  0  0  0  0
   56.8210   30.8150   44.4810 C   0  0  0  0  0  0  0  0  0  0  0  0
   57.9510   31.1670   45.1900 C   0  0  0  0  0  0  0  0  0  0  0  0
   58.3740   32.5200   45.5870 C   0  0  0  0  0  0  0  0  0  0  0  0
   58.4480   32.9280   46.9280 C   0  0  0  0  0  0  0  0  0  0  0  0
   58.8570   34.2440   47.0870 C   0  0  0  0  0  0  0  0  0  0  0  0
   59.1190   34.8970   45.5620 S   0  0  0  0  0  0  0  0  0  0  0  0
   58.7210   33.5210   44.6830 C   0  0  0  0  0  0  0  0  0  0  0  0
   58.6070   30.0710   45.4800 O   0  0  0  0  0  0  0  0  0  0  0  0
   55.9130   25.6490   45.8960 C   0  0  0  0  0  0  0  0  0  0  0  0
   55.2470   26.7130   46.0040 O   0  0  0  0  0  0  0  0  0  0  0  0
   55.5570   24.5630   46.6280 N   0  0  0  0  0  0  0  0  0  0  0  0
   56.2380   23.3860   46.5760 C   0  0  0  0  0  0  0  0  0  0  0  0
   55.7660   22.2510   47.4350 C   0  0  0  0  0  0  0  0  0  0  0  0
   60.3086   22.4393   45.5670 H   0  0  0  0  0  0  0  0  0  0  0  0
   59.7089   21.4018   44.2290 H   0  0  0  0  0  0  0  0  0  0  0  0
   59.3529   23.1624   44.2290 H   0  0  0  0  0  0  0  0  0  0  0  0
   57.6222   21.2197   45.1360 H   0  0  0  0  0  0  0  0  0  0  0  0
   58.4571   21.7025   46.6625 H   0  0  0  0  0  0  0  0  0  0  0  0
   58.5959   24.3018   44.2747 H   0  0  0  0  0  0  0  0  0  0  0  0
   56.6550   27.2850   43.9470 H   0  0  0  0  0  0  0  0  0  0  0  0
   58.0360   26.4550   43.4650 H   0  0  0  0  0  0  0  0  0  0  0  0
   58.1479   27.3448   46.2063 H   0  0  0  0  0  0  0  0  0  0  0  0
   59.3471   27.5156   44.8576 H   0  0  0  0  0  0  0  0  0  0  0  0
   56.0681   31.5141   44.0881 H   0  0  0  0  0  0  0  0  0  0  0  0
   58.2047   32.2669   47.7728 H   0  0  0  0  0  0  0  0  0  0  0  0
   58.9871   34.7685   48.0451 H   0  0  0  0  0  0  0  0  0  0  0  0
   58.7325   33.4275   43.5870 H   0  0  0  0  0  0  0  0  0  0  0  0
   55.8787   22.5220   48.4951 H   0  0  0  0  0  0  0  0  0  0  0  0
   54.7072   22.0441   47.2200 H   0  0  0  0  0  0  0  0  0  0  0  0
   56.3658   21.3544   47.2200 H   0  0  0  0  0  0  0  0  0  0  0  0
  1  2  1  0
  2  3  1  0
  3  4  1  0
  4  5  2  0
  5  6  1  0
  6  7  1  0
  7  8  1  0
  8  9  2  0
  9 10  1  0
 10 11  2  0
 11 12  1  0
 12 13  1  0
 13 14  2  0
 14 15  1  0
 15 16  1  0
 11 17  1  0
  5 18  1  0
 18 19  2  0
 18 20  1  0
 20 21  1  0
 21 22  1  0
 21  3  2  0
 17  8  1  0
 16 12  2  0
  1 23  1  0
  1 24  1  0
  1 25  1  0
  2 26  1  0
  2 27  1  0
  4 28  1  0
  6 29  1  0
  6 30  1  0
  7 31  1  0
  7 32  1  0
 10 33  1  0
 13 34  1  0
 14 35  1  0
 16 36  1  0
 22 37  1  0
 22 38  1  0
 22 39  1  0
M  CHG  2   6   1  20  -1
M  END
>  <UniqueID>  (3) 
3

>  <SMILES>  (3) 
CCc1cc([NH2+]Cc2ncc(-c3ccsc3)o2)c(=O)[n-]c1C

>  <Energy>  (3) 
92.98349429226604

>  <Genealogy>  (3) 
CCc1cc([NH2+]Cc2ncc(-c3ccsc3)o2)c(=O)[n-]c1C (protonated)
CCc1cc([NH2+]Cc2ncc(-c3ccsc3)o2)c(=O)[n-]c1C (3D coordinates assigned)
CCc1cc([NH2+]Cc2ncc(-c3ccsc3)o2)c(=O)[n-]c1C (optimized conformer: 92.98349429226604 kcal/mol)

>  <smiles>  (3) 
CCc1cc(NCc2ncc(-c3ccsc3)o2)c(=O)[nH]c1C

>  <score_type>  (3) 
oracle

>  <origin>  (3) 
adg

>  <m_score__min__energy>  (3) 
-8.4499999999999993

>  <m_primary>  (3) 
energy

$$$$
3:0
     RDKit          3D

 48 50  0  0  0  0  0  0  0  0999 V2000
   57.7430   32.2980   41.8350 C   0  0  0  0  0  0  0  0  0  0  0  0
   57.0110   31.2400   42.6450 C   0  0  0  0  0  0  0  0  0  0  0  0
   56.7760   31.7280   43.9640 O   0  0  0  0  0  0  0  0  0  0  0  0
   57.6690   31.5130   45.0170 C   0  0  0  0  0  0  0  0  0  0  0  0
   58.3700   32.5910   45.5550 C   0  0  0  0  0  0  0  0  0  0  0  0
   59.2640   32.3580   46.6130 C   0  0  0  0  0  0  0  0  0  0  0  0
   60.0240   33.4340   47.2070 N   0  0  0  0  0  0  0  0  0  0  0  0
   59.5830   34.0200   48.4910 C   0  0  0  0  0  0  0  0  0  0  0  0
   60.6190   33.8910   49.6250 C   0  0  0  0  0  0  0  0  0  0  0  0
   62.0660   34.2140   49.2020 C   0  0  0  0  0  0  0  0  0  0  0  0
   62.7540   33.1710   48.3060 C   0  0  0  0  0  0  0  0  0  0  0  0
   62.4950   33.3570   46.8010 C   0  0  0  0  0  0  0  0  0  0  0  0
   61.1470   34.0190   46.4520 C   0  0  0  0  0  0  0  0  0  0  0  0
   59.4110   31.0880   47.0800 N   0  0  0  0  0  0  0  0  0  0  0  0
   58.7220   30.0420   46.5490 C   0  0  0  0  0  0  0  0  0  0  0  0
   58.9170   28.7200   47.0780 N   0  0  0  0  0  0  0  0  0  0  0  0
   58.2320   27.6730   46.6450 N   0  0  0  0  0  0  0  0  0  0  0  0
   58.6500   26.5950   47.3360 C   0  0  0  0  0  0  0  0  0  0  0  0
   58.0670   25.2300   47.1830 C   0  0  0  0  0  0  0  0  0  0  0  0
   59.6140   26.9630   48.2520 C   0  0  0  0  0  0  0  0  0  0  0  0
   59.7670   28.3210   48.0560 C   0  0  0  0  0  0  0  0  0  0  0  0
   60.7120   29.1960   48.8220 C   0  0  0  0  0  0  0  0  0  0  0  0
   57.8590   30.2650   45.5230 N   0  0  0  0  0  0  0  0  0  0  0  0
   58.2339   33.0076   42.5173 H   0  0  0  0  0  0  0  0  0  0  0  0
   58.5010   31.8150   41.2008 H   0  0  0  0  0  0  0  0  0  0  0  0
   57.0238   32.8370   41.2008 H   0  0  0  0  0  0  0  0  0  0  0  0
   56.0496   31.0094   42.1628 H   0  0  0  0  0  0  0  0  0  0  0  0
   57.6243   30.3283   42.6957 H   0  0  0  0  0  0  0  0  0  0  0  0
   58.2256   33.6066   45.1579 H   0  0  0  0  0  0  0  0  0  0  0  0
   59.3758   35.0884   48.3311 H   0  0  0  0  0  0  0  0  0  0  0  0
   58.6911   33.4597   48.8081 H   0  0  0  0  0  0  0  0  0  0  0  0
   60.3338   34.5815   50.4324 H   0  0  0  0  0  0  0  0  0  0  0  0
   60.6108   32.8374   49.9409 H   0  0  0  0  0  0  0  0  0  0  0  0
   62.0522   35.1694   48.6571 H   0  0  0  0  0  0  0  0  0  0  0  0
   62.6499   34.2364   50.1340 H   0  0  0  0  0  0  0  0  0  0  0  0
   63.8387   33.2310   48.4785 H   0  0  0  0  0  0  0  0  0  0  0  0
   62.3301   32.1935   48.5793 H   0  0  0  0  0  0  0  0  0  0  0  0
   63.3002   33.9840   46.3905 H   0  0  0  0  0  0  0  0  0  0  0  0
   62.4651   32.3472   46.3657 H   0  0  0  0  0  0  0  0  0  0  0  0
   61.2091   35.0922   46.6853 H   0  0  0  0  0  0  0  0  0  0  0  0
   60.9567   33.8507   45.3817 H   0  0  0  0  0  0  0  0  0  0  0  0
   57.8820   24.7968   48.1770 H   0  0  0  0  0  0  0  0  0  0  0  0
   57.1187   25.2962   46.6296 H   0  0  0  0  0  0  0  0  0  0  0  0
   58.7706   24.5907   46.6296 H   0  0  0  0  0  0  0  0  0  0  0  0
   60.1404   26.3210   48.9736 H   0  0  0  0  0  0  0  0  0  0  0  0
   60.5542   29.0499   49.9008 H   0  0  0  0  0  0  0  0  0  0  0  0
   61.7479   28.9312   48.5638 H   0  0  0  0  0  0  0  0  0  0  0  0
   60.5275   30.2492   48.5638 H   0  0  0  0  0  0  0  0  0  0  0  0
  1  2  1  0
  2  3  1  0
  3  4  1  0
  4  5  2  0
  5  6  1  0
  6  7  1  0
  7  8  1  0
  8  9  1  0
  9 10  1  0
 10 11  1  0
 11 12  1  0
 12 13  1  0
  6 14  2  0
 14 15  1  0
 15 16  1  0
 16 17  1  0
 17 18  2  0
 18 19  1  0
 18 20  1  0
 20 21  2  0
 21 22  1  0
 15 23  2  0
 23  4  1  0
 13  7  1  0
 21 16  1  0
  1 24  1  0
  1 25  1  0
  1 26  1  0
  2 27  1  0
  2 28  1  0
  5 29  1  0
  8 30  1  0
  8 31  1  0
  9 32  1  0
  9 33  1  0
 10 34  1  0
 10 35  1  0
 11 36  1  0
 11 37  1  0
 12 38  1  0
 12 39  1  0
 13 40  1  0
 13 41  1  0
 19 42  1  0
 19 43  1  0
 19 44  1  0
 20 45  1  0
 22 46  1  0
 22 47  1  0
 22 48  1  0
M  END
>  <UniqueID>  (4) 
4

>  <SMILES>  (4) 
CCOc1cc(N2CCCCCC2)nc(-n2nc(C)cc2C)n1

>  <Energy>  (4) 
78.96440157599163

>  <Genealogy>  (4) 
CCOc1cc(N2CCCCCC2)nc(-n2nc(C)cc2C)n1 (3D coordinates assigned)
CCOc1cc(N2CCCCCC2)nc(-n2nc(C)cc2C)n1 (nonaromatic ring conformer: 78.96440157599163 kcal/mol)

>  <smiles>  (4) 
CCOc1cc(N2CCCCCC2)nc(-n2nc(C)cc2C)n1

>  <score_type>  (4) 
oracle

>  <origin>  (4) 
adg

>  <m_score__min__energy>  (4) 
-4.7400000000000002

>  <m_primary>  (4) 
energy

$$$$
4:0
     RDKit          3D

 42 44  0  0  0  0  0  0  0  0999 V2000
   56.5200   22.8430   48.6160 C   0  0  0  0  0  0  0  0  0  0  0  0
   57.3940   23.2800   47.5810 O   0  0  0  0  0  0  0  0  0  0  0  0
   57.3790   22.7980   46.2620 C   0  0  0  0  0  0  0  0  0  0  0  0
   57.7560   21.4720   45.9620 C   0  0  0  0  0  0  0  0  0  0  0  0
   57.7800   21.0230   44.6410 C   0  0  0  0  0  0  0  0  0  0  0  0
   57.4360   21.8860   43.6030 C   0  0  0  0  0  0  0  0  0  0  0  0
   57.0530   23.1990   43.8820 C   0  0  0  0  0  0  0  0  0  0  0  0
   57.0050   23.6660   45.2080 C   0  0  0  0  0  0  0  0  0  0  0  0
   56.5770   25.0640   45.4540 C   0  0  0  0  0  0  0  0  0  0  0  0
   57.1750   26.2170   44.9780 C   0  0  0  0  0  0  0  0  0  0  0  0
   56.4230   27.2370   45.5280 C   0  0  0  0  0  0  0  0  0  0  0  0
   56.6400   28.6830   45.3570 C   0  0  0  0  0  0  0  0  0  0  0  0
   55.6420   29.4370   45.2030 O   0  0  0  0  0  0  0  0  0  0  0  0
   57.9650   29.2360   45.3450 N   0  0  0  0  0  0  0  0  0  0  0  0
   58.1970   30.6530   45.3060 C   0  0  0  0  0  0  0  0  0  0  0  0
   58.8170   31.2900   46.4040 C   0  0  0  0  0  0  0  0  0  0  0  0
   59.2350   30.5010   47.6150 C   0  0  0  0  0  0  0  0  0  0  0  0
   59.0410   32.6750   46.3660 C   0  0  0  0  0  0  0  0  0  0  0  0
   58.6660   33.4210   45.2500 C   0  0  0  0  0  0  0  0  0  0  0  0
   58.0460   32.7990   44.1670 C   0  0  0  0  0  0  0  0  0  0  0  0
   57.7830   31.4200   44.1910 C   0  0  0  0  0  0  0  0  0  0  0  0
   57.0830   30.7890   43.0180 C   0  0  0  0  0  0  0  0  0  0  0  0
   55.4460   26.7170   46.2940 N   0  0  0  0  0  0  0  0  0  0  0  0
   55.5420   25.3970   46.2530 N   0  0  0  0  0  0  0  0  0  0  0  0
   56.9694   23.0677   49.5946 H   0  0  0  0  0  0  0  0  0  0  0  0
   55.5560   23.3651   48.5266 H   0  0  0  0  0  0  0  0  0  0  0  0
   56.3593   21.7585   48.5266 H   0  0  0  0  0  0  0  0  0  0  0  0
   58.0333   20.7863   46.7762 H   0  0  0  0  0  0  0  0  0  0  0  0
   58.0711   19.9857   44.4189 H   0  0  0  0  0  0  0  0  0  0  0  0
   57.4662   21.5322   42.5619 H   0  0  0  0  0  0  0  0  0  0  0  0
   56.7860   23.8753   43.0566 H   0  0  0  0  0  0  0  0  0  0  0  0
   58.0482   26.3021   44.3144 H   0  0  0  0  0  0  0  0  0  0  0  0
   58.7810   28.6030   45.1950 H   0  0  0  0  0  0  0  0  0  0  0  0
   58.9461   31.0463   48.5256 H   0  0  0  0  0  0  0  0  0  0  0  0
   58.7386   29.5195   47.6024 H   0  0  0  0  0  0  0  0  0  0  0  0
   60.3259   30.3604   47.6024 H   0  0  0  0  0  0  0  0  0  0  0  0
   59.5158   33.1752   47.2229 H   0  0  0  0  0  0  0  0  0  0  0  0
   58.8597   34.5035   45.2235 H   0  0  0  0  0  0  0  0  0  0  0  0
   57.7606   33.3935   43.2866 H   0  0  0  0  0  0  0  0  0  0  0  0
   56.3119   30.0939   43.3817 H   0  0  0  0  0  0  0  0  0  0  0  0
   56.6113   31.5730   42.4074 H   0  0  0  0  0  0  0  0  0  0  0  0
   57.8140   30.2388   42.4074 H   0  0  0  0  0  0  0  0  0  0  0  0
  1  2  1  0
  2  3  1  0
  3  4  2  0
  4  5  1  0
  5  6  2  0
  6  7  1  0
  7  8  2  0
  8  9  1  0
  9 10  1  0
 10 11  2  0
 11 12  1  0
 12 13  2  0
 12 14  1  0
 14 15  1  0
 15 16  2  0
 16 17  1  0
 16 18  1  0
 18 19  2  0
 19 20  1  0
 20 21  2  0
 21 22  1  0
 11 23  1  0
 23 24  1  0
  8  3  1  0
 24  9  2  0
 21 15  1  0
  1 25  1  0
  1 26  1  0
  1 27  1  0
  4 28  1  0
  5 29  1  0
  6 30  1  0
  7 31  1  0
 10 32  1  0
 14 33  1  0
 17 34  1  0
 17 35  1  0
 17 36  1  0
 18 37  1  0
 19 38  1  0
 20 39  1  0
 22 40  1  0
 22 41  1  0
 22 42  1  0
M  CHG  1  23  -1
M  END
>  <UniqueID>  (5) 
5

>  <SMILES>  (5) 
COc1ccccc1-c1cc(C(=O)Nc2c(C)cccc2C)[n-]n1

>  <Energy>  (5) 
82.46263316768794

>  <Genealogy>  (5) 
COc1ccccc1-c1cc(C(=O)Nc2c(C)cccc2C)[n-]n1 (protonated)
COc1ccccc1-c1cc(C(=O)Nc2c(C)cccc2C)[n-]n1 (3D coordinates assigned)
COc1ccccc1-c1cc(C(=O)Nc2c(C)cccc2C)[n-]n1 (optimized conformer: 82.46263316768794 kcal/mol)

>  <smiles>  (5) 
COc1ccccc1-c1cc(C(=O)Nc2c(C)cccc2C)[nH]n1

>  <score_type>  (5) 
oracle

>  <origin>  (5) 
adg

>  <m_score__min__energy>  (5) 
-10.32

>  <m_primary>  (5) 
energy

$$$$
5:0
     RDKit          3D

 43 45  0  0  0  0  0  0  0  0999 V2000
   58.4610   32.0930   49.6440 C   0  0  0  0  0  0  0  0  0  0  0  0
   59.0370   33.1750   48.9190 O   0  0  0  0  0  0  0  0  0  0  0  0
   60.2980   33.1390   48.3010 C   0  0  0  0  0  0  0  0  0  0  0  0
   61.3400   32.3220   48.7870 C   0  0  0  0  0  0  0  0  0  0  0  0
   62.5780   32.2970   48.1400 C   0  0  0  0  0  0  0  0  0  0  0  0
   62.7910   33.0760   47.0030 C   0  0  0  0  0  0  0  0  0  0  0  0
   61.7680   33.8890   46.5110 C   0  0  0  0  0  0  0  0  0  0  0  0
   60.5240   33.9390   47.1620 C   0  0  0  0  0  0  0  0  0  0  0  0
   59.4220   34.7990   46.5990 C   0  0  0  0  0  0  0  0  0  0  0  0
   58.2940   33.9500   46.1940 N   0  0  0  0  0  0  0  0  0  0  0  0
   58.6380   33.0910   45.0510 C   0  0  0  0  0  0  0  0  0  0  0  0
   58.0180   31.7240   45.1640 C   0  0  0  0  0  0  0  0  0  0  0  0
   56.7420   31.4670   44.8210 N   0  0  0  0  0  0  0  0  0  0  0  0
   56.5440   30.1690   45.0030 N   0  0  0  0  0  0  0  0  0  0  0  0
   57.7020   29.6500   45.4540 C   0  0  0  0  0  0  0  0  0  0  0  0
   58.6570   30.6000   45.5540 N   0  0  0  0  0  0  0  0  0  0  0  0
   60.0450   30.4300   45.9850 C   0  0  0  0  0  0  0  0  0  0  0  0
   60.1250   29.7380   47.3550 C   0  0  0  0  0  0  0  0  0  0  0  0
   59.9420   28.2080   47.3110 C   0  0  0  0  0  0  0  0  0  0  0  0
   59.3190   27.7050   45.9960 C   0  0  0  0  0  0  0  0  0  0  0  0
   57.8680   28.1830   45.7700 C   0  0  0  0  0  0  0  0  0  0  0  0
   58.5608   32.2805   50.7233 H   0  0  0  0  0  0  0  0  0  0  0  0
   57.3958   32.0034   49.3843 H   0  0  0  0  0  0  0  0  0  0  0  0
   58.9815   31.1593   49.3843 H   0  0  0  0  0  0  0  0  0  0  0  0
   61.1770   31.7011   49.6803 H   0  0  0  0  0  0  0  0  0  0  0  0
   63.3871   31.6610   48.5285 H   0  0  0  0  0  0  0  0  0  0  0  0
   63.7655   33.0499   46.4935 H   0  0  0  0  0  0  0  0  0  0  0  0
   61.9371   34.4941   45.6081 H   0  0  0  0  0  0  0  0  0  0  0  0
   59.0864   35.5128   47.3658 H   0  0  0  0  0  0  0  0  0  0  0  0
   59.7983   35.3492   45.7240 H   0  0  0  0  0  0  0  0  0  0  0  0
   58.0140   33.3510   47.0070 H   0  0  0  0  0  0  0  0  0  0  0  0
   58.2785   33.5684   44.1275 H   0  0  0  0  0  0  0  0  0  0  0  0
   59.7309   32.9674   45.0367 H   0  0  0  0  0  0  0  0  0  0  0  0
   60.5779   29.8175   45.2428 H   0  0  0  0  0  0  0  0  0  0  0  0
   60.5053   31.4253   46.0720 H   0  0  0  0  0  0  0  0  0  0  0  0
   61.1114   29.9535   47.7915 H   0  0  0  0  0  0  0  0  0  0  0  0
   59.2927   30.1351   47.9547 H   0  0  0  0  0  0  0  0  0  0  0  0
   60.9276   27.7352   47.4333 H   0  0  0  0  0  0  0  0  0  0  0  0
   59.2492   27.9400   48.1223 H   0  0  0  0  0  0  0  0  0  0  0  0
   59.9367   28.0647   45.1599 H   0  0  0  0  0  0  0  0  0  0  0  0
   59.2887   26.6070   46.0556 H   0  0  0  0  0  0  0  0  0  0  0  0
   57.4497   27.6075   44.9311 H   0  0  0  0  0  0  0  0  0  0  0  0
   57.3478   28.0222   46.7258 H   0  0  0  0  0  0  0  0  0  0  0  0
  1  2  1  0
  2  3  1  0
  3  4  2  0
  4  5  1  0
  5  6  2  0
  6  7  1  0
  7  8  2  0
  8  9  1  0
  9 10  1  0
 10 11  1  0
 11 12  1  0
 12 13  2  0
 13 14  1  0
 14 15  2  0
 15 16  1  0
 16 17  1  0
 17 18  1  0
 18 19  1  0
 19 20  1  0
 20 21  1  0
  8  3  1  0
 16 12  1  0
 21 15  1  0
  1 22  1  0
  1 23  1  0
  1 24  1  0
  4 25  1  0
  5 26  1  0
  6 27  1  0
  7 28  1  0
  9 29  1  0
  9 30  1  0
 10 31  1  0
 11 32  1  0
 11 33  1  0
 17 34  1  0
 17 35  1  0
 18 36  1  0
 18 37  1  0
 19 38  1  0
 19 39  1  0
 20 40  1  0
 20 41  1  0
 21 42  1  0
 21 43  1  0
M  END
>  <UniqueID>  (6) 
6

>  <SMILES>  (6) 
COc1ccccc1CNCc1nnc2n1CCCCC2

>  <Energy>  (6) 
81.34814440050674

>  <Genealogy>  (6) 
COc1ccccc1CNCc1nnc2n1CCCCC2 (3D coordinates assigned)
COc1ccccc1CNCc1nnc2n1CCCCC2 (nonaromatic ring conformer: 81.34814440050674 kcal/mol)

>  <smiles>  (6) 
COc1ccccc1CNCc1nnc2n1CCCCC2

>  <score_type>  (6) 
oracle

>  <origin>  (6) 
adg

>  <m_score__min__energy>  (6) 
-5.3300000000000001

>  <m_primary>  (6) 
energy

$$$$
6:0
     RDKit          3D

 44 46  0  0  0  0  0  0  0  0999 V2000
   56.1380   25.9410   45.7230 C   0  0  0  0  0  0  0  0  0  0  0  0
   55.7990   27.3210   45.6190 O   0  0  0  0  0  0  0  0  0  0  0  0
   56.7090   28.3430   45.3020 C   0  0  0  0  0  0  0  0  0  0  0  0
   56.4440   29.2970   44.3040 C   0  0  0  0  0  0  0  0  0  0  0  0
   57.3810   30.2910   44.0040 C   0  0  0  0  0  0  0  0  0  0  0  0
   57.0720   31.3240   42.9590 C   0  0  0  0  0  0  0  0  0  0  0  0
   58.5790   30.3620   44.7280 C   0  0  0  0  0  0  0  0  0  0  0  0
   58.8660   29.4250   45.7420 C   0  0  0  0  0  0  0  0  0  0  0  0
   60.0630   29.4390   46.5070 C   0  0  0  0  0  0  0  0  0  0  0  0
   61.1490   30.4870   46.3810 C   0  0  0  0  0  0  0  0  0  0  0  0
   61.5910   30.9030   47.6720 O   0  0  0  0  0  0  0  0  0  0  0  0
   62.1870   32.1430   47.9330 C   0  0  0  0  0  0  0  0  0  0  0  0
   63.4120   32.3240   47.7030 O   0  0  0  0  0  0  0  0  0  0  0  0
   61.4190   33.2280   48.5670 C   0  0  0  0  0  0  0  0  0  0  0  0
   60.7810   34.2080   47.9100 C   0  0  0  0  0  0  0  0  0  0  0  0
   59.6370   34.0150   46.9990 C   0  0  0  0  0  0  0  0  0  0  0  0
   59.5950   34.6460   45.7430 C   0  0  0  0  0  0  0  0  0  0  0  0
   58.4660   34.5170   44.9280 C   0  0  0  0  0  0  0  0  0  0  0  0
   57.3730   33.7610   45.3590 C   0  0  0  0  0  0  0  0  0  0  0  0
   57.4000   33.1460   46.6140 C   0  0  0  0  0  0  0  0  0  0  0  0
   58.5220   33.2830   47.4370 C   0  0  0  0  0  0  0  0  0  0  0  0
   60.2480   28.4450   47.4770 C   0  0  0  0  0  0  0  0  0  0  0  0
   59.2650   27.4770   47.6730 C   0  0  0  0  0  0  0  0  0  0  0  0
   59.4300   26.5810   48.5420 O   0  0  0  0  0  0  0  0  0  0  0  0
   58.1550   27.4930   46.9510 O   0  0  0  0  0  0  0  0  0  0  0  0
   57.9160   28.4060   46.0130 C   0  0  0  0  0  0  0  0  0  0  0  0
   56.2072   25.6594   46.7841 H   0  0  0  0  0  0  0  0  0  0  0  0
   55.3621   25.3348   45.2326 H   0  0  0  0  0  0  0  0  0  0  0  0
   57.1065   25.7634   45.2326 H   0  0  0  0  0  0  0  0  0  0  0  0
   55.4918   29.2614   43.7545 H   0  0  0  0  0  0  0  0  0  0  0  0
   56.7897   32.2677   43.4485 H   0  0  0  0  0  0  0  0  0  0  0  0
   57.9604   31.4879   42.3315 H   0  0  0  0  0  0  0  0  0  0  0  0
   56.2395   30.9731   42.3315 H   0  0  0  0  0  0  0  0  0  0  0  0
   59.3039   31.1580   44.5026 H   0  0  0  0  0  0  0  0  0  0  0  0
   61.9990   30.0632   45.8261 H   0  0  0  0  0  0  0  0  0  0  0  0
   60.7439   31.3579   45.8448 H   0  0  0  0  0  0  0  0  0  0  0  0
   61.3643   33.2353   49.6656 H   0  0  0  0  0  0  0  0  0  0  0  0
   61.1391   35.2368   48.0626 H   0  0  0  0  0  0  0  0  0  0  0  0
   60.4530   35.2430   45.4005 H   0  0  0  0  0  0  0  0  0  0  0  0
   58.4384   35.0116   43.9459 H   0  0  0  0  0  0  0  0  0  0  0  0
   56.4913   33.6497   44.7108 H   0  0  0  0  0  0  0  0  0  0  0  0
   56.5378   32.5538   46.9544 H   0  0  0  0  0  0  0  0  0  0  0  0
   58.5311   32.8150   48.4324 H   0  0  0  0  0  0  0  0  0  0  0  0
   61.1665   28.4288   48.0820 H   0  0  0  0  0  0  0  0  0  0  0  0
  1  2  1  0
  2  3  1  0
  3  4  2  0
  4  5  1  0
  5  6  1  0
  5  7  2  0
  7  8  1  0
  8  9  1  0
  9 10  1  0
 10 11  1  0
 11 12  1  0
 12 13  2  0
 12 14  1  0
 14 15  2  3
 15 16  1  0
 16 17  2  0
 17 18  1  0
 18 19  2  0
 19 20  1  0
 20 21  2  0
  9 22  2  0
 22 23  1  0
 23 24  2  0
 23 25  1  0
 25 26  1  0
 26  3  1  0
 26  8  2  0
 21 16  1  0
  1 27  1  0
  1 28  1  0
  1 29  1  0
  4 30  1  0
  6 31  1  0
  6 32  1  0
  6 33  1  0
  7 34  1  0
 10 35  1  0
 10 36  1  0
 14 37  1  0
 15 38  1  0
 17 39  1  0
 18 40  1  0
 19 41  1  0
 20 42  1  0
 21 43  1  0
 22 44  1  0
M  END
>  <UniqueID>  (7) 
7

>  <SMILES>  (7) 
COc1cc(C)cc2c(COC(=O)C=Cc3ccccc3)cc(=O)oc12

>  <Energy>  (7) 
56.71105634391438

>  <Genealogy>  (7) 
COc1cc(C)cc2c(COC(=O)C=Cc3ccccc3)cc(=O)oc12 (3D coordinates assigned)
COc1cc(C)cc2c(COC(=O)C=Cc3ccccc3)cc(=O)oc12 (optimized conformer: 56.71105634391438 kcal/mol)

>  <smiles>  (7) 
COc1cc(C)cc2c(COC(=O)C=Cc3ccccc3)cc(=O)oc12

>  <score_type>  (7) 
oracle

>  <origin>  (7) 
adg

>  <m_score__min__energy>  (7) 
-8.3399999999999999

>  <m_primary>  (7) 
energy

$$$$
7:0
     RDKit          3D

 51 53  0  0  0  0  0  0  0  0999 V2000
   63.6630   33.7120   52.3800 C   0  0  0  0  0  0  0  0  0  0  0  0
   64.6640   34.2380   51.3580 C   0  0  0  0  0  0  0  0  0  0  0  0
   64.7540   33.3260   50.2050 N   0  0  0  0  0  0  0  0  0  0  0  0
   65.8920   32.3930   50.1140 C   0  0  0  0  0  0  0  0  0  0  0  0
   67.1950   33.0910   50.4920 C   0  0  0  0  0  0  0  0  0  0  0  0
   63.7620   33.4150   49.1540 C   0  0  0  0  0  0  0  0  0  0  0  0
   62.4870   33.7740   49.4640 N   0  0  0  0  0  0  0  0  0  0  0  0
   61.5180   33.8700   48.5190 C   0  0  0  0  0  0  0  0  0  0  0  0
   61.8370   33.6210   47.1760 C   0  0  0  0  0  0  0  0  0  0  0  0
   63.1440   33.2330   46.8710 C   0  0  0  0  0  0  0  0  0  0  0  0
   64.0780   33.1390   47.8520 N   0  0  0  0  0  0  0  0  0  0  0  0
   60.7710   33.6390   46.1100 C   0  0  0  0  0  0  0  0  0  0  0  0
   59.6310   34.4810   46.5260 N   0  0  0  0  0  0  0  0  0  0  0  0
   58.5850   34.5790   45.4830 C   0  0  0  0  0  0  0  0  0  0  0  0
   58.1680   33.2430   44.9030 C   0  0  0  0  0  0  0  0  0  0  0  0
   58.1450   33.0460   43.5130 C   0  0  0  0  0  0  0  0  0  0  0  0
   57.7740   31.8090   42.9780 C   0  0  0  0  0  0  0  0  0  0  0  0
   57.4080   30.7500   43.8300 C   0  0  0  0  0  0  0  0  0  0  0  0
   57.0300   29.4890   43.3450 O   0  0  0  0  0  0  0  0  0  0  0  0
   57.6990   28.2730   43.6660 C   0  0  0  0  0  0  0  0  0  0  0  0
   57.4190   30.9520   45.2150 C   0  0  0  0  0  0  0  0  0  0  0  0
   57.7920   32.1880   45.7490 C   0  0  0  0  0  0  0  0  0  0  0  0
   59.1050   34.0450   47.8310 C   0  0  0  0  0  0  0  0  0  0  0  0
   60.1420   34.3270   48.9220 C   0  0  0  0  0  0  0  0  0  0  0  0
   64.0378   33.9089   53.3953 H   0  0  0  0  0  0  0  0  0  0  0  0
   62.6966   34.2188   52.2412 H   0  0  0  0  0  0  0  0  0  0  0  0
   63.5322   32.6287   52.2412 H   0  0  0  0  0  0  0  0  0  0  0  0
   64.3387   35.2296   51.0103 H   0  0  0  0  0  0  0  0  0  0  0  0
   65.6534   34.3078   51.8335 H   0  0  0  0  0  0  0  0  0  0  0  0
   65.7226   31.5494   50.7992 H   0  0  0  0  0  0  0  0  0  0  0  0
   65.9718   32.0336   49.0775 H   0  0  0  0  0  0  0  0  0  0  0  0
   67.2816   33.1374   51.5876 H   0  0  0  0  0  0  0  0  0  0  0  0
   68.0455   32.5277   50.0805 H   0  0  0  0  0  0  0  0  0  0  0  0
   67.1973   34.1111   50.0805 H   0  0  0  0  0  0  0  0  0  0  0  0
   63.4178   33.0025   45.8308 H   0  0  0  0  0  0  0  0  0  0  0  0
   65.0370   32.8360   47.5810 H   0  0  0  0  0  0  0  0  0  0  0  0
   61.1974   34.0424   45.1797 H   0  0  0  0  0  0  0  0  0  0  0  0
   60.4123   32.6113   45.9511 H   0  0  0  0  0  0  0  0  0  0  0  0
   57.6982   35.0561   45.9258 H   0  0  0  0  0  0  0  0  0  0  0  0
   59.0126   35.1658   44.6567 H   0  0  0  0  0  0  0  0  0  0  0  0
   58.4210   33.8712   42.8400 H   0  0  0  0  0  0  0  0  0  0  0  0
   57.7681   31.6627   41.8878 H   0  0  0  0  0  0  0  0  0  0  0  0
   57.7585   28.1648   44.7590 H   0  0  0  0  0  0  0  0  0  0  0  0
   57.1406   27.4247   43.2434 H   0  0  0  0  0  0  0  0  0  0  0  0
   58.7144   28.2906   43.2434 H   0  0  0  0  0  0  0  0  0  0  0  0
   57.1317   30.1310   45.8884 H   0  0  0  0  0  0  0  0  0  0  0  0
   57.7910   32.3352   46.8391 H   0  0  0  0  0  0  0  0  0  0  0  0
   58.1790   34.5949   48.0549 H   0  0  0  0  0  0  0  0  0  0  0  0
   58.8931   32.9661   47.7979 H   0  0  0  0  0  0  0  0  0  0  0  0
   60.1692   35.4095   49.1157 H   0  0  0  0  0  0  0  0  0  0  0  0
   59.8482   33.7703   49.8241 H   0  0  0  0  0  0  0  0  0  0  0  0
  1  2  1  0
  2  3  1  0
  3  4  1  0
  4  5  1  0
  3  6  1  0
  6  7  2  0
  7  8  1  0
  8  9  2  0
  9 10  1  0
 10 11  2  0
  9 12  1  0
 12 13  1  0
 13 14  1  0
 14 15  1  0
 15 16  2  0
 16 17  1  0
 17 18  2  0
 18 19  1  0
 19 20  1  0
 18 21  1  0
 21 22  2  0
 13 23  1  0
 23 24  1  0
 11  6  1  0
 22 15  1  0
 24  8  1  0
  1 25  1  0
  1 26  1  0
  1 27  1  0
  2 28  1  0
  2 29  1  0
  4 30  1  0
  4 31  1  0
  5 32  1  0
  5 33  1  0
  5 34  1  0
 10 35  1  0
 11 36  1  0
 12 37  1  0
 12 38  1  0
 14 39  1  0
 14 40  1  0
 16 41  1  0
 17 42  1  0
 20 43  1  0
 20 44  1  0
 20 45  1  0
 21 46  1  0
 22 47  1  0
 23 48  1  0
 23 49  1  0
 24 50  1  0
 24 51  1  0
M  CHG  1  11   1
M  END
>  <UniqueID>  (8) 
8

>  <SMILES>  (8) 
CCN(CC)c1nc2c(c[nH+]1)CN(Cc1ccc(OC)cc1)CC2

>  <Energy>  (8) 
51.580827369993436

>  <Genealogy>  (8) 
CCN(CC)c1nc2c(c[nH+]1)CN(Cc1ccc(OC)cc1)CC2 (protonated)
CCN(CC)c1nc2c(c[nH+]1)CN(Cc1ccc(OC)cc1)CC2 (3D coordinates assigned)
CCN(CC)c1nc2c(c[nH+]1)CN(Cc1ccc(OC)cc1)CC2 (nonaromatic ring conformer: 51.580827369993436 kcal/mol)

>  <smiles>  (8) 
CCN(CC)c1ncc2c(n1)CCN(Cc1ccc(OC)cc1)C2

>  <score_type>  (8) 
oracle

>  <origin>  (8) 
adg

>  <m_score__min__energy>  (8) 
-6.3700000000000001

>  <m_primary>  (8) 
energy

$$$$
8:0
     RDKit          3D

 61 65  0  0  0  0  0  0  0  0999 V2000
   57.0770   20.7950   47.8610 F   0  0  0  0  0  0  0  0  0  0  0  0
   57.0340   20.2730   46.5760 C   0  0  0  0  0  0  0  0  0  0  0  0
   55.8830   19.5110   46.4560 F   0  0  0  0  0  0  0  0  0  0  0  0
   58.1340   19.4580   46.3820 F   0  0  0  0  0  0  0  0  0  0  0  0
   57.0670   21.3920   45.5630 C   0  0  0  0  0  0  0  0  0  0  0  0
   56.7710   21.1150   44.2150 C   0  0  0  0  0  0  0  0  0  0  0  0
   56.7430   22.1440   43.2710 C   0  0  0  0  0  0  0  0  0  0  0  0
   56.9980   23.4610   43.6620 C   0  0  0  0  0  0  0  0  0  0  0  0
   57.2830   23.7690   45.0060 C   0  0  0  0  0  0  0  0  0  0  0  0
   57.5080   25.1390   45.4160 N   0  0  0  0  0  0  0  0  0  0  0  0
   56.3850   25.9840   45.8490 C   0  0  0  0  0  0  0  0  0  0  0  0
   56.7020   27.4700   45.5880 C   0  0  0  0  0  0  0  0  0  0  0  0
   57.5500   27.6100   44.3780 N   0  0  0  0  0  0  0  0  0  0  0  0
   57.6860   29.0240   43.9390 C   0  0  0  0  0  0  0  0  0  0  0  0
   57.2790   30.0450   45.0310 C   0  0  0  0  0  0  0  0  0  0  0  0
   58.0780   29.8720   46.2450 N   0  0  0  0  0  0  0  0  0  0  0  0
   58.5800   30.9900   46.9920 C   0  0  0  0  0  0  0  0  0  0  0  0
   58.8490   30.8110   48.2970 C   0  0  0  0  0  0  0  0  0  0  0  0
   59.3850   31.8520   49.2060 C   0  0  0  0  0  0  0  0  0  0  0  0
   58.8290   31.9770   50.4880 C   0  0  0  0  0  0  0  0  0  0  0  0
   59.2800   32.9730   51.3640 C   0  0  0  0  0  0  0  0  0  0  0  0
   58.5820   33.1110   52.9770 Cl  0  0  0  0  0  0  0  0  0  0  0  0
   60.2900   33.8520   50.9610 C   0  0  0  0  0  0  0  0  0  0  0  0
   60.8910   33.7010   49.7050 C   0  0  0  0  0  0  0  0  0  0  0  0
   60.4600   32.6910   48.8370 C   0  0  0  0  0  0  0  0  0  0  0  0
   61.3190   32.4490   47.2900 S   0  0  0  0  0  0  0  0  0  0  0  0
   59.9100   33.0710   46.3920 C   0  0  0  0  0  0  0  0  0  0  0  0
   59.9790   34.3350   45.7880 C   0  0  0  0  0  0  0  0  0  0  0  0
   58.8850   34.8330   45.0810 C   0  0  0  0  0  0  0  0  0  0  0  0
   57.7210   34.0670   44.9620 C   0  0  0  0  0  0  0  0  0  0  0  0
   57.6390   32.8140   45.5700 C   0  0  0  0  0  0  0  0  0  0  0  0
   58.7240   32.3080   46.3090 C   0  0  0  0  0  0  0  0  0  0  0  0
   58.9000   27.0310   44.6240 C   0  0  0  0  0  0  0  0  0  0  0  0
   58.8590   25.7250   45.4550 C   0  0  0  0  0  0  0  0  0  0  0  0
   57.3080   22.7240   45.9510 C   0  0  0  0  0  0  0  0  0  0  0  0
   56.5604   20.0814   43.9030 H   0  0  0  0  0  0  0  0  0  0  0  0
   56.5198   21.9172   42.2180 H   0  0  0  0  0  0  0  0  0  0  0  0
   56.9759   24.2654   42.9121 H   0  0  0  0  0  0  0  0  0  0  0  0
   55.4814   25.7018   45.2887 H   0  0  0  0  0  0  0  0  0  0  0  0
   56.2213   25.8369   46.9268 H   0  0  0  0  0  0  0  0  0  0  0  0
   55.7618   28.0209   45.4381 H   0  0  0  0  0  0  0  0  0  0  0  0
   57.2435   27.8783   46.4541 H   0  0  0  0  0  0  0  0  0  0  0  0
   57.1080   27.0650   43.5940 H   0  0  0  0  0  0  0  0  0  0  0  0
   58.7358   29.2054   43.6649 H   0  0  0  0  0  0  0  0  0  0  0  0
   57.0052   29.1683   43.0872 H   0  0  0  0  0  0  0  0  0  0  0  0
   57.4312   31.0634   44.6440 H   0  0  0  0  0  0  0  0  0  0  0  0
   56.2216   29.8791   45.2847 H   0  0  0  0  0  0  0  0  0  0  0  0
   58.3560   28.9070   46.5350 H   0  0  0  0  0  0  0  0  0  0  0  0
   58.6565   29.8153   48.7230 H   0  0  0  0  0  0  0  0  0  0  0  0
   58.0333   31.2881   50.8077 H   0  0  0  0  0  0  0  0  0  0  0  0
   60.6127   34.6626   51.6309 H   0  0  0  0  0  0  0  0  0  0  0  0
   61.7032   34.3773   49.4001 H   0  0  0  0  0  0  0  0  0  0  0  0
   60.8975   34.9344   45.8721 H   0  0  0  0  0  0  0  0  0  0  0  0
   58.9376   35.8288   44.6167 H   0  0  0  0  0  0  0  0  0  0  0  0
   56.8669   34.4539   44.3869 H   0  0  0  0  0  0  0  0  0  0  0  0
   56.7199   32.2177   45.4709 H   0  0  0  0  0  0  0  0  0  0  0  0
   59.3698   26.8137   43.6534 H   0  0  0  0  0  0  0  0  0  0  0  0
   59.4732   27.7701   45.2030 H   0  0  0  0  0  0  0  0  0  0  0  0
   59.5791   25.0059   45.0374 H   0  0  0  0  0  0  0  0  0  0  0  0
   59.1202   25.9553   46.4984 H   0  0  0  0  0  0  0  0  0  0  0  0
   57.5187   22.9519   47.0063 H   0  0  0  0  0  0  0  0  0  0  0  0
  1  2  1  0
  2  3  1  0
  2  4  1  0
  2  5  1  0
  5  6  2  0
  6  7  1  0
  7  8  2  0
  8  9  1  0
  9 10  1  0
 10 11  1  0
 11 12  1  0
 12 13  1  0
 13 14  1  0
 14 15  1  0
 15 16  1  0
 16 17  1  0
 17 18  2  0
 18 19  1  0
 19 20  2  0
 20 21  1  0
 21 22  1  0
 21 23  2  0
 23 24  1  0
 24 25  2  0
 25 26  1  0
 26 27  1  0
 27 28  2  0
 28 29  1  0
 29 30  2  0
 30 31  1  0
 31 32  2  0
 13 33  1  0
 33 34  1  0
  9 35  2  0
 35  5  1  0
 34 10  1  0
 32 17  1  0
 25 19  1  0
 32 27  1  0
  6 36  1  0
  7 37  1  0
  8 38  1  0
 11 39  1  0
 11 40  1  0
 12 41  1  0
 12 42  1  0
 13 43  1  0
 14 44  1  0
 14 45  1  0
 15 46  1  0
 15 47  1  0
 16 48  1  0
 18 49  1  0
 20 50  1  0
 23 51  1  0
 24 52  1  0
 28 53  1  0
 29 54  1  0
 30 55  1  0
 31 56  1  0
 33 57  1  0
 33 58  1  0
 34 59  1  0
 34 60  1  0
 35 61  1  0
M  CHG  1  13   1
M  END
>  <UniqueID>  (9) 
9

>  <SMILES>  (9) 
FC(F)(F)c1cccc(N2CC[NH+](CCNC3=Cc4cc(Cl)ccc4Sc4ccccc43)CC2)c1

>  <Energy>  (9) 
93.14690760363288

>  <Genealogy>  (9) 
FC(F)(F)c1cccc(N2CC[NH+](CCNC3=Cc4cc(Cl)ccc4Sc4ccccc43)CC2)c1 (protonated)
FC(F)(F)c1cccc(N2CC[NH+](CCNC3=Cc4cc(Cl)ccc4Sc4ccccc43)CC2)c1 (3D coordinates assigned)
FC(F)(F)c1cccc(N2CC[NH+](CCNC3=Cc4cc(Cl)ccc4Sc4ccccc43)CC2)c1 (nonaromatic ring conformer: 93.14690760363288 kcal/mol)

>  <smiles>  (9) 
FC(F)(F)c1cccc(N2CCN(CCNC3=Cc4cc(Cl)ccc4Sc4ccccc43)CC2)c1

>  <score_type>  (9) 
oracle

>  <origin>  (9) 
adg

>  <m_score__min__energy>  (9) 
-5.8399999999999999

>  <m_primary>  (9) 
energy

$$$$
9:0
     RDKit          3D

 39 41  0  0  0  0  0  0  0  0999 V2000
   57.3180   21.3140   45.9020 C   0  0  0  0  0  0  0  0  0  0  0  0
   57.1470   22.3740   46.8360 O   0  0  0  0  0  0  0  0  0  0  0  0
   57.0510   23.7290   46.4890 C   0  0  0  0  0  0  0  0  0  0  0  0
   55.8160   24.3830   46.3330 C   0  0  0  0  0  0  0  0  0  0  0  0
   55.7630   25.7370   45.9870 C   0  0  0  0  0  0  0  0  0  0  0  0
   54.5170   26.3390   45.8450 O   0  0  0  0  0  0  0  0  0  0  0  0
   56.9580   26.4650   45.7910 C   0  0  0  0  0  0  0  0  0  0  0  0
   56.9810   27.8330   45.4440 C   0  0  0  0  0  0  0  0  0  0  0  0
   55.9100   28.4850   45.3110 O   0  0  0  0  0  0  0  0  0  0  0  0
   58.2150   28.4800   45.2620 C   0  0  0  0  0  0  0  0  0  0  0  0
   58.2890   29.8710   44.9010 N   0  0  0  0  0  0  0  0  0  0  0  0
   57.4740   30.3630   43.7820 C   0  0  0  0  0  0  0  0  0  0  0  0
   57.6590   31.8680   43.5950 C   0  0  0  0  0  0  0  0  0  0  0  0
   57.5970   32.5170   44.9170 N   0  0  0  0  0  0  0  0  0  0  0  0
   57.3940   33.9790   44.8300 C   0  0  0  0  0  0  0  0  0  0  0  0
   58.6060   34.7460   45.1710 C   0  0  0  0  0  0  0  0  0  0  0  0
   59.5570   35.3480   45.4400 N   0  0  0  0  0  0  0  0  0  0  0  0
   58.7310   32.1510   45.7990 C   0  0  0  0  0  0  0  0  0  0  0  0
   59.2980   30.7430   45.5160 C   0  0  0  0  0  0  0  0  0  0  0  0
   59.3910   27.7420   45.4430 C   0  0  0  0  0  0  0  0  0  0  0  0
   59.3410   26.4570   45.7720 O   0  0  0  0  0  0  0  0  0  0  0  0
   58.1990   25.8020   45.9490 C   0  0  0  0  0  0  0  0  0  0  0  0
   58.2340   24.4480   46.2940 C   0  0  0  0  0  0  0  0  0  0  0  0
   57.4705   20.3689   46.4438 H   0  0  0  0  0  0  0  0  0  0  0  0
   56.4212   21.2338   45.2701 H   0  0  0  0  0  0  0  0  0  0  0  0
   58.1945   21.5199   45.2701 H   0  0  0  0  0  0  0  0  0  0  0  0
   54.8812   23.8234   46.4848 H   0  0  0  0  0  0  0  0  0  0  0  0
   57.7775   29.8453   42.8601 H   0  0  0  0  0  0  0  0  0  0  0  0
   56.4151   30.1633   44.0032 H   0  0  0  0  0  0  0  0  0  0  0  0
   58.6360   32.0664   43.1302 H   0  0  0  0  0  0  0  0  0  0  0  0
   56.8672   32.2660   42.9434 H   0  0  0  0  0  0  0  0  0  0  0  0
   57.0960   34.2318   43.8017 H   0  0  0  0  0  0  0  0  0  0  0  0
   56.6156   34.2489   45.5588 H   0  0  0  0  0  0  0  0  0  0  0  0
   59.5362   32.8866   45.6552 H   0  0  0  0  0  0  0  0  0  0  0  0
   58.3513   32.1468   46.8314 H   0  0  0  0  0  0  0  0  0  0  0  0
   60.1561   30.8335   44.8337 H   0  0  0  0  0  0  0  0  0  0  0  0
   59.6046   30.2953   46.4728 H   0  0  0  0  0  0  0  0  0  0  0  0
   60.3668   28.2323   45.3111 H   0  0  0  0  0  0  0  0  0  0  0  0
   59.2035   23.9423   46.4135 H   0  0  0  0  0  0  0  0  0  0  0  0
  1  2  1  0
  2  3  1  0
  3  4  2  0
  4  5  1  0
  5  6  1  0
  5  7  2  0
  7  8  1  0
  8  9  2  0
  8 10  1  0
 10 11  1  0
 11 12  1  0
 12 13  1  0
 13 14  1  0
 14 15  1  0
 15 16  1  0
 16 17  3  0
 14 18  1  0
 18 19  1  0
 10 20  2  0
 20 21  1  0
 21 22  1  0
 22 23  2  0
 23  3  1  0
 22  7  1  0
 19 11  1  0
  1 24  1  0
  1 25  1  0
  1 26  1  0
  4 27  1  0
 12 28  1  0
 12 29  1  0
 13 30  1  0
 13 31  1  0
 15 32  1  0
 15 33  1  0
 18 34  1  0
 18 35  1  0
 19 36  1  0
 19 37  1  0
 20 38  1  0
 23 39  1  0
M  CHG  1   6  -1
M  END
>  <UniqueID>  (10) 
10

>  <SMILES>  (10) 
COc1cc([O-])c2c(=O)c(N3CCN(CC#N)CC3)coc2c1

>  <Energy>  (10) 
58.939035797725055

>  <Genealogy>  (10) 
COc1cc([O-])c2c(=O)c(N3CCN(CC#N)CC3)coc2c1 (protonated)
COc1cc([O-])c2c(=O)c(N3CCN(CC#N)CC3)coc2c1 (3D coordinates assigned)
COc1cc([O-])c2c(=O)c(N3CCN(CC#N)CC3)coc2c1 (nonaromatic ring conformer: 58.939035797725055 kcal/mol)

>  <smiles>  (10) 
COc1cc(O)c2c(=O)c(N3CCN(CC#N)CC3)coc2c1

>  <score_type>  (10) 
oracle

>  <origin>  (10) 
adg

>  <m_score__min__energy>  (10) 
-11.15

>  <m_primary>  (10) 
energy

$$$$
10:0
     RDKit          3D

 54 56  0  0  0  0  0  0  0  0999 V2000
   57.8540   32.4340   46.1230 C   0  0  0  0  0  0  0  0  0  0  0  0
   57.5930   31.8480   44.7750 C   0  0  0  0  0  0  0  0  0  0  0  0
   57.6410   32.5570   43.6290 N   0  0  0  0  0  0  0  0  0  0  0  0
   57.2950   31.7460   42.6380 N   0  0  0  0  0  0  0  0  0  0  0  0
   57.1310   32.1920   41.2590 C   0  0  0  0  0  0  0  0  0  0  0  0
   57.0140   30.5180   43.1240 C   0  0  0  0  0  0  0  0  0  0  0  0
   56.3950   29.4030   42.3380 C   0  0  0  0  0  0  0  0  0  0  0  0
   57.1890   30.5570   44.4930 C   0  0  0  0  0  0  0  0  0  0  0  0
   56.7950   29.5510   45.4280 N   0  0  0  0  0  0  0  0  0  0  0  0
   57.9900   28.4870   46.0890 S   0  0  0  0  0  0  0  0  0  0  0  0
   58.5720   27.6260   45.0020 O   0  0  0  0  0  0  0  0  0  0  0  0
   57.3540   27.5960   47.1170 O   0  0  0  0  0  0  0  0  0  0  0  0
   59.2470   29.4550   46.8520 C   0  0  0  0  0  0  0  0  0  0  0  0
   59.1450   29.8090   48.2040 C   0  0  0  0  0  0  0  0  0  0  0  0
   60.1890   30.4920   48.8330 C   0  0  0  0  0  0  0  0  0  0  0  0
   61.3440   30.8320   48.1140 C   0  0  0  0  0  0  0  0  0  0  0  0
   62.4480   31.5470   48.7850 C   0  0  0  0  0  0  0  0  0  0  0  0
   63.0250   30.9700   49.9280 C   0  0  0  0  0  0  0  0  0  0  0  0
   64.0710   31.6130   50.5930 C   0  0  0  0  0  0  0  0  0  0  0  0
   64.5450   32.8400   50.1300 C   0  0  0  0  0  0  0  0  0  0  0  0
   63.9740   33.4320   49.0010 C   0  0  0  0  0  0  0  0  0  0  0  0
   62.9210   32.7990   48.3160 C   0  0  0  0  0  0  0  0  0  0  0  0
   62.2960   33.4880   47.1220 C   0  0  0  0  0  0  0  0  0  0  0  0
   60.8460   33.6830   47.3320 N   0  0  0  0  0  0  0  0  0  0  0  0
   60.5810   34.2430   48.6680 C   0  0  0  0  0  0  0  0  0  0  0  0
   60.2990   34.5780   46.3010 C   0  0  0  0  0  0  0  0  0  0  0  0
   61.4480   30.4710   46.7630 C   0  0  0  0  0  0  0  0  0  0  0  0
   60.4040   29.7860   46.1360 C   0  0  0  0  0  0  0  0  0  0  0  0
   57.5371   31.7225   46.8997 H   0  0  0  0  0  0  0  0  0  0  0  0
   58.9291   32.6402   46.2313 H   0  0  0  0  0  0  0  0  0  0  0  0
   57.2882   33.3711   46.2313 H   0  0  0  0  0  0  0  0  0  0  0  0
   56.7514   33.2244   41.2502 H   0  0  0  0  0  0  0  0  0  0  0  0
   58.1019   32.1540   40.7434 H   0  0  0  0  0  0  0  0  0  0  0  0
   56.4160   31.5340   40.7434 H   0  0  0  0  0  0  0  0  0  0  0  0
   55.9794   28.6543   43.0285 H   0  0  0  0  0  0  0  0  0  0  0  0
   55.5903   29.8039   41.7042 H   0  0  0  0  0  0  0  0  0  0  0  0
   57.1608   28.9320   41.7042 H   0  0  0  0  0  0  0  0  0  0  0  0
   55.9380   29.7180   46.0010 H   0  0  0  0  0  0  0  0  0  0  0  0
   58.2398   29.5482   48.7721 H   0  0  0  0  0  0  0  0  0  0  0  0
   60.1047   30.7639   49.8955 H   0  0  0  0  0  0  0  0  0  0  0  0
   62.6506   30.0055   50.3017 H   0  0  0  0  0  0  0  0  0  0  0  0
   64.5219   31.1509   51.4836 H   0  0  0  0  0  0  0  0  0  0  0  0
   65.3705   33.3429   50.6551 H   0  0  0  0  0  0  0  0  0  0  0  0
   64.3511   34.4018   48.6444 H   0  0  0  0  0  0  0  0  0  0  0  0
   62.7752   34.4677   46.9786 H   0  0  0  0  0  0  0  0  0  0  0  0
   62.4432   32.8577   46.2326 H   0  0  0  0  0  0  0  0  0  0  0  0
   60.9175   33.5320   49.4369 H   0  0  0  0  0  0  0  0  0  0  0  0
   61.1256   35.1918   48.7825 H   0  0  0  0  0  0  0  0  0  0  0  0
   59.5020   34.4235   48.7825 H   0  0  0  0  0  0  0  0  0  0  0  0
   59.7835   35.4214   46.7836 H   0  0  0  0  0  0  0  0  0  0  0  0
   61.1185   34.9593   45.6742 H   0  0  0  0  0  0  0  0  0  0  0  0
   59.5858   34.0226   45.6742 H   0  0  0  0  0  0  0  0  0  0  0  0
   62.3543   30.7279   46.1950 H   0  0  0  0  0  0  0  0  0  0  0  0
   60.4913   29.5057   45.0759 H   0  0  0  0  0  0  0  0  0  0  0  0
  1  2  1  0
  2  3  2  0
  3  4  1  0
  4  5  1  0
  4  6  1  0
  6  7  1  0
  6  8  2  0
  8  9  1  0
  9 10  1  0
 10 11  2  0
 10 12  2  0
 10 13  1  0
 13 14  2  0
 14 15  1  0
 15 16  2  0
 16 17  1  0
 17 18  2  0
 18 19  1  0
 19 20  2  0
 20 21  1  0
 21 22  2  0
 22 23  1  0
 23 24  1  0
 24 25  1  0
 24 26  1  0
 16 27  1  0
 27 28  2  0
  8  2  1  0
 28 13  1  0
 22 17  1  0
  1 29  1  0
  1 30  1  0
  1 31  1  0
  5 32  1  0
  5 33  1  0
  5 34  1  0
  7 35  1  0
  7 36  1  0
  7 37  1  0
  9 38  1  0
 14 39  1  0
 15 40  1  0
 18 41  1  0
 19 42  1  0
 20 43  1  0
 21 44  1  0
 23 45  1  0
 23 46  1  0
 25 47  1  0
 25 48  1  0
 25 49  1  0
 26 50  1  0
 26 51  1  0
 26 52  1  0
 27 53  1  0
 28 54  1  0
M  END
>  <UniqueID>  (11) 
11

>  <SMILES>  (11) 
Cc1nn(C)c(C)c1NS(=O)(=O)c1ccc(-c2ccccc2CN(C)C)cc1

>  <Energy>  (11) 
95.8347622695453

>  <Genealogy>  (11) 
Cc1nn(C)c(C)c1NS(=O)(=O)c1ccc(-c2ccccc2CN(C)C)cc1 (3D coordinates assigned)
Cc1nn(C)c(C)c1NS(=O)(=O)c1ccc(-c2ccccc2CN(C)C)cc1 (optimized conformer: 95.8347622695453 kcal/mol)

>  <smiles>  (11) 
Cc1nn(C)c(C)c1NS(=O)(=O)c1ccc(-c2ccccc2CN(C)C)cc1

>  <score_type>  (11) 
oracle

>  <origin>  (11) 
adg

>  <m_score__min__energy>  (11) 
-8.3300000000000001

>  <m_primary>  (11) 
energy

$$$$
11:0
     RDKit          3D

 49 52  0  0  0  0  0  0  0  0999 V2000
   56.4110   22.2700   42.7110 C   0  0  0  0  0  0  0  0  0  0  0  0
   55.6120   23.1600   43.6570 C   0  0  0  0  0  0  0  0  0  0  0  0
   56.5090   23.8970   44.5450 N   0  0  0  0  0  0  0  0  0  0  0  0
   56.0560   24.5190   45.7560 C   0  0  0  0  0  0  0  0  0  0  0  0
   54.8220   24.6260   45.9870 O   0  0  0  0  0  0  0  0  0  0  0  0
   56.9860   25.0870   46.6850 N   0  0  0  0  0  0  0  0  0  0  0  0
   57.5080   26.4220   46.6380 C   0  0  0  0  0  0  0  0  0  0  0  0
   56.9440   27.3390   45.7450 C   0  0  0  0  0  0  0  0  0  0  0  0
   57.4100   28.6550   45.6910 C   0  0  0  0  0  0  0  0  0  0  0  0
   58.4430   29.0840   46.5440 C   0  0  0  0  0  0  0  0  0  0  0  0
   58.9420   30.4800   46.4870 C   0  0  0  0  0  0  0  0  0  0  0  0
   60.0480   30.8430   47.1940 N   0  0  0  0  0  0  0  0  0  0  0  0
   60.5430   32.1100   47.1640 C   0  0  0  0  0  0  0  0  0  0  0  0
   61.7210   32.4190   47.9350 N   0  0  0  0  0  0  0  0  0  0  0  0
   61.6320   32.9590   49.2950 C   0  0  0  0  0  0  0  0  0  0  0  0
   62.7620   33.9680   49.5220 C   0  0  0  0  0  0  0  0  0  0  0  0
   64.0170   33.4030   49.1880 O   0  0  0  0  0  0  0  0  0  0  0  0
   64.0630   33.1290   47.8000 C   0  0  0  0  0  0  0  0  0  0  0  0
   63.0440   32.0490   47.4240 C   0  0  0  0  0  0  0  0  0  0  0  0
   59.8800   33.0800   46.3920 C   0  0  0  0  0  0  0  0  0  0  0  0
   60.2940   34.3770   46.3530 N   0  0  0  0  0  0  0  0  0  0  0  0
   59.6450   35.3140   45.6110 C   0  0  0  0  0  0  0  0  0  0  0  0
   58.5170   34.9590   44.8640 C   0  0  0  0  0  0  0  0  0  0  0  0
   58.0620   33.6380   44.8930 C   0  0  0  0  0  0  0  0  0  0  0  0
   58.7400   32.6900   45.6640 C   0  0  0  0  0  0  0  0  0  0  0  0
   58.3010   31.4080   45.7260 N   0  0  0  0  0  0  0  0  0  0  0  0
   58.9880   28.1650   47.4620 C   0  0  0  0  0  0  0  0  0  0  0  0
   58.5190   26.8490   47.5130 C   0  0  0  0  0  0  0  0  0  0  0  0
   57.0329   21.5773   43.2969 H   0  0  0  0  0  0  0  0  0  0  0  0
   55.7199   21.6954   42.0768 H   0  0  0  0  0  0  0  0  0  0  0  0
   57.0566   22.8954   42.0768 H   0  0  0  0  0  0  0  0  0  0  0  0
   55.0185   23.8743   43.0675 H   0  0  0  0  0  0  0  0  0  0  0  0
   54.9486   22.5278   44.2655 H   0  0  0  0  0  0  0  0  0  0  0  0
   57.5000   24.0350   44.2420 H   0  0  0  0  0  0  0  0  0  0  0  0
   56.1272   27.0216   45.0801 H   0  0  0  0  0  0  0  0  0  0  0  0
   56.9652   29.3619   44.9751 H   0  0  0  0  0  0  0  0  0  0  0  0
   60.6617   33.4601   49.4272 H   0  0  0  0  0  0  0  0  0  0  0  0
   61.7241   32.1377   50.0210 H   0  0  0  0  0  0  0  0  0  0  0  0
   62.5865   34.8532   48.8931 H   0  0  0  0  0  0  0  0  0  0  0  0
   62.7744   34.2493   50.5853 H   0  0  0  0  0  0  0  0  0  0  0  0
   63.8346   34.0497   47.2430 H   0  0  0  0  0  0  0  0  0  0  0  0
   65.0701   32.7670   47.5456 H   0  0  0  0  0  0  0  0  0  0  0  0
   62.9995   31.9535   46.3291 H   0  0  0  0  0  0  0  0  0  0  0  0
   63.3501   31.0895   47.8662 H   0  0  0  0  0  0  0  0  0  0  0  0
   60.0077   36.3524   45.5983 H   0  0  0  0  0  0  0  0  0  0  0  0
   57.9925   35.7132   44.2589 H   0  0  0  0  0  0  0  0  0  0  0  0
   57.1748   33.3459   44.3120 H   0  0  0  0  0  0  0  0  0  0  0  0
   59.7891   28.4855   48.1443 H   0  0  0  0  0  0  0  0  0  0  0  0
   58.9446   26.1444   48.2427 H   0  0  0  0  0  0  0  0  0  0  0  0
  1  2  1  0
  2  3  1  0
  3  4  1  0
  4  5  2  0
  4  6  1  0
  6  7  1  0
  7  8  2  0
  8  9  1  0
  9 10  2  0
 10 11  1  0
 11 12  2  0
 12 13  1  0
 13 14  1  0
 14 15  1  0
 15 16  1  0
 16 17  1  0
 17 18  1  0
 18 19  1  0
 13 20  2  0
 20 21  1  0
 21 22  2  0
 22 23  1  0
 23 24  2  0
 24 25  1  0
 25 26  2  0
 10 27  1  0
 27 28  2  0
 28  7  1  0
 26 11  1  0
 19 14  1  0
 25 20  1  0
  1 29  1  0
  1 30  1  0
  1 31  1  0
  2 32  1  0
  2 33  1  0
  3 34  1  0
  8 35  1  0
  9 36  1  0
 15 37  1  0
 15 38  1  0
 16 39  1  0
 16 40  1  0
 18 41  1  0
 18 42  1  0
 19 43  1  0
 19 44  1  0
 22 45  1  0
 23 46  1  0
 24 47  1  0
 27 48  1  0
 28 49  1  0
M  CHG  1   6  -1
M  END
>  <UniqueID>  (12) 
12

>  <SMILES>  (12) 
CCNC(=O)[N-]c1ccc(-c2nc(N3CCOCC3)c3ncccc3n2)cc1

>  <Energy>  (12) 
62.09265111732941

>  <Genealogy>  (12) 
CCNC(=O)[N-]c1ccc(-c2nc(N3CCOCC3)c3ncccc3n2)cc1 (protonated)
CCNC(=O)[N-]c1ccc(-c2nc(N3CCOCC3)c3ncccc3n2)cc1 (3D coordinates assigned)
CCNC(=O)[N-]c1ccc(-c2nc(N3CCOCC3)c3ncccc3n2)cc1 (nonaromatic ring conformer: 62.09265111732941 kcal/mol)

>  <smiles>  (12) 
CCNC(=O)Nc1ccc(-c2nc(N3CCOCC3)c3ncccc3n2)cc1

>  <score_type>  (12) 
oracle

>  <origin>  (12) 
adg

>  <m_score__min__energy>  (12) 
-9.2300000000000004

>  <m_primary>  (12) 
energy

$$$$
12:0
     RDKit          3D

 40 42  0  0  0  0  0  0  0  0999 V2000
   60.3130   27.4900   47.2520 C   0  0  0  0  0  0  0  0  0  0  0  0
   58.9650   27.3760   46.6080 C   0  0  0  0  0  0  0  0  0  0  0  0
   58.3700   26.1350   46.3280 C   0  0  0  0  0  0  0  0  0  0  0  0
   57.0930   26.2410   45.7850 C   0  0  0  0  0  0  0  0  0  0  0  0
   56.2210   25.1330   45.3550 C   0  0  0  0  0  0  0  0  0  0  0  0
   55.0080   25.1530   45.6990 O   0  0  0  0  0  0  0  0  0  0  0  0
   56.7180   24.0270   44.5800 N   0  0  0  0  0  0  0  0  0  0  0  0
   58.0960   23.5600   44.6170 C   0  0  0  0  0  0  0  0  0  0  0  0
   58.0550   22.1240   44.1110 C   0  0  0  0  0  0  0  0  0  0  0  0
   56.7350   21.9930   43.3590 C   0  0  0  0  0  0  0  0  0  0  0  0
   55.8300   23.0740   43.9340 C   0  0  0  0  0  0  0  0  0  0  0  0
   56.7120   27.8720   45.6110 S   0  0  0  0  0  0  0  0  0  0  0  0
   58.1610   28.4550   46.2270 C   0  0  0  0  0  0  0  0  0  0  0  0
   58.4510   29.8470   46.3990 N   0  0  0  0  0  0  0  0  0  0  0  0
   57.7710   30.8850   45.6810 C   0  0  0  0  0  0  0  0  0  0  0  0
   56.6620   30.6440   45.1290 O   0  0  0  0  0  0  0  0  0  0  0  0
   58.3100   32.2630   45.6550 C   0  0  0  0  0  0  0  0  0  0  0  0
   58.6400   32.8870   46.8710 C   0  0  0  0  0  0  0  0  0  0  0  0
   59.1670   34.1800   46.8870 C   0  0  0  0  0  0  0  0  0  0  0  0
   59.3620   34.8710   45.6910 C   0  0  0  0  0  0  0  0  0  0  0  0
   59.0210   34.2730   44.4760 C   0  0  0  0  0  0  0  0  0  0  0  0
   58.4920   32.9760   44.4460 C   0  0  0  0  0  0  0  0  0  0  0  0
   57.9950   32.3280   42.8850 Cl  0  0  0  0  0  0  0  0  0  0  0  0
   60.1987   27.4803   48.3460 H   0  0  0  0  0  0  0  0  0  0  0  0
   60.9407   26.6417   46.9414 H   0  0  0  0  0  0  0  0  0  0  0  0
   60.7893   28.4316   46.9414 H   0  0  0  0  0  0  0  0  0  0  0  0
   58.8657   25.1719   46.5195 H   0  0  0  0  0  0  0  0  0  0  0  0
   58.7290   24.1792   43.9644 H   0  0  0  0  0  0  0  0  0  0  0  0
   58.5202   23.6229   45.6300 H   0  0  0  0  0  0  0  0  0  0  0  0
   58.9022   21.9299   43.4367 H   0  0  0  0  0  0  0  0  0  0  0  0
   58.1281   21.3993   44.9353 H   0  0  0  0  0  0  0  0  0  0  0  0
   56.8888   22.1534   42.2817 H   0  0  0  0  0  0  0  0  0  0  0  0
   56.2973   20.9905   43.4746 H   0  0  0  0  0  0  0  0  0  0  0  0
   55.2599   23.5642   43.1311 H   0  0  0  0  0  0  0  0  0  0  0  0
   55.0978   22.6571   44.6411 H   0  0  0  0  0  0  0  0  0  0  0  0
   59.0560   30.1210   47.2060 H   0  0  0  0  0  0  0  0  0  0  0  0
   58.4815   32.3515   47.8187 H   0  0  0  0  0  0  0  0  0  0  0  0
   59.4288   34.6545   47.8443 H   0  0  0  0  0  0  0  0  0  0  0  0
   59.7842   35.8866   45.7050 H   0  0  0  0  0  0  0  0  0  0  0  0
   59.1688   34.8243   43.5357 H   0  0  0  0  0  0  0  0  0  0  0  0
  1  2  1  0
  2  3  1  0
  3  4  2  0
  4  5  1  0
  5  6  2  0
  5  7  1  0
  7  8  1  0
  8  9  1  0
  9 10  1  0
 10 11  1  0
  4 12  1  0
 12 13  1  0
 13 14  1  0
 14 15  1  0
 15 16  2  0
 15 17  1  0
 17 18  2  0
 18 19  1  0
 19 20  2  0
 20 21  1  0
 21 22  2  0
 22 23  1  0
 13  2  2  0
 22 17  1  0
 11  7  1  0
  1 24  1  0
  1 25  1  0
  1 26  1  0
  3 27  1  0
  8 28  1  0
  8 29  1  0
  9 30  1  0
  9 31  1  0
 10 32  1  0
 10 33  1  0
 11 34  1  0
 11 35  1  0
 14 36  1  0
 18 37  1  0
 19 38  1  0
 20 39  1  0
 21 40  1  0
M  END
>  <UniqueID>  (13) 
13

>  <SMILES>  (13) 
Cc1cc(C(=O)N2CCCC2)sc1NC(=O)c1ccccc1Cl

>  <Energy>  (13) 
78.72396105567556

>  <Genealogy>  (13) 
Cc1cc(C(=O)N2CCCC2)sc1NC(=O)c1ccccc1Cl (3D coordinates assigned)
Cc1cc(C(=O)N2CCCC2)sc1NC(=O)c1ccccc1Cl (nonaromatic ring conformer: 78.72396105567556 kcal/mol)

>  <smiles>  (13) 
Cc1cc(C(=O)N2CCCC2)sc1NC(=O)c1ccccc1Cl

>  <score_type>  (13) 
oracle

>  <origin>  (13) 
adg

>  <m_score__min__energy>  (13) 
-8.75

>  <m_primary>  (13) 
energy

$$$$
13:0
     RDKit          3D

 29 30  0  0  0  0  0  0  0  0999 V2000
   59.5950   29.7400   46.4840 C   0  0  0  0  0  0  0  0  0  0  0  0
   58.5600   28.6970   46.2140 C   0  0  0  0  0  0  0  0  0  0  0  0
   58.2800   27.6900   47.0670 N   0  0  0  0  0  0  0  0  0  0  0  0
   57.3290   26.9720   46.4320 C   0  0  0  0  0  0  0  0  0  0  0  0
   57.0110   27.4760   45.2250 N   0  0  0  0  0  0  0  0  0  0  0  0
   57.7910   28.5590   45.0740 C   0  0  0  0  0  0  0  0  0  0  0  0
   57.7700   29.4460   43.8650 C   0  0  0  0  0  0  0  0  0  0  0  0
   56.6210   30.8440   44.1220 S   0  0  0  0  0  0  0  0  0  0  0  0
   57.7590   32.1620   43.5660 C   0  0  0  0  0  0  0  0  0  0  0  0
   58.1710   33.0220   44.7290 C   0  0  0  0  0  0  0  0  0  0  0  0
   57.7650   32.6830   46.0320 C   0  0  0  0  0  0  0  0  0  0  0  0
   58.1580   33.4690   47.1190 C   0  0  0  0  0  0  0  0  0  0  0  0
   58.9610   34.5940   46.9170 C   0  0  0  0  0  0  0  0  0  0  0  0
   59.3710   34.9370   45.6260 C   0  0  0  0  0  0  0  0  0  0  0  0
   58.9800   34.1550   44.5350 C   0  0  0  0  0  0  0  0  0  0  0  0
   59.7170   29.8629   47.5703 H   0  0  0  0  0  0  0  0  0  0  0  0
   60.5526   29.4299   46.0403 H   0  0  0  0  0  0  0  0  0  0  0  0
   59.2775   30.6951   46.0403 H   0  0  0  0  0  0  0  0  0  0  0  0
   56.8632   26.0703   46.8563 H   0  0  0  0  0  0  0  0  0  0  0  0
   56.3080   27.1000   44.5520 H   0  0  0  0  0  0  0  0  0  0  0  0
   58.7822   29.8370   43.6844 H   0  0  0  0  0  0  0  0  0  0  0  0
   57.4315   28.8600   42.9978 H   0  0  0  0  0  0  0  0  0  0  0  0
   58.6535   31.7040   43.1187 H   0  0  0  0  0  0  0  0  0  0  0  0
   57.2443   32.7886   42.8228 H   0  0  0  0  0  0  0  0  0  0  0  0
   57.1357   31.7959   46.1964 H   0  0  0  0  0  0  0  0  0  0  0  0
   57.8343   33.2011   48.1356 H   0  0  0  0  0  0  0  0  0  0  0  0
   59.2706   35.2099   47.7742 H   0  0  0  0  0  0  0  0  0  0  0  0
   60.0024   35.8237   45.4678 H   0  0  0  0  0  0  0  0  0  0  0  0
   59.3068   34.4275   43.5206 H   0  0  0  0  0  0  0  0  0  0  0  0
  1  2  1  0
  2  3  1  0
  3  4  2  0
  4  5  1  0
  5  6  1  0
  6  7  1  0
  7  8  1  0
  8  9  1  0
  9 10  1  0
 10 11  2  0
 11 12  1  0
 12 13  2  0
 13 14  1  0
 14 15  2  0
  6  2  2  0
 15 10  1  0
  1 16  1  0
  1 17  1  0
  1 18  1  0
  4 19  1  0
  5 20  1  0
  7 21  1  0
  7 22  1  0
  9 23  1  0
  9 24  1  0
 11 25  1  0
 12 26  1  0
 13 27  1  0
 14 28  1  0
 15 29  1  0
M  END
>  <UniqueID>  (14) 
14

>  <SMILES>  (14) 
Cc1nc[nH]c1CSCc1ccccc1

>  <Energy>  (14) 
52.169548395954486

>  <Genealogy>  (14) 
Cc1nc[nH]c1CSCc1ccccc1 (3D coordinates assigned)
Cc1nc[nH]c1CSCc1ccccc1 (optimized conformer: 52.169548395954486 kcal/mol)

>  <smiles>  (14) 
Cc1nc[nH]c1CSCc1ccccc1

>  <score_type>  (14) 
oracle

>  <origin>  (14) 
adg

>  <m_score__min__energy>  (14) 
-6.1399999999999997

>  <m_primary>  (14) 
energy

$$$$
14:0
     RDKit          3D

 27 27  0  0  0  0  0  0  0  0999 V2000
   56.3300   29.6980   44.1030 C   0  0  0  0  0  0  0  0  0  0  0  0
   56.6190   30.8640   44.8650 O   0  0  0  0  0  0  0  0  0  0  0  0
   57.3940   31.9180   44.3670 C   0  0  0  0  0  0  0  0  0  0  0  0
   57.5120   32.0800   43.1210 O   0  0  0  0  0  0  0  0  0  0  0  0
   58.0770   32.8450   45.2990 C   0  0  0  0  0  0  0  0  0  0  0  0
   58.5470   34.0230   44.8510 C   0  0  0  0  0  0  0  0  0  0  0  0
   59.2160   34.9780   45.7520 C   0  0  0  0  0  0  0  0  0  0  0  0
   59.6510   36.0670   45.2910 O   0  0  0  0  0  0  0  0  0  0  0  0
   59.3350   34.6910   47.2210 C   0  0  0  0  0  0  0  0  0  0  0  0
   59.3430   33.1670   47.5050 C   0  0  0  0  0  0  0  0  0  0  0  0
   60.6740   32.5380   47.0350 C   0  0  0  0  0  0  0  0  0  0  0  0
   59.2020   32.9380   49.0230 C   0  0  0  0  0  0  0  0  0  0  0  0
   58.1450   32.5000   46.7760 C   0  0  0  0  0  0  0  0  0  0  0  0
   56.1219   28.8583   44.7824 H   0  0  0  0  0  0  0  0  0  0  0  0
   55.4506   29.8831   43.4687 H   0  0  0  0  0  0  0  0  0  0  0  0
   57.1941   29.4510   43.4687 H   0  0  0  0  0  0  0  0  0  0  0  0
   58.4293   34.2793   43.7878 H   0  0  0  0  0  0  0  0  0  0  0  0
   60.2719   35.1290   47.5957 H   0  0  0  0  0  0  0  0  0  0  0  0
   58.4648   35.1316   47.7296 H   0  0  0  0  0  0  0  0  0  0  0  0
   61.2750   32.2540   47.9114 H   0  0  0  0  0  0  0  0  0  0  0  0
   60.4635   31.6441   46.4295 H   0  0  0  0  0  0  0  0  0  0  0  0
   61.2310   33.2682   46.4295 H   0  0  0  0  0  0  0  0  0  0  0  0
   59.7039   33.7531   49.5650 H   0  0  0  0  0  0  0  0  0  0  0  0
   58.1360   32.9196   49.2936 H   0  0  0  0  0  0  0  0  0  0  0  0
   59.6656   31.9778   49.2936 H   0  0  0  0  0  0  0  0  0  0  0  0
   58.2384   31.4086   46.8762 H   0  0  0  0  0  0  0  0  0  0  0  0
   57.2248   32.8804   47.2434 H   0  0  0  0  0  0  0  0  0  0  0  0
  1  2  1  0
  2  3  1  0
  3  4  2  0
  3  5  1  0
  5  6  2  0
  6  7  1  0
  7  8  2  0
  7  9  1  0
  9 10  1  0
 10 11  1  0
 10 12  1  0
 10 13  1  0
 13  5  1  0
  1 14  1  0
  1 15  1  0
  1 16  1  0
  6 17  1  0
  9 18  1  0
  9 19  1  0
 11 20  1  0
 11 21  1  0
 11 22  1  0
 12 23  1  0
 12 24  1  0
 12 25  1  0
 13 26  1  0
 13 27  1  0
M  END
>  <UniqueID>  (15) 
15

>  <SMILES>  (15) 
COC(=O)C1=CC(=O)CC(C)(C)C1

>  <Energy>  (15) 
19.191011351101338

>  <Genealogy>  (15) 
COC(=O)C1=CC(=O)CC(C)(C)C1 (3D coordinates assigned)
COC(=O)C1=CC(=O)CC(C)(C)C1 (nonaromatic ring conformer: 19.191011351101338 kcal/mol)

>  <smiles>  (15) 
COC(=O)C1=CC(=O)CC(C)(C)C1

>  <score_type>  (15) 
oracle

>  <origin>  (15) 
adg

>  <m_score__min__energy>  (15) 
-5.71

>  <m_primary>  (15) 
energy

$$$$
15:0
     RDKit          3D

 41 43  0  0  0  0  0  0  0  0999 V2000
   63.3950   34.1920   46.3520 C   0  0  0  0  0  0  0  0  0  0  0  0
   62.8620   33.2120   46.8100 C   0  0  0  0  0  0  0  0  0  0  0  0
   62.2040   32.0170   47.3720 C   0  0  0  0  0  0  0  0  0  0  0  0
   61.0020   32.2990   48.2030 N   0  0  1  0  0  0  0  0  0  0  0  0
   61.1410   33.4090   49.1610 C   0  0  0  0  0  0  0  0  0  0  0  0
   59.7250   33.7910   49.5860 C   0  0  0  0  0  0  0  0  0  0  0  0
   58.7930   33.0670   48.6170 C   0  0  0  0  0  0  0  0  0  0  0  0
   59.7070   32.5230   47.4960 C   0  0  1  0  0  0  0  0  0  0  0  0
   59.8450   33.5760   46.3530 C   0  0  0  0  0  0  0  0  0  0  0  0
   58.5170   33.9190   45.6480 C   0  0  0  0  0  0  0  0  0  0  0  0
   57.4630   32.7940   45.6590 C   0  0  0  0  0  0  0  0  0  0  0  0
   58.0220   31.4150   45.9410 C   0  0  0  0  0  0  0  0  0  0  0  0
   57.4020   30.2840   45.3620 C   0  0  0  0  0  0  0  0  0  0  0  0
   56.3120   30.4690   44.4950 O   0  0  0  0  0  0  0  0  0  0  0  0
   56.2800   30.0570   43.1310 C   0  0  0  0  0  0  0  0  0  0  0  0
   57.8820   29.0000   45.6690 C   0  0  0  0  0  0  0  0  0  0  0  0
   58.9430   28.8380   46.5520 C   0  0  0  0  0  0  0  0  0  0  0  0
   59.5410   29.9450   47.1490 C   0  0  0  0  0  0  0  0  0  0  0  0
   59.0920   31.2560   46.8620 C   0  0  0  0  0  0  0  0  0  0  0  0
   63.8812   35.0859   45.9342 H   0  0  0  0  0  0  0  0  0  0  0  0
   61.8983   31.3700   46.5366 H   0  0  0  0  0  0  0  0  0  0  0  0
   62.9387   31.5446   48.0406 H   0  0  0  0  0  0  0  0  0  0  0  0
   60.8860   31.4700   48.8300 H   0  0  0  0  0  0  0  0  0  0  0  0
   61.7265   33.0866   50.0346 H   0  0  0  0  0  0  0  0  0  0  0  0
   61.6658   34.2632   48.7084 H   0  0  0  0  0  0  0  0  0  0  0  0
   59.5333   33.4644   50.6187 H   0  0  0  0  0  0  0  0  0  0  0  0
   59.5728   34.8801   49.5583 H   0  0  0  0  0  0  0  0  0  0  0  0
   58.2753   32.2407   49.1261 H   0  0  0  0  0  0  0  0  0  0  0  0
   58.0150   33.7364   48.2212 H   0  0  0  0  0  0  0  0  0  0  0  0
   60.2563   34.5009   46.7835 H   0  0  0  0  0  0  0  0  0  0  0  0
   60.5028   33.1322   45.5911 H   0  0  0  0  0  0  0  0  0  0  0  0
   58.0830   34.7979   46.1471 H   0  0  0  0  0  0  0  0  0  0  0  0
   58.7669   34.0953   44.5914 H   0  0  0  0  0  0  0  0  0  0  0  0
   56.7181   33.0282   46.4337 H   0  0  0  0  0  0  0  0  0  0  0  0
   57.0329   32.7572   44.6473 H   0  0  0  0  0  0  0  0  0  0  0  0
   56.1949   28.9614   43.0808 H   0  0  0  0  0  0  0  0  0  0  0  0
   55.4147   30.5153   42.6297 H   0  0  0  0  0  0  0  0  0  0  0  0
   57.2056   30.3762   42.6297 H   0  0  0  0  0  0  0  0  0  0  0  0
   57.4152   28.1172   45.2077 H   0  0  0  0  0  0  0  0  0  0  0  0
   59.3132   27.8278   46.7810 H   0  0  0  0  0  0  0  0  0  0  0  0
   60.3734   29.7984   47.8530 H   0  0  0  0  0  0  0  0  0  0  0  0
  1  2  3  0
  2  3  1  0
  3  4  1  0
  4  5  1  0
  5  6  1  0
  6  7  1  0
  8  7  1  1
  8  9  1  0
  9 10  1  0
 10 11  1  0
 11 12  1  0
 12 13  2  0
 13 14  1  0
 14 15  1  0
 13 16  1  0
 16 17  2  0
 17 18  1  0
 18 19  2  0
  8  4  1  0
 19 12  1  0
 19  8  1  0
  1 20  1  0
  3 21  1  0
  3 22  1  0
  4 23  1  1
  5 24  1  0
  5 25  1  0
  6 26  1  0
  6 27  1  0
  7 28  1  0
  7 29  1  0
  9 30  1  0
  9 31  1  0
 10 32  1  0
 10 33  1  0
 11 34  1  0
 11 35  1  0
 15 36  1  0
 15 37  1  0
 15 38  1  0
 16 39  1  0
 17 40  1  0
 18 41  1  0
M  CHG  1   4   1
M  END
>  <UniqueID>  (16) 
16

>  <SMILES>  (16) 
C#CC[N@H+]1CCC[C@@]12CCCc1c(OC)cccc12

>  <Energy>  (16) 
67.69032390839364

>  <Genealogy>  (16) 
C#CC[NH+]1CCCC12CCCc1c(OC)cccc12 (protonated)
C#CC[N@H+]1CCC[C@@]12CCCc1c(OC)cccc12 (chirality)
C#CC[N@H+]1CCC[C@@]12CCCc1c(OC)cccc12 (3D coordinates assigned)
C#CC[N@H+]1CCC[C@@]12CCCc1c(OC)cccc12 (nonaromatic ring conformer: 67.69032390839364 kcal/mol)

>  <smiles>  (16) 
C#CCN1CCCC12CCCc1c(OC)cccc12

>  <score_type>  (16) 
oracle

>  <origin>  (16) 
adg

>  <m_score__min__energy>  (16) 
-5.7199999999999998

>  <m_primary>  (16) 
energy

$$$$
16:0
     RDKit          3D

 42 44  0  0  0  0  0  0  0  0999 V2000
   67.5410   27.3150   50.3810 C   0  0  0  0  0  0  0  0  0  0  0  0
   66.8650   27.8440   51.6380 C   0  0  0  0  0  0  0  0  0  0  0  0
   66.3880   29.2060   51.4180 N   0  0  0  0  0  0  0  0  0  0  0  0
   67.1350   30.2560   51.0250 C   0  0  0  0  0  0  0  0  0  0  0  0
   66.3040   31.3500   50.8790 C   0  0  0  0  0  0  0  0  0  0  0  0
   66.8620   33.1380   50.4920 Br  0  0  0  0  0  0  0  0  0  0  0  0
   65.0340   30.8840   51.1910 C   0  0  0  0  0  0  0  0  0  0  0  0
   63.7820   31.6580   51.2310 C   0  0  0  0  0  0  0  0  0  0  0  0
   62.9970   31.5030   52.2030 O   0  0  0  0  0  0  0  0  0  0  0  0
   63.4320   32.5620   50.1720 N   0  0  0  0  0  0  0  0  0  0  0  0
   62.9630   33.9170   50.4910 C   0  0  0  0  0  0  0  0  0  0  0  0
   61.6480   34.2100   49.7580 C   0  0  0  0  0  0  0  0  0  0  0  0
   61.6890   33.7460   48.3620 N   0  0  0  0  0  0  0  0  0  0  0  0
   60.4930   33.8020   47.5600 C   0  0  0  0  0  0  0  0  0  0  0  0
   59.3300   33.1280   47.9700 C   0  0  0  0  0  0  0  0  0  0  0  0
   58.1660   33.1930   47.1980 C   0  0  0  0  0  0  0  0  0  0  0  0
   58.1530   33.9320   46.0120 C   0  0  0  0  0  0  0  0  0  0  0  0
   59.3020   34.6110   45.5990 C   0  0  0  0  0  0  0  0  0  0  0  0
   60.4690   34.5490   46.3690 C   0  0  0  0  0  0  0  0  0  0  0  0
   62.9210   33.1570   47.8240 C   0  0  0  0  0  0  0  0  0  0  0  0
   63.4340   32.0810   48.7820 C   0  0  0  0  0  0  0  0  0  0  0  0
   65.1220   29.5800   51.5190 N   0  0  0  0  0  0  0  0  0  0  0  0
   68.3783   26.6598   50.6631 H   0  0  0  0  0  0  0  0  0  0  0  0
   66.8131   26.7442   49.7858 H   0  0  0  0  0  0  0  0  0  0  0  0
   67.9201   28.1588   49.7858 H   0  0  0  0  0  0  0  0  0  0  0  0
   66.0125   27.1969   51.8920 H   0  0  0  0  0  0  0  0  0  0  0  0
   67.5926   27.8471   52.4630 H   0  0  0  0  0  0  0  0  0  0  0  0
   68.2210   30.2443   50.8502 H   0  0  0  0  0  0  0  0  0  0  0  0
   62.8001   33.9989   51.5758 H   0  0  0  0  0  0  0  0  0  0  0  0
   63.7227   34.6443   50.1687 H   0  0  0  0  0  0  0  0  0  0  0  0
   60.8267   33.6974   50.2802 H   0  0  0  0  0  0  0  0  0  0  0  0
   61.4928   35.2990   49.7534 H   0  0  0  0  0  0  0  0  0  0  0  0
   59.3354   32.5461   48.9034 H   0  0  0  0  0  0  0  0  0  0  0  0
   57.2597   32.6620   47.5245 H   0  0  0  0  0  0  0  0  0  0  0  0
   57.2379   33.9791   45.4035 H   0  0  0  0  0  0  0  0  0  0  0  0
   59.2894   35.1953   44.6671 H   0  0  0  0  0  0  0  0  0  0  0  0
   61.3709   35.0867   46.0412 H   0  0  0  0  0  0  0  0  0  0  0  0
   62.7130   32.7051   46.8429 H   0  0  0  0  0  0  0  0  0  0  0  0
   63.6837   33.9418   47.7127 H   0  0  0  0  0  0  0  0  0  0  0  0
   62.7855   31.1956   48.7077 H   0  0  0  0  0  0  0  0  0  0  0  0
   64.4675   31.8292   48.5019 H   0  0  0  0  0  0  0  0  0  0  0  0
   64.3330   28.9530   51.7980 H   0  0  0  0  0  0  0  0  0  0  0  0
  1  2  1  0
  2  3  1  0
  3  4  1  0
  4  5  2  0
  5  6  1  0
  5  7  1  0
  7  8  1  0
  8  9  2  0
  8 10  1  0
 10 11  1  0
 11 12  1  0
 12 13  1  0
 13 14  1  0
 14 15  2  0
 15 16  1  0
 16 17  2  0
 17 18  1  0
 18 19  2  0
 13 20  1  0
 20 21  1  0
  7 22  2  0
 22  3  1  0
 21 10  1  0
 19 14  1  0
  1 23  1  0
  1 24  1  0
  1 25  1  0
  2 26  1  0
  2 27  1  0
  4 28  1  0
 11 29  1  0
 11 30  1  0
 12 31  1  0
 12 32  1  0
 15 33  1  0
 16 34  1  0
 17 35  1  0
 18 36  1  0
 19 37  1  0
 20 38  1  0
 20 39  1  0
 21 40  1  0
 21 41  1  0
 22 42  1  0
M  CHG  1  22   1
M  END
>  <UniqueID>  (17) 
17

>  <SMILES>  (17) 
CCn1cc(Br)c(C(=O)N2CCN(c3ccccc3)CC2)[nH+]1

>  <Energy>  (17) 
79.8787612685544

>  <Genealogy>  (17) 
CCn1cc(Br)c(C(=O)N2CCN(c3ccccc3)CC2)[nH+]1 (protonated)
CCn1cc(Br)c(C(=O)N2CCN(c3ccccc3)CC2)[nH+]1 (3D coordinates assigned)
CCn1cc(Br)c(C(=O)N2CCN(c3ccccc3)CC2)[nH+]1 (nonaromatic ring conformer: 79.8787612685544 kcal/mol)

>  <smiles>  (17) 
CCn1cc(Br)c(C(=O)N2CCN(c3ccccc3)CC2)n1

>  <score_type>  (17) 
oracle

>  <origin>  (17) 
adg

>  <m_score__min__energy>  (17) 
-5.7599999999999998

>  <m_primary>  (17) 
energy

$$$$
17:0
     RDKit          3D

 37 39  0  0  0  0  0  0  0  0999 V2000
   59.8990   28.2850   44.8740 C   0  0  0  0  0  0  0  0  0  0  0  0
   58.6710   27.3990   44.6850 C   0  0  0  0  0  0  0  0  0  0  0  0
   57.3850   28.1620   45.0140 C   0  0  0  0  0  0  0  0  0  0  0  0
   57.2130   29.3220   44.0820 C   0  0  0  0  0  0  0  0  0  0  0  0
   56.6360   29.2610   42.8610 N   0  0  0  0  0  0  0  0  0  0  0  0
   56.7360   30.4560   42.2820 N   0  0  0  0  0  0  0  0  0  0  0  0
   57.3860   31.2300   43.1740 C   0  0  0  0  0  0  0  0  0  0  0  0
   57.7630   32.5570   43.0340 C   0  0  0  0  0  0  0  0  0  0  0  0
   58.4700   33.1360   44.1000 C   0  0  0  0  0  0  0  0  0  0  0  0
   58.7700   32.3710   45.2590 C   0  0  0  0  0  0  0  0  0  0  0  0
   59.5270   32.9420   46.4020 C   0  0  0  0  0  0  0  0  0  0  0  0
   58.9960   34.0310   47.1180 C   0  0  0  0  0  0  0  0  0  0  0  0
   59.6950   34.5860   48.1930 C   0  0  0  0  0  0  0  0  0  0  0  0
   60.9470   34.0690   48.5690 C   0  0  0  0  0  0  0  0  0  0  0  0
   61.6880   34.5920   49.6400 O   0  0  0  0  0  0  0  0  0  0  0  0
   62.9850   34.1400   50.0160 C   0  0  0  0  0  0  0  0  0  0  0  0
   61.4830   32.9940   47.8520 C   0  0  0  0  0  0  0  0  0  0  0  0
   60.7860   32.4360   46.7770 C   0  0  0  0  0  0  0  0  0  0  0  0
   58.3680   31.0650   45.3090 N   0  0  0  0  0  0  0  0  0  0  0  0
   57.6940   30.5550   44.2820 N   0  0  0  0  0  0  0  0  0  0  0  0
   60.0899   28.4227   45.9485 H   0  0  0  0  0  0  0  0  0  0  0  0
   60.7717   27.8071   44.4049 H   0  0  0  0  0  0  0  0  0  0  0  0
   59.7206   29.2638   44.4049 H   0  0  0  0  0  0  0  0  0  0  0  0
   58.6301   27.0600   43.6394 H   0  0  0  0  0  0  0  0  0  0  0  0
   58.7517   26.5398   45.3671 H   0  0  0  0  0  0  0  0  0  0  0  0
   56.5249   27.4840   44.9113 H   0  0  0  0  0  0  0  0  0  0  0  0
   57.4479   28.5393   46.0454 H   0  0  0  0  0  0  0  0  0  0  0  0
   56.1950   28.4240   42.4190 H   0  0  0  0  0  0  0  0  0  0  0  0
   57.5190   33.1308   42.1278 H   0  0  0  0  0  0  0  0  0  0  0  0
   58.7928   34.1857   44.0376 H   0  0  0  0  0  0  0  0  0  0  0  0
   58.0208   34.4495   46.8284 H   0  0  0  0  0  0  0  0  0  0  0  0
   59.2633   35.4319   48.7480 H   0  0  0  0  0  0  0  0  0  0  0  0
   63.0604   34.1137   51.1131 H   0  0  0  0  0  0  0  0  0  0  0  0
   63.1527   33.1304   49.6127 H   0  0  0  0  0  0  0  0  0  0  0  0
   63.7438   34.8267   49.6127 H   0  0  0  0  0  0  0  0  0  0  0  0
   62.4630   32.5838   48.1373 H   0  0  0  0  0  0  0  0  0  0  0  0
   61.2244   31.5951   46.2196 H   0  0  0  0  0  0  0  0  0  0  0  0
  1  2  1  0
  2  3  1  0
  3  4  1  0
  4  5  2  0
  5  6  1  0
  6  7  2  0
  7  8  1  0
  8  9  2  0
  9 10  1  0
 10 11  1  0
 11 12  2  0
 12 13  1  0
 13 14  2  0
 14 15  1  0
 15 16  1  0
 14 17  1  0
 17 18  2  0
 10 19  2  0
 19 20  1  0
 20  4  1  0
 20  7  1  0
 18 11  1  0
  1 21  1  0
  1 22  1  0
  1 23  1  0
  2 24  1  0
  2 25  1  0
  3 26  1  0
  3 27  1  0
  5 28  1  0
  8 29  1  0
  9 30  1  0
 12 31  1  0
 13 32  1  0
 16 33  1  0
 16 34  1  0
 16 35  1  0
 17 36  1  0
 18 37  1  0
M  CHG  1   5   1
M  END
>  <UniqueID>  (18) 
18

>  <SMILES>  (18) 
CCCc1[nH+]nc2ccc(-c3ccc(OC)cc3)nn12

>  <Energy>  (18) 
79.61907136761867

>  <Genealogy>  (18) 
CCCc1[nH+]nc2ccc(-c3ccc(OC)cc3)nn12 (protonated)
CCCc1[nH+]nc2ccc(-c3ccc(OC)cc3)nn12 (3D coordinates assigned)
CCCc1[nH+]nc2ccc(-c3ccc(OC)cc3)nn12 (optimized conformer: 79.61907136761867 kcal/mol)

>  <smiles>  (18) 
CCCc1nnc2ccc(-c3ccc(OC)cc3)nn12

>  <score_type>  (18) 
oracle

>  <origin>  (18) 
adg

>  <m_score__min__energy>  (18) 
-5.54

>  <m_primary>  (18) 
energy

$$$$
18:0
     RDKit          3D

 36 38  0  0  0  0  0  0  0  0999 V2000
   55.0450   29.7140   42.6180 H   0  0  0  0  0  0  0  0  0  0  0  0
   55.1610   30.0870   43.5870 N   0  0  0  0  0  0  0  0  0  0  0  0
   56.2710   29.9670   44.2430 C   0  0  0  0  0  0  0  0  0  0  0  0
   56.7820   28.7300   44.4650 N   0  0  0  0  0  0  0  0  0  0  0  0
   57.9470   28.5470   45.1410 C   0  0  0  0  0  0  0  0  0  0  0  0
   58.4540   27.1680   45.3590 C   0  0  0  0  0  0  0  0  0  0  0  0
   59.6840   26.9320   46.0040 C   0  0  0  0  0  0  0  0  0  0  0  0
   60.2843   27.7815   46.3618 H   0  0  0  0  0  0  0  0  0  0  0  0
   60.1480   25.6260   46.1930 C   0  0  0  0  0  0  0  0  0  0  0  0
   61.1080   25.4548   46.7020 H   0  0  0  0  0  0  0  0  0  0  0  0
   59.3940   24.5310   45.7360 C   0  0  0  0  0  0  0  0  0  0  0  0
   59.8160   23.2030   45.9040 O   0  0  0  0  0  0  0  0  0  0  0  0
   59.7860   22.2140   44.8800 C   0  0  0  0  0  0  0  0  0  0  0  0
   59.7557   21.2139   45.3370 H   0  0  0  0  0  0  0  0  0  0  0  0
   58.8918   22.3593   44.2560 H   0  0  0  0  0  0  0  0  0  0  0  0
   60.6873   22.3048   44.2560 H   0  0  0  0  0  0  0  0  0  0  0  0
   58.1780   24.7640   45.0860 C   0  0  0  0  0  0  0  0  0  0  0  0
   57.5829   23.9136   44.7218 H   0  0  0  0  0  0  0  0  0  0  0  0
   57.7120   26.0680   44.8950 C   0  0  0  0  0  0  0  0  0  0  0  0
   56.7561   26.2348   44.3769 H   0  0  0  0  0  0  0  0  0  0  0  0
   58.6280   29.6710   45.6330 C   0  0  0  0  0  0  0  0  0  0  0  0
   59.5659   29.5518   46.1952 H   0  0  0  0  0  0  0  0  0  0  0  0
   58.0980   30.9480   45.3990 C   0  0  0  0  0  0  0  0  0  0  0  0
   58.7930   32.1560   45.9130 C   0  0  0  0  0  0  0  0  0  0  0  0
   58.1370   33.4000   45.9290 C   0  0  0  0  0  0  0  0  0  0  0  0
   57.1039   33.4783   45.5596 H   0  0  0  0  0  0  0  0  0  0  0  0
   58.7910   34.5380   46.4120 C   0  0  0  0  0  0  0  0  0  0  0  0
   58.2708   35.5072   46.4215 H   0  0  0  0  0  0  0  0  0  0  0  0
   60.1020   34.4470   46.8820 C   0  0  0  0  0  0  0  0  0  0  0  0
   60.6132   35.3440   47.2614 H   0  0  0  0  0  0  0  0  0  0  0  0
   60.7660   33.2170   46.8710 C   0  0  0  0  0  0  0  0  0  0  0  0
   62.5620   33.0950   47.5080 Br  0  0  0  0  0  0  0  0  0  0  0  0
   60.1150   32.0750   46.3880 C   0  0  0  0  0  0  0  0  0  0  0  0
   60.6404   31.1086   46.3799 H   0  0  0  0  0  0  0  0  0  0  0  0
   56.9280   31.0680   44.7050 N   0  0  0  0  0  0  0  0  0  0  0  0
   56.5380   32.0180   44.5070 H   0  0  0  0  0  0  0  0  0  0  0  0
  1  2  1  0
  2  3  2  0
  3  4  1  0
  4  5  2  0
  5  6  1  0
  6  7  2  0
  7  8  1  0
  7  9  1  0
  9 10  1  0
  9 11  2  0
 11 12  1  0
 12 13  1  0
 13 14  1  0
 13 15  1  0
 13 16  1  0
 11 17  1  0
 17 18  1  0
 17 19  2  0
 19 20  1  0
  5 21  1  0
 21 22  1  0
 21 23  2  0
 23 24  1  0
 24 25  2  0
 25 26  1  0
 25 27  1  0
 27 28  1  0
 27 29  2  0
 29 30  1  0
 29 31  1  0
 31 32  1  0
 31 33  2  0
 33 34  1  0
 23 35  1  0
 35 36  1  0
 35  3  1  0
 19  6  1  0
 33 24  1  0
M  END
>  <UniqueID>  (19) 
19

>  <SMILES>  (19) 
[H]/N=c1/nc(-c2ccc(OC)cc2)cc(-c2cccc(Br)c2)[nH]1

>  <Energy>  (19) 
47.28559204302048

>  <Genealogy>  (19) 
[H]/N=c1/nc(-c2ccc(OC)cc2)cc(-c2cccc(Br)c2)[nH]1 (cis-trans isomerization)
[H]/N=c1/nc(-c2ccc(OC)cc2)cc(-c2cccc(Br)c2)[nH]1 (3D coordinates assigned)
[H]/N=c1/nc(-c2ccc(OC)cc2)cc(-c2cccc(Br)c2)[nH]1 (optimized conformer: 47.28559204302048 kcal/mol)

>  <smiles>  (19) 
COc1ccc(-c2cc(-c3cccc(Br)c3)[nH]c(=N)n2)cc1

>  <score_type>  (19) 
oracle

>  <origin>  (19) 
adg

>  <m_score__min__energy>  (19) 
-7.4500000000000002

>  <m_primary>  (19) 
energy

$$$$
19:0
     RDKit          3D

 41 43  0  0  0  0  0  0  0  0999 V2000
   58.5730   32.0720   48.9710 C   0  0  0  0  0  0  0  0  0  0  0  0
   57.7820   32.6270   47.9250 O   0  0  0  0  0  0  0  0  0  0  0  0
   58.2680   33.4870   46.9280 C   0  0  0  0  0  0  0  0  0  0  0  0
   59.2200   34.4890   47.2100 C   0  0  0  0  0  0  0  0  0  0  0  0
   59.7210   35.2940   46.1850 C   0  0  0  0  0  0  0  0  0  0  0  0
   59.2860   35.1090   44.8720 C   0  0  0  0  0  0  0  0  0  0  0  0
   58.3390   34.1260   44.5820 C   0  0  0  0  0  0  0  0  0  0  0  0
   57.8070   33.3300   45.6030 C   0  0  0  0  0  0  0  0  0  0  0  0
   56.8510   32.3610   45.2640 O   0  0  0  0  0  0  0  0  0  0  0  0
   57.1430   31.0650   44.8140 C   0  0  0  0  0  0  0  0  0  0  0  0
   56.7120   30.6840   43.5250 C   0  0  0  0  0  0  0  0  0  0  0  0
   56.9770   29.3920   43.0340 C   0  0  0  0  0  0  0  0  0  0  0  0
   57.6610   28.4970   43.8550 C   0  0  0  0  0  0  0  0  0  0  0  0
   58.0670   28.8600   45.1050 C   0  0  0  0  0  0  0  0  0  0  0  0
   57.8220   30.1280   45.6270 C   0  0  0  0  0  0  0  0  0  0  0  0
   58.7200   27.7190   45.6860 C   0  0  0  0  0  0  0  0  0  0  0  0
   59.2910   27.7210   46.8100 O   0  0  0  0  0  0  0  0  0  0  0  0
   58.6960   26.5770   44.8110 N   0  0  1  0  0  0  0  0  0  0  0  0
   57.9830   25.4190   45.4030 C   0  0  0  0  0  0  0  0  0  0  0  0
   56.9740   25.7680   46.5270 C   0  0  0  0  0  0  0  0  0  0  0  0
   55.6650   26.2640   45.9890 C   0  0  0  0  0  0  0  0  0  0  0  0
   55.5410   27.4610   45.6220 O   0  0  0  0  0  0  0  0  0  0  0  0
   54.5830   25.3980   45.8860 O   0  0  0  0  0  0  0  0  0  0  0  0
   58.0650   27.0860   43.5580 C   0  0  0  0  0  0  0  0  0  0  0  0
   58.1531   32.3666   49.9441 H   0  0  0  0  0  0  0  0  0  0  0  0
   58.5726   30.9751   48.8885 H   0  0  0  0  0  0  0  0  0  0  0  0
   59.6043   32.4455   48.8885 H   0  0  0  0  0  0  0  0  0  0  0  0
   59.5694   34.6369   48.2425 H   0  0  0  0  0  0  0  0  0  0  0  0
   60.4604   36.0759   46.4130 H   0  0  0  0  0  0  0  0  0  0  0  0
   59.6898   35.7384   44.0653 H   0  0  0  0  0  0  0  0  0  0  0  0
   58.0083   33.9756   43.5437 H   0  0  0  0  0  0  0  0  0  0  0  0
   56.1641   31.4034   42.8987 H   0  0  0  0  0  0  0  0  0  0  0  0
   56.6519   29.0954   42.0259 H   0  0  0  0  0  0  0  0  0  0  0  0
   58.1477   30.3932   46.6436 H   0  0  0  0  0  0  0  0  0  0  0  0
   59.6850   26.2970   44.6090 H   0  0  0  0  0  0  0  0  0  0  0  0
   57.4325   24.9106   44.5977 H   0  0  0  0  0  0  0  0  0  0  0  0
   58.7561   24.7921   45.8713 H   0  0  0  0  0  0  0  0  0  0  0  0
   56.7893   24.8655   47.1281 H   0  0  0  0  0  0  0  0  0  0  0  0
   57.4137   26.5740   47.1328 H   0  0  0  0  0  0  0  0  0  0  0  0
   58.7854   27.0597   42.7272 H   0  0  0  0  0  0  0  0  0  0  0  0
   57.2042   26.4710   43.2569 H   0  0  0  0  0  0  0  0  0  0  0  0
  1  2  1  0
  2  3  1  0
  3  4  2  0
  4  5  1  0
  5  6  2  0
  6  7  1  0
  7  8  2  0
  8  9  1  0
  9 10  1  0
 10 11  2  0
 11 12  1  0
 12 13  2  0
 13 14  1  0
 14 15  2  0
 14 16  1  0
 16 17  2  0
 16 18  1  0
 18 19  1  0
 19 20  1  0
 20 21  1  0
 21 22  2  0
 21 23  1  0
 18 24  1  0
  8  3  1  0
 15 10  1  0
 24 13  1  0
  1 25  1  0
  1 26  1  0
  1 27  1  0
  4 28  1  0
  5 29  1  0
  6 30  1  0
  7 31  1  0
 11 32  1  0
 12 33  1  0
 15 34  1  0
 18 35  1  6
 19 36  1  0
 19 37  1  0
 20 38  1  0
 20 39  1  0
 24 40  1  0
 24 41  1  0
M  CHG  2  18   1  23  -1
M  END
>  <UniqueID>  (20) 
20

>  <SMILES>  (20) 
COc1ccccc1Oc1ccc2c(c1)C(=O)[N@@H+](CCC(=O)[O-])C2

>  <Energy>  (20) 
69.99171898077101

>  <Genealogy>  (20) 
COc1ccccc1Oc1ccc2c(c1)C(=O)[NH+](CCC(=O)[O-])C2 (protonated)
COc1ccccc1Oc1ccc2c(c1)C(=O)[N@@H+](CCC(=O)[O-])C2 (chirality)
COc1ccccc1Oc1ccc2c(c1)C(=O)[N@@H+](CCC(=O)[O-])C2 (3D coordinates assigned)
COc1ccccc1Oc1ccc2c(c1)C(=O)[N@@H+](CCC(=O)[O-])C2 (nonaromatic ring conformer: 69.99171898077101 kcal/mol)

>  <smiles>  (20) 
COc1ccccc1Oc1ccc2c(c1)C(=O)N(CCC(=O)O)C2

>  <score_type>  (20) 
oracle

>  <origin>  (20) 
adg

>  <m_score__min__energy>  (20) 
-9.2400000000000002

>  <m_primary>  (20) 
energy

$$$$
20:0
     RDKit          3D

 23 25  0  0  0  0  0  0  0  0999 V2000
   59.1780   31.3820   48.0590 C   0  0  0  0  0  0  0  0  0  0  0  0
   58.5490   31.7280   46.7400 C   0  0  0  0  0  0  0  0  0  0  0  0
   58.6130   33.0370   46.2310 C   0  0  0  0  0  0  0  0  0  0  0  0
   57.9980   33.3190   44.9990 C   0  0  0  0  0  0  0  0  0  0  0  0
   58.0480   34.4840   44.5230 O   0  0  0  0  0  0  0  0  0  0  0  0
   57.3480   32.3380   44.3150 N   0  0  0  0  0  0  0  0  0  0  0  0
   57.3000   31.0880   44.8350 C   0  0  0  0  0  0  0  0  0  0  0  0
   56.5470   29.7540   44.1490 S   0  0  0  0  0  0  0  0  0  0  0  0
   57.0240   28.8000   45.4690 C   0  0  0  0  0  0  0  0  0  0  0  0
   56.7140   27.3760   45.6210 C   0  0  0  0  0  0  0  0  0  0  0  0
   57.6020   26.3320   45.4540 C   0  0  0  0  0  0  0  0  0  0  0  0
   56.8760   25.1850   45.6940 C   0  0  0  0  0  0  0  0  0  0  0  0
   55.5930   25.6000   45.9910 C   0  0  0  0  0  0  0  0  0  0  0  0
   55.5280   26.9110   45.9390 O   0  0  0  0  0  0  0  0  0  0  0  0
   57.7320   29.5140   46.3790 N   0  0  0  0  0  0  0  0  0  0  0  0
   57.8810   30.7870   46.0160 N   0  0  0  0  0  0  0  0  0  0  0  0
   58.5335   31.7366   48.8768 H   0  0  0  0  0  0  0  0  0  0  0  0
   59.2978   30.2911   48.1332 H   0  0  0  0  0  0  0  0  0  0  0  0
   60.1635   31.8649   48.1332 H   0  0  0  0  0  0  0  0  0  0  0  0
   59.1362   33.8281   46.7882 H   0  0  0  0  0  0  0  0  0  0  0  0
   58.6665   26.4011   45.1855 H   0  0  0  0  0  0  0  0  0  0  0  0
   57.2442   24.1491   45.6565 H   0  0  0  0  0  0  0  0  0  0  0  0
   54.7524   24.9336   46.2344 H   0  0  0  0  0  0  0  0  0  0  0  0
  1  2  1  0
  2  3  2  0
  3  4  1  0
  4  5  2  0
  4  6  1  0
  6  7  2  0
  7  8  1  0
  8  9  1  0
  9 10  1  0
 10 11  2  0
 11 12  1  0
 12 13  2  0
 13 14  1  0
  9 15  2  0
 15 16  1  0
 16  2  1  0
 16  7  1  0
 14 10  1  0
  1 17  1  0
  1 18  1  0
  1 19  1  0
  3 20  1  0
 11 21  1  0
 12 22  1  0
 13 23  1  0
M  END
>  <UniqueID>  (21) 
21

>  <SMILES>  (21) 
Cc1cc(=O)nc2sc(-c3ccco3)nn12

>  <Energy>  (21) 
87.89370318715258

>  <Genealogy>  (21) 
Cc1cc(=O)nc2sc(-c3ccco3)nn12 (3D coordinates assigned)
Cc1cc(=O)nc2sc(-c3ccco3)nn12 (optimized conformer: 87.89370318715258 kcal/mol)

>  <smiles>  (21) 
Cc1cc(=O)nc2sc(-c3ccco3)nn12

>  <score_type>  (21) 
oracle

>  <origin>  (21) 
adg

>  <m_score__min__energy>  (21) 
-5.9699999999999998

>  <m_primary>  (21) 
energy

$$$$
21:0
     RDKit          3D

 37 38  0  0  0  0  0  0  0  0999 V2000
   59.2985   33.8887   47.6244 H   0  0  0  0  0  0  0  0  0  0  0  0
   58.9260   33.5660   46.6410 C   0  0  0  0  0  0  0  0  0  0  0  0
   59.2090   34.3250   45.5040 C   0  0  0  0  0  0  0  0  0  0  0  0
   59.8111   35.2414   45.5917 H   0  0  0  0  0  0  0  0  0  0  0  0
   58.7290   33.9230   44.2550 C   0  0  0  0  0  0  0  0  0  0  0  0
   58.9522   34.5263   43.3627 H   0  0  0  0  0  0  0  0  0  0  0  0
   57.9600   32.7480   44.1330 C   0  0  0  0  0  0  0  0  0  0  0  0
   57.4320   32.3280   42.9010 O   0  0  0  0  0  0  0  0  0  0  0  0
   58.1440   32.3450   41.6690 C   0  0  0  0  0  0  0  0  0  0  0  0
   59.2251   32.3708   41.8706 H   0  0  0  0  0  0  0  0  0  0  0  0
   57.9001   31.4408   41.0920 H   0  0  0  0  0  0  0  0  0  0  0  0
   57.8572   33.2366   41.0920 H   0  0  0  0  0  0  0  0  0  0  0  0
   57.7020   31.9750   45.2800 C   0  0  0  0  0  0  0  0  0  0  0  0
   56.9210   30.7760   45.1940 N   0  0  0  0  0  0  0  0  0  0  0  0
   57.4000   29.5820   44.9850 C   0  0  0  0  0  0  0  0  0  0  0  0
   57.2660   28.9020   43.6360 C   0  0  0  0  0  0  0  0  0  0  0  0
   56.2104   28.6281   43.4924 H   0  0  0  0  0  0  0  0  0  0  0  0
   57.6293   29.6198   42.8858 H   0  0  0  0  0  0  0  0  0  0  0  0
   58.1020   27.6560   43.4790 C   0  0  0  0  0  0  0  0  0  0  0  0
   58.1260   27.1040   42.3890 O   0  0  0  0  0  0  0  0  0  0  0  0
   58.8510   27.0240   44.6240 C   0  0  0  0  0  0  0  0  0  0  0  0
   58.2014   26.2721   45.0959 H   0  0  0  0  0  0  0  0  0  0  0  0
   59.7659   26.5736   44.2115 H   0  0  0  0  0  0  0  0  0  0  0  0
   59.2820   28.0480   45.6990 C   0  0  0  0  0  0  0  0  0  0  0  0
   59.8370   27.2870   46.9210 C   0  0  0  0  0  0  0  0  0  0  0  0
   59.4849   27.7698   47.8445 H   0  0  0  0  0  0  0  0  0  0  0  0
   59.4852   26.2451   46.8949 H   0  0  0  0  0  0  0  0  0  0  0  0
   60.9366   27.3035   46.8949 H   0  0  0  0  0  0  0  0  0  0  0  0
   60.3950   28.9730   45.1530 C   0  0  0  0  0  0  0  0  0  0  0  0
   60.9404   29.4263   45.9939 H   0  0  0  0  0  0  0  0  0  0  0  0
   61.0921   28.3845   44.5384 H   0  0  0  0  0  0  0  0  0  0  0  0
   59.9440   29.7660   44.5384 H   0  0  0  0  0  0  0  0  0  0  0  0
   58.0540   28.8730   46.1410 C   0  0  0  0  0  0  0  0  0  0  0  0
   57.3200   28.1962   46.6027 H   0  0  0  0  0  0  0  0  0  0  0  0
   58.3985   29.6362   46.8543 H   0  0  0  0  0  0  0  0  0  0  0  0
   58.1700   32.3970   46.5300 C   0  0  0  0  0  0  0  0  0  0  0  0
   57.9413   31.8053   47.4287 H   0  0  0  0  0  0  0  0  0  0  0  0
  1  2  1  0
  2  3  2  0
  3  4  1  0
  3  5  1  0
  5  6  1  0
  5  7  2  0
  7  8  1  0
  8  9  1  0
  9 10  1  0
  9 11  1  0
  9 12  1  0
  7 13  1  0
 13 14  1  0
 14 15  2  0
 15 16  1  0
 16 17  1  0
 16 18  1  0
 16 19  1  0
 19 20  2  0
 19 21  1  0
 21 22  1  0
 21 23  1  0
 21 24  1  0
 24 25  1  0
 25 26  1  0
 25 27  1  0
 25 28  1  0
 24 29  1  0
 29 30  1  0
 29 31  1  0
 29 32  1  0
 24 33  1  0
 33 34  1  0
 33 35  1  0
 13 36  2  0
 36 37  1  0
 36  2  1  0
 33 15  1  0
M  END
>  <UniqueID>  (22) 
22

>  <SMILES>  (22) 
COc1ccccc1/N=C1\CC(=O)CC(C)(C)C1

>  <Energy>  (22) 
40.95616626941629

>  <Genealogy>  (22) 
COc1ccccc1/N=C1\CC(=O)CC(C)(C)C1 (cis-trans isomerization)
COc1ccccc1/N=C1\CC(=O)CC(C)(C)C1 (3D coordinates assigned)
COc1ccccc1/N=C1\CC(=O)CC(C)(C)C1 (nonaromatic ring conformer: 40.95616626941629 kcal/mol)

>  <smiles>  (22) 
COc1ccccc1N=C1CC(=O)CC(C)(C)C1

>  <score_type>  (22) 
oracle

>  <origin>  (22) 
adg

>  <m_score__min__energy>  (22) 
-6.9800000000000004

>  <m_primary>  (22) 
energy

$$$$
22:0
     RDKit          3D

 65 69  0  0  0  0  0  0  0  0999 V2000
   59.2840   27.8930   47.6660 C   0  0  0  0  0  0  0  0  0  0  0  0
   58.3240   28.1380   46.5430 C   0  0  0  0  0  0  0  0  0  0  0  0
   57.2850   27.3060   46.1210 C   0  0  0  0  0  0  0  0  0  0  0  0
   56.9520   25.9760   46.6490 C   0  0  0  0  0  0  0  0  0  0  0  0
   57.8630   25.1890   47.0170 O   0  0  0  0  0  0  0  0  0  0  0  0
   55.5860   25.5630   46.7340 N   0  0  0  0  0  0  0  0  0  0  0  0
   54.8950   24.9000   45.6290 C   0  0  0  0  0  0  0  0  0  0  0  0
   55.7590   23.8390   44.9960 C   0  0  0  0  0  0  0  0  0  0  0  0
   55.8320   23.7290   43.5980 C   0  0  0  0  0  0  0  0  0  0  0  0
   56.5740   22.6960   43.0120 C   0  0  0  0  0  0  0  0  0  0  0  0
   57.2400   21.7680   43.8150 C   0  0  0  0  0  0  0  0  0  0  0  0
   57.1710   21.8700   45.2070 C   0  0  0  0  0  0  0  0  0  0  0  0
   56.4360   22.9020   45.7970 C   0  0  0  0  0  0  0  0  0  0  0  0
   56.5530   27.9140   45.2060 O   0  0  0  0  0  0  0  0  0  0  0  0
   57.0460   29.1150   45.0320 C   0  0  0  0  0  0  0  0  0  0  0  0
   56.5530   30.1180   44.2040 C   0  0  0  0  0  0  0  0  0  0  0  0
   57.1840   31.3730   44.2470 C   0  0  0  0  0  0  0  0  0  0  0  0
   58.2850   31.5970   45.1080 C   0  0  0  0  0  0  0  0  0  0  0  0
   58.9840   33.2090   45.2340 S   0  0  0  0  0  0  0  0  0  0  0  0
   60.4330   33.0860   45.6220 O   0  0  0  0  0  0  0  0  0  0  0  0
   58.9260   33.8540   43.8770 O   0  0  0  0  0  0  0  0  0  0  0  0
   58.1150   34.2190   46.3830 N   0  0  0  0  0  0  0  0  0  0  0  0
   59.0230   35.1600   47.0770 C   0  0  0  0  0  0  0  0  0  0  0  0
   59.6440   34.5700   48.3630 C   0  0  0  0  0  0  0  0  0  0  0  0
   59.5580   33.0980   48.3550 N   0  0  0  0  0  0  0  0  0  0  0  0
   60.2960   32.5060   49.4890 C   0  0  0  0  0  0  0  0  0  0  0  0
   61.7780   32.6720   49.2820 C   0  0  0  0  0  0  0  0  0  0  0  0
   62.3430   32.4130   48.0230 C   0  0  0  0  0  0  0  0  0  0  0  0
   63.7130   32.6000   47.8120 C   0  0  0  0  0  0  0  0  0  0  0  0
   64.5260   33.0510   48.8560 C   0  0  0  0  0  0  0  0  0  0  0  0
   63.9710   33.3120   50.1120 C   0  0  0  0  0  0  0  0  0  0  0  0
   62.6020   33.1260   50.3260 C   0  0  0  0  0  0  0  0  0  0  0  0
   58.1470   32.6710   48.3730 C   0  0  0  0  0  0  0  0  0  0  0  0
   57.2970   33.4460   47.3420 C   0  0  0  0  0  0  0  0  0  0  0  0
   58.7780   30.5470   45.9100 C   0  0  0  0  0  0  0  0  0  0  0  0
   58.1330   29.3130   45.8430 C   0  0  0  0  0  0  0  0  0  0  0  0
   58.7655   28.0253   48.6271 H   0  0  0  0  0  0  0  0  0  0  0  0
   59.6737   26.8666   47.5979 H   0  0  0  0  0  0  0  0  0  0  0  0
   60.1179   28.6071   47.5979 H   0  0  0  0  0  0  0  0  0  0  0  0
   53.9760   24.4318   46.0113 H   0  0  0  0  0  0  0  0  0  0  0  0
   54.6600   25.6557   44.8650 H   0  0  0  0  0  0  0  0  0  0  0  0
   55.3053   24.4557   42.9619 H   0  0  0  0  0  0  0  0  0  0  0  0
   56.6323   22.6155   41.9165 H   0  0  0  0  0  0  0  0  0  0  0  0
   57.8195   20.9560   43.3515 H   0  0  0  0  0  0  0  0  0  0  0  0
   57.6954   21.1378   45.8386 H   0  0  0  0  0  0  0  0  0  0  0  0
   56.3868   22.9817   46.8930 H   0  0  0  0  0  0  0  0  0  0  0  0
   55.6973   29.9349   43.5374 H   0  0  0  0  0  0  0  0  0  0  0  0
   56.8189   32.1887   43.6057 H   0  0  0  0  0  0  0  0  0  0  0  0
   57.4510   34.7920   45.8100 H   0  0  0  0  0  0  0  0  0  0  0  0
   59.8368   35.4322   46.3888 H   0  0  0  0  0  0  0  0  0  0  0  0
   58.4237   36.0332   47.3743 H   0  0  0  0  0  0  0  0  0  0  0  0
   60.7006   34.8697   48.4242 H   0  0  0  0  0  0  0  0  0  0  0  0
   59.0881   34.9522   49.2319 H   0  0  0  0  0  0  0  0  0  0  0  0
   59.9994   33.0111   50.4201 H   0  0  0  0  0  0  0  0  0  0  0  0
   60.0584   31.4339   49.5541 H   0  0  0  0  0  0  0  0  0  0  0  0
   61.7052   32.0613   47.1987 H   0  0  0  0  0  0  0  0  0  0  0  0
   64.1507   32.3922   46.8245 H   0  0  0  0  0  0  0  0  0  0  0  0
   65.6029   33.2005   48.6890 H   0  0  0  0  0  0  0  0  0  0  0  0
   64.6123   33.6643   50.9333 H   0  0  0  0  0  0  0  0  0  0  0  0
   62.1683   33.3357   51.3149 H   0  0  0  0  0  0  0  0  0  0  0  0
   58.0975   31.5972   48.1394 H   0  0  0  0  0  0  0  0  0  0  0  0
   57.7410   32.8784   49.3741 H   0  0  0  0  0  0  0  0  0  0  0  0
   56.6851   32.7254   46.7796 H   0  0  0  0  0  0  0  0  0  0  0  0
   56.6774   34.1639   47.8995 H   0  0  0  0  0  0  0  0  0  0  0  0
   59.6459   30.6973   46.5690 H   0  0  0  0  0  0  0  0  0  0  0  0
  1  2  1  0
  2  3  2  0
  3  4  1  0
  4  5  2  0
  4  6  1  0
  6  7  1  0
  7  8  1  0
  8  9  2  0
  9 10  1  0
 10 11  2  0
 11 12  1  0
 12 13  2  0
  3 14  1  0
 14 15  1  0
 15 16  2  0
 16 17  1  0
 17 18  2  0
 18 19  1  0
 19 20  2  0
 19 21  2  0
 19 22  1  0
 22 23  1  0
 23 24  1  0
 24 25  1  0
 25 26  1  0
 26 27  1  0
 27 28  2  0
 28 29  1  0
 29 30  2  0
 30 31  1  0
 31 32  2  0
 25 33  1  0
 33 34  1  0
 18 35  1  0
 35 36  2  0
 36  2  1  0
 13  8  1  0
 36 15  1  0
 34 22  1  0
 32 27  1  0
  1 37  1  0
  1 38  1  0
  1 39  1  0
  7 40  1  0
  7 41  1  0
  9 42  1  0
 10 43  1  0
 11 44  1  0
 12 45  1  0
 13 46  1  0
 16 47  1  0
 17 48  1  0
 22 49  1  0
 23 50  1  0
 23 51  1  0
 24 52  1  0
 24 53  1  0
 26 54  1  0
 26 55  1  0
 28 56  1  0
 29 57  1  0
 30 58  1  0
 31 59  1  0
 32 60  1  0
 33 61  1  0
 33 62  1  0
 34 63  1  0
 34 64  1  0
 35 65  1  0
M  CHG  2   6  -1  22   1
M  END
>  <UniqueID>  (23) 
23

>  <SMILES>  (23) 
Cc1c(C(=O)[N-]Cc2ccccc2)oc2ccc(S(=O)(=O)[NH+]3CCN(Cc4ccccc4)CC3)cc12

>  <Energy>  (23) 
114.83886137352829

>  <Genealogy>  (23) 
Cc1c(C(=O)[N-]Cc2ccccc2)oc2ccc(S(=O)(=O)[NH+]3CCN(Cc4ccccc4)CC3)cc12 (protonated)
Cc1c(C(=O)[N-]Cc2ccccc2)oc2ccc(S(=O)(=O)[NH+]3CCN(Cc4ccccc4)CC3)cc12 (3D coordinates assigned)
Cc1c(C(=O)[N-]Cc2ccccc2)oc2ccc(S(=O)(=O)[NH+]3CCN(Cc4ccccc4)CC3)cc12 (nonaromatic ring conformer: 114.83886137352829 kcal/mol)

>  <smiles>  (23) 
Cc1c(C(=O)NCc2ccccc2)oc2ccc(S(=O)(=O)N3CCN(Cc4ccccc4)CC3)cc12

>  <score_type>  (23) 
oracle

>  <origin>  (23) 
adg

>  <m_score__min__energy>  (23) 
-10.65

>  <m_primary>  (23) 
energy

$$$$
23:0
     RDKit          3D

 36 38  0  0  0  0  0  0  0  0999 V2000
   63.6520   32.7030   47.8920 C   0  0  0  0  0  0  0  0  0  0  0  0
   62.7750   33.8360   46.7710 S   0  0  0  0  0  0  0  0  0  0  0  0
   61.1610   33.1730   47.1770 C   0  0  0  0  0  0  0  0  0  0  0  0
   60.6880   33.2270   48.4890 C   0  0  0  0  0  0  0  0  0  0  0  0
   59.4190   32.6980   48.7690 C   0  0  0  0  0  0  0  0  0  0  0  0
   58.8610   32.7290   50.1420 C   0  0  0  0  0  0  0  0  0  0  0  0
   59.3750   33.6060   51.1140 C   0  0  0  0  0  0  0  0  0  0  0  0
   58.8270   33.6070   52.3980 C   0  0  0  0  0  0  0  0  0  0  0  0
   57.7780   32.7420   52.7090 C   0  0  0  0  0  0  0  0  0  0  0  0
   57.2860   31.8790   51.7230 C   0  0  0  0  0  0  0  0  0  0  0  0
   56.1620   30.9420   52.0290 C   0  0  0  0  0  0  0  0  0  0  0  0
   57.8360   31.8950   50.4780 N   0  0  0  0  0  0  0  0  0  0  0  0
   58.6970   32.1480   47.7530 N   0  0  0  0  0  0  0  0  0  0  0  0
   59.1700   32.0990   46.4780 C   0  0  0  0  0  0  0  0  0  0  0  0
   58.3520   31.4920   45.3990 C   0  0  0  0  0  0  0  0  0  0  0  0
   57.7690   30.2210   45.5690 C   0  0  0  0  0  0  0  0  0  0  0  0
   56.9990   29.6520   44.5480 C   0  0  0  0  0  0  0  0  0  0  0  0
   56.8020   30.3430   43.3510 C   0  0  0  0  0  0  0  0  0  0  0  0
   57.3750   31.6040   43.1700 C   0  0  0  0  0  0  0  0  0  0  0  0
   58.1460   32.1780   44.1850 C   0  0  0  0  0  0  0  0  0  0  0  0
   60.4000   32.6120   46.2040 N   0  0  0  0  0  0  0  0  0  0  0  0
   63.4376   32.9800   48.9347 H   0  0  0  0  0  0  0  0  0  0  0  0
   63.3141   31.6722   47.7095 H   0  0  0  0  0  0  0  0  0  0  0  0
   64.7346   32.7717   47.7095 H   0  0  0  0  0  0  0  0  0  0  0  0
   61.2977   33.6752   49.2873 H   0  0  0  0  0  0  0  0  0  0  0  0
   60.2027   34.2861   50.8643 H   0  0  0  0  0  0  0  0  0  0  0  0
   59.2225   34.2899   53.1643 H   0  0  0  0  0  0  0  0  0  0  0  0
   57.3418   32.7381   53.7188 H   0  0  0  0  0  0  0  0  0  0  0  0
   56.0494   30.8481   53.1192 H   0  0  0  0  0  0  0  0  0  0  0  0
   55.2297   31.3341   51.5965 H   0  0  0  0  0  0  0  0  0  0  0  0
   56.3799   29.9543   51.5965 H   0  0  0  0  0  0  0  0  0  0  0  0
   57.9199   29.6721   46.5102 H   0  0  0  0  0  0  0  0  0  0  0  0
   56.5483   28.6585   44.6890 H   0  0  0  0  0  0  0  0  0  0  0  0
   56.1955   29.8944   42.5504 H   0  0  0  0  0  0  0  0  0  0  0  0
   57.2191   32.1469   42.2261 H   0  0  0  0  0  0  0  0  0  0  0  0
   58.5947   33.1711   44.0354 H   0  0  0  0  0  0  0  0  0  0  0  0
  1  2  1  0
  2  3  1  0
  3  4  2  0
  4  5  1  0
  5  6  1  0
  6  7  2  0
  7  8  1  0
  8  9  2  0
  9 10  1  0
 10 11  1  0
 10 12  2  0
  5 13  2  0
 13 14  1  0
 14 15  1  0
 15 16  2  0
 16 17  1  0
 17 18  2  0
 18 19  1  0
 19 20  2  0
 14 21  2  0
 21  3  1  0
 12  6  1  0
 20 15  1  0
  1 22  1  0
  1 23  1  0
  1 24  1  0
  4 25  1  0
  7 26  1  0
  8 27  1  0
  9 28  1  0
 11 29  1  0
 11 30  1  0
 11 31  1  0
 16 32  1  0
 17 33  1  0
 18 34  1  0
 19 35  1  0
 20 36  1  0
M  END
>  <UniqueID>  (24) 
24

>  <SMILES>  (24) 
CSc1cc(-c2cccc(C)n2)nc(-c2ccccc2)n1

>  <Energy>  (24) 
36.821413552101596

>  <Genealogy>  (24) 
CSc1cc(-c2cccc(C)n2)nc(-c2ccccc2)n1 (3D coordinates assigned)
CSc1cc(-c2cccc(C)n2)nc(-c2ccccc2)n1 (optimized conformer: 36.821413552101596 kcal/mol)

>  <smiles>  (24) 
CSc1cc(-c2cccc(C)n2)nc(-c2ccccc2)n1

>  <score_type>  (24) 
oracle

>  <origin>  (24) 
adg

>  <m_score__min__energy>  (24) 
-6.9500000000000002

>  <m_primary>  (24) 
energy

$$$$
24:0
     RDKit          3D

 38 40  0  0  0  0  0  0  0  0999 V2000
   57.8700   34.4570   44.8550 C   0  0  0  0  0  0  0  0  0  0  0  0
   57.0240   33.4000   45.5560 C   0  0  0  0  0  0  0  0  0  0  0  0
   57.8370   32.2140   45.8520 N   0  0  0  0  0  0  0  0  0  0  0  0
   58.0250   31.1310   45.0510 C   0  0  0  0  0  0  0  0  0  0  0  0
   57.5290   31.0480   43.6330 C   0  0  0  0  0  0  0  0  0  0  0  0
   58.7750   30.1550   45.7230 C   0  0  0  0  0  0  0  0  0  0  0  0
   59.1450   28.8000   45.2590 C   0  0  0  0  0  0  0  0  0  0  0  0
   60.2050   28.6530   44.5940 O   0  0  0  0  0  0  0  0  0  0  0  0
   58.3510   27.6080   45.6350 C   0  0  0  0  0  0  0  0  0  0  0  0
   56.9460   27.6890   45.6110 C   0  0  0  0  0  0  0  0  0  0  0  0
   56.1630   26.6030   46.0110 C   0  0  0  0  0  0  0  0  0  0  0  0
   54.7760   26.7010   45.9880 O   0  0  0  0  0  0  0  0  0  0  0  0
   56.7710   25.4230   46.4380 C   0  0  0  0  0  0  0  0  0  0  0  0
   58.1640   25.3220   46.4590 C   0  0  0  0  0  0  0  0  0  0  0  0
   58.9630   26.3970   46.0510 C   0  0  0  0  0  0  0  0  0  0  0  0
   60.3480   26.2160   46.0400 O   0  0  0  0  0  0  0  0  0  0  0  0
   59.0490   30.6940   46.9690 C   0  0  0  0  0  0  0  0  0  0  0  0
   59.7380   30.1660   48.0640 C   0  0  0  0  0  0  0  0  0  0  0  0
   59.8220   30.9460   49.2280 C   0  0  0  0  0  0  0  0  0  0  0  0
   59.2040   32.2110   49.2890 C   0  0  0  0  0  0  0  0  0  0  0  0
   58.5070   32.7150   48.1780 C   0  0  0  0  0  0  0  0  0  0  0  0
   58.4530   31.9300   47.0200 C   0  0  0  0  0  0  0  0  0  0  0  0
   58.3714   35.0835   45.6074 H   0  0  0  0  0  0  0  0  0  0  0  0
   58.6257   33.9638   44.2259 H   0  0  0  0  0  0  0  0  0  0  0  0
   57.2233   35.0863   44.2259 H   0  0  0  0  0  0  0  0  0  0  0  0
   56.6303   33.8144   46.4958 H   0  0  0  0  0  0  0  0  0  0  0  0
   56.1931   33.1099   44.8961 H   0  0  0  0  0  0  0  0  0  0  0  0
   56.4441   30.8665   43.6341 H   0  0  0  0  0  0  0  0  0  0  0  0
   57.7419   31.9943   43.1141 H   0  0  0  0  0  0  0  0  0  0  0  0
   58.0384   30.2226   43.1141 H   0  0  0  0  0  0  0  0  0  0  0  0
   56.4596   28.6163   45.2741 H   0  0  0  0  0  0  0  0  0  0  0  0
   56.1532   24.5711   46.7585 H   0  0  0  0  0  0  0  0  0  0  0  0
   58.6377   24.3893   46.7992 H   0  0  0  0  0  0  0  0  0  0  0  0
   60.9880   26.8620   45.5960 H   0  0  0  0  0  0  0  0  0  0  0  0
   60.2006   29.1692   48.0153 H   0  0  0  0  0  0  0  0  0  0  0  0
   60.3749   30.5666   50.1000 H   0  0  0  0  0  0  0  0  0  0  0  0
   59.2676   32.8070   50.2113 H   0  0  0  0  0  0  0  0  0  0  0  0
   58.0173   33.6992   48.2170 H   0  0  0  0  0  0  0  0  0  0  0  0
  1  2  1  0
  2  3  1  0
  3  4  1  0
  4  5  1  0
  4  6  2  0
  6  7  1  0
  7  8  2  0
  7  9  1  0
  9 10  2  0
 10 11  1  0
 11 12  1  0
 11 13  2  0
 13 14  1  0
 14 15  2  0
 15 16  1  0
  6 17  1  0
 17 18  2  0
 18 19  1  0
 19 20  2  0
 20 21  1  0
 21 22  2  0
 22  3  1  0
 15  9  1  0
 22 17  1  0
  1 23  1  0
  1 24  1  0
  1 25  1  0
  2 26  1  0
  2 27  1  0
  5 28  1  0
  5 29  1  0
  5 30  1  0
 10 31  1  0
 13 32  1  0
 14 33  1  0
 16 34  1  0
 18 35  1  0
 19 36  1  0
 20 37  1  0
 21 38  1  0
M  CHG  1  12  -1
M  END
>  <UniqueID>  (25) 
25

>  <SMILES>  (25) 
CCn1c(C)c(C(=O)c2cc([O-])ccc2O)c2ccccc21

>  <Energy>  (25) 
80.46450761922539

>  <Genealogy>  (25) 
CCn1c(C)c(C(=O)c2cc([O-])ccc2O)c2ccccc21 (protonated)
CCn1c(C)c(C(=O)c2cc([O-])ccc2O)c2ccccc21 (3D coordinates assigned)
CCn1c(C)c(C(=O)c2cc([O-])ccc2O)c2ccccc21 (optimized conformer: 80.46450761922539 kcal/mol)

>  <smiles>  (25) 
CCn1c(C)c(C(=O)c2cc(O)ccc2O)c2ccccc21

>  <score_type>  (25) 
oracle

>  <origin>  (25) 
adg

>  <m_score__min__energy>  (25) 
-10.869999999999999

>  <m_primary>  (25) 
energy

$$$$
25:0
     RDKit          3D

 61 64  0  0  0  0  0  0  0  0999 V2000
   55.8960   30.0580   44.0580 C   0  0  0  0  0  0  0  0  0  0  0  0
   57.0360   29.2440   43.4560 C   0  0  0  0  0  0  0  0  0  0  0  0
   57.7820   28.4980   44.5300 C   0  0  0  0  0  0  0  0  0  0  0  0
   58.0790   27.1370   44.3670 C   0  0  0  0  0  0  0  0  0  0  0  0
   58.8030   26.4530   45.3460 C   0  0  0  0  0  0  0  0  0  0  0  0
   59.2410   27.1230   46.4910 C   0  0  0  0  0  0  0  0  0  0  0  0
   58.9620   28.4890   46.6680 C   0  0  0  0  0  0  0  0  0  0  0  0
   59.4160   29.1840   47.8480 N   0  0  0  0  0  0  0  0  0  0  0  0
   58.5860   30.2670   48.3990 C   0  0  0  0  0  0  0  0  0  0  0  0
   59.2250   30.8670   49.6470 C   0  0  0  0  0  0  0  0  0  0  0  0
   60.6640   31.0460   49.3910 N   0  0  0  0  0  0  0  0  0  0  0  0
   61.2880   31.9360   50.3920 C   0  0  0  0  0  0  0  0  0  0  0  0
   62.0470   33.0700   49.6960 C   0  0  0  0  0  0  0  0  0  0  0  0
   61.2880   33.5500   48.5310 N   0  0  0  0  0  0  0  0  0  0  0  0
   60.0680   34.2970   48.7210 C   0  0  0  0  0  0  0  0  0  0  0  0
   59.6440   34.5410   49.8830 O   0  0  0  0  0  0  0  0  0  0  0  0
   59.3150   34.8480   47.5440 C   0  0  0  0  0  0  0  0  0  0  0  0
   59.5280   33.9840   46.2790 C   0  0  0  0  0  0  0  0  0  0  0  0
   58.8190   34.6100   45.0680 C   0  0  0  0  0  0  0  0  0  0  0  0
   58.4790   33.4550   44.1340 C   0  0  0  0  0  0  0  0  0  0  0  0
   58.4780   32.1860   44.9850 C   0  0  0  0  0  0  0  0  0  0  0  0
   58.8620   32.6020   46.4020 C   0  0  0  0  0  0  0  0  0  0  0  0
   61.0490   33.8540   45.9990 C   0  0  0  0  0  0  0  0  0  0  0  0
   61.7980   33.3430   47.1980 C   0  0  0  0  0  0  0  0  0  0  0  0
   62.9070   32.7680   47.0200 O   0  0  0  0  0  0  0  0  0  0  0  0
   61.3500   29.7350   49.3480 C   0  0  0  0  0  0  0  0  0  0  0  0
   60.5310   28.6350   48.6340 C   0  0  0  0  0  0  0  0  0  0  0  0
   58.2350   29.1720   45.6760 C   0  0  0  0  0  0  0  0  0  0  0  0
   55.9551   30.0158   45.1556 H   0  0  0  0  0  0  0  0  0  0  0  0
   55.9771   31.1037   43.7264 H   0  0  0  0  0  0  0  0  0  0  0  0
   54.9333   29.6418   43.7264 H   0  0  0  0  0  0  0  0  0  0  0  0
   56.6233   28.5226   42.7354 H   0  0  0  0  0  0  0  0  0  0  0  0
   57.7330   29.9300   42.9525 H   0  0  0  0  0  0  0  0  0  0  0  0
   57.7405   26.6064   43.4648 H   0  0  0  0  0  0  0  0  0  0  0  0
   59.0289   25.3844   45.2153 H   0  0  0  0  0  0  0  0  0  0  0  0
   59.8083   26.5775   47.2595 H   0  0  0  0  0  0  0  0  0  0  0  0
   58.4722   31.0545   47.6395 H   0  0  0  0  0  0  0  0  0  0  0  0
   57.6056   29.8508   48.6738 H   0  0  0  0  0  0  0  0  0  0  0  0
   58.7632   31.8402   49.8697 H   0  0  0  0  0  0  0  0  0  0  0  0
   59.0741   30.1990   50.5078 H   0  0  0  0  0  0  0  0  0  0  0  0
   60.5049   32.3645   51.0347 H   0  0  0  0  0  0  0  0  0  0  0  0
   61.9955   31.3516   50.9985 H   0  0  0  0  0  0  0  0  0  0  0  0
   62.1893   33.8999   50.4039 H   0  0  0  0  0  0  0  0  0  0  0  0
   63.0234   32.6932   49.3574 H   0  0  0  0  0  0  0  0  0  0  0  0
   58.2419   34.8703   47.7850 H   0  0  0  0  0  0  0  0  0  0  0  0
   59.6914   35.8607   47.3373 H   0  0  0  0  0  0  0  0  0  0  0  0
   57.9013   35.1256   45.3874 H   0  0  0  0  0  0  0  0  0  0  0  0
   59.4566   35.3553   44.5700 H   0  0  0  0  0  0  0  0  0  0  0  0
   57.4871   33.6106   43.6846 H   0  0  0  0  0  0  0  0  0  0  0  0
   59.2096   33.3809   43.3150 H   0  0  0  0  0  0  0  0  0  0  0  0
   57.4770   31.7299   44.9829 H   0  0  0  0  0  0  0  0  0  0  0  0
   59.1863   31.4445   44.5869 H   0  0  0  0  0  0  0  0  0  0  0  0
   57.9658   32.6659   47.0366 H   0  0  0  0  0  0  0  0  0  0  0  0
   59.5406   31.8701   46.8643 H   0  0  0  0  0  0  0  0  0  0  0  0
   61.1982   33.1556   45.1623 H   0  0  0  0  0  0  0  0  0  0  0  0
   61.4374   34.8538   45.7551 H   0  0  0  0  0  0  0  0  0  0  0  0
   62.3050   29.8588   48.8164 H   0  0  0  0  0  0  0  0  0  0  0  0
   61.4920   29.4092   50.3890 H   0  0  0  0  0  0  0  0  0  0  0  0
   61.1990   28.0800   47.9588 H   0  0  0  0  0  0  0  0  0  0  0  0
   60.1039   27.9806   49.4082 H   0  0  0  0  0  0  0  0  0  0  0  0
   58.0194   30.2436   45.7990 H   0  0  0  0  0  0  0  0  0  0  0  0
  1  2  1  0
  2  3  1  0
  3  4  2  0
  4  5  1  0
  5  6  2  0
  6  7  1  0
  7  8  1  0
  8  9  1  0
  9 10  1  0
 10 11  1  0
 11 12  1  0
 12 13  1  0
 13 14  1  0
 14 15  1  0
 15 16  2  0
 15 17  1  0
 17 18  1  0
 18 19  1  0
 19 20  1  0
 20 21  1  0
 21 22  1  0
 18 23  1  0
 23 24  1  0
 24 25  2  0
 11 26  1  0
 26 27  1  0
  7 28  2  0
 28  3  1  0
 27  8  1  0
 24 14  1  0
 22 18  1  0
  1 29  1  0
  1 30  1  0
  1 31  1  0
  2 32  1  0
  2 33  1  0
  4 34  1  0
  5 35  1  0
  6 36  1  0
  9 37  1  0
  9 38  1  0
 10 39  1  0
 10 40  1  0
 12 41  1  0
 12 42  1  0
 13 43  1  0
 13 44  1  0
 17 45  1  0
 17 46  1  0
 19 47  1  0
 19 48  1  0
 20 49  1  0
 20 50  1  0
 21 51  1  0
 21 52  1  0
 22 53  1  0
 22 54  1  0
 23 55  1  0
 23 56  1  0
 26 57  1  0
 26 58  1  0
 27 59  1  0
 27 60  1  0
 28 61  1  0
M  END
>  <UniqueID>  (26) 
26

>  <SMILES>  (26) 
CCc1cccc(N2CCN(CCN3C(=O)CC4(CCCC4)CC3=O)CC2)c1

>  <Energy>  (26) 
68.2167257965537

>  <Genealogy>  (26) 
CCc1cccc(N2CCN(CCN3C(=O)CC4(CCCC4)CC3=O)CC2)c1 (3D coordinates assigned)
CCc1cccc(N2CCN(CCN3C(=O)CC4(CCCC4)CC3=O)CC2)c1 (nonaromatic ring conformer: 68.2167257965537 kcal/mol)

>  <smiles>  (26) 
CCc1cccc(N2CCN(CCN3C(=O)CC4(CCCC4)CC3=O)CC2)c1

>  <score_type>  (26) 
oracle

>  <origin>  (26) 
adg

>  <m_score__min__energy>  (26) 
-9.2100000000000009

>  <m_primary>  (26) 
energy

$$$$
26:0
     RDKit          3D

 41 42  0  0  0  0  0  0  0  0999 V2000
   58.1430   31.3530   51.2340 C   0  0  0  0  0  0  0  0  0  0  0  0
   58.8880   30.7880   50.1590 O   0  0  0  0  0  0  0  0  0  0  0  0
   58.8820   31.2810   48.8440 C   0  0  0  0  0  0  0  0  0  0  0  0
   58.6670   32.6480   48.5590 C   0  0  0  0  0  0  0  0  0  0  0  0
   58.6630   33.0700   47.2300 C   0  0  0  0  0  0  0  0  0  0  0  0
   58.8250   32.1800   46.1990 C   0  0  0  0  0  0  0  0  0  0  0  0
   59.1030   30.8360   46.4530 C   0  0  0  0  0  0  0  0  0  0  0  0
   59.1100   30.3740   47.7870 C   0  0  0  0  0  0  0  0  0  0  0  0
   59.3390   29.0250   48.1040 O   0  0  0  0  0  0  0  0  0  0  0  0
   60.0050   28.1000   47.2520 C   0  0  0  0  0  0  0  0  0  0  0  0
   58.7550   32.8520   44.8670 C   0  0  1  0  0  0  0  0  0  0  0  0
   57.3930   32.6330   44.1650 C   0  0  0  0  0  0  0  0  0  0  0  0
   57.4230   31.6200   43.0040 C   0  0  0  0  0  0  0  0  0  0  0  0
   57.6890   30.2590   43.4700 N   0  0  0  0  0  0  0  0  0  0  0  0
   56.8700   29.5870   44.4350 C   0  0  0  0  0  0  0  0  0  0  0  0
   57.2810   28.2460   44.9500 C   0  0  0  0  0  0  0  0  0  0  0  0
   55.7860   30.0990   44.8240 O   0  0  0  0  0  0  0  0  0  0  0  0
   58.9220   34.3460   45.2400 C   0  0  0  0  0  0  0  0  0  0  0  0
   58.5410   34.4660   46.7320 C   0  0  2  0  0  0  0  0  0  0  0  0
   59.3880   35.3520   47.4230 O   0  0  0  0  0  0  0  0  0  0  0  0
   58.5748   31.0256   52.1913 H   0  0  0  0  0  0  0  0  0  0  0  0
   58.1822   32.4505   51.1704 H   0  0  0  0  0  0  0  0  0  0  0  0
   57.0968   31.0192   51.1704 H   0  0  0  0  0  0  0  0  0  0  0  0
   58.5051   33.3690   49.3738 H   0  0  0  0  0  0  0  0  0  0  0  0
   59.3141   30.1450   45.6236 H   0  0  0  0  0  0  0  0  0  0  0  0
   60.5394   27.3578   47.8631 H   0  0  0  0  0  0  0  0  0  0  0  0
   59.2663   27.5888   46.6171 H   0  0  0  0  0  0  0  0  0  0  0  0
   60.7241   28.6384   46.6171 H   0  0  0  0  0  0  0  0  0  0  0  0
   59.5067   32.4653   44.1631 H   0  0  0  0  0  0  0  0  0  0  0  0
   56.6745   32.2726   44.9159 H   0  0  0  0  0  0  0  0  0  0  0  0
   57.1105   33.6011   43.7257 H   0  0  0  0  0  0  0  0  0  0  0  0
   56.4489   31.6364   42.4933 H   0  0  0  0  0  0  0  0  0  0  0  0
   58.2354   31.9100   42.3214 H   0  0  0  0  0  0  0  0  0  0  0  0
   58.4520   29.7150   43.0070 H   0  0  0  0  0  0  0  0  0  0  0  0
   57.2771   28.2587   46.0499 H   0  0  0  0  0  0  0  0  0  0  0  0
   56.5755   27.4828   44.5896 H   0  0  0  0  0  0  0  0  0  0  0  0
   58.2930   28.0092   44.5896 H   0  0  0  0  0  0  0  0  0  0  0  0
   58.2553   34.9687   44.6255 H   0  0  0  0  0  0  0  0  0  0  0  0
   59.9516   34.6898   45.0616 H   0  0  0  0  0  0  0  0  0  0  0  0
   57.5349   34.8841   46.8834 H   0  0  0  0  0  0  0  0  0  0  0  0
   58.9220   36.2260   47.4960 H   0  0  0  0  0  0  0  0  0  0  0  0
  1  2  1  0
  2  3  1  0
  3  4  2  0
  4  5  1  0
  5  6  2  0
  6  7  1  0
  7  8  2  0
  8  9  1  0
  9 10  1  0
  6 11  1  0
 11 12  1  0
 12 13  1  0
 13 14  1  0
 14 15  1  0
 15 16  1  0
 15 17  2  0
 11 18  1  0
 18 19  1  0
 19 20  1  0
  8  3  1  0
 19  5  1  0
  1 21  1  0
  1 22  1  0
  1 23  1  0
  4 24  1  0
  7 25  1  0
 10 26  1  0
 10 27  1  0
 10 28  1  0
 11 29  1  6
 12 30  1  0
 12 31  1  0
 13 32  1  0
 13 33  1  0
 14 34  1  0
 16 35  1  0
 16 36  1  0
 16 37  1  0
 18 38  1  0
 18 39  1  0
 19 40  1  6
 20 41  1  0
M  END
>  <UniqueID>  (27) 
27

>  <SMILES>  (27) 
COc1cc2c(cc1OC)[C@@H](O)C[C@@H]2CCNC(C)=O

>  <Energy>  (27) 
43.18035645561639

>  <Genealogy>  (27) 
COc1cc2c(cc1OC)[C@@H](O)C[C@@H]2CCNC(C)=O (chirality)
COc1cc2c(cc1OC)[C@@H](O)C[C@@H]2CCNC(C)=O (3D coordinates assigned)
COc1cc2c(cc1OC)[C@@H](O)C[C@@H]2CCNC(C)=O (nonaromatic ring conformer: 43.18035645561639 kcal/mol)

>  <smiles>  (27) 
COc1cc2c(cc1OC)C(CCNC(C)=O)CC2O

>  <score_type>  (27) 
oracle

>  <origin>  (27) 
adg

>  <m_score__min__energy>  (27) 
-6.2800000000000002

>  <m_primary>  (27) 
energy

$$$$
27:0
     RDKit          3D

 22 23  0  0  0  0  0  0  0  0999 V2000
   59.2800   34.4930   48.5890 O   0  0  0  0  0  0  0  0  0  0  0  0
   59.1740   34.4500   47.3350 C   0  0  0  0  0  0  0  0  0  0  0  0
   60.3080   34.6230   46.4060 C   0  0  0  0  0  0  0  0  0  0  0  0
   59.6470   34.5450   45.0190 C   0  0  0  0  0  0  0  0  0  0  0  0
   58.1470   34.2250   45.2410 C   0  0  1  0  0  0  0  0  0  0  0  0
   57.7560   32.8900   44.6470 C   0  0  0  0  0  0  0  0  0  0  0  0
   57.7720   32.6990   43.2570 C   0  0  0  0  0  0  0  0  0  0  0  0
   57.4270   31.4590   42.7170 C   0  0  0  0  0  0  0  0  0  0  0  0
   57.0760   30.4130   43.5720 C   0  0  0  0  0  0  0  0  0  0  0  0
   57.0740   30.6060   44.9170 N   0  0  0  0  0  0  0  0  0  0  0  0
   57.4040   31.8040   45.4680 C   0  0  0  0  0  0  0  0  0  0  0  0
   57.9490   34.2180   46.6800 N   0  0  0  0  0  0  0  0  0  0  0  0
   60.7946   35.5981   46.5560 H   0  0  0  0  0  0  0  0  0  0  0  0
   61.0984   33.8713   46.5482 H   0  0  0  0  0  0  0  0  0  0  0  0
   59.7534   35.5072   44.4966 H   0  0  0  0  0  0  0  0  0  0  0  0
   60.1240   33.7683   44.4033 H   0  0  0  0  0  0  0  0  0  0  0  0
   57.5162   34.9744   44.7405 H   0  0  0  0  0  0  0  0  0  0  0  0
   58.0568   33.5276   42.5920 H   0  0  0  0  0  0  0  0  0  0  0  0
   57.4317   31.3075   41.6275 H   0  0  0  0  0  0  0  0  0  0  0  0
   56.8009   29.4322   43.1568 H   0  0  0  0  0  0  0  0  0  0  0  0
   57.3956   31.9245   46.5613 H   0  0  0  0  0  0  0  0  0  0  0  0
   57.0320   34.0720   47.1600 H   0  0  0  0  0  0  0  0  0  0  0  0
  1  2  2  0
  2  3  1  0
  3  4  1  0
  4  5  1  0
  5  6  1  0
  6  7  2  0
  7  8  1  0
  8  9  2  0
  9 10  1  0
 10 11  2  0
  5 12  1  0
 12  2  1  0
 11  6  1  0
  3 13  1  0
  3 14  1  0
  4 15  1  0
  4 16  1  0
  5 17  1  6
  7 18  1  0
  8 19  1  0
  9 20  1  0
 11 21  1  0
 12 22  1  0
M  END
>  <UniqueID>  (28) 
28

>  <SMILES>  (28) 
O=C1CC[C@@H](c2cccnc2)N1

>  <Energy>  (28) 
29.19295852363628

>  <Genealogy>  (28) 
O=C1CC[C@@H](c2cccnc2)N1 (chirality)
O=C1CC[C@@H](c2cccnc2)N1 (3D coordinates assigned)
O=C1CC[C@@H](c2cccnc2)N1 (nonaromatic ring conformer: 29.19295852363628 kcal/mol)

>  <smiles>  (28) 
O=C1CCC(c2cccnc2)N1

>  <score_type>  (28) 
oracle

>  <origin>  (28) 
adg

>  <m_score__min__energy>  (28) 
-5.4800000000000004

>  <m_primary>  (28) 
energy

$$$$
28:0
     RDKit          3D

 39 41  0  0  0  0  0  0  0  0999 V2000
   64.2290   33.1280   48.7720 C   0  0  0  0  0  0  0  0  0  0  0  0
   63.1020   33.8140   49.5280 C   0  0  0  0  0  0  0  0  0  0  0  0
   62.1810   34.3800   48.6020 O   0  0  0  0  0  0  0  0  0  0  0  0
   61.1970   33.6250   47.9550 C   0  0  0  0  0  0  0  0  0  0  0  0
   61.1310   32.2520   48.1830 C   0  0  0  0  0  0  0  0  0  0  0  0
   60.1550   31.4720   47.5400 C   0  0  0  0  0  0  0  0  0  0  0  0
   60.1020   29.9910   47.8430 C   0  0  0  0  0  0  0  0  0  0  0  0
   60.2000   29.2100   46.6110 N   0  0  0  0  0  0  0  0  0  0  0  0
   59.3400   28.2710   46.1740 C   0  0  0  0  0  0  0  0  0  0  0  0
   59.7830   27.8200   44.9490 C   0  0  0  0  0  0  0  0  0  0  0  0
   60.9080   28.4850   44.6270 N   0  0  0  0  0  0  0  0  0  0  0  0
   61.1380   29.3290   45.6500 C   0  0  0  0  0  0  0  0  0  0  0  0
   59.2310   32.1100   46.6720 C   0  0  0  0  0  0  0  0  0  0  0  0
   58.2070   31.4110   46.0010 C   0  0  0  0  0  0  0  0  0  0  0  0
   57.3140   32.0790   45.1540 C   0  0  0  0  0  0  0  0  0  0  0  0
   56.3150   31.3260   44.5160 O   0  0  0  0  0  0  0  0  0  0  0  0
   56.5650   30.3330   43.5260 C   0  0  0  0  0  0  0  0  0  0  0  0
   57.4430   33.4670   44.9690 C   0  0  0  0  0  0  0  0  0  0  0  0
   58.4510   34.1730   45.6270 C   0  0  0  0  0  0  0  0  0  0  0  0
   59.3400   33.5080   46.4750 C   0  0  0  0  0  0  0  0  0  0  0  0
   60.3090   34.2150   47.1130 N   0  0  0  0  0  0  0  0  0  0  0  0
   64.9412   32.6945   49.4895 H   0  0  0  0  0  0  0  0  0  0  0  0
   63.8135   32.3294   48.1398 H   0  0  0  0  0  0  0  0  0  0  0  0
   64.7475   33.8638   48.1398 H   0  0  0  0  0  0  0  0  0  0  0  0
   62.5819   33.0771   50.1576 H   0  0  0  0  0  0  0  0  0  0  0  0
   63.5191   34.6106   50.1616 H   0  0  0  0  0  0  0  0  0  0  0  0
   61.8465   31.7763   48.8698 H   0  0  0  0  0  0  0  0  0  0  0  0
   60.9394   29.7274   48.5057 H   0  0  0  0  0  0  0  0  0  0  0  0
   59.1434   29.7631   48.3321 H   0  0  0  0  0  0  0  0  0  0  0  0
   58.4400   27.9239   46.7027 H   0  0  0  0  0  0  0  0  0  0  0  0
   59.2979   27.0456   44.3367 H   0  0  0  0  0  0  0  0  0  0  0  0
   61.4800   28.3760   43.7590 H   0  0  0  0  0  0  0  0  0  0  0  0
   61.9856   30.0286   45.6962 H   0  0  0  0  0  0  0  0  0  0  0  0
   58.1080   30.3250   46.1449 H   0  0  0  0  0  0  0  0  0  0  0  0
   56.8053   29.3783   44.0167 H   0  0  0  0  0  0  0  0  0  0  0  0
   55.6704   30.2076   42.8983 H   0  0  0  0  0  0  0  0  0  0  0  0
   57.4123   30.6462   42.8983 H   0  0  0  0  0  0  0  0  0  0  0  0
   56.7469   33.9982   44.3032 H   0  0  0  0  0  0  0  0  0  0  0  0
   58.5460   35.2586   45.4772 H   0  0  0  0  0  0  0  0  0  0  0  0
  1  2  1  0
  2  3  1  0
  3  4  1  0
  4  5  2  0
  5  6  1  0
  6  7  1  0
  7  8  1  0
  8  9  1  0
  9 10  2  0
 10 11  1  0
 11 12  2  0
  6 13  2  0
 13 14  1  0
 14 15  2  0
 15 16  1  0
 16 17  1  0
 15 18  1  0
 18 19  2  0
 19 20  1  0
 20 21  2  0
 21  4  1  0
 12  8  1  0
 20 13  1  0
  1 22  1  0
  1 23  1  0
  1 24  1  0
  2 25  1  0
  2 26  1  0
  5 27  1  0
  7 28  1  0
  7 29  1  0
  9 30  1  0
 10 31  1  0
 11 32  1  0
 12 33  1  0
 14 34  1  0
 17 35  1  0
 17 36  1  0
 17 37  1  0
 18 38  1  0
 19 39  1  0
M  CHG  1  11   1
M  END
>  <UniqueID>  (29) 
29

>  <SMILES>  (29) 
CCOc1cc(Cn2cc[nH+]c2)c2cc(OC)ccc2n1

>  <Energy>  (29) 
69.47139797392033

>  <Genealogy>  (29) 
CCOc1cc(Cn2cc[nH+]c2)c2cc(OC)ccc2n1 (protonated)
CCOc1cc(Cn2cc[nH+]c2)c2cc(OC)ccc2n1 (3D coordinates assigned)
CCOc1cc(Cn2cc[nH+]c2)c2cc(OC)ccc2n1 (optimized conformer: 69.47139797392033 kcal/mol)

>  <smiles>  (29) 
CCOc1cc(Cn2ccnc2)c2cc(OC)ccc2n1

>  <score_type>  (29) 
oracle

>  <origin>  (29) 
adg

>  <m_score__min__energy>  (29) 
-4.7699999999999996

>  <m_primary>  (29) 
energy

$$$$
29:0
     RDKit          3D

 32 33  0  0  0  0  0  0  0  0999 V2000
   60.5430   30.4180   46.9680 C   0  0  0  0  0  0  0  0  0  0  0  0
   60.2790   29.3530   46.0590 O   0  0  0  0  0  0  0  0  0  0  0  0
   59.0820   28.6190   46.0120 C   0  0  0  0  0  0  0  0  0  0  0  0
   57.8960   29.1630   45.4810 C   0  0  0  0  0  0  0  0  0  0  0  0
   56.7080   28.4070   45.4480 C   0  0  0  0  0  0  0  0  0  0  0  0
   55.5300   28.9100   44.8730 O   0  0  0  0  0  0  0  0  0  0  0  0
   55.4770   29.7180   43.7020 C   0  0  0  0  0  0  0  0  0  0  0  0
   56.7050   27.1070   45.9880 C   0  0  0  0  0  0  0  0  0  0  0  0
   55.5220   26.2930   45.9900 N   0  0  0  0  0  0  0  0  0  0  0  0
   55.4810   24.8600   46.0180 C   0  0  0  0  0  0  0  0  0  0  0  0
   55.1650   24.2850   47.0940 O   0  0  0  0  0  0  0  0  0  0  0  0
   55.7390   24.0480   44.8140 C   0  0  0  0  0  0  0  0  0  0  0  0
   56.7320   24.2750   43.8840 C   0  0  0  0  0  0  0  0  0  0  0  0
   56.5780   23.2550   42.9710 C   0  0  0  0  0  0  0  0  0  0  0  0
   55.5540   22.4660   43.3490 N   0  0  0  0  0  0  0  0  0  0  0  0
   55.0440   22.9470   44.4720 N   0  0  0  0  0  0  0  0  0  0  0  0
   57.8910   26.5560   46.4830 C   0  0  0  0  0  0  0  0  0  0  0  0
   59.0760   27.3030   46.5050 C   0  0  0  0  0  0  0  0  0  0  0  0
   60.3350   26.7020   47.0690 C   0  0  0  0  0  0  0  0  0  0  0  0
   60.4517   30.0499   48.0005 H   0  0  0  0  0  0  0  0  0  0  0  0
   61.5623   30.7971   46.8026 H   0  0  0  0  0  0  0  0  0  0  0  0
   59.8188   31.2293   46.8026 H   0  0  0  0  0  0  0  0  0  0  0  0
   57.8977   30.1902   45.0875 H   0  0  0  0  0  0  0  0  0  0  0  0
   55.4075   30.7773   43.9903 H   0  0  0  0  0  0  0  0  0  0  0  0
   56.3875   29.5593   43.1055 H   0  0  0  0  0  0  0  0  0  0  0  0
   54.5950   29.4417   43.1055 H   0  0  0  0  0  0  0  0  0  0  0  0
   57.4763   25.0849   43.8737 H   0  0  0  0  0  0  0  0  0  0  0  0
   57.1955   23.1078   42.0727 H   0  0  0  0  0  0  0  0  0  0  0  0
   57.8936   25.5226   46.8600 H   0  0  0  0  0  0  0  0  0  0  0  0
   60.2910   26.7230   48.1679 H   0  0  0  0  0  0  0  0  0  0  0  0
   60.4303   25.6613   46.7257 H   0  0  0  0  0  0  0  0  0  0  0  0
   61.2041   27.2824   46.7257 H   0  0  0  0  0  0  0  0  0  0  0  0
  1  2  1  0
  2  3  1  0
  3  4  2  0
  4  5  1  0
  5  6  1  0
  6  7  1  0
  5  8  2  0
  8  9  1  0
  9 10  1  0
 10 11  2  0
 10 12  1  0
 12 13  1  0
 13 14  2  0
 14 15  1  0
 15 16  1  0
  8 17  1  0
 17 18  2  0
 18 19  1  0
 18  3  1  0
 16 12  2  0
  1 20  1  0
  1 21  1  0
  1 22  1  0
  4 23  1  0
  7 24  1  0
  7 25  1  0
  7 26  1  0
 13 27  1  0
 14 28  1  0
 17 29  1  0
 19 30  1  0
 19 31  1  0
 19 32  1  0
M  CHG  2   9  -1  15  -1
M  END
>  <UniqueID>  (30) 
30

>  <SMILES>  (30) 
COc1cc(OC)c([N-]C(=O)c2cc[n-]n2)cc1C

>  <Energy>  (30) 
65.7392328359072

>  <Genealogy>  (30) 
COc1cc(OC)c([N-]C(=O)c2cc[n-]n2)cc1C (protonated)
COc1cc(OC)c([N-]C(=O)c2cc[n-]n2)cc1C (3D coordinates assigned)
COc1cc(OC)c([N-]C(=O)c2cc[n-]n2)cc1C (optimized conformer: 65.7392328359072 kcal/mol)

>  <smiles>  (30) 
COc1cc(OC)c(NC(=O)c2cc[nH]n2)cc1C

>  <score_type>  (30) 
oracle

>  <origin>  (30) 
adg

>  <m_score__min__energy>  (30) 
-9.8599999999999994

>  <m_primary>  (30) 
energy

$$$$
30:0
     RDKit          3D

 36 38  0  0  0  0  0  0  0  0999 V2000
   59.2380   30.1510   48.3870 C   0  0  0  0  0  0  0  0  0  0  0  0
   58.6380   29.6220   47.1240 C   0  0  0  0  0  0  0  0  0  0  0  0
   58.3710   28.3170   46.9230 N   0  0  0  0  0  0  0  0  0  0  0  0
   57.8510   28.1880   45.7110 N   0  0  0  0  0  0  0  0  0  0  0  0
   57.4510   26.9170   45.1730 C   0  0  0  0  0  0  0  0  0  0  0  0
   56.5450   26.0930   45.8640 C   0  0  0  0  0  0  0  0  0  0  0  0
   56.1470   24.8690   45.3190 C   0  0  0  0  0  0  0  0  0  0  0  0
   56.6400   24.4600   44.0730 C   0  0  0  0  0  0  0  0  0  0  0  0
   56.2280   23.2000   43.5130 C   0  0  0  0  0  0  0  0  0  0  0  0
   55.8970   22.1870   43.0620 N   0  0  0  0  0  0  0  0  0  0  0  0
   57.5260   25.2850   43.3720 C   0  0  0  0  0  0  0  0  0  0  0  0
   57.9240   26.5110   43.9160 C   0  0  0  0  0  0  0  0  0  0  0  0
   57.7520   29.4070   45.1290 C   0  0  0  0  0  0  0  0  0  0  0  0
   57.1110   29.6870   43.7990 C   0  0  0  0  0  0  0  0  0  0  0  0
   58.2580   30.3540   46.0070 C   0  0  0  0  0  0  0  0  0  0  0  0
   58.3560   31.8160   45.8040 C   0  0  0  0  0  0  0  0  0  0  0  0
   59.5190   32.5120   46.1740 C   0  0  0  0  0  0  0  0  0  0  0  0
   59.6070   33.8940   45.9790 C   0  0  0  0  0  0  0  0  0  0  0  0
   58.5370   34.5910   45.4120 C   0  0  0  0  0  0  0  0  0  0  0  0
   57.3760   33.9070   45.0410 C   0  0  0  0  0  0  0  0  0  0  0  0
   57.2850   32.5260   45.2360 C   0  0  0  0  0  0  0  0  0  0  0  0
   58.7280   29.7013   49.2517 H   0  0  0  0  0  0  0  0  0  0  0  0
   60.3077   29.8968   48.4193 H   0  0  0  0  0  0  0  0  0  0  0  0
   59.1198   31.2442   48.4193 H   0  0  0  0  0  0  0  0  0  0  0  0
   56.1475   26.4133   46.8384 H   0  0  0  0  0  0  0  0  0  0  0  0
   55.4451   24.2254   45.8696 H   0  0  0  0  0  0  0  0  0  0  0  0
   57.9106   24.9691   42.3910 H   0  0  0  0  0  0  0  0  0  0  0  0
   58.6119   27.1605   43.3548 H   0  0  0  0  0  0  0  0  0  0  0  0
   56.1135   30.1227   43.9572 H   0  0  0  0  0  0  0  0  0  0  0  0
   57.7347   30.3947   43.2331 H   0  0  0  0  0  0  0  0  0  0  0  0
   57.0156   28.7486   43.2331 H   0  0  0  0  0  0  0  0  0  0  0  0
   60.3645   31.9672   46.6193 H   0  0  0  0  0  0  0  0  0  0  0  0
   60.5199   34.4331   46.2724 H   0  0  0  0  0  0  0  0  0  0  0  0
   58.6083   35.6778   45.2576 H   0  0  0  0  0  0  0  0  0  0  0  0
   56.5334   34.4559   44.5953 H   0  0  0  0  0  0  0  0  0  0  0  0
   56.3692   31.9917   44.9429 H   0  0  0  0  0  0  0  0  0  0  0  0
  1  2  1  0
  2  3  2  0
  3  4  1  0
  4  5  1  0
  5  6  2  0
  6  7  1  0
  7  8  2  0
  8  9  1  0
  9 10  3  0
  8 11  1  0
 11 12  2  0
  4 13  1  0
 13 14  1  0
 13 15  2  0
 15 16  1  0
 16 17  2  0
 17 18  1  0
 18 19  2  0
 19 20  1  0
 20 21  2  0
 15  2  1  0
 21 16  1  0
 12  5  1  0
  1 22  1  0
  1 23  1  0
  1 24  1  0
  6 25  1  0
  7 26  1  0
 11 27  1  0
 12 28  1  0
 14 29  1  0
 14 30  1  0
 14 31  1  0
 17 32  1  0
 18 33  1  0
 19 34  1  0
 20 35  1  0
 21 36  1  0
M  END
>  <UniqueID>  (31) 
31

>  <SMILES>  (31) 
Cc1nn(-c2ccc(C#N)cc2)c(C)c1-c1ccccc1

>  <Energy>  (31) 
76.67763196167991

>  <Genealogy>  (31) 
Cc1nn(-c2ccc(C#N)cc2)c(C)c1-c1ccccc1 (3D coordinates assigned)
Cc1nn(-c2ccc(C#N)cc2)c(C)c1-c1ccccc1 (optimized conformer: 76.67763196167991 kcal/mol)

>  <smiles>  (31) 
Cc1nn(-c2ccc(C#N)cc2)c(C)c1-c1ccccc1

>  <score_type>  (31) 
oracle

>  <origin>  (31) 
adg

>  <m_score__min__energy>  (31) 
-7.4699999999999998

>  <m_primary>  (31) 
energy

$$$$
31:0
     RDKit          3D

 33 34  0  0  0  0  0  0  0  0999 V2000
   56.6070   22.1540   42.8060 C   0  0  0  0  0  0  0  0  0  0  0  0
   57.0880   22.7240   44.1010 C   0  0  0  0  0  0  0  0  0  0  0  0
   56.9580   22.0010   45.2920 C   0  0  0  0  0  0  0  0  0  0  0  0
   57.3850   22.5930   46.4820 C   0  0  0  0  0  0  0  0  0  0  0  0
   57.2920   21.9670   47.5700 O   0  0  0  0  0  0  0  0  0  0  0  0
   57.8990   23.8500   46.4670 N   0  0  0  0  0  0  0  0  0  0  0  0
   58.0050   24.5450   45.3040 C   0  0  0  0  0  0  0  0  0  0  0  0
   58.6570   26.2130   45.3110 S   0  0  0  0  0  0  0  0  0  0  0  0
   57.4940   26.8260   46.5790 C   0  0  0  0  0  0  0  0  0  0  0  0
   56.1510   27.0980   45.9800 C   0  0  0  0  0  0  0  0  0  0  0  0
   55.2270   26.2490   46.1100 O   0  0  0  0  0  0  0  0  0  0  0  0
   55.9340   28.3090   45.2450 N   0  0  0  0  0  0  0  0  0  0  0  0
   56.9520   29.0530   44.4960 C   0  0  0  0  0  0  0  0  0  0  0  0
   57.6660   30.1000   45.3600 C   0  0  0  0  0  0  0  0  0  0  0  0
   57.4290   31.4470   44.6900 C   0  0  0  0  0  0  0  0  0  0  0  0
   57.0560   31.1370   43.2510 C   0  0  0  0  0  0  0  0  0  0  0  0
   56.3560   29.7910   43.2950 C   0  0  0  0  0  0  0  0  0  0  0  0
   57.6010   23.9810   44.1360 N   0  0  0  0  0  0  0  0  0  0  0  0
   55.9094   21.3273   43.0059 H   0  0  0  0  0  0  0  0  0  0  0  0
   56.0924   22.9368   42.2295 H   0  0  0  0  0  0  0  0  0  0  0  0
   57.4652   21.7783   42.2295 H   0  0  0  0  0  0  0  0  0  0  0  0
   56.5287   20.9882   45.2906 H   0  0  0  0  0  0  0  0  0  0  0  0
   57.3897   26.0680   47.3693 H   0  0  0  0  0  0  0  0  0  0  0  0
   57.8900   27.7631   46.9974 H   0  0  0  0  0  0  0  0  0  0  0  0
   57.6694   28.2897   44.1602 H   0  0  0  0  0  0  0  0  0  0  0  0
   57.2477   30.1026   46.3773 H   0  0  0  0  0  0  0  0  0  0  0  0
   58.7407   29.8809   45.4441 H   0  0  0  0  0  0  0  0  0  0  0  0
   56.6097   31.9842   45.1903 H   0  0  0  0  0  0  0  0  0  0  0  0
   58.3209   32.0883   44.7465 H   0  0  0  0  0  0  0  0  0  0  0  0
   56.3804   31.9090   42.8541 H   0  0  0  0  0  0  0  0  0  0  0  0
   57.9392   31.1166   42.5956 H   0  0  0  0  0  0  0  0  0  0  0  0
   55.2724   29.9264   43.4273 H   0  0  0  0  0  0  0  0  0  0  0  0
   56.4994   29.2282   42.3608 H   0  0  0  0  0  0  0  0  0  0  0  0
  1  2  1  0
  2  3  2  0
  3  4  1  0
  4  5  2  0
  4  6  1  0
  6  7  1  0
  7  8  1  0
  8  9  1  0
  9 10  1  0
 10 11  2  0
 10 12  1  0
 12 13  1  0
 13 14  1  0
 14 15  1  0
 15 16  1  0
 16 17  1  0
  7 18  2  0
 18  2  1  0
 17 13  1  0
  1 19  1  0
  1 20  1  0
  1 21  1  0
  3 22  1  0
  9 23  1  0
  9 24  1  0
 13 25  1  0
 14 26  1  0
 14 27  1  0
 15 28  1  0
 15 29  1  0
 16 30  1  0
 16 31  1  0
 17 32  1  0
 17 33  1  0
M  CHG  2   6  -1  12  -1
M  END
>  <UniqueID>  (32) 
32

>  <SMILES>  (32) 
Cc1cc(=O)[n-]c(SCC(=O)[N-]C2CCCC2)n1

>  <Energy>  (32) 
25.37046131449045

>  <Genealogy>  (32) 
Cc1cc(=O)[n-]c(SCC(=O)[N-]C2CCCC2)n1 (protonated)
Cc1cc(=O)[n-]c(SCC(=O)[N-]C2CCCC2)n1 (3D coordinates assigned)
Cc1cc(=O)[n-]c(SCC(=O)[N-]C2CCCC2)n1 (nonaromatic ring conformer: 25.37046131449045 kcal/mol)

>  <smiles>  (32) 
Cc1cc(=O)[nH]c(SCC(=O)NC2CCCC2)n1

>  <score_type>  (32) 
oracle

>  <origin>  (32) 
adg

>  <m_score__min__energy>  (32) 
-10.630000000000001

>  <m_primary>  (32) 
energy

$$$$
32:0
     RDKit          3D

 35 37  0  0  0  0  0  0  0  0999 V2000
   66.2480   32.5100   50.1660 C   0  0  0  0  0  0  0  0  0  0  0  0
   65.2350   33.2050   49.4450 O   0  0  0  0  0  0  0  0  0  0  0  0
   64.0820   32.6030   48.9200 C   0  0  0  0  0  0  0  0  0  0  0  0
   63.6870   32.7720   47.5800 C   0  0  0  0  0  0  0  0  0  0  0  0
   62.5290   32.1500   47.1030 C   0  0  0  0  0  0  0  0  0  0  0  0
   61.7440   31.3560   47.9550 C   0  0  0  0  0  0  0  0  0  0  0  0
   60.5200   30.6900   47.4410 C   0  0  0  0  0  0  0  0  0  0  0  0
   59.6070   31.4110   46.6560 C   0  0  0  0  0  0  0  0  0  0  0  0
   58.5090   30.8330   46.1820 O   0  0  0  0  0  0  0  0  0  0  0  0
   58.2050   29.5600   46.4140 C   0  0  0  0  0  0  0  0  0  0  0  0
   57.0230   29.0260   45.8730 C   0  0  0  0  0  0  0  0  0  0  0  0
   56.2200   29.8860   45.1010 O   0  0  0  0  0  0  0  0  0  0  0  0
   56.2890   30.0610   43.6900 C   0  0  0  0  0  0  0  0  0  0  0  0
   56.7040   27.6680   46.1260 C   0  0  0  0  0  0  0  0  0  0  0  0
   55.5510   27.0810   45.6190 O   0  0  0  0  0  0  0  0  0  0  0  0
   57.5570   26.8820   46.9050 C   0  0  0  0  0  0  0  0  0  0  0  0
   58.7280   27.4190   47.4410 C   0  0  0  0  0  0  0  0  0  0  0  0
   59.0630   28.7590   47.1990 C   0  0  0  0  0  0  0  0  0  0  0  0
   60.2320   29.3410   47.7220 C   0  0  0  0  0  0  0  0  0  0  0  0
   61.0080   28.6640   48.4540 O   0  0  0  0  0  0  0  0  0  0  0  0
   62.1460   31.1840   49.2900 C   0  0  0  0  0  0  0  0  0  0  0  0
   63.3040   31.8050   49.7650 C   0  0  0  0  0  0  0  0  0  0  0  0
   66.0759   32.6281   51.2460 H   0  0  0  0  0  0  0  0  0  0  0  0
   66.2171   31.4420   49.9044 H   0  0  0  0  0  0  0  0  0  0  0  0
   67.2333   32.9232   49.9044 H   0  0  0  0  0  0  0  0  0  0  0  0
   64.2915   33.3958   46.9051 H   0  0  0  0  0  0  0  0  0  0  0  0
   62.2307   32.2836   46.0527 H   0  0  0  0  0  0  0  0  0  0  0  0
   59.8034   32.4695   46.4301 H   0  0  0  0  0  0  0  0  0  0  0  0
   56.6838   31.0624   43.4636 H   0  0  0  0  0  0  0  0  0  0  0  0
   56.9538   29.2985   43.2580 H   0  0  0  0  0  0  0  0  0  0  0  0
   55.2827   29.9573   43.2580 H   0  0  0  0  0  0  0  0  0  0  0  0
   57.3028   25.8293   47.0977 H   0  0  0  0  0  0  0  0  0  0  0  0
   59.3897   26.7900   48.0546 H   0  0  0  0  0  0  0  0  0  0  0  0
   61.5456   30.5568   49.9653 H   0  0  0  0  0  0  0  0  0  0  0  0
   63.6066   31.6650   50.8133 H   0  0  0  0  0  0  0  0  0  0  0  0
  1  2  1  0
  2  3  1  0
  3  4  2  0
  4  5  1  0
  5  6  2  0
  6  7  1  0
  7  8  2  0
  8  9  1  0
  9 10  1  0
 10 11  2  0
 11 12  1  0
 12 13  1  0
 11 14  1  0
 14 15  1  0
 14 16  2  0
 16 17  1  0
 17 18  2  0
 18 19  1  0
 19 20  2  0
  6 21  1  0
 21 22  2  0
 22  3  1  0
 19  7  1  0
 18 10  1  0
  1 23  1  0
  1 24  1  0
  1 25  1  0
  4 26  1  0
  5 27  1  0
  8 28  1  0
 13 29  1  0
 13 30  1  0
 13 31  1  0
 16 32  1  0
 17 33  1  0
 21 34  1  0
 22 35  1  0
M  CHG  1  15  -1
M  END
>  <UniqueID>  (33) 
33

>  <SMILES>  (33) 
COc1ccc(-c2coc3c(OC)c([O-])ccc3c2=O)cc1

>  <Energy>  (33) 
51.68047992244198

>  <Genealogy>  (33) 
COc1ccc(-c2coc3c(OC)c([O-])ccc3c2=O)cc1 (protonated)
COc1ccc(-c2coc3c(OC)c([O-])ccc3c2=O)cc1 (3D coordinates assigned)
COc1ccc(-c2coc3c(OC)c([O-])ccc3c2=O)cc1 (optimized conformer: 51.68047992244198 kcal/mol)

>  <smiles>  (33) 
COc1ccc(-c2coc3c(OC)c(O)ccc3c2=O)cc1

>  <score_type>  (33) 
oracle

>  <origin>  (33) 
adg

>  <m_score__min__energy>  (33) 
-8.9399999999999995

>  <m_primary>  (33) 
energy

$$$$
33:0
     RDKit          3D

 55 58  0  0  0  0  0  0  0  0999 V2000
   65.5590   33.0240   49.7290 C   0  0  0  0  0  0  0  0  0  0  0  0
   64.1720   33.2380   49.2010 C   0  0  0  0  0  0  0  0  0  0  0  0
   63.2090   33.9050   49.9610 C   0  0  0  0  0  0  0  0  0  0  0  0
   61.9490   34.0540   49.4790 N   0  0  0  0  0  0  0  0  0  0  0  0
   61.5880   33.5540   48.2650 C   0  0  0  0  0  0  0  0  0  0  0  0
   60.2420   33.7500   47.7800 N   0  0  0  0  0  0  0  0  0  0  0  0
   59.9630   34.6700   46.6730 C   0  0  0  0  0  0  0  0  0  0  0  0
   59.3090   33.9210   45.4980 C   0  0  0  0  0  0  0  0  0  0  0  0
   58.3390   32.7420   45.9100 C   0  0  0  0  0  0  0  0  0  0  0  0
   57.9150   32.9670   47.4010 C   0  0  0  0  0  0  0  0  0  0  0  0
   59.1190   33.0030   48.3600 C   0  0  0  0  0  0  0  0  0  0  0  0
   57.0090   32.7990   45.0570 C   0  0  0  0  0  0  0  0  0  0  0  0
   56.3150   31.5810   44.8430 O   0  0  0  0  0  0  0  0  0  0  0  0
   57.0360   30.6860   44.0280 C   0  0  0  0  0  0  0  0  0  0  0  0
   57.6460   29.5710   44.8880 C   0  0  0  0  0  0  0  0  0  0  0  0
   58.2790   30.1430   46.0960 N   0  0  0  0  0  0  0  0  0  0  0  0
   59.0990   29.1270   46.7910 C   0  0  0  0  0  0  0  0  0  0  0  0
   59.5400   29.6390   48.1270 C   0  0  0  0  0  0  0  0  0  0  0  0
   58.7460   29.9300   49.2210 C   0  0  0  0  0  0  0  0  0  0  0  0
   59.5230   30.3990   50.2170 N   0  0  0  0  0  0  0  0  0  0  0  0
   60.7750   30.3950   49.7850 N   0  0  0  0  0  0  0  0  0  0  0  0
   61.9020   30.9020   50.5550 C   0  0  0  0  0  0  0  0  0  0  0  0
   60.8250   29.9540   48.5150 C   0  0  0  0  0  0  0  0  0  0  0  0
   59.0890   31.3520   45.8170 C   0  0  0  0  0  0  0  0  0  0  0  0
   62.5130   32.8800   47.5180 N   0  0  0  0  0  0  0  0  0  0  0  0
   63.7850   32.7110   47.9660 C   0  0  0  0  0  0  0  0  0  0  0  0
   65.5372   33.0274   50.8288 H   0  0  0  0  0  0  0  0  0  0  0  0
   65.9417   32.0562   49.3728 H   0  0  0  0  0  0  0  0  0  0  0  0
   66.2156   33.8315   49.3728 H   0  0  0  0  0  0  0  0  0  0  0  0
   63.4714   34.3094   50.9497 H   0  0  0  0  0  0  0  0  0  0  0  0
   59.2818   35.4599   47.0223 H   0  0  0  0  0  0  0  0  0  0  0  0
   60.9111   35.1097   46.3297 H   0  0  0  0  0  0  0  0  0  0  0  0
   58.7303   34.6486   44.9100 H   0  0  0  0  0  0  0  0  0  0  0  0
   60.1321   33.4575   44.9344 H   0  0  0  0  0  0  0  0  0  0  0  0
   57.3778   33.9241   47.4739 H   0  0  0  0  0  0  0  0  0  0  0  0
   57.2781   32.1206   47.6976 H   0  0  0  0  0  0  0  0  0  0  0  0
   58.8141   33.4870   49.2996 H   0  0  0  0  0  0  0  0  0  0  0  0
   59.4477   31.9693   48.5429 H   0  0  0  0  0  0  0  0  0  0  0  0
   56.3188   33.4858   45.5687 H   0  0  0  0  0  0  0  0  0  0  0  0
   57.3326   33.1166   44.0548 H   0  0  0  0  0  0  0  0  0  0  0  0
   56.3576   30.2429   43.2841 H   0  0  0  0  0  0  0  0  0  0  0  0
   57.8431   31.2316   43.5172 H   0  0  0  0  0  0  0  0  0  0  0  0
   56.8531   28.8711   45.1906 H   0  0  0  0  0  0  0  0  0  0  0  0
   58.4105   29.0426   44.2994 H   0  0  0  0  0  0  0  0  0  0  0  0
   58.5024   28.2136   46.9315 H   0  0  0  0  0  0  0  0  0  0  0  0
   59.9878   28.9070   46.1814 H   0  0  0  0  0  0  0  0  0  0  0  0
   57.6549   29.7995   49.2703 H   0  0  0  0  0  0  0  0  0  0  0  0
   61.6856   30.8047   51.6291 H   0  0  0  0  0  0  0  0  0  0  0  0
   62.8044   30.3231   50.3088 H   0  0  0  0  0  0  0  0  0  0  0  0
   62.0674   31.9613   50.3088 H   0  0  0  0  0  0  0  0  0  0  0  0
   61.7298   29.8613   47.8964 H   0  0  0  0  0  0  0  0  0  0  0  0
   59.9194   31.3715   46.5382 H   0  0  0  0  0  0  0  0  0  0  0  0
   59.3986   31.2584   44.7656 H   0  0  0  0  0  0  0  0  0  0  0  0
   62.2550   32.4650   46.5960 H   0  0  0  0  0  0  0  0  0  0  0  0
   64.5125   32.1574   47.3542 H   0  0  0  0  0  0  0  0  0  0  0  0
  1  2  1  0
  2  3  2  0
  3  4  1  0
  4  5  2  0
  5  6  1  0
  6  7  1  0
  7  8  1  0
  8  9  1  0
  9 10  1  0
 10 11  1  0
  9 12  1  0
 12 13  1  0
 13 14  1  0
 14 15  1  0
 15 16  1  0
 16 17  1  0
 17 18  1  0
 18 19  1  0
 19 20  2  0
 20 21  1  0
 21 22  1  0
 21 23  1  0
 16 24  1  0
  5 25  1  0
 25 26  2  0
 26  2  1  0
 11  6  1  0
 23 18  2  0
 24  9  1  0
  1 27  1  0
  1 28  1  0
  1 29  1  0
  3 30  1  0
  7 31  1  0
  7 32  1  0
  8 33  1  0
  8 34  1  0
 10 35  1  0
 10 36  1  0
 11 37  1  0
 11 38  1  0
 12 39  1  0
 12 40  1  0
 14 41  1  0
 14 42  1  0
 15 43  1  0
 15 44  1  0
 17 45  1  0
 17 46  1  0
 19 47  1  0
 22 48  1  0
 22 49  1  0
 22 50  1  0
 23 51  1  0
 24 52  1  0
 24 53  1  0
 25 54  1  0
 26 55  1  0
M  CHG  1  25   1
M  END
>  <UniqueID>  (34) 
34

>  <SMILES>  (34) 
Cc1cnc(N2CCC3(CC2)COCCN(Cc2cnn(C)c2)C3)[nH+]c1

>  <Energy>  (34) 
116.93301760143085

>  <Genealogy>  (34) 
Cc1cnc(N2CCC3(CC2)COCCN(Cc2cnn(C)c2)C3)[nH+]c1 (protonated)
Cc1cnc(N2CCC3(CC2)COCCN(Cc2cnn(C)c2)C3)[nH+]c1 (3D coordinates assigned)
Cc1cnc(N2CCC3(CC2)COCCN(Cc2cnn(C)c2)C3)[nH+]c1 (nonaromatic ring conformer: 116.93301760143085 kcal/mol)

>  <smiles>  (34) 
Cc1cnc(N2CCC3(CC2)COCCN(Cc2cnn(C)c2)C3)nc1

>  <score_type>  (34) 
oracle

>  <origin>  (34) 
adg

>  <m_score__min__energy>  (34) 
-4.9299999999999997

>  <m_primary>  (34) 
energy

$$$$
34:0
     RDKit          3D

 23 24  0  0  0  0  0  0  0  0999 V2000
   56.9540   30.3110   42.8640 O   0  0  0  0  0  0  0  0  0  0  0  0
   57.4910   30.3760   44.0020 C   0  0  0  0  0  0  0  0  0  0  0  0
   57.9870   31.6840   44.4970 C   0  0  0  0  0  0  0  0  0  0  0  0
   58.1380   31.8820   45.8830 C   0  0  0  0  0  0  0  0  0  0  0  0
   58.5810   33.1080   46.3820 C   0  0  0  0  0  0  0  0  0  0  0  0
   58.8800   34.1530   45.5070 C   0  0  0  0  0  0  0  0  0  0  0  0
   58.7370   33.9730   44.1300 C   0  0  0  0  0  0  0  0  0  0  0  0
   58.2910   32.7470   43.6170 C   0  0  0  0  0  0  0  0  0  0  0  0
   58.1900   32.5750   41.8670 Cl  0  0  0  0  0  0  0  0  0  0  0  0
   57.5750   29.1450   44.8320 C   0  0  0  0  0  0  0  0  0  0  0  0
   56.4090   28.4760   45.2460 C   0  0  0  0  0  0  0  0  0  0  0  0
   55.1520   28.9680   44.9060 O   0  0  0  0  0  0  0  0  0  0  0  0
   56.5000   27.3480   46.0000 N   0  0  0  0  0  0  0  0  0  0  0  0
   57.7110   26.8470   46.3650 C   0  0  0  0  0  0  0  0  0  0  0  0
   57.8070   25.4920   47.2780 S   0  0  0  0  0  0  0  0  0  0  0  0
   58.8500   27.4670   45.9690 N   0  0  0  0  0  0  0  0  0  0  0  0
   58.8140   28.5930   45.2130 C   0  0  0  0  0  0  0  0  0  0  0  0
   59.8980   29.1190   44.8440 O   0  0  0  0  0  0  0  0  0  0  0  0
   57.9046   31.0628   46.5790 H   0  0  0  0  0  0  0  0  0  0  0  0
   58.6946   33.2506   47.4668 H   0  0  0  0  0  0  0  0  0  0  0  0
   59.2284   35.1186   45.9022 H   0  0  0  0  0  0  0  0  0  0  0  0
   58.9758   34.7984   43.4432 H   0  0  0  0  0  0  0  0  0  0  0  0
   55.6220   26.8680   46.3050 H   0  0  0  0  0  0  0  0  0  0  0  0
  1  2  2  0
  2  3  1  0
  3  4  2  0
  4  5  1  0
  5  6  2  0
  6  7  1  0
  7  8  2  0
  8  9  1  0
  2 10  1  0
 10 11  2  0
 11 12  1  0
 11 13  1  0
 13 14  1  0
 14 15  2  0
 14 16  1  0
 16 17  1  0
 17 18  2  0
  8  3  1  0
 17 10  1  0
  4 19  1  0
  5 20  1  0
  6 21  1  0
  7 22  1  0
 13 23  1  0
M  CHG  2  12  -1  16  -1
M  END
>  <UniqueID>  (35) 
35

>  <SMILES>  (35) 
O=C(c1ccccc1Cl)c1c([O-])[nH]c(=S)[n-]c1=O

>  <Energy>  (35) 
36.010141798889286

>  <Genealogy>  (35) 
O=C(c1ccccc1Cl)c1c([O-])[nH]c(=S)[n-]c1=O (protonated)
O=C(c1ccccc1Cl)c1c([O-])[nH]c(=S)[n-]c1=O (3D coordinates assigned)
O=C(c1ccccc1Cl)c1c([O-])[nH]c(=S)[n-]c1=O (optimized conformer: 36.010141798889286 kcal/mol)

>  <smiles>  (35) 
O=C(c1ccccc1Cl)c1c(O)[nH]c(=S)[nH]c1=O

>  <score_type>  (35) 
oracle

>  <origin>  (35) 
adg

>  <m_score__min__energy>  (35) 
-12.07

>  <m_primary>  (35) 
energy

$$$$
35:0
     RDKit          3D

 31 32  0  0  0  0  0  0  0  0999 V2000
   57.6691   34.9942   45.4383 H   0  0  0  0  0  0  0  0  0  0  0  0
   58.2020   34.2150   46.0030 C   0  0  0  0  0  0  0  0  0  0  0  0
   58.8930   34.6030   47.0860 C   0  0  0  0  0  0  0  0  0  0  0  0
   58.3779   35.2540   47.8077 H   0  0  0  0  0  0  0  0  0  0  0  0
   60.2920   34.2260   47.3880 C   0  0  0  0  0  0  0  0  0  0  0  0
   61.1850   33.8420   46.3730 C   0  0  0  0  0  0  0  0  0  0  0  0
   60.8516   33.8346   45.3248 H   0  0  0  0  0  0  0  0  0  0  0  0
   62.4960   33.4690   46.6890 C   0  0  0  0  0  0  0  0  0  0  0  0
   63.1928   33.1866   45.8860 H   0  0  0  0  0  0  0  0  0  0  0  0
   62.9280   33.4530   48.0270 C   0  0  0  0  0  0  0  0  0  0  0  0
   64.2710   33.0750   48.3850 N   0  0  0  0  0  0  0  0  0  0  0  0
   64.9270   32.7660   47.6320 H   0  0  0  0  0  0  0  0  0  0  0  0
   64.7740   33.0900   49.7550 C   0  0  0  0  0  0  0  0  0  0  0  0
   63.9273   33.0648   50.4568 H   0  0  0  0  0  0  0  0  0  0  0  0
   65.4137   32.2105   49.9204 H   0  0  0  0  0  0  0  0  0  0  0  0
   65.3601   34.0060   49.9204 H   0  0  0  0  0  0  0  0  0  0  0  0
   62.0230   33.8070   49.0400 C   0  0  0  0  0  0  0  0  0  0  0  0
   62.3469   33.7901   50.0911 H   0  0  0  0  0  0  0  0  0  0  0  0
   60.7130   34.1810   48.7240 C   0  0  0  0  0  0  0  0  0  0  0  0
   60.0093   34.4413   49.5284 H   0  0  0  0  0  0  0  0  0  0  0  0
   58.0980   32.8250   45.5060 C   0  0  0  0  0  0  0  0  0  0  0  0
   57.7620   32.5440   44.1680 C   0  0  0  0  0  0  0  0  0  0  0  0
   57.5892   33.3695   43.4619 H   0  0  0  0  0  0  0  0  0  0  0  0
   57.6470   31.2210   43.7330 C   0  0  0  0  0  0  0  0  0  0  0  0
   57.4003   31.0078   42.6824 H   0  0  0  0  0  0  0  0  0  0  0  0
   57.8450   30.1680   44.6310 C   0  0  0  0  0  0  0  0  0  0  0  0
   57.7000   28.5080   44.0830 Cl  0  0  0  0  0  0  0  0  0  0  0  0
   58.1490   30.4400   45.9690 C   0  0  0  0  0  0  0  0  0  0  0  0
   58.2963   29.6118   46.6778 H   0  0  0  0  0  0  0  0  0  0  0  0
   58.2660   31.7620   46.4070 C   0  0  0  0  0  0  0  0  0  0  0  0
   58.4909   31.9705   47.4634 H   0  0  0  0  0  0  0  0  0  0  0  0
  1  2  1  0
  2  3  2  0
  3  4  1  0
  3  5  1  0
  5  6  2  0
  6  7  1  0
  6  8  1  0
  8  9  1  0
  8 10  2  0
 10 11  1  0
 11 12  1  0
 11 13  1  0
 13 14  1  0
 13 15  1  0
 13 16  1  0
 10 17  1  0
 17 18  1  0
 17 19  2  0
 19 20  1  0
  2 21  1  0
 21 22  2  0
 22 23  1  0
 22 24  1  0
 24 25  1  0
 24 26  2  0
 26 27  1  0
 26 28  1  0
 28 29  1  0
 28 30  2  0
 30 31  1  0
 19  5  1  0
 30 21  1  0
M  END
>  <UniqueID>  (36) 
36

>  <SMILES>  (36) 
CNc1ccc(/C=C\c2ccc(Cl)cc2)cc1

>  <Energy>  (36) 
39.35493505741204

>  <Genealogy>  (36) 
CNc1ccc(/C=C\c2ccc(Cl)cc2)cc1 (cis-trans isomerization)
CNc1ccc(/C=C\c2ccc(Cl)cc2)cc1 (3D coordinates assigned)
CNc1ccc(/C=C\c2ccc(Cl)cc2)cc1 (optimized conformer: 39.35493505741204 kcal/mol)

>  <smiles>  (36) 
CNc1ccc(C=Cc2ccc(Cl)cc2)cc1

>  <score_type>  (36) 
oracle

>  <origin>  (36) 
adg

>  <m_score__min__energy>  (36) 
-7.1299999999999999

>  <m_primary>  (36) 
energy

$$$$
36:0
     RDKit          3D

 45 48  0  0  0  0  0  0  0  0999 V2000
   57.3890   32.2870   51.0630 O   0  0  0  0  0  0  0  0  0  0  0  0
   58.9360   32.5100   50.4500 S   0  0  0  0  0  0  0  0  0  0  0  0
   59.9150   31.0280   50.5830 C   0  0  0  0  0  0  0  0  0  0  0  0
   59.9820   30.3210   49.2510 C   0  0  0  0  0  0  0  0  0  0  0  0
   59.0400   29.3140   48.9680 C   0  0  0  0  0  0  0  0  0  0  0  0
   59.0340   28.6760   47.7260 C   0  0  0  0  0  0  0  0  0  0  0  0
   59.9610   29.0370   46.7490 C   0  0  0  0  0  0  0  0  0  0  0  0
   60.8940   30.0420   47.0070 C   0  0  0  0  0  0  0  0  0  0  0  0
   60.9140   30.6950   48.2500 C   0  0  0  0  0  0  0  0  0  0  0  0
   61.8700   31.7460   48.4660 N   0  0  0  0  0  0  0  0  0  0  0  0
   62.1260   32.7190   47.3990 C   0  0  0  0  0  0  0  0  0  0  0  0
   63.2890   33.6410   47.7790 C   0  0  0  0  0  0  0  0  0  0  0  0
   64.4400   32.8510   48.2450 N   0  0  0  0  0  0  0  0  0  0  0  0
   64.1450   31.9620   49.3970 C   0  0  0  0  0  0  0  0  0  0  0  0
   62.6440   31.8080   49.7070 C   0  0  0  0  0  0  0  0  0  0  0  0
   58.8800   33.0950   48.8030 C   0  0  0  0  0  0  0  0  0  0  0  0
   59.6410   34.1330   48.3690 N   0  0  0  0  0  0  0  0  0  0  0  0
   59.2490   34.2590   47.0940 C   0  0  0  0  0  0  0  0  0  0  0  0
   59.6990   35.1820   46.1520 C   0  0  0  0  0  0  0  0  0  0  0  0
   59.1310   35.1300   44.8650 C   0  0  0  0  0  0  0  0  0  0  0  0
   58.1430   34.1660   44.5570 C   0  0  0  0  0  0  0  0  0  0  0  0
   57.7130   33.2490   45.5360 C   0  0  0  0  0  0  0  0  0  0  0  0
   58.2960   33.3320   46.7990 C   0  0  0  0  0  0  0  0  0  0  0  0
   58.0370   32.5740   47.8730 N   0  0  0  0  0  0  0  0  0  0  0  0
   56.7940   32.4040   50.2790 H   0  0  0  0  0  0  0  0  0  0  0  0
   60.9330   31.2936   50.9041 H   0  0  0  0  0  0  0  0  0  0  0  0
   59.4493   30.3574   51.3202 H   0  0  0  0  0  0  0  0  0  0  0  0
   58.3023   29.0272   49.7319 H   0  0  0  0  0  0  0  0  0  0  0  0
   58.2964   27.8869   47.5179 H   0  0  0  0  0  0  0  0  0  0  0  0
   59.9568   28.5288   45.7734 H   0  0  0  0  0  0  0  0  0  0  0  0
   61.6197   30.3250   46.2304 H   0  0  0  0  0  0  0  0  0  0  0  0
   62.3780   32.1820   46.4726 H   0  0  0  0  0  0  0  0  0  0  0  0
   61.2229   33.3293   47.2509 H   0  0  0  0  0  0  0  0  0  0  0  0
   63.5865   34.2304   46.8991 H   0  0  0  0  0  0  0  0  0  0  0  0
   62.9637   34.3094   48.5898 H   0  0  0  0  0  0  0  0  0  0  0  0
   65.2080   33.5130   48.5110 H   0  0  0  0  0  0  0  0  0  0  0  0
   64.7940   32.2730   47.4420 H   0  0  0  0  0  0  0  0  0  0  0  0
   64.5561   30.9655   49.1780 H   0  0  0  0  0  0  0  0  0  0  0  0
   64.6045   32.4274   50.2815 H   0  0  0  0  0  0  0  0  0  0  0  0
   62.4854   30.8823   50.2797 H   0  0  0  0  0  0  0  0  0  0  0  0
   62.3098   32.6770   50.2928 H   0  0  0  0  0  0  0  0  0  0  0  0
   60.4702   35.9244   46.4049 H   0  0  0  0  0  0  0  0  0  0  0  0
   59.4576   35.8435   44.0941 H   0  0  0  0  0  0  0  0  0  0  0  0
   57.7079   34.1321   43.5473 H   0  0  0  0  0  0  0  0  0  0  0  0
   56.9446   32.4945   45.3116 H   0  0  0  0  0  0  0  0  0  0  0  0
  2  1  1  6
  2  3  1  0
  3  4  1  0
  4  5  2  0
  5  6  1  0
  6  7  2  0
  7  8  1  0
  8  9  2  0
  9 10  1  0
 10 11  1  0
 11 12  1  0
 12 13  1  0
 13 14  1  0
 14 15  1  0
  2 16  1  0
 16 17  2  0
 17 18  1  0
 18 19  2  0
 19 20  1  0
 20 21  2  0
 21 22  1  0
 22 23  2  0
 23 24  1  0
  9  4  1  0
 15 10  1  0
 24 16  1  0
 23 18  1  0
  1 25  1  0
  3 26  1  0
  3 27  1  0
  5 28  1  0
  6 29  1  0
  7 30  1  0
  8 31  1  0
 11 32  1  0
 11 33  1  0
 12 34  1  0
 12 35  1  0
 13 36  1  0
 13 37  1  0
 14 38  1  0
 14 39  1  0
 15 40  1  0
 15 41  1  0
 19 42  1  0
 20 43  1  0
 21 44  1  0
 22 45  1  0
M  CHG  3   2   1  13   1  24  -1
M  END
>  <UniqueID>  (37) 
37

>  <SMILES>  (37) 
O[S@@+](Cc1ccccc1N1CC[NH2+]CC1)c1nc2ccccc2[n-]1

>  <Energy>  (37) 
87.08342537846305

>  <Genealogy>  (37) 
O[S+](Cc1ccccc1N1CC[NH2+]CC1)c1nc2ccccc2[n-]1 (protonated)
O[S@@+](Cc1ccccc1N1CC[NH2+]CC1)c1nc2ccccc2[n-]1 (chirality)
O[S@@+](Cc1ccccc1N1CC[NH2+]CC1)c1nc2ccccc2[n-]1 (3D coordinates assigned)
O[S@@+](Cc1ccccc1N1CC[NH2+]CC1)c1nc2ccccc2[n-]1 (nonaromatic ring conformer: 87.08342537846305 kcal/mol)

>  <smiles>  (37) 
[O-][S+](Cc1ccccc1N1CCNCC1)c1nc2ccccc2[nH]1

>  <score_type>  (37) 
oracle

>  <origin>  (37) 
adg

>  <m_score__min__energy>  (37) 
-5.9199999999999999

>  <m_primary>  (37) 
energy

$$$$
37:0
     RDKit          3D

 55 59  0  0  0  0  0  0  0  0999 V2000
   58.5870   34.2930   52.7460 C   0  0  0  0  0  0  0  0  0  0  0  0
   58.8110   33.3540   51.7010 O   0  0  0  0  0  0  0  0  0  0  0  0
   60.0320   33.1830   51.0280 C   0  0  0  0  0  0  0  0  0  0  0  0
   61.2130   33.8150   51.4610 C   0  0  0  0  0  0  0  0  0  0  0  0
   62.4090   33.6360   50.7650 C   0  0  0  0  0  0  0  0  0  0  0  0
   62.4490   32.8270   49.6210 C   0  0  0  0  0  0  0  0  0  0  0  0
   63.7350   32.6320   48.8660 C   0  0  0  0  0  0  0  0  0  0  0  0
   63.4010   32.1670   47.1310 S   0  0  0  0  0  0  0  0  0  0  0  0
   63.0180   33.8550   46.5580 C   0  0  0  0  0  0  0  0  0  0  0  0
   61.2800   32.1890   49.1890 C   0  0  0  0  0  0  0  0  0  0  0  0
   60.0710   32.3590   49.8850 C   0  0  0  0  0  0  0  0  0  0  0  0
   58.8130   31.7110   49.3600 C   0  0  0  0  0  0  0  0  0  0  0  0
   58.7430   31.8530   47.9030 N   0  0  0  0  0  0  0  0  0  0  0  0
   58.9120   32.9690   47.1410 C   0  0  0  0  0  0  0  0  0  0  0  0
   59.1760   34.2770   47.5650 C   0  0  0  0  0  0  0  0  0  0  0  0
   59.3190   35.2770   46.5840 C   0  0  0  0  0  0  0  0  0  0  0  0
   59.2040   34.9620   45.2120 C   0  0  0  0  0  0  0  0  0  0  0  0
   58.9380   33.6430   44.8010 C   0  0  0  0  0  0  0  0  0  0  0  0
   58.7960   32.6740   45.7910 C   0  0  0  0  0  0  0  0  0  0  0  0
   58.5490   31.3240   45.7250 C   0  0  0  0  0  0  0  0  0  0  0  0
   58.3750   30.5030   44.6620 N   0  0  0  0  0  0  0  0  0  0  0  0
   58.1750   29.1670   44.8950 C   0  0  0  0  0  0  0  0  0  0  0  0
   58.1300   28.6830   46.2430 C   0  0  0  0  0  0  0  0  0  0  0  0
   58.3210   29.5530   47.2810 N   0  0  0  0  0  0  0  0  0  0  0  0
   58.5200   30.8630   47.0090 C   0  0  0  0  0  0  0  0  0  0  0  0
   57.9940   27.2170   46.5520 C   0  0  0  0  0  0  0  0  0  0  0  0
   57.4100   26.4210   45.3820 C   0  0  0  0  0  0  0  0  0  0  0  0
   58.1280   26.7760   44.0790 C   0  0  0  0  0  0  0  0  0  0  0  0
   57.9030   28.2500   43.7290 C   0  0  0  0  0  0  0  0  0  0  0  0
   58.7060   33.7940   53.7191 H   0  0  0  0  0  0  0  0  0  0  0  0
   59.3145   35.1139   52.6635 H   0  0  0  0  0  0  0  0  0  0  0  0
   57.5673   34.6971   52.6635 H   0  0  0  0  0  0  0  0  0  0  0  0
   61.1928   34.4552   52.3553 H   0  0  0  0  0  0  0  0  0  0  0  0
   63.3256   34.1325   51.1160 H   0  0  0  0  0  0  0  0  0  0  0  0
   64.3102   33.5695   48.8843 H   0  0  0  0  0  0  0  0  0  0  0  0
   64.3072   31.8238   49.3449 H   0  0  0  0  0  0  0  0  0  0  0  0
   62.8689   34.5123   47.4273 H   0  0  0  0  0  0  0  0  0  0  0  0
   63.8529   34.2343   45.9505 H   0  0  0  0  0  0  0  0  0  0  0  0
   62.1012   33.8368   45.9505 H   0  0  0  0  0  0  0  0  0  0  0  0
   61.3082   31.5480   48.2955 H   0  0  0  0  0  0  0  0  0  0  0  0
   58.8178   30.6425   49.6215 H   0  0  0  0  0  0  0  0  0  0  0  0
   57.9392   32.2032   49.8119 H   0  0  0  0  0  0  0  0  0  0  0  0
   59.2691   34.5167   48.6345 H   0  0  0  0  0  0  0  0  0  0  0  0
   59.5223   36.3140   46.8893 H   0  0  0  0  0  0  0  0  0  0  0  0
   59.3234   35.7545   44.4585 H   0  0  0  0  0  0  0  0  0  0  0  0
   58.8455   33.3863   43.7354 H   0  0  0  0  0  0  0  0  0  0  0  0
   58.3930   30.8840   43.6890 H   0  0  0  0  0  0  0  0  0  0  0  0
   58.9890   26.8134   46.7910 H   0  0  0  0  0  0  0  0  0  0  0  0
   57.3017   27.1181   47.4011 H   0  0  0  0  0  0  0  0  0  0  0  0
   57.5307   25.3457   45.5801 H   0  0  0  0  0  0  0  0  0  0  0  0
   56.3438   26.6712   45.2794 H   0  0  0  0  0  0  0  0  0  0  0  0
   59.2060   26.5923   44.1977 H   0  0  0  0  0  0  0  0  0  0  0  0
   57.7248   26.1515   43.2682 H   0  0  0  0  0  0  0  0  0  0  0  0
   58.5742   28.5227   42.9013 H   0  0  0  0  0  0  0  0  0  0  0  0
   56.8463   28.3699   43.4481 H   0  0  0  0  0  0  0  0  0  0  0  0
  1  2  1  0
  2  3  1  0
  3  4  2  0
  4  5  1  0
  5  6  2  0
  6  7  1  0
  7  8  1  0
  8  9  1  0
  6 10  1  0
 10 11  2  0
 11 12  1  0
 12 13  1  0
 13 14  1  0
 14 15  2  0
 15 16  1  0
 16 17  2  0
 17 18  1  0
 18 19  2  0
 19 20  1  0
 20 21  2  0
 21 22  1  0
 22 23  2  0
 23 24  1  0
 24 25  2  0
 23 26  1  0
 26 27  1  0
 27 28  1  0
 28 29  1  0
 11  3  1  0
 25 13  1  0
 19 14  1  0
 25 20  1  0
 29 22  1  0
  1 30  1  0
  1 31  1  0
  1 32  1  0
  4 33  1  0
  5 34  1  0
  7 35  1  0
  7 36  1  0
  9 37  1  0
  9 38  1  0
  9 39  1  0
 10 40  1  0
 12 41  1  0
 12 42  1  0
 15 43  1  0
 16 44  1  0
 17 45  1  0
 18 46  1  0
 21 47  1  0
 26 48  1  0
 26 49  1  0
 27 50  1  0
 27 51  1  0
 28 52  1  0
 28 53  1  0
 29 54  1  0
 29 55  1  0
M  CHG  1  21   1
M  END
>  <UniqueID>  (38) 
38

>  <SMILES>  (38) 
COc1ccc(CSC)cc1Cn1c2ccccc2c2[nH+]c3c(nc21)CCCC3

>  <Energy>  (38) 
97.85447555202215

>  <Genealogy>  (38) 
COc1ccc(CSC)cc1Cn1c2ccccc2c2[nH+]c3c(nc21)CCCC3 (protonated)
COc1ccc(CSC)cc1Cn1c2ccccc2c2[nH+]c3c(nc21)CCCC3 (3D coordinates assigned)
COc1ccc(CSC)cc1Cn1c2ccccc2c2[nH+]c3c(nc21)CCCC3 (nonaromatic ring conformer: 97.85447555202215 kcal/mol)

>  <smiles>  (38) 
COc1ccc(CSC)cc1Cn1c2ccccc2c2nc3c(nc21)CCCC3

>  <score_type>  (38) 
oracle

>  <origin>  (38) 
adg

>  <m_score__min__energy>  (38) 
-6.7999999999999998

>  <m_primary>  (38) 
energy

$$$$
38:0
     RDKit          3D

 56 61  0  0  0  0  0  0  0  0999 V2000
   57.7110   32.0130   50.5180 C   0  0  0  0  0  0  0  0  0  0  0  0
   59.2250   31.8800   50.7340 C   0  0  1  0  0  0  0  0  0  0  0  0
   59.5420   30.5890   51.4890 C   0  0  0  0  0  0  0  0  0  0  0  0
   60.7800   30.2700   51.9260 C   0  0  0  0  0  0  0  0  0  0  0  0
   62.0020   31.0110   51.5280 C   0  0  0  0  0  0  0  0  0  0  0  0
   62.1750   31.4030   50.2530 C   0  0  0  0  0  0  0  0  0  0  0  0
   61.1280   31.0790   49.3270 N   0  0  0  0  0  0  0  0  0  0  0  0
   61.5760   30.5310   48.0400 C   0  0  0  0  0  0  0  0  0  0  0  0
   62.7860   31.3420   47.5240 C   0  0  0  0  0  0  0  0  0  0  0  0
   62.8400   32.7320   48.2200 C   0  0  1  0  0  0  0  0  0  0  0  0
   61.5290   33.3950   47.9720 N   0  0  0  0  0  0  0  0  0  0  0  0
   61.2190   34.0450   46.6980 C   0  0  0  0  0  0  0  0  0  0  0  0
   59.8490   33.6320   46.2340 C   0  0  0  0  0  0  0  0  0  0  0  0
   58.8610   34.6030   46.0000 C   0  0  0  0  0  0  0  0  0  0  0  0
   57.5710   34.2190   45.6190 C   0  0  0  0  0  0  0  0  0  0  0  0
   57.2560   32.8630   45.4790 C   0  0  0  0  0  0  0  0  0  0  0  0
   58.2290   31.8910   45.7260 C   0  0  0  0  0  0  0  0  0  0  0  0
   59.5220   32.2710   46.1060 C   0  0  0  0  0  0  0  0  0  0  0  0
   60.5780   33.4270   49.0580 C   0  0  0  0  0  0  0  0  0  0  0  0
   61.0620   34.1310   50.0930 C   0  0  0  0  0  0  0  0  0  0  0  0
   62.4790   33.8510   50.4170 C   0  0  0  0  0  0  0  0  0  0  0  0
   63.1330   34.6450   51.1450 O   0  0  0  0  0  0  0  0  0  0  0  0
   63.0850   32.5750   49.8010 C   0  0  1  0  0  0  0  0  0  0  0  0
   64.5700   32.3750   50.2030 C   0  0  0  0  0  0  0  0  0  0  0  0
   65.5550   33.3780   50.0170 C   0  0  0  0  0  0  0  0  0  0  0  0
   66.8890   33.1580   50.3710 C   0  0  0  0  0  0  0  0  0  0  0  0
   67.2790   31.9430   50.9290 C   0  0  0  0  0  0  0  0  0  0  0  0
   66.3310   30.9480   51.1480 C   0  0  0  0  0  0  0  0  0  0  0  0
   64.9940   31.1600   50.7970 C   0  0  0  0  0  0  0  0  0  0  0  0
   59.9960   32.0260   49.3660 C   0  0  2  0  0  0  0  0  0  0  0  0
   57.2040   32.0575   51.4932 H   0  0  0  0  0  0  0  0  0  0  0  0
   57.5007   32.9331   49.9530 H   0  0  0  0  0  0  0  0  0  0  0  0
   57.3435   31.1437   49.9530 H   0  0  0  0  0  0  0  0  0  0  0  0
   59.5837   32.7027   51.3700 H   0  0  0  0  0  0  0  0  0  0  0  0
   58.7208   29.8843   51.6864 H   0  0  0  0  0  0  0  0  0  0  0  0
   60.8874   29.4170   52.6122 H   0  0  0  0  0  0  0  0  0  0  0  0
   62.7711   31.2412   52.2800 H   0  0  0  0  0  0  0  0  0  0  0  0
   61.8699   29.4793   48.1724 H   0  0  0  0  0  0  0  0  0  0  0  0
   60.7554   30.5951   47.3103 H   0  0  0  0  0  0  0  0  0  0  0  0
   63.7123   30.7905   47.7424 H   0  0  0  0  0  0  0  0  0  0  0  0
   62.6821   31.4888   46.4388 H   0  0  0  0  0  0  0  0  0  0  0  0
   63.6718   33.3282   47.8167 H   0  0  0  0  0  0  0  0  0  0  0  0
   61.2462   35.1368   46.8292 H   0  0  0  0  0  0  0  0  0  0  0  0
   61.9630   33.7428   45.9462 H   0  0  0  0  0  0  0  0  0  0  0  0
   59.1029   35.6697   46.1169 H   0  0  0  0  0  0  0  0  0  0  0  0
   56.8035   34.9838   45.4293 H   0  0  0  0  0  0  0  0  0  0  0  0
   56.2427   32.5622   45.1746 H   0  0  0  0  0  0  0  0  0  0  0  0
   57.9787   30.8250   45.6217 H   0  0  0  0  0  0  0  0  0  0  0  0
   60.2836   31.5026   46.3048 H   0  0  0  0  0  0  0  0  0  0  0  0
   60.4554   34.8567   50.6546 H   0  0  0  0  0  0  0  0  0  0  0  0
   65.2637   34.3473   49.5861 H   0  0  0  0  0  0  0  0  0  0  0  0
   67.6355   33.9493   50.2079 H   0  0  0  0  0  0  0  0  0  0  0  0
   68.3322   31.7705   51.1956 H   0  0  0  0  0  0  0  0  0  0  0  0
   66.6344   29.9915   51.5987 H   0  0  0  0  0  0  0  0  0  0  0  0
   64.2556   30.3668   50.9860 H   0  0  0  0  0  0  0  0  0  0  0  0
   59.2245   31.8242   48.6084 H   0  0  0  0  0  0  0  0  0  0  0  0
  1  2  1  0
  2  3  1  0
  3  4  2  0
  4  5  1  0
  5  6  2  0
  6  7  1  0
  7  8  1  0
  8  9  1  0
  9 10  1  0
 10 11  1  0
 11 12  1  0
 12 13  1  0
 13 14  2  0
 14 15  1  0
 15 16  2  0
 16 17  1  0
 17 18  2  0
 11 19  1  0
 19 20  2  0
 20 21  1  0
 21 22  2  0
 21 23  1  0
 23 24  1  6
 24 25  2  0
 25 26  1  0
 26 27  2  0
 27 28  1  0
 28 29  2  0
 19 30  1  0
 30  2  1  0
 23  6  1  0
 29 24  1  0
 30  7  1  0
 23 10  1  0
 18 13  1  0
  1 31  1  0
  1 32  1  0
  1 33  1  0
  2 34  1  1
  3 35  1  0
  4 36  1  0
  5 37  1  0
  8 38  1  0
  8 39  1  0
  9 40  1  0
  9 41  1  0
 10 42  1  6
 12 43  1  0
 12 44  1  0
 14 45  1  0
 15 46  1  0
 16 47  1  0
 17 48  1  0
 18 49  1  0
 20 50  1  0
 25 51  1  0
 26 52  1  0
 27 53  1  0
 28 54  1  0
 29 55  1  0
 30 56  1  6
M  END
>  <UniqueID>  (39) 
39

>  <SMILES>  (39) 
C[C@H]1C=CC=C2N3CC[C@H]4N(Cc5ccccc5)C(=CC(=O)C24c2ccccc2)C13

>  <Energy>  (39) 
166.87712348167386

>  <Genealogy>  (39) 
C[C@H]1C=CC=C2N3CC[C@H]4N(Cc5ccccc5)C(=CC(=O)C24c2ccccc2)C13 (chirality)
C[C@H]1C=CC=C2N3CC[C@H]4N(Cc5ccccc5)C(=CC(=O)C24c2ccccc2)C13 (3D coordinates assigned)
C[C@H]1C=CC=C2N3CC[C@H]4N(Cc5ccccc5)C(=CC(=O)C24c2ccccc2)C13 (nonaromatic ring conformer: 166.87712348167386 kcal/mol)

>  <smiles>  (39) 
CC1C=CC=C2N3CCC4N(Cc5ccccc5)C(=CC(=O)C24c2ccccc2)C13

>  <score_type>  (39) 
oracle

>  <origin>  (39) 
adg

>  <m_score__min__energy>  (39) 
-7.3499999999999996

>  <m_primary>  (39) 
energy

$$$$
39:0
     RDKit          3D

 23 24  0  0  0  0  0  0  0  0999 V2000
   56.2700   29.7750   42.6060 C   0  0  0  0  0  0  0  0  0  0  0  0
   56.5950   29.8910   44.0690 C   0  0  0  0  0  0  0  0  0  0  0  0
   55.7230   29.7390   44.9940 N   0  0  0  0  0  0  0  0  0  0  0  0
   57.9260   30.1950   44.4330 N   0  0  0  0  0  0  0  0  0  0  0  0
   58.2680   31.0480   45.5200 C   0  0  0  0  0  0  0  0  0  0  0  0
   58.6610   30.4830   46.7290 C   0  0  0  0  0  0  0  0  0  0  0  0
   58.9870   31.2650   47.8260 C   0  0  0  0  0  0  0  0  0  0  0  0
   58.9350   32.6220   47.7690 C   0  0  0  0  0  0  0  0  0  0  0  0
   58.5410   33.2120   46.5580 C   0  0  0  0  0  0  0  0  0  0  0  0
   58.3890   34.5130   46.1910 N   0  0  0  0  0  0  0  0  0  0  0  0
   57.9880   34.5590   44.9260 N   0  0  0  0  0  0  0  0  0  0  0  0
   57.8690   33.3040   44.4380 C   0  0  0  0  0  0  0  0  0  0  0  0
   58.2150   32.4210   45.4570 C   0  0  0  0  0  0  0  0  0  0  0  0
   55.2401   29.4074   42.4872 H   0  0  0  0  0  0  0  0  0  0  0  0
   56.3641   30.7622   42.1301 H   0  0  0  0  0  0  0  0  0  0  0  0
   56.9680   29.0705   42.1301 H   0  0  0  0  0  0  0  0  0  0  0  0
   55.8430   29.7180   46.0030 H   0  0  0  0  0  0  0  0  0  0  0  0
   58.7310   29.7870   43.8870 H   0  0  0  0  0  0  0  0  0  0  0  0
   58.7144   29.3878   46.8166 H   0  0  0  0  0  0  0  0  0  0  0  0
   59.2943   30.7770   48.7627 H   0  0  0  0  0  0  0  0  0  0  0  0
   59.1932   33.2376   48.6433 H   0  0  0  0  0  0  0  0  0  0  0  0
   58.5650   35.3340   46.8270 H   0  0  0  0  0  0  0  0  0  0  0  0
   57.5555   33.0301   43.4198 H   0  0  0  0  0  0  0  0  0  0  0  0
  1  2  1  0
  2  3  2  3
  2  4  1  0
  4  5  1  0
  5  6  2  0
  6  7  1  0
  7  8  2  0
  8  9  1  0
  9 10  1  0
 10 11  1  0
 11 12  2  0
 12 13  1  0
 13  5  1  0
 13  9  2  0
  1 14  1  0
  1 15  1  0
  1 16  1  0
  3 17  1  0
  4 18  1  0
  6 19  1  0
  7 20  1  0
  8 21  1  0
 10 22  1  0
 12 23  1  0
M  END
>  <smiles>  (40) 
CC(=N)Nc1cccc2[nH]ncc12

>  <score_type>  (40) 
oracle

>  <origin>  (40) 
adg

>  <m_score__min__energy>  (40) 
-5.5700000000000003

>  <m_primary>  (40) 
energy

$$$$
40:0
     RDKit          3D

 38 40  0  0  0  0  0  0  0  0999 V2000
   58.1450   26.9160   43.9490 C   0  0  0  0  0  0  0  0  0  0  0  0
   57.4420   27.4010   45.2200 C   0  0  0  0  0  0  0  0  0  0  0  0
   58.3060   27.1400   46.4570 C   0  0  0  0  0  0  0  0  0  0  0  0
   57.1230   28.8630   45.1100 C   0  0  0  0  0  0  0  0  0  0  0  0
   58.0370   29.8440   45.2310 N   0  0  0  0  0  0  0  0  0  0  0  0
   57.2790   30.9460   45.0540 C   0  0  0  0  0  0  0  0  0  0  0  0
   57.8010   32.3310   45.1060 C   0  0  0  0  0  0  0  0  0  0  0  0
   57.9920   33.1290   46.2270 C   0  0  0  0  0  0  0  0  0  0  0  0
   57.7830   32.7520   47.5970 N   0  0  0  0  0  0  0  0  0  0  0  0
   58.7700   31.9760   48.3420 C   0  0  0  0  0  0  0  0  0  0  0  0
   60.1510   32.4350   47.9990 C   0  0  0  0  0  0  0  0  0  0  0  0
   60.6890   33.6860   48.2750 C   0  0  0  0  0  0  0  0  0  0  0  0
   61.9930   33.8420   47.7890 C   0  0  0  0  0  0  0  0  0  0  0  0
   62.4800   32.7230   47.1270 C   0  0  0  0  0  0  0  0  0  0  0  0
   61.2870   31.5370   47.1430 S   0  0  0  0  0  0  0  0  0  0  0  0
   58.4670   34.3360   45.8590 N   0  0  0  0  0  0  0  0  0  0  0  0
   58.5610   34.2600   44.5150 C   0  0  0  0  0  0  0  0  0  0  0  0
   58.1680   33.0640   44.0320 N   0  0  0  0  0  0  0  0  0  0  0  0
   58.1460   32.6810   42.6230 C   0  0  0  0  0  0  0  0  0  0  0  0
   55.9820   30.6420   44.8430 N   0  0  0  0  0  0  0  0  0  0  0  0
   55.9260   29.3460   44.8830 O   0  0  0  0  0  0  0  0  0  0  0  0
   59.0219   26.3110   44.2231 H   0  0  0  0  0  0  0  0  0  0  0  0
   57.4490   26.3050   43.3554 H   0  0  0  0  0  0  0  0  0  0  0  0
   58.4691   27.7836   43.3554 H   0  0  0  0  0  0  0  0  0  0  0  0
   56.5039   26.8373   45.3305 H   0  0  0  0  0  0  0  0  0  0  0  0
   57.7109   27.3198   47.3645 H   0  0  0  0  0  0  0  0  0  0  0  0
   58.6542   26.0966   46.4476 H   0  0  0  0  0  0  0  0  0  0  0  0
   59.1736   27.8161   46.4476 H   0  0  0  0  0  0  0  0  0  0  0  0
   56.8930   32.9940   48.0840 H   0  0  0  0  0  0  0  0  0  0  0  0
   58.5995   32.1102   49.4204 H   0  0  0  0  0  0  0  0  0  0  0  0
   58.6676   30.9136   48.0759 H   0  0  0  0  0  0  0  0  0  0  0  0
   60.1464   34.4729   48.8193 H   0  0  0  0  0  0  0  0  0  0  0  0
   62.5770   34.7650   47.9196 H   0  0  0  0  0  0  0  0  0  0  0  0
   63.4761   32.6281   46.6700 H   0  0  0  0  0  0  0  0  0  0  0  0
   58.9196   35.0848   43.8817 H   0  0  0  0  0  0  0  0  0  0  0  0
   58.0831   31.5858   42.5417 H   0  0  0  0  0  0  0  0  0  0  0  0
   57.2725   33.1358   42.1330 H   0  0  0  0  0  0  0  0  0  0  0  0
   59.0658   33.0328   42.1330 H   0  0  0  0  0  0  0  0  0  0  0  0
  1  2  1  0
  2  3  1  0
  2  4  1  0
  4  5  2  0
  5  6  1  0
  6  7  1  0
  7  8  2  0
  8  9  1  0
  9 10  1  0
 10 11  1  0
 11 12  2  0
 12 13  1  0
 13 14  2  0
 14 15  1  0
  8 16  1  0
 16 17  2  0
 17 18  1  0
 18 19  1  0
  6 20  2  0
 20 21  1  0
 21  4  1  0
 18  7  1  0
 15 11  1  0
  1 22  1  0
  1 23  1  0
  1 24  1  0
  2 25  1  0
  3 26  1  0
  3 27  1  0
  3 28  1  0
  9 29  1  0
 10 30  1  0
 10 31  1  0
 12 32  1  0
 13 33  1  0
 14 34  1  0
 17 35  1  0
 19 36  1  0
 19 37  1  0
 19 38  1  0
M  END
>  <UniqueID>  (41) 
40

>  <SMILES>  (41) 
CC(C)c1nc(-c2c(NCc3cccs3)ncn2C)no1

>  <Energy>  (41) 
121.62036530536999

>  <Genealogy>  (41) 
CC(C)c1nc(-c2c(NCc3cccs3)ncn2C)no1 (3D coordinates assigned)
CC(C)c1nc(-c2c(NCc3cccs3)ncn2C)no1 (optimized conformer: 121.62036530536999 kcal/mol)

>  <smiles>  (41) 
CC(C)c1nc(-c2c(NCc3cccs3)ncn2C)no1

>  <score_type>  (41) 
oracle

>  <origin>  (41) 
adg

>  <m_score__min__energy>  (41) 
-7.1600000000000001

>  <m_primary>  (41) 
energy

$$$$
41:0
     RDKit          3D

 38 38  0  0  0  0  0  0  0  0999 V2000
   58.8820   29.4400   47.4690 C   0  0  0  0  0  0  0  0  0  0  0  0
   59.0330   30.7720   46.9930 O   0  0  0  0  0  0  0  0  0  0  0  0
   60.1430   31.5920   47.2550 C   0  0  0  0  0  0  0  0  0  0  0  0
   61.4640   31.1250   47.1050 C   0  0  0  0  0  0  0  0  0  0  0  0
   62.5470   31.9640   47.3750 C   0  0  0  0  0  0  0  0  0  0  0  0
   62.3270   33.2760   47.7970 C   0  0  0  0  0  0  0  0  0  0  0  0
   61.0250   33.7530   47.9510 C   0  0  0  0  0  0  0  0  0  0  0  0
   59.9260   32.9190   47.6800 C   0  0  0  0  0  0  0  0  0  0  0  0
   58.5240   33.4460   47.8630 C   0  0  0  0  0  0  0  0  0  0  0  0
   57.7570   33.3260   46.6160 N   0  0  0  0  0  0  0  0  0  0  0  0
   58.3600   34.0790   45.4970 C   0  0  0  0  0  0  0  0  0  0  0  0
   58.1160   33.4230   44.1230 C   0  0  0  0  0  0  0  0  0  0  0  0
   58.1280   31.8900   44.1630 C   0  0  0  0  0  0  0  0  0  0  0  0
   56.9520   31.3810   44.8740 N   0  0  0  0  0  0  0  0  0  0  0  0
   56.4540   29.8590   44.1990 S   0  0  0  0  0  0  0  0  0  0  0  0
   57.7580   28.6570   44.3520 C   0  0  0  0  0  0  0  0  0  0  0  0
   56.1440   30.0490   42.7400 O   0  0  0  0  0  0  0  0  0  0  0  0
   55.2220   29.3530   44.8980 O   0  0  0  0  0  0  0  0  0  0  0  0
   58.8822   29.4415   48.5690 H   0  0  0  0  0  0  0  0  0  0  0  0
   57.9311   29.0254   47.1030 H   0  0  0  0  0  0  0  0  0  0  0  0
   59.7160   28.8231   47.1030 H   0  0  0  0  0  0  0  0  0  0  0  0
   61.6434   30.0918   46.7727 H   0  0  0  0  0  0  0  0  0  0  0  0
   63.5747   31.5905   47.2550 H   0  0  0  0  0  0  0  0  0  0  0  0
   63.1818   33.9352   48.0086 H   0  0  0  0  0  0  0  0  0  0  0  0
   60.8574   34.7872   48.2863 H   0  0  0  0  0  0  0  0  0  0  0  0
   58.0215   32.8685   48.6529 H   0  0  0  0  0  0  0  0  0  0  0  0
   58.5794   34.5083   48.1431 H   0  0  0  0  0  0  0  0  0  0  0  0
   57.6630   32.3110   46.3750 H   0  0  0  0  0  0  0  0  0  0  0  0
   57.9281   35.0906   45.4832 H   0  0  0  0  0  0  0  0  0  0  0  0
   59.4473   34.0965   45.6627 H   0  0  0  0  0  0  0  0  0  0  0  0
   57.1356   33.7533   43.7493 H   0  0  0  0  0  0  0  0  0  0  0  0
   58.9413   33.7347   43.4659 H   0  0  0  0  0  0  0  0  0  0  0  0
   58.1236   31.5019   43.1337 H   0  0  0  0  0  0  0  0  0  0  0  0
   59.0328   31.5572   44.6926 H   0  0  0  0  0  0  0  0  0  0  0  0
   57.2290   31.1940   45.8660 H   0  0  0  0  0  0  0  0  0  0  0  0
   57.9611   28.4698   45.4168 H   0  0  0  0  0  0  0  0  0  0  0  0
   57.4506   27.7188   43.8669 H   0  0  0  0  0  0  0  0  0  0  0  0
   58.6681   29.0396   43.8669 H   0  0  0  0  0  0  0  0  0  0  0  0
  1  2  1  0
  2  3  1  0
  3  4  2  0
  4  5  1  0
  5  6  2  0
  6  7  1  0
  7  8  2  0
  8  9  1  0
  9 10  1  0
 10 11  1  0
 11 12  1  0
 12 13  1  0
 13 14  1  0
 14 15  1  0
 15 16  1  0
 15 17  2  0
 15 18  2  0
  8  3  1  0
  1 19  1  0
  1 20  1  0
  1 21  1  0
  4 22  1  0
  5 23  1  0
  6 24  1  0
  7 25  1  0
  9 26  1  0
  9 27  1  0
 10 28  1  0
 11 29  1  0
 11 30  1  0
 12 31  1  0
 12 32  1  0
 13 33  1  0
 13 34  1  0
 14 35  1  0
 16 36  1  0
 16 37  1  0
 16 38  1  0
M  END
>  <UniqueID>  (42) 
41

>  <SMILES>  (42) 
COc1ccccc1CNCCCNS(C)(=O)=O

>  <Energy>  (42) 
26.106185849140942

>  <Genealogy>  (42) 
COc1ccccc1CNCCCNS(C)(=O)=O (3D coordinates assigned)
COc1ccccc1CNCCCNS(C)(=O)=O (optimized conformer: 26.106185849140942 kcal/mol)

>  <smiles>  (42) 
COc1ccccc1CNCCCNS(C)(=O)=O

>  <score_type>  (42) 
oracle

>  <origin>  (42) 
adg

>  <m_score__min__energy>  (42) 
-6.1799999999999997

>  <m_primary>  (42) 
energy

$$$$
42:0
     RDKit          3D

 64 66  0  0  0  0  0  0  0  0999 V2000
   64.8471   33.2490   47.0566 H   0  0  0  0  0  0  0  0  0  0  0  0
   63.7670   33.0460   47.1040 C   0  0  0  0  0  0  0  0  0  0  0  0
   63.2950   31.9540   47.8360 C   0  0  0  0  0  0  0  0  0  0  0  0
   64.0025   31.3011   48.3682 H   0  0  0  0  0  0  0  0  0  0  0  0
   61.9220   31.6910   47.8920 C   0  0  0  0  0  0  0  0  0  0  0  0
   61.5507   30.8332   48.4719 H   0  0  0  0  0  0  0  0  0  0  0  0
   61.0190   32.5180   47.2110 C   0  0  0  0  0  0  0  0  0  0  0  0
   59.5710   32.2390   47.2720 C   0  0  0  0  0  0  0  0  0  0  0  0
   58.7390   32.5480   46.2430 C   0  0  0  0  0  0  0  0  0  0  0  0
   58.2230   31.4880   45.3430 C   0  0  0  0  0  0  0  0  0  0  0  0
   57.1150   31.7370   44.5140 C   0  0  0  0  0  0  0  0  0  0  0  0
   56.6170   32.7174   44.5438 H   0  0  0  0  0  0  0  0  0  0  0  0
   56.6440   30.7410   43.6510 C   0  0  0  0  0  0  0  0  0  0  0  0
   55.7783   30.9413   43.0025 H   0  0  0  0  0  0  0  0  0  0  0  0
   57.2710   29.4920   43.6110 C   0  0  0  0  0  0  0  0  0  0  0  0
   56.9041   28.7140   42.9254 H   0  0  0  0  0  0  0  0  0  0  0  0
   58.3650   29.2320   44.4430 C   0  0  0  0  0  0  0  0  0  0  0  0
   58.8548   28.2475   44.4146 H   0  0  0  0  0  0  0  0  0  0  0  0
   58.8370   30.2220   45.3110 C   0  0  0  0  0  0  0  0  0  0  0  0
   59.6912   30.0103   45.9710 H   0  0  0  0  0  0  0  0  0  0  0  0
   58.2180   33.9550   46.0170 C   0  0  0  0  0  0  0  0  0  0  0  0
   58.3923   34.5533   46.9235 H   0  0  0  0  0  0  0  0  0  0  0  0
   57.1424   33.8993   45.7937 H   0  0  0  0  0  0  0  0  0  0  0  0
   58.9260   34.6160   44.8390 C   0  0  0  0  0  0  0  0  0  0  0  0
   59.6818   35.3216   45.2145 H   0  0  0  0  0  0  0  0  0  0  0  0
   59.4164   33.8451   44.2264 H   0  0  0  0  0  0  0  0  0  0  0  0
   58.1905   35.1581   44.2264 H   0  0  0  0  0  0  0  0  0  0  0  0
   59.0800   31.5270   48.4740 C   0  0  0  0  0  0  0  0  0  0  0  0
   59.1670   30.1290   48.5530 C   0  0  0  0  0  0  0  0  0  0  0  0
   59.5601   29.5544   47.7014 H   0  0  0  0  0  0  0  0  0  0  0  0
   58.7550   29.4650   49.7120 C   0  0  0  0  0  0  0  0  0  0  0  0
   58.8461   28.3705   49.7739 H   0  0  0  0  0  0  0  0  0  0  0  0
   58.2280   30.1780   50.7940 C   0  0  0  0  0  0  0  0  0  0  0  0
   57.8600   29.4640   51.9440 O   0  0  0  0  0  0  0  0  0  0  0  0
   57.5890   30.0520   53.2160 C   0  0  0  0  0  0  0  0  0  0  0  0
   57.9031   29.3598   54.0111 H   0  0  0  0  0  0  0  0  0  0  0  0
   58.1450   30.9973   53.3013 H   0  0  0  0  0  0  0  0  0  0  0  0
   56.0780   30.3400   53.3570 C   0  0  0  0  0  0  0  0  0  0  0  0
   55.7505   29.9565   54.3346 H   0  0  0  0  0  0  0  0  0  0  0  0
   55.9683   31.4289   53.2459 H   0  0  0  0  0  0  0  0  0  0  0  0
   55.2030   29.7330   52.3090 N   0  0  0  0  0  0  0  0  0  0  0  0
   55.8710   29.3170   51.6140 H   0  0  0  0  0  0  0  0  0  0  0  0
   54.3860   28.5920   52.8010 C   0  0  0  0  0  0  0  0  0  0  0  0
   53.4595   28.9902   53.2404 H   0  0  0  0  0  0  0  0  0  0  0  0
   54.1890   27.9376   51.9390 H   0  0  0  0  0  0  0  0  0  0  0  0
   55.1020   27.7430   53.8610 C   0  0  0  0  0  0  0  0  0  0  0  0
   54.8114   28.0876   54.8644 H   0  0  0  0  0  0  0  0  0  0  0  0
   54.8172   26.6875   53.7390 H   0  0  0  0  0  0  0  0  0  0  0  0
   56.1904   27.8456   53.7390 H   0  0  0  0  0  0  0  0  0  0  0  0
   54.4460   30.7490   51.5250 C   0  0  0  0  0  0  0  0  0  0  0  0
   54.3826   31.6658   52.1296 H   0  0  0  0  0  0  0  0  0  0  0  0
   54.9987   30.8777   50.5827 H   0  0  0  0  0  0  0  0  0  0  0  0
   53.0220   30.3460   51.1270 C   0  0  0  0  0  0  0  0  0  0  0  0
   52.4221   30.1762   52.0333 H   0  0  0  0  0  0  0  0  0  0  0  0
   52.5663   31.1505   50.5310 H   0  0  0  0  0  0  0  0  0  0  0  0
   53.0554   29.4220   50.5310 H   0  0  0  0  0  0  0  0  0  0  0  0
   58.1030   31.5780   50.6960 C   0  0  0  0  0  0  0  0  0  0  0  0
   57.6641   32.1482   51.5280 H   0  0  0  0  0  0  0  0  0  0  0  0
   58.5340   32.2450   49.5470 C   0  0  0  0  0  0  0  0  0  0  0  0
   58.4445   33.3395   49.4838 H   0  0  0  0  0  0  0  0  0  0  0  0
   61.4980   33.6200   46.4860 C   0  0  0  0  0  0  0  0  0  0  0  0
   60.7925   34.2795   45.9594 H   0  0  0  0  0  0  0  0  0  0  0  0
   62.8710   33.8810   46.4320 C   0  0  0  0  0  0  0  0  0  0  0  0
   63.2451   34.7433   45.8607 H   0  0  0  0  0  0  0  0  0  0  0  0
  1  2  1  0
  2  3  2  0
  3  4  1  0
  3  5  1  0
  5  6  1  0
  5  7  2  0
  7  8  1  0
  8  9  2  0
  9 10  1  0
 10 11  2  0
 11 12  1  0
 11 13  1  0
 13 14  1  0
 13 15  2  0
 15 16  1  0
 15 17  1  0
 17 18  1  0
 17 19  2  0
 19 20  1  0
  9 21  1  0
 21 22  1  0
 21 23  1  0
 21 24  1  0
 24 25  1  0
 24 26  1  0
 24 27  1  0
  8 28  1  0
 28 29  2  0
 29 30  1  0
 29 31  1  0
 31 32  1  0
 31 33  2  0
 33 34  1  0
 34 35  1  0
 35 36  1  0
 35 37  1  0
 35 38  1  0
 38 39  1  0
 38 40  1  0
 38 41  1  0
 41 42  1  0
 41 43  1  0
 43 44  1  0
 43 45  1  0
 43 46  1  0
 46 47  1  0
 46 48  1  0
 46 49  1  0
 41 50  1  0
 50 51  1  0
 50 52  1  0
 50 53  1  0
 53 54  1  0
 53 55  1  0
 53 56  1  0
 33 57  1  0
 57 58  1  0
 57 59  2  0
 59 60  1  0
  7 61  1  0
 61 62  1  0
 61 63  2  0
 63 64  1  0
 63  2  1  0
 19 10  1  0
 59 28  1  0
M  CHG  1  41   1
M  END
>  <UniqueID>  (43) 
42

>  <SMILES>  (43) 
CC/C(=C(\c1ccccc1)c1ccc(OCC[NH+](CC)CC)cc1)c1ccccc1

>  <Energy>  (43) 
90.52432272647462

>  <Genealogy>  (43) 
CCC(=C(c1ccccc1)c1ccc(OCC[NH+](CC)CC)cc1)c1ccccc1 (protonated)
CC/C(=C(\c1ccccc1)c1ccc(OCC[NH+](CC)CC)cc1)c1ccccc1 (cis-trans isomerization)
CC/C(=C(\c1ccccc1)c1ccc(OCC[NH+](CC)CC)cc1)c1ccccc1 (3D coordinates assigned)
CC/C(=C(\c1ccccc1)c1ccc(OCC[NH+](CC)CC)cc1)c1ccccc1 (optimized conformer: 90.52432272647462 kcal/mol)

>  <smiles>  (43) 
CCC(=C(c1ccccc1)c1ccc(OCCN(CC)CC)cc1)c1ccccc1

>  <score_type>  (43) 
oracle

>  <origin>  (43) 
adg

>  <m_score__min__energy>  (43) 
-7.2300000000000004

>  <m_primary>  (43) 
energy

$$$$
43:0
     RDKit          3D

 35 37  0  0  0  0  0  0  0  0999 V2000
   56.6460   26.8740   45.8150 C   0  0  0  0  0  0  0  0  0  0  0  0
   55.8950   27.9770   45.3170 O   0  0  0  0  0  0  0  0  0  0  0  0
   56.4620   29.1440   44.7840 C   0  0  0  0  0  0  0  0  0  0  0  0
   56.0680   29.6740   43.5420 C   0  0  0  0  0  0  0  0  0  0  0  0
   56.6630   30.8380   43.0550 C   0  0  0  0  0  0  0  0  0  0  0  0
   57.6530   31.4860   43.7970 C   0  0  0  0  0  0  0  0  0  0  0  0
   58.0630   30.9740   45.0410 C   0  0  0  0  0  0  0  0  0  0  0  0
   59.1160   31.6730   45.8180 C   0  0  0  0  0  0  0  0  0  0  0  0
   59.0280   32.9470   46.3870 C   0  0  0  0  0  0  0  0  0  0  0  0
   60.2550   33.1160   46.9850 C   0  0  0  0  0  0  0  0  0  0  0  0
   60.7570   34.1910   47.7090 C   0  0  0  0  0  0  0  0  0  0  0  0
   62.0270   34.0910   48.1980 N   0  0  0  0  0  0  0  0  0  0  0  0
   62.8000   32.9770   47.9940 C   0  0  0  0  0  0  0  0  0  0  0  0
   64.1370   32.8960   48.5180 N   0  0  0  0  0  0  0  0  0  0  0  0
   64.4800   33.0850   49.9000 C   0  0  0  0  0  0  0  0  0  0  0  0
   65.9090   32.9860   50.3280 C   0  0  0  0  0  0  0  0  0  0  0  0
   63.5910   33.3110   50.7650 O   0  0  0  0  0  0  0  0  0  0  0  0
   62.2670   31.9020   47.2560 C   0  0  0  0  0  0  0  0  0  0  0  0
   61.0020   32.0260   46.7820 N   0  0  0  0  0  0  0  0  0  0  0  0
   60.3340   31.1340   46.0760 N   0  0  0  0  0  0  0  0  0  0  0  0
   57.4560   29.7980   45.5240 C   0  0  0  0  0  0  0  0  0  0  0  0
   56.6353   26.8898   46.9148 H   0  0  0  0  0  0  0  0  0  0  0  0
   56.1990   25.9347   45.4574 H   0  0  0  0  0  0  0  0  0  0  0  0
   57.6838   26.9457   45.4574 H   0  0  0  0  0  0  0  0  0  0  0  0
   55.2883   29.1690   42.9529 H   0  0  0  0  0  0  0  0  0  0  0  0
   56.3512   31.2471   42.0827 H   0  0  0  0  0  0  0  0  0  0  0  0
   58.1156   32.4039   43.4054 H   0  0  0  0  0  0  0  0  0  0  0  0
   58.1799   33.6471   46.3623 H   0  0  0  0  0  0  0  0  0  0  0  0
   60.1507   35.0924   47.8820 H   0  0  0  0  0  0  0  0  0  0  0  0
   64.9150   32.6860   47.8510 H   0  0  0  0  0  0  0  0  0  0  0  0
   65.9633   32.9822   51.4267 H   0  0  0  0  0  0  0  0  0  0  0  0
   66.3455   32.0555   49.9361 H   0  0  0  0  0  0  0  0  0  0  0  0
   66.4696   33.8475   49.9361 H   0  0  0  0  0  0  0  0  0  0  0  0
   62.8569   30.9923   47.0703 H   0  0  0  0  0  0  0  0  0  0  0  0
   57.7668   29.3873   46.4960 H   0  0  0  0  0  0  0  0  0  0  0  0
  1  2  1  0
  2  3  1  0
  3  4  2  0
  4  5  1  0
  5  6  2  0
  6  7  1  0
  7  8  1  0
  8  9  1  0
  9 10  2  0
 10 11  1  0
 11 12  2  0
 12 13  1  0
 13 14  1  0
 14 15  1  0
 15 16  1  0
 15 17  2  0
 13 18  2  0
 18 19  1  0
 19 20  1  0
  7 21  2  0
 21  3  1  0
 20  8  2  0
 19 10  1  0
  1 22  1  0
  1 23  1  0
  1 24  1  0
  4 25  1  0
  5 26  1  0
  6 27  1  0
  9 28  1  0
 11 29  1  0
 14 30  1  0
 16 31  1  0
 16 32  1  0
 16 33  1  0
 18 34  1  0
 21 35  1  0
M  END
>  <UniqueID>  (44) 
43

>  <SMILES>  (44) 
COc1cccc(-c2cc3cnc(NC(C)=O)cn3n2)c1

>  <Energy>  (44) 
73.8205102423895

>  <Genealogy>  (44) 
COc1cccc(-c2cc3cnc(NC(C)=O)cn3n2)c1 (3D coordinates assigned)
COc1cccc(-c2cc3cnc(NC(C)=O)cn3n2)c1 (optimized conformer: 73.8205102423895 kcal/mol)

>  <smiles>  (44) 
COc1cccc(-c2cc3cnc(NC(C)=O)cn3n2)c1

>  <score_type>  (44) 
oracle

>  <origin>  (44) 
adg

>  <m_score__min__energy>  (44) 
-6.8899999999999997

>  <m_primary>  (44) 
energy

$$$$
44:0
     RDKit          3D

 55 57  0  0  0  0  0  0  0  0999 V2000
   59.2650   34.5900   53.5820 C   0  0  0  0  0  0  0  0  0  0  0  0
   58.8580   34.5060   52.2200 O   0  0  0  0  0  0  0  0  0  0  0  0
   58.8470   33.3300   51.4540 C   0  0  0  0  0  0  0  0  0  0  0  0
   59.5470   33.2570   50.2340 C   0  0  0  0  0  0  0  0  0  0  0  0
   59.5110   32.1010   49.4490 C   0  0  0  0  0  0  0  0  0  0  0  0
   60.2130   32.0740   48.1460 C   0  0  0  0  0  0  0  0  0  0  0  0
   60.7620   31.0000   47.7730 O   0  0  0  0  0  0  0  0  0  0  0  0
   60.3530   33.2790   47.3470 N   0  0  1  0  0  0  0  0  0  0  0  0
   61.7670   33.4440   46.9230 C   0  0  0  0  0  0  0  0  0  0  0  0
   62.6990   33.4060   48.1160 C   0  0  0  0  0  0  0  0  0  0  0  0
   62.4930   34.2720   49.2010 C   0  0  0  0  0  0  0  0  0  0  0  0
   63.3020   34.1840   50.3370 C   0  0  0  0  0  0  0  0  0  0  0  0
   64.3160   33.2240   50.4030 C   0  0  0  0  0  0  0  0  0  0  0  0
   65.4080   33.0920   51.9630 Br  0  0  0  0  0  0  0  0  0  0  0  0
   64.5240   32.3530   49.3280 C   0  0  0  0  0  0  0  0  0  0  0  0
   63.7210   32.4430   48.1880 C   0  0  0  0  0  0  0  0  0  0  0  0
   59.3560   33.2890   46.2340 C   0  0  2  0  0  0  0  0  0  0  0  0
   57.9590   33.8590   46.5940 C   0  0  0  0  0  0  0  0  0  0  0  0
   57.0130   33.5340   45.4400 C   0  0  0  0  0  0  0  0  0  0  0  0
   57.5840   31.9880   44.7970 S   0  0  0  0  0  0  0  0  0  0  0  0
   57.7440   32.0380   43.3050 O   0  0  0  0  0  0  0  0  0  0  0  0
   56.6830   30.8550   45.2000 O   0  0  0  0  0  0  0  0  0  0  0  0
   59.1470   31.8940   45.6190 C   0  0  0  0  0  0  0  0  0  0  0  0
   58.7890   30.9890   49.8960 C   0  0  0  0  0  0  0  0  0  0  0  0
   58.0950   31.0300   51.1170 C   0  0  0  0  0  0  0  0  0  0  0  0
   57.3650   29.9280   51.5910 O   0  0  0  0  0  0  0  0  0  0  0  0
   57.7660   29.0980   52.6770 C   0  0  0  0  0  0  0  0  0  0  0  0
   58.1190   32.1970   51.9010 C   0  0  0  0  0  0  0  0  0  0  0  0
   57.3940   32.1600   53.1080 O   0  0  0  0  0  0  0  0  0  0  0  0
   57.8910   31.7740   54.3850 C   0  0  0  0  0  0  0  0  0  0  0  0
   58.3983   34.4111   54.2354 H   0  0  0  0  0  0  0  0  0  0  0  0
   60.0371   33.8323   53.7814 H   0  0  0  0  0  0  0  0  0  0  0  0
   59.6740   35.5915   53.7814 H   0  0  0  0  0  0  0  0  0  0  0  0
   60.1318   34.1241   49.8933 H   0  0  0  0  0  0  0  0  0  0  0  0
   60.1230   34.1010   47.9540 H   0  0  0  0  0  0  0  0  0  0  0  0
   62.0329   32.6299   46.2327 H   0  0  0  0  0  0  0  0  0  0  0  0
   61.8725   34.4200   46.4266 H   0  0  0  0  0  0  0  0  0  0  0  0
   61.6910   35.0235   49.1570 H   0  0  0  0  0  0  0  0  0  0  0  0
   63.1407   34.8712   51.1806 H   0  0  0  0  0  0  0  0  0  0  0  0
   65.3207   31.5964   49.3803 H   0  0  0  0  0  0  0  0  0  0  0  0
   63.8890   31.7580   47.3439 H   0  0  0  0  0  0  0  0  0  0  0  0
   59.8196   33.9743   45.5092 H   0  0  0  0  0  0  0  0  0  0  0  0
   57.5924   33.3942   47.5211 H   0  0  0  0  0  0  0  0  0  0  0  0
   58.0155   34.9463   46.7511 H   0  0  0  0  0  0  0  0  0  0  0  0
   55.9785   33.4429   45.8027 H   0  0  0  0  0  0  0  0  0  0  0  0
   57.0111   34.3234   44.6739 H   0  0  0  0  0  0  0  0  0  0  0  0
   59.1254   31.1242   46.4044 H   0  0  0  0  0  0  0  0  0  0  0  0
   59.9603   31.6187   44.9315 H   0  0  0  0  0  0  0  0  0  0  0  0
   58.7645   30.0741   49.2858 H   0  0  0  0  0  0  0  0  0  0  0  0
   57.5253   29.5963   53.6277 H   0  0  0  0  0  0  0  0  0  0  0  0
   57.2325   28.1377   52.6210 H   0  0  0  0  0  0  0  0  0  0  0  0
   58.8499   28.9191   52.6210 H   0  0  0  0  0  0  0  0  0  0  0  0
   57.2843   32.2452   55.1723 H   0  0  0  0  0  0  0  0  0  0  0  0
   57.8354   30.6799   54.4847 H   0  0  0  0  0  0  0  0  0  0  0  0
   58.9373   32.0986   54.4847 H   0  0  0  0  0  0  0  0  0  0  0  0
  1  2  1  0
  2  3  1  0
  3  4  2  0
  4  5  1  0
  5  6  1  0
  6  7  2  0
  6  8  1  0
  8  9  1  0
  9 10  1  0
 10 11  2  0
 11 12  1  0
 12 13  2  0
 13 14  1  0
 13 15  1  0
 15 16  2  0
  8 17  1  0
 17 18  1  0
 18 19  1  0
 19 20  1  0
 20 21  2  0
 20 22  2  0
 20 23  1  0
  5 24  2  0
 24 25  1  0
 25 26  1  0
 26 27  1  0
 25 28  2  0
 28 29  1  0
 29 30  1  0
 28  3  1  0
 16 10  1  0
 23 17  1  0
  1 31  1  0
  1 32  1  0
  1 33  1  0
  4 34  1  0
  8 35  1  1
  9 36  1  0
  9 37  1  0
 11 38  1  0
 12 39  1  0
 15 40  1  0
 16 41  1  0
 17 42  1  6
 18 43  1  0
 18 44  1  0
 19 45  1  0
 19 46  1  0
 23 47  1  0
 23 48  1  0
 24 49  1  0
 27 50  1  0
 27 51  1  0
 27 52  1  0
 30 53  1  0
 30 54  1  0
 30 55  1  0
M  CHG  1   8   1
M  END
>  <UniqueID>  (45) 
44

>  <SMILES>  (45) 
COc1cc(C(=O)[N@@H+](Cc2ccc(Br)cc2)[C@@H]2CCS(=O)(=O)C2)cc(OC)c1OC

>  <Energy>  (45) 
65.33564126655565

>  <Genealogy>  (45) 
COc1cc(C(=O)[NH+](Cc2ccc(Br)cc2)C2CCS(=O)(=O)C2)cc(OC)c1OC (protonated)
COc1cc(C(=O)[N@@H+](Cc2ccc(Br)cc2)[C@@H]2CCS(=O)(=O)C2)cc(OC)c1OC (chirality)
COc1cc(C(=O)[N@@H+](Cc2ccc(Br)cc2)[C@@H]2CCS(=O)(=O)C2)cc(OC)c1OC (3D coordinates assigned)
COc1cc(C(=O)[N@@H+](Cc2ccc(Br)cc2)[C@@H]2CCS(=O)(=O)C2)cc(OC)c1OC (nonaromatic ring conformer: 65.33564126655565 kcal/mol)

>  <smiles>  (45) 
COc1cc(C(=O)N(Cc2ccc(Br)cc2)C2CCS(=O)(=O)C2)cc(OC)c1OC

>  <score_type>  (45) 
oracle

>  <origin>  (45) 
adg

>  <m_score__min__energy>  (45) 
-6.8499999999999996

>  <m_primary>  (45) 
energy

$$$$
45:0
     RDKit          3D

 33 35  0  0  0  0  0  0  0  0999 V2000
   57.4260   32.0240   41.8490 S   0  0  0  0  0  0  0  0  0  0  0  0
   57.3990   31.4490   43.1720 C   0  0  0  0  0  0  0  0  0  0  0  0
   56.7150   30.1200   43.3950 C   0  0  0  0  0  0  0  0  0  0  0  0
   57.6900   29.1280   44.0510 C   0  0  0  0  0  0  0  0  0  0  0  0
   58.4570   29.7020   45.2700 C   0  0  0  0  0  0  0  0  0  0  0  0
   58.1190   31.1750   45.5760 C   0  0  2  0  0  0  0  0  0  0  0  0
   58.2530   32.0400   44.2910 C   0  0  2  0  0  0  0  0  0  0  0  0
   57.8940   33.5230   44.5670 C   0  0  0  0  0  0  0  0  0  0  0  0
   58.5710   34.1180   45.7530 N   0  0  0  0  0  0  0  0  0  0  0  0
   60.0030   33.7560   45.8610 C   0  0  0  0  0  0  0  0  0  0  0  0
   60.2160   32.3040   46.3600 C   0  0  0  0  0  0  0  0  0  0  0  0
   58.9440   31.6470   46.7230 N   0  0  0  0  0  0  0  0  0  0  0  0
   58.1810   32.5010   47.6480 C   0  0  0  0  0  0  0  0  0  0  0  0
   57.8430   33.8670   47.0200 C   0  0  0  0  0  0  0  0  0  0  0  0
   55.8452   30.2642   44.0527 H   0  0  0  0  0  0  0  0  0  0  0  0
   56.3879   29.7160   42.4256 H   0  0  0  0  0  0  0  0  0  0  0  0
   57.1164   28.2512   44.3861 H   0  0  0  0  0  0  0  0  0  0  0  0
   58.4455   28.8785   43.2914 H   0  0  0  0  0  0  0  0  0  0  0  0
   58.2069   29.0972   46.1541 H   0  0  0  0  0  0  0  0  0  0  0  0
   59.5284   29.6619   45.0242 H   0  0  0  0  0  0  0  0  0  0  0  0
   57.0688   31.2753   45.8876 H   0  0  0  0  0  0  0  0  0  0  0  0
   59.3037   32.0245   43.9658 H   0  0  0  0  0  0  0  0  0  0  0  0
   58.1727   34.1133   43.6816 H   0  0  0  0  0  0  0  0  0  0  0  0
   56.8153   33.5464   44.7814 H   0  0  0  0  0  0  0  0  0  0  0  0
   58.5390   35.1560   45.6060 H   0  0  0  0  0  0  0  0  0  0  0  0
   60.4680   33.8593   44.8695 H   0  0  0  0  0  0  0  0  0  0  0  0
   60.4623   34.4316   46.5976 H   0  0  0  0  0  0  0  0  0  0  0  0
   60.7000   31.7224   45.5616 H   0  0  0  0  0  0  0  0  0  0  0  0
   60.8443   32.3454   47.2620 H   0  0  0  0  0  0  0  0  0  0  0  0
   57.2439   31.9897   47.9135 H   0  0  0  0  0  0  0  0  0  0  0  0
   58.8011   32.6787   48.5390 H   0  0  0  0  0  0  0  0  0  0  0  0
   56.7626   33.9015   46.8163 H   0  0  0  0  0  0  0  0  0  0  0  0
   58.1508   34.6435   47.7358 H   0  0  0  0  0  0  0  0  0  0  0  0
  1  2  2  0
  2  3  1  0
  3  4  1  0
  4  5  1  0
  5  6  1  0
  6  7  1  0
  7  8  1  0
  8  9  1  0
  9 10  1  0
 10 11  1  0
 11 12  1  0
 12 13  1  0
 13 14  1  0
  7  2  1  0
 14  9  1  0
 12  6  1  0
  3 15  1  0
  3 16  1  0
  4 17  1  0
  4 18  1  0
  5 19  1  0
  5 20  1  0
  6 21  1  1
  7 22  1  6
  8 23  1  0
  8 24  1  0
  9 25  1  0
 10 26  1  0
 10 27  1  0
 11 28  1  0
 11 29  1  0
 13 30  1  0
 13 31  1  0
 14 32  1  0
 14 33  1  0
M  CHG  1   9   1
M  END
>  <UniqueID>  (46) 
45

>  <SMILES>  (46) 
S=C1CCC[C@@H]2[C@@H]1C[NH+]1CCN2CC1

>  <Energy>  (46) 
61.65187165996021

>  <Genealogy>  (46) 
S=C1CCCC2C1C[NH+]1CCN2CC1 (protonated)
S=C1CCC[C@@H]2[C@@H]1C[NH+]1CCN2CC1 (chirality)
S=C1CCC[C@@H]2[C@@H]1C[NH+]1CCN2CC1 (3D coordinates assigned)
S=C1CCC[C@@H]2[C@@H]1C[NH+]1CCN2CC1 (nonaromatic ring conformer: 61.65187165996021 kcal/mol)

>  <smiles>  (46) 
S=C1CCCC2C1CN1CCN2CC1

>  <score_type>  (46) 
oracle

>  <origin>  (46) 
adg

>  <m_score__min__energy>  (46) 
-3.8900000000000001

>  <m_primary>  (46) 
energy

$$$$
46:0
     RDKit          3D

 46 49  0  0  0  0  0  0  0  0999 V2000
   56.7160   22.3120   43.3900 C   0  0  0  0  0  0  0  0  0  0  0  0
   55.9590   23.2330   44.1700 O   0  0  0  0  0  0  0  0  0  0  0  0
   56.3890   24.5240   44.5140 C   0  0  0  0  0  0  0  0  0  0  0  0
   57.3710   25.2070   43.7750 C   0  0  0  0  0  0  0  0  0  0  0  0
   57.7730   26.4900   44.1470 C   0  0  0  0  0  0  0  0  0  0  0  0
   57.2050   27.1200   45.2640 C   0  0  0  0  0  0  0  0  0  0  0  0
   57.6500   28.4820   45.6370 C   0  0  0  0  0  0  0  0  0  0  0  0
   58.7940   28.8370   46.3310 C   0  0  0  0  0  0  0  0  0  0  0  0
   58.7180   30.2150   46.4030 C   0  0  0  0  0  0  0  0  0  0  0  0
   59.6800   31.1190   47.0540 C   0  0  0  0  0  0  0  0  0  0  0  0
   59.2520   31.9820   47.8690 O   0  0  0  0  0  0  0  0  0  0  0  0
   61.0810   31.0540   46.7390 N   0  0  0  0  0  0  0  0  0  0  0  0
   62.1110   31.6620   47.5400 C   0  0  0  0  0  0  0  0  0  0  0  0
   62.7970   32.8090   47.1000 C   0  0  0  0  0  0  0  0  0  0  0  0
   63.7770   33.3990   47.9010 C   0  0  0  0  0  0  0  0  0  0  0  0
   64.0800   32.8610   49.1600 C   0  0  0  0  0  0  0  0  0  0  0  0
   65.0630   33.4470   49.9730 C   0  0  0  0  0  0  0  0  0  0  0  0
   65.3500   32.9040   51.2290 C   0  0  0  0  0  0  0  0  0  0  0  0
   64.6580   31.7780   51.6830 C   0  0  0  0  0  0  0  0  0  0  0  0
   63.6760   31.1860   50.8840 C   0  0  0  0  0  0  0  0  0  0  0  0
   63.3790   31.7200   49.6200 C   0  0  0  0  0  0  0  0  0  0  0  0
   62.3950   31.1340   48.8080 C   0  0  0  0  0  0  0  0  0  0  0  0
   57.5950   30.6370   45.7920 N   0  0  0  0  0  0  0  0  0  0  0  0
   56.9840   29.5780   45.3470 O   0  0  0  0  0  0  0  0  0  0  0  0
   56.2220   26.4380   46.0040 C   0  0  0  0  0  0  0  0  0  0  0  0
   55.8120   25.1420   45.6340 C   0  0  0  0  0  0  0  0  0  0  0  0
   54.8340   24.4360   46.3520 O   0  0  0  0  0  0  0  0  0  0  0  0
   55.0920   23.2890   47.1580 C   0  0  0  0  0  0  0  0  0  0  0  0
   57.2714   21.6363   44.0571 H   0  0  0  0  0  0  0  0  0  0  0  0
   56.0367   21.7240   42.7553 H   0  0  0  0  0  0  0  0  0  0  0  0
   57.4244   22.8646   42.7553 H   0  0  0  0  0  0  0  0  0  0  0  0
   57.8259   24.7259   42.8966 H   0  0  0  0  0  0  0  0  0  0  0  0
   58.5422   27.0122   43.5591 H   0  0  0  0  0  0  0  0  0  0  0  0
   59.5785   28.1777   46.7309 H   0  0  0  0  0  0  0  0  0  0  0  0
   61.3630   30.6290   45.8270 H   0  0  0  0  0  0  0  0  0  0  0  0
   62.5596   33.2441   46.1180 H   0  0  0  0  0  0  0  0  0  0  0  0
   64.3137   34.2898   47.5427 H   0  0  0  0  0  0  0  0  0  0  0  0
   65.6085   34.3351   49.6212 H   0  0  0  0  0  0  0  0  0  0  0  0
   66.1229   33.3646   51.8618 H   0  0  0  0  0  0  0  0  0  0  0  0
   64.8870   31.3561   52.6727 H   0  0  0  0  0  0  0  0  0  0  0  0
   63.1346   30.2997   51.2463 H   0  0  0  0  0  0  0  0  0  0  0  0
   61.8425   30.2540   49.1690 H   0  0  0  0  0  0  0  0  0  0  0  0
   55.7684   26.9221   46.8814 H   0  0  0  0  0  0  0  0  0  0  0  0
   55.0297   23.5661   48.2207 H   0  0  0  0  0  0  0  0  0  0  0  0
   54.3465   22.5108   46.9376 H   0  0  0  0  0  0  0  0  0  0  0  0
   56.0990   22.9050   46.9376 H   0  0  0  0  0  0  0  0  0  0  0  0
  1  2  1  0
  2  3  1  0
  3  4  2  0
  4  5  1  0
  5  6  2  0
  6  7  1  0
  7  8  2  0
  8  9  1  0
  9 10  1  0
 10 11  2  0
 10 12  1  0
 12 13  1  0
 13 14  2  0
 14 15  1  0
 15 16  2  0
 16 17  1  0
 17 18  2  0
 18 19  1  0
 19 20  2  0
 20 21  1  0
 21 22  2  0
  9 23  2  0
 23 24  1  0
  6 25  1  0
 25 26  2  0
 26 27  1  0
 27 28  1  0
 26  3  1  0
 24  7  1  0
 22 13  1  0
 21 16  1  0
  1 29  1  0
  1 30  1  0
  1 31  1  0
  4 32  1  0
  5 33  1  0
  8 34  1  0
 12 35  1  0
 14 36  1  0
 15 37  1  0
 17 38  1  0
 18 39  1  0
 19 40  1  0
 20 41  1  0
 22 42  1  0
 25 43  1  0
 28 44  1  0
 28 45  1  0
 28 46  1  0
M  END
>  <UniqueID>  (47) 
46

>  <SMILES>  (47) 
COc1ccc(-c2cc(C(=O)Nc3ccc4ccccc4c3)no2)cc1OC

>  <Energy>  (47) 
86.95644536935194

>  <Genealogy>  (47) 
COc1ccc(-c2cc(C(=O)Nc3ccc4ccccc4c3)no2)cc1OC (3D coordinates assigned)
COc1ccc(-c2cc(C(=O)Nc3ccc4ccccc4c3)no2)cc1OC (optimized conformer: 86.95644536935194 kcal/mol)

>  <smiles>  (47) 
COc1ccc(-c2cc(C(=O)Nc3ccc4ccccc4c3)no2)cc1OC

>  <score_type>  (47) 
oracle

>  <origin>  (47) 
adg

>  <m_score__min__energy>  (47) 
-7.7300000000000004

>  <m_primary>  (47) 
energy

$$$$
47:0
     RDKit          3D

 44 46  0  0  0  0  0  0  0  0999 V2000
   57.4360   34.2430   45.0760 O   0  0  0  0  0  0  0  0  0  0  0  0
   58.1890   33.2710   45.3550 C   0  0  0  0  0  0  0  0  0  0  0  0
   58.3200   32.1570   44.3510 C   0  0  0  0  0  0  0  0  0  0  0  0
   57.2620   31.1470   44.5510 N   0  0  0  0  0  0  0  0  0  0  0  0
   56.6420   30.7510   43.2730 C   0  0  0  0  0  0  0  0  0  0  0  0
   55.5220   29.7190   43.5240 C   0  0  0  0  0  0  0  0  0  0  0  0
   55.5040   29.2580   44.8630 O   0  0  0  0  0  0  0  0  0  0  0  0
   56.7910   28.7980   45.2270 C   0  0  0  0  0  0  0  0  0  0  0  0
   57.8070   29.9580   45.2370 C   0  0  0  0  0  0  0  0  0  0  0  0
   58.8910   33.2410   46.6200 N   0  0  0  0  0  0  0  0  0  0  0  0
   59.5030   31.9890   47.1030 C   0  0  0  0  0  0  0  0  0  0  0  0
   60.0530   32.1360   48.5240 C   0  0  0  0  0  0  0  0  0  0  0  0
   60.8330   33.3730   48.6260 N   0  0  0  0  0  0  0  0  0  0  0  0
   62.1860   33.3350   49.1120 C   0  0  0  0  0  0  0  0  0  0  0  0
   62.4940   33.8810   50.3690 C   0  0  0  0  0  0  0  0  0  0  0  0
   63.8050   33.8390   50.8530 C   0  0  0  0  0  0  0  0  0  0  0  0
   64.8150   33.2550   50.0870 C   0  0  0  0  0  0  0  0  0  0  0  0
   64.5190   32.7130   48.8330 C   0  0  0  0  0  0  0  0  0  0  0  0
   63.2090   32.7520   48.3440 C   0  0  0  0  0  0  0  0  0  0  0  0
   62.9470   32.2500   47.1110 F   0  0  0  0  0  0  0  0  0  0  0  0
   60.2850   34.6340   48.1090 C   0  0  0  0  0  0  0  0  0  0  0  0
   58.8980   34.4330   47.4840 C   0  0  0  0  0  0  0  0  0  0  0  0
   58.2345   32.5734   43.3365 H   0  0  0  0  0  0  0  0  0  0  0  0
   59.2994   31.6743   44.4842 H   0  0  0  0  0  0  0  0  0  0  0  0
   56.2152   31.6396   42.7849 H   0  0  0  0  0  0  0  0  0  0  0  0
   57.4085   30.3001   42.6255 H   0  0  0  0  0  0  0  0  0  0  0  0
   54.5527   30.1875   43.2985 H   0  0  0  0  0  0  0  0  0  0  0  0
   55.7116   28.8527   42.8731 H   0  0  0  0  0  0  0  0  0  0  0  0
   56.7434   28.3521   46.2315 H   0  0  0  0  0  0  0  0  0  0  0  0
   57.1186   28.0500   44.4900 H   0  0  0  0  0  0  0  0  0  0  0  0
   58.0424   30.2206   46.2789 H   0  0  0  0  0  0  0  0  0  0  0  0
   58.7140   29.6331   44.7062 H   0  0  0  0  0  0  0  0  0  0  0  0
   58.7418   31.1949   47.0963 H   0  0  0  0  0  0  0  0  0  0  0  0
   60.3413   31.7389   46.4362 H   0  0  0  0  0  0  0  0  0  0  0  0
   59.2169   32.1709   49.2380 H   0  0  0  0  0  0  0  0  0  0  0  0
   60.7001   31.2770   48.7550 H   0  0  0  0  0  0  0  0  0  0  0  0
   61.7008   34.3434   50.9748 H   0  0  0  0  0  0  0  0  0  0  0  0
   64.0407   34.2667   51.8386 H   0  0  0  0  0  0  0  0  0  0  0  0
   65.8454   33.2212   50.4706 H   0  0  0  0  0  0  0  0  0  0  0  0
   65.3171   32.2553   48.2300 H   0  0  0  0  0  0  0  0  0  0  0  0
   60.2026   35.3535   48.9370 H   0  0  0  0  0  0  0  0  0  0  0  0
   60.9630   35.0094   47.3284 H   0  0  0  0  0  0  0  0  0  0  0  0
   58.1550   34.3042   48.2849 H   0  0  0  0  0  0  0  0  0  0  0  0
   58.6500   35.3154   46.8758 H   0  0  0  0  0  0  0  0  0  0  0  0
  1  2  2  0
  2  3  1  0
  3  4  1  0
  4  5  1  0
  5  6  1  0
  6  7  1  0
  7  8  1  0
  8  9  1  0
  2 10  1  0
 10 11  1  0
 11 12  1  0
 12 13  1  0
 13 14  1  0
 14 15  2  0
 15 16  1  0
 16 17  2  0
 17 18  1  0
 18 19  2  0
 19 20  1  0
 13 21  1  0
 21 22  1  0
  9  4  1  0
 22 10  1  0
 19 14  1  0
  3 23  1  0
  3 24  1  0
  5 25  1  0
  5 26  1  0
  6 27  1  0
  6 28  1  0
  8 29  1  0
  8 30  1  0
  9 31  1  0
  9 32  1  0
 11 33  1  0
 11 34  1  0
 12 35  1  0
 12 36  1  0
 15 37  1  0
 16 38  1  0
 17 39  1  0
 18 40  1  0
 21 41  1  0
 21 42  1  0
 22 43  1  0
 22 44  1  0
M  END
>  <UniqueID>  (48) 
47

>  <SMILES>  (48) 
O=C(CN1CCOCC1)N1CCN(c2ccccc2F)CC1

>  <Energy>  (48) 
58.340625690464655

>  <Genealogy>  (48) 
O=C(CN1CCOCC1)N1CCN(c2ccccc2F)CC1 (3D coordinates assigned)
O=C(CN1CCOCC1)N1CCN(c2ccccc2F)CC1 (nonaromatic ring conformer: 58.340625690464655 kcal/mol)

>  <smiles>  (48) 
O=C(CN1CCOCC1)N1CCN(c2ccccc2F)CC1

>  <score_type>  (48) 
oracle

>  <origin>  (48) 
adg

>  <m_score__min__energy>  (48) 
-7.5599999999999996

>  <m_primary>  (48) 
energy

$$$$
48:0
     RDKit          3D

 28 30  0  0  0  0  0  0  0  0999 V2000
   54.8660   29.7070   43.0800 O   0  0  0  0  0  0  0  0  0  0  0  0
   56.1810   29.4190   43.7460 S   0  0  0  0  0  0  0  0  0  0  0  0
   57.0420   28.5760   42.8480 O   0  0  0  0  0  0  0  0  0  0  0  0
   55.9020   28.5990   45.2480 N   0  0  0  0  0  0  0  0  0  0  0  0
   56.5810   27.4140   45.6930 C   0  0  0  0  0  0  0  0  0  0  0  0
   55.8690   26.2440   46.0200 C   0  0  0  0  0  0  0  0  0  0  0  0
   56.5440   25.0990   46.4520 C   0  0  0  0  0  0  0  0  0  0  0  0
   57.9340   25.1010   46.5650 C   0  0  0  0  0  0  0  0  0  0  0  0
   58.6610   26.2500   46.2470 C   0  0  0  0  0  0  0  0  0  0  0  0
   60.0170   26.2460   46.3590 N   0  0  0  0  0  0  0  0  0  0  0  0
   60.7650   27.3400   46.0600 C   0  0  0  0  0  0  0  0  0  0  0  0
   60.1480   28.5120   45.6230 C   0  0  0  0  0  0  0  0  0  0  0  0
   58.7580   28.5520   45.4970 C   0  0  0  0  0  0  0  0  0  0  0  0
   57.9880   27.4170   45.8070 C   0  0  0  0  0  0  0  0  0  0  0  0
   56.9980   30.9340   44.0700 C   0  0  0  0  0  0  0  0  0  0  0  0
   57.6550   31.7040   43.1310 C   0  0  0  0  0  0  0  0  0  0  0  0
   58.1400   32.7930   43.8230 C   0  0  0  0  0  0  0  0  0  0  0  0
   57.7470   32.6120   45.1340 C   0  0  0  0  0  0  0  0  0  0  0  0
   58.1230   33.7970   46.5790 Br  0  0  0  0  0  0  0  0  0  0  0  0
   57.0670   31.4960   45.2530 O   0  0  0  0  0  0  0  0  0  0  0  0
   54.7724   26.2311   45.9347 H   0  0  0  0  0  0  0  0  0  0  0  0
   55.9759   24.1915   46.7042 H   0  0  0  0  0  0  0  0  0  0  0  0
   58.4585   24.1959   46.9052 H   0  0  0  0  0  0  0  0  0  0  0  0
   61.8595   27.3014   46.1628 H   0  0  0  0  0  0  0  0  0  0  0  0
   60.7521   29.3984   45.3794 H   0  0  0  0  0  0  0  0  0  0  0  0
   58.2643   29.4734   45.1545 H   0  0  0  0  0  0  0  0  0  0  0  0
   57.7676   31.4930   42.0573 H   0  0  0  0  0  0  0  0  0  0  0  0
   58.7207   33.6333   43.4147 H   0  0  0  0  0  0  0  0  0  0  0  0
  1  2  2  0
  2  3  2  0
  2  4  1  0
  4  5  1  0
  5  6  2  0
  6  7  1  0
  7  8  2  0
  8  9  1  0
  9 10  2  0
 10 11  1  0
 11 12  2  0
 12 13  1  0
 13 14  2  0
  2 15  1  0
 15 16  2  0
 16 17  1  0
 17 18  2  0
 18 19  1  0
 18 20  1  0
 14  5  1  0
 20 15  1  0
 14  9  1  0
  6 21  1  0
  7 22  1  0
  8 23  1  0
 11 24  1  0
 12 25  1  0
 13 26  1  0
 16 27  1  0
 17 28  1  0
M  CHG  1   4  -1
M  END
>  <UniqueID>  (49) 
48

>  <SMILES>  (49) 
O=S(=O)([N-]c1cccc2ncccc12)c1ccc(Br)o1

>  <Energy>  (49) 
64.9566146182258

>  <Genealogy>  (49) 
O=S(=O)([N-]c1cccc2ncccc12)c1ccc(Br)o1 (protonated)
O=S(=O)([N-]c1cccc2ncccc12)c1ccc(Br)o1 (3D coordinates assigned)
O=S(=O)([N-]c1cccc2ncccc12)c1ccc(Br)o1 (optimized conformer: 64.9566146182258 kcal/mol)

>  <smiles>  (49) 
O=S(=O)(Nc1cccc2ncccc12)c1ccc(Br)o1

>  <score_type>  (49) 
oracle

>  <origin>  (49) 
adg

>  <m_score__min__energy>  (49) 
-9.3000000000000007

>  <m_primary>  (49) 
energy

$$$$
