0:0
     RDKit          3D

 54 57  0  0  0  0  0  0  0  0999 V2000
   63.2860   33.8260   46.4020 C   0  0  0  0  0  0  0  0  0  0  0  0
   63.2110   32.4730   47.1150 C   0  0  0  0  0  0  0  0  0  0  0  0
   63.8480   32.4990   48.4440 N   0  0  0  0  0  0  0  0  0  0  0  0
   63.7620   33.8250   49.0780 C   0  0  0  0  0  0  0  0  0  0  0  0
   62.3620   34.0780   49.6360 C   0  0  0  0  0  0  0  0  0  0  0  0
   61.8880   32.8870   50.2260 O   0  0  0  0  0  0  0  0  0  0  0  0
   60.5920   33.0830   50.7550 C   0  0  0  0  0  0  0  0  0  0  0  0
   59.5580   32.5230   49.7760 C   0  0  0  0  0  0  0  0  0  0  0  0
   60.1990   31.7070   48.7420 N   0  0  0  0  0  0  0  0  0  0  0  0
   59.6440   31.5720   47.4220 C   0  0  0  0  0  0  0  0  0  0  0  0
   59.4450   32.6920   46.5910 C   0  0  0  0  0  0  0  0  0  0  0  0
   59.8500   33.9780   47.0000 C   0  0  0  0  0  0  0  0  0  0  0  0
   59.6480   35.0810   46.1760 C   0  0  0  0  0  0  0  0  0  0  0  0
   59.0500   34.9230   44.9300 C   0  0  0  0  0  0  0  0  0  0  0  0
   58.6260   33.6630   44.5070 C   0  0  0  0  0  0  0  0  0  0  0  0
   58.7850   32.5240   45.3330 C   0  0  0  0  0  0  0  0  0  0  0  0
   58.3100   31.2790   44.9510 N   0  0  0  0  0  0  0  0  0  0  0  0
   57.2910   31.1750   43.8920 C   0  0  0  0  0  0  0  0  0  0  0  0
   58.6890   30.1690   45.6770 C   0  0  0  0  0  0  0  0  0  0  0  0
   59.2850   30.3240   46.9290 C   0  0  0  0  0  0  0  0  0  0  0  0
   59.5280   28.8290   47.6690 S   0  0  0  0  0  0  0  0  0  0  0  0
   58.9190   27.9450   46.3800 C   0  0  0  0  0  0  0  0  0  0  0  0
   58.8660   26.5580   46.2790 C   0  0  0  0  0  0  0  0  0  0  0  0
   58.4310   25.9930   45.0740 C   0  0  0  0  0  0  0  0  0  0  0  0
   58.0940   26.8180   43.9900 C   0  0  0  0  0  0  0  0  0  0  0  0
   58.1610   28.2170   44.1070 C   0  0  0  0  0  0  0  0  0  0  0  0
   58.5300   28.7930   45.3390 C   0  0  0  0  0  0  0  0  0  0  0  0
   63.3307   34.6322   47.1491 H   0  0  0  0  0  0  0  0  0  0  0  0
   64.1874   33.8592   45.7724 H   0  0  0  0  0  0  0  0  0  0  0  0
   62.3938   33.9586   45.7724 H   0  0  0  0  0  0  0  0  0  0  0  0
   62.1533   32.1963   47.2362 H   0  0  0  0  0  0  0  0  0  0  0  0
   63.7528   31.7402   46.4990 H   0  0  0  0  0  0  0  0  0  0  0  0
   64.8500   32.2050   48.3660 H   0  0  0  0  0  0  0  0  0  0  0  0
   63.3490   31.8020   49.0470 H   0  0  0  0  0  0  0  0  0  0  0  0
   64.4914   33.8784   49.8997 H   0  0  0  0  0  0  0  0  0  0  0  0
   63.9790   34.5903   48.3183 H   0  0  0  0  0  0  0  0  0  0  0  0
   62.4037   34.8750   50.3930 H   0  0  0  0  0  0  0  0  0  0  0  0
   61.6863   34.3896   48.8258 H   0  0  0  0  0  0  0  0  0  0  0  0
   60.5057   32.5611   51.7195 H   0  0  0  0  0  0  0  0  0  0  0  0
   60.4134   34.1579   50.9057 H   0  0  0  0  0  0  0  0  0  0  0  0
   58.8387   31.9016   50.3296 H   0  0  0  0  0  0  0  0  0  0  0  0
   59.0458   33.3657   49.2886 H   0  0  0  0  0  0  0  0  0  0  0  0
   61.1570   31.3310   48.9230 H   0  0  0  0  0  0  0  0  0  0  0  0
   60.3306   34.1114   47.9804 H   0  0  0  0  0  0  0  0  0  0  0  0
   59.9621   36.0806   46.5108 H   0  0  0  0  0  0  0  0  0  0  0  0
   58.9108   35.7958   44.2751 H   0  0  0  0  0  0  0  0  0  0  0  0
   58.1609   33.5527   43.5163 H   0  0  0  0  0  0  0  0  0  0  0  0
   56.2958   31.0734   44.3495 H   0  0  0  0  0  0  0  0  0  0  0  0
   57.3170   32.0805   43.2679 H   0  0  0  0  0  0  0  0  0  0  0  0
   57.4994   30.2935   43.2679 H   0  0  0  0  0  0  0  0  0  0  0  0
   59.1590   25.9204   47.1261 H   0  0  0  0  0  0  0  0  0  0  0  0
   58.3532   24.9001   44.9768 H   0  0  0  0  0  0  0  0  0  0  0  0
   57.7744   26.3655   43.0397 H   0  0  0  0  0  0  0  0  0  0  0  0
   57.9272   28.8573   43.2436 H   0  0  0  0  0  0  0  0  0  0  0  0
  1  2  1  0
  2  3  1  0
  3  4  1  0
  4  5  1  0
  5  6  1  0
  6  7  1  0
  7  8  1  0
  8  9  1  0
  9 10  1  0
 10 11  2  0
 11 12  1  0
 12 13  2  0
 13 14  1  0
 14 15  2  0
 15 16  1  0
 16 17  2  0
 17 18  1  0
 17 19  1  0
 19 20  2  0
 20 21  1  0
 21 22  1  0
 22 23  2  0
 23 24  1  0
 24 25  2  0
 25 26  1  0
 26 27  2  0
 20 10  1  0
 27 22  1  0
 16 11  1  0
 27 19  1  0
  1 28  1  0
  1 29  1  0
  1 30  1  0
  2 31  1  0
  2 32  1  0
  3 33  1  0
  3 34  1  0
  4 35  1  0
  4 36  1  0
  5 37  1  0
  5 38  1  0
  7 39  1  0
  7 40  1  0
  8 41  1  0
  8 42  1  0
  9 43  1  0
 12 44  1  0
 13 45  1  0
 14 46  1  0
 15 47  1  0
 18 48  1  0
 18 49  1  0
 18 50  1  0
 23 51  1  0
 24 52  1  0
 25 53  1  0
 26 54  1  0
M  CHG  2   3   1  17   1
M  END
>  <UniqueID>  (1) 
1

>  <SMILES>  (1) 
CC[NH2+]CCOCCNc1c2ccccc2[n+](C)c2c1sc1ccccc12

>  <Energy>  (1) 
109.27976392111573

>  <Genealogy>  (1) 
CC[NH2+]CCOCCNc1c2ccccc2[n+](C)c2c1sc1ccccc12 (protonated)
CC[NH2+]CCOCCNc1c2ccccc2[n+](C)c2c1sc1ccccc12 (3D coordinates assigned)
CC[NH2+]CCOCCNc1c2ccccc2[n+](C)c2c1sc1ccccc12 (optimized conformer: 109.27976392111573 kcal/mol)

>  <smiles>  (1) 
CCNCCOCCNc1c2ccccc2[n+](C)c2c1sc1ccccc12

>  <score_type>  (1) 
oracle

>  <origin>  (1) 
adg

>  <m_score__min__energy>  (1) 
-5.0700000000000003

>  <m_primary>  (1) 
energy

$$$$
1:0
     RDKit          3D

 69 70  0  0  0  0  0  0  0  0999 V2000
   59.1440   31.9260   49.2190 C   0  0  0  0  0  0  0  0  0  0  0  0
   60.2900   31.3200   48.6270 O   0  0  0  0  0  0  0  0  0  0  0  0
   61.4420   32.0150   48.2180 C   0  0  0  0  0  0  0  0  0  0  0  0
   61.4240   32.9010   47.1200 C   0  0  0  0  0  0  0  0  0  0  0  0
   62.5810   33.5830   46.7410 C   0  0  0  0  0  0  0  0  0  0  0  0
   63.7670   33.3930   47.4470 C   0  0  0  0  0  0  0  0  0  0  0  0
   63.8020   32.5210   48.5370 C   0  0  0  0  0  0  0  0  0  0  0  0
   62.6470   31.8220   48.9260 C   0  0  0  0  0  0  0  0  0  0  0  0
   62.6990   30.9330   50.1470 C   0  0  0  0  0  0  0  0  0  0  0  0
   61.4760   30.1110   50.2360 N   0  0  0  0  0  0  0  0  0  0  0  0
   61.7110   28.8030   50.8710 C   0  0  0  0  0  0  0  0  0  0  0  0
   60.7740   27.6950   50.3530 C   0  0  0  0  0  0  0  0  0  0  0  0
   60.0420   28.1400   49.1590 N   0  0  0  0  0  0  0  0  0  0  0  0
   60.6960   27.7050   47.9110 C   0  0  0  0  0  0  0  0  0  0  0  0
   59.6400   27.4780   46.7960 C   0  0  0  0  0  0  0  0  0  0  0  0
   59.4050   28.6320   45.8620 N   0  0  0  0  0  0  0  0  0  0  0  0
   60.7260   28.9860   45.2770 C   0  0  0  0  0  0  0  0  0  0  0  0
   58.8850   29.7990   46.6280 C   0  0  0  0  0  0  0  0  0  0  0  0
   58.4540   28.2300   44.7790 C   0  0  0  0  0  0  0  0  0  0  0  0
   56.9490   28.4740   45.0930 C   0  0  0  0  0  0  0  0  0  0  0  0
   56.2800   29.3770   44.0460 C   0  0  0  0  0  0  0  0  0  0  0  0
   56.3110   30.7790   44.4950 N   0  0  0  0  0  0  0  0  0  0  0  0
   57.2910   31.5930   43.7590 C   0  0  0  0  0  0  0  0  0  0  0  0
   57.8750   32.6530   44.6570 C   0  0  0  0  0  0  0  0  0  0  0  0
   58.7930   33.5810   44.1420 C   0  0  0  0  0  0  0  0  0  0  0  0
   59.2980   34.6010   44.9560 C   0  0  0  0  0  0  0  0  0  0  0  0
   58.8850   34.7000   46.2900 C   0  0  0  0  0  0  0  0  0  0  0  0
   59.3770   35.6840   47.0790 F   0  0  0  0  0  0  0  0  0  0  0  0
   57.9730   33.7770   46.8110 C   0  0  0  0  0  0  0  0  0  0  0  0
   57.4700   32.7560   45.9980 C   0  0  0  0  0  0  0  0  0  0  0  0
   59.2300   31.8805   50.3147 H   0  0  0  0  0  0  0  0  0  0  0  0
   59.0786   32.9766   48.8996 H   0  0  0  0  0  0  0  0  0  0  0  0
   58.2389   31.3886   48.8996 H   0  0  0  0  0  0  0  0  0  0  0  0
   60.4908   33.0553   46.5585 H   0  0  0  0  0  0  0  0  0  0  0  0
   62.5566   34.2716   45.8836 H   0  0  0  0  0  0  0  0  0  0  0  0
   64.6777   33.9311   47.1451 H   0  0  0  0  0  0  0  0  0  0  0  0
   64.7397   32.3804   49.0946 H   0  0  0  0  0  0  0  0  0  0  0  0
   63.5758   30.2724   50.0775 H   0  0  0  0  0  0  0  0  0  0  0  0
   62.7719   31.5636   51.0453 H   0  0  0  0  0  0  0  0  0  0  0  0
   60.7320   30.6350   50.7540 H   0  0  0  0  0  0  0  0  0  0  0  0
   61.1260   29.9260   49.2650 H   0  0  0  0  0  0  0  0  0  0  0  0
   62.7503   28.5013   50.6740 H   0  0  0  0  0  0  0  0  0  0  0  0
   61.5099   28.9226   51.9458 H   0  0  0  0  0  0  0  0  0  0  0  0
   61.3724   26.8078   50.0983 H   0  0  0  0  0  0  0  0  0  0  0  0
   60.0455   27.4550   51.1415 H   0  0  0  0  0  0  0  0  0  0  0  0
   60.0190   29.1860   49.1760 H   0  0  0  0  0  0  0  0  0  0  0  0
   61.4061   28.4794   47.5852 H   0  0  0  0  0  0  0  0  0  0  0  0
   61.2263   26.7595   48.0974 H   0  0  0  0  0  0  0  0  0  0  0  0
   59.9680   26.6188   46.1925 H   0  0  0  0  0  0  0  0  0  0  0  0
   58.6855   27.3237   47.3205 H   0  0  0  0  0  0  0  0  0  0  0  0
   61.4456   29.1788   46.0863 H   0  0  0  0  0  0  0  0  0  0  0  0
   61.0871   28.1529   44.6560 H   0  0  0  0  0  0  0  0  0  0  0  0
   60.6222   29.8880   44.6560 H   0  0  0  0  0  0  0  0  0  0  0  0
   58.9741   29.5991   47.7060 H   0  0  0  0  0  0  0  0  0  0  0  0
   59.4689   30.6954   46.3718 H   0  0  0  0  0  0  0  0  0  0  0  0
   57.8281   29.9643   46.3718 H   0  0  0  0  0  0  0  0  0  0  0  0
   58.7092   28.7999   43.8734 H   0  0  0  0  0  0  0  0  0  0  0  0
   58.5684   27.1423   44.6611 H   0  0  0  0  0  0  0  0  0  0  0  0
   56.4286   27.5051   45.1104 H   0  0  0  0  0  0  0  0  0  0  0  0
   56.8837   28.9793   46.0679 H   0  0  0  0  0  0  0  0  0  0  0  0
   56.8190   29.2885   43.0912 H   0  0  0  0  0  0  0  0  0  0  0  0
   55.2338   29.0634   43.9150 H   0  0  0  0  0  0  0  0  0  0  0  0
   55.3650   31.2040   44.3470 H   0  0  0  0  0  0  0  0  0  0  0  0
   58.0993   30.9432   43.3924 H   0  0  0  0  0  0  0  0  0  0  0  0
   56.7851   32.0815   42.9132 H   0  0  0  0  0  0  0  0  0  0  0  0
   59.1171   33.5063   43.0935 H   0  0  0  0  0  0  0  0  0  0  0  0
   60.0191   35.3246   44.5480 H   0  0  0  0  0  0  0  0  0  0  0  0
   57.6512   33.8538   47.8601 H   0  0  0  0  0  0  0  0  0  0  0  0
   56.7538   32.0303   46.4108 H   0  0  0  0  0  0  0  0  0  0  0  0
  1  2  1  0
  2  3  1  0
  3  4  2  0
  4  5  1  0
  5  6  2  0
  6  7  1  0
  7  8  2  0
  8  9  1  0
  9 10  1  0
 10 11  1  0
 11 12  1  0
 12 13  1  0
 13 14  1  0
 14 15  1  0
 15 16  1  0
 16 17  1  0
 16 18  1  0
 16 19  1  0
 19 20  1  0
 20 21  1  0
 21 22  1  0
 22 23  1  0
 23 24  1  0
 24 25  2  0
 25 26  1  0
 26 27  2  0
 27 28  1  0
 27 29  1  0
 29 30  2  0
  8  3  1  0
 30 24  1  0
  1 31  1  0
  1 32  1  0
  1 33  1  0
  4 34  1  0
  5 35  1  0
  6 36  1  0
  7 37  1  0
  9 38  1  0
  9 39  1  0
 10 40  1  0
 10 41  1  0
 11 42  1  0
 11 43  1  0
 12 44  1  0
 12 45  1  0
 13 46  1  0
 14 47  1  0
 14 48  1  0
 15 49  1  0
 15 50  1  0
 17 51  1  0
 17 52  1  0
 17 53  1  0
 18 54  1  0
 18 55  1  0
 18 56  1  0
 19 57  1  0
 19 58  1  0
 20 59  1  0
 20 60  1  0
 21 61  1  0
 21 62  1  0
 22 63  1  0
 23 64  1  0
 23 65  1  0
 25 66  1  0
 26 67  1  0
 29 68  1  0
 30 69  1  0
M  CHG  2  10   1  16   1
M  END
>  <UniqueID>  (2) 
2

>  <SMILES>  (2) 
COc1ccccc1C[NH2+]CCNCC[N+](C)(C)CCCNCc1ccc(F)cc1

>  <Energy>  (2) 
81.05081421719802

>  <Genealogy>  (2) 
COc1ccccc1C[NH2+]CCNCC[N+](C)(C)CCCNCc1ccc(F)cc1 (protonated)
COc1ccccc1C[NH2+]CCNCC[N+](C)(C)CCCNCc1ccc(F)cc1 (3D coordinates assigned)
COc1ccccc1C[NH2+]CCNCC[N+](C)(C)CCCNCc1ccc(F)cc1 (optimized conformer: 81.05081421719802 kcal/mol)

>  <smiles>  (2) 
COc1ccccc1CNCCNCC[N+](C)(C)CCCNCc1ccc(F)cc1

>  <score_type>  (2) 
oracle

>  <origin>  (2) 
adg

>  <m_score__min__energy>  (2) 
-3.3999999999999999

>  <m_primary>  (2) 
energy

$$$$
2:0
     RDKit          3D

 65 68  0  0  0  0  0  0  0  0999 V2000
   55.4530   29.7330   43.6950 C   0  0  0  0  0  0  0  0  0  0  0  0
   56.6060   30.4900   43.0460 C   0  0  0  0  0  0  0  0  0  0  0  0
   57.8630   30.2040   43.7450 N   0  0  0  0  0  0  0  0  0  0  0  0
   57.6360   29.2210   44.8140 C   0  0  0  0  0  0  0  0  0  0  0  0
   58.8990   28.3590   45.0620 C   0  0  1  0  0  0  0  0  0  0  0  0
   60.0210   29.1240   45.8140 C   0  0  0  0  0  0  0  0  0  0  0  0
   59.5100   30.0090   46.8710 N   0  0  0  0  0  0  0  0  0  0  0  0
   60.0060   31.3480   47.0030 C   0  0  0  0  0  0  0  0  0  0  0  0
   61.1120   31.5700   47.8340 C   0  0  0  0  0  0  0  0  0  0  0  0
   61.6840   32.8530   47.9510 C   0  0  0  0  0  0  0  0  0  0  0  0
   62.7910   33.1120   48.7740 O   0  0  0  0  0  0  0  0  0  0  0  0
   64.1460   33.0950   48.3290 C   0  0  0  0  0  0  0  0  0  0  0  0
   61.1440   33.9120   47.2190 C   0  0  0  0  0  0  0  0  0  0  0  0
   60.0230   33.7150   46.4010 C   0  0  0  0  0  0  0  0  0  0  0  0
   59.4740   34.7820   45.6800 C   0  0  0  0  0  0  0  0  0  0  0  0
   58.3330   34.5790   44.9030 C   0  0  0  0  0  0  0  0  0  0  0  0
   57.7290   33.3250   44.8890 C   0  0  0  0  0  0  0  0  0  0  0  0
   58.2710   32.2880   45.5850 N   0  0  0  0  0  0  0  0  0  0  0  0
   59.4230   32.4330   46.3090 C   0  0  0  0  0  0  0  0  0  0  0  0
   58.5250   27.0060   45.6620 C   0  0  0  0  0  0  0  0  0  0  0  0
   59.4080   25.9100   45.7130 C   0  0  0  0  0  0  0  0  0  0  0  0
   59.0060   24.6980   46.2840 C   0  0  0  0  0  0  0  0  0  0  0  0
   57.7300   24.5570   46.8340 C   0  0  0  0  0  0  0  0  0  0  0  0
   57.3900   23.3300   47.4240 O   0  0  0  0  0  0  0  0  0  0  0  0
   56.4240   22.4130   46.9120 C   0  0  0  0  0  0  0  0  0  0  0  0
   56.4750   22.3840   45.4050 C   0  0  0  0  0  0  0  0  0  0  0  0
   57.3570   21.5060   44.7520 C   0  0  0  0  0  0  0  0  0  0  0  0
   57.4120   21.4690   43.3560 C   0  0  0  0  0  0  0  0  0  0  0  0
   56.5890   22.3090   42.5980 C   0  0  0  0  0  0  0  0  0  0  0  0
   55.7120   23.1900   43.2400 C   0  0  0  0  0  0  0  0  0  0  0  0
   55.6590   23.2340   44.6390 C   0  0  0  0  0  0  0  0  0  0  0  0
   56.8370   25.6430   46.7830 C   0  0  0  0  0  0  0  0  0  0  0  0
   57.2320   26.8490   46.2000 C   0  0  0  0  0  0  0  0  0  0  0  0
   55.5448   29.7932   44.7895 H   0  0  0  0  0  0  0  0  0  0  0  0
   54.4982   30.1805   43.3819 H   0  0  0  0  0  0  0  0  0  0  0  0
   55.4840   28.6790   43.3819 H   0  0  0  0  0  0  0  0  0  0  0  0
   56.6972   30.1796   41.9946 H   0  0  0  0  0  0  0  0  0  0  0  0
   56.4024   31.5694   43.1052 H   0  0  0  0  0  0  0  0  0  0  0  0
   58.5270   29.7820   43.0590 H   0  0  0  0  0  0  0  0  0  0  0  0
   57.3773   29.7531   45.7413 H   0  0  0  0  0  0  0  0  0  0  0  0
   56.8160   28.5556   44.5061 H   0  0  0  0  0  0  0  0  0  0  0  0
   59.3577   28.1375   44.0870 H   0  0  0  0  0  0  0  0  0  0  0  0
   60.6996   28.3888   46.2712 H   0  0  0  0  0  0  0  0  0  0  0  0
   60.5352   29.7581   45.0768 H   0  0  0  0  0  0  0  0  0  0  0  0
   59.0660   29.5970   47.7170 H   0  0  0  0  0  0  0  0  0  0  0  0
   61.5399   30.7315   48.4030 H   0  0  0  0  0  0  0  0  0  0  0  0
   64.8179   33.0866   49.1999 H   0  0  0  0  0  0  0  0  0  0  0  0
   64.3213   32.1946   47.7219 H   0  0  0  0  0  0  0  0  0  0  0  0
   64.3438   33.9907   47.7219 H   0  0  0  0  0  0  0  0  0  0  0  0
   61.6023   34.9098   47.2848 H   0  0  0  0  0  0  0  0  0  0  0  0
   59.9406   35.7771   45.7259 H   0  0  0  0  0  0  0  0  0  0  0  0
   57.9143   35.4030   44.3065 H   0  0  0  0  0  0  0  0  0  0  0  0
   56.8061   33.1706   44.3108 H   0  0  0  0  0  0  0  0  0  0  0  0
   57.7600   31.3770   45.5630 H   0  0  0  0  0  0  0  0  0  0  0  0
   60.4229   26.0080   45.3001 H   0  0  0  0  0  0  0  0  0  0  0  0
   59.7024   23.8467   46.3000 H   0  0  0  0  0  0  0  0  0  0  0  0
   56.6373   21.4066   47.3015 H   0  0  0  0  0  0  0  0  0  0  0  0
   55.4215   22.7360   47.2293 H   0  0  0  0  0  0  0  0  0  0  0  0
   58.0075   20.8444   45.3428 H   0  0  0  0  0  0  0  0  0  0  0  0
   58.1038   20.7780   42.8521 H   0  0  0  0  0  0  0  0  0  0  0  0
   56.6314   22.2768   41.4993 H   0  0  0  0  0  0  0  0  0  0  0  0
   55.0629   23.8493   42.6450 H   0  0  0  0  0  0  0  0  0  0  0  0
   54.9764   23.9363   45.1398 H   0  0  0  0  0  0  0  0  0  0  0  0
   55.8255   25.5419   47.2033 H   0  0  0  0  0  0  0  0  0  0  0  0
   56.5231   27.6891   46.1601 H   0  0  0  0  0  0  0  0  0  0  0  0
  1  2  1  0
  2  3  1  0
  3  4  1  0
  4  5  1  0
  5  6  1  0
  6  7  1  0
  7  8  1  0
  8  9  2  0
  9 10  1  0
 10 11  1  0
 11 12  1  0
 10 13  2  0
 13 14  1  0
 14 15  2  0
 15 16  1  0
 16 17  2  0
 17 18  1  0
 18 19  2  0
  5 20  1  0
 20 21  2  0
 21 22  1  0
 22 23  2  0
 23 24  1  0
 24 25  1  0
 25 26  1  0
 26 27  2  0
 27 28  1  0
 28 29  2  0
 29 30  1  0
 30 31  2  0
 23 32  1  0
 32 33  2  0
 19  8  1  0
 33 20  1  0
 19 14  1  0
 31 26  1  0
  1 34  1  0
  1 35  1  0
  1 36  1  0
  2 37  1  0
  2 38  1  0
  3 39  1  0
  4 40  1  0
  4 41  1  0
  5 42  1  6
  6 43  1  0
  6 44  1  0
  7 45  1  0
  9 46  1  0
 12 47  1  0
 12 48  1  0
 12 49  1  0
 13 50  1  0
 15 51  1  0
 16 52  1  0
 17 53  1  0
 18 54  1  0
 21 55  1  0
 22 56  1  0
 25 57  1  0
 25 58  1  0
 27 59  1  0
 28 60  1  0
 29 61  1  0
 30 62  1  0
 31 63  1  0
 32 64  1  0
 33 65  1  0
M  CHG  1  18   1
M  END
>  <UniqueID>  (3) 
3

>  <SMILES>  (3) 
CCNC[C@@H](CNc1cc(OC)cc2ccc[nH+]c12)c1ccc(OCc2ccccc2)cc1

>  <Energy>  (3) 
75.83812605211243

>  <Genealogy>  (3) 
CCNCC(CNc1cc(OC)cc2ccc[nH+]c12)c1ccc(OCc2ccccc2)cc1 (protonated)
CCNC[C@@H](CNc1cc(OC)cc2ccc[nH+]c12)c1ccc(OCc2ccccc2)cc1 (chirality)
CCNC[C@@H](CNc1cc(OC)cc2ccc[nH+]c12)c1ccc(OCc2ccccc2)cc1 (3D coordinates assigned)
CCNC[C@@H](CNc1cc(OC)cc2ccc[nH+]c12)c1ccc(OCc2ccccc2)cc1 (optimized conformer: 75.83812605211243 kcal/mol)

>  <smiles>  (3) 
CCNCC(CNc1cc(OC)cc2cccnc12)c1ccc(OCc2ccccc2)cc1

>  <score_type>  (3) 
oracle

>  <origin>  (3) 
adg

>  <m_score__min__energy>  (3) 
-6.9800000000000004

>  <m_primary>  (3) 
energy

$$$$
3:0
     RDKit          3D

 82 85  0  0  0  0  0  0  0  0999 V2000
   54.9540   30.5100   52.0200 C   0  0  0  0  0  0  0  0  0  0  0  0
   56.2120   29.7720   52.4720 C   0  0  0  0  0  0  0  0  0  0  0  0
   57.3600   30.1160   51.6060 N   0  0  0  0  0  0  0  0  0  0  0  0
   57.3850   31.5380   51.1880 C   0  0  0  0  0  0  0  0  0  0  0  0
   57.8920   32.3950   52.3400 C   0  0  0  0  0  0  0  0  0  0  0  0
   58.6560   29.6560   52.1560 C   0  0  0  0  0  0  0  0  0  0  0  0
   59.8040   29.6650   51.1330 C   0  0  0  0  0  0  0  0  0  0  0  0
   59.6210   28.5920   50.2330 O   0  0  0  0  0  0  0  0  0  0  0  0
   60.7110   28.5330   49.3350 C   0  0  0  0  0  0  0  0  0  0  0  0
   60.2630   29.0310   47.9630 C   0  0  0  0  0  0  0  0  0  0  0  0
   58.9380   29.6470   48.0390 N   0  0  0  0  0  0  0  0  0  0  0  0
   58.6020   30.7660   47.2100 C   0  0  0  0  0  0  0  0  0  0  0  0
   58.0560   30.5610   45.9320 C   0  0  0  0  0  0  0  0  0  0  0  0
   57.8350   29.2550   45.4450 C   0  0  0  0  0  0  0  0  0  0  0  0
   57.3340   29.0500   44.1630 C   0  0  0  0  0  0  0  0  0  0  0  0
   57.0620   30.1370   43.3410 C   0  0  0  0  0  0  0  0  0  0  0  0
   57.2710   31.4370   43.8010 C   0  0  0  0  0  0  0  0  0  0  0  0
   57.7450   31.6810   45.1170 C   0  0  0  0  0  0  0  0  0  0  0  0
   57.9310   32.9640   45.5980 N   0  0  0  0  0  0  0  0  0  0  0  0
   57.3660   34.1200   44.8660 C   0  0  0  0  0  0  0  0  0  0  0  0
   58.6260   33.1660   46.7770 C   0  0  0  0  0  0  0  0  0  0  0  0
   59.0820   34.4500   47.1650 C   0  0  0  0  0  0  0  0  0  0  0  0
   59.7360   34.6440   48.3800 C   0  0  0  0  0  0  0  0  0  0  0  0
   59.9530   33.5810   49.2530 C   0  0  0  0  0  0  0  0  0  0  0  0
   60.5980   33.8450   50.4720 O   0  0  0  0  0  0  0  0  0  0  0  0
   61.3000   32.8890   51.2660 C   0  0  0  0  0  0  0  0  0  0  0  0
   62.8430   33.0040   51.1560 C   0  0  0  0  0  0  0  0  0  0  0  0
   63.4490   32.8260   49.7910 N   0  0  0  0  0  0  0  0  0  0  0  0
   64.9240   32.7440   50.0000 C   0  0  0  0  0  0  0  0  0  0  0  0
   62.9850   31.5300   49.1720 C   0  0  0  0  0  0  0  0  0  0  0  0
   62.5390   31.6480   47.7030 C   0  0  0  0  0  0  0  0  0  0  0  0
   63.5390   32.4790   46.9000 C   0  0  0  0  0  0  0  0  0  0  0  0
   63.7350   33.8820   47.4980 C   0  0  0  0  0  0  0  0  0  0  0  0
   63.1590   34.0130   48.9260 C   0  0  0  0  0  0  0  0  0  0  0  0
   59.5460   32.2930   48.8710 C   0  0  0  0  0  0  0  0  0  0  0  0
   58.9210   32.0700   47.6260 C   0  0  0  0  0  0  0  0  0  0  0  0
   54.3871   30.8426   52.9021 H   0  0  0  0  0  0  0  0  0  0  0  0
   55.2388   31.3842   51.4162 H   0  0  0  0  0  0  0  0  0  0  0  0
   54.3298   29.8349   51.4162 H   0  0  0  0  0  0  0  0  0  0  0  0
   56.4442   30.0561   53.5090 H   0  0  0  0  0  0  0  0  0  0  0  0
   56.0301   28.6893   52.4042 H   0  0  0  0  0  0  0  0  0  0  0  0
   58.0535   31.6543   50.3222 H   0  0  0  0  0  0  0  0  0  0  0  0
   56.3694   31.8576   50.9116 H   0  0  0  0  0  0  0  0  0  0  0  0
   57.6146   31.9261   53.2956 H   0  0  0  0  0  0  0  0  0  0  0  0
   58.9868   32.4817   52.2783 H   0  0  0  0  0  0  0  0  0  0  0  0
   57.4408   33.3963   52.2783 H   0  0  0  0  0  0  0  0  0  0  0  0
   58.9315   30.3158   52.9919 H   0  0  0  0  0  0  0  0  0  0  0  0
   58.5169   28.6114   52.4714 H   0  0  0  0  0  0  0  0  0  0  0  0
   59.7990   30.6160   50.5802 H   0  0  0  0  0  0  0  0  0  0  0  0
   60.7677   29.5567   51.6522 H   0  0  0  0  0  0  0  0  0  0  0  0
   61.5284   29.1680   49.7073 H   0  0  0  0  0  0  0  0  0  0  0  0
   61.0642   27.4945   49.2524 H   0  0  0  0  0  0  0  0  0  0  0  0
   60.9856   29.7748   47.5961 H   0  0  0  0  0  0  0  0  0  0  0  0
   60.2132   28.1730   47.2764 H   0  0  0  0  0  0  0  0  0  0  0  0
   58.1840   29.2220   48.6260 H   0  0  0  0  0  0  0  0  0  0  0  0
   58.0612   28.3899   46.0856 H   0  0  0  0  0  0  0  0  0  0  0  0
   57.1533   28.0274   43.8002 H   0  0  0  0  0  0  0  0  0  0  0  0
   56.6801   29.9713   42.3228 H   0  0  0  0  0  0  0  0  0  0  0  0
   57.0653   32.2869   43.1336 H   0  0  0  0  0  0  0  0  0  0  0  0
   57.0009   34.8671   45.5861 H   0  0  0  0  0  0  0  0  0  0  0  0
   58.1456   34.5704   44.2340 H   0  0  0  0  0  0  0  0  0  0  0  0
   56.5317   33.7816   44.2340 H   0  0  0  0  0  0  0  0  0  0  0  0
   58.9171   35.3077   46.4963 H   0  0  0  0  0  0  0  0  0  0  0  0
   60.0856   35.6505   48.6533 H   0  0  0  0  0  0  0  0  0  0  0  0
   61.0145   33.0341   52.3184 H   0  0  0  0  0  0  0  0  0  0  0  0
   61.0231   31.8926   50.8912 H   0  0  0  0  0  0  0  0  0  0  0  0
   63.1271   34.0036   51.5166 H   0  0  0  0  0  0  0  0  0  0  0  0
   63.2334   32.1656   51.7516 H   0  0  0  0  0  0  0  0  0  0  0  0
   65.1414   32.7319   51.0782 H   0  0  0  0  0  0  0  0  0  0  0  0
   65.3092   31.8231   49.5379 H   0  0  0  0  0  0  0  0  0  0  0  0
   65.4089   33.6166   49.5379 H   0  0  0  0  0  0  0  0  0  0  0  0
   63.8141   30.8089   49.2225 H   0  0  0  0  0  0  0  0  0  0  0  0
   62.1009   31.2095   49.7427 H   0  0  0  0  0  0  0  0  0  0  0  0
   62.4712   30.6416   47.2643 H   0  0  0  0  0  0  0  0  0  0  0  0
   61.5585   32.1456   47.6700 H   0  0  0  0  0  0  0  0  0  0  0  0
   64.5078   31.9581   46.8919 H   0  0  0  0  0  0  0  0  0  0  0  0
   63.1415   32.5969   45.8811 H   0  0  0  0  0  0  0  0  0  0  0  0
   64.8123   34.1014   47.5326 H   0  0  0  0  0  0  0  0  0  0  0  0
   63.1929   34.5927   46.8569 H   0  0  0  0  0  0  0  0  0  0  0  0
   63.5961   34.9049   49.3986 H   0  0  0  0  0  0  0  0  0  0  0  0
   62.0657   34.0888   48.8314 H   0  0  0  0  0  0  0  0  0  0  0  0
   59.7167   31.4460   49.5517 H   0  0  0  0  0  0  0  0  0  0  0  0
  1  2  1  0
  2  3  1  0
  3  4  1  0
  4  5  1  0
  3  6  1  0
  6  7  1  0
  7  8  1  0
  8  9  1  0
  9 10  1  0
 10 11  1  0
 11 12  1  0
 12 13  2  0
 13 14  1  0
 14 15  2  0
 15 16  1  0
 16 17  2  0
 17 18  1  0
 18 19  2  0
 19 20  1  0
 19 21  1  0
 21 22  2  0
 22 23  1  0
 23 24  2  0
 24 25  1  0
 25 26  1  0
 26 27  1  0
 27 28  1  0
 28 29  1  0
 28 30  1  0
 30 31  1  0
 31 32  1  0
 32 33  1  0
 33 34  1  0
 24 35  1  0
 35 36  2  0
 36 12  1  0
 18 13  1  0
 36 21  1  0
 34 28  1  0
  1 37  1  0
  1 38  1  0
  1 39  1  0
  2 40  1  0
  2 41  1  0
  4 42  1  0
  4 43  1  0
  5 44  1  0
  5 45  1  0
  5 46  1  0
  6 47  1  0
  6 48  1  0
  7 49  1  0
  7 50  1  0
  9 51  1  0
  9 52  1  0
 10 53  1  0
 10 54  1  0
 11 55  1  0
 14 56  1  0
 15 57  1  0
 16 58  1  0
 17 59  1  0
 20 60  1  0
 20 61  1  0
 20 62  1  0
 22 63  1  0
 23 64  1  0
 26 65  1  0
 26 66  1  0
 27 67  1  0
 27 68  1  0
 29 69  1  0
 29 70  1  0
 29 71  1  0
 30 72  1  0
 30 73  1  0
 31 74  1  0
 31 75  1  0
 32 76  1  0
 32 77  1  0
 33 78  1  0
 33 79  1  0
 34 80  1  0
 34 81  1  0
 35 82  1  0
M  CHG  2  19   1  28   1
M  END
>  <UniqueID>  (4) 
4

>  <SMILES>  (4) 
CCN(CC)CCOCCNc1c2ccccc2[n+](C)c2ccc(OCC[N+]3(C)CCCCC3)cc12

>  <Energy>  (4) 
125.00888200080217

>  <Genealogy>  (4) 
CCN(CC)CCOCCNc1c2ccccc2[n+](C)c2ccc(OCC[N+]3(C)CCCCC3)cc12 (3D coordinates assigned)
CCN(CC)CCOCCNc1c2ccccc2[n+](C)c2ccc(OCC[N+]3(C)CCCCC3)cc12 (nonaromatic ring conformer: 125.00888200080217 kcal/mol)

>  <smiles>  (4) 
CCN(CC)CCOCCNc1c2ccccc2[n+](C)c2ccc(OCC[N+]3(C)CCCCC3)cc12

>  <score_type>  (4) 
oracle

>  <origin>  (4) 
adg

>  <m_score__min__energy>  (4) 
-5.7699999999999996

>  <m_primary>  (4) 
energy

$$$$
4:0
     RDKit          3D

 57 59  0  0  0  0  0  0  0  0999 V2000
   58.2020   28.8730   44.4660 C   0  0  0  0  0  0  0  0  0  0  0  0
   58.3530   30.0320   45.4510 C   0  0  0  0  0  0  0  0  0  0  0  0
   57.3130   31.0560   45.2080 N   0  0  0  0  0  0  0  0  0  0  0  0
   56.3310   30.5640   44.2250 C   0  0  0  0  0  0  0  0  0  0  0  0
   57.9070   32.3420   44.7670 C   0  0  0  0  0  0  0  0  0  0  0  0
   57.3150   33.5210   45.5550 C   0  0  0  0  0  0  0  0  0  0  0  0
   58.0990   33.7980   46.8460 C   0  0  0  0  0  0  0  0  0  0  0  0
   58.6880   32.5610   47.3630 N   0  0  0  0  0  0  0  0  0  0  0  0
   59.7110   32.5420   48.3780 C   0  0  0  0  0  0  0  0  0  0  0  0
   61.0030   33.0140   48.0730 C   0  0  0  0  0  0  0  0  0  0  0  0
   61.3370   33.4000   46.7550 C   0  0  0  0  0  0  0  0  0  0  0  0
   62.6260   33.8240   46.4430 C   0  0  0  0  0  0  0  0  0  0  0  0
   63.6070   33.8510   47.4270 C   0  0  0  0  0  0  0  0  0  0  0  0
   63.3010   33.4750   48.7350 C   0  0  0  0  0  0  0  0  0  0  0  0
   61.9870   33.0750   49.0960 C   0  0  0  0  0  0  0  0  0  0  0  0
   61.6590   32.7410   50.3970 N   0  0  0  0  0  0  0  0  0  0  0  0
   62.5820   33.0850   51.5020 C   0  0  0  0  0  0  0  0  0  0  0  0
   60.4520   32.1190   50.6690 C   0  0  0  0  0  0  0  0  0  0  0  0
   60.1900   31.5270   51.9300 C   0  0  0  0  0  0  0  0  0  0  0  0
   58.9310   30.9810   52.2380 C   0  0  0  0  0  0  0  0  0  0  0  0
   58.6480   30.4080   53.4890 O   0  0  0  0  0  0  0  0  0  0  0  0
   58.4530   31.1390   54.6960 C   0  0  0  0  0  0  0  0  0  0  0  0
   57.9140   31.0030   51.2810 C   0  0  0  0  0  0  0  0  0  0  0  0
   56.6680   30.4450   51.6190 O   0  0  0  0  0  0  0  0  0  0  0  0
   55.6520   31.1130   52.3630 C   0  0  0  0  0  0  0  0  0  0  0  0
   58.1610   31.5670   50.0220 C   0  0  0  0  0  0  0  0  0  0  0  0
   59.4360   32.0700   49.6800 C   0  0  0  0  0  0  0  0  0  0  0  0
   58.0794   27.9322   45.0227 H   0  0  0  0  0  0  0  0  0  0  0  0
   57.3183   29.0424   43.8332 H   0  0  0  0  0  0  0  0  0  0  0  0
   59.0996   28.8103   43.8332 H   0  0  0  0  0  0  0  0  0  0  0  0
   58.2525   29.6502   46.4777 H   0  0  0  0  0  0  0  0  0  0  0  0
   59.3434   30.4903   45.3127 H   0  0  0  0  0  0  0  0  0  0  0  0
   55.4684   30.1318   44.7533 H   0  0  0  0  0  0  0  0  0  0  0  0
   55.9936   31.3995   43.5941 H   0  0  0  0  0  0  0  0  0  0  0  0
   56.7982   29.7935   43.5941 H   0  0  0  0  0  0  0  0  0  0  0  0
   58.9945   32.3105   44.9296 H   0  0  0  0  0  0  0  0  0  0  0  0
   57.6809   32.4848   43.7000 H   0  0  0  0  0  0  0  0  0  0  0  0
   57.3418   34.4207   44.9226 H   0  0  0  0  0  0  0  0  0  0  0  0
   56.2825   33.2618   45.8321 H   0  0  0  0  0  0  0  0  0  0  0  0
   58.9012   34.5203   46.6346 H   0  0  0  0  0  0  0  0  0  0  0  0
   57.4103   34.2067   47.6001 H   0  0  0  0  0  0  0  0  0  0  0  0
   58.2600   31.6480   47.0770 H   0  0  0  0  0  0  0  0  0  0  0  0
   60.5702   33.3651   45.9671 H   0  0  0  0  0  0  0  0  0  0  0  0
   62.8680   34.1378   45.4169 H   0  0  0  0  0  0  0  0  0  0  0  0
   64.6287   34.1701   47.1734 H   0  0  0  0  0  0  0  0  0  0  0  0
   64.0912   33.4886   49.5001 H   0  0  0  0  0  0  0  0  0  0  0  0
   62.0852   32.8998   52.4658 H   0  0  0  0  0  0  0  0  0  0  0  0
   63.4870   32.4638   51.4307 H   0  0  0  0  0  0  0  0  0  0  0  0
   62.8597   34.1470   51.4307 H   0  0  0  0  0  0  0  0  0  0  0  0
   60.9895   31.4939   52.6848 H   0  0  0  0  0  0  0  0  0  0  0  0
   58.6293   30.4781   55.5575 H   0  0  0  0  0  0  0  0  0  0  0  0
   59.1574   31.9832   54.7313 H   0  0  0  0  0  0  0  0  0  0  0  0
   57.4218   31.5202   54.7313 H   0  0  0  0  0  0  0  0  0  0  0  0
   55.8430   30.9875   53.4390 H   0  0  0  0  0  0  0  0  0  0  0  0
   55.6579   32.1840   52.1121 H   0  0  0  0  0  0  0  0  0  0  0  0
   54.6711   30.6830   52.1121 H   0  0  0  0  0  0  0  0  0  0  0  0
   57.3457   31.6190   49.2854 H   0  0  0  0  0  0  0  0  0  0  0  0
  1  2  1  0
  2  3  1  0
  3  4  1  0
  3  5  1  0
  5  6  1  0
  6  7  1  0
  7  8  1  0
  8  9  1  0
  9 10  2  0
 10 11  1  0
 11 12  2  0
 12 13  1  0
 13 14  2  0
 14 15  1  0
 15 16  2  0
 16 17  1  0
 16 18  1  0
 18 19  2  0
 19 20  1  0
 20 21  1  0
 21 22  1  0
 20 23  2  0
 23 24  1  0
 24 25  1  0
 23 26  1  0
 26 27  2  0
 27  9  1  0
 15 10  1  0
 27 18  1  0
  1 28  1  0
  1 29  1  0
  1 30  1  0
  2 31  1  0
  2 32  1  0
  4 33  1  0
  4 34  1  0
  4 35  1  0
  5 36  1  0
  5 37  1  0
  6 38  1  0
  6 39  1  0
  7 40  1  0
  7 41  1  0
  8 42  1  0
 11 43  1  0
 12 44  1  0
 13 45  1  0
 14 46  1  0
 17 47  1  0
 17 48  1  0
 17 49  1  0
 19 50  1  0
 22 51  1  0
 22 52  1  0
 22 53  1  0
 25 54  1  0
 25 55  1  0
 25 56  1  0
 26 57  1  0
M  CHG  1  16   1
M  END
>  <UniqueID>  (5) 
5

>  <SMILES>  (5) 
CCN(C)CCCNc1c2ccccc2[n+](C)c2cc(OC)c(OC)cc12

>  <Energy>  (5) 
80.49243501709667

>  <Genealogy>  (5) 
CCN(C)CCCNc1c2ccccc2[n+](C)c2cc(OC)c(OC)cc12 (3D coordinates assigned)
CCN(C)CCCNc1c2ccccc2[n+](C)c2cc(OC)c(OC)cc12 (optimized conformer: 80.49243501709667 kcal/mol)

>  <smiles>  (5) 
CCN(C)CCCNc1c2ccccc2[n+](C)c2cc(OC)c(OC)cc12

>  <score_type>  (5) 
oracle

>  <origin>  (5) 
adg

>  <m_score__min__energy>  (5) 
-5.5999999999999996

>  <m_primary>  (5) 
energy

$$$$
5:0
     RDKit          3D

 42 44  0  0  0  0  0  0  0  0999 V2000
   60.5020   29.2490   46.2200 C   0  0  0  0  0  0  0  0  0  0  0  0
   60.3140   27.7670   46.5740 C   0  0  0  0  0  0  0  0  0  0  0  0
   59.0920   27.4860   47.3590 N   0  0  0  0  0  0  0  0  0  0  0  0
   58.7090   28.6210   48.2200 C   0  0  0  0  0  0  0  0  0  0  0  0
   57.9660   27.0110   46.5250 C   0  0  0  0  0  0  0  0  0  0  0  0
   57.7690   27.9100   45.2970 C   0  0  0  0  0  0  0  0  0  0  0  0
   56.6380   28.8160   45.4860 N   0  0  0  0  0  0  0  0  0  0  0  0
   55.9970   29.5870   44.4610 C   0  0  0  0  0  0  0  0  0  0  0  0
   54.7960   29.3410   44.1790 O   0  0  0  0  0  0  0  0  0  0  0  0
   56.7050   30.6540   43.7210 C   0  0  0  0  0  0  0  0  0  0  0  0
   56.6430   30.6900   42.3190 C   0  0  0  0  0  0  0  0  0  0  0  0
   57.3140   31.6880   41.6040 C   0  0  0  0  0  0  0  0  0  0  0  0
   58.0500   32.6650   42.2790 C   0  0  0  0  0  0  0  0  0  0  0  0
   58.1110   32.6510   43.6760 C   0  0  0  0  0  0  0  0  0  0  0  0
   58.8370   33.5880   44.3400 N   0  0  0  0  0  0  0  0  0  0  0  0
   58.9210   33.5810   45.6960 C   0  0  0  0  0  0  0  0  0  0  0  0
   59.6770   34.5460   46.3700 C   0  0  0  0  0  0  0  0  0  0  0  0
   59.7580   34.5180   47.7670 C   0  0  0  0  0  0  0  0  0  0  0  0
   59.0860   33.5260   48.4920 C   0  0  0  0  0  0  0  0  0  0  0  0
   58.3270   32.5580   47.8230 C   0  0  0  0  0  0  0  0  0  0  0  0
   58.2410   32.5830   46.4270 C   0  0  0  0  0  0  0  0  0  0  0  0
   57.5150   31.6470   45.7630 N   0  0  0  0  0  0  0  0  0  0  0  0
   57.4280   31.6500   44.4050 C   0  0  0  0  0  0  0  0  0  0  0  0
   60.5770   29.8402   47.1446 H   0  0  0  0  0  0  0  0  0  0  0  0
   61.4229   29.3713   45.6309 H   0  0  0  0  0  0  0  0  0  0  0  0
   59.6408   29.5974   45.6309 H   0  0  0  0  0  0  0  0  0  0  0  0
   60.2637   27.1915   45.6379 H   0  0  0  0  0  0  0  0  0  0  0  0
   61.1693   27.4791   47.2029 H   0  0  0  0  0  0  0  0  0  0  0  0
   58.8073   28.3296   49.2761 H   0  0  0  0  0  0  0  0  0  0  0  0
   59.3680   29.4770   48.0129 H   0  0  0  0  0  0  0  0  0  0  0  0
   57.6660   28.9027   48.0129 H   0  0  0  0  0  0  0  0  0  0  0  0
   58.1760   25.9849   46.1888 H   0  0  0  0  0  0  0  0  0  0  0  0
   57.0475   27.0399   47.1296 H   0  0  0  0  0  0  0  0  0  0  0  0
   58.6814   28.5028   45.1353 H   0  0  0  0  0  0  0  0  0  0  0  0
   57.5641   27.2715   44.4250 H   0  0  0  0  0  0  0  0  0  0  0  0
   56.0625   29.9278   41.7785 H   0  0  0  0  0  0  0  0  0  0  0  0
   57.2618   31.7035   40.5053 H   0  0  0  0  0  0  0  0  0  0  0  0
   58.5808   33.4442   41.7123 H   0  0  0  0  0  0  0  0  0  0  0  0
   60.2069   35.3255   45.8030 H   0  0  0  0  0  0  0  0  0  0  0  0
   60.3513   35.2775   48.2971 H   0  0  0  0  0  0  0  0  0  0  0  0
   59.1546   33.5072   49.5897 H   0  0  0  0  0  0  0  0  0  0  0  0
   57.7995   31.7796   48.3939 H   0  0  0  0  0  0  0  0  0  0  0  0
  1  2  1  0
  2  3  1  0
  3  4  1  0
  3  5  1  0
  5  6  1  0
  6  7  1  0
  7  8  1  0
  8  9  2  0
  8 10  1  0
 10 11  2  0
 11 12  1  0
 12 13  2  0
 13 14  1  0
 14 15  2  0
 15 16  1  0
 16 17  2  0
 17 18  1  0
 18 19  2  0
 19 20  1  0
 20 21  2  0
 21 22  1  0
 22 23  2  0
 23 10  1  0
 23 14  1  0
 21 16  1  0
  1 24  1  0
  1 25  1  0
  1 26  1  0
  2 27  1  0
  2 28  1  0
  4 29  1  0
  4 30  1  0
  4 31  1  0
  5 32  1  0
  5 33  1  0
  6 34  1  0
  6 35  1  0
 11 36  1  0
 12 37  1  0
 13 38  1  0
 17 39  1  0
 18 40  1  0
 19 41  1  0
 20 42  1  0
M  CHG  1   7  -1
M  END
>  <UniqueID>  (6) 
6

>  <SMILES>  (6) 
CCN(C)CC[N-]C(=O)c1cccc2nc3ccccc3nc12

>  <Energy>  (6) 
51.96586181230394

>  <Genealogy>  (6) 
CCN(C)CC[N-]C(=O)c1cccc2nc3ccccc3nc12 (protonated)
CCN(C)CC[N-]C(=O)c1cccc2nc3ccccc3nc12 (3D coordinates assigned)
CCN(C)CC[N-]C(=O)c1cccc2nc3ccccc3nc12 (optimized conformer: 51.96586181230394 kcal/mol)

>  <smiles>  (6) 
CCN(C)CCNC(=O)c1cccc2nc3ccccc3nc12

>  <score_type>  (6) 
oracle

>  <origin>  (6) 
adg

>  <m_score__min__energy>  (6) 
-9.5099999999999998

>  <m_primary>  (6) 
energy

$$$$
6:0
     RDKit          3D

 23 24  0  0  0  0  0  0  0  0999 V2000
   59.2470   34.9760   45.6540 C   0  0  0  0  0  0  0  0  0  0  0  0
   59.0710   33.4830   45.7390 C   0  0  0  0  0  0  0  0  0  0  0  0
   57.8950   32.9050   45.2560 C   0  0  0  0  0  0  0  0  0  0  0  0
   57.7090   31.5250   45.2970 C   0  0  0  0  0  0  0  0  0  0  0  0
   56.5540   31.0340   44.8610 O   0  0  0  0  0  0  0  0  0  0  0  0
   56.2820   29.7380   44.8550 C   0  0  0  0  0  0  0  0  0  0  0  0
   55.1510   29.3420   44.4700 O   0  0  0  0  0  0  0  0  0  0  0  0
   57.2470   28.8180   45.2480 C   0  0  0  0  0  0  0  0  0  0  0  0
   58.5200   29.2650   45.6370 C   0  0  0  0  0  0  0  0  0  0  0  0
   59.6250   28.2380   45.7900 C   0  0  0  0  0  0  0  0  0  0  0  0
   59.2730   26.8940   47.1560 Br  0  0  0  0  0  0  0  0  0  0  0  0
   58.7240   30.6700   45.7990 C   0  0  0  0  0  0  0  0  0  0  0  0
   59.8520   31.2700   46.4380 C   0  0  0  0  0  0  0  0  0  0  0  0
   60.9910   30.3030   47.6680 Br  0  0  0  0  0  0  0  0  0  0  0  0
   60.0380   32.6710   46.3610 C   0  0  0  0  0  0  0  0  0  0  0  0
   61.6020   33.4930   47.1410 Br  0  0  0  0  0  0  0  0  0  0  0  0
   59.2967   35.3977   46.6687 H   0  0  0  0  0  0  0  0  0  0  0  0
   60.1784   35.2053   45.1156 H   0  0  0  0  0  0  0  0  0  0  0  0
   58.3945   35.4156   45.1156 H   0  0  0  0  0  0  0  0  0  0  0  0
   57.1059   33.5473   44.8380 H   0  0  0  0  0  0  0  0  0  0  0  0
   57.0141   27.7430   45.2543 H   0  0  0  0  0  0  0  0  0  0  0  0
   59.7567   27.7252   44.8258 H   0  0  0  0  0  0  0  0  0  0  0  0
   60.5262   28.7843   46.1054 H   0  0  0  0  0  0  0  0  0  0  0  0
  1  2  1  0
  2  3  2  0
  3  4  1  0
  4  5  1  0
  5  6  1  0
  6  7  2  0
  6  8  1  0
  8  9  2  0
  9 10  1  0
 10 11  1  0
  9 12  1  0
 12 13  1  0
 13 14  1  0
 13 15  2  0
 15 16  1  0
 15  2  1  0
 12  4  2  0
  1 17  1  0
  1 18  1  0
  1 19  1  0
  3 20  1  0
  8 21  1  0
 10 22  1  0
 10 23  1  0
M  END
>  <UniqueID>  (7) 
7

>  <SMILES>  (7) 
Cc1cc2oc(=O)cc(CBr)c2c(Br)c1Br

>  <Energy>  (7) 
46.11858193460555

>  <Genealogy>  (7) 
Cc1cc2oc(=O)cc(CBr)c2c(Br)c1Br (3D coordinates assigned)
Cc1cc2oc(=O)cc(CBr)c2c(Br)c1Br (optimized conformer: 46.11858193460555 kcal/mol)

>  <smiles>  (7) 
Cc1cc2oc(=O)cc(CBr)c2c(Br)c1Br

>  <score_type>  (7) 
oracle

>  <origin>  (7) 
adg

>  <m_score__min__energy>  (7) 
-7.54

>  <m_primary>  (7) 
energy

$$$$
7:0
     RDKit          3D

 48 49  0  0  0  0  0  0  0  0999 V2000
   56.3980   27.1843   45.7789 H   0  0  0  0  0  0  0  0  0  0  0  0
   57.0580   27.9930   45.4320 C   0  0  0  0  0  0  0  0  0  0  0  0
   56.4430   29.0690   44.6210 C   0  0  0  0  0  0  0  0  0  0  0  0
   55.2590   29.4080   44.8830 O   0  0  0  0  0  0  0  0  0  0  0  0
   57.1500   29.7850   43.5350 C   0  0  0  0  0  0  0  0  0  0  0  0
   57.7896   29.2071   42.8517 H   0  0  0  0  0  0  0  0  0  0  0  0
   57.0430   31.1080   43.3500 C   0  0  0  0  0  0  0  0  0  0  0  0
   56.4724   31.4676   42.4811 H   0  0  0  0  0  0  0  0  0  0  0  0
   57.6520   32.1120   44.2530 C   0  0  0  0  0  0  0  0  0  0  0  0
   58.4870   33.0940   43.6970 C   0  0  0  0  0  0  0  0  0  0  0  0
   58.6888   33.0895   42.6157 H   0  0  0  0  0  0  0  0  0  0  0  0
   59.0640   34.0770   44.5050 C   0  0  0  0  0  0  0  0  0  0  0  0
   59.7073   34.8461   44.0525 H   0  0  0  0  0  0  0  0  0  0  0  0
   58.8300   34.0920   45.8900 C   0  0  0  0  0  0  0  0  0  0  0  0
   59.4170   35.1130   46.7170 N   0  0  0  0  0  0  0  0  0  0  0  0
   59.9030   36.1430   46.2080 O   0  0  0  0  0  0  0  0  0  0  0  0
   59.4650   34.9620   48.0840 O   0  0  0  0  0  0  0  0  0  0  0  0
   58.0130   33.0950   46.4510 C   0  0  0  0  0  0  0  0  0  0  0  0
   57.8289   33.0878   47.5355 H   0  0  0  0  0  0  0  0  0  0  0  0
   57.4320   32.1120   45.6430 C   0  0  0  0  0  0  0  0  0  0  0  0
   56.7996   31.3346   46.0966 H   0  0  0  0  0  0  0  0  0  0  0  0
   58.3540   27.9210   45.7800 C   0  0  0  0  0  0  0  0  0  0  0  0
   58.8775   26.9716   45.5942 H   0  0  0  0  0  0  0  0  0  0  0  0
   59.1300   29.0190   46.3930 C   0  0  0  0  0  0  0  0  0  0  0  0
   60.3250   29.4320   45.7890 C   0  0  0  0  0  0  0  0  0  0  0  0
   60.6528   28.9646   44.8487 H   0  0  0  0  0  0  0  0  0  0  0  0
   61.1030   30.4350   46.3750 C   0  0  0  0  0  0  0  0  0  0  0  0
   62.0503   30.7368   45.9043 H   0  0  0  0  0  0  0  0  0  0  0  0
   60.6830   31.0600   47.5610 C   0  0  0  0  0  0  0  0  0  0  0  0
   61.5000   32.0760   48.1810 N   0  0  0  0  0  0  0  0  0  0  0  0
   61.0700   32.6930   49.4480 C   0  0  0  0  0  0  0  0  0  0  0  0
   61.1372   31.9472   50.2537 H   0  0  0  0  0  0  0  0  0  0  0  0
   60.0331   33.0428   49.3366 H   0  0  0  0  0  0  0  0  0  0  0  0
   61.9540   33.8850   49.7950 C   0  0  0  0  0  0  0  0  0  0  0  0
   62.0260   33.9821   50.8883 H   0  0  0  0  0  0  0  0  0  0  0  0
   62.9584   33.7316   49.3736 H   0  0  0  0  0  0  0  0  0  0  0  0
   61.5156   34.8016   49.3736 H   0  0  0  0  0  0  0  0  0  0  0  0
   62.7580   32.4990   47.5460 C   0  0  0  0  0  0  0  0  0  0  0  0
   63.4781   32.7867   48.3262 H   0  0  0  0  0  0  0  0  0  0  0  0
   63.1551   31.6624   46.9524 H   0  0  0  0  0  0  0  0  0  0  0  0
   62.5180   33.6880   46.6220 C   0  0  0  0  0  0  0  0  0  0  0  0
   62.3359   34.5899   47.2248 H   0  0  0  0  0  0  0  0  0  0  0  0
   63.4029   33.8436   45.9873 H   0  0  0  0  0  0  0  0  0  0  0  0
   61.6421   33.4882   45.9873 H   0  0  0  0  0  0  0  0  0  0  0  0
   59.4620   30.6770   48.1390 C   0  0  0  0  0  0  0  0  0  0  0  0
   59.1122   31.1736   49.0561 H   0  0  0  0  0  0  0  0  0  0  0  0
   58.6880   29.6690   47.5570 C   0  0  0  0  0  0  0  0  0  0  0  0
   57.7284   29.3835   48.0127 H   0  0  0  0  0  0  0  0  0  0  0  0
  1  2  1  0
  2  3  1  0
  3  4  2  0
  3  5  1  0
  5  6  1  0
  5  7  2  0
  7  8  1  0
  7  9  1  0
  9 10  2  0
 10 11  1  0
 10 12  1  0
 12 13  1  0
 12 14  2  0
 14 15  1  0
 15 16  2  0
 15 17  1  0
 14 18  1  0
 18 19  1  0
 18 20  2  0
 20 21  1  0
  2 22  2  3
 22 23  1  0
 22 24  1  0
 24 25  2  0
 25 26  1  0
 25 27  1  0
 27 28  1  0
 27 29  2  0
 29 30  1  0
 30 31  1  0
 31 32  1  0
 31 33  1  0
 31 34  1  0
 34 35  1  0
 34 36  1  0
 34 37  1  0
 30 38  1  0
 38 39  1  0
 38 40  1  0
 38 41  1  0
 41 42  1  0
 41 43  1  0
 41 44  1  0
 29 45  1  0
 45 46  1  0
 45 47  2  0
 47 48  1  0
 20  9  1  0
 47 24  1  0
M  CHG  2  15   1  17  -1
M  END
>  <UniqueID>  (8) 
8

>  <SMILES>  (8) 
CCN(CC)c1ccc(C=CC(=O)/C=C/c2ccc([N+](=O)[O-])cc2)cc1

>  <Energy>  (8) 
54.72125911425573

>  <Genealogy>  (8) 
CCN(CC)c1ccc(C=CC(=O)/C=C/c2ccc([N+](=O)[O-])cc2)cc1 (cis-trans isomerization)
CCN(CC)c1ccc(C=CC(=O)/C=C/c2ccc([N+](=O)[O-])cc2)cc1 (3D coordinates assigned)
CCN(CC)c1ccc(C=CC(=O)/C=C/c2ccc([N+](=O)[O-])cc2)cc1 (optimized conformer: 54.72125911425573 kcal/mol)

>  <smiles>  (8) 
CCN(CC)c1ccc(C=CC(=O)C=Cc2ccc([N+](=O)[O-])cc2)cc1

>  <score_type>  (8) 
oracle

>  <origin>  (8) 
adg

>  <m_score__min__energy>  (8) 
-7.7699999999999996

>  <m_primary>  (8) 
energy

$$$$
8:0
     RDKit          3D

 45 47  0  0  0  0  0  0  0  0999 V2000
   63.3930   33.8410   46.3800 C   0  0  0  0  0  0  0  0  0  0  0  0
   63.4310   33.2490   47.7990 C   0  0  0  0  0  0  0  0  0  0  0  0
   62.0940   32.9950   48.3860 N   0  0  0  0  0  0  0  0  0  0  0  0
   61.5220   34.1920   49.0470 C   0  0  0  0  0  0  0  0  0  0  0  0
   60.0960   33.9000   49.4950 C   0  0  0  0  0  0  0  0  0  0  0  0
   62.0570   31.7800   49.2300 C   0  0  0  0  0  0  0  0  0  0  0  0
   61.4140   30.6050   48.4820 C   0  0  0  0  0  0  0  0  0  0  0  0
   61.2630   30.9140   47.0590 N   0  0  0  0  0  0  0  0  0  0  0  0
   59.9900   30.8090   46.4040 C   0  0  0  0  0  0  0  0  0  0  0  0
   59.4860   29.5560   46.0600 C   0  0  0  0  0  0  0  0  0  0  0  0
   59.9780   28.2910   46.2940 C   0  0  0  0  0  0  0  0  0  0  0  0
   59.0600   27.4380   45.6990 C   0  0  0  0  0  0  0  0  0  0  0  0
   58.0840   28.1310   45.1460 O   0  0  0  0  0  0  0  0  0  0  0  0
   58.3260   29.4040   45.3510 C   0  0  0  0  0  0  0  0  0  0  0  0
   57.5550   30.4930   44.9420 C   0  0  0  0  0  0  0  0  0  0  0  0
   56.3210   30.2740   44.2380 N   0  0  0  0  0  0  0  0  0  0  0  0
   56.2760   30.4160   42.9990 O   0  0  0  0  0  0  0  0  0  0  0  0
   55.2590   29.6790   44.8780 O   0  0  0  0  0  0  0  0  0  0  0  0
   58.0180   31.7950   45.2860 C   0  0  0  0  0  0  0  0  0  0  0  0
   57.3380   32.9530   44.8730 C   0  0  0  0  0  0  0  0  0  0  0  0
   57.7980   34.2110   45.2520 C   0  0  0  0  0  0  0  0  0  0  0  0
   58.9390   34.3190   46.0430 C   0  0  0  0  0  0  0  0  0  0  0  0
   59.6220   33.2070   46.4210 N   0  0  0  0  0  0  0  0  0  0  0  0
   59.2270   31.9520   46.0430 C   0  0  0  0  0  0  0  0  0  0  0  0
   63.3227   34.9370   46.4417 H   0  0  0  0  0  0  0  0  0  0  0  0
   64.3109   33.5622   45.8417 H   0  0  0  0  0  0  0  0  0  0  0  0
   62.5183   33.4472   45.8417 H   0  0  0  0  0  0  0  0  0  0  0  0
   63.9780   32.2954   47.7607 H   0  0  0  0  0  0  0  0  0  0  0  0
   63.9218   33.9956   48.4406 H   0  0  0  0  0  0  0  0  0  0  0  0
   62.1340   34.4533   49.9229 H   0  0  0  0  0  0  0  0  0  0  0  0
   61.5155   35.0318   48.3365 H   0  0  0  0  0  0  0  0  0  0  0  0
   60.0516   33.8909   50.5941 H   0  0  0  0  0  0  0  0  0  0  0  0
   59.4231   34.6790   49.1073 H   0  0  0  0  0  0  0  0  0  0  0  0
   59.7834   32.9192   49.1073 H   0  0  0  0  0  0  0  0  0  0  0  0
   63.0848   31.5070   49.5114 H   0  0  0  0  0  0  0  0  0  0  0  0
   61.4544   31.9953   50.1247 H   0  0  0  0  0  0  0  0  0  0  0  0
   62.0515   29.7154   48.5921 H   0  0  0  0  0  0  0  0  0  0  0  0
   60.4179   30.4179   48.9095 H   0  0  0  0  0  0  0  0  0  0  0  0
   61.9910   31.5240   46.6210 H   0  0  0  0  0  0  0  0  0  0  0  0
   60.8966   28.0174   46.8338 H   0  0  0  0  0  0  0  0  0  0  0  0
   59.1355   26.3406   45.6898 H   0  0  0  0  0  0  0  0  0  0  0  0
   56.4377   32.8651   44.2471 H   0  0  0  0  0  0  0  0  0  0  0  0
   57.2626   35.1157   44.9281 H   0  0  0  0  0  0  0  0  0  0  0  0
   59.2896   35.3110   46.3639 H   0  0  0  0  0  0  0  0  0  0  0  0
   60.4580   33.3440   47.0300 H   0  0  0  0  0  0  0  0  0  0  0  0
  1  2  1  0
  2  3  1  0
  3  4  1  0
  4  5  1  0
  3  6  1  0
  6  7  1  0
  7  8  1  0
  8  9  1  0
  9 10  2  0
 10 11  1  0
 11 12  2  0
 12 13  1  0
 13 14  1  0
 14 15  2  0
 15 16  1  0
 16 17  2  0
 16 18  1  0
 15 19  1  0
 19 20  2  0
 20 21  1  0
 21 22  2  0
 22 23  1  0
 23 24  2  0
 24  9  1  0
 14 10  1  0
 24 19  1  0
  1 25  1  0
  1 26  1  0
  1 27  1  0
  2 28  1  0
  2 29  1  0
  4 30  1  0
  4 31  1  0
  5 32  1  0
  5 33  1  0
  5 34  1  0
  6 35  1  0
  6 36  1  0
  7 37  1  0
  7 38  1  0
  8 39  1  0
 11 40  1  0
 12 41  1  0
 20 42  1  0
 21 43  1  0
 22 44  1  0
 23 45  1  0
M  CHG  3  16   1  18  -1  23   1
M  END
>  <UniqueID>  (9) 
9

>  <SMILES>  (9) 
CCN(CC)CCNc1c2ccoc2c([N+](=O)[O-])c2ccc[nH+]c12

>  <Energy>  (9) 
91.06683470058168

>  <Genealogy>  (9) 
CCN(CC)CCNc1c2ccoc2c([N+](=O)[O-])c2ccc[nH+]c12 (protonated)
CCN(CC)CCNc1c2ccoc2c([N+](=O)[O-])c2ccc[nH+]c12 (3D coordinates assigned)
CCN(CC)CCNc1c2ccoc2c([N+](=O)[O-])c2ccc[nH+]c12 (optimized conformer: 91.06683470058168 kcal/mol)

>  <smiles>  (9) 
CCN(CC)CCNc1c2ccoc2c([N+](=O)[O-])c2cccnc12

>  <score_type>  (9) 
oracle

>  <origin>  (9) 
adg

>  <m_score__min__energy>  (9) 
-5.46

>  <m_primary>  (9) 
energy

$$$$
9:0
     RDKit          3D

 45 46  0  0  0  0  0  0  0  0999 V2000
   53.1610   24.3520   45.2520 C   0  0  0  0  0  0  0  0  0  0  0  0
   54.3780   23.5900   45.7730 C   0  0  0  0  0  0  0  0  0  0  0  0
   53.9420   22.3280   46.5230 C   0  0  0  0  0  0  0  0  0  0  0  0
   55.1450   24.4610   46.6590 N   0  0  0  0  0  0  0  0  0  0  0  0
   55.8350   25.6370   46.2150 C   0  0  0  0  0  0  0  0  0  0  0  0
   55.1970   26.7010   45.9890 O   0  0  0  0  0  0  0  0  0  0  0  0
   57.3260   25.6030   46.0100 C   0  0  1  0  0  0  0  0  0  0  0  0
   57.8250   24.1550   46.0010 C   0  0  0  0  0  0  0  0  0  0  0  0
   57.7260   26.3250   44.7080 C   0  0  0  0  0  0  0  0  0  0  0  0
   58.4080   27.6410   44.9850 C   0  0  0  0  0  0  0  0  0  0  0  0
   59.7660   27.6690   45.3350 C   0  0  0  0  0  0  0  0  0  0  0  0
   60.3920   28.8810   45.6310 C   0  0  0  0  0  0  0  0  0  0  0  0
   59.6700   30.0750   45.5780 C   0  0  0  0  0  0  0  0  0  0  0  0
   58.3110   30.0710   45.2180 C   0  0  0  0  0  0  0  0  0  0  0  0
   57.5300   31.3310   45.1770 C   0  0  0  0  0  0  0  0  0  0  0  0
   56.3250   31.2880   44.8050 O   0  0  0  0  0  0  0  0  0  0  0  0
   58.1140   32.6400   45.5560 C   0  0  0  0  0  0  0  0  0  0  0  0
   58.2980   32.9870   46.9080 C   0  0  0  0  0  0  0  0  0  0  0  0
   58.8660   34.2190   47.2510 C   0  0  0  0  0  0  0  0  0  0  0  0
   59.2660   35.1080   46.2510 C   0  0  0  0  0  0  0  0  0  0  0  0
   59.1030   34.7670   44.9060 C   0  0  0  0  0  0  0  0  0  0  0  0
   58.5350   33.5370   44.5580 C   0  0  0  0  0  0  0  0  0  0  0  0
   57.6830   28.8440   44.9390 C   0  0  0  0  0  0  0  0  0  0  0  0
   52.5690   24.7226   46.1018 H   0  0  0  0  0  0  0  0  0  0  0  0
   53.4954   25.2023   44.6395 H   0  0  0  0  0  0  0  0  0  0  0  0
   52.5421   23.6798   44.6395 H   0  0  0  0  0  0  0  0  0  0  0  0
   55.0045   23.2844   44.9220 H   0  0  0  0  0  0  0  0  0  0  0  0
   54.0035   22.5059   47.6068 H   0  0  0  0  0  0  0  0  0  0  0  0
   52.9058   22.0791   46.2505 H   0  0  0  0  0  0  0  0  0  0  0  0
   54.6036   21.4925   46.2505 H   0  0  0  0  0  0  0  0  0  0  0  0
   57.8008   26.1357   46.8471 H   0  0  0  0  0  0  0  0  0  0  0  0
   57.9464   23.8026   47.0359 H   0  0  0  0  0  0  0  0  0  0  0  0
   57.0943   23.5186   45.4803 H   0  0  0  0  0  0  0  0  0  0  0  0
   58.7926   24.1039   45.4803 H   0  0  0  0  0  0  0  0  0  0  0  0
   58.4129   25.6805   44.1399 H   0  0  0  0  0  0  0  0  0  0  0  0
   56.8098   26.5285   44.1342 H   0  0  0  0  0  0  0  0  0  0  0  0
   60.3402   26.7317   45.3764 H   0  0  0  0  0  0  0  0  0  0  0  0
   61.4568   28.8955   45.9067 H   0  0  0  0  0  0  0  0  0  0  0  0
   60.1681   31.0255   45.8196 H   0  0  0  0  0  0  0  0  0  0  0  0
   57.9936   32.2858   47.6990 H   0  0  0  0  0  0  0  0  0  0  0  0
   58.9976   34.4876   48.3096 H   0  0  0  0  0  0  0  0  0  0  0  0
   59.7096   36.0773   46.5225 H   0  0  0  0  0  0  0  0  0  0  0  0
   59.4218   35.4668   44.1195 H   0  0  0  0  0  0  0  0  0  0  0  0
   58.4169   33.2698   43.4975 H   0  0  0  0  0  0  0  0  0  0  0  0
   56.6136   28.8257   44.6822 H   0  0  0  0  0  0  0  0  0  0  0  0
  1  2  1  0
  2  3  1  0
  2  4  1  0
  4  5  1  0
  5  6  2  0
  5  7  1  0
  7  8  1  0
  7  9  1  0
  9 10  1  0
 10 11  2  0
 11 12  1  0
 12 13  2  0
 13 14  1  0
 14 15  1  0
 15 16  2  0
 15 17  1  0
 17 18  2  0
 18 19  1  0
 19 20  2  0
 20 21  1  0
 21 22  2  0
 14 23  2  0
 23 10  1  0
 22 17  1  0
  1 24  1  0
  1 25  1  0
  1 26  1  0
  2 27  1  0
  3 28  1  0
  3 29  1  0
  3 30  1  0
  7 31  1  1
  8 32  1  0
  8 33  1  0
  8 34  1  0
  9 35  1  0
  9 36  1  0
 11 37  1  0
 12 38  1  0
 13 39  1  0
 18 40  1  0
 19 41  1  0
 20 42  1  0
 21 43  1  0
 22 44  1  0
 23 45  1  0
M  CHG  1   4  -1
M  END
>  <UniqueID>  (10) 
10

>  <SMILES>  (10) 
CC(C)[N-]C(=O)[C@@H](C)Cc1cccc(C(=O)c2ccccc2)c1

>  <Energy>  (10) 
38.010892794953904

>  <Genealogy>  (10) 
CC(C)[N-]C(=O)C(C)Cc1cccc(C(=O)c2ccccc2)c1 (protonated)
CC(C)[N-]C(=O)[C@@H](C)Cc1cccc(C(=O)c2ccccc2)c1 (chirality)
CC(C)[N-]C(=O)[C@@H](C)Cc1cccc(C(=O)c2ccccc2)c1 (3D coordinates assigned)
CC(C)[N-]C(=O)[C@@H](C)Cc1cccc(C(=O)c2ccccc2)c1 (optimized conformer: 38.010892794953904 kcal/mol)

>  <smiles>  (10) 
CC(C)NC(=O)C(C)Cc1cccc(C(=O)c2ccccc2)c1

>  <score_type>  (10) 
oracle

>  <origin>  (10) 
adg

>  <m_score__min__energy>  (10) 
-10.619999999999999

>  <m_primary>  (10) 
energy

$$$$
10:0
     RDKit          3D

 82 85  0  0  0  0  0  0  0  0999 V2000
   59.8650   24.9980   46.0340 C   0  0  0  0  0  0  0  0  0  0  0  0
   58.4670   24.3750   46.0410 C   0  0  0  0  0  0  0  0  0  0  0  0
   57.9230   24.1980   44.6750 N   0  0  0  0  0  0  0  0  0  0  0  0
   58.1450   22.8090   44.2070 C   0  0  0  0  0  0  0  0  0  0  0  0
   56.9610   22.2660   43.4050 C   0  0  0  0  0  0  0  0  0  0  0  0
   56.5210   24.6740   44.5180 C   0  0  0  0  0  0  0  0  0  0  0  0
   55.8960   25.2800   45.7930 C   0  0  0  0  0  0  0  0  0  0  0  0
   56.4820   26.6700   46.0770 C   0  0  0  0  0  0  0  0  0  0  0  0
   57.3720   27.0980   44.9870 N   0  0  0  0  0  0  0  0  0  0  0  0
   57.8900   28.4340   45.2480 C   0  0  0  0  0  0  0  0  0  0  0  0
   57.6290   29.4980   44.3440 C   0  0  0  0  0  0  0  0  0  0  0  0
   56.7660   29.3360   43.2310 C   0  0  0  0  0  0  0  0  0  0  0  0
   56.5960   30.3550   42.2980 C   0  0  0  0  0  0  0  0  0  0  0  0
   57.2790   31.5530   42.4440 C   0  0  0  0  0  0  0  0  0  0  0  0
   58.0910   31.7610   43.5540 C   0  0  0  0  0  0  0  0  0  0  0  0
   58.2400   30.7650   44.5560 C   0  0  0  0  0  0  0  0  0  0  0  0
   58.9650   31.0070   45.7050 N   0  0  0  0  0  0  0  0  0  0  0  0
   59.3230   32.3990   46.0700 C   0  0  0  0  0  0  0  0  0  0  0  0
   59.3000   29.9680   46.5500 C   0  0  0  0  0  0  0  0  0  0  0  0
   60.2440   30.1450   47.5940 C   0  0  0  0  0  0  0  0  0  0  0  0
   60.4970   29.1340   48.5340 C   0  0  0  0  0  0  0  0  0  0  0  0
   61.3990   29.2850   49.6000 O   0  0  0  0  0  0  0  0  0  0  0  0
   61.2300   30.1410   50.7320 C   0  0  0  0  0  0  0  0  0  0  0  0
   61.5130   31.6310   50.4110 C   0  0  0  0  0  0  0  0  0  0  0  0
   62.9450   32.1240   50.3120 N   0  0  0  0  0  0  0  0  0  0  0  0
   63.6420   31.5490   51.5040 C   0  0  0  0  0  0  0  0  0  0  0  0
   63.0490   33.6110   50.4960 C   0  0  0  0  0  0  0  0  0  0  0  0
   62.7060   34.4760   49.2660 C   0  0  0  0  0  0  0  0  0  0  0  0
   63.4850   34.1110   47.9920 C   0  0  0  0  0  0  0  0  0  0  0  0
   62.8610   33.0020   47.1370 C   0  0  0  0  0  0  0  0  0  0  0  0
   63.0190   31.6060   47.7510 C   0  0  0  0  0  0  0  0  0  0  0  0
   63.7260   31.6270   49.1280 C   0  0  0  0  0  0  0  0  0  0  0  0
   59.8300   27.9210   48.4150 C   0  0  0  0  0  0  0  0  0  0  0  0
   58.9520   27.6930   47.3610 C   0  0  0  0  0  0  0  0  0  0  0  0
   58.7080   28.6860   46.3820 C   0  0  0  0  0  0  0  0  0  0  0  0
   60.2042   25.1492   47.0694 H   0  0  0  0  0  0  0  0  0  0  0  0
   60.5633   24.3259   45.5138 H   0  0  0  0  0  0  0  0  0  0  0  0
   59.8322   25.9667   45.5138 H   0  0  0  0  0  0  0  0  0  0  0  0
   58.5207   23.3914   46.5305 H   0  0  0  0  0  0  0  0  0  0  0  0
   57.7972   25.0582   46.5838 H   0  0  0  0  0  0  0  0  0  0  0  0
   59.0413   22.7903   43.5696 H   0  0  0  0  0  0  0  0  0  0  0  0
   58.2678   22.1721   45.0954 H   0  0  0  0  0  0  0  0  0  0  0  0
   56.1830   21.9092   44.0959 H   0  0  0  0  0  0  0  0  0  0  0  0
   56.5499   23.0656   42.7712 H   0  0  0  0  0  0  0  0  0  0  0  0
   57.2987   21.4328   42.7712 H   0  0  0  0  0  0  0  0  0  0  0  0
   56.5068   25.4428   43.7314 H   0  0  0  0  0  0  0  0  0  0  0  0
   55.9191   23.7874   44.2696 H   0  0  0  0  0  0  0  0  0  0  0  0
   54.8082   25.3681   45.6551 H   0  0  0  0  0  0  0  0  0  0  0  0
   56.1208   24.6209   46.6445 H   0  0  0  0  0  0  0  0  0  0  0  0
   55.6598   27.3940   46.1757 H   0  0  0  0  0  0  0  0  0  0  0  0
   57.0656   26.6214   47.0082 H   0  0  0  0  0  0  0  0  0  0  0  0
   58.1460   26.4100   44.8580 H   0  0  0  0  0  0  0  0  0  0  0  0
   56.8760   27.0590   44.0700 H   0  0  0  0  0  0  0  0  0  0  0  0
   56.2214   28.3889   43.1025 H   0  0  0  0  0  0  0  0  0  0  0  0
   55.9187   30.2097   41.4435 H   0  0  0  0  0  0  0  0  0  0  0  0
   57.1785   32.3394   41.6814 H   0  0  0  0  0  0  0  0  0  0  0  0
   58.6282   32.7152   43.6580 H   0  0  0  0  0  0  0  0  0  0  0  0
   59.3479   32.4960   47.1654 H   0  0  0  0  0  0  0  0  0  0  0  0
   60.3132   32.6431   45.6577 H   0  0  0  0  0  0  0  0  0  0  0  0
   58.5735   33.0905   45.6577 H   0  0  0  0  0  0  0  0  0  0  0  0
   60.7904   31.0968   47.6685 H   0  0  0  0  0  0  0  0  0  0  0  0
   60.1935   30.0499   51.0890 H   0  0  0  0  0  0  0  0  0  0  0  0
   61.9560   29.8248   51.4955 H   0  0  0  0  0  0  0  0  0  0  0  0
   61.0354   31.8443   49.4433 H   0  0  0  0  0  0  0  0  0  0  0  0
   61.1224   32.1598   51.2929 H   0  0  0  0  0  0  0  0  0  0  0  0
   63.1753   31.9340   52.4227 H   0  0  0  0  0  0  0  0  0  0  0  0
   63.5601   30.4523   51.4830 H   0  0  0  0  0  0  0  0  0  0  0  0
   64.7032   31.8379   51.4830 H   0  0  0  0  0  0  0  0  0  0  0  0
   62.3649   33.8971   51.3085 H   0  0  0  0  0  0  0  0  0  0  0  0
   64.1106   33.8075   50.7067 H   0  0  0  0  0  0  0  0  0  0  0  0
   61.6321   34.3638   49.0559 H   0  0  0  0  0  0  0  0  0  0  0  0
   62.9893   35.5079   49.5207 H   0  0  0  0  0  0  0  0  0  0  0  0
   63.5633   35.0154   47.3708 H   0  0  0  0  0  0  0  0  0  0  0  0
   64.4570   33.7231   48.3307 H   0  0  0  0  0  0  0  0  0  0  0  0
   61.7878   33.2130   47.0194 H   0  0  0  0  0  0  0  0  0  0  0  0
   63.3888   32.9967   46.1719 H   0  0  0  0  0  0  0  0  0  0  0  0
   62.0199   31.1633   47.8767 H   0  0  0  0  0  0  0  0  0  0  0  0
   63.6470   31.0154   47.0678 H   0  0  0  0  0  0  0  0  0  0  0  0
   64.0390   30.5964   49.3513 H   0  0  0  0  0  0  0  0  0  0  0  0
   64.5405   32.3567   49.0088 H   0  0  0  0  0  0  0  0  0  0  0  0
   59.9983   27.1322   49.1629 H   0  0  0  0  0  0  0  0  0  0  0  0
   58.4377   26.7235   47.2866 H   0  0  0  0  0  0  0  0  0  0  0  0
  1  2  1  0
  2  3  1  0
  3  4  1  0
  4  5  1  0
  3  6  1  0
  6  7  1  0
  7  8  1  0
  8  9  1  0
  9 10  1  0
 10 11  2  0
 11 12  1  0
 12 13  2  0
 13 14  1  0
 14 15  2  0
 15 16  1  0
 16 17  2  0
 17 18  1  0
 17 19  1  0
 19 20  2  0
 20 21  1  0
 21 22  1  0
 22 23  1  0
 23 24  1  0
 24 25  1  0
 25 26  1  0
 25 27  1  0
 27 28  1  0
 28 29  1  0
 29 30  1  0
 30 31  1  0
 31 32  1  0
 21 33  2  0
 33 34  1  0
 34 35  2  0
 35 10  1  0
 16 11  1  0
 35 19  1  0
 32 25  1  0
  1 36  1  0
  1 37  1  0
  1 38  1  0
  2 39  1  0
  2 40  1  0
  4 41  1  0
  4 42  1  0
  5 43  1  0
  5 44  1  0
  5 45  1  0
  6 46  1  0
  6 47  1  0
  7 48  1  0
  7 49  1  0
  8 50  1  0
  8 51  1  0
  9 52  1  0
  9 53  1  0
 12 54  1  0
 13 55  1  0
 14 56  1  0
 15 57  1  0
 18 58  1  0
 18 59  1  0
 18 60  1  0
 20 61  1  0
 23 62  1  0
 23 63  1  0
 24 64  1  0
 24 65  1  0
 26 66  1  0
 26 67  1  0
 26 68  1  0
 27 69  1  0
 27 70  1  0
 28 71  1  0
 28 72  1  0
 29 73  1  0
 29 74  1  0
 30 75  1  0
 30 76  1  0
 31 77  1  0
 31 78  1  0
 32 79  1  0
 32 80  1  0
 33 81  1  0
 34 82  1  0
M  CHG  3   9   1  17   1  25   1
M  END
>  <UniqueID>  (11) 
11

>  <SMILES>  (11) 
CCN(CC)CCC[NH2+]c1c2ccccc2[n+](C)c2cc(OCC[N+]3(C)CCCCCC3)ccc12

>  <Energy>  (11) 
143.94266802015022

>  <Genealogy>  (11) 
CCN(CC)CCC[NH2+]c1c2ccccc2[n+](C)c2cc(OCC[N+]3(C)CCCCCC3)ccc12 (protonated)
CCN(CC)CCC[NH2+]c1c2ccccc2[n+](C)c2cc(OCC[N+]3(C)CCCCCC3)ccc12 (3D coordinates assigned)
CCN(CC)CCC[NH2+]c1c2ccccc2[n+](C)c2cc(OCC[N+]3(C)CCCCCC3)ccc12 (nonaromatic ring conformer: 143.94266802015022 kcal/mol)

>  <smiles>  (11) 
CCN(CC)CCCNc1c2ccccc2[n+](C)c2cc(OCC[N+]3(C)CCCCCC3)ccc12

>  <score_type>  (11) 
oracle

>  <origin>  (11) 
adg

>  <m_score__min__energy>  (11) 
-1.5600000000000001

>  <m_primary>  (11) 
energy

$$$$
11:0
     RDKit          3D

 58 61  0  0  0  0  0  0  0  0999 V2000
   63.2580   31.5950   49.0530 C   0  0  0  0  0  0  0  0  0  0  0  0
   63.7250   32.9940   48.6390 C   0  0  0  0  0  0  0  0  0  0  0  0
   64.1460   33.0370   47.2270 N   0  0  0  0  0  0  0  0  0  0  0  0
   63.2020   33.7970   46.3760 C   0  0  0  0  0  0  0  0  0  0  0  0
   61.7470   33.7370   46.8880 C   0  0  0  0  0  0  0  0  0  0  0  0
   60.7190   34.4800   46.0120 C   0  0  0  0  0  0  0  0  0  0  0  0
   59.5720   35.1510   46.7830 C   0  0  0  0  0  0  0  0  0  0  0  0
   58.5160   34.1980   47.1400 N   0  0  0  0  0  0  0  0  0  0  0  0
   58.7890   32.8030   47.3640 C   0  0  0  0  0  0  0  0  0  0  0  0
   58.4840   31.8460   46.3770 C   0  0  0  0  0  0  0  0  0  0  0  0
   58.6530   30.4700   46.6630 C   0  0  0  0  0  0  0  0  0  0  0  0
   58.9530   30.0710   47.9500 N   0  0  0  0  0  0  0  0  0  0  0  0
   58.6440   28.6990   48.4040 C   0  0  0  0  0  0  0  0  0  0  0  0
   59.4480   30.9880   48.8550 C   0  0  0  0  0  0  0  0  0  0  0  0
   60.0190   30.5790   50.0850 C   0  0  0  0  0  0  0  0  0  0  0  0
   60.4860   31.5150   51.0070 C   0  0  0  0  0  0  0  0  0  0  0  0
   60.3950   32.8740   50.7300 C   0  0  0  0  0  0  0  0  0  0  0  0
   59.8460   33.3070   49.5250 C   0  0  0  0  0  0  0  0  0  0  0  0
   59.3780   32.3780   48.5710 C   0  0  0  0  0  0  0  0  0  0  0  0
   58.4370   29.4990   45.5360 C   0  0  0  0  0  0  0  0  0  0  0  0
   59.1470   28.2860   45.4410 C   0  0  0  0  0  0  0  0  0  0  0  0
   58.9160   27.4080   44.3790 C   0  0  0  0  0  0  0  0  0  0  0  0
   58.0080   27.7460   43.3740 C   0  0  0  0  0  0  0  0  0  0  0  0
   57.3640   28.9840   43.4040 C   0  0  0  0  0  0  0  0  0  0  0  0
   57.6050   29.8770   44.4580 C   0  0  0  0  0  0  0  0  0  0  0  0
   57.0290   31.2670   44.4270 C   0  0  0  0  0  0  0  0  0  0  0  0
   58.0690   32.2510   44.9730 C   0  0  0  0  0  0  0  0  0  0  0  0
   63.2350   31.5260   50.1506 H   0  0  0  0  0  0  0  0  0  0  0  0
   62.2499   31.4116   48.6528 H   0  0  0  0  0  0  0  0  0  0  0  0
   63.9538   30.8428   48.6528 H   0  0  0  0  0  0  0  0  0  0  0  0
   62.8969   33.7031   48.7850 H   0  0  0  0  0  0  0  0  0  0  0  0
   64.5912   33.2626   49.2615 H   0  0  0  0  0  0  0  0  0  0  0  0
   65.1160   33.4190   47.1710 H   0  0  0  0  0  0  0  0  0  0  0  0
   64.1730   32.0480   46.8840 H   0  0  0  0  0  0  0  0  0  0  0  0
   63.5218   34.8492   46.3508 H   0  0  0  0  0  0  0  0  0  0  0  0
   63.2183   33.3392   45.3759 H   0  0  0  0  0  0  0  0  0  0  0  0
   61.4478   32.6799   46.9437 H   0  0  0  0  0  0  0  0  0  0  0  0
   61.7428   34.2431   47.8647 H   0  0  0  0  0  0  0  0  0  0  0  0
   61.2520   35.2591   45.4472 H   0  0  0  0  0  0  0  0  0  0  0  0
   60.2531   33.7169   45.3713 H   0  0  0  0  0  0  0  0  0  0  0  0
   59.9760   35.5946   47.7049 H   0  0  0  0  0  0  0  0  0  0  0  0
   59.1294   35.9189   46.1315 H   0  0  0  0  0  0  0  0  0  0  0  0
   57.5240   34.5090   47.0400 H   0  0  0  0  0  0  0  0  0  0  0  0
   58.6373   28.6694   49.5036 H   0  0  0  0  0  0  0  0  0  0  0  0
   57.6561   28.4005   48.0232 H   0  0  0  0  0  0  0  0  0  0  0  0
   59.4085   28.0058   48.0232 H   0  0  0  0  0  0  0  0  0  0  0  0
   60.0952   29.5063   50.3165 H   0  0  0  0  0  0  0  0  0  0  0  0
   60.9276   31.1770   51.9561 H   0  0  0  0  0  0  0  0  0  0  0  0
   60.7572   33.6092   51.4637 H   0  0  0  0  0  0  0  0  0  0  0  0
   59.7765   34.3845   49.3148 H   0  0  0  0  0  0  0  0  0  0  0  0
   59.8900   28.0277   46.2099 H   0  0  0  0  0  0  0  0  0  0  0  0
   59.4510   26.4479   44.3347 H   0  0  0  0  0  0  0  0  0  0  0  0
   57.8002   27.0371   42.5589 H   0  0  0  0  0  0  0  0  0  0  0  0
   56.6663   29.2596   42.5995 H   0  0  0  0  0  0  0  0  0  0  0  0
   56.7736   31.5372   43.3917 H   0  0  0  0  0  0  0  0  0  0  0  0
   56.1201   31.3062   45.0454 H   0  0  0  0  0  0  0  0  0  0  0  0
   58.9523   32.2479   44.3174 H   0  0  0  0  0  0  0  0  0  0  0  0
   57.6296   33.2589   45.0041 H   0  0  0  0  0  0  0  0  0  0  0  0
  1  2  1  0
  2  3  1  0
  3  4  1  0
  4  5  1  0
  5  6  1  0
  6  7  1  0
  7  8  1  0
  8  9  1  0
  9 10  2  0
 10 11  1  0
 11 12  2  0
 12 13  1  0
 12 14  1  0
 14 15  2  0
 15 16  1  0
 16 17  2  0
 17 18  1  0
 18 19  2  0
 11 20  1  0
 20 21  2  0
 21 22  1  0
 22 23  2  0
 23 24  1  0
 24 25  2  0
 25 26  1  0
 26 27  1  0
 19  9  1  0
 25 20  1  0
 27 10  1  0
 19 14  1  0
  1 28  1  0
  1 29  1  0
  1 30  1  0
  2 31  1  0
  2 32  1  0
  3 33  1  0
  3 34  1  0
  4 35  1  0
  4 36  1  0
  5 37  1  0
  5 38  1  0
  6 39  1  0
  6 40  1  0
  7 41  1  0
  7 42  1  0
  8 43  1  0
 13 44  1  0
 13 45  1  0
 13 46  1  0
 15 47  1  0
 16 48  1  0
 17 49  1  0
 18 50  1  0
 21 51  1  0
 22 52  1  0
 23 53  1  0
 24 54  1  0
 26 55  1  0
 26 56  1  0
 27 57  1  0
 27 58  1  0
M  CHG  2   3   1  12   1
M  END
>  <UniqueID>  (12) 
12

>  <SMILES>  (12) 
CC[NH2+]CCCCNc1c2c([n+](C)c3ccccc13)-c1ccccc1CC2

>  <Energy>  (12) 
87.57296251899353

>  <Genealogy>  (12) 
CC[NH2+]CCCCNc1c2c([n+](C)c3ccccc13)-c1ccccc1CC2 (protonated)
CC[NH2+]CCCCNc1c2c([n+](C)c3ccccc13)-c1ccccc1CC2 (3D coordinates assigned)
CC[NH2+]CCCCNc1c2c([n+](C)c3ccccc13)-c1ccccc1CC2 (nonaromatic ring conformer: 87.57296251899353 kcal/mol)

>  <smiles>  (12) 
CCNCCCCNc1c2c([n+](C)c3ccccc13)-c1ccccc1CC2

>  <score_type>  (12) 
oracle

>  <origin>  (12) 
adg

>  <m_score__min__energy>  (12) 
-5.3099999999999996

>  <m_primary>  (12) 
energy

$$$$
12:0
     RDKit          3D

 70 73  0  0  0  0  0  0  0  0999 V2000
   57.1370   31.0720   51.5860 C   0  0  0  0  0  0  0  0  0  0  0  0
   58.1560   30.5390   50.5670 C   0  0  0  0  0  0  0  0  0  0  0  0
   59.3490   31.4070   50.3570 N   0  0  0  0  0  0  0  0  0  0  0  0
   60.4580   31.1330   51.3020 C   0  0  0  0  0  0  0  0  0  0  0  0
   60.5030   29.6680   51.7390 C   0  0  0  0  0  0  0  0  0  0  0  0
   59.0420   32.8590   50.3200 C   0  0  0  0  0  0  0  0  0  0  0  0
   60.2740   33.7140   50.6230 C   0  0  0  0  0  0  0  0  0  0  0  0
   60.9840   33.9520   49.4240 O   0  0  0  0  0  0  0  0  0  0  0  0
   62.2590   34.4780   49.7320 C   0  0  0  0  0  0  0  0  0  0  0  0
   63.0470   33.4680   50.5550 C   0  0  0  0  0  0  0  0  0  0  0  0
   62.8600   32.1760   50.0150 O   0  0  0  0  0  0  0  0  0  0  0  0
   63.5870   32.0230   48.8090 C   0  0  0  0  0  0  0  0  0  0  0  0
   62.6510   31.7520   47.6260 C   0  0  0  0  0  0  0  0  0  0  0  0
   61.2470   31.7190   48.0470 N   0  0  0  0  0  0  0  0  0  0  0  0
   60.1600   31.5730   47.1150 C   0  0  0  0  0  0  0  0  0  0  0  0
   59.6520   32.6900   46.3970 C   0  0  0  0  0  0  0  0  0  0  0  0
   60.1080   33.9990   46.6630 C   0  0  0  0  0  0  0  0  0  0  0  0
   59.6720   35.0790   45.8990 C   0  0  0  0  0  0  0  0  0  0  0  0
   58.7690   34.8820   44.8620 C   0  0  0  0  0  0  0  0  0  0  0  0
   58.2470   33.6130   44.6180 C   0  0  0  0  0  0  0  0  0  0  0  0
   58.6250   32.5020   45.4130 C   0  0  0  0  0  0  0  0  0  0  0  0
   58.0250   31.2640   45.2570 N   0  0  0  0  0  0  0  0  0  0  0  0
   56.7630   31.1130   44.5120 C   0  0  0  0  0  0  0  0  0  0  0  0
   58.5770   30.1860   45.9060 C   0  0  0  0  0  0  0  0  0  0  0  0
   58.2410   28.8340   45.8690 C   0  0  0  0  0  0  0  0  0  0  0  0
   57.3710   28.0870   45.0610 C   0  0  0  0  0  0  0  0  0  0  0  0
   57.2310   26.7160   45.3200 C   0  0  0  0  0  0  0  0  0  0  0  0
   57.9790   26.1010   46.3380 C   0  0  0  0  0  0  0  0  0  0  0  0
   58.8940   26.8460   47.0970 C   0  0  0  0  0  0  0  0  0  0  0  0
   59.0210   28.2200   46.8330 C   0  0  0  0  0  0  0  0  0  0  0  0
   59.8580   29.1070   47.4320 N   0  0  0  0  0  0  0  0  0  0  0  0
   60.7260   28.8310   48.5790 C   0  0  0  0  0  0  0  0  0  0  0  0
   59.5840   30.3140   46.8530 C   0  0  0  0  0  0  0  0  0  0  0  0
   57.5033   30.8804   52.6054 H   0  0  0  0  0  0  0  0  0  0  0  0
   57.0054   32.1544   51.4411 H   0  0  0  0  0  0  0  0  0  0  0  0
   56.1728   30.5627   51.4411 H   0  0  0  0  0  0  0  0  0  0  0  0
   58.5060   29.5564   50.9163 H   0  0  0  0  0  0  0  0  0  0  0  0
   57.6319   30.4975   49.6008 H   0  0  0  0  0  0  0  0  0  0  0  0
   61.4101   31.3849   50.8120 H   0  0  0  0  0  0  0  0  0  0  0  0
   60.2925   31.7460   52.2002 H   0  0  0  0  0  0  0  0  0  0  0  0
   60.5047   29.6130   52.8376 H   0  0  0  0  0  0  0  0  0  0  0  0
   59.6206   29.1411   51.3468 H   0  0  0  0  0  0  0  0  0  0  0  0
   61.4161   29.1963   51.3468 H   0  0  0  0  0  0  0  0  0  0  0  0
   58.6682   33.1174   49.3182 H   0  0  0  0  0  0  0  0  0  0  0  0
   58.2868   33.0660   51.0925 H   0  0  0  0  0  0  0  0  0  0  0  0
   59.9575   34.6730   51.0591 H   0  0  0  0  0  0  0  0  0  0  0  0
   60.9229   33.1853   51.3367 H   0  0  0  0  0  0  0  0  0  0  0  0
   62.8012   34.6918   48.7991 H   0  0  0  0  0  0  0  0  0  0  0  0
   62.1397   35.4054   50.3114 H   0  0  0  0  0  0  0  0  0  0  0  0
   64.1159   33.7262   50.5277 H   0  0  0  0  0  0  0  0  0  0  0  0
   62.6933   33.4861   51.5964 H   0  0  0  0  0  0  0  0  0  0  0  0
   64.1546   32.9447   48.6132 H   0  0  0  0  0  0  0  0  0  0  0  0
   64.2657   31.1644   48.9189 H   0  0  0  0  0  0  0  0  0  0  0  0
   62.7810   32.5479   46.8780 H   0  0  0  0  0  0  0  0  0  0  0  0
   62.9069   30.7698   47.2020 H   0  0  0  0  0  0  0  0  0  0  0  0
   61.0310   31.8240   49.0640 H   0  0  0  0  0  0  0  0  0  0  0  0
   60.8181   34.1688   47.4857 H   0  0  0  0  0  0  0  0  0  0  0  0
   60.0439   36.0909   46.1175 H   0  0  0  0  0  0  0  0  0  0  0  0
   58.4649   35.7304   44.2313 H   0  0  0  0  0  0  0  0  0  0  0  0
   57.5304   33.4714   43.7956 H   0  0  0  0  0  0  0  0  0  0  0  0
   55.9282   31.0131   45.2213 H   0  0  0  0  0  0  0  0  0  0  0  0
   56.6026   31.9984   43.8792 H   0  0  0  0  0  0  0  0  0  0  0  0
   56.8160   30.2148   43.8792 H   0  0  0  0  0  0  0  0  0  0  0  0
   56.8118   28.5654   44.2435 H   0  0  0  0  0  0  0  0  0  0  0  0
   56.5295   26.1168   44.7210 H   0  0  0  0  0  0  0  0  0  0  0  0
   57.8463   25.0281   46.5413 H   0  0  0  0  0  0  0  0  0  0  0  0
   59.4980   26.3654   47.8807 H   0  0  0  0  0  0  0  0  0  0  0  0
   60.1693   29.0080   49.5111 H   0  0  0  0  0  0  0  0  0  0  0  0
   61.0581   27.7829   48.5437 H   0  0  0  0  0  0  0  0  0  0  0  0
   61.6025   29.4948   48.5437 H   0  0  0  0  0  0  0  0  0  0  0  0
  1  2  1  0
  2  3  1  0
  3  4  1  0
  4  5  1  0
  3  6  1  0
  6  7  1  0
  7  8  1  0
  8  9  1  0
  9 10  1  0
 10 11  1  0
 11 12  1  0
 12 13  1  0
 13 14  1  0
 14 15  1  0
 15 16  2  0
 16 17  1  0
 17 18  2  0
 18 19  1  0
 19 20  2  0
 20 21  1  0
 21 22  2  0
 22 23  1  0
 22 24  1  0
 24 25  1  0
 25 26  2  0
 26 27  1  0
 27 28  2  0
 28 29  1  0
 29 30  2  0
 30 31  1  0
 31 32  1  0
 31 33  1  0
 33 15  1  0
 21 16  1  0
 33 24  2  0
 30 25  1  0
  1 34  1  0
  1 35  1  0
  1 36  1  0
  2 37  1  0
  2 38  1  0
  4 39  1  0
  4 40  1  0
  5 41  1  0
  5 42  1  0
  5 43  1  0
  6 44  1  0
  6 45  1  0
  7 46  1  0
  7 47  1  0
  9 48  1  0
  9 49  1  0
 10 50  1  0
 10 51  1  0
 12 52  1  0
 12 53  1  0
 13 54  1  0
 13 55  1  0
 14 56  1  0
 17 57  1  0
 18 58  1  0
 19 59  1  0
 20 60  1  0
 23 61  1  0
 23 62  1  0
 23 63  1  0
 26 64  1  0
 27 65  1  0
 28 66  1  0
 29 67  1  0
 32 68  1  0
 32 69  1  0
 32 70  1  0
M  CHG  1  22   1
M  END
>  <UniqueID>  (13) 
13

>  <SMILES>  (13) 
CCN(CC)CCOCCOCCNc1c2ccccc2[n+](C)c2c3ccccc3n(C)c12

>  <Energy>  (13) 
135.95432977019135

>  <Genealogy>  (13) 
CCN(CC)CCOCCOCCNc1c2ccccc2[n+](C)c2c3ccccc3n(C)c12 (3D coordinates assigned)
CCN(CC)CCOCCOCCNc1c2ccccc2[n+](C)c2c3ccccc3n(C)c12 (optimized conformer: 135.95432977019135 kcal/mol)

>  <smiles>  (13) 
CCN(CC)CCOCCOCCNc1c2ccccc2[n+](C)c2c3ccccc3n(C)c12

>  <score_type>  (13) 
oracle

>  <origin>  (13) 
adg

>  <m_score__min__energy>  (13) 
-6.3099999999999996

>  <m_primary>  (13) 
energy

$$$$
13:0
     RDKit          3D

 80 83  0  0  0  0  0  0  0  0999 V2000
   56.2510   22.5730   42.8860 C   0  0  0  0  0  0  0  0  0  0  0  0
   57.3570   22.2740   43.8950 C   0  0  0  0  0  0  0  0  0  0  0  0
   57.9100   23.5590   44.5110 C   0  0  0  0  0  0  0  0  0  0  0  0
   57.4650   24.8560   43.7990 C   0  0  0  0  0  0  0  0  0  0  0  0
   57.3770   26.1150   44.6090 N   0  0  1  0  0  0  0  0  0  0  0  0
   56.5790   26.0470   45.8720 C   0  0  0  0  0  0  0  0  0  0  0  0
   55.3860   25.0770   45.8870 C   0  0  0  0  0  0  0  0  0  0  0  0
   58.5560   27.0390   44.6050 C   0  0  0  0  0  0  0  0  0  0  0  0
   58.9630   27.6860   45.9580 C   0  0  0  0  0  0  0  0  0  0  0  0
   58.0740   28.7810   46.3530 N   0  0  0  0  0  0  0  0  0  0  0  0
   58.3640   30.1330   45.9590 C   0  0  0  0  0  0  0  0  0  0  0  0
   57.8870   30.6210   44.7300 C   0  0  0  0  0  0  0  0  0  0  0  0
   57.1450   29.7920   43.8600 C   0  0  0  0  0  0  0  0  0  0  0  0
   56.7260   30.2610   42.6160 C   0  0  0  0  0  0  0  0  0  0  0  0
   57.0420   31.5530   42.2170 C   0  0  0  0  0  0  0  0  0  0  0  0
   57.7470   32.3990   43.0720 C   0  0  0  0  0  0  0  0  0  0  0  0
   58.1540   31.9660   44.3600 C   0  0  0  0  0  0  0  0  0  0  0  0
   58.8030   32.8110   45.2390 N   0  0  0  0  0  0  0  0  0  0  0  0
   58.8140   34.2700   44.9910 C   0  0  0  0  0  0  0  0  0  0  0  0
   59.4220   32.2960   46.3630 C   0  0  0  0  0  0  0  0  0  0  0  0
   60.3290   33.0680   47.1340 C   0  0  0  0  0  0  0  0  0  0  0  0
   60.9350   32.5570   48.2830 C   0  0  0  0  0  0  0  0  0  0  0  0
   61.8190   33.3890   48.9930 O   0  0  0  0  0  0  0  0  0  0  0  0
   63.1030   33.8180   48.5360 C   0  0  0  0  0  0  0  0  0  0  0  0
   64.1560   32.7140   48.7870 C   0  0  0  0  0  0  0  0  0  0  0  0
   64.7050   32.6550   50.1810 N   0  0  0  0  0  0  0  0  0  0  0  0
   64.2890   31.3780   50.8250 C   0  0  0  0  0  0  0  0  0  0  0  0
   66.1960   32.6980   50.0720 C   0  0  0  0  0  0  0  0  0  0  0  0
   66.8930   32.9830   51.4160 C   0  0  0  0  0  0  0  0  0  0  0  0
   66.4010   34.1700   51.9980 O   0  0  0  0  0  0  0  0  0  0  0  0
   65.0260   34.0200   52.2720 C   0  0  0  0  0  0  0  0  0  0  0  0
   64.2290   33.8270   50.9720 C   0  0  0  0  0  0  0  0  0  0  0  0
   60.6450   31.2460   48.6830 C   0  0  0  0  0  0  0  0  0  0  0  0
   59.7920   30.4520   47.9220 C   0  0  0  0  0  0  0  0  0  0  0  0
   59.1820   30.9530   46.7560 C   0  0  0  0  0  0  0  0  0  0  0  0
   55.3237   22.8237   43.4220 H   0  0  0  0  0  0  0  0  0  0  0  0
   56.5506   23.4224   42.2545 H   0  0  0  0  0  0  0  0  0  0  0  0
   56.0818   21.6884   42.2545 H   0  0  0  0  0  0  0  0  0  0  0  0
   56.9494   21.6395   44.6958 H   0  0  0  0  0  0  0  0  0  0  0  0
   58.1760   21.7606   43.3700 H   0  0  0  0  0  0  0  0  0  0  0  0
   57.5751   23.6097   45.5576 H   0  0  0  0  0  0  0  0  0  0  0  0
   59.0042   23.5075   44.4106 H   0  0  0  0  0  0  0  0  0  0  0  0
   58.1796   25.0421   42.9837 H   0  0  0  0  0  0  0  0  0  0  0  0
   56.4276   24.6563   43.4924 H   0  0  0  0  0  0  0  0  0  0  0  0
   56.7130   26.6710   44.0120 H   0  0  0  0  0  0  0  0  0  0  0  0
   57.2615   25.7477   46.6811 H   0  0  0  0  0  0  0  0  0  0  0  0
   56.1376   27.0479   45.9878 H   0  0  0  0  0  0  0  0  0  0  0  0
   55.1094   24.8521   46.9276 H   0  0  0  0  0  0  0  0  0  0  0  0
   54.5310   25.5394   45.3721 H   0  0  0  0  0  0  0  0  0  0  0  0
   55.6642   24.1456   45.3721 H   0  0  0  0  0  0  0  0  0  0  0  0
   59.4217   26.4675   44.2391 H   0  0  0  0  0  0  0  0  0  0  0  0
   58.2489   27.8836   43.9708 H   0  0  0  0  0  0  0  0  0  0  0  0
   58.9367   26.9124   46.7396 H   0  0  0  0  0  0  0  0  0  0  0  0
   59.9719   28.1064   45.8342 H   0  0  0  0  0  0  0  0  0  0  0  0
   57.3970   28.6520   47.1350 H   0  0  0  0  0  0  0  0  0  0  0  0
   56.8952   28.7657   44.1672 H   0  0  0  0  0  0  0  0  0  0  0  0
   56.1444   29.6070   41.9497 H   0  0  0  0  0  0  0  0  0  0  0  0
   56.7350   31.9102   41.2229 H   0  0  0  0  0  0  0  0  0  0  0  0
   57.9917   33.4195   42.7422 H   0  0  0  0  0  0  0  0  0  0  0  0
   58.8180   34.8052   45.9520 H   0  0  0  0  0  0  0  0  0  0  0  0
   59.7142   34.5378   44.4183 H   0  0  0  0  0  0  0  0  0  0  0  0
   57.9179   34.5514   44.4183 H   0  0  0  0  0  0  0  0  0  0  0  0
   60.5607   34.0959   46.8181 H   0  0  0  0  0  0  0  0  0  0  0  0
   63.0519   34.0330   47.4584 H   0  0  0  0  0  0  0  0  0  0  0  0
   63.3953   34.7243   49.0866 H   0  0  0  0  0  0  0  0  0  0  0  0
   63.6895   31.7430   48.5644 H   0  0  0  0  0  0  0  0  0  0  0  0
   65.0087   32.9541   48.1349 H   0  0  0  0  0  0  0  0  0  0  0  0
   64.3255   31.4900   51.9187 H   0  0  0  0  0  0  0  0  0  0  0  0
   63.2632   31.1287   50.5160 H   0  0  0  0  0  0  0  0  0  0  0  0
   64.9711   30.5723   50.5160 H   0  0  0  0  0  0  0  0  0  0  0  0
   66.5475   31.7264   49.6947 H   0  0  0  0  0  0  0  0  0  0  0  0
   66.4510   33.5221   49.3894 H   0  0  0  0  0  0  0  0  0  0  0  0
   66.7093   32.1429   52.1019 H   0  0  0  0  0  0  0  0  0  0  0  0
   67.9712   33.1024   51.2336 H   0  0  0  0  0  0  0  0  0  0  0  0
   64.8806   33.1417   52.9181 H   0  0  0  0  0  0  0  0  0  0  0  0
   64.6653   34.9291   52.7754 H   0  0  0  0  0  0  0  0  0  0  0  0
   63.1698   33.6746   51.2265 H   0  0  0  0  0  0  0  0  0  0  0  0
   64.3703   34.7270   50.3556 H   0  0  0  0  0  0  0  0  0  0  0  0
   61.0935   30.8423   49.6027 H   0  0  0  0  0  0  0  0  0  0  0  0
   59.5913   29.4171   48.2363 H   0  0  0  0  0  0  0  0  0  0  0  0
  1  2  1  0
  2  3  1  0
  3  4  1  0
  4  5  1  0
  5  6  1  0
  6  7  1  0
  5  8  1  0
  8  9  1  0
  9 10  1  0
 10 11  1  0
 11 12  2  0
 12 13  1  0
 13 14  2  0
 14 15  1  0
 15 16  2  0
 16 17  1  0
 17 18  2  0
 18 19  1  0
 18 20  1  0
 20 21  2  0
 21 22  1  0
 22 23  1  0
 23 24  1  0
 24 25  1  0
 25 26  1  0
 26 27  1  0
 26 28  1  0
 28 29  1  0
 29 30  1  0
 30 31  1  0
 31 32  1  0
 22 33  2  0
 33 34  1  0
 34 35  2  0
 35 11  1  0
 17 12  1  0
 35 20  1  0
 32 26  1  0
  1 36  1  0
  1 37  1  0
  1 38  1  0
  2 39  1  0
  2 40  1  0
  3 41  1  0
  3 42  1  0
  4 43  1  0
  4 44  1  0
  5 45  1  6
  6 46  1  0
  6 47  1  0
  7 48  1  0
  7 49  1  0
  7 50  1  0
  8 51  1  0
  8 52  1  0
  9 53  1  0
  9 54  1  0
 10 55  1  0
 13 56  1  0
 14 57  1  0
 15 58  1  0
 16 59  1  0
 19 60  1  0
 19 61  1  0
 19 62  1  0
 21 63  1  0
 24 64  1  0
 24 65  1  0
 25 66  1  0
 25 67  1  0
 27 68  1  0
 27 69  1  0
 27 70  1  0
 28 71  1  0
 28 72  1  0
 29 73  1  0
 29 74  1  0
 31 75  1  0
 31 76  1  0
 32 77  1  0
 32 78  1  0
 33 79  1  0
 34 80  1  0
M  CHG  3   5   1  18   1  26   1
M  END
>  <UniqueID>  (14) 
14

>  <SMILES>  (14) 
CCCC[N@@H+](CC)CCNc1c2ccccc2[n+](C)c2cc(OCC[N+]3(C)CCOCC3)ccc12

>  <Energy>  (14) 
145.03375997845114

>  <Genealogy>  (14) 
CCCC[NH+](CC)CCNc1c2ccccc2[n+](C)c2cc(OCC[N+]3(C)CCOCC3)ccc12 (protonated)
CCCC[N@@H+](CC)CCNc1c2ccccc2[n+](C)c2cc(OCC[N+]3(C)CCOCC3)ccc12 (chirality)
CCCC[N@@H+](CC)CCNc1c2ccccc2[n+](C)c2cc(OCC[N+]3(C)CCOCC3)ccc12 (3D coordinates assigned)
CCCC[N@@H+](CC)CCNc1c2ccccc2[n+](C)c2cc(OCC[N+]3(C)CCOCC3)ccc12 (nonaromatic ring conformer: 145.03375997845114 kcal/mol)

>  <smiles>  (14) 
CCCCN(CC)CCNc1c2ccccc2[n+](C)c2cc(OCC[N+]3(C)CCOCC3)ccc12

>  <score_type>  (14) 
oracle

>  <origin>  (14) 
adg

>  <m_score__min__energy>  (14) 
-4.3399999999999999

>  <m_primary>  (14) 
energy

$$$$
14:0
     RDKit          3D

 51 53  0  0  0  0  0  0  0  0999 V2000
   57.7440   26.0540   43.1950 C   0  0  0  0  0  0  0  0  0  0  0  0
   57.3700   25.3040   44.3970 N   0  0  0  0  0  0  0  0  0  0  0  0
   56.9050   26.0290   45.5560 C   0  0  0  0  0  0  0  0  0  0  0  0
   55.9040   25.6010   46.1950 O   0  0  0  0  0  0  0  0  0  0  0  0
   57.5680   27.2770   46.0060 C   0  0  0  0  0  0  0  0  0  0  0  0
   57.2990   28.4960   45.3570 C   0  0  0  0  0  0  0  0  0  0  0  0
   57.9210   29.6820   45.7700 C   0  0  0  0  0  0  0  0  0  0  0  0
   57.5840   31.1960   44.9180 S   0  0  0  0  0  0  0  0  0  0  0  0
   56.0910   31.3270   44.8070 O   0  0  0  0  0  0  0  0  0  0  0  0
   58.1340   31.0960   43.5200 O   0  0  0  0  0  0  0  0  0  0  0  0
   58.2140   32.6400   45.7050 N   0  0  0  0  0  0  0  0  0  0  0  0
   57.9840   33.8910   44.9440 C   0  0  0  0  0  0  0  0  0  0  0  0
   59.2150   34.8050   44.7600 C   0  0  0  0  0  0  0  0  0  0  0  0
   59.9980   35.0080   46.0640 C   0  0  0  0  0  0  0  0  0  0  0  0
   59.1150   34.9960   47.3240 C   0  0  0  0  0  0  0  0  0  0  0  0
   58.8960   33.6120   47.9520 C   0  0  0  0  0  0  0  0  0  0  0  0
   57.9300   32.7130   47.1580 C   0  0  0  0  0  0  0  0  0  0  0  0
   58.8410   29.6450   46.8260 C   0  0  0  0  0  0  0  0  0  0  0  0
   59.1020   28.4440   47.4880 C   0  0  0  0  0  0  0  0  0  0  0  0
   58.4670   27.2650   47.0900 C   0  0  0  0  0  0  0  0  0  0  0  0
   58.7590   26.1090   47.7380 F   0  0  0  0  0  0  0  0  0  0  0  0
   57.2300   23.8720   44.3200 C   0  0  0  0  0  0  0  0  0  0  0  0
   57.6950   23.0570   45.3670 C   0  0  0  0  0  0  0  0  0  0  0  0
   57.5280   21.6690   45.3090 C   0  0  0  0  0  0  0  0  0  0  0  0
   56.8960   21.0860   44.2070 C   0  0  0  0  0  0  0  0  0  0  0  0
   56.4320   21.8870   43.1620 C   0  0  0  0  0  0  0  0  0  0  0  0
   56.5960   23.2750   43.2170 C   0  0  0  0  0  0  0  0  0  0  0  0
   58.2172   27.0030   43.4874 H   0  0  0  0  0  0  0  0  0  0  0  0
   58.4515   25.4602   42.5976 H   0  0  0  0  0  0  0  0  0  0  0  0
   56.8440   26.2618   42.5976 H   0  0  0  0  0  0  0  0  0  0  0  0
   56.5916   28.5184   44.5149 H   0  0  0  0  0  0  0  0  0  0  0  0
   59.2520   32.4980   45.6590 H   0  0  0  0  0  0  0  0  0  0  0  0
   57.6170   33.6147   43.9445 H   0  0  0  0  0  0  0  0  0  0  0  0
   57.2669   34.4743   45.5402 H   0  0  0  0  0  0  0  0  0  0  0  0
   59.8837   34.3499   44.0145 H   0  0  0  0  0  0  0  0  0  0  0  0
   58.8528   35.7903   44.4314 H   0  0  0  0  0  0  0  0  0  0  0  0
   60.7404   34.2011   46.1525 H   0  0  0  0  0  0  0  0  0  0  0  0
   60.4640   36.0028   46.0076 H   0  0  0  0  0  0  0  0  0  0  0  0
   59.5886   35.6415   48.0783 H   0  0  0  0  0  0  0  0  0  0  0  0
   58.1228   35.3491   47.0064 H   0  0  0  0  0  0  0  0  0  0  0  0
   59.8690   33.1030   48.0166 H   0  0  0  0  0  0  0  0  0  0  0  0
   58.4400   33.7775   48.9392 H   0  0  0  0  0  0  0  0  0  0  0  0
   57.9892   31.6954   47.5714 H   0  0  0  0  0  0  0  0  0  0  0  0
   56.9303   33.1605   47.2598 H   0  0  0  0  0  0  0  0  0  0  0  0
   59.3592   30.5650   47.1344 H   0  0  0  0  0  0  0  0  0  0  0  0
   59.8119   28.4259   48.3281 H   0  0  0  0  0  0  0  0  0  0  0  0
   58.1924   23.5127   46.2359 H   0  0  0  0  0  0  0  0  0  0  0  0
   57.8942   21.0364   46.1310 H   0  0  0  0  0  0  0  0  0  0  0  0
   56.7641   19.9948   44.1631 H   0  0  0  0  0  0  0  0  0  0  0  0
   55.9369   21.4261   42.2945 H   0  0  0  0  0  0  0  0  0  0  0  0
   56.2268   23.9026   42.3925 H   0  0  0  0  0  0  0  0  0  0  0  0
  1  2  1  0
  2  3  1  0
  3  4  2  0
  3  5  1  0
  5  6  2  0
  6  7  1  0
  7  8  1  0
  8  9  2  0
  8 10  2  0
  8 11  1  0
 11 12  1  0
 12 13  1  0
 13 14  1  0
 14 15  1  0
 15 16  1  0
 16 17  1  0
  7 18  2  0
 18 19  1  0
 19 20  2  0
 20 21  1  0
  2 22  1  0
 22 23  2  0
 23 24  1  0
 24 25  2  0
 25 26  1  0
 26 27  2  0
 20  5  1  0
 27 22  1  0
 17 11  1  0
  1 28  1  0
  1 29  1  0
  1 30  1  0
  6 31  1  0
 11 32  1  0
 12 33  1  0
 12 34  1  0
 13 35  1  0
 13 36  1  0
 14 37  1  0
 14 38  1  0
 15 39  1  0
 15 40  1  0
 16 41  1  0
 16 42  1  0
 17 43  1  0
 17 44  1  0
 18 45  1  0
 19 46  1  0
 23 47  1  0
 24 48  1  0
 25 49  1  0
 26 50  1  0
 27 51  1  0
M  CHG  1  11   1
M  END
>  <UniqueID>  (15) 
15

>  <SMILES>  (15) 
CN(C(=O)c1cc(S(=O)(=O)[NH+]2CCCCCC2)ccc1F)c1ccccc1

>  <Energy>  (15) 
72.11152088208956

>  <Genealogy>  (15) 
CN(C(=O)c1cc(S(=O)(=O)[NH+]2CCCCCC2)ccc1F)c1ccccc1 (protonated)
CN(C(=O)c1cc(S(=O)(=O)[NH+]2CCCCCC2)ccc1F)c1ccccc1 (3D coordinates assigned)
CN(C(=O)c1cc(S(=O)(=O)[NH+]2CCCCCC2)ccc1F)c1ccccc1 (nonaromatic ring conformer: 72.11152088208956 kcal/mol)

>  <smiles>  (15) 
CN(C(=O)c1cc(S(=O)(=O)N2CCCCCC2)ccc1F)c1ccccc1

>  <score_type>  (15) 
oracle

>  <origin>  (15) 
adg

>  <m_score__min__energy>  (15) 
-6.2699999999999996

>  <m_primary>  (15) 
energy

$$$$
15:0
     RDKit          3D

 43 45  0  0  0  0  0  0  0  0999 V2000
   58.0660   32.0490   41.7650 C   0  0  0  0  0  0  0  0  0  0  0  0
   57.0250   31.5820   42.7770 C   0  0  0  0  0  0  0  0  0  0  0  0
   57.5540   31.6900   44.1510 N   0  0  0  0  0  0  0  0  0  0  0  0
   57.3700   30.6690   45.0710 C   0  0  0  0  0  0  0  0  0  0  0  0
   56.5720   29.1130   44.6320 S   0  0  0  0  0  0  0  0  0  0  0  0
   58.1040   28.3000   44.0500 C   0  0  0  0  0  0  0  0  0  0  0  0
   57.8300   26.8680   43.5610 C   0  0  0  0  0  0  0  0  0  0  0  0
   57.9120   25.8500   44.6300 N   0  0  0  0  0  0  0  0  0  0  0  0
   57.9620   26.3960   46.0060 C   0  0  0  0  0  0  0  0  0  0  0  0
   56.7200   26.0280   46.8290 C   0  0  0  0  0  0  0  0  0  0  0  0
   55.5870   25.9760   45.9940 O   0  0  0  0  0  0  0  0  0  0  0  0
   55.6610   24.8340   45.1630 C   0  0  0  0  0  0  0  0  0  0  0  0
   57.0270   24.6810   44.4490 C   0  0  0  0  0  0  0  0  0  0  0  0
   57.7860   30.8170   46.3620 N   0  0  0  0  0  0  0  0  0  0  0  0
   58.4020   31.9550   46.7530 C   0  0  0  0  0  0  0  0  0  0  0  0
   58.8680   32.2170   48.0420 C   0  0  0  0  0  0  0  0  0  0  0  0
   59.4570   33.4780   48.1320 C   0  0  0  0  0  0  0  0  0  0  0  0
   59.9870   34.0950   49.3840 C   0  0  0  0  0  0  0  0  0  0  0  0
   59.3630   34.2630   46.6330 S   0  0  0  0  0  0  0  0  0  0  0  0
   58.6010   32.9790   45.8600 C   0  0  0  0  0  0  0  0  0  0  0  0
   58.1670   32.8590   44.5490 C   0  0  0  0  0  0  0  0  0  0  0  0
   58.3300   33.8200   43.7460 O   0  0  0  0  0  0  0  0  0  0  0  0
   58.9442   32.4430   42.2976 H   0  0  0  0  0  0  0  0  0  0  0  0
   58.3700   31.2010   41.1338 H   0  0  0  0  0  0  0  0  0  0  0  0
   57.6347   32.8399   41.1338 H   0  0  0  0  0  0  0  0  0  0  0  0
   56.1251   32.2079   42.6855 H   0  0  0  0  0  0  0  0  0  0  0  0
   56.7778   30.5297   42.5729 H   0  0  0  0  0  0  0  0  0  0  0  0
   58.5272   28.8862   43.2210 H   0  0  0  0  0  0  0  0  0  0  0  0
   58.8094   28.2485   44.8925 H   0  0  0  0  0  0  0  0  0  0  0  0
   56.8194   26.8362   43.1277 H   0  0  0  0  0  0  0  0  0  0  0  0
   58.6098   26.6247   42.8243 H   0  0  0  0  0  0  0  0  0  0  0  0
   58.8524   25.9953   46.5125 H   0  0  0  0  0  0  0  0  0  0  0  0
   57.9998   27.4927   45.9296 H   0  0  0  0  0  0  0  0  0  0  0  0
   56.8721   25.0448   47.2983 H   0  0  0  0  0  0  0  0  0  0  0  0
   56.5619   26.7913   47.6051 H   0  0  0  0  0  0  0  0  0  0  0  0
   55.4887   23.9408   45.7815 H   0  0  0  0  0  0  0  0  0  0  0  0
   54.8967   24.9513   44.3806 H   0  0  0  0  0  0  0  0  0  0  0  0
   57.5347   23.7923   44.8521 H   0  0  0  0  0  0  0  0  0  0  0  0
   56.8244   24.5878   43.3718 H   0  0  0  0  0  0  0  0  0  0  0  0
   58.7814   31.5147   48.8842 H   0  0  0  0  0  0  0  0  0  0  0  0
   59.5505   33.5868   50.2565 H   0  0  0  0  0  0  0  0  0  0  0  0
   61.0818   33.9912   49.4090 H   0  0  0  0  0  0  0  0  0  0  0  0
   59.7192   35.1616   49.4090 H   0  0  0  0  0  0  0  0  0  0  0  0
  1  2  1  0
  2  3  1  0
  3  4  1  0
  4  5  1  0
  5  6  1  0
  6  7  1  0
  7  8  1  0
  8  9  1  0
  9 10  1  0
 10 11  1  0
 11 12  1  0
 12 13  1  0
  4 14  2  0
 14 15  1  0
 15 16  1  0
 16 17  2  0
 17 18  1  0
 17 19  1  0
 19 20  1  0
 20 21  1  0
 21 22  2  0
 21  3  1  0
 13  8  1  0
 20 15  2  0
  1 23  1  0
  1 24  1  0
  1 25  1  0
  2 26  1  0
  2 27  1  0
  6 28  1  0
  6 29  1  0
  7 30  1  0
  7 31  1  0
  9 32  1  0
  9 33  1  0
 10 34  1  0
 10 35  1  0
 12 36  1  0
 12 37  1  0
 13 38  1  0
 13 39  1  0
 16 40  1  0
 18 41  1  0
 18 42  1  0
 18 43  1  0
M  END
>  <UniqueID>  (16) 
16

>  <SMILES>  (16) 
CCn1c(SCCN2CCOCC2)nc2cc(C)sc2c1=O

>  <Energy>  (16) 
87.01778862536341

>  <Genealogy>  (16) 
CCn1c(SCCN2CCOCC2)nc2cc(C)sc2c1=O (3D coordinates assigned)
CCn1c(SCCN2CCOCC2)nc2cc(C)sc2c1=O (nonaromatic ring conformer: 87.01778862536341 kcal/mol)

>  <smiles>  (16) 
CCn1c(SCCN2CCOCC2)nc2cc(C)sc2c1=O

>  <score_type>  (16) 
oracle

>  <origin>  (16) 
adg

>  <m_score__min__energy>  (16) 
-7.0999999999999996

>  <m_primary>  (16) 
energy

$$$$
16:0
     RDKit          3D

 56 56  0  0  0  0  0  0  0  0999 V2000
   59.9220   29.7330   46.1650 C   0  0  0  0  0  0  0  0  0  0  0  0
   58.5220   29.6310   46.7480 C   0  0  0  0  0  0  0  0  0  0  0  0
   57.7590   30.7640   46.3440 O   0  0  0  0  0  0  0  0  0  0  0  0
   58.2020   32.0960   46.4180 C   0  0  0  0  0  0  0  0  0  0  0  0
   58.8220   32.6060   47.5750 C   0  0  0  0  0  0  0  0  0  0  0  0
   59.2800   33.9370   47.6180 C   0  0  0  0  0  0  0  0  0  0  0  0
   59.9060   34.4890   48.7490 O   0  0  0  0  0  0  0  0  0  0  0  0
   60.0490   33.8380   50.0120 C   0  0  0  0  0  0  0  0  0  0  0  0
   61.4010   33.0970   50.0960 C   0  0  0  0  0  0  0  0  0  0  0  0
   62.4140   33.6420   49.1510 N   0  0  0  0  0  0  0  0  0  0  0  0
   63.7120   33.8420   49.8540 C   0  0  0  0  0  0  0  0  0  0  0  0
   64.7020   32.7000   49.5880 C   0  0  0  0  0  0  0  0  0  0  0  0
   62.5850   32.7260   47.9910 C   0  0  0  0  0  0  0  0  0  0  0  0
   62.9880   33.4670   46.7090 C   0  0  0  0  0  0  0  0  0  0  0  0
   59.1090   34.7530   46.4970 C   0  0  0  0  0  0  0  0  0  0  0  0
   58.4900   34.2620   45.3480 C   0  0  0  0  0  0  0  0  0  0  0  0
   58.0270   32.9370   45.2980 C   0  0  0  0  0  0  0  0  0  0  0  0
   57.3940   32.4270   44.0250 C   0  0  0  0  0  0  0  0  0  0  0  0
   58.0280   31.1160   43.5290 C   0  0  0  0  0  0  0  0  0  0  0  0
   57.0020   29.9680   43.3190 C   0  0  0  0  0  0  0  0  0  0  0  0
   55.7090   30.2090   44.1160 C   0  0  0  0  0  0  0  0  0  0  0  0
   57.6080   28.6170   43.7250 C   0  0  0  0  0  0  0  0  0  0  0  0
   60.6565   29.7865   46.9821 H   0  0  0  0  0  0  0  0  0  0  0  0
   60.1266   28.8474   45.5455 H   0  0  0  0  0  0  0  0  0  0  0  0
   59.9961   30.6389   45.5455 H   0  0  0  0  0  0  0  0  0  0  0  0
   58.0381   28.7132   46.3828 H   0  0  0  0  0  0  0  0  0  0  0  0
   58.5819   29.6001   47.8459 H   0  0  0  0  0  0  0  0  0  0  0  0
   58.9499   31.9578   48.4545 H   0  0  0  0  0  0  0  0  0  0  0  0
   59.9994   34.5901   50.8132 H   0  0  0  0  0  0  0  0  0  0  0  0
   59.2370   33.1046   50.1250 H   0  0  0  0  0  0  0  0  0  0  0  0
   61.7900   33.1894   51.1208 H   0  0  0  0  0  0  0  0  0  0  0  0
   61.2221   32.0467   49.8222 H   0  0  0  0  0  0  0  0  0  0  0  0
   62.0750   34.5690   48.8000 H   0  0  0  0  0  0  0  0  0  0  0  0
   64.1595   34.7855   49.5083 H   0  0  0  0  0  0  0  0  0  0  0  0
   63.5086   33.8653   50.9348 H   0  0  0  0  0  0  0  0  0  0  0  0
   65.0563   32.2913   50.5458 H   0  0  0  0  0  0  0  0  0  0  0  0
   64.2010   31.9067   49.0137 H   0  0  0  0  0  0  0  0  0  0  0  0
   65.5583   33.0834   49.0137 H   0  0  0  0  0  0  0  0  0  0  0  0
   63.3670   31.9916   48.2342 H   0  0  0  0  0  0  0  0  0  0  0  0
   61.6161   32.2398   47.8045 H   0  0  0  0  0  0  0  0  0  0  0  0
   63.4982   34.4051   46.9727 H   0  0  0  0  0  0  0  0  0  0  0  0
   63.6663   32.8344   46.1177 H   0  0  0  0  0  0  0  0  0  0  0  0
   62.0883   33.6926   46.1177 H   0  0  0  0  0  0  0  0  0  0  0  0
   59.4662   35.7931   46.5210 H   0  0  0  0  0  0  0  0  0  0  0  0
   58.3633   34.9176   44.4739 H   0  0  0  0  0  0  0  0  0  0  0  0
   56.3238   32.2522   44.2099 H   0  0  0  0  0  0  0  0  0  0  0  0
   57.5541   33.1880   43.2470 H   0  0  0  0  0  0  0  0  0  0  0  0
   58.5296   31.3135   42.5702 H   0  0  0  0  0  0  0  0  0  0  0  0
   58.7295   30.7826   44.3079 H   0  0  0  0  0  0  0  0  0  0  0  0
   56.7520   29.9499   42.2479 H   0  0  0  0  0  0  0  0  0  0  0  0
   55.9291   30.1680   45.1930 H   0  0  0  0  0  0  0  0  0  0  0  0
   55.3011   31.1986   43.8625 H   0  0  0  0  0  0  0  0  0  0  0  0
   54.9720   29.4328   43.8625 H   0  0  0  0  0  0  0  0  0  0  0  0
   57.6405   28.5446   44.8221 H   0  0  0  0  0  0  0  0  0  0  0  0
   56.9894   27.8017   43.3219 H   0  0  0  0  0  0  0  0  0  0  0  0
   58.6283   28.5368   43.3219 H   0  0  0  0  0  0  0  0  0  0  0  0
  1  2  1  0
  2  3  1  0
  3  4  1  0
  4  5  2  0
  5  6  1  0
  6  7  1  0
  7  8  1  0
  8  9  1  0
  9 10  1  0
 10 11  1  0
 11 12  1  0
 10 13  1  0
 13 14  1  0
  6 15  2  0
 15 16  1  0
 16 17  2  0
 17 18  1  0
 18 19  1  0
 19 20  1  0
 20 21  1  0
 20 22  1  0
 17  4  1  0
  1 23  1  0
  1 24  1  0
  1 25  1  0
  2 26  1  0
  2 27  1  0
  5 28  1  0
  8 29  1  0
  8 30  1  0
  9 31  1  0
  9 32  1  0
 10 33  1  0
 11 34  1  0
 11 35  1  0
 12 36  1  0
 12 37  1  0
 12 38  1  0
 13 39  1  0
 13 40  1  0
 14 41  1  0
 14 42  1  0
 14 43  1  0
 15 44  1  0
 16 45  1  0
 18 46  1  0
 18 47  1  0
 19 48  1  0
 19 49  1  0
 20 50  1  0
 21 51  1  0
 21 52  1  0
 21 53  1  0
 22 54  1  0
 22 55  1  0
 22 56  1  0
M  CHG  1  10   1
M  END
>  <UniqueID>  (17) 
17

>  <SMILES>  (17) 
CCOc1cc(OCC[NH+](CC)CC)ccc1CCC(C)C

>  <Energy>  (17) 
44.21993279035891

>  <Genealogy>  (17) 
CCOc1cc(OCC[NH+](CC)CC)ccc1CCC(C)C (protonated)
CCOc1cc(OCC[NH+](CC)CC)ccc1CCC(C)C (3D coordinates assigned)
CCOc1cc(OCC[NH+](CC)CC)ccc1CCC(C)C (optimized conformer: 44.21993279035891 kcal/mol)

>  <smiles>  (17) 
CCOc1cc(OCCN(CC)CC)ccc1CCC(C)C

>  <score_type>  (17) 
oracle

>  <origin>  (17) 
adg

>  <m_score__min__energy>  (17) 
-4.4400000000000004

>  <m_primary>  (17) 
energy

$$$$
17:0
     RDKit          3D

 69 71  0  0  0  0  0  0  0  0999 V2000
   54.2740   29.9690   52.0390 C   0  0  0  0  0  0  0  0  0  0  0  0
   55.4790   30.8400   51.6910 C   0  0  0  0  0  0  0  0  0  0  0  0
   56.7440   30.1090   51.9340 N   0  0  0  0  0  0  0  0  0  0  0  0
   56.5100   28.9480   52.8230 C   0  0  0  0  0  0  0  0  0  0  0  0
   57.8080   28.4790   53.4820 C   0  0  0  0  0  0  0  0  0  0  0  0
   57.8060   31.0060   52.4590 C   0  0  0  0  0  0  0  0  0  0  0  0
   57.4180   32.4620   52.1950 C   0  0  0  0  0  0  0  0  0  0  0  0
   58.5010   33.1720   51.6170 O   0  0  0  0  0  0  0  0  0  0  0  0
   58.8320   32.6510   50.3420 C   0  0  0  0  0  0  0  0  0  0  0  0
   60.1830   31.9230   50.3920 C   0  0  0  0  0  0  0  0  0  0  0  0
   60.0460   30.4120   50.1470 C   0  0  0  0  0  0  0  0  0  0  0  0
   58.7610   30.0560   49.5260 N   0  0  0  0  0  0  0  0  0  0  0  0
   58.8980   28.9360   48.5830 C   0  0  0  0  0  0  0  0  0  0  0  0
   60.3580   28.7660   48.1520 C   0  0  0  0  0  0  0  0  0  0  0  0
   60.5990   29.3950   46.8540 N   0  0  0  0  0  0  0  0  0  0  0  0
   60.4180   30.8110   46.6720 C   0  0  0  0  0  0  0  0  0  0  0  0
   61.3980   31.7160   47.1200 C   0  0  0  0  0  0  0  0  0  0  0  0
   62.6050   31.2570   47.6900 C   0  0  0  0  0  0  0  0  0  0  0  0
   63.5890   32.1560   48.0950 C   0  0  0  0  0  0  0  0  0  0  0  0
   63.3940   33.5220   47.9290 C   0  0  0  0  0  0  0  0  0  0  0  0
   62.2020   34.0000   47.3850 C   0  0  0  0  0  0  0  0  0  0  0  0
   61.1630   33.1120   47.0040 C   0  0  0  0  0  0  0  0  0  0  0  0
   59.9530   33.5750   46.5210 N   0  0  0  0  0  0  0  0  0  0  0  0
   59.5900   35.0010   46.6780 C   0  0  0  0  0  0  0  0  0  0  0  0
   59.0730   32.7010   45.9110 C   0  0  0  0  0  0  0  0  0  0  0  0
   57.9610   33.1630   45.1650 C   0  0  0  0  0  0  0  0  0  0  0  0
   57.0610   32.2740   44.5810 C   0  0  0  0  0  0  0  0  0  0  0  0
   57.2450   30.8920   44.6970 C   0  0  0  0  0  0  0  0  0  0  0  0
   56.3120   29.9810   44.0890 N   0  0  0  0  0  0  0  0  0  0  0  0
   56.3610   29.7390   42.8640 O   0  0  0  0  0  0  0  0  0  0  0  0
   55.3560   29.3460   44.8500 O   0  0  0  0  0  0  0  0  0  0  0  0
   58.3640   30.4150   45.3960 C   0  0  0  0  0  0  0  0  0  0  0  0
   59.2810   31.2990   46.0020 C   0  0  0  0  0  0  0  0  0  0  0  0
   54.1762   29.8983   53.1324 H   0  0  0  0  0  0  0  0  0  0  0  0
   53.3627   30.4185   51.6177 H   0  0  0  0  0  0  0  0  0  0  0  0
   54.4150   28.9627   51.6177 H   0  0  0  0  0  0  0  0  0  0  0  0
   55.4245   31.1236   50.6296 H   0  0  0  0  0  0  0  0  0  0  0  0
   55.4618   31.7365   52.3282 H   0  0  0  0  0  0  0  0  0  0  0  0
   55.7944   29.2362   53.6071 H   0  0  0  0  0  0  0  0  0  0  0  0
   56.1120   28.1217   52.2157 H   0  0  0  0  0  0  0  0  0  0  0  0
   57.6989   28.5184   54.5759 H   0  0  0  0  0  0  0  0  0  0  0  0
   58.0241   27.4459   53.1721 H   0  0  0  0  0  0  0  0  0  0  0  0
   58.6345   29.1353   53.1721 H   0  0  0  0  0  0  0  0  0  0  0  0
   57.9187   30.8468   53.5416 H   0  0  0  0  0  0  0  0  0  0  0  0
   58.7579   30.7824   51.9552 H   0  0  0  0  0  0  0  0  0  0  0  0
   56.5605   32.4881   51.5065 H   0  0  0  0  0  0  0  0  0  0  0  0
   57.1538   32.9368   53.1514 H   0  0  0  0  0  0  0  0  0  0  0  0
   58.0511   31.9435   50.0264 H   0  0  0  0  0  0  0  0  0  0  0  0
   58.9027   33.4827   49.6256 H   0  0  0  0  0  0  0  0  0  0  0  0
   60.8414   32.3474   49.6197 H   0  0  0  0  0  0  0  0  0  0  0  0
   60.6007   32.0619   51.4001 H   0  0  0  0  0  0  0  0  0  0  0  0
   60.8606   30.0871   49.4831 H   0  0  0  0  0  0  0  0  0  0  0  0
   60.0955   29.9093   51.1241 H   0  0  0  0  0  0  0  0  0  0  0  0
   58.1220   29.7570   50.2990 H   0  0  0  0  0  0  0  0  0  0  0  0
   58.5550   28.0108   49.0691 H   0  0  0  0  0  0  0  0  0  0  0  0
   58.2888   29.1477   47.6919 H   0  0  0  0  0  0  0  0  0  0  0  0
   61.0115   29.2320   48.9042 H   0  0  0  0  0  0  0  0  0  0  0  0
   60.5745   27.6910   48.0655 H   0  0  0  0  0  0  0  0  0  0  0  0
   61.1100   28.8520   46.1220 H   0  0  0  0  0  0  0  0  0  0  0  0
   62.7705   30.1768   47.8158 H   0  0  0  0  0  0  0  0  0  0  0  0
   64.5208   31.7846   48.5464 H   0  0  0  0  0  0  0  0  0  0  0  0
   64.1824   34.2285   48.2277 H   0  0  0  0  0  0  0  0  0  0  0  0
   62.0652   35.0830   47.2491 H   0  0  0  0  0  0  0  0  0  0  0  0
   59.5272   35.2477   47.7481 H   0  0  0  0  0  0  0  0  0  0  0  0
   60.3569   35.6292   46.2013 H   0  0  0  0  0  0  0  0  0  0  0  0
   58.6161   35.1861   46.2013 H   0  0  0  0  0  0  0  0  0  0  0  0
   57.8049   34.2452   45.0443 H   0  0  0  0  0  0  0  0  0  0  0  0
   56.1966   32.6629   44.0228 H   0  0  0  0  0  0  0  0  0  0  0  0
   58.5295   29.3303   45.4730 H   0  0  0  0  0  0  0  0  0  0  0  0
  1  2  1  0
  2  3  1  0
  3  4  1  0
  4  5  1  0
  3  6  1  0
  6  7  1  0
  7  8  1  0
  8  9  1  0
  9 10  1  0
 10 11  1  0
 11 12  1  0
 12 13  1  0
 13 14  1  0
 14 15  1  0
 15 16  1  0
 16 17  2  0
 17 18  1  0
 18 19  2  0
 19 20  1  0
 20 21  2  0
 21 22  1  0
 22 23  2  0
 23 24  1  0
 23 25  1  0
 25 26  2  0
 26 27  1  0
 27 28  2  0
 28 29  1  0
 29 30  2  0
 29 31  1  0
 28 32  1  0
 32 33  2  0
 33 16  1  0
 22 17  1  0
 33 25  1  0
  1 34  1  0
  1 35  1  0
  1 36  1  0
  2 37  1  0
  2 38  1  0
  4 39  1  0
  4 40  1  0
  5 41  1  0
  5 42  1  0
  5 43  1  0
  6 44  1  0
  6 45  1  0
  7 46  1  0
  7 47  1  0
  9 48  1  0
  9 49  1  0
 10 50  1  0
 10 51  1  0
 11 52  1  0
 11 53  1  0
 12 54  1  0
 13 55  1  0
 13 56  1  0
 14 57  1  0
 14 58  1  0
 15 59  1  0
 18 60  1  0
 19 61  1  0
 20 62  1  0
 21 63  1  0
 24 64  1  0
 24 65  1  0
 24 66  1  0
 26 67  1  0
 27 68  1  0
 32 69  1  0
M  CHG  3  23   1  29   1  31  -1
M  END
>  <UniqueID>  (18) 
18

>  <SMILES>  (18) 
CCN(CC)CCOCCCNCCNc1c2ccccc2[n+](C)c2ccc([N+](=O)[O-])cc12

>  <Energy>  (18) 
91.42416479219301

>  <Genealogy>  (18) 
CCN(CC)CCOCCCNCCNc1c2ccccc2[n+](C)c2ccc([N+](=O)[O-])cc12 (3D coordinates assigned)
CCN(CC)CCOCCCNCCNc1c2ccccc2[n+](C)c2ccc([N+](=O)[O-])cc12 (optimized conformer: 91.42416479219301 kcal/mol)

>  <smiles>  (18) 
CCN(CC)CCOCCCNCCNc1c2ccccc2[n+](C)c2ccc([N+](=O)[O-])cc12

>  <score_type>  (18) 
oracle

>  <origin>  (18) 
adg

>  <m_score__min__energy>  (18) 
-7.3700000000000001

>  <m_primary>  (18) 
energy

$$$$
18:0
     RDKit          3D

 35 34  0  0  0  0  0  0  0  0999 V2000
   58.1320   28.7400   46.2960 C   0  0  0  0  0  0  0  0  0  0  0  0
   57.0860   28.1600   45.3400 C   0  0  0  0  0  0  0  0  0  0  0  0
   55.8960   29.0160   45.2200 N   0  0  0  0  0  0  0  0  0  0  0  0
   55.8370   29.7140   43.9290 C   0  0  0  0  0  0  0  0  0  0  0  0
   56.8560   30.8550   43.9000 C   0  0  0  0  0  0  0  0  0  0  0  0
   56.9600   31.4450   45.1840 O   0  0  0  0  0  0  0  0  0  0  0  0
   57.3430   32.8020   45.0860 C   0  0  0  0  0  0  0  0  0  0  0  0
   57.7470   33.3470   46.4710 C   0  0  0  0  0  0  0  0  0  0  0  0
   59.1350   33.8970   46.5820 N   0  0  0  0  0  0  0  0  0  0  0  0
   60.1560   32.8320   46.4190 C   0  0  0  0  0  0  0  0  0  0  0  0
   59.3190   34.8840   45.4890 C   0  0  0  0  0  0  0  0  0  0  0  0
   59.3460   34.5940   47.8740 C   0  0  0  0  0  0  0  0  0  0  0  0
   57.8162   28.5649   47.3350 H   0  0  0  0  0  0  0  0  0  0  0  0
   59.1012   28.2504   46.1199 H   0  0  0  0  0  0  0  0  0  0  0  0
   58.2301   29.8214   46.1199 H   0  0  0  0  0  0  0  0  0  0  0  0
   57.5414   28.0476   44.3450 H   0  0  0  0  0  0  0  0  0  0  0  0
   56.7611   27.1915   45.7480 H   0  0  0  0  0  0  0  0  0  0  0  0
   55.8950   29.7220   45.9930 H   0  0  0  0  0  0  0  0  0  0  0  0
   56.0638   29.0033   43.1206 H   0  0  0  0  0  0  0  0  0  0  0  0
   54.8279   30.1294   43.7906 H   0  0  0  0  0  0  0  0  0  0  0  0
   57.8376   30.4591   43.6005 H   0  0  0  0  0  0  0  0  0  0  0  0
   56.5248   31.6165   43.1786 H   0  0  0  0  0  0  0  0  0  0  0  0
   58.1975   32.8889   44.3988 H   0  0  0  0  0  0  0  0  0  0  0  0
   56.4922   33.3868   44.7063 H   0  0  0  0  0  0  0  0  0  0  0  0
   57.0445   34.1516   46.7338 H   0  0  0  0  0  0  0  0  0  0  0  0
   57.7163   32.4820   47.1499 H   0  0  0  0  0  0  0  0  0  0  0  0
   60.4870   32.4867   47.4096 H   0  0  0  0  0  0  0  0  0  0  0  0
   59.7205   31.9885   45.8633 H   0  0  0  0  0  0  0  0  0  0  0  0
   61.0171   33.2316   45.8633 H   0  0  0  0  0  0  0  0  0  0  0  0
   59.5044   35.8787   45.9205 H   0  0  0  0  0  0  0  0  0  0  0  0
   60.1774   34.5878   44.8682 H   0  0  0  0  0  0  0  0  0  0  0  0
   58.4115   34.9170   44.8682 H   0  0  0  0  0  0  0  0  0  0  0  0
   59.1364   33.9016   48.7027 H   0  0  0  0  0  0  0  0  0  0  0  0
   60.3887   34.9384   47.9388 H   0  0  0  0  0  0  0  0  0  0  0  0
   58.6694   35.4589   47.9388 H   0  0  0  0  0  0  0  0  0  0  0  0
  1  2  1  0
  2  3  1  0
  3  4  1  0
  4  5  1  0
  5  6  1  0
  6  7  1  0
  7  8  1  0
  8  9  1  0
  9 10  1  0
  9 11  1  0
  9 12  1  0
  1 13  1  0
  1 14  1  0
  1 15  1  0
  2 16  1  0
  2 17  1  0
  3 18  1  0
  4 19  1  0
  4 20  1  0
  5 21  1  0
  5 22  1  0
  7 23  1  0
  7 24  1  0
  8 25  1  0
  8 26  1  0
 10 27  1  0
 10 28  1  0
 10 29  1  0
 11 30  1  0
 11 31  1  0
 11 32  1  0
 12 33  1  0
 12 34  1  0
 12 35  1  0
M  CHG  1   9   1
M  END
>  <UniqueID>  (19) 
19

>  <SMILES>  (19) 
CCNCCOCC[N+](C)(C)C

>  <Energy>  (19) 
33.116522300706656

>  <Genealogy>  (19) 
CCNCCOCC[N+](C)(C)C (3D coordinates assigned)
CCNCCOCC[N+](C)(C)C (optimized conformer: 33.116522300706656 kcal/mol)

>  <smiles>  (19) 
CCNCCOCC[N+](C)(C)C

>  <score_type>  (19) 
oracle

>  <origin>  (19) 
adg

>  <m_score__min__energy>  (19) 
-2.9900000000000002

>  <m_primary>  (19) 
energy

$$$$
19:0
     RDKit          3D

 46 47  0  0  0  0  0  0  0  0999 V2000
   57.3880   33.8230   44.7920 C   0  0  0  0  0  0  0  0  0  0  0  0
   58.3150   32.6190   44.6840 C   0  0  0  0  0  0  0  0  0  0  0  0
   58.3660   31.8880   45.9550 N   0  0  0  0  0  0  0  0  0  0  0  0
   58.0310   32.5590   47.2180 C   0  0  0  0  0  0  0  0  0  0  0  0
   58.9280   32.0700   48.3650 C   0  0  0  0  0  0  0  0  0  0  0  0
   59.0500   33.0910   49.5000 C   0  0  0  0  0  0  0  0  0  0  0  0
   60.1270   33.9950   49.2570 O   0  0  0  0  0  0  0  0  0  0  0  0
   61.2600   33.6800   48.4860 C   0  0  0  0  0  0  0  0  0  0  0  0
   62.3360   32.9330   49.0100 C   0  0  0  0  0  0  0  0  0  0  0  0
   63.4490   32.6430   48.2170 C   0  0  0  0  0  0  0  0  0  0  0  0
   63.5040   33.0890   46.8960 C   0  0  0  0  0  0  0  0  0  0  0  0
   62.4440   33.8250   46.3640 C   0  0  0  0  0  0  0  0  0  0  0  0
   61.3250   34.1220   47.1520 C   0  0  0  0  0  0  0  0  0  0  0  0
   60.0080   35.0370   46.4400 Cl  0  0  0  0  0  0  0  0  0  0  0  0
   58.6460   30.4790   45.9540 C   0  0  0  0  0  0  0  0  0  0  0  0
   59.9090   30.0240   46.3220 C   0  0  0  0  0  0  0  0  0  0  0  0
   60.1720   28.6950   46.3210 N   0  0  0  0  0  0  0  0  0  0  0  0
   59.2530   27.7910   45.9740 N   0  0  0  0  0  0  0  0  0  0  0  0
   59.6230   26.3760   46.0010 C   0  0  0  0  0  0  0  0  0  0  0  0
   57.9920   28.1790   45.6030 C   0  0  0  0  0  0  0  0  0  0  0  0
   57.1410   27.3060   45.2830 O   0  0  0  0  0  0  0  0  0  0  0  0
   57.6610   29.5530   45.5860 C   0  0  0  0  0  0  0  0  0  0  0  0
   56.3980   30.0540   45.2120 O   0  0  0  0  0  0  0  0  0  0  0  0
   55.8690   30.1030   43.8910 C   0  0  0  0  0  0  0  0  0  0  0  0
   57.2097   34.0545   45.8525 H   0  0  0  0  0  0  0  0  0  0  0  0
   57.8541   34.6899   44.3008 H   0  0  0  0  0  0  0  0  0  0  0  0
   56.4308   33.5940   44.3008 H   0  0  0  0  0  0  0  0  0  0  0  0
   57.9441   31.9473   43.8958 H   0  0  0  0  0  0  0  0  0  0  0  0
   59.3272   32.9729   44.4388 H   0  0  0  0  0  0  0  0  0  0  0  0
   58.1667   33.6436   47.0945 H   0  0  0  0  0  0  0  0  0  0  0  0
   56.9864   32.3236   47.4697 H   0  0  0  0  0  0  0  0  0  0  0  0
   58.5025   31.1410   48.7723 H   0  0  0  0  0  0  0  0  0  0  0  0
   59.9354   31.9112   47.9528 H   0  0  0  0  0  0  0  0  0  0  0  0
   58.1117   33.6602   49.5750 H   0  0  0  0  0  0  0  0  0  0  0  0
   59.2479   32.5521   50.4383 H   0  0  0  0  0  0  0  0  0  0  0  0
   62.2983   32.5765   50.0499 H   0  0  0  0  0  0  0  0  0  0  0  0
   64.2840   32.0616   48.6350 H   0  0  0  0  0  0  0  0  0  0  0  0
   64.3822   32.8607   46.2742 H   0  0  0  0  0  0  0  0  0  0  0  0
   62.4878   34.1732   45.3215 H   0  0  0  0  0  0  0  0  0  0  0  0
   60.6909   30.7411   46.6126 H   0  0  0  0  0  0  0  0  0  0  0  0
   59.7109   26.0398   47.0447 H   0  0  0  0  0  0  0  0  0  0  0  0
   58.8492   25.7848   45.4893 H   0  0  0  0  0  0  0  0  0  0  0  0
   60.5871   26.2393   45.4893 H   0  0  0  0  0  0  0  0  0  0  0  0
   54.7747   30.2044   43.9378 H   0  0  0  0  0  0  0  0  0  0  0  0
   56.2947   30.9656   43.3573 H   0  0  0  0  0  0  0  0  0  0  0  0
   56.1290   29.1769   43.3573 H   0  0  0  0  0  0  0  0  0  0  0  0
  1  2  1  0
  2  3  1  0
  3  4  1  0
  4  5  1  0
  5  6  1  0
  6  7  1  0
  7  8  1  0
  8  9  2  0
  9 10  1  0
 10 11  2  0
 11 12  1  0
 12 13  2  0
 13 14  1  0
  3 15  1  0
 15 16  1  0
 16 17  2  0
 17 18  1  0
 18 19  1  0
 18 20  1  0
 20 21  2  0
 20 22  1  0
 22 23  1  0
 23 24  1  0
 13  8  1  0
 22 15  2  0
  1 25  1  0
  1 26  1  0
  1 27  1  0
  2 28  1  0
  2 29  1  0
  4 30  1  0
  4 31  1  0
  5 32  1  0
  5 33  1  0
  6 34  1  0
  6 35  1  0
  9 36  1  0
 10 37  1  0
 11 38  1  0
 12 39  1  0
 16 40  1  0
 19 41  1  0
 19 42  1  0
 19 43  1  0
 24 44  1  0
 24 45  1  0
 24 46  1  0
M  END
>  <UniqueID>  (20) 
20

>  <SMILES>  (20) 
CCN(CCCOc1ccccc1Cl)c1cnn(C)c(=O)c1OC

>  <Energy>  (20) 
44.963003558701885

>  <Genealogy>  (20) 
CCN(CCCOc1ccccc1Cl)c1cnn(C)c(=O)c1OC (3D coordinates assigned)
CCN(CCCOc1ccccc1Cl)c1cnn(C)c(=O)c1OC (optimized conformer: 44.963003558701885 kcal/mol)

>  <smiles>  (20) 
CCN(CCCOc1ccccc1Cl)c1cnn(C)c(=O)c1OC

>  <score_type>  (20) 
oracle

>  <origin>  (20) 
adg

>  <m_score__min__energy>  (20) 
-6.4900000000000002

>  <m_primary>  (20) 
energy

$$$$
20:0
     RDKit          3D

 34 35  0  0  0  0  0  0  0  0999 V2000
   63.7770   33.6000   48.2070 C   0  0  0  0  0  0  0  0  0  0  0  0
   63.3570   32.7040   47.1260 N   0  0  0  0  0  0  0  0  0  0  0  0
   62.0690   32.0700   47.4440 C   0  0  0  0  0  0  0  0  0  0  0  0
   60.9290   32.8130   46.7780 C   0  0  0  0  0  0  0  0  0  0  0  0
   61.0010   34.2110   46.6990 C   0  0  0  0  0  0  0  0  0  0  0  0
   59.9590   34.9220   46.1020 C   0  0  0  0  0  0  0  0  0  0  0  0
   60.0210   36.1770   46.0200 O   0  0  0  0  0  0  0  0  0  0  0  0
   58.8980   34.2850   45.6230 O   0  0  0  0  0  0  0  0  0  0  0  0
   58.7640   32.9640   45.6830 C   0  0  0  0  0  0  0  0  0  0  0  0
   57.6120   32.3730   45.1620 C   0  0  0  0  0  0  0  0  0  0  0  0
   57.4310   30.9810   45.2200 C   0  0  0  0  0  0  0  0  0  0  0  0
   56.2840   30.3560   44.7060 O   0  0  0  0  0  0  0  0  0  0  0  0
   56.1740   29.8270   43.3880 C   0  0  0  0  0  0  0  0  0  0  0  0
   58.4180   30.1770   45.8090 C   0  0  0  0  0  0  0  0  0  0  0  0
   58.2020   28.7900   45.8550 O   0  0  0  0  0  0  0  0  0  0  0  0
   58.7040   27.8600   44.9000 C   0  0  0  0  0  0  0  0  0  0  0  0
   59.5840   30.7700   46.3320 C   0  0  0  0  0  0  0  0  0  0  0  0
   59.7730   32.1660   46.2720 C   0  0  0  0  0  0  0  0  0  0  0  0
   63.5574   33.1315   49.1777 H   0  0  0  0  0  0  0  0  0  0  0  0
   64.8577   33.7893   48.1273 H   0  0  0  0  0  0  0  0  0  0  0  0
   63.2312   34.5517   48.1273 H   0  0  0  0  0  0  0  0  0  0  0  0
   64.0880   31.9650   47.0000 H   0  0  0  0  0  0  0  0  0  0  0  0
   63.2780   33.2600   46.2440 H   0  0  0  0  0  0  0  0  0  0  0  0
   62.0802   31.0298   47.0863 H   0  0  0  0  0  0  0  0  0  0  0  0
   61.9205   32.0967   48.5336 H   0  0  0  0  0  0  0  0  0  0  0  0
   61.8733   34.7441   47.1050 H   0  0  0  0  0  0  0  0  0  0  0  0
   56.8376   33.0037   44.7011 H   0  0  0  0  0  0  0  0  0  0  0  0
   55.9503   28.7513   43.4421 H   0  0  0  0  0  0  0  0  0  0  0  0
   55.3640   30.3434   42.8520 H   0  0  0  0  0  0  0  0  0  0  0  0
   57.1227   29.9777   42.8520 H   0  0  0  0  0  0  0  0  0  0  0  0
   59.1635   27.0087   45.4236 H   0  0  0  0  0  0  0  0  0  0  0  0
   57.8777   27.4999   44.2694 H   0  0  0  0  0  0  0  0  0  0  0  0
   59.4584   28.3532   44.2694 H   0  0  0  0  0  0  0  0  0  0  0  0
   60.3562   30.1364   46.7927 H   0  0  0  0  0  0  0  0  0  0  0  0
  1  2  1  0
  2  3  1  0
  3  4  1  0
  4  5  2  0
  5  6  1  0
  6  7  2  0
  6  8  1  0
  8  9  1  0
  9 10  2  0
 10 11  1  0
 11 12  1  0
 12 13  1  0
 11 14  2  0
 14 15  1  0
 15 16  1  0
 14 17  1  0
 17 18  2  0
 18  4  1  0
 18  9  1  0
  1 19  1  0
  1 20  1  0
  1 21  1  0
  2 22  1  0
  2 23  1  0
  3 24  1  0
  3 25  1  0
  5 26  1  0
 10 27  1  0
 13 28  1  0
 13 29  1  0
 13 30  1  0
 16 31  1  0
 16 32  1  0
 16 33  1  0
 17 34  1  0
M  CHG  1   2   1
M  END
>  <UniqueID>  (21) 
21

>  <SMILES>  (21) 
C[NH2+]Cc1cc(=O)oc2cc(OC)c(OC)cc12

>  <Energy>  (21) 
37.385313031601335

>  <Genealogy>  (21) 
C[NH2+]Cc1cc(=O)oc2cc(OC)c(OC)cc12 (protonated)
C[NH2+]Cc1cc(=O)oc2cc(OC)c(OC)cc12 (3D coordinates assigned)
C[NH2+]Cc1cc(=O)oc2cc(OC)c(OC)cc12 (optimized conformer: 37.385313031601335 kcal/mol)

>  <smiles>  (21) 
CNCc1cc(=O)oc2cc(OC)c(OC)cc12

>  <score_type>  (21) 
oracle

>  <origin>  (21) 
adg

>  <m_score__min__energy>  (21) 
-4.21

>  <m_primary>  (21) 
energy

$$$$
21:0
     RDKit          3D

 60 63  0  0  0  0  0  0  0  0999 V2000
   56.3660   30.3930   42.7050 C   0  0  0  0  0  0  0  0  0  0  0  0
   55.9130   30.4640   44.1670 C   0  0  0  0  0  0  0  0  0  0  0  0
   56.7930   29.7180   45.0840 N   0  0  0  0  0  0  0  0  0  0  0  0
   57.4670   28.5630   44.4660 C   0  0  0  0  0  0  0  0  0  0  0  0
   57.4580   27.3280   45.3750 C   0  0  0  0  0  0  0  0  0  0  0  0
   57.4100   27.7220   46.7910 N   0  0  0  0  0  0  0  0  0  0  0  0
   58.6820   27.4400   47.4700 C   0  0  0  0  0  0  0  0  0  0  0  0
   59.6150   28.6580   47.4090 C   0  0  0  0  0  0  0  0  0  0  0  0
   58.8470   29.9120   47.5350 N   0  0  0  0  0  0  0  0  0  0  0  0
   59.7170   31.0740   47.4750 C   0  0  0  0  0  0  0  0  0  0  0  0
   60.8890   31.1530   48.2720 C   0  0  0  0  0  0  0  0  0  0  0  0
   61.8520   32.1780   48.0360 C   0  0  0  0  0  0  0  0  0  0  0  0
   61.5920   33.1130   47.0430 N   0  0  0  0  0  0  0  0  0  0  0  0
   62.6830   33.8720   46.4060 C   0  0  0  0  0  0  0  0  0  0  0  0
   60.3170   33.2440   46.5300 C   0  0  0  0  0  0  0  0  0  0  0  0
   59.9020   34.4290   45.8690 C   0  0  0  0  0  0  0  0  0  0  0  0
   58.6530   34.5160   45.2620 C   0  0  0  0  0  0  0  0  0  0  0  0
   57.7820   33.4360   45.3060 C   0  0  0  0  0  0  0  0  0  0  0  0
   58.1360   32.2820   45.9980 C   0  0  0  0  0  0  0  0  0  0  0  0
   59.3830   32.1850   46.6640 C   0  0  0  0  0  0  0  0  0  0  0  0
   63.0240   32.2700   49.0270 C   0  0  0  0  0  0  0  0  0  0  0  0
   64.2880   32.8640   48.7670 C   0  0  0  0  0  0  0  0  0  0  0  0
   65.2670   32.9640   49.7610 C   0  0  0  0  0  0  0  0  0  0  0  0
   65.0380   32.4500   51.0300 C   0  0  0  0  0  0  0  0  0  0  0  0
   63.8410   31.8010   51.3040 C   0  0  0  0  0  0  0  0  0  0  0  0
   62.8550   31.6800   50.3120 C   0  0  0  0  0  0  0  0  0  0  0  0
   61.6110   30.9060   50.6290 C   0  0  0  0  0  0  0  0  0  0  0  0
   61.1520   30.1600   49.3880 C   0  0  0  0  0  0  0  0  0  0  0  0
   57.4520   30.2228   42.6655 H   0  0  0  0  0  0  0  0  0  0  0  0
   55.8465   29.5653   42.2000 H   0  0  0  0  0  0  0  0  0  0  0  0
   56.1247   31.3399   42.2000 H   0  0  0  0  0  0  0  0  0  0  0  0
   55.8982   31.5191   44.4776 H   0  0  0  0  0  0  0  0  0  0  0  0
   54.9159   30.0029   44.2232 H   0  0  0  0  0  0  0  0  0  0  0  0
   56.2180   29.3720   45.8890 H   0  0  0  0  0  0  0  0  0  0  0  0
   56.9520   28.3142   43.5264 H   0  0  0  0  0  0  0  0  0  0  0  0
   58.5161   28.8417   44.2880 H   0  0  0  0  0  0  0  0  0  0  0  0
   56.5753   26.7146   45.1412 H   0  0  0  0  0  0  0  0  0  0  0  0
   58.3802   26.7545   45.1997 H   0  0  0  0  0  0  0  0  0  0  0  0
   56.6700   27.1430   47.2540 H   0  0  0  0  0  0  0  0  0  0  0  0
   58.4815   27.1918   48.5227 H   0  0  0  0  0  0  0  0  0  0  0  0
   59.1719   26.5952   46.9638 H   0  0  0  0  0  0  0  0  0  0  0  0
   60.3429   28.5965   48.2314 H   0  0  0  0  0  0  0  0  0  0  0  0
   60.1333   28.6574   46.4388 H   0  0  0  0  0  0  0  0  0  0  0  0
   58.3060   29.9220   48.4290 H   0  0  0  0  0  0  0  0  0  0  0  0
   58.1100   29.9560   46.7930 H   0  0  0  0  0  0  0  0  0  0  0  0
   63.3224   34.3168   47.1827 H   0  0  0  0  0  0  0  0  0  0  0  0
   63.2834   33.1956   45.7799 H   0  0  0  0  0  0  0  0  0  0  0  0
   62.2575   34.6701   45.7799 H   0  0  0  0  0  0  0  0  0  0  0  0
   60.5800   35.2946   45.8358 H   0  0  0  0  0  0  0  0  0  0  0  0
   58.3556   35.4413   44.7469 H   0  0  0  0  0  0  0  0  0  0  0  0
   56.8106   33.4926   44.7931 H   0  0  0  0  0  0  0  0  0  0  0  0
   57.4377   31.4326   46.0285 H   0  0  0  0  0  0  0  0  0  0  0  0
   64.5017   33.2542   47.7610 H   0  0  0  0  0  0  0  0  0  0  0  0
   66.2258   33.4537   49.5354 H   0  0  0  0  0  0  0  0  0  0  0  0
   65.8011   32.5562   51.8151 H   0  0  0  0  0  0  0  0  0  0  0  0
   63.6645   31.3792   52.3045 H   0  0  0  0  0  0  0  0  0  0  0  0
   61.8216   30.1859   51.4334 H   0  0  0  0  0  0  0  0  0  0  0  0
   60.8206   31.5978   50.9556 H   0  0  0  0  0  0  0  0  0  0  0  0
   61.9346   29.4536   49.0739 H   0  0  0  0  0  0  0  0  0  0  0  0
   60.2284   29.6064   49.6126 H   0  0  0  0  0  0  0  0  0  0  0  0
  1  2  1  0
  2  3  1  0
  3  4  1  0
  4  5  1  0
  5  6  1  0
  6  7  1  0
  7  8  1  0
  8  9  1  0
  9 10  1  0
 10 11  2  0
 11 12  1  0
 12 13  2  0
 13 14  1  0
 13 15  1  0
 15 16  2  0
 16 17  1  0
 17 18  2  0
 18 19  1  0
 19 20  2  0
 12 21  1  0
 21 22  2  0
 22 23  1  0
 23 24  2  0
 24 25  1  0
 25 26  2  0
 26 27  1  0
 27 28  1  0
 20 10  1  0
 26 21  1  0
 28 11  1  0
 20 15  1  0
  1 29  1  0
  1 30  1  0
  1 31  1  0
  2 32  1  0
  2 33  1  0
  3 34  1  0
  4 35  1  0
  4 36  1  0
  5 37  1  0
  5 38  1  0
  6 39  1  0
  7 40  1  0
  7 41  1  0
  8 42  1  0
  8 43  1  0
  9 44  1  0
  9 45  1  0
 14 46  1  0
 14 47  1  0
 14 48  1  0
 16 49  1  0
 17 50  1  0
 18 51  1  0
 19 52  1  0
 22 53  1  0
 23 54  1  0
 24 55  1  0
 25 56  1  0
 27 57  1  0
 27 58  1  0
 28 59  1  0
 28 60  1  0
M  CHG  2   9   1  13   1
M  END
>  <UniqueID>  (22) 
22

>  <SMILES>  (22) 
CCNCCNCC[NH2+]c1c2c([n+](C)c3ccccc13)-c1ccccc1CC2

>  <Energy>  (22) 
104.06242923754505

>  <Genealogy>  (22) 
CCNCCNCC[NH2+]c1c2c([n+](C)c3ccccc13)-c1ccccc1CC2 (protonated)
CCNCCNCC[NH2+]c1c2c([n+](C)c3ccccc13)-c1ccccc1CC2 (3D coordinates assigned)
CCNCCNCC[NH2+]c1c2c([n+](C)c3ccccc13)-c1ccccc1CC2 (nonaromatic ring conformer: 104.06242923754505 kcal/mol)

>  <smiles>  (22) 
CCNCCNCCNc1c2c([n+](C)c3ccccc13)-c1ccccc1CC2

>  <score_type>  (22) 
oracle

>  <origin>  (22) 
adg

>  <m_score__min__energy>  (22) 
-5.46

>  <m_primary>  (22) 
energy

$$$$
22:0
     RDKit          3D

 47 48  0  0  0  0  0  0  0  0999 V2000
   63.0940   33.8280   46.7560 C   0  0  0  0  0  0  0  0  0  0  0  0
   62.2720   33.3160   47.9410 C   0  0  0  0  0  0  0  0  0  0  0  0
   61.0720   34.2140   48.2590 C   0  0  0  0  0  0  0  0  0  0  0  0
   59.8560   33.8300   47.4640 C   0  0  0  0  0  0  0  0  0  0  0  0
   59.6270   34.2020   45.8380 S   0  0  0  0  0  0  0  0  0  0  0  0
   58.1910   33.3330   45.7350 C   0  0  0  0  0  0  0  0  0  0  0  0
   57.4100   33.1030   44.4770 C   0  0  0  0  0  0  0  0  0  0  0  0
   57.3590   31.6170   44.0760 C   0  0  0  0  0  0  0  0  0  0  0  0
   56.6430   30.7960   45.0640 N   0  0  0  0  0  0  0  0  0  0  0  0
   56.7060   29.3590   44.7620 C   0  0  0  0  0  0  0  0  0  0  0  0
   58.0640   29.0500   44.1240 C   0  0  0  0  0  0  0  0  0  0  0  0
   58.8820   28.2070   45.0240 N   0  0  0  0  0  0  0  0  0  0  0  0
   58.2130   27.9490   46.3200 C   0  0  0  0  0  0  0  0  0  0  0  0
   58.5740   28.9970   47.3940 C   0  0  0  0  0  0  0  0  0  0  0  0
   58.9540   30.2160   46.7940 O   0  0  0  0  0  0  0  0  0  0  0  0
   60.1790   30.0580   46.1020 C   0  0  0  0  0  0  0  0  0  0  0  0
   60.2280   28.7750   45.2390 C   0  0  0  0  0  0  0  0  0  0  0  0
   57.8750   32.7530   46.9140 N   0  0  0  0  0  0  0  0  0  0  0  0
   58.7870   33.0300   47.8830 C   0  0  0  0  0  0  0  0  0  0  0  0
   58.6510   32.4540   49.2570 C   0  0  0  0  0  0  0  0  0  0  0  0
   63.9726   34.3752   47.1284 H   0  0  0  0  0  0  0  0  0  0  0  0
   63.4250   32.9760   46.1439 H   0  0  0  0  0  0  0  0  0  0  0  0
   62.4753   34.5007   46.1439 H   0  0  0  0  0  0  0  0  0  0  0  0
   61.9037   32.3069   47.7042 H   0  0  0  0  0  0  0  0  0  0  0  0
   62.9279   33.3123   48.8240 H   0  0  0  0  0  0  0  0  0  0  0  0
   60.8378   34.1278   49.3303 H   0  0  0  0  0  0  0  0  0  0  0  0
   61.3402   35.2470   47.9925 H   0  0  0  0  0  0  0  0  0  0  0  0
   56.3816   33.4623   44.6299 H   0  0  0  0  0  0  0  0  0  0  0  0
   57.9141   33.6500   43.6667 H   0  0  0  0  0  0  0  0  0  0  0  0
   56.8472   31.5298   43.1062 H   0  0  0  0  0  0  0  0  0  0  0  0
   58.3938   31.2484   44.0190 H   0  0  0  0  0  0  0  0  0  0  0  0
   57.0840   30.9570   45.9990 H   0  0  0  0  0  0  0  0  0  0  0  0
   56.5931   28.7804   45.6907 H   0  0  0  0  0  0  0  0  0  0  0  0
   55.8960   29.0858   44.0698 H   0  0  0  0  0  0  0  0  0  0  0  0
   57.9048   28.5171   43.1750 H   0  0  0  0  0  0  0  0  0  0  0  0
   58.5951   29.9963   43.9442 H   0  0  0  0  0  0  0  0  0  0  0  0
   57.1243   27.9655   46.1638 H   0  0  0  0  0  0  0  0  0  0  0  0
   58.5564   26.9689   46.6826 H   0  0  0  0  0  0  0  0  0  0  0  0
   57.6995   29.1691   48.0388 H   0  0  0  0  0  0  0  0  0  0  0  0
   59.4181   28.6175   47.9886 H   0  0  0  0  0  0  0  0  0  0  0  0
   60.3243   30.9278   45.4445 H   0  0  0  0  0  0  0  0  0  0  0  0
   60.9740   29.9753   46.8577 H   0  0  0  0  0  0  0  0  0  0  0  0
   60.6714   29.0195   44.2625 H   0  0  0  0  0  0  0  0  0  0  0  0
   60.8335   28.0272   45.7721 H   0  0  0  0  0  0  0  0  0  0  0  0
   58.8365   33.2398   50.0040 H   0  0  0  0  0  0  0  0  0  0  0  0
   57.6341   32.0557   49.3886 H   0  0  0  0  0  0  0  0  0  0  0  0
   59.3823   31.6429   49.3886 H   0  0  0  0  0  0  0  0  0  0  0  0
  1  2  1  0
  2  3  1  0
  3  4  1  0
  4  5  1  0
  5  6  1  0
  6  7  1  0
  7  8  1  0
  8  9  1  0
  9 10  1  0
 10 11  1  0
 11 12  1  0
 12 13  1  0
 13 14  1  0
 14 15  1  0
 15 16  1  0
 16 17  1  0
  6 18  2  0
 18 19  1  0
 19 20  1  0
 19  4  2  0
 17 12  1  0
  1 21  1  0
  1 22  1  0
  1 23  1  0
  2 24  1  0
  2 25  1  0
  3 26  1  0
  3 27  1  0
  7 28  1  0
  7 29  1  0
  8 30  1  0
  8 31  1  0
  9 32  1  0
 10 33  1  0
 10 34  1  0
 11 35  1  0
 11 36  1  0
 13 37  1  0
 13 38  1  0
 14 39  1  0
 14 40  1  0
 16 41  1  0
 16 42  1  0
 17 43  1  0
 17 44  1  0
 20 45  1  0
 20 46  1  0
 20 47  1  0
M  END
>  <UniqueID>  (23) 
23

>  <SMILES>  (23) 
CCCc1sc(CCNCCN2CCOCC2)nc1C

>  <Energy>  (23) 
73.92855147197015

>  <Genealogy>  (23) 
CCCc1sc(CCNCCN2CCOCC2)nc1C (3D coordinates assigned)
CCCc1sc(CCNCCN2CCOCC2)nc1C (nonaromatic ring conformer: 73.92855147197015 kcal/mol)

>  <smiles>  (23) 
CCCc1sc(CCNCCN2CCOCC2)nc1C

>  <score_type>  (23) 
oracle

>  <origin>  (23) 
adg

>  <m_score__min__energy>  (23) 
-6.5499999999999998

>  <m_primary>  (23) 
energy

$$$$
23:0
     RDKit          3D

 57 59  0  0  0  0  0  0  0  0999 V2000
   65.9010   32.3690   50.1540 C   0  0  0  0  0  0  0  0  0  0  0  0
   64.4590   32.1600   49.6670 C   0  0  0  0  0  0  0  0  0  0  0  0
   63.9360   33.2340   48.7740 N   0  0  0  0  0  0  0  0  0  0  0  0
   63.4310   32.7370   47.4570 C   0  0  0  0  0  0  0  0  0  0  0  0
   63.0280   33.8130   46.4280 C   0  0  0  0  0  0  0  0  0  0  0  0
   63.0400   34.1990   49.4840 C   0  0  0  0  0  0  0  0  0  0  0  0
   62.0310   33.4910   50.4080 C   0  0  0  0  0  0  0  0  0  0  0  0
   60.6210   32.8650   49.4270 S   0  0  0  0  0  0  0  0  0  0  0  0
   61.0330   31.0930   49.6310 C   0  0  0  0  0  0  0  0  0  0  0  0
   60.2690   30.2340   48.6190 C   0  0  0  0  0  0  0  0  0  0  0  0
   60.5640   30.6390   47.2430 N   0  0  0  0  0  0  0  0  0  0  0  0
   59.5560   30.7000   46.2190 C   0  0  0  0  0  0  0  0  0  0  0  0
   58.9690   31.9280   45.8670 C   0  0  0  0  0  0  0  0  0  0  0  0
   59.2560   33.1010   46.5940 C   0  0  0  0  0  0  0  0  0  0  0  0
   58.6450   34.3100   46.2640 C   0  0  0  0  0  0  0  0  0  0  0  0
   57.7230   34.3670   45.2270 C   0  0  0  0  0  0  0  0  0  0  0  0
   57.4150   33.2180   44.5000 C   0  0  0  0  0  0  0  0  0  0  0  0
   58.0460   31.9780   44.7860 C   0  0  0  0  0  0  0  0  0  0  0  0
   57.7650   30.8340   44.0600 N   0  0  0  0  0  0  0  0  0  0  0  0
   57.0290   30.9380   42.7780 C   0  0  0  0  0  0  0  0  0  0  0  0
   58.1760   29.6000   44.5290 C   0  0  0  0  0  0  0  0  0  0  0  0
   57.6850   28.3890   43.9780 C   0  0  0  0  0  0  0  0  0  0  0  0
   58.1560   27.1540   44.4220 C   0  0  0  0  0  0  0  0  0  0  0  0
   59.1100   27.0910   45.4300 C   0  0  0  0  0  0  0  0  0  0  0  0
   59.5760   28.2620   46.0260 C   0  0  0  0  0  0  0  0  0  0  0  0
   59.1080   29.5210   45.5990 C   0  0  0  0  0  0  0  0  0  0  0  0
   65.9198   32.3717   51.2538 H   0  0  0  0  0  0  0  0  0  0  0  0
   66.5367   31.5536   49.7784 H   0  0  0  0  0  0  0  0  0  0  0  0
   66.2790   33.3313   49.7784 H   0  0  0  0  0  0  0  0  0  0  0  0
   64.4187   31.2083   49.1168 H   0  0  0  0  0  0  0  0  0  0  0  0
   63.8252   32.1703   50.5660 H   0  0  0  0  0  0  0  0  0  0  0  0
   64.8100   33.7560   48.5170 H   0  0  0  0  0  0  0  0  0  0  0  0
   64.2230   32.1216   47.0053 H   0  0  0  0  0  0  0  0  0  0  0  0
   62.5047   32.1898   47.6863 H   0  0  0  0  0  0  0  0  0  0  0  0
   62.6895   34.7167   46.9560 H   0  0  0  0  0  0  0  0  0  0  0  0
   63.8946   34.0598   45.7971 H   0  0  0  0  0  0  0  0  0  0  0  0
   62.2124   33.4298   45.7971 H   0  0  0  0  0  0  0  0  0  0  0  0
   63.6596   34.8762   50.0902 H   0  0  0  0  0  0  0  0  0  0  0  0
   62.4687   34.7498   48.7222 H   0  0  0  0  0  0  0  0  0  0  0  0
   62.5271   32.6485   50.9121 H   0  0  0  0  0  0  0  0  0  0  0  0
   61.6614   34.2072   51.1567 H   0  0  0  0  0  0  0  0  0  0  0  0
   62.1135   30.9546   49.4778 H   0  0  0  0  0  0  0  0  0  0  0  0
   60.7454   30.7800   50.6456 H   0  0  0  0  0  0  0  0  0  0  0  0
   60.5591   29.1813   48.7521 H   0  0  0  0  0  0  0  0  0  0  0  0
   59.1915   30.3676   48.7955 H   0  0  0  0  0  0  0  0  0  0  0  0
   61.5550   30.8580   46.9770 H   0  0  0  0  0  0  0  0  0  0  0  0
   59.9694   33.0621   47.4304 H   0  0  0  0  0  0  0  0  0  0  0  0
   58.8940   35.2217   46.8269 H   0  0  0  0  0  0  0  0  0  0  0  0
   57.2346   35.3209   44.9787 H   0  0  0  0  0  0  0  0  0  0  0  0
   56.6711   33.2726   43.6916 H   0  0  0  0  0  0  0  0  0  0  0  0
   55.9585   31.0893   42.9810 H   0  0  0  0  0  0  0  0  0  0  0  0
   57.4167   31.7903   42.2007 H   0  0  0  0  0  0  0  0  0  0  0  0
   57.1654   30.0117   42.2007 H   0  0  0  0  0  0  0  0  0  0  0  0
   56.9205   28.4245   43.1879 H   0  0  0  0  0  0  0  0  0  0  0  0
   57.7710   26.2267   43.9728 H   0  0  0  0  0  0  0  0  0  0  0  0
   59.4983   26.1156   45.7584 H   0  0  0  0  0  0  0  0  0  0  0  0
   60.3162   28.2027   46.8375 H   0  0  0  0  0  0  0  0  0  0  0  0
  1  2  1  0
  2  3  1  0
  3  4  1  0
  4  5  1  0
  3  6  1  0
  6  7  1  0
  7  8  1  0
  8  9  1  0
  9 10  1  0
 10 11  1  0
 11 12  1  0
 12 13  2  0
 13 14  1  0
 14 15  2  0
 15 16  1  0
 16 17  2  0
 17 18  1  0
 18 19  2  0
 19 20  1  0
 19 21  1  0
 21 22  2  0
 22 23  1  0
 23 24  2  0
 24 25  1  0
 25 26  2  0
 26 12  1  0
 18 13  1  0
 26 21  1  0
  1 27  1  0
  1 28  1  0
  1 29  1  0
  2 30  1  0
  2 31  1  0
  3 32  1  0
  4 33  1  0
  4 34  1  0
  5 35  1  0
  5 36  1  0
  5 37  1  0
  6 38  1  0
  6 39  1  0
  7 40  1  0
  7 41  1  0
  9 42  1  0
  9 43  1  0
 10 44  1  0
 10 45  1  0
 11 46  1  0
 14 47  1  0
 15 48  1  0
 16 49  1  0
 17 50  1  0
 20 51  1  0
 20 52  1  0
 20 53  1  0
 22 54  1  0
 23 55  1  0
 24 56  1  0
 25 57  1  0
M  CHG  2   3   1  19   1
M  END
>  <UniqueID>  (24) 
24

>  <SMILES>  (24) 
CC[NH+](CC)CCSCCNc1c2ccccc2[n+](C)c2ccccc12

>  <Energy>  (24) 
84.66377254792316

>  <Genealogy>  (24) 
CC[NH+](CC)CCSCCNc1c2ccccc2[n+](C)c2ccccc12 (protonated)
CC[NH+](CC)CCSCCNc1c2ccccc2[n+](C)c2ccccc12 (3D coordinates assigned)
CC[NH+](CC)CCSCCNc1c2ccccc2[n+](C)c2ccccc12 (optimized conformer: 84.66377254792316 kcal/mol)

>  <smiles>  (24) 
CCN(CC)CCSCCNc1c2ccccc2[n+](C)c2ccccc12

>  <score_type>  (24) 
oracle

>  <origin>  (24) 
adg

>  <m_score__min__energy>  (24) 
-4.4400000000000004

>  <m_primary>  (24) 
energy

$$$$
