0:0
     RDKit          3D

 63 65  0  0  0  0  0  0  0  0999 V2000
   58.1250   29.9430   44.5810 C   0  0  0  0  0  0  0  0  0  0  0  0
   57.8570   30.2650   45.9410 O   0  0  0  0  0  0  0  0  0  0  0  0
   58.7660   29.9700   46.9610 C   0  0  0  0  0  0  0  0  0  0  0  0
   59.0560   28.6280   47.2910 C   0  0  0  0  0  0  0  0  0  0  0  0
   58.4670   27.5570   46.5350 N   0  0  0  0  0  0  0  0  0  0  0  0
   58.9980   26.9350   45.4620 C   0  0  0  0  0  0  0  0  0  0  0  0
   58.1710   26.0020   44.9430 N   0  0  0  0  0  0  0  0  0  0  0  0
   57.0860   26.0480   45.7430 C   0  0  0  0  0  0  0  0  0  0  0  0
   55.8500   25.2420   45.5190 C   0  0  0  0  0  0  0  0  0  0  0  0
   57.2530   27.0110   46.7140 C   0  0  0  0  0  0  0  0  0  0  0  0
   59.9560   28.3520   48.3370 C   0  0  0  0  0  0  0  0  0  0  0  0
   60.4090   26.7030   48.7520 Cl  0  0  0  0  0  0  0  0  0  0  0  0
   60.5600   29.3990   49.0380 C   0  0  0  0  0  0  0  0  0  0  0  0
   60.2870   30.7360   48.7020 C   0  0  0  0  0  0  0  0  0  0  0  0
   60.8890   31.8070   49.3820 C   0  0  0  0  0  0  0  0  0  0  0  0
   61.6880   31.5600   50.3310 O   0  0  0  0  0  0  0  0  0  0  0  0
   60.6180   33.1080   49.0270 N   0  0  0  0  0  0  0  0  0  0  0  0
   61.2690   34.1930   49.8010 C   0  0  0  0  0  0  0  0  0  0  0  0
   62.6950   34.4520   49.2950 C   0  0  0  0  0  0  0  0  0  0  0  0
   63.1510   33.3380   48.4350 N   0  0  0  0  0  0  0  0  0  0  0  0
   63.3830   33.7960   47.0560 C   0  0  0  0  0  0  0  0  0  0  0  0
   64.3790   32.7280   48.9690 C   0  0  0  0  0  0  0  0  0  0  0  0
   59.7280   33.3590   47.9970 C   0  0  0  0  0  0  0  0  0  0  0  0
   59.4030   34.7570   47.4940 C   0  0  0  0  0  0  0  0  0  0  0  0
   59.9690   35.0170   46.0870 C   0  0  0  0  0  0  0  0  0  0  0  0
   58.9320   34.8770   44.9580 C   0  0  0  0  0  0  0  0  0  0  0  0
   58.2030   33.5890   45.0110 N   0  0  0  0  0  0  0  0  0  0  0  0
   56.8330   33.7630   45.5250 C   0  0  0  0  0  0  0  0  0  0  0  0
   58.1480   32.9870   43.6690 C   0  0  0  0  0  0  0  0  0  0  0  0
   59.1340   32.3190   47.3440 N   0  0  0  0  0  0  0  0  0  0  0  0
   59.3930   31.0220   47.6600 C   0  0  0  0  0  0  0  0  0  0  0  0
   58.8281   29.0982   44.5359 H   0  0  0  0  0  0  0  0  0  0  0  0
   57.1867   29.6664   44.0779 H   0  0  0  0  0  0  0  0  0  0  0  0
   58.5674   30.8155   44.0779 H   0  0  0  0  0  0  0  0  0  0  0  0
   59.9942   27.1626   45.0550 H   0  0  0  0  0  0  0  0  0  0  0  0
   55.4160   24.9590   46.4893 H   0  0  0  0  0  0  0  0  0  0  0  0
   55.1209   25.8388   44.9513 H   0  0  0  0  0  0  0  0  0  0  0  0
   56.1021   24.3342   44.9513 H   0  0  0  0  0  0  0  0  0  0  0  0
   56.5255   27.2829   47.4930 H   0  0  0  0  0  0  0  0  0  0  0  0
   61.2554   29.1747   49.8602 H   0  0  0  0  0  0  0  0  0  0  0  0
   60.6774   35.1144   49.6960 H   0  0  0  0  0  0  0  0  0  0  0  0
   61.3223   33.8867   50.8562 H   0  0  0  0  0  0  0  0  0  0  0  0
   62.7088   35.3863   48.7145 H   0  0  0  0  0  0  0  0  0  0  0  0
   63.3698   34.5324   50.1599 H   0  0  0  0  0  0  0  0  0  0  0  0
   63.8800   34.7772   47.0742 H   0  0  0  0  0  0  0  0  0  0  0  0
   64.0224   33.0708   46.5314 H   0  0  0  0  0  0  0  0  0  0  0  0
   62.4200   33.8825   46.5314 H   0  0  0  0  0  0  0  0  0  0  0  0
   64.3479   32.7434   50.0685 H   0  0  0  0  0  0  0  0  0  0  0  0
   64.4540   31.6879   48.6189 H   0  0  0  0  0  0  0  0  0  0  0  0
   65.2531   33.2966   48.6189 H   0  0  0  0  0  0  0  0  0  0  0  0
   58.3100   34.8768   47.4634 H   0  0  0  0  0  0  0  0  0  0  0  0
   59.8669   35.4789   48.1823 H   0  0  0  0  0  0  0  0  0  0  0  0
   60.3729   36.0398   46.0605 H   0  0  0  0  0  0  0  0  0  0  0  0
   60.7389   34.2521   45.9079 H   0  0  0  0  0  0  0  0  0  0  0  0
   58.2044   35.6975   45.0442 H   0  0  0  0  0  0  0  0  0  0  0  0
   59.4738   34.9141   44.0014 H   0  0  0  0  0  0  0  0  0  0  0  0
   56.8510   33.7607   46.6249 H   0  0  0  0  0  0  0  0  0  0  0  0
   56.4258   34.7201   45.1669 H   0  0  0  0  0  0  0  0  0  0  0  0
   56.1995   32.9381   45.1669 H   0  0  0  0  0  0  0  0  0  0  0  0
   58.0483   31.8954   43.7606 H   0  0  0  0  0  0  0  0  0  0  0  0
   57.2829   33.3896   43.1217 H   0  0  0  0  0  0  0  0  0  0  0  0
   59.0717   33.2261   43.1217 H   0  0  0  0  0  0  0  0  0  0  0  0
   58.4670   32.5340   46.5680 H   0  0  0  0  0  0  0  0  0  0  0  0
  1  2  1  0
  2  3  1  0
  3  4  2  0
  4  5  1  0
  5  6  1  0
  6  7  2  0
  7  8  1  0
  8  9  1  0
  8 10  2  0
  4 11  1  0
 11 12  1  0
 11 13  2  0
 13 14  1  0
 14 15  1  0
 15 16  2  0
 15 17  1  0
 17 18  1  0
 18 19  1  0
 19 20  1  0
 20 21  1  0
 20 22  1  0
 17 23  1  0
 23 24  1  0
 24 25  1  0
 25 26  1  0
 26 27  1  0
 27 28  1  0
 27 29  1  0
 23 30  2  0
 30 31  1  0
 31  3  1  0
 10  5  1  0
 31 14  2  0
  1 32  1  0
  1 33  1  0
  1 34  1  0
  6 35  1  0
  9 36  1  0
  9 37  1  0
  9 38  1  0
 10 39  1  0
 13 40  1  0
 18 41  1  0
 18 42  1  0
 19 43  1  0
 19 44  1  0
 21 45  1  0
 21 46  1  0
 21 47  1  0
 22 48  1  0
 22 49  1  0
 22 50  1  0
 24 51  1  0
 24 52  1  0
 25 53  1  0
 25 54  1  0
 26 55  1  0
 26 56  1  0
 28 57  1  0
 28 58  1  0
 28 59  1  0
 29 60  1  0
 29 61  1  0
 29 62  1  0
 30 63  1  0
M  CHG  1  30   1
M  END
>  <UniqueID>  (1) 
1

>  <SMILES>  (1) 
COc1c(-n2cnc(C)c2)c(Cl)cc2c(=O)n(CCN(C)C)c(CCCN(C)C)[nH+]c12

>  <Energy>  (1) 
110.30849830691221

>  <Genealogy>  (1) 
COc1c(-n2cnc(C)c2)c(Cl)cc2c(=O)n(CCN(C)C)c(CCCN(C)C)[nH+]c12 (protonated)
COc1c(-n2cnc(C)c2)c(Cl)cc2c(=O)n(CCN(C)C)c(CCCN(C)C)[nH+]c12 (3D coordinates assigned)
COc1c(-n2cnc(C)c2)c(Cl)cc2c(=O)n(CCN(C)C)c(CCCN(C)C)[nH+]c12 (optimized conformer: 110.30849830691221 kcal/mol)

>  <smiles>  (1) 
COc1c(-n2cnc(C)c2)c(Cl)cc2c(=O)n(CCN(C)C)c(CCCN(C)C)nc12

>  <score_type>  (1) 
oracle

>  <origin>  (1) 
adg

>  <m_score__min__energy>  (1) 
-6.25

>  <m_primary>  (1) 
energy

$$$$
1:0
     RDKit          3D

 36 39  0  0  0  0  0  0  0  0999 V2000
   56.1510   26.5820   45.7030 N   0  0  0  0  0  0  0  0  0  0  0  0
   57.2300   25.6840   45.6620 N   0  0  0  0  0  0  0  0  0  0  0  0
   58.4740   25.8650   46.1720 C   0  0  0  0  0  0  0  0  0  0  0  0
   58.9290   27.1140   46.8680 C   0  0  0  0  0  0  0  0  0  0  0  0
   57.8680   28.0660   46.9380 O   0  0  0  0  0  0  0  0  0  0  0  0
   57.8930   29.3550   46.3780 C   0  0  0  0  0  0  0  0  0  0  0  0
   58.8540   30.3170   46.7270 C   0  0  0  0  0  0  0  0  0  0  0  0
   58.8220   31.5770   46.1220 C   0  0  0  0  0  0  0  0  0  0  0  0
   59.7650   32.5660   46.4350 C   0  0  0  0  0  0  0  0  0  0  0  0
   59.7000   33.8150   45.8070 C   0  0  0  0  0  0  0  0  0  0  0  0
   58.6970   34.0790   44.8700 C   0  0  0  0  0  0  0  0  0  0  0  0
   57.7530   33.0960   44.5530 C   0  0  0  0  0  0  0  0  0  0  0  0
   57.8100   31.8430   45.1750 C   0  0  0  0  0  0  0  0  0  0  0  0
   56.9130   30.9100   44.8740 O   0  0  0  0  0  0  0  0  0  0  0  0
   56.9180   29.7030   45.4310 C   0  0  0  0  0  0  0  0  0  0  0  0
   56.0380   28.8660   45.0970 O   0  0  0  0  0  0  0  0  0  0  0  0
   59.2900   24.7970   45.9690 N   0  0  0  0  0  0  0  0  0  0  0  0
   58.4980   23.9310   45.3040 C   0  0  0  0  0  0  0  0  0  0  0  0
   58.8310   22.6610   44.8390 C   0  0  0  0  0  0  0  0  0  0  0  0
   57.8370   21.9290   44.1620 C   0  0  0  0  0  0  0  0  0  0  0  0
   56.5490   22.4790   43.9680 C   0  0  0  0  0  0  0  0  0  0  0  0
   56.2430   23.7650   44.4500 C   0  0  0  0  0  0  0  0  0  0  0  0
   57.2520   24.4610   45.1150 C   0  0  0  0  0  0  0  0  0  0  0  0
   55.5240   26.7030   44.8770 H   0  0  0  0  0  0  0  0  0  0  0  0
   55.9480   27.1390   46.5620 H   0  0  0  0  0  0  0  0  0  0  0  0
   59.2554   26.8611   47.8876 H   0  0  0  0  0  0  0  0  0  0  0  0
   59.7619   27.5531   46.2993 H   0  0  0  0  0  0  0  0  0  0  0  0
   59.6278   30.0808   47.4723 H   0  0  0  0  0  0  0  0  0  0  0  0
   60.5546   32.3607   47.1729 H   0  0  0  0  0  0  0  0  0  0  0  0
   60.4403   34.5910   46.0515 H   0  0  0  0  0  0  0  0  0  0  0  0
   58.6496   35.0628   44.3802 H   0  0  0  0  0  0  0  0  0  0  0  0
   56.9656   33.3078   43.8147 H   0  0  0  0  0  0  0  0  0  0  0  0
   59.8368   22.2440   44.9954 H   0  0  0  0  0  0  0  0  0  0  0  0
   58.0640   20.9222   43.7814 H   0  0  0  0  0  0  0  0  0  0  0  0
   55.7810   21.8976   43.4367 H   0  0  0  0  0  0  0  0  0  0  0  0
   55.2450   24.2050   44.3076 H   0  0  0  0  0  0  0  0  0  0  0  0
  1  2  1  0
  2  3  1  0
  3  4  1  0
  4  5  1  0
  5  6  1  0
  6  7  2  0
  7  8  1  0
  8  9  2  0
  9 10  1  0
 10 11  2  0
 11 12  1  0
 12 13  2  0
 13 14  1  0
 14 15  1  0
 15 16  2  0
  3 17  2  0
 17 18  1  0
 18 19  2  0
 19 20  1  0
 20 21  2  0
 21 22  1  0
 22 23  2  0
 23  2  1  0
 15  6  1  0
 23 18  1  0
 13  8  1  0
  1 24  1  0
  1 25  1  0
  4 26  1  0
  4 27  1  0
  7 28  1  0
  9 29  1  0
 10 30  1  0
 11 31  1  0
 12 32  1  0
 19 33  1  0
 20 34  1  0
 21 35  1  0
 22 36  1  0
M  END
>  <UniqueID>  (2) 
2

>  <SMILES>  (2) 
Nn1c(COc2cc3ccccc3oc2=O)nc2ccccc21

>  <Energy>  (2) 
82.4502805574097

>  <Genealogy>  (2) 
Nn1c(COc2cc3ccccc3oc2=O)nc2ccccc21 (3D coordinates assigned)
Nn1c(COc2cc3ccccc3oc2=O)nc2ccccc21 (optimized conformer: 82.4502805574097 kcal/mol)

>  <smiles>  (2) 
Nn1c(COc2cc3ccccc3oc2=O)nc2ccccc21

>  <score_type>  (2) 
oracle

>  <origin>  (2) 
adg

>  <m_score__min__energy>  (2) 
-8.1199999999999992

>  <m_primary>  (2) 
energy

$$$$
2:0
     RDKit          3D

 54 54  0  0  0  0  0  0  0  0999 V2000
   59.1815   36.0332   45.3313 H   0  0  0  0  0  0  0  0  0  0  0  0
   58.9850   34.9720   45.5440 C   0  0  0  0  0  0  0  0  0  0  0  0
   59.8520   34.3680   46.4320 C   0  0  0  0  0  0  0  0  0  0  0  0
   60.6819   35.0057   46.7704 H   0  0  0  0  0  0  0  0  0  0  0  0
   59.8480   33.0730   46.9740 C   0  0  0  0  0  0  0  0  0  0  0  0
   60.8960   32.8250   47.9580 N   0  0  0  0  0  0  0  0  0  0  0  0
   61.0720   33.6870   48.5270 H   0  0  0  0  0  0  0  0  0  0  0  0
   60.6200   32.1020   48.6590 H   0  0  0  0  0  0  0  0  0  0  0  0
   62.1460   32.4340   47.2880 C   0  0  0  0  0  0  0  0  0  0  0  0
   61.9189   32.1199   46.2586 H   0  0  0  0  0  0  0  0  0  0  0  0
   62.6014   31.6072   47.8527 H   0  0  0  0  0  0  0  0  0  0  0  0
   63.1350   33.5970   47.2480 C   0  0  0  0  0  0  0  0  0  0  0  0
   63.3900   33.8969   48.2751 H   0  0  0  0  0  0  0  0  0  0  0  0
   64.0479   33.2841   46.7200 H   0  0  0  0  0  0  0  0  0  0  0  0
   62.6795   34.4477   46.7200 H   0  0  0  0  0  0  0  0  0  0  0  0
   58.9700   32.0050   46.6040 C   0  0  0  0  0  0  0  0  0  0  0  0
   59.1640   30.7100   47.3190 C   0  0  0  0  0  0  0  0  0  0  0  0
   58.8210   30.6400   48.5310 O   0  0  0  0  0  0  0  0  0  0  0  0
   59.7490   29.5580   46.6650 N   0  0  0  0  0  0  0  0  0  0  0  0
   59.9880   28.3290   47.4380 C   0  0  0  0  0  0  0  0  0  0  0  0
   60.5464   27.6149   46.8149 H   0  0  0  0  0  0  0  0  0  0  0  0
   60.5646   28.5877   48.3383 H   0  0  0  0  0  0  0  0  0  0  0  0
   58.6700   27.6900   47.8710 C   0  0  0  0  0  0  0  0  0  0  0  0
   58.6182   27.6649   48.9695 H   0  0  0  0  0  0  0  0  0  0  0  0
   57.8295   28.2806   47.4777 H   0  0  0  0  0  0  0  0  0  0  0  0
   58.6131   26.6643   47.4777 H   0  0  0  0  0  0  0  0  0  0  0  0
   60.0490   29.5680   45.2230 C   0  0  0  0  0  0  0  0  0  0  0  0
   59.1378   29.3081   44.6642 H   0  0  0  0  0  0  0  0  0  0  0  0
   60.3982   30.5733   44.9446 H   0  0  0  0  0  0  0  0  0  0  0  0
   61.1440   28.5630   44.8860 C   0  0  0  0  0  0  0  0  0  0  0  0
   61.5764   28.1661   45.8163 H   0  0  0  0  0  0  0  0  0  0  0  0
   60.7157   27.7370   44.2992 H   0  0  0  0  0  0  0  0  0  0  0  0
   61.9303   29.0604   44.2992 H   0  0  0  0  0  0  0  0  0  0  0  0
   57.9560   31.9900   45.6010 C   0  0  0  0  0  0  0  0  0  0  0  0
   57.4060   30.8190   45.3670 N   0  0  0  0  0  0  0  0  0  0  0  0
   56.3460   30.4140   44.4370 C   0  0  0  0  0  0  0  0  0  0  0  0
   55.5162   29.9713   45.0075 H   0  0  0  0  0  0  0  0  0  0  0  0
   56.0032   31.3026   43.8866 H   0  0  0  0  0  0  0  0  0  0  0  0
   56.8670   29.3840   43.4280 C   0  0  0  0  0  0  0  0  0  0  0  0
   56.0113   28.8931   42.9414 H   0  0  0  0  0  0  0  0  0  0  0  0
   57.4873   29.9060   42.6846 H   0  0  0  0  0  0  0  0  0  0  0  0
   57.6970   28.3580   44.0950 N   0  0  0  0  0  0  0  0  0  0  0  0
   58.0820   27.2950   43.1500 C   0  0  0  0  0  0  0  0  0  0  0  0
   58.4043   26.4051   43.7106 H   0  0  0  0  0  0  0  0  0  0  0  0
   57.2201   27.0373   42.5170 H   0  0  0  0  0  0  0  0  0  0  0  0
   58.9090   27.6490   42.5170 H   0  0  0  0  0  0  0  0  0  0  0  0
   56.9790   27.7680   45.2360 C   0  0  0  0  0  0  0  0  0  0  0  0
   57.4214   28.1315   46.1752 H   0  0  0  0  0  0  0  0  0  0  0  0
   55.9192   28.0596   45.1928 H   0  0  0  0  0  0  0  0  0  0  0  0
   57.0597   26.6718   45.1928 H   0  0  0  0  0  0  0  0  0  0  0  0
   57.4780   33.1080   44.8920 C   0  0  0  0  0  0  0  0  0  0  0  0
   56.6226   32.9033   44.2314 H   0  0  0  0  0  0  0  0  0  0  0  0
   57.9090   34.4220   44.8910 C   0  0  0  0  0  0  0  0  0  0  0  0
   57.3104   35.1196   44.2868 H   0  0  0  0  0  0  0  0  0  0  0  0
  1  2  1  0
  2  3  2  0
  3  4  1  0
  3  5  1  0
  5  6  1  0
  6  7  1  0
  6  8  1  0
  6  9  1  0
  9 10  1  0
  9 11  1  0
  9 12  1  0
 12 13  1  0
 12 14  1  0
 12 15  1  0
  5 16  2  0
 16 17  1  0
 17 18  2  0
 17 19  1  0
 19 20  1  0
 20 21  1  0
 20 22  1  0
 20 23  1  0
 23 24  1  0
 23 25  1  0
 23 26  1  0
 19 27  1  0
 27 28  1  0
 27 29  1  0
 27 30  1  0
 30 31  1  0
 30 32  1  0
 30 33  1  0
 16 34  1  0
 34 35  2  0
 35 36  1  0
 36 37  1  0
 36 38  1  0
 36 39  1  0
 39 40  1  0
 39 41  1  0
 39 42  1  0
 42 43  1  0
 43 44  1  0
 43 45  1  0
 43 46  1  0
 42 47  1  0
 47 48  1  0
 47 49  1  0
 47 50  1  0
 34 51  1  0
 51 52  1  0
 51 53  2  0
 53 54  1  0
 53  2  1  0
M  CHG  1   6   1
M  END
>  <UniqueID>  (3) 
3

>  <SMILES>  (3) 
CC[NH2+]c1cccc/c(=N\CCN(C)C)c1C(=O)N(CC)CC

>  <Energy>  (3) 
81.77154106283831

>  <Genealogy>  (3) 
CC[NH2+]c1ccccc(=NCCN(C)C)c1C(=O)N(CC)CC (protonated)
CC[NH2+]c1cccc/c(=N\CCN(C)C)c1C(=O)N(CC)CC (cis-trans isomerization)
CC[NH2+]c1cccc/c(=N\CCN(C)C)c1C(=O)N(CC)CC (3D coordinates assigned)
CC[NH2+]c1cccc/c(=N\CCN(C)C)c1C(=O)N(CC)CC (optimized conformer: 81.77154106283831 kcal/mol)

>  <smiles>  (3) 
CCNc1ccccc(=NCCN(C)C)c1C(=O)N(CC)CC

>  <score_type>  (3) 
oracle

>  <origin>  (3) 
adg

>  <m_score__min__energy>  (3) 
-4.6100000000000003

>  <m_primary>  (3) 
energy

$$$$
3:0
     RDKit          3D

 48 51  0  0  0  0  0  0  0  0999 V2000
   57.7560   21.7270   43.8370 C   0  0  0  0  0  0  0  0  0  0  0  0
   58.1760   22.9510   44.6500 C   0  0  0  0  0  0  0  0  0  0  0  0
   57.2820   24.0970   44.3840 N   0  0  0  0  0  0  0  0  0  0  0  0
   56.2850   23.7320   43.3630 C   0  0  0  0  0  0  0  0  0  0  0  0
   56.6210   24.6000   45.6140 C   0  0  0  0  0  0  0  0  0  0  0  0
   56.6980   26.1310   45.6640 C   0  0  0  0  0  0  0  0  0  0  0  0
   57.4190   26.6720   44.5000 N   0  0  0  0  0  0  0  0  0  0  0  0
   57.8550   28.0280   44.7620 C   0  0  0  0  0  0  0  0  0  0  0  0
   57.4340   29.0450   43.8950 C   0  0  0  0  0  0  0  0  0  0  0  0
   57.7900   30.3770   44.1010 C   0  0  0  0  0  0  0  0  0  0  0  0
   57.4110   31.5700   42.6390 Br  0  0  0  0  0  0  0  0  0  0  0  0
   58.5370   30.7420   45.2470 C   0  0  0  0  0  0  0  0  0  0  0  0
   59.1380   29.7090   46.0150 C   0  0  0  0  0  0  0  0  0  0  0  0
   60.1400   30.0170   46.9680 C   0  0  0  0  0  0  0  0  0  0  0  0
   60.7170   28.9950   47.7340 C   0  0  0  0  0  0  0  0  0  0  0  0
   60.3220   27.6740   47.5570 C   0  0  0  0  0  0  0  0  0  0  0  0
   59.3680   27.3470   46.5970 C   0  0  0  0  0  0  0  0  0  0  0  0
   58.7750   28.3480   45.7970 C   0  0  0  0  0  0  0  0  0  0  0  0
   60.6080   31.4110   47.1220 C   0  0  0  0  0  0  0  0  0  0  0  0
   61.6390   31.6680   47.8030 O   0  0  0  0  0  0  0  0  0  0  0  0
   59.8290   32.4980   46.5080 C   0  0  0  0  0  0  0  0  0  0  0  0
   60.0790   33.8380   46.8530 C   0  0  0  0  0  0  0  0  0  0  0  0
   59.2150   34.8460   46.4270 C   0  0  0  0  0  0  0  0  0  0  0  0
   58.0730   34.5200   45.6970 C   0  0  0  0  0  0  0  0  0  0  0  0
   57.8250   33.1930   45.3400 C   0  0  0  0  0  0  0  0  0  0  0  0
   58.7480   32.1740   45.6590 C   0  0  0  0  0  0  0  0  0  0  0  0
   57.4762   20.9115   44.5201 H   0  0  0  0  0  0  0  0  0  0  0  0
   56.8952   21.9858   43.2029 H   0  0  0  0  0  0  0  0  0  0  0  0
   58.5943   21.4027   43.2029 H   0  0  0  0  0  0  0  0  0  0  0  0
   58.1338   22.7031   45.7209 H   0  0  0  0  0  0  0  0  0  0  0  0
   59.1992   23.2304   44.3586 H   0  0  0  0  0  0  0  0  0  0  0  0
   55.3618   23.3940   43.8564 H   0  0  0  0  0  0  0  0  0  0  0  0
   56.0656   24.6081   42.7351 H   0  0  0  0  0  0  0  0  0  0  0  0
   56.6831   22.9213   42.7351 H   0  0  0  0  0  0  0  0  0  0  0  0
   55.5661   24.2884   45.6137 H   0  0  0  0  0  0  0  0  0  0  0  0
   57.1333   24.1844   46.4942 H   0  0  0  0  0  0  0  0  0  0  0  0
   55.6771   26.5403   45.6742 H   0  0  0  0  0  0  0  0  0  0  0  0
   57.2443   26.4201   46.5740 H   0  0  0  0  0  0  0  0  0  0  0  0
   58.2560   26.0720   44.3090 H   0  0  0  0  0  0  0  0  0  0  0  0
   56.8320   26.6310   43.6360 H   0  0  0  0  0  0  0  0  0  0  0  0
   56.8065   28.7857   43.0296 H   0  0  0  0  0  0  0  0  0  0  0  0
   61.4874   29.2397   48.4801 H   0  0  0  0  0  0  0  0  0  0  0  0
   60.7656   26.8825   48.1789 H   0  0  0  0  0  0  0  0  0  0  0  0
   59.0728   26.2962   46.4602 H   0  0  0  0  0  0  0  0  0  0  0  0
   60.9596   34.0920   47.4613 H   0  0  0  0  0  0  0  0  0  0  0  0
   59.4342   35.8970   46.6666 H   0  0  0  0  0  0  0  0  0  0  0  0
   57.3661   35.3094   45.4017 H   0  0  0  0  0  0  0  0  0  0  0  0
   56.8989   32.9387   44.8036 H   0  0  0  0  0  0  0  0  0  0  0  0
  1  2  1  0
  2  3  1  0
  3  4  1  0
  3  5  1  0
  5  6  1  0
  6  7  1  0
  7  8  1  0
  8  9  2  0
  9 10  1  0
 10 11  1  0
 10 12  2  0
 12 13  1  0
 13 14  2  0
 14 15  1  0
 15 16  2  0
 16 17  1  0
 17 18  2  0
 14 19  1  0
 19 20  2  0
 19 21  1  0
 21 22  2  0
 22 23  1  0
 23 24  2  0
 24 25  1  0
 25 26  2  0
 18  8  1  0
 26 21  1  0
 26 12  1  0
 18 13  1  0
  1 27  1  0
  1 28  1  0
  1 29  1  0
  2 30  1  0
  2 31  1  0
  4 32  1  0
  4 33  1  0
  4 34  1  0
  5 35  1  0
  5 36  1  0
  6 37  1  0
  6 38  1  0
  7 39  1  0
  7 40  1  0
  9 41  1  0
 15 42  1  0
 16 43  1  0
 17 44  1  0
 22 45  1  0
 23 46  1  0
 24 47  1  0
 25 48  1  0
M  CHG  1   7   1
M  END
>  <UniqueID>  (4) 
4

>  <SMILES>  (4) 
CCN(C)CC[NH2+]c1cc(Br)c2c3c(cccc13)C(=O)c1ccccc1-2

>  <Energy>  (4) 
76.38338177123343

>  <Genealogy>  (4) 
CCN(C)CC[NH2+]c1cc(Br)c2c3c(cccc13)C(=O)c1ccccc1-2 (protonated)
CCN(C)CC[NH2+]c1cc(Br)c2c3c(cccc13)C(=O)c1ccccc1-2 (3D coordinates assigned)
CCN(C)CC[NH2+]c1cc(Br)c2c3c(cccc13)C(=O)c1ccccc1-2 (nonaromatic ring conformer: 76.38338177123343 kcal/mol)

>  <smiles>  (4) 
CCN(C)CCNc1cc(Br)c2c3c(cccc13)C(=O)c1ccccc1-2

>  <score_type>  (4) 
oracle

>  <origin>  (4) 
adg

>  <m_score__min__energy>  (4) 
-7.4000000000000004

>  <m_primary>  (4) 
energy

$$$$
4:0
     RDKit          3D

 23 23  0  0  0  0  0  0  0  0999 V2000
   56.2900   22.7700   43.3570 C   0  0  0  0  0  0  0  0  0  0  0  0
   57.5370   23.0030   44.1680 C   0  0  0  0  0  0  0  0  0  0  0  0
   58.5330   22.0160   44.1810 C   0  0  0  0  0  0  0  0  0  0  0  0
   59.7130   22.2110   44.8990 C   0  0  0  0  0  0  0  0  0  0  0  0
   59.9100   23.3890   45.6180 C   0  0  0  0  0  0  0  0  0  0  0  0
   58.9180   24.3810   45.6450 C   0  0  0  0  0  0  0  0  0  0  0  0
   59.1450   25.6410   46.4320 C   0  0  0  0  0  0  0  0  0  0  0  0
   57.7150   24.1840   44.9280 C   0  0  0  0  0  0  0  0  0  0  0  0
   56.7000   25.2000   44.9540 N   0  0  0  0  0  0  0  0  0  0  0  0
   55.7650   25.3190   46.0320 C   0  0  0  0  0  0  0  0  0  0  0  0
   54.7720   26.3400   45.9960 N   0  0  0  0  0  0  0  0  0  0  0  0
   55.8230   24.5390   47.0210 O   0  0  0  0  0  0  0  0  0  0  0  0
   55.4372   22.6107   44.0333 H   0  0  0  0  0  0  0  0  0  0  0  0
   56.0959   23.6474   42.7226 H   0  0  0  0  0  0  0  0  0  0  0  0
   56.4258   21.8817   42.7226 H   0  0  0  0  0  0  0  0  0  0  0  0
   58.3827   21.0812   43.6210 H   0  0  0  0  0  0  0  0  0  0  0  0
   60.4905   21.4328   44.8978 H   0  0  0  0  0  0  0  0  0  0  0  0
   60.8501   23.5420   46.1683 H   0  0  0  0  0  0  0  0  0  0  0  0
   59.1041   25.4139   47.5075 H   0  0  0  0  0  0  0  0  0  0  0  0
   60.1324   26.0564   46.1823 H   0  0  0  0  0  0  0  0  0  0  0  0
   58.3646   26.3749   46.1823 H   0  0  0  0  0  0  0  0  0  0  0  0
   56.7390   25.9650   44.2440 H   0  0  0  0  0  0  0  0  0  0  0  0
   54.5960   26.9460   46.8280 H   0  0  0  0  0  0  0  0  0  0  0  0
  1  2  1  0
  2  3  2  0
  3  4  1  0
  4  5  2  0
  5  6  1  0
  6  7  1  0
  6  8  2  0
  8  9  1  0
  9 10  1  0
 10 11  1  0
 10 12  2  0
  8  2  1  0
  1 13  1  0
  1 14  1  0
  1 15  1  0
  3 16  1  0
  4 17  1  0
  5 18  1  0
  7 19  1  0
  7 20  1  0
  7 21  1  0
  9 22  1  0
 11 23  1  0
M  CHG  1  11  -1
M  END
>  <UniqueID>  (5) 
5

>  <SMILES>  (5) 
Cc1cccc(C)c1NC([NH-])=O

>  <Energy>  (5) 
26.187331872400208

>  <Genealogy>  (5) 
Cc1cccc(C)c1NC([NH-])=O (protonated)
Cc1cccc(C)c1NC([NH-])=O (3D coordinates assigned)
Cc1cccc(C)c1NC([NH-])=O (optimized conformer: 26.187331872400208 kcal/mol)

>  <smiles>  (5) 
Cc1cccc(C)c1NC(N)=O

>  <score_type>  (5) 
oracle

>  <origin>  (5) 
adg

>  <m_score__min__energy>  (5) 
-7.0199999999999996

>  <m_primary>  (5) 
energy

$$$$
5:0
     RDKit          3D

 33 33  0  0  0  0  0  0  0  0999 V2000
   56.2750   29.7460   42.8030 C   0  0  0  0  0  0  0  0  0  0  0  0
   55.9220   30.4600   44.1180 C   0  0  0  0  0  0  0  0  0  0  0  0
   57.0080   30.4670   45.1290 N   0  0  0  0  0  0  0  0  0  0  0  0
   57.4210   29.1330   45.6190 C   0  0  0  0  0  0  0  0  0  0  0  0
   58.9190   28.9020   45.4280 C   0  0  0  0  0  0  0  0  0  0  0  0
   58.1040   31.4260   44.8530 C   0  0  0  0  0  0  0  0  0  0  0  0
   57.6780   32.6490   44.0260 C   0  0  0  0  0  0  0  0  0  0  0  0
   57.1810   34.0310   45.1160 S   0  0  0  0  0  0  0  0  0  0  0  0
   58.6430   33.9600   46.1560 C   0  0  0  0  0  0  0  0  0  0  0  0
   58.5250   33.6280   47.5110 C   0  0  0  0  0  0  0  0  0  0  0  0
   59.6630   33.5780   48.3230 C   0  0  0  0  0  0  0  0  0  0  0  0
   60.9220   33.8660   47.7830 C   0  0  0  0  0  0  0  0  0  0  0  0
   62.4760   33.7960   48.8910 Br  0  0  0  0  0  0  0  0  0  0  0  0
   61.0400   34.2090   46.4310 C   0  0  0  0  0  0  0  0  0  0  0  0
   59.9030   34.2600   45.6200 C   0  0  0  0  0  0  0  0  0  0  0  0
   56.7523   28.7805   43.0267 H   0  0  0  0  0  0  0  0  0  0  0  0
   55.3575   29.5753   42.2207 H   0  0  0  0  0  0  0  0  0  0  0  0
   56.9677   30.3714   42.2207 H   0  0  0  0  0  0  0  0  0  0  0  0
   55.6652   31.5036   43.8834 H   0  0  0  0  0  0  0  0  0  0  0  0
   55.0866   29.8990   44.5623 H   0  0  0  0  0  0  0  0  0  0  0  0
   57.1818   29.0564   46.6899 H   0  0  0  0  0  0  0  0  0  0  0  0
   56.8790   28.3710   45.0396 H   0  0  0  0  0  0  0  0  0  0  0  0
   59.4067   28.8268   46.4111 H   0  0  0  0  0  0  0  0  0  0  0  0
   59.0776   27.9688   44.8677 H   0  0  0  0  0  0  0  0  0  0  0  0
   59.3513   29.7441   44.8677 H   0  0  0  0  0  0  0  0  0  0  0  0
   58.5015   31.7817   45.8150 H   0  0  0  0  0  0  0  0  0  0  0  0
   58.8533   30.8860   44.2555 H   0  0  0  0  0  0  0  0  0  0  0  0
   58.5217   32.9709   43.3979 H   0  0  0  0  0  0  0  0  0  0  0  0
   56.8186   32.3682   43.3995 H   0  0  0  0  0  0  0  0  0  0  0  0
   57.5358   33.4061   47.9378 H   0  0  0  0  0  0  0  0  0  0  0  0
   59.5685   33.3123   49.3862 H   0  0  0  0  0  0  0  0  0  0  0  0
   62.0285   34.4386   46.0066 H   0  0  0  0  0  0  0  0  0  0  0  0
   59.9970   34.5360   44.5593 H   0  0  0  0  0  0  0  0  0  0  0  0
  1  2  1  0
  2  3  1  0
  3  4  1  0
  4  5  1  0
  3  6  1  0
  6  7  1  0
  7  8  1  0
  8  9  1  0
  9 10  2  0
 10 11  1  0
 11 12  2  0
 12 13  1  0
 12 14  1  0
 14 15  2  0
 15  9  1  0
  1 16  1  0
  1 17  1  0
  1 18  1  0
  2 19  1  0
  2 20  1  0
  4 21  1  0
  4 22  1  0
  5 23  1  0
  5 24  1  0
  5 25  1  0
  6 26  1  0
  6 27  1  0
  7 28  1  0
  7 29  1  0
 10 30  1  0
 11 31  1  0
 14 32  1  0
 15 33  1  0
M  END
>  <UniqueID>  (6) 
6

>  <SMILES>  (6) 
CCN(CC)CCSc1ccc(Br)cc1

>  <Energy>  (6) 
31.76345068125155

>  <Genealogy>  (6) 
CCN(CC)CCSc1ccc(Br)cc1 (3D coordinates assigned)
CCN(CC)CCSc1ccc(Br)cc1 (optimized conformer: 31.76345068125155 kcal/mol)

>  <smiles>  (6) 
CCN(CC)CCSc1ccc(Br)cc1

>  <score_type>  (6) 
oracle

>  <origin>  (6) 
adg

>  <m_score__min__energy>  (6) 
-6.1600000000000001

>  <m_primary>  (6) 
energy

$$$$
6:0
     RDKit          3D

 50 52  0  0  0  0  0  0  0  0999 V2000
   63.3780   33.8650   46.2890 C   0  0  0  0  0  0  0  0  0  0  0  0
   63.6750   33.7470   47.7930 C   0  0  0  0  0  0  0  0  0  0  0  0
   63.9640   32.3610   48.2580 N   0  0  0  0  0  0  0  0  0  0  0  0
   64.7050   32.3780   49.5500 C   0  0  0  0  0  0  0  0  0  0  0  0
   64.1870   33.4560   50.5130 C   0  0  0  0  0  0  0  0  0  0  0  0
   62.7520   31.5040   48.3560 C   0  0  0  0  0  0  0  0  0  0  0  0
   61.4400   32.3010   48.2320 C   0  0  0  0  0  0  0  0  0  0  0  0
   60.2860   31.4030   48.2600 N   0  0  0  0  0  0  0  0  0  0  0  0
   59.4250   31.2400   47.1220 C   0  0  0  0  0  0  0  0  0  0  0  0
   59.0200   32.3540   46.3680 C   0  0  0  0  0  0  0  0  0  0  0  0
   59.3400   33.6630   46.7850 C   0  0  0  0  0  0  0  0  0  0  0  0
   58.9060   34.7690   46.0590 C   0  0  0  0  0  0  0  0  0  0  0  0
   58.1280   34.5910   44.9210 C   0  0  0  0  0  0  0  0  0  0  0  0
   57.7910   33.3070   44.4930 C   0  0  0  0  0  0  0  0  0  0  0  0
   58.2460   32.1590   45.1920 C   0  0  0  0  0  0  0  0  0  0  0  0
   57.9380   30.8790   44.7690 N   0  0  0  0  0  0  0  0  0  0  0  0
   57.3920   30.6600   43.4110 C   0  0  0  0  0  0  0  0  0  0  0  0
   58.1570   29.8030   45.6090 C   0  0  0  0  0  0  0  0  0  0  0  0
   57.6140   28.5200   45.3390 C   0  0  0  0  0  0  0  0  0  0  0  0
   57.8900   27.4310   46.1670 C   0  0  0  0  0  0  0  0  0  0  0  0
   57.1550   25.7140   45.7660 Br  0  0  0  0  0  0  0  0  0  0  0  0
   58.7000   27.5930   47.2880 C   0  0  0  0  0  0  0  0  0  0  0  0
   59.2150   28.8480   47.6010 C   0  0  0  0  0  0  0  0  0  0  0  0
   58.9360   29.9660   46.7860 C   0  0  0  0  0  0  0  0  0  0  0  0
   62.3644   34.2677   46.1459 H   0  0  0  0  0  0  0  0  0  0  0  0
   64.1102   34.5405   45.8226 H   0  0  0  0  0  0  0  0  0  0  0  0
   63.4469   32.8712   45.8226 H   0  0  0  0  0  0  0  0  0  0  0  0
   64.5486   34.3753   48.0212 H   0  0  0  0  0  0  0  0  0  0  0  0
   62.7643   34.0702   48.3185 H   0  0  0  0  0  0  0  0  0  0  0  0
   64.5930   31.9410   47.5320 H   0  0  0  0  0  0  0  0  0  0  0  0
   64.5973   31.3946   50.0310 H   0  0  0  0  0  0  0  0  0  0  0  0
   65.7576   32.6075   49.3277 H   0  0  0  0  0  0  0  0  0  0  0  0
   64.3450   33.1272   51.5507 H   0  0  0  0  0  0  0  0  0  0  0  0
   64.7320   34.3955   50.3391 H   0  0  0  0  0  0  0  0  0  0  0  0
   63.1129   33.6175   50.3391 H   0  0  0  0  0  0  0  0  0  0  0  0
   62.7854   30.7561   47.5500 H   0  0  0  0  0  0  0  0  0  0  0  0
   62.7597   31.0356   49.3513 H   0  0  0  0  0  0  0  0  0  0  0  0
   61.3670   33.0093   49.0704 H   0  0  0  0  0  0  0  0  0  0  0  0
   61.4439   32.8426   47.2746 H   0  0  0  0  0  0  0  0  0  0  0  0
   60.1200   30.8130   49.1070 H   0  0  0  0  0  0  0  0  0  0  0  0
   59.9398   33.8118   47.6950 H   0  0  0  0  0  0  0  0  0  0  0  0
   59.1787   35.7833   46.3859 H   0  0  0  0  0  0  0  0  0  0  0  0
   57.7765   35.4666   44.3555 H   0  0  0  0  0  0  0  0  0  0  0  0
   57.1623   33.1823   43.5990 H   0  0  0  0  0  0  0  0  0  0  0  0
   56.3735   30.2515   43.4868 H   0  0  0  0  0  0  0  0  0  0  0  0
   57.3640   31.6165   42.8684 H   0  0  0  0  0  0  0  0  0  0  0  0
   58.0327   29.9493   42.8684 H   0  0  0  0  0  0  0  0  0  0  0  0
   56.9645   28.3815   44.4621 H   0  0  0  0  0  0  0  0  0  0  0  0
   58.9332   26.7285   47.9269 H   0  0  0  0  0  0  0  0  0  0  0  0
   59.8464   28.9696   48.4935 H   0  0  0  0  0  0  0  0  0  0  0  0
  1  2  1  0
  2  3  1  0
  3  4  1  0
  4  5  1  0
  3  6  1  0
  6  7  1  0
  7  8  1  0
  8  9  1  0
  9 10  2  0
 10 11  1  0
 11 12  2  0
 12 13  1  0
 13 14  2  0
 14 15  1  0
 15 16  2  0
 16 17  1  0
 16 18  1  0
 18 19  2  0
 19 20  1  0
 20 21  1  0
 20 22  2  0
 22 23  1  0
 23 24  2  0
 24  9  1  0
 15 10  1  0
 24 18  1  0
  1 25  1  0
  1 26  1  0
  1 27  1  0
  2 28  1  0
  2 29  1  0
  3 30  1  0
  4 31  1  0
  4 32  1  0
  5 33  1  0
  5 34  1  0
  5 35  1  0
  6 36  1  0
  6 37  1  0
  7 38  1  0
  7 39  1  0
  8 40  1  0
 11 41  1  0
 12 42  1  0
 13 43  1  0
 14 44  1  0
 17 45  1  0
 17 46  1  0
 17 47  1  0
 19 48  1  0
 22 49  1  0
 23 50  1  0
M  CHG  2   3   1  16   1
M  END
>  <UniqueID>  (7) 
7

>  <SMILES>  (7) 
CC[NH+](CC)CCNc1c2ccccc2[n+](C)c2cc(Br)ccc12

>  <Energy>  (7) 
78.55307624930033

>  <Genealogy>  (7) 
CC[NH+](CC)CCNc1c2ccccc2[n+](C)c2cc(Br)ccc12 (protonated)
CC[NH+](CC)CCNc1c2ccccc2[n+](C)c2cc(Br)ccc12 (3D coordinates assigned)
CC[NH+](CC)CCNc1c2ccccc2[n+](C)c2cc(Br)ccc12 (optimized conformer: 78.55307624930033 kcal/mol)

>  <smiles>  (7) 
CCN(CC)CCNc1c2ccccc2[n+](C)c2cc(Br)ccc12

>  <score_type>  (7) 
oracle

>  <origin>  (7) 
adg

>  <m_score__min__energy>  (7) 
-5.1399999999999997

>  <m_primary>  (7) 
energy

$$$$
7:0
     RDKit          3D

 34 33  0  0  0  0  0  0  0  0999 V2000
   58.1630   32.5550   47.4670 C   0  0  0  0  0  0  0  0  0  0  0  0
   57.5860   33.4680   46.3910 C   0  0  0  0  0  0  0  0  0  0  0  0
   58.4690   33.4510   45.2030 N   0  0  0  0  0  0  0  0  0  0  0  0
   59.2670   34.6940   45.0940 C   0  0  0  0  0  0  0  0  0  0  0  0
   59.6750   35.2380   46.4640 C   0  0  0  0  0  0  0  0  0  0  0  0
   57.7610   33.0470   43.9620 C   0  0  0  0  0  0  0  0  0  0  0  0
   57.6010   31.5290   43.7830 C   0  0  0  0  0  0  0  0  0  0  0  0
   56.7980   30.9930   44.8300 O   0  0  0  0  0  0  0  0  0  0  0  0
   56.3940   29.6550   44.8760 C   0  0  0  0  0  0  0  0  0  0  0  0
   55.1700   29.3520   44.8180 O   0  0  0  0  0  0  0  0  0  0  0  0
   57.4260   28.5740   45.0150 C   0  0  0  0  0  0  0  0  0  0  0  0
   58.6720   29.1200   45.7190 C   0  0  0  0  0  0  0  0  0  0  0  0
   57.7820   27.9960   43.6400 C   0  0  0  0  0  0  0  0  0  0  0  0
   57.9107   32.9542   48.4605 H   0  0  0  0  0  0  0  0  0  0  0  0
   57.7381   31.5462   47.3584 H   0  0  0  0  0  0  0  0  0  0  0  0
   59.2565   32.5059   47.3584 H   0  0  0  0  0  0  0  0  0  0  0  0
   56.5839   33.1133   46.1080 H   0  0  0  0  0  0  0  0  0  0  0  0
   57.5156   34.4943   46.7805 H   0  0  0  0  0  0  0  0  0  0  0  0
   60.1758   34.4821   44.5116 H   0  0  0  0  0  0  0  0  0  0  0  0
   58.6441   35.4540   44.5996 H   0  0  0  0  0  0  0  0  0  0  0  0
   59.2154   34.6252   47.2535 H   0  0  0  0  0  0  0  0  0  0  0  0
   60.7700   35.2011   46.5619 H   0  0  0  0  0  0  0  0  0  0  0  0
   59.3330   36.2789   46.5619 H   0  0  0  0  0  0  0  0  0  0  0  0
   56.7580   33.4985   43.9765 H   0  0  0  0  0  0  0  0  0  0  0  0
   58.3791   33.3969   43.1220 H   0  0  0  0  0  0  0  0  0  0  0  0
   57.1193   31.3259   42.8151 H   0  0  0  0  0  0  0  0  0  0  0  0
   58.5941   31.0569   43.8142 H   0  0  0  0  0  0  0  0  0  0  0  0
   57.0105   27.7619   45.6297 H   0  0  0  0  0  0  0  0  0  0  0  0
   58.5337   29.0594   46.8086 H   0  0  0  0  0  0  0  0  0  0  0  0
   59.5490   28.5237   45.4270 H   0  0  0  0  0  0  0  0  0  0  0  0
   58.8281   30.1690   45.4270 H   0  0  0  0  0  0  0  0  0  0  0  0
   58.3548   27.0660   43.7703 H   0  0  0  0  0  0  0  0  0  0  0  0
   56.8586   27.7827   43.0817 H   0  0  0  0  0  0  0  0  0  0  0  0
   58.3880   28.7247   43.0817 H   0  0  0  0  0  0  0  0  0  0  0  0
  1  2  1  0
  2  3  1  0
  3  4  1  0
  4  5  1  0
  3  6  1  0
  6  7  1  0
  7  8  1  0
  8  9  1  0
  9 10  2  0
  9 11  1  0
 11 12  1  0
 11 13  1  0
  1 14  1  0
  1 15  1  0
  1 16  1  0
  2 17  1  0
  2 18  1  0
  4 19  1  0
  4 20  1  0
  5 21  1  0
  5 22  1  0
  5 23  1  0
  6 24  1  0
  6 25  1  0
  7 26  1  0
  7 27  1  0
 11 28  1  0
 12 29  1  0
 12 30  1  0
 12 31  1  0
 13 32  1  0
 13 33  1  0
 13 34  1  0
M  END
>  <UniqueID>  (8) 
8

>  <SMILES>  (8) 
CCN(CC)CCOC(=O)C(C)C

>  <Energy>  (8) 
21.574801559165696

>  <Genealogy>  (8) 
CCN(CC)CCOC(=O)C(C)C (3D coordinates assigned)
CCN(CC)CCOC(=O)C(C)C (optimized conformer: 21.574801559165696 kcal/mol)

>  <smiles>  (8) 
CCN(CC)CCOC(=O)C(C)C

>  <score_type>  (8) 
oracle

>  <origin>  (8) 
adg

>  <m_score__min__energy>  (8) 
-5

>  <m_primary>  (8) 
energy

$$$$
8:0
     RDKit          3D

 55 58  0  0  0  0  0  0  0  0999 V2000
   60.7340   28.1840   49.8690 C   0  0  0  0  0  0  0  0  0  0  0  0
   60.3910   26.9610   49.0090 C   0  0  0  0  0  0  0  0  0  0  0  0
   59.5480   27.2610   47.8230 N   0  0  0  0  0  0  0  0  0  0  0  0
   58.6140   26.1650   47.4660 C   0  0  0  0  0  0  0  0  0  0  0  0
   57.4540   26.6540   46.5990 C   0  0  0  0  0  0  0  0  0  0  0  0
   60.3690   27.6820   46.6640 C   0  0  0  0  0  0  0  0  0  0  0  0
   60.2230   29.1810   46.3670 C   0  0  0  0  0  0  0  0  0  0  0  0
   59.2490   29.8210   47.2520 N   0  0  0  0  0  0  0  0  0  0  0  0
   58.9720   31.2280   47.1520 C   0  0  0  0  0  0  0  0  0  0  0  0
   59.3260   32.0620   48.2260 C   0  0  0  0  0  0  0  0  0  0  0  0
   59.6120   31.5240   49.5000 C   0  0  0  0  0  0  0  0  0  0  0  0
   59.9080   32.3590   50.5750 C   0  0  0  0  0  0  0  0  0  0  0  0
   59.9160   33.7380   50.4010 C   0  0  0  0  0  0  0  0  0  0  0  0
   59.6630   34.2890   49.1440 C   0  0  0  0  0  0  0  0  0  0  0  0
   59.4020   33.4590   48.0240 C   0  0  0  0  0  0  0  0  0  0  0  0
   59.2480   33.9750   46.7550 N   0  0  0  0  0  0  0  0  0  0  0  0
   59.7200   35.3470   46.4600 C   0  0  0  0  0  0  0  0  0  0  0  0
   58.6810   33.2010   45.7580 C   0  0  0  0  0  0  0  0  0  0  0  0
   58.3220   33.7730   44.5150 C   0  0  0  0  0  0  0  0  0  0  0  0
   57.8210   33.0010   43.4800 C   0  0  0  0  0  0  0  0  0  0  0  0
   57.5450   31.6510   43.6740 C   0  0  0  0  0  0  0  0  0  0  0  0
   56.9750   30.9130   42.6230 C   0  0  0  0  0  0  0  0  0  0  0  0
   56.5840   29.5920   42.8240 C   0  0  0  0  0  0  0  0  0  0  0  0
   56.7190   29.0140   44.0820 C   0  0  0  0  0  0  0  0  0  0  0  0
   57.2920   29.7350   45.1320 C   0  0  0  0  0  0  0  0  0  0  0  0
   57.7940   31.0460   44.9350 C   0  0  0  0  0  0  0  0  0  0  0  0
   58.4640   31.8030   45.9580 C   0  0  0  0  0  0  0  0  0  0  0  0
   60.6590   27.9165   50.9333 H   0  0  0  0  0  0  0  0  0  0  0  0
   61.7593   28.5137   49.6452 H   0  0  0  0  0  0  0  0  0  0  0  0
   60.0297   28.9988   49.6452 H   0  0  0  0  0  0  0  0  0  0  0  0
   61.3321   26.5128   48.6576 H   0  0  0  0  0  0  0  0  0  0  0  0
   59.8049   26.2832   49.6471 H   0  0  0  0  0  0  0  0  0  0  0  0
   59.1688   25.3930   46.9127 H   0  0  0  0  0  0  0  0  0  0  0  0
   58.1921   25.7636   48.3992 H   0  0  0  0  0  0  0  0  0  0  0  0
   56.6337   26.9998   47.2451 H   0  0  0  0  0  0  0  0  0  0  0  0
   57.7956   27.4847   45.9640 H   0  0  0  0  0  0  0  0  0  0  0  0
   57.0979   25.8294   45.9640 H   0  0  0  0  0  0  0  0  0  0  0  0
   61.4254   27.4644   46.8800 H   0  0  0  0  0  0  0  0  0  0  0  0
   60.0194   27.1262   45.7815 H   0  0  0  0  0  0  0  0  0  0  0  0
   61.2003   29.6672   46.5031 H   0  0  0  0  0  0  0  0  0  0  0  0
   59.8661   29.2900   45.3322 H   0  0  0  0  0  0  0  0  0  0  0  0
   59.0990   29.3690   48.1830 H   0  0  0  0  0  0  0  0  0  0  0  0
   59.6009   30.4337   49.6451 H   0  0  0  0  0  0  0  0  0  0  0  0
   60.1353   31.9273   51.5609 H   0  0  0  0  0  0  0  0  0  0  0  0
   60.1225   34.3973   51.2570 H   0  0  0  0  0  0  0  0  0  0  0  0
   59.6661   35.3820   49.0202 H   0  0  0  0  0  0  0  0  0  0  0  0
   59.9041   35.8822   47.4032 H   0  0  0  0  0  0  0  0  0  0  0  0
   60.6526   35.2969   45.8788 H   0  0  0  0  0  0  0  0  0  0  0  0
   58.9540   35.8813   45.8788 H   0  0  0  0  0  0  0  0  0  0  0  0
   58.4436   34.8562   44.3670 H   0  0  0  0  0  0  0  0  0  0  0  0
   57.6398   33.4589   42.4964 H   0  0  0  0  0  0  0  0  0  0  0  0
   56.8371   31.3810   41.6371 H   0  0  0  0  0  0  0  0  0  0  0  0
   56.1693   29.0068   41.9900 H   0  0  0  0  0  0  0  0  0  0  0  0
   56.3727   27.9837   44.2507 H   0  0  0  0  0  0  0  0  0  0  0  0
   57.3549   29.2771   46.1302 H   0  0  0  0  0  0  0  0  0  0  0  0
  1  2  1  0
  2  3  1  0
  3  4  1  0
  4  5  1  0
  3  6  1  0
  6  7  1  0
  7  8  1  0
  8  9  1  0
  9 10  2  0
 10 11  1  0
 11 12  2  0
 12 13  1  0
 13 14  2  0
 14 15  1  0
 15 16  2  0
 16 17  1  0
 16 18  1  0
 18 19  2  0
 19 20  1  0
 20 21  2  0
 21 22  1  0
 22 23  2  0
 23 24  1  0
 24 25  2  0
 25 26  1  0
 26 27  2  0
 27  9  1  0
 15 10  1  0
 27 18  1  0
 26 21  1  0
  1 28  1  0
  1 29  1  0
  1 30  1  0
  2 31  1  0
  2 32  1  0
  4 33  1  0
  4 34  1  0
  5 35  1  0
  5 36  1  0
  5 37  1  0
  6 38  1  0
  6 39  1  0
  7 40  1  0
  7 41  1  0
  8 42  1  0
 11 43  1  0
 12 44  1  0
 13 45  1  0
 14 46  1  0
 17 47  1  0
 17 48  1  0
 17 49  1  0
 19 50  1  0
 20 51  1  0
 22 52  1  0
 23 53  1  0
 24 54  1  0
 25 55  1  0
M  CHG  1  16   1
M  END
>  <UniqueID>  (9) 
9

>  <SMILES>  (9) 
CCN(CC)CCNc1c2ccccc2[n+](C)c2ccc3ccccc3c12

>  <Energy>  (9) 
97.19889132951826

>  <Genealogy>  (9) 
CCN(CC)CCNc1c2ccccc2[n+](C)c2ccc3ccccc3c12 (3D coordinates assigned)
CCN(CC)CCNc1c2ccccc2[n+](C)c2ccc3ccccc3c12 (optimized conformer: 97.19889132951826 kcal/mol)

>  <smiles>  (9) 
CCN(CC)CCNc1c2ccccc2[n+](C)c2ccc3ccccc3c12

>  <score_type>  (9) 
oracle

>  <origin>  (9) 
adg

>  <m_score__min__energy>  (9) 
-6.4100000000000001

>  <m_primary>  (9) 
energy

$$$$
9:0
     RDKit          3D

 55 59  0  0  0  0  0  0  0  0999 V2000
   61.5030   27.2010   51.5720 C   0  0  0  0  0  0  0  0  0  0  0  0
   60.6990   28.3880   51.5560 O   0  0  0  0  0  0  0  0  0  0  0  0
   60.2970   28.9100   50.3150 C   0  0  0  0  0  0  0  0  0  0  0  0
   61.1450   28.9270   49.2270 C   0  0  0  0  0  0  0  0  0  0  0  0
   60.7490   29.4410   48.0090 C   0  0  0  0  0  0  0  0  0  0  0  0
   59.4940   29.9470   47.8580 C   0  0  0  0  0  0  0  0  0  0  0  0
   58.9760   30.5140   46.6170 C   0  0  0  0  0  0  0  0  0  0  0  0
   59.0880   31.8910   46.4500 C   0  0  0  0  0  0  0  0  0  0  0  0
   59.7040   32.7070   47.4960 C   0  0  0  0  0  0  0  0  0  0  0  0
   61.0450   33.0090   47.3290 C   0  0  0  0  0  0  0  0  0  0  0  0
   61.7420   33.7790   48.2610 C   0  0  0  0  0  0  0  0  0  0  0  0
   61.0310   34.2250   49.3550 C   0  0  0  0  0  0  0  0  0  0  0  0
   59.6930   33.9280   49.5290 C   0  0  0  0  0  0  0  0  0  0  0  0
   59.0100   33.1630   48.5980 C   0  0  0  0  0  0  0  0  0  0  0  0
   58.6230   32.4780   45.3100 N   0  0  0  0  0  0  0  0  0  0  0  0
   58.0570   31.7200   44.3520 C   0  0  0  0  0  0  0  0  0  0  0  0
   57.6030   32.3250   43.2200 N   0  0  0  0  0  0  0  0  0  0  0  0
   57.0420   31.5560   42.2630 C   0  0  0  0  0  0  0  0  0  0  0  0
   56.9130   30.2310   42.3780 N   0  0  0  0  0  0  0  0  0  0  0  0
   57.3570   29.6240   43.4910 C   0  0  0  0  0  0  0  0  0  0  0  0
   57.2250   28.3510   43.5660 N   0  0  0  0  0  0  0  0  0  0  0  0
   57.9360   30.3500   44.4970 C   0  0  0  0  0  0  0  0  0  0  0  0
   58.3900   29.7120   45.6300 C   0  0  0  0  0  0  0  0  0  0  0  0
   58.2980   28.2780   45.8520 C   0  0  0  0  0  0  0  0  0  0  0  0
   59.3890   27.5020   45.5700 C   0  0  0  0  0  0  0  0  0  0  0  0
   59.3640   26.1220   45.7800 C   0  0  0  0  0  0  0  0  0  0  0  0
   58.2260   25.5270   46.2750 C   0  0  0  0  0  0  0  0  0  0  0  0
   58.1070   24.1690   46.5140 O   0  0  0  0  0  0  0  0  0  0  0  0
   58.1530   23.1800   45.5290 C   0  0  0  0  0  0  0  0  0  0  0  0
   57.1150   26.3060   46.5630 C   0  0  0  0  0  0  0  0  0  0  0  0
   57.1440   27.6690   46.3540 C   0  0  0  0  0  0  0  0  0  0  0  0
   58.6360   29.9330   48.9500 C   0  0  0  0  0  0  0  0  0  0  0  0
   59.0260   29.4270   50.1510 C   0  0  0  0  0  0  0  0  0  0  0  0
   61.7021   26.9070   52.6131 H   0  0  0  0  0  0  0  0  0  0  0  0
   60.9682   26.3890   51.0576 H   0  0  0  0  0  0  0  0  0  0  0  0
   62.4555   27.3963   51.0576 H   0  0  0  0  0  0  0  0  0  0  0  0
   62.1618   28.5209   49.3329 H   0  0  0  0  0  0  0  0  0  0  0  0
   61.4478   29.4419   47.1595 H   0  0  0  0  0  0  0  0  0  0  0  0
   61.5734   32.6330   46.4405 H   0  0  0  0  0  0  0  0  0  0  0  0
   62.8075   34.0187   48.1292 H   0  0  0  0  0  0  0  0  0  0  0  0
   61.5446   34.8357   50.1121 H   0  0  0  0  0  0  0  0  0  0  0  0
   59.1639   34.3035   50.4173 H   0  0  0  0  0  0  0  0  0  0  0  0
   57.9445   32.9257   48.7333 H   0  0  0  0  0  0  0  0  0  0  0  0
   57.6930   33.3670   43.1050 H   0  0  0  0  0  0  0  0  0  0  0  0
   56.6745   32.0420   41.3472 H   0  0  0  0  0  0  0  0  0  0  0  0
   56.6930   27.8310   42.8390 H   0  0  0  0  0  0  0  0  0  0  0  0
   60.2999   27.9727   45.1717 H   0  0  0  0  0  0  0  0  0  0  0  0
   60.2505   25.5125   45.5507 H   0  0  0  0  0  0  0  0  0  0  0  0
   58.1991   22.1897   46.0056 H   0  0  0  0  0  0  0  0  0  0  0  0
   57.2509   23.2439   44.9028 H   0  0  0  0  0  0  0  0  0  0  0  0
   59.0453   23.3274   44.9028 H   0  0  0  0  0  0  0  0  0  0  0  0
   56.2047   25.8335   46.9607 H   0  0  0  0  0  0  0  0  0  0  0  0
   56.2572   28.2783   46.5828 H   0  0  0  0  0  0  0  0  0  0  0  0
   57.6197   30.3396   48.8415 H   0  0  0  0  0  0  0  0  0  0  0  0
   58.3243   29.4294   50.9981 H   0  0  0  0  0  0  0  0  0  0  0  0
  1  2  1  0
  2  3  1  0
  3  4  2  0
  4  5  1  0
  5  6  2  0
  6  7  1  0
  7  8  1  0
  8  9  1  0
  9 10  2  0
 10 11  1  0
 11 12  2  0
 12 13  1  0
 13 14  2  0
  8 15  2  0
 15 16  1  0
 16 17  1  0
 17 18  1  0
 18 19  2  0
 19 20  1  0
 20 21  2  3
 20 22  1  0
 22 23  1  0
 23 24  1  0
 24 25  2  0
 25 26  1  0
 26 27  2  0
 27 28  1  0
 28 29  1  0
 27 30  1  0
 30 31  2  0
  6 32  1  0
 32 33  2  0
 33  3  1  0
 23  7  2  0
 31 24  1  0
 14  9  1  0
 22 16  2  0
  1 34  1  0
  1 35  1  0
  1 36  1  0
  4 37  1  0
  5 38  1  0
 10 39  1  0
 11 40  1  0
 12 41  1  0
 13 42  1  0
 14 43  1  0
 17 44  1  0
 18 45  1  0
 21 46  1  0
 25 47  1  0
 26 48  1  0
 29 49  1  0
 29 50  1  0
 29 51  1  0
 30 52  1  0
 31 53  1  0
 32 54  1  0
 33 55  1  0
M  END
>  <smiles>  (10) 
COc1ccc(-c2c(-c3ccccc3)nc3[nH]cnc(=N)c3c2-c2ccc(OC)cc2)cc1

>  <score_type>  (10) 
oracle

>  <origin>  (10) 
adg

>  <m_score__min__energy>  (10) 
-7.0999999999999996

>  <m_primary>  (10) 
energy

$$$$
10:0
     RDKit          3D

 39 40  0  0  0  0  0  0  0  0999 V2000
   59.4670   34.5350   44.8780 C   0  0  0  0  0  0  0  0  0  0  0  0
   57.8060   34.2950   45.5830 S   0  0  0  0  0  0  0  0  0  0  0  0
   57.9040   32.4990   45.5100 C   0  0  0  0  0  0  0  0  0  0  0  0
   57.0180   31.8290   44.6570 C   0  0  0  0  0  0  0  0  0  0  0  0
   57.0470   30.4300   44.5380 C   0  0  0  0  0  0  0  0  0  0  0  0
   56.1330   29.7460   43.6620 N   0  0  0  0  0  0  0  0  0  0  0  0
   56.4320   29.5350   42.4670 O   0  0  0  0  0  0  0  0  0  0  0  0
   54.9110   29.3140   44.1250 O   0  0  0  0  0  0  0  0  0  0  0  0
   57.9860   29.7080   45.2870 C   0  0  0  0  0  0  0  0  0  0  0  0
   58.8760   30.3660   46.1380 C   0  0  0  0  0  0  0  0  0  0  0  0
   58.8550   31.7690   46.2620 C   0  0  0  0  0  0  0  0  0  0  0  0
   59.7740   32.4530   47.1440 N   0  0  0  0  0  0  0  0  0  0  0  0
   59.3780   33.4350   48.1560 C   0  0  0  0  0  0  0  0  0  0  0  0
   60.6120   34.2000   48.6780 C   0  0  0  0  0  0  0  0  0  0  0  0
   61.9040   33.5240   48.4270 N   0  0  0  0  0  0  0  0  0  0  0  0
   62.5230   33.8670   47.1370 C   0  0  0  0  0  0  0  0  0  0  0  0
   63.7370   32.9470   46.8850 C   0  0  0  0  0  0  0  0  0  0  0  0
   64.1330   32.2320   48.0450 O   0  0  0  0  0  0  0  0  0  0  0  0
   64.2450   33.1150   49.1440 C   0  0  0  0  0  0  0  0  0  0  0  0
   62.8610   33.6630   49.5430 C   0  0  0  0  0  0  0  0  0  0  0  0
   60.1991   34.6408   45.6921 H   0  0  0  0  0  0  0  0  0  0  0  0
   59.7313   33.6657   44.2579 H   0  0  0  0  0  0  0  0  0  0  0  0
   59.4744   35.4435   44.2579 H   0  0  0  0  0  0  0  0  0  0  0  0
   56.2883   32.4074   44.0713 H   0  0  0  0  0  0  0  0  0  0  0  0
   58.0222   28.6118   45.2036 H   0  0  0  0  0  0  0  0  0  0  0  0
   59.6035   29.7808   46.7196 H   0  0  0  0  0  0  0  0  0  0  0  0
   60.7980   32.2700   47.0610 H   0  0  0  0  0  0  0  0  0  0  0  0
   58.6709   34.1498   47.7097 H   0  0  0  0  0  0  0  0  0  0  0  0
   58.9039   32.9079   48.9971 H   0  0  0  0  0  0  0  0  0  0  0  0
   60.6385   35.1846   48.1882 H   0  0  0  0  0  0  0  0  0  0  0  0
   60.5003   34.2660   49.7703 H   0  0  0  0  0  0  0  0  0  0  0  0
   61.7874   33.7318   46.3304 H   0  0  0  0  0  0  0  0  0  0  0  0
   62.8567   34.9149   47.1588 H   0  0  0  0  0  0  0  0  0  0  0  0
   63.4734   32.2240   46.0990 H   0  0  0  0  0  0  0  0  0  0  0  0
   64.5807   33.5855   46.5844 H   0  0  0  0  0  0  0  0  0  0  0  0
   64.6802   32.5756   49.9982 H   0  0  0  0  0  0  0  0  0  0  0  0
   64.8909   33.9580   48.8571 H   0  0  0  0  0  0  0  0  0  0  0  0
   62.4869   33.1015   50.4118 H   0  0  0  0  0  0  0  0  0  0  0  0
   62.9611   34.7296   49.7928 H   0  0  0  0  0  0  0  0  0  0  0  0
  1  2  1  0
  2  3  1  0
  3  4  2  0
  4  5  1  0
  5  6  1  0
  6  7  2  0
  6  8  1  0
  5  9  2  0
  9 10  1  0
 10 11  2  0
 11 12  1  0
 12 13  1  0
 13 14  1  0
 14 15  1  0
 15 16  1  0
 16 17  1  0
 17 18  1  0
 18 19  1  0
 19 20  1  0
 11  3  1  0
 20 15  1  0
  1 21  1  0
  1 22  1  0
  1 23  1  0
  4 24  1  0
  9 25  1  0
 10 26  1  0
 12 27  1  0
 13 28  1  0
 13 29  1  0
 14 30  1  0
 14 31  1  0
 16 32  1  0
 16 33  1  0
 17 34  1  0
 17 35  1  0
 19 36  1  0
 19 37  1  0
 20 38  1  0
 20 39  1  0
M  CHG  2   6   1   8  -1
M  END
>  <UniqueID>  (11) 
10

>  <SMILES>  (11) 
CSc1cc([N+](=O)[O-])ccc1NCCN1CCOCC1

>  <Energy>  (11) 
47.479525924854585

>  <Genealogy>  (11) 
CSc1cc([N+](=O)[O-])ccc1NCCN1CCOCC1 (3D coordinates assigned)
CSc1cc([N+](=O)[O-])ccc1NCCN1CCOCC1 (nonaromatic ring conformer: 47.479525924854585 kcal/mol)

>  <smiles>  (11) 
CSc1cc([N+](=O)[O-])ccc1NCCN1CCOCC1

>  <score_type>  (11) 
oracle

>  <origin>  (11) 
adg

>  <m_score__min__energy>  (11) 
-7.1299999999999999

>  <m_primary>  (11) 
energy

$$$$
11:0
     RDKit          3D

 35 37  0  0  0  0  0  0  0  0999 V2000
   57.5920   33.3610   46.2680 C   0  0  0  0  0  0  0  0  0  0  0  0
   57.4340   32.6510   44.9620 C   0  0  0  0  0  0  0  0  0  0  0  0
   58.1490   33.0750   43.8340 C   0  0  0  0  0  0  0  0  0  0  0  0
   57.9980   32.3850   42.6300 C   0  0  0  0  0  0  0  0  0  0  0  0
   57.1430   31.2830   42.5610 C   0  0  0  0  0  0  0  0  0  0  0  0
   56.4420   30.8840   43.7080 C   0  0  0  0  0  0  0  0  0  0  0  0
   55.5350   29.6890   43.6820 C   0  0  0  0  0  0  0  0  0  0  0  0
   55.5200   29.0430   44.9890 N   0  0  0  0  0  0  0  0  0  0  0  0
   56.5920   28.2350   45.4870 C   0  0  0  0  0  0  0  0  0  0  0  0
   56.4220   26.9960   45.6590 O   0  0  0  0  0  0  0  0  0  0  0  0
   57.8900   28.8590   45.7970 C   0  0  0  0  0  0  0  0  0  0  0  0
   59.0340   28.5840   45.0290 C   0  0  0  0  0  0  0  0  0  0  0  0
   60.2480   29.1940   45.3500 C   0  0  0  0  0  0  0  0  0  0  0  0
   60.3180   30.0760   46.4350 C   0  0  0  0  0  0  0  0  0  0  0  0
   61.5220   30.7080   46.7860 C   0  0  0  0  0  0  0  0  0  0  0  0
   61.5580   31.5840   47.8740 C   0  0  0  0  0  0  0  0  0  0  0  0
   60.3990   31.8340   48.6170 C   0  0  0  0  0  0  0  0  0  0  0  0
   59.1950   31.2090   48.2730 C   0  0  0  0  0  0  0  0  0  0  0  0
   59.1480   30.3300   47.1850 C   0  0  0  0  0  0  0  0  0  0  0  0
   57.9810   29.7210   46.8480 N   0  0  0  0  0  0  0  0  0  0  0  0
   56.6100   31.5710   44.8720 N   0  0  0  0  0  0  0  0  0  0  0  0
   57.4339   32.6507   47.0929 H   0  0  0  0  0  0  0  0  0  0  0  0
   58.6059   33.7823   46.3360 H   0  0  0  0  0  0  0  0  0  0  0  0
   56.8525   34.1725   46.3360 H   0  0  0  0  0  0  0  0  0  0  0  0
   58.8223   33.9426   43.8966 H   0  0  0  0  0  0  0  0  0  0  0  0
   58.5519   32.7089   41.7365 H   0  0  0  0  0  0  0  0  0  0  0  0
   57.0206   30.7333   41.6161 H   0  0  0  0  0  0  0  0  0  0  0  0
   54.5155   30.0115   43.4238 H   0  0  0  0  0  0  0  0  0  0  0  0
   55.9027   28.9741   42.9312 H   0  0  0  0  0  0  0  0  0  0  0  0
   58.9733   27.8903   44.1775 H   0  0  0  0  0  0  0  0  0  0  0  0
   61.1468   28.9823   44.7523 H   0  0  0  0  0  0  0  0  0  0  0  0
   62.4357   30.5136   46.2051 H   0  0  0  0  0  0  0  0  0  0  0  0
   62.5014   32.0791   48.1475 H   0  0  0  0  0  0  0  0  0  0  0  0
   60.4343   32.5234   49.4735 H   0  0  0  0  0  0  0  0  0  0  0  0
   58.2852   31.4087   48.8581 H   0  0  0  0  0  0  0  0  0  0  0  0
  1  2  1  0
  2  3  2  0
  3  4  1  0
  4  5  2  0
  5  6  1  0
  6  7  1  0
  7  8  1  0
  8  9  1  0
  9 10  2  0
  9 11  1  0
 11 12  2  0
 12 13  1  0
 13 14  2  0
 14 15  1  0
 15 16  2  0
 16 17  1  0
 17 18  2  0
 18 19  1  0
 19 20  2  0
  6 21  2  0
 21  2  1  0
 20 11  1  0
 19 14  1  0
  1 22  1  0
  1 23  1  0
  1 24  1  0
  3 25  1  0
  4 26  1  0
  5 27  1  0
  7 28  1  0
  7 29  1  0
 12 30  1  0
 13 31  1  0
 15 32  1  0
 16 33  1  0
 17 34  1  0
 18 35  1  0
M  CHG  1   8  -1
M  END
>  <UniqueID>  (12) 
11

>  <SMILES>  (12) 
Cc1cccc(C[N-]C(=O)c2ccc3ccccc3n2)n1

>  <Energy>  (12) 
37.13761168078621

>  <Genealogy>  (12) 
Cc1cccc(C[N-]C(=O)c2ccc3ccccc3n2)n1 (protonated)
Cc1cccc(C[N-]C(=O)c2ccc3ccccc3n2)n1 (3D coordinates assigned)
Cc1cccc(C[N-]C(=O)c2ccc3ccccc3n2)n1 (optimized conformer: 37.13761168078621 kcal/mol)

>  <smiles>  (12) 
Cc1cccc(CNC(=O)c2ccc3ccccc3n2)n1

>  <score_type>  (12) 
oracle

>  <origin>  (12) 
adg

>  <m_score__min__energy>  (12) 
-10.18

>  <m_primary>  (12) 
energy

$$$$
12:0
     RDKit          3D

 54 57  0  0  0  0  0  0  0  0999 V2000
   55.7400   30.8830   52.3550 C   0  0  0  0  0  0  0  0  0  0  0  0
   56.6280   30.3950   51.3570 O   0  0  0  0  0  0  0  0  0  0  0  0
   57.9450   30.8440   51.1800 C   0  0  0  0  0  0  0  0  0  0  0  0
   58.7820   30.1280   50.3160 C   0  0  0  0  0  0  0  0  0  0  0  0
   60.1020   30.5370   50.1050 C   0  0  0  0  0  0  0  0  0  0  0  0
   60.6030   31.6780   50.7510 C   0  0  0  0  0  0  0  0  0  0  0  0
   62.0010   32.1180   50.5270 C   0  0  0  0  0  0  0  0  0  0  0  0
   62.9900   31.7240   51.4410 C   0  0  0  0  0  0  0  0  0  0  0  0
   64.3360   32.0460   51.2190 C   0  0  0  0  0  0  0  0  0  0  0  0
   64.6770   32.7810   50.0720 C   0  0  0  0  0  0  0  0  0  0  0  0
   63.7050   33.1580   49.2000 N   0  0  0  0  0  0  0  0  0  0  0  0
   62.3890   32.8730   49.3920 C   0  0  0  0  0  0  0  0  0  0  0  0
   61.4150   33.3920   48.4060 C   0  0  0  0  0  0  0  0  0  0  0  0
   60.2820   34.1130   48.8190 C   0  0  0  0  0  0  0  0  0  0  0  0
   59.3750   34.6040   47.8770 C   0  0  0  0  0  0  0  0  0  0  0  0
   59.5900   34.4000   46.5090 C   0  0  0  0  0  0  0  0  0  0  0  0
   58.6490   34.9110   45.6030 O   0  0  0  0  0  0  0  0  0  0  0  0
   57.6660   34.1250   44.9370 C   0  0  0  0  0  0  0  0  0  0  0  0
   60.7360   33.6980   46.0910 C   0  0  0  0  0  0  0  0  0  0  0  0
   61.6430   33.2060   47.0350 C   0  0  0  0  0  0  0  0  0  0  0  0
   66.1130   33.1020   49.7510 C   0  0  0  0  0  0  0  0  0  0  0  0
   66.9960   33.2290   51.0210 C   0  0  0  0  0  0  0  0  0  0  0  0
   68.4730   33.3590   50.5950 C   0  0  0  0  0  0  0  0  0  0  0  0
   66.6070   34.4930   51.8230 C   0  0  0  0  0  0  0  0  0  0  0  0
   66.8330   31.9600   51.8970 C   0  0  0  0  0  0  0  0  0  0  0  0
   65.3900   31.6460   52.1790 C   0  0  0  0  0  0  0  0  0  0  0  0
   65.0940   30.9980   53.2190 O   0  0  0  0  0  0  0  0  0  0  0  0
   59.7710   32.3900   51.6280 C   0  0  0  0  0  0  0  0  0  0  0  0
   58.4500   31.9800   51.8400 C   0  0  0  0  0  0  0  0  0  0  0  0
   56.1489   30.6583   53.3512 H   0  0  0  0  0  0  0  0  0  0  0  0
   55.6247   31.9712   52.2429 H   0  0  0  0  0  0  0  0  0  0  0  0
   54.7596   30.3969   52.2429 H   0  0  0  0  0  0  0  0  0  0  0  0
   58.3979   29.2363   49.7989 H   0  0  0  0  0  0  0  0  0  0  0  0
   60.7516   29.9615   49.4291 H   0  0  0  0  0  0  0  0  0  0  0  0
   62.7064   31.1572   52.3401 H   0  0  0  0  0  0  0  0  0  0  0  0
   60.1082   34.2918   49.8904 H   0  0  0  0  0  0  0  0  0  0  0  0
   58.4845   35.1555   48.2130 H   0  0  0  0  0  0  0  0  0  0  0  0
   57.0340   33.6197   45.6822 H   0  0  0  0  0  0  0  0  0  0  0  0
   57.0414   34.7755   44.3072 H   0  0  0  0  0  0  0  0  0  0  0  0
   58.1632   33.3726   44.3072 H   0  0  0  0  0  0  0  0  0  0  0  0
   60.9188   33.5358   45.0185 H   0  0  0  0  0  0  0  0  0  0  0  0
   62.5424   32.6689   46.6993 H   0  0  0  0  0  0  0  0  0  0  0  0
   66.5200   32.2997   49.1180 H   0  0  0  0  0  0  0  0  0  0  0  0
   66.1294   34.0739   49.2361 H   0  0  0  0  0  0  0  0  0  0  0  0
   69.1093   33.4150   51.4905 H   0  0  0  0  0  0  0  0  0  0  0  0
   68.7602   32.4827   49.9954 H   0  0  0  0  0  0  0  0  0  0  0  0
   68.6027   34.2720   49.9954 H   0  0  0  0  0  0  0  0  0  0  0  0
   66.6730   34.2787   52.8999 H   0  0  0  0  0  0  0  0  0  0  0  0
   67.2941   35.3138   51.5697 H   0  0  0  0  0  0  0  0  0  0  0  0
   65.5773   34.7855   51.5697 H   0  0  0  0  0  0  0  0  0  0  0  0
   67.2851   31.1061   51.3712 H   0  0  0  0  0  0  0  0  0  0  0  0
   67.3320   32.1475   52.8592 H   0  0  0  0  0  0  0  0  0  0  0  0
   60.1594   33.2757   52.1520 H   0  0  0  0  0  0  0  0  0  0  0  0
   57.8035   32.5479   52.5253 H   0  0  0  0  0  0  0  0  0  0  0  0
  1  2  1  0
  2  3  1  0
  3  4  2  0
  4  5  1  0
  5  6  2  0
  6  7  1  0
  7  8  2  0
  8  9  1  0
  9 10  2  0
 10 11  1  0
 11 12  2  0
 12 13  1  0
 13 14  2  0
 14 15  1  0
 15 16  2  0
 16 17  1  0
 17 18  1  0
 16 19  1  0
 19 20  2  0
 10 21  1  0
 21 22  1  0
 22 23  1  0
 22 24  1  0
 22 25  1  0
 25 26  1  0
 26 27  2  0
  6 28  1  0
 28 29  2  0
 29  3  1  0
 12  7  1  0
 20 13  1  0
 26  9  1  0
  1 30  1  0
  1 31  1  0
  1 32  1  0
  4 33  1  0
  5 34  1  0
  8 35  1  0
 14 36  1  0
 15 37  1  0
 18 38  1  0
 18 39  1  0
 18 40  1  0
 19 41  1  0
 20 42  1  0
 21 43  1  0
 21 44  1  0
 23 45  1  0
 23 46  1  0
 23 47  1  0
 24 48  1  0
 24 49  1  0
 24 50  1  0
 25 51  1  0
 25 52  1  0
 28 53  1  0
 29 54  1  0
M  END
>  <UniqueID>  (13) 
12

>  <SMILES>  (13) 
COc1ccc(-c2cc3c(nc2-c2ccc(OC)cc2)CC(C)(C)CC3=O)cc1

>  <Energy>  (13) 
67.33742286412354

>  <Genealogy>  (13) 
COc1ccc(-c2cc3c(nc2-c2ccc(OC)cc2)CC(C)(C)CC3=O)cc1 (3D coordinates assigned)
COc1ccc(-c2cc3c(nc2-c2ccc(OC)cc2)CC(C)(C)CC3=O)cc1 (nonaromatic ring conformer: 67.33742286412354 kcal/mol)

>  <smiles>  (13) 
COc1ccc(-c2cc3c(nc2-c2ccc(OC)cc2)CC(C)(C)CC3=O)cc1

>  <score_type>  (13) 
oracle

>  <origin>  (13) 
adg

>  <m_score__min__energy>  (13) 
-7.0099999999999998

>  <m_primary>  (13) 
energy

$$$$
13:0
     RDKit          3D

 44 45  0  0  0  0  0  0  0  0999 V2000
   57.9150   31.3270   45.9610 C   0  0  0  0  0  0  0  0  0  0  0  0
   56.9910   31.2920   44.8190 N   0  0  0  0  0  0  0  0  0  0  0  0
   57.5750   31.9250   43.6270 C   0  0  0  0  0  0  0  0  0  0  0  0
   56.4160   29.9520   44.5570 C   0  0  0  0  0  0  0  0  0  0  0  0
   57.0130   29.1970   43.3430 C   0  0  0  0  0  0  0  0  0  0  0  0
   58.0400   28.2140   43.7360 N   0  0  0  0  0  0  0  0  0  0  0  0
   58.1270   26.9410   43.0130 C   0  0  0  0  0  0  0  0  0  0  0  0
   59.0420   28.4960   44.7400 C   0  0  0  0  0  0  0  0  0  0  0  0
   59.9250   29.3660   44.4990 O   0  0  0  0  0  0  0  0  0  0  0  0
   59.0730   27.7570   46.0570 C   0  0  0  0  0  0  0  0  0  0  0  0
   57.7020   27.6980   46.7400 C   0  0  0  0  0  0  0  0  0  0  0  0
   56.9340   26.5080   46.2640 C   0  0  0  0  0  0  0  0  0  0  0  0
   57.4960   25.4310   45.6840 N   0  0  0  0  0  0  0  0  0  0  0  0
   56.4120   24.6700   45.4140 C   0  0  0  0  0  0  0  0  0  0  0  0
   56.4900   23.3490   44.7350 C   0  0  0  0  0  0  0  0  0  0  0  0
   56.5070   23.3180   43.3260 C   0  0  0  0  0  0  0  0  0  0  0  0
   56.5690   22.1040   42.6380 C   0  0  0  0  0  0  0  0  0  0  0  0
   56.6190   20.9020   43.3410 C   0  0  0  0  0  0  0  0  0  0  0  0
   56.6110   20.9110   44.7360 C   0  0  0  0  0  0  0  0  0  0  0  0
   56.5490   22.1190   45.4430 C   0  0  0  0  0  0  0  0  0  0  0  0
   56.5880   22.0190   47.2000 Cl  0  0  0  0  0  0  0  0  0  0  0  0
   55.2670   25.2680   45.8000 N   0  0  0  0  0  0  0  0  0  0  0  0
   55.6310   26.4010   46.3190 O   0  0  0  0  0  0  0  0  0  0  0  0
   57.3401   31.3052   46.8986 H   0  0  0  0  0  0  0  0  0  0  0  0
   58.5823   30.4535   45.9197 H   0  0  0  0  0  0  0  0  0  0  0  0
   58.5143   32.2485   45.9197 H   0  0  0  0  0  0  0  0  0  0  0  0
   58.2906   32.7007   43.9372 H   0  0  0  0  0  0  0  0  0  0  0  0
   58.0957   31.1649   43.0261 H   0  0  0  0  0  0  0  0  0  0  0  0
   56.7755   32.3829   43.0261 H   0  0  0  0  0  0  0  0  0  0  0  0
   56.5753   29.3336   45.4527 H   0  0  0  0  0  0  0  0  0  0  0  0
   55.3556   30.1195   44.3174 H   0  0  0  0  0  0  0  0  0  0  0  0
   56.2006   28.6688   42.8223 H   0  0  0  0  0  0  0  0  0  0  0  0
   57.4955   29.9410   42.6922 H   0  0  0  0  0  0  0  0  0  0  0  0
   58.1836   26.1126   43.7345 H   0  0  0  0  0  0  0  0  0  0  0  0
   57.2353   26.8165   42.3811 H   0  0  0  0  0  0  0  0  0  0  0  0
   59.0274   26.9390   42.3811 H   0  0  0  0  0  0  0  0  0  0  0  0
   59.4188   26.7288   45.8745 H   0  0  0  0  0  0  0  0  0  0  0  0
   59.7524   28.3044   46.7269 H   0  0  0  0  0  0  0  0  0  0  0  0
   57.8421   27.6272   47.8287 H   0  0  0  0  0  0  0  0  0  0  0  0
   57.1392   28.6094   46.4899 H   0  0  0  0  0  0  0  0  0  0  0  0
   56.4710   24.2613   42.7613 H   0  0  0  0  0  0  0  0  0  0  0  0
   56.5784   22.0968   41.5381 H   0  0  0  0  0  0  0  0  0  0  0  0
   56.6647   19.9472   42.7967 H   0  0  0  0  0  0  0  0  0  0  0  0
   56.6538   19.9597   45.2866 H   0  0  0  0  0  0  0  0  0  0  0  0
  1  2  1  0
  2  3  1  0
  2  4  1  0
  4  5  1  0
  5  6  1  0
  6  7  1  0
  6  8  1  0
  8  9  2  0
  8 10  1  0
 10 11  1  0
 11 12  1  0
 12 13  2  0
 13 14  1  0
 14 15  1  0
 15 16  2  0
 16 17  1  0
 17 18  2  0
 18 19  1  0
 19 20  2  0
 20 21  1  0
 14 22  2  0
 22 23  1  0
 23 12  1  0
 20 15  1  0
  1 24  1  0
  1 25  1  0
  1 26  1  0
  3 27  1  0
  3 28  1  0
  3 29  1  0
  4 30  1  0
  4 31  1  0
  5 32  1  0
  5 33  1  0
  7 34  1  0
  7 35  1  0
  7 36  1  0
 10 37  1  0
 10 38  1  0
 11 39  1  0
 11 40  1  0
 16 41  1  0
 17 42  1  0
 18 43  1  0
 19 44  1  0
M  END
>  <UniqueID>  (14) 
13

>  <SMILES>  (14) 
CN(C)CCN(C)C(=O)CCc1nc(-c2ccccc2Cl)no1

>  <Energy>  (14) 
80.94287538332753

>  <Genealogy>  (14) 
CN(C)CCN(C)C(=O)CCc1nc(-c2ccccc2Cl)no1 (3D coordinates assigned)
CN(C)CCN(C)C(=O)CCc1nc(-c2ccccc2Cl)no1 (optimized conformer: 80.94287538332753 kcal/mol)

>  <smiles>  (14) 
CN(C)CCN(C)C(=O)CCc1nc(-c2ccccc2Cl)no1

>  <score_type>  (14) 
oracle

>  <origin>  (14) 
adg

>  <m_score__min__energy>  (14) 
-8.6799999999999997

>  <m_primary>  (14) 
energy

$$$$
14:0
     RDKit          3D

 60 62  0  0  0  0  0  0  0  0999 V2000
   59.8200   35.3160   46.1320 C   0  0  0  0  0  0  0  0  0  0  0  0
   59.5450   34.1390   46.9740 N   0  0  0  0  0  0  0  0  0  0  0  0
   58.2220   33.5690   46.6850 C   0  0  0  0  0  0  0  0  0  0  0  0
   59.7730   34.3860   48.4160 C   0  0  0  0  0  0  0  0  0  0  0  0
   61.0500   33.7210   49.0020 C   0  0  0  0  0  0  0  0  0  0  0  0
   61.8130   32.9540   47.9990 N   0  0  0  0  0  0  0  0  0  0  0  0
   61.3600   31.5840   47.9110 C   0  0  0  0  0  0  0  0  0  0  0  0
   61.3710   30.7600   49.0470 C   0  0  0  0  0  0  0  0  0  0  0  0
   60.9310   29.4390   48.9650 C   0  0  0  0  0  0  0  0  0  0  0  0
   60.4570   28.9150   47.7510 C   0  0  0  0  0  0  0  0  0  0  0  0
   60.4630   29.7250   46.6040 C   0  0  0  0  0  0  0  0  0  0  0  0
   60.8960   31.0600   46.6930 C   0  0  0  0  0  0  0  0  0  0  0  0
   59.9500   29.1900   45.3020 C   0  0  0  0  0  0  0  0  0  0  0  0
   58.4430   28.9780   45.4070 C   0  0  0  0  0  0  0  0  0  0  0  0
   58.0350   27.6730   46.0640 C   0  0  0  0  0  0  0  0  0  0  0  0
   56.8110   27.1240   45.6310 C   0  0  0  0  0  0  0  0  0  0  0  0
   56.3130   25.9310   46.1560 C   0  0  0  0  0  0  0  0  0  0  0  0
   55.0900   25.4490   45.6610 O   0  0  0  0  0  0  0  0  0  0  0  0
   54.6100   24.1110   45.7930 C   0  0  0  0  0  0  0  0  0  0  0  0
   55.1720   23.2260   44.6620 C   0  0  0  0  0  0  0  0  0  0  0  0
   56.6240   23.3830   44.4280 N   0  0  0  0  0  0  0  0  0  0  0  0
   56.9310   24.3880   43.3970 C   0  0  0  0  0  0  0  0  0  0  0  0
   57.3040   22.1090   44.1490 C   0  0  0  0  0  0  0  0  0  0  0  0
   57.0490   25.2640   47.1420 C   0  0  0  0  0  0  0  0  0  0  0  0
   58.2480   25.7980   47.6050 C   0  0  0  0  0  0  0  0  0  0  0  0
   58.7630   27.0090   47.0990 C   0  0  0  0  0  0  0  0  0  0  0  0
   60.0470   27.4960   47.6990 C   0  0  0  0  0  0  0  0  0  0  0  0
   60.8080   26.6560   48.2560 O   0  0  0  0  0  0  0  0  0  0  0  0
   60.0233   36.1862   46.7734 H   0  0  0  0  0  0  0  0  0  0  0  0
   60.6956   35.1160   45.4969 H   0  0  0  0  0  0  0  0  0  0  0  0
   58.9464   35.5247   45.4969 H   0  0  0  0  0  0  0  0  0  0  0  0
   57.7045   33.3460   47.6297 H   0  0  0  0  0  0  0  0  0  0  0  0
   57.6301   34.2920   46.1045 H   0  0  0  0  0  0  0  0  0  0  0  0
   58.3409   32.6423   46.1045 H   0  0  0  0  0  0  0  0  0  0  0  0
   59.8537   35.4725   48.5676 H   0  0  0  0  0  0  0  0  0  0  0  0
   58.9206   33.9338   48.9441 H   0  0  0  0  0  0  0  0  0  0  0  0
   61.7002   34.5093   49.4093 H   0  0  0  0  0  0  0  0  0  0  0  0
   60.7253   33.0138   49.7795 H   0  0  0  0  0  0  0  0  0  0  0  0
   62.8360   32.9930   48.2100 H   0  0  0  0  0  0  0  0  0  0  0  0
   61.6820   33.4060   47.0640 H   0  0  0  0  0  0  0  0  0  0  0  0
   61.7288   31.1584   50.0079 H   0  0  0  0  0  0  0  0  0  0  0  0
   60.9554   28.8007   49.8606 H   0  0  0  0  0  0  0  0  0  0  0  0
   60.8711   31.7008   45.7993 H   0  0  0  0  0  0  0  0  0  0  0  0
   60.1654   29.9092   44.4980 H   0  0  0  0  0  0  0  0  0  0  0  0
   60.4433   28.2334   45.0749 H   0  0  0  0  0  0  0  0  0  0  0  0
   58.0199   29.8056   45.9952 H   0  0  0  0  0  0  0  0  0  0  0  0
   58.0598   28.9424   44.3765 H   0  0  0  0  0  0  0  0  0  0  0  0
   56.2324   27.6507   44.8578 H   0  0  0  0  0  0  0  0  0  0  0  0
   54.9297   23.7051   46.7641 H   0  0  0  0  0  0  0  0  0  0  0  0
   53.5118   24.1173   45.7299 H   0  0  0  0  0  0  0  0  0  0  0  0
   54.9765   22.1744   44.9186 H   0  0  0  0  0  0  0  0  0  0  0  0
   54.6687   23.5420   43.7364 H   0  0  0  0  0  0  0  0  0  0  0  0
   57.2197   25.3329   43.8805 H   0  0  0  0  0  0  0  0  0  0  0  0
   57.7603   24.0286   42.7701 H   0  0  0  0  0  0  0  0  0  0  0  0
   56.0424   24.5534   42.7701 H   0  0  0  0  0  0  0  0  0  0  0  0
   57.5662   21.6178   45.0977 H   0  0  0  0  0  0  0  0  0  0  0  0
   56.6349   21.4553   43.5703 H   0  0  0  0  0  0  0  0  0  0  0  0
   58.2195   22.3011   43.5703 H   0  0  0  0  0  0  0  0  0  0  0  0
   56.6782   24.3134   47.5529 H   0  0  0  0  0  0  0  0  0  0  0  0
   58.8079   25.2617   48.3853 H   0  0  0  0  0  0  0  0  0  0  0  0
  1  2  1  0
  2  3  1  0
  2  4  1  0
  4  5  1  0
  5  6  1  0
  6  7  1  0
  7  8  2  0
  8  9  1  0
  9 10  2  0
 10 11  1  0
 11 12  2  0
 11 13  1  0
 13 14  1  0
 14 15  1  0
 15 16  2  0
 16 17  1  0
 17 18  1  0
 18 19  1  0
 19 20  1  0
 20 21  1  0
 21 22  1  0
 21 23  1  0
 17 24  2  0
 24 25  1  0
 25 26  2  0
 26 27  1  0
 27 28  2  0
 12  7  1  0
 26 15  1  0
 27 10  1  0
  1 29  1  0
  1 30  1  0
  1 31  1  0
  3 32  1  0
  3 33  1  0
  3 34  1  0
  4 35  1  0
  4 36  1  0
  5 37  1  0
  5 38  1  0
  6 39  1  0
  6 40  1  0
  8 41  1  0
  9 42  1  0
 12 43  1  0
 13 44  1  0
 13 45  1  0
 14 46  1  0
 14 47  1  0
 16 48  1  0
 19 49  1  0
 19 50  1  0
 20 51  1  0
 20 52  1  0
 22 53  1  0
 22 54  1  0
 22 55  1  0
 23 56  1  0
 23 57  1  0
 23 58  1  0
 24 59  1  0
 25 60  1  0
M  CHG  1   6   1
M  END
>  <UniqueID>  (15) 
14

>  <SMILES>  (15) 
CN(C)CC[NH2+]c1ccc2c(c1)CCc1cc(OCCN(C)C)ccc1C2=O

>  <Energy>  (15) 
85.47451282776196

>  <Genealogy>  (15) 
CN(C)CC[NH2+]c1ccc2c(c1)CCc1cc(OCCN(C)C)ccc1C2=O (protonated)
CN(C)CC[NH2+]c1ccc2c(c1)CCc1cc(OCCN(C)C)ccc1C2=O (3D coordinates assigned)
CN(C)CC[NH2+]c1ccc2c(c1)CCc1cc(OCCN(C)C)ccc1C2=O (nonaromatic ring conformer: 85.47451282776196 kcal/mol)

>  <smiles>  (15) 
CN(C)CCNc1ccc2c(c1)CCc1cc(OCCN(C)C)ccc1C2=O

>  <score_type>  (15) 
oracle

>  <origin>  (15) 
adg

>  <m_score__min__energy>  (15) 
-5.0700000000000003

>  <m_primary>  (15) 
energy

$$$$
15:0
     RDKit          3D

 67 70  0  0  0  0  0  0  0  0999 V2000
   56.2810   30.5310   44.3060 C   0  0  0  0  0  0  0  0  0  0  0  0
   57.3920   31.0330   45.2190 C   0  0  0  0  0  0  0  0  0  0  0  0
   58.0970   32.1650   44.5660 N   0  0  0  0  0  0  0  0  0  0  0  0
   58.1500   31.9530   43.1060 C   0  0  0  0  0  0  0  0  0  0  0  0
   57.5310   33.4900   44.9700 C   0  0  1  0  0  0  0  0  0  0  0  0
   57.0220   33.4390   46.4280 C   0  0  0  0  0  0  0  0  0  0  0  0
   58.1450   33.5250   47.4940 C   0  0  0  0  0  0  0  0  0  0  0  0
   59.5120   33.5390   46.9190 N   0  0  2  0  0  0  0  0  0  0  0  0
   60.6240   33.5560   47.9230 C   0  0  0  0  0  0  0  0  0  0  0  0
   61.3470   32.2020   48.2340 C   0  0  2  0  0  0  0  0  0  0  0  0
   61.6540   31.3790   46.9850 C   0  0  0  0  0  0  0  0  0  0  0  0
   60.4600   30.5760   46.6980 N   0  0  0  0  0  0  0  0  0  0  0  0
   60.8000   29.3570   45.9380 C   0  0  0  0  0  0  0  0  0  0  0  0
   59.5660   28.5260   45.7000 C   0  0  0  0  0  0  0  0  0  0  0  0
   58.9620   28.4910   44.4320 C   0  0  0  0  0  0  0  0  0  0  0  0
   57.8430   27.6850   44.2080 C   0  0  0  0  0  0  0  0  0  0  0  0
   57.3210   26.9040   45.2450 C   0  0  0  0  0  0  0  0  0  0  0  0
   57.9200   26.9290   46.5090 C   0  0  0  0  0  0  0  0  0  0  0  0
   57.4180   26.1710   47.5140 F   0  0  0  0  0  0  0  0  0  0  0  0
   59.0410   27.7340   46.7360 C   0  0  0  0  0  0  0  0  0  0  0  0
   59.8340   30.2860   48.0000 C   0  0  0  0  0  0  0  0  0  0  0  0
   60.4910   31.2050   49.0410 C   0  0  2  0  0  0  0  0  0  0  0  0
   59.5470   31.8080   50.0770 C   0  0  0  0  0  0  0  0  0  0  0  0
   59.9100   32.9120   50.8810 C   0  0  0  0  0  0  0  0  0  0  0  0
   59.0380   33.3960   51.8600 C   0  0  0  0  0  0  0  0  0  0  0  0
   57.7990   32.7850   52.0590 C   0  0  0  0  0  0  0  0  0  0  0  0
   57.4310   31.6850   51.2830 C   0  0  0  0  0  0  0  0  0  0  0  0
   58.2990   31.1960   50.3010 C   0  0  0  0  0  0  0  0  0  0  0  0
   59.6930   34.5860   45.8820 C   0  0  0  0  0  0  0  0  0  0  0  0
   58.5210   34.6770   44.8820 C   0  0  0  0  0  0  0  0  0  0  0  0
   55.4470   30.1542   44.9163 H   0  0  0  0  0  0  0  0  0  0  0  0
   55.9270   31.3566   43.6711 H   0  0  0  0  0  0  0  0  0  0  0  0
   56.6666   29.7197   43.6711 H   0  0  0  0  0  0  0  0  0  0  0  0
   56.9586   31.3717   46.1716 H   0  0  0  0  0  0  0  0  0  0  0  0
   58.1058   30.2180   45.4096 H   0  0  0  0  0  0  0  0  0  0  0  0
   58.4119   30.9053   42.8969 H   0  0  0  0  0  0  0  0  0  0  0  0
   57.1675   32.1800   42.6666 H   0  0  0  0  0  0  0  0  0  0  0  0
   58.9101   32.6157   42.6666 H   0  0  0  0  0  0  0  0  0  0  0  0
   56.7226   33.6682   44.2456 H   0  0  0  0  0  0  0  0  0  0  0  0
   56.4808   32.4923   46.5720 H   0  0  0  0  0  0  0  0  0  0  0  0
   56.3806   34.3211   46.5711 H   0  0  0  0  0  0  0  0  0  0  0  0
   58.0578   32.6550   48.1615 H   0  0  0  0  0  0  0  0  0  0  0  0
   58.0104   34.4777   48.0271 H   0  0  0  0  0  0  0  0  0  0  0  0
   59.6250   32.6240   46.4240 H   0  0  0  0  0  0  0  0  0  0  0  0
   61.3867   34.2586   47.5561 H   0  0  0  0  0  0  0  0  0  0  0  0
   60.1385   33.8349   48.8698 H   0  0  0  0  0  0  0  0  0  0  0  0
   62.2391   32.5530   48.7734 H   0  0  0  0  0  0  0  0  0  0  0  0
   61.8741   32.0453   46.1379 H   0  0  0  0  0  0  0  0  0  0  0  0
   62.5317   30.7354   47.1442 H   0  0  0  0  0  0  0  0  0  0  0  0
   61.2366   29.6433   44.9698 H   0  0  0  0  0  0  0  0  0  0  0  0
   61.5231   28.7647   46.5179 H   0  0  0  0  0  0  0  0  0  0  0  0
   59.3715   29.1003   43.6128 H   0  0  0  0  0  0  0  0  0  0  0  0
   57.3714   27.6644   43.2144 H   0  0  0  0  0  0  0  0  0  0  0  0
   56.4397   26.2704   45.0664 H   0  0  0  0  0  0  0  0  0  0  0  0
   59.5137   27.7474   47.7292 H   0  0  0  0  0  0  0  0  0  0  0  0
   58.7535   30.4862   47.9505 H   0  0  0  0  0  0  0  0  0  0  0  0
   59.9743   29.2293   48.2714 H   0  0  0  0  0  0  0  0  0  0  0  0
   61.1321   30.6262   49.7222 H   0  0  0  0  0  0  0  0  0  0  0  0
   60.8876   33.3947   50.7350 H   0  0  0  0  0  0  0  0  0  0  0  0
   59.3288   34.2604   52.4751 H   0  0  0  0  0  0  0  0  0  0  0  0
   57.1127   33.1704   52.8274 H   0  0  0  0  0  0  0  0  0  0  0  0
   56.4562   31.2014   51.4439 H   0  0  0  0  0  0  0  0  0  0  0  0
   58.0036   30.3248   49.6979 H   0  0  0  0  0  0  0  0  0  0  0  0
   60.6123   34.3635   45.3205 H   0  0  0  0  0  0  0  0  0  0  0  0
   59.7449   35.5520   46.4057 H   0  0  0  0  0  0  0  0  0  0  0  0
   58.9356   34.7080   43.8636 H   0  0  0  0  0  0  0  0  0  0  0  0
   57.9548   35.5858   45.1339 H   0  0  0  0  0  0  0  0  0  0  0  0
  1  2  1  0
  2  3  1  0
  3  4  1  0
  3  5  1  0
  5  6  1  0
  6  7  1  0
  7  8  1  0
  8  9  1  0
  9 10  1  0
 10 11  1  0
 11 12  1  0
 12 13  1  0
 13 14  1  0
 14 15  2  0
 15 16  1  0
 16 17  2  0
 17 18  1  0
 18 19  1  0
 18 20  2  0
 12 21  1  0
 21 22  1  0
 22 23  1  0
 23 24  2  0
 24 25  1  0
 25 26  2  0
 26 27  1  0
 27 28  2  0
  8 29  1  0
 29 30  1  0
 30  5  1  0
 22 10  1  0
 28 23  1  0
 20 14  1  0
  1 31  1  0
  1 32  1  0
  1 33  1  0
  2 34  1  0
  2 35  1  0
  4 36  1  0
  4 37  1  0
  4 38  1  0
  5 39  1  6
  6 40  1  0
  6 41  1  0
  7 42  1  0
  7 43  1  0
  8 44  1  6
  9 45  1  0
  9 46  1  0
 10 47  1  1
 11 48  1  0
 11 49  1  0
 13 50  1  0
 13 51  1  0
 15 52  1  0
 16 53  1  0
 17 54  1  0
 20 55  1  0
 21 56  1  0
 21 57  1  0
 22 58  1  1
 24 59  1  0
 25 60  1  0
 26 61  1  0
 27 62  1  0
 28 63  1  0
 29 64  1  0
 29 65  1  0
 30 66  1  0
 30 67  1  0
M  CHG  1   8   1
M  END
>  <UniqueID>  (16) 
15

>  <SMILES>  (16) 
CCN(C)C1CC[NH+](C[C@@H]2CN(Cc3cccc(F)c3)C[C@@H]2c2ccccc2)CC1

>  <Energy>  (16) 
103.69229470872064

>  <Genealogy>  (16) 
CCN(C)C1CC[NH+](CC2CN(Cc3cccc(F)c3)CC2c2ccccc2)CC1 (protonated)
CCN(C)C1CC[NH+](C[C@@H]2CN(Cc3cccc(F)c3)C[C@@H]2c2ccccc2)CC1 (chirality)
CCN(C)C1CC[NH+](C[C@@H]2CN(Cc3cccc(F)c3)C[C@@H]2c2ccccc2)CC1 (3D coordinates assigned)
CCN(C)C1CC[NH+](C[C@@H]2CN(Cc3cccc(F)c3)C[C@@H]2c2ccccc2)CC1 (nonaromatic ring conformer: 103.69229470872064 kcal/mol)

>  <smiles>  (16) 
CCN(C)C1CCN(CC2CN(Cc3cccc(F)c3)CC2c2ccccc2)CC1

>  <score_type>  (16) 
oracle

>  <origin>  (16) 
adg

>  <m_score__min__energy>  (16) 
-7.1600000000000001

>  <m_primary>  (16) 
energy

$$$$
16:0
     RDKit          3D

 48 51  0  0  0  0  0  0  0  0999 V2000
   57.4490   31.3500   43.7680 C   0  0  0  0  0  0  0  0  0  0  0  0
   58.3650   31.4240   44.9180 N   0  0  0  0  0  0  0  0  0  0  0  0
   58.8600   32.6350   45.3800 C   0  0  0  0  0  0  0  0  0  0  0  0
   58.7450   33.8240   44.6190 C   0  0  0  0  0  0  0  0  0  0  0  0
   59.2070   35.0430   45.1140 C   0  0  0  0  0  0  0  0  0  0  0  0
   59.8030   35.1120   46.3690 C   0  0  0  0  0  0  0  0  0  0  0  0
   59.9710   33.9580   47.1310 C   0  0  0  0  0  0  0  0  0  0  0  0
   59.5290   32.7090   46.6510 C   0  0  0  0  0  0  0  0  0  0  0  0
   59.7290   31.5290   47.4060 C   0  0  0  0  0  0  0  0  0  0  0  0
   60.3860   31.5420   48.6820 N   0  0  0  0  0  0  0  0  0  0  0  0
   61.7780   31.9730   48.8170 C   0  0  0  0  0  0  0  0  0  0  0  0
   62.5770   31.6800   47.5290 C   0  0  0  0  0  0  0  0  0  0  0  0
   63.7260   32.5970   47.3340 N   0  0  0  0  0  0  0  0  0  0  0  0
   63.3820   33.7290   46.4550 C   0  0  0  0  0  0  0  0  0  0  0  0
   64.1840   33.1060   48.6400 C   0  0  0  0  0  0  0  0  0  0  0  0
   59.3310   30.3250   46.8320 C   0  0  0  0  0  0  0  0  0  0  0  0
   59.5540   29.0830   47.3160 N   0  0  0  0  0  0  0  0  0  0  0  0
   59.0690   28.2470   46.3770 C   0  0  0  0  0  0  0  0  0  0  0  0
   59.1280   26.8540   46.4030 C   0  0  0  0  0  0  0  0  0  0  0  0
   58.6460   26.1510   45.2880 C   0  0  0  0  0  0  0  0  0  0  0  0
   58.1460   26.8450   44.1690 C   0  0  0  0  0  0  0  0  0  0  0  0
   58.1050   28.2510   44.1560 C   0  0  0  0  0  0  0  0  0  0  0  0
   58.5450   28.9350   45.2970 C   0  0  0  0  0  0  0  0  0  0  0  0
   58.6990   30.2870   45.6080 C   0  0  0  0  0  0  0  0  0  0  0  0
   56.4133   31.2663   44.1290 H   0  0  0  0  0  0  0  0  0  0  0  0
   57.5523   32.2594   43.1578 H   0  0  0  0  0  0  0  0  0  0  0  0
   57.6969   30.4690   43.1578 H   0  0  0  0  0  0  0  0  0  0  0  0
   58.2837   33.7852   43.6212 H   0  0  0  0  0  0  0  0  0  0  0  0
   59.0996   35.9552   44.5087 H   0  0  0  0  0  0  0  0  0  0  0  0
   60.1430   36.0818   46.7613 H   0  0  0  0  0  0  0  0  0  0  0  0
   60.4536   34.0224   48.1174 H   0  0  0  0  0  0  0  0  0  0  0  0
   59.9400   31.0350   49.4790 H   0  0  0  0  0  0  0  0  0  0  0  0
   61.8017   33.0545   49.0164 H   0  0  0  0  0  0  0  0  0  0  0  0
   62.2373   31.4170   49.6476 H   0  0  0  0  0  0  0  0  0  0  0  0
   62.9571   30.6490   47.5801 H   0  0  0  0  0  0  0  0  0  0  0  0
   61.8936   31.8264   46.6795 H   0  0  0  0  0  0  0  0  0  0  0  0
   64.5210   32.0680   46.9040 H   0  0  0  0  0  0  0  0  0  0  0  0
   63.1166   34.6024   47.0688 H   0  0  0  0  0  0  0  0  0  0  0  0
   64.2457   33.9759   45.8201 H   0  0  0  0  0  0  0  0  0  0  0  0
   62.5270   33.4536   45.8201 H   0  0  0  0  0  0  0  0  0  0  0  0
   63.6835   32.5498   49.4463 H   0  0  0  0  0  0  0  0  0  0  0  0
   65.2727   32.9732   48.7240 H   0  0  0  0  0  0  0  0  0  0  0  0
   63.9374   34.1747   48.7240 H   0  0  0  0  0  0  0  0  0  0  0  0
   60.0470   28.8170   48.1960 H   0  0  0  0  0  0  0  0  0  0  0  0
   59.5405   26.3214   47.2726 H   0  0  0  0  0  0  0  0  0  0  0  0
   58.6588   25.0511   45.2880 H   0  0  0  0  0  0  0  0  0  0  0  0
   57.7839   26.2817   43.2963 H   0  0  0  0  0  0  0  0  0  0  0  0
   57.7379   28.7980   43.2751 H   0  0  0  0  0  0  0  0  0  0  0  0
  1  2  1  0
  2  3  2  0
  3  4  1  0
  4  5  2  0
  5  6  1  0
  6  7  2  0
  7  8  1  0
  8  9  2  0
  9 10  1  0
 10 11  1  0
 11 12  1  0
 12 13  1  0
 13 14  1  0
 13 15  1  0
  9 16  1  0
 16 17  1  0
 17 18  1  0
 18 19  2  0
 19 20  1  0
 20 21  2  0
 21 22  1  0
 22 23  2  0
 23 24  1  0
 24  2  1  0
  8  3  1  0
 24 16  2  0
 23 18  1  0
  1 25  1  0
  1 26  1  0
  1 27  1  0
  4 28  1  0
  5 29  1  0
  6 30  1  0
  7 31  1  0
 10 32  1  0
 11 33  1  0
 11 34  1  0
 12 35  1  0
 12 36  1  0
 13 37  1  0
 14 38  1  0
 14 39  1  0
 14 40  1  0
 15 41  1  0
 15 42  1  0
 15 43  1  0
 17 44  1  0
 19 45  1  0
 20 46  1  0
 21 47  1  0
 22 48  1  0
M  CHG  2   2   1  13   1
M  END
>  <UniqueID>  (17) 
16

>  <SMILES>  (17) 
C[n+]1c2ccccc2c(NCC[NH+](C)C)c2[nH]c3ccccc3c21

>  <Energy>  (17) 
113.38225536794684

>  <Genealogy>  (17) 
C[n+]1c2ccccc2c(NCC[NH+](C)C)c2[nH]c3ccccc3c21 (protonated)
C[n+]1c2ccccc2c(NCC[NH+](C)C)c2[nH]c3ccccc3c21 (3D coordinates assigned)
C[n+]1c2ccccc2c(NCC[NH+](C)C)c2[nH]c3ccccc3c21 (optimized conformer: 113.38225536794684 kcal/mol)

>  <smiles>  (17) 
CN(C)CCNc1c2ccccc2[n+](C)c2c1[nH]c1ccccc12

>  <score_type>  (17) 
oracle

>  <origin>  (17) 
adg

>  <m_score__min__energy>  (17) 
-4.9400000000000004

>  <m_primary>  (17) 
energy

$$$$
17:0
     RDKit          3D

 30 31  0  0  0  0  0  0  0  0999 V2000
   61.2500   34.2510   49.1800 C   0  0  0  0  0  0  0  0  0  0  0  0
   59.9740   34.6100   48.6660 O   0  0  0  0  0  0  0  0  0  0  0  0
   59.3440   33.8500   47.6760 C   0  0  0  0  0  0  0  0  0  0  0  0
   59.2550   34.3350   46.3650 C   0  0  0  0  0  0  0  0  0  0  0  0
   59.8330   35.6650   45.9940 C   0  0  0  0  0  0  0  0  0  0  0  0
   58.6660   33.5740   45.4080 N   0  0  0  0  0  0  0  0  0  0  0  0
   58.1470   32.3490   45.6860 C   0  0  0  0  0  0  0  0  0  0  0  0
   57.5190   31.5780   44.5880 C   0  0  0  0  0  0  0  0  0  0  0  0
   57.6430   31.9560   43.2390 C   0  0  0  0  0  0  0  0  0  0  0  0
   57.0180   31.1940   42.2500 C   0  0  0  0  0  0  0  0  0  0  0  0
   56.2690   30.0710   42.6060 C   0  0  0  0  0  0  0  0  0  0  0  0
   56.1510   29.7310   43.9540 C   0  0  0  0  0  0  0  0  0  0  0  0
   56.7670   30.4840   44.9020 N   0  0  0  0  0  0  0  0  0  0  0  0
   58.1910   31.8750   46.9660 N   0  0  0  0  0  0  0  0  0  0  0  0
   58.7630   32.6020   47.9680 C   0  0  0  0  0  0  0  0  0  0  0  0
   58.7960   32.0430   49.3640 C   0  0  0  0  0  0  0  0  0  0  0  0
   61.2182   34.2600   50.2795 H   0  0  0  0  0  0  0  0  0  0  0  0
   61.5163   33.2431   48.8291 H   0  0  0  0  0  0  0  0  0  0  0  0
   62.0028   34.9722   48.8291 H   0  0  0  0  0  0  0  0  0  0  0  0
   60.0770   36.2265   46.9079 H   0  0  0  0  0  0  0  0  0  0  0  0
   60.7471   35.5149   45.4008 H   0  0  0  0  0  0  0  0  0  0  0  0
   59.0996   36.2309   45.4008 H   0  0  0  0  0  0  0  0  0  0  0  0
   58.2285   32.8460   42.9649 H   0  0  0  0  0  0  0  0  0  0  0  0
   57.1156   31.4781   41.1918 H   0  0  0  0  0  0  0  0  0  0  0  0
   55.7778   29.4616   41.8331 H   0  0  0  0  0  0  0  0  0  0  0  0
   55.5586   28.8524   44.2493 H   0  0  0  0  0  0  0  0  0  0  0  0
   57.7550   30.9580   47.2030 H   0  0  0  0  0  0  0  0  0  0  0  0
   58.7473   32.8676   50.0904 H   0  0  0  0  0  0  0  0  0  0  0  0
   57.9358   31.3734   49.5113 H   0  0  0  0  0  0  0  0  0  0  0  0
   59.7290   31.4792   49.5113 H   0  0  0  0  0  0  0  0  0  0  0  0
  1  2  1  0
  2  3  1  0
  3  4  2  0
  4  5  1  0
  4  6  1  0
  6  7  2  0
  7  8  1  0
  8  9  2  0
  9 10  1  0
 10 11  2  0
 11 12  1  0
 12 13  2  0
  7 14  1  0
 14 15  2  0
 15 16  1  0
 15  3  1  0
 13  8  1  0
  1 17  1  0
  1 18  1  0
  1 19  1  0
  5 20  1  0
  5 21  1  0
  5 22  1  0
  9 23  1  0
 10 24  1  0
 11 25  1  0
 12 26  1  0
 14 27  1  0
 16 28  1  0
 16 29  1  0
 16 30  1  0
M  CHG  1  14   1
M  END
>  <UniqueID>  (18) 
17

>  <SMILES>  (18) 
COc1c(C)nc(-c2ccccn2)[nH+]c1C

>  <Energy>  (18) 
38.86234967785335

>  <Genealogy>  (18) 
COc1c(C)nc(-c2ccccn2)[nH+]c1C (protonated)
COc1c(C)nc(-c2ccccn2)[nH+]c1C (3D coordinates assigned)
COc1c(C)nc(-c2ccccn2)[nH+]c1C (optimized conformer: 38.86234967785335 kcal/mol)

>  <smiles>  (18) 
COc1c(C)nc(-c2ccccn2)nc1C

>  <score_type>  (18) 
oracle

>  <origin>  (18) 
adg

>  <m_score__min__energy>  (18) 
-4.4699999999999998

>  <m_primary>  (18) 
energy

$$$$
18:0
     RDKit          3D

 33 35  0  0  0  0  0  0  0  0999 V2000
   56.7870   24.1660   47.4050 C   0  0  0  0  0  0  0  0  0  0  0  0
   55.9990   24.7770   46.3380 N   0  0  0  0  0  0  0  0  0  0  0  0
   54.7020   24.1910   46.0020 C   0  0  0  0  0  0  0  0  0  0  0  0
   56.6560   25.6070   45.3660 C   0  0  0  0  0  0  0  0  0  0  0  0
   56.8310   26.9770   45.6180 C   0  0  0  0  0  0  0  0  0  0  0  0
   57.4810   27.8020   44.6820 C   0  0  0  0  0  0  0  0  0  0  0  0
   57.6770   29.2500   44.9300 C   0  0  0  0  0  0  0  0  0  0  0  0
   57.1840   30.3050   44.1560 C   0  0  0  0  0  0  0  0  0  0  0  0
   57.6340   31.4380   44.7930 C   0  0  0  0  0  0  0  0  0  0  0  0
   57.4600   32.7860   44.4890 C   0  0  0  0  0  0  0  0  0  0  0  0
   58.0530   33.7320   45.3460 C   0  0  0  0  0  0  0  0  0  0  0  0
   58.7960   33.3110   46.4740 C   0  0  0  0  0  0  0  0  0  0  0  0
   59.5920   34.6090   47.6260 Br  0  0  0  0  0  0  0  0  0  0  0  0
   58.9500   31.9390   46.7510 C   0  0  0  0  0  0  0  0  0  0  0  0
   58.3510   31.0280   45.8830 C   0  0  0  0  0  0  0  0  0  0  0  0
   58.3700   29.7210   45.9550 O   0  0  0  0  0  0  0  0  0  0  0  0
   57.9520   27.2340   43.4880 C   0  0  0  0  0  0  0  0  0  0  0  0
   57.7750   25.8730   43.2310 C   0  0  0  0  0  0  0  0  0  0  0  0
   57.1300   25.0560   44.1620 C   0  0  0  0  0  0  0  0  0  0  0  0
   56.8720   23.2040   43.7450 Br  0  0  0  0  0  0  0  0  0  0  0  0
   56.3860   24.4769   48.3810 H   0  0  0  0  0  0  0  0  0  0  0  0
   56.7339   23.0707   47.3188 H   0  0  0  0  0  0  0  0  0  0  0  0
   57.8346   24.4902   47.3188 H   0  0  0  0  0  0  0  0  0  0  0  0
   54.1596   23.9460   46.9271 H   0  0  0  0  0  0  0  0  0  0  0  0
   54.1156   24.9116   45.4131 H   0  0  0  0  0  0  0  0  0  0  0  0
   54.8552   23.2746   45.4131 H   0  0  0  0  0  0  0  0  0  0  0  0
   56.4560   27.4099   46.5571 H   0  0  0  0  0  0  0  0  0  0  0  0
   56.5736   30.2429   43.2430 H   0  0  0  0  0  0  0  0  0  0  0  0
   56.8791   33.1005   43.6094 H   0  0  0  0  0  0  0  0  0  0  0  0
   57.9380   34.8059   45.1374 H   0  0  0  0  0  0  0  0  0  0  0  0
   59.5247   31.5973   47.6245 H   0  0  0  0  0  0  0  0  0  0  0  0
   58.4649   27.8664   42.7484 H   0  0  0  0  0  0  0  0  0  0  0  0
   58.1459   25.4417   42.2895 H   0  0  0  0  0  0  0  0  0  0  0  0
  1  2  1  0
  2  3  1  0
  2  4  1  0
  4  5  2  0
  5  6  1  0
  6  7  1  0
  7  8  2  0
  8  9  1  0
  9 10  2  0
 10 11  1  0
 11 12  2  0
 12 13  1  0
 12 14  1  0
 14 15  2  0
 15 16  1  0
  6 17  2  0
 17 18  1  0
 18 19  2  0
 19 20  1  0
 19  4  1  0
 16  7  1  0
 15  9  1  0
  1 21  1  0
  1 22  1  0
  1 23  1  0
  3 24  1  0
  3 25  1  0
  3 26  1  0
  5 27  1  0
  8 28  1  0
 10 29  1  0
 11 30  1  0
 14 31  1  0
 17 32  1  0
 18 33  1  0
M  END
>  <UniqueID>  (19) 
18

>  <SMILES>  (19) 
CN(C)c1cc(-c2cc3ccc(Br)cc3o2)ccc1Br

>  <Energy>  (19) 
74.23953584680115

>  <Genealogy>  (19) 
CN(C)c1cc(-c2cc3ccc(Br)cc3o2)ccc1Br (3D coordinates assigned)
CN(C)c1cc(-c2cc3ccc(Br)cc3o2)ccc1Br (optimized conformer: 74.23953584680115 kcal/mol)

>  <smiles>  (19) 
CN(C)c1cc(-c2cc3ccc(Br)cc3o2)ccc1Br

>  <score_type>  (19) 
oracle

>  <origin>  (19) 
adg

>  <m_score__min__energy>  (19) 
-7.1799999999999997

>  <m_primary>  (19) 
energy

$$$$
19:0
     RDKit          3D

 47 49  0  0  0  0  0  0  0  0999 V2000
   55.1190   29.7150   43.7420 C   0  0  0  0  0  0  0  0  0  0  0  0
   55.5570   29.1710   44.9810 O   0  0  0  0  0  0  0  0  0  0  0  0
   56.8110   28.5640   45.0990 C   0  0  0  0  0  0  0  0  0  0  0  0
   56.8990   27.2700   45.6320 C   0  0  0  0  0  0  0  0  0  0  0  0
   58.1440   26.6430   45.7610 C   0  0  0  0  0  0  0  0  0  0  0  0
   59.3070   27.3050   45.3590 C   0  0  0  0  0  0  0  0  0  0  0  0
   59.2290   28.5960   44.8250 C   0  0  0  0  0  0  0  0  0  0  0  0
   57.9840   29.2330   44.6860 C   0  0  0  0  0  0  0  0  0  0  0  0
   57.9310   30.6290   44.1090 C   0  0  0  0  0  0  0  0  0  0  0  0
   58.5840   31.5990   45.0100 N   0  0  0  0  0  0  0  0  0  0  0  0
   58.4060   31.2110   46.4260 C   0  0  0  0  0  0  0  0  0  0  0  0
   58.9710   32.2860   47.3850 C   0  0  0  0  0  0  0  0  0  0  0  0
   59.6670   33.3640   46.6480 N   0  0  0  0  0  0  0  0  0  0  0  0
   60.2010   34.3940   47.5700 C   0  0  0  0  0  0  0  0  0  0  0  0
   61.5690   34.0270   48.0960 C   0  0  0  0  0  0  0  0  0  0  0  0
   61.8790   34.1870   49.4560 C   0  0  0  0  0  0  0  0  0  0  0  0
   63.1400   33.8120   49.9370 C   0  0  0  0  0  0  0  0  0  0  0  0
   64.0940   33.2750   49.0700 C   0  0  0  0  0  0  0  0  0  0  0  0
   65.3130   32.9080   49.5430 F   0  0  0  0  0  0  0  0  0  0  0  0
   63.7960   33.1180   47.7130 C   0  0  0  0  0  0  0  0  0  0  0  0
   62.5380   33.4900   47.2240 C   0  0  0  0  0  0  0  0  0  0  0  0
   58.7500   33.9940   45.6720 C   0  0  0  0  0  0  0  0  0  0  0  0
   58.0280   32.9460   44.7930 C   0  0  0  0  0  0  0  0  0  0  0  0
   54.4395   30.5589   43.9319 H   0  0  0  0  0  0  0  0  0  0  0  0
   55.9889   30.0667   43.1680 H   0  0  0  0  0  0  0  0  0  0  0  0
   54.5898   28.9401   43.1680 H   0  0  0  0  0  0  0  0  0  0  0  0
   55.9860   26.7454   45.9501 H   0  0  0  0  0  0  0  0  0  0  0  0
   58.2068   25.6276   46.1795 H   0  0  0  0  0  0  0  0  0  0  0  0
   60.2844   26.8110   45.4624 H   0  0  0  0  0  0  0  0  0  0  0  0
   60.1470   29.1151   44.5123 H   0  0  0  0  0  0  0  0  0  0  0  0
   58.4470   30.6365   43.1376 H   0  0  0  0  0  0  0  0  0  0  0  0
   56.8767   30.9182   43.9876 H   0  0  0  0  0  0  0  0  0  0  0  0
   57.3327   31.0803   46.6284 H   0  0  0  0  0  0  0  0  0  0  0  0
   58.9545   30.2731   46.5980 H   0  0  0  0  0  0  0  0  0  0  0  0
   58.1408   32.7243   47.9583 H   0  0  0  0  0  0  0  0  0  0  0  0
   59.6984   31.8019   48.0532 H   0  0  0  0  0  0  0  0  0  0  0  0
   60.4710   32.9460   46.1190 H   0  0  0  0  0  0  0  0  0  0  0  0
   60.2723   35.3504   47.0313 H   0  0  0  0  0  0  0  0  0  0  0  0
   59.5163   34.4709   48.4274 H   0  0  0  0  0  0  0  0  0  0  0  0
   61.1310   34.6072   50.1444 H   0  0  0  0  0  0  0  0  0  0  0  0
   63.3799   33.9411   51.0027 H   0  0  0  0  0  0  0  0  0  0  0  0
   64.5505   32.7019   47.0291 H   0  0  0  0  0  0  0  0  0  0  0  0
   62.3050   33.3630   46.1565 H   0  0  0  0  0  0  0  0  0  0  0  0
   57.9957   34.5781   46.2196 H   0  0  0  0  0  0  0  0  0  0  0  0
   59.3488   34.6370   45.0102 H   0  0  0  0  0  0  0  0  0  0  0  0
   56.9581   32.9386   45.0483 H   0  0  0  0  0  0  0  0  0  0  0  0
   58.1712   33.2173   43.7367 H   0  0  0  0  0  0  0  0  0  0  0  0
  1  2  1  0
  2  3  1  0
  3  4  2  0
  4  5  1  0
  5  6  2  0
  6  7  1  0
  7  8  2  0
  8  9  1  0
  9 10  1  0
 10 11  1  0
 11 12  1  0
 12 13  1  0
 13 14  1  0
 14 15  1  0
 15 16  2  0
 16 17  1  0
 17 18  2  0
 18 19  1  0
 18 20  1  0
 20 21  2  0
 13 22  1  0
 22 23  1  0
  8  3  1  0
 23 10  1  0
 21 15  1  0
  1 24  1  0
  1 25  1  0
  1 26  1  0
  4 27  1  0
  5 28  1  0
  6 29  1  0
  7 30  1  0
  9 31  1  0
  9 32  1  0
 11 33  1  0
 11 34  1  0
 12 35  1  0
 12 36  1  0
 13 37  1  0
 14 38  1  0
 14 39  1  0
 16 40  1  0
 17 41  1  0
 20 42  1  0
 21 43  1  0
 22 44  1  0
 22 45  1  0
 23 46  1  0
 23 47  1  0
M  CHG  1  13   1
M  END
>  <UniqueID>  (20) 
19

>  <SMILES>  (20) 
COc1ccccc1CN1CC[NH+](Cc2ccc(F)cc2)CC1

>  <Energy>  (20) 
64.12496875488719

>  <Genealogy>  (20) 
COc1ccccc1CN1CC[NH+](Cc2ccc(F)cc2)CC1 (protonated)
COc1ccccc1CN1CC[NH+](Cc2ccc(F)cc2)CC1 (3D coordinates assigned)
COc1ccccc1CN1CC[NH+](Cc2ccc(F)cc2)CC1 (nonaromatic ring conformer: 64.12496875488719 kcal/mol)

>  <smiles>  (20) 
COc1ccccc1CN1CCN(Cc2ccc(F)cc2)CC1

>  <score_type>  (20) 
oracle

>  <origin>  (20) 
adg

>  <m_score__min__energy>  (20) 
-6.1799999999999997

>  <m_primary>  (20) 
energy

$$$$
20:0
     RDKit          3D

 77 78  0  0  0  0  0  0  0  0999 V2000
   57.2380   24.4180   44.0540 C   0  0  0  0  0  0  0  0  0  0  0  0
   58.0880   24.8390   45.2690 C   0  0  0  0  0  0  0  0  0  0  0  0
   58.2480   26.3210   45.4720 N   0  0  0  0  0  0  0  0  0  0  0  0
   57.1690   26.7550   46.4060 C   0  0  0  0  0  0  0  0  0  0  0  0
   59.5890   26.6660   46.0550 C   0  0  0  0  0  0  0  0  0  0  0  0
   59.5460   27.4440   47.3830 C   0  0  0  0  0  0  0  0  0  0  0  0
   58.0740   26.9980   44.1380 C   0  0  0  0  0  0  0  0  0  0  0  0
   58.1930   28.5510   44.0910 C   0  0  0  0  0  0  0  0  0  0  0  0
   56.8710   29.3290   43.9740 C   0  0  0  0  0  0  0  0  0  0  0  0
   56.6230   30.0650   45.1600 O   0  0  0  0  0  0  0  0  0  0  0  0
   57.7690   30.0770   45.9970 C   0  0  0  0  0  0  0  0  0  0  0  0
   58.5730   31.3700   45.7920 C   0  0  0  0  0  0  0  0  0  0  0  0
   57.9020   32.3250   44.7870 C   0  0  0  0  0  0  0  0  0  0  0  0
   57.5740   33.6980   45.4030 C   0  0  0  0  0  0  0  0  0  0  0  0
   58.6380   34.7700   45.1020 C   0  0  0  0  0  0  0  0  0  0  0  0
   59.9820   34.5430   45.8280 C   0  0  0  0  0  0  0  0  0  0  0  0
   59.9990   35.1630   47.1650 N   0  0  0  0  0  0  0  0  0  0  0  0
   59.2630   34.3280   48.1370 C   0  0  0  0  0  0  0  0  0  0  0  0
   59.8760   32.9120   48.3290 C   0  0  0  0  0  0  0  0  0  0  0  0
   59.1670   32.0310   49.3550 C   0  0  0  0  0  0  0  0  0  0  0  0
   58.4990   32.5500   50.4850 C   0  0  0  0  0  0  0  0  0  0  0  0
   57.9040   31.6880   51.4140 C   0  0  0  0  0  0  0  0  0  0  0  0
   57.9720   30.3040   51.2350 C   0  0  0  0  0  0  0  0  0  0  0  0
   57.3970   29.4700   52.1360 F   0  0  0  0  0  0  0  0  0  0  0  0
   58.6370   29.7780   50.1260 C   0  0  0  0  0  0  0  0  0  0  0  0
   59.2350   30.6330   49.1960 C   0  0  0  0  0  0  0  0  0  0  0  0
   61.3820   32.9520   48.5540 C   0  0  0  0  0  0  0  0  0  0  0  0
   62.2430   32.4140   47.5790 C   0  0  0  0  0  0  0  0  0  0  0  0
   63.6320   32.4640   47.7560 C   0  0  0  0  0  0  0  0  0  0  0  0
   64.1720   33.0600   48.9000 C   0  0  0  0  0  0  0  0  0  0  0  0
   65.5160   33.0980   49.0760 F   0  0  0  0  0  0  0  0  0  0  0  0
   63.3280   33.6100   49.8670 C   0  0  0  0  0  0  0  0  0  0  0  0
   61.9400   33.5640   49.6950 C   0  0  0  0  0  0  0  0  0  0  0  0
   56.3033   23.9550   44.4032 H   0  0  0  0  0  0  0  0  0  0  0  0
   57.0034   25.3041   43.4459 H   0  0  0  0  0  0  0  0  0  0  0  0
   57.8007   23.6944   43.4459 H   0  0  0  0  0  0  0  0  0  0  0  0
   57.6163   24.4234   46.1716 H   0  0  0  0  0  0  0  0  0  0  0  0
   59.0994   24.4523   45.0754 H   0  0  0  0  0  0  0  0  0  0  0  0
   57.5062   26.6194   47.4442 H   0  0  0  0  0  0  0  0  0  0  0  0
   56.9377   27.8161   46.2313 H   0  0  0  0  0  0  0  0  0  0  0  0
   56.2674   26.1496   46.2313 H   0  0  0  0  0  0  0  0  0  0  0  0
   60.1365   25.7277   46.2279 H   0  0  0  0  0  0  0  0  0  0  0  0
   60.0763   27.3314   45.3271 H   0  0  0  0  0  0  0  0  0  0  0  0
   59.5851   26.7361   48.2241 H   0  0  0  0  0  0  0  0  0  0  0  0
   60.4079   28.1254   47.4368 H   0  0  0  0  0  0  0  0  0  0  0  0
   58.6143   28.0263   47.4368 H   0  0  0  0  0  0  0  0  0  0  0  0
   58.8384   26.5896   43.4605 H   0  0  0  0  0  0  0  0  0  0  0  0
   57.0311   26.7912   43.8561 H   0  0  0  0  0  0  0  0  0  0  0  0
   58.6943   28.8775   45.0141 H   0  0  0  0  0  0  0  0  0  0  0  0
   58.7504   28.7764   43.1698 H   0  0  0  0  0  0  0  0  0  0  0  0
   56.9334   30.0233   43.1231 H   0  0  0  0  0  0  0  0  0  0  0  0
   56.0493   28.6142   43.8198 H   0  0  0  0  0  0  0  0  0  0  0  0
   57.4502   30.0120   47.0478 H   0  0  0  0  0  0  0  0  0  0  0  0
   58.4060   29.2180   45.7395 H   0  0  0  0  0  0  0  0  0  0  0  0
   58.6673   31.8846   46.7596 H   0  0  0  0  0  0  0  0  0  0  0  0
   59.5569   31.0925   45.3858 H   0  0  0  0  0  0  0  0  0  0  0  0
   58.5818   32.4744   43.9352 H   0  0  0  0  0  0  0  0  0  0  0  0
   56.9532   31.8654   44.4732 H   0  0  0  0  0  0  0  0  0  0  0  0
   56.6095   34.0403   44.9997 H   0  0  0  0  0  0  0  0  0  0  0  0
   57.5433   33.5666   46.4947 H   0  0  0  0  0  0  0  0  0  0  0  0
   58.8269   34.7751   44.0183 H   0  0  0  0  0  0  0  0  0  0  0  0
   58.2372   35.7272   45.4668 H   0  0  0  0  0  0  0  0  0  0  0  0
   60.1489   33.4611   45.9361 H   0  0  0  0  0  0  0  0  0  0  0  0
   60.7760   35.0100   45.2268 H   0  0  0  0  0  0  0  0  0  0  0  0
   60.9930   35.2540   47.4910 H   0  0  0  0  0  0  0  0  0  0  0  0
   59.5800   36.1150   47.1060 H   0  0  0  0  0  0  0  0  0  0  0  0
   59.2644   34.8426   49.1092 H   0  0  0  0  0  0  0  0  0  0  0  0
   58.2468   34.1890   47.7395 H   0  0  0  0  0  0  0  0  0  0  0  0
   59.6958   32.4136   47.3651 H   0  0  0  0  0  0  0  0  0  0  0  0
   58.4456   33.6382   50.6366 H   0  0  0  0  0  0  0  0  0  0  0  0
   57.3808   32.1021   52.2885 H   0  0  0  0  0  0  0  0  0  0  0  0
   58.6905   28.6885   49.9838 H   0  0  0  0  0  0  0  0  0  0  0  0
   59.7648   30.2094   48.3300 H   0  0  0  0  0  0  0  0  0  0  0  0
   61.8232   31.9519   46.6734 H   0  0  0  0  0  0  0  0  0  0  0  0
   64.2986   32.0338   46.9940 H   0  0  0  0  0  0  0  0  0  0  0  0
   63.7548   34.0801   50.7652 H   0  0  0  0  0  0  0  0  0  0  0  0
   61.2801   34.0081   50.4548 H   0  0  0  0  0  0  0  0  0  0  0  0
  1  2  1  0
  2  3  1  0
  3  4  1  0
  3  5  1  0
  5  6  1  0
  3  7  1  0
  7  8  1  0
  8  9  1  0
  9 10  1  0
 10 11  1  0
 11 12  1  0
 12 13  1  0
 13 14  1  0
 14 15  1  0
 15 16  1  0
 16 17  1  0
 17 18  1  0
 18 19  1  0
 19 20  1  0
 20 21  2  0
 21 22  1  0
 22 23  2  0
 23 24  1  0
 23 25  1  0
 25 26  2  0
 19 27  1  0
 27 28  2  0
 28 29  1  0
 29 30  2  0
 30 31  1  0
 30 32  1  0
 32 33  2  0
 26 20  1  0
 33 27  1  0
  1 34  1  0
  1 35  1  0
  1 36  1  0
  2 37  1  0
  2 38  1  0
  4 39  1  0
  4 40  1  0
  4 41  1  0
  5 42  1  0
  5 43  1  0
  6 44  1  0
  6 45  1  0
  6 46  1  0
  7 47  1  0
  7 48  1  0
  8 49  1  0
  8 50  1  0
  9 51  1  0
  9 52  1  0
 11 53  1  0
 11 54  1  0
 12 55  1  0
 12 56  1  0
 13 57  1  0
 13 58  1  0
 14 59  1  0
 14 60  1  0
 15 61  1  0
 15 62  1  0
 16 63  1  0
 16 64  1  0
 17 65  1  0
 17 66  1  0
 18 67  1  0
 18 68  1  0
 19 69  1  0
 21 70  1  0
 22 71  1  0
 25 72  1  0
 26 73  1  0
 28 74  1  0
 29 75  1  0
 32 76  1  0
 33 77  1  0
M  CHG  2   3   1  17   1
M  END
>  <UniqueID>  (21) 
20

>  <SMILES>  (21) 
CC[N+](C)(CC)CCCOCCCCCC[NH2+]CC(c1ccc(F)cc1)c1ccc(F)cc1

>  <Energy>  (21) 
92.90620438789564

>  <Genealogy>  (21) 
CC[N+](C)(CC)CCCOCCCCCC[NH2+]CC(c1ccc(F)cc1)c1ccc(F)cc1 (protonated)
CC[N+](C)(CC)CCCOCCCCCC[NH2+]CC(c1ccc(F)cc1)c1ccc(F)cc1 (3D coordinates assigned)
CC[N+](C)(CC)CCCOCCCCCC[NH2+]CC(c1ccc(F)cc1)c1ccc(F)cc1 (optimized conformer: 92.90620438789564 kcal/mol)

>  <smiles>  (21) 
CC[N+](C)(CC)CCCOCCCCCCNCC(c1ccc(F)cc1)c1ccc(F)cc1

>  <score_type>  (21) 
oracle

>  <origin>  (21) 
adg

>  <m_score__min__energy>  (21) 
-4.8200000000000003

>  <m_primary>  (21) 
energy

$$$$
21:0
     RDKit          3D

 63 66  0  0  0  0  0  0  0  0999 V2000
   59.9700   33.8340   48.6820 C   0  0  0  0  0  0  0  0  0  0  0  0
   61.4830   33.6900   48.9000 C   0  0  0  0  0  0  0  0  0  0  0  0
   61.9780   32.2940   48.8030 N   0  0  0  0  0  0  0  0  0  0  0  0
   63.3940   32.1790   48.3820 C   0  0  0  0  0  0  0  0  0  0  0  0
   63.6650   32.9460   47.0880 C   0  0  0  0  0  0  0  0  0  0  0  0
   61.7050   31.5140   50.0330 C   0  0  0  0  0  0  0  0  0  0  0  0
   60.8100   30.3040   49.7240 C   0  0  0  0  0  0  0  0  0  0  0  0
   61.1250   29.7280   48.4040 N   0  0  0  0  0  0  0  0  0  0  0  0
   60.0480   29.8830   47.4450 C   0  0  0  0  0  0  0  0  0  0  0  0
   59.7000   31.1200   46.9880 N   0  0  0  0  0  0  0  0  0  0  0  0
   58.6930   31.3050   46.0930 C   0  0  0  0  0  0  0  0  0  0  0  0
   58.3630   32.6280   45.6440 N   0  0  0  0  0  0  0  0  0  0  0  0
   57.0010   33.1220   45.5450 C   0  0  0  0  0  0  0  0  0  0  0  0
   57.1080   34.4860   44.8770 C   0  0  0  0  0  0  0  0  0  0  0  0
   58.5780   34.8910   44.9760 C   0  0  0  0  0  0  0  0  0  0  0  0
   59.3540   33.6040   45.2270 C   0  0  0  0  0  0  0  0  0  0  0  0
   58.0000   30.2330   45.6300 N   0  0  0  0  0  0  0  0  0  0  0  0
   58.2860   28.9770   46.0520 C   0  0  0  0  0  0  0  0  0  0  0  0
   57.5650   27.9280   45.5790 N   0  0  0  0  0  0  0  0  0  0  0  0
   57.7870   26.6430   45.9750 C   0  0  0  0  0  0  0  0  0  0  0  0
   56.9660   25.5770   45.4330 N   0  0  0  0  0  0  0  0  0  0  0  0
   55.8920   25.0220   46.2720 C   0  0  0  0  0  0  0  0  0  0  0  0
   54.8480   24.2910   45.4220 C   0  0  0  0  0  0  0  0  0  0  0  0
   55.4700   23.3780   44.5420 O   0  0  0  0  0  0  0  0  0  0  0  0
   56.2250   24.0940   43.5880 C   0  0  0  0  0  0  0  0  0  0  0  0
   57.4030   24.8140   44.2510 C   0  0  0  0  0  0  0  0  0  0  0  0
   58.8000   26.3940   46.9220 C   0  0  0  0  0  0  0  0  0  0  0  0
   59.5640   27.4510   47.4200 C   0  0  0  0  0  0  0  0  0  0  0  0
   59.3200   28.7630   46.9860 C   0  0  0  0  0  0  0  0  0  0  0  0
   59.4621   33.8823   49.6565 H   0  0  0  0  0  0  0  0  0  0  0  0
   59.7671   34.7555   48.1166 H   0  0  0  0  0  0  0  0  0  0  0  0
   59.5969   32.9673   48.1166 H   0  0  0  0  0  0  0  0  0  0  0  0
   62.0007   34.2939   48.1402 H   0  0  0  0  0  0  0  0  0  0  0  0
   61.6900   34.0299   49.9255 H   0  0  0  0  0  0  0  0  0  0  0  0
   64.0362   32.5847   49.1776 H   0  0  0  0  0  0  0  0  0  0  0  0
   63.6121   31.1160   48.2017 H   0  0  0  0  0  0  0  0  0  0  0  0
   64.0225   33.9579   47.3295 H   0  0  0  0  0  0  0  0  0  0  0  0
   64.4306   32.4169   46.5016 H   0  0  0  0  0  0  0  0  0  0  0  0
   62.7369   33.0153   46.5016 H   0  0  0  0  0  0  0  0  0  0  0  0
   62.6574   31.1599   50.4544 H   0  0  0  0  0  0  0  0  0  0  0  0
   61.1851   32.1623   50.7537 H   0  0  0  0  0  0  0  0  0  0  0  0
   60.9659   29.5364   50.4963 H   0  0  0  0  0  0  0  0  0  0  0  0
   59.7626   30.6401   49.7152 H   0  0  0  0  0  0  0  0  0  0  0  0
   61.3210   28.7070   48.5130 H   0  0  0  0  0  0  0  0  0  0  0  0
   61.9750   30.2110   48.0290 H   0  0  0  0  0  0  0  0  0  0  0  0
   56.3893   32.4420   44.9338 H   0  0  0  0  0  0  0  0  0  0  0  0
   56.5193   33.1886   46.5317 H   0  0  0  0  0  0  0  0  0  0  0  0
   56.8001   34.4203   43.8230 H   0  0  0  0  0  0  0  0  0  0  0  0
   56.4536   35.2245   45.3632 H   0  0  0  0  0  0  0  0  0  0  0  0
   58.9090   35.3597   44.0375 H   0  0  0  0  0  0  0  0  0  0  0  0
   58.7404   35.6222   45.7816 H   0  0  0  0  0  0  0  0  0  0  0  0
   59.8564   33.2724   44.3064 H   0  0  0  0  0  0  0  0  0  0  0  0
   60.1366   33.7413   45.9877 H   0  0  0  0  0  0  0  0  0  0  0  0
   56.3284   24.3140   46.9919 H   0  0  0  0  0  0  0  0  0  0  0  0
   55.3956   25.8515   46.7969 H   0  0  0  0  0  0  0  0  0  0  0  0
   54.1622   23.7431   46.0850 H   0  0  0  0  0  0  0  0  0  0  0  0
   54.2940   25.0327   44.8279 H   0  0  0  0  0  0  0  0  0  0  0  0
   56.6104   23.3923   42.8336 H   0  0  0  0  0  0  0  0  0  0  0  0
   55.5741   24.8455   43.1172 H   0  0  0  0  0  0  0  0  0  0  0  0
   58.1500   24.0686   44.5615 H   0  0  0  0  0  0  0  0  0  0  0  0
   57.8347   25.5171   43.5235 H   0  0  0  0  0  0  0  0  0  0  0  0
   58.9888   25.3673   47.2688 H   0  0  0  0  0  0  0  0  0  0  0  0
   60.3592   27.2549   48.1544 H   0  0  0  0  0  0  0  0  0  0  0  0
  1  2  1  0
  2  3  1  0
  3  4  1  0
  4  5  1  0
  3  6  1  0
  6  7  1  0
  7  8  1  0
  8  9  1  0
  9 10  2  0
 10 11  1  0
 11 12  1  0
 12 13  1  0
 13 14  1  0
 14 15  1  0
 15 16  1  0
 11 17  2  0
 17 18  1  0
 18 19  2  0
 19 20  1  0
 20 21  1  0
 21 22  1  0
 22 23  1  0
 23 24  1  0
 24 25  1  0
 25 26  1  0
 20 27  2  0
 27 28  1  0
 28 29  2  0
 29  9  1  0
 16 12  1  0
 29 18  1  0
 26 21  1  0
  1 30  1  0
  1 31  1  0
  1 32  1  0
  2 33  1  0
  2 34  1  0
  4 35  1  0
  4 36  1  0
  5 37  1  0
  5 38  1  0
  5 39  1  0
  6 40  1  0
  6 41  1  0
  7 42  1  0
  7 43  1  0
  8 44  1  0
  8 45  1  0
 13 46  1  0
 13 47  1  0
 14 48  1  0
 14 49  1  0
 15 50  1  0
 15 51  1  0
 16 52  1  0
 16 53  1  0
 22 54  1  0
 22 55  1  0
 23 56  1  0
 23 57  1  0
 25 58  1  0
 25 59  1  0
 26 60  1  0
 26 61  1  0
 27 62  1  0
 28 63  1  0
M  CHG  1   8   1
M  END
>  <UniqueID>  (22) 
21

>  <SMILES>  (22) 
CCN(CC)CC[NH2+]c1nc(N2CCCC2)nc2nc(N3CCOCC3)ccc12

>  <Energy>  (22) 
75.06871898443995

>  <Genealogy>  (22) 
CCN(CC)CC[NH2+]c1nc(N2CCCC2)nc2nc(N3CCOCC3)ccc12 (protonated)
CCN(CC)CC[NH2+]c1nc(N2CCCC2)nc2nc(N3CCOCC3)ccc12 (3D coordinates assigned)
CCN(CC)CC[NH2+]c1nc(N2CCCC2)nc2nc(N3CCOCC3)ccc12 (nonaromatic ring conformer: 75.06871898443995 kcal/mol)

>  <smiles>  (22) 
CCN(CC)CCNc1nc(N2CCCC2)nc2nc(N3CCOCC3)ccc12

>  <score_type>  (22) 
oracle

>  <origin>  (22) 
adg

>  <m_score__min__energy>  (22) 
-5.71

>  <m_primary>  (22) 
energy

$$$$
22:0
     RDKit          3D

 51 54  0  0  0  0  0  0  0  0999 V2000
   58.1230   24.0810   44.8540 C   0  0  0  0  0  0  0  0  0  0  0  0
   57.1520   24.8920   44.1020 N   0  0  0  0  0  0  0  0  0  0  0  0
   55.9730   24.0970   43.7240 C   0  0  0  0  0  0  0  0  0  0  0  0
   57.7560   25.6150   42.9600 C   0  0  0  0  0  0  0  0  0  0  0  0
   58.1580   27.0740   43.2700 C   0  0  0  0  0  0  0  0  0  0  0  0
   57.3080   27.6890   44.3130 N   0  0  0  0  0  0  0  0  0  0  0  0
   58.0670   28.5270   45.2320 C   0  0  0  0  0  0  0  0  0  0  0  0
   57.9850   29.9500   45.1850 C   0  0  0  0  0  0  0  0  0  0  0  0
   58.6950   30.7270   46.1370 C   0  0  0  0  0  0  0  0  0  0  0  0
   59.2930   30.1030   47.2120 N   0  0  0  0  0  0  0  0  0  0  0  0
   59.5510   30.8470   48.4630 C   0  0  0  0  0  0  0  0  0  0  0  0
   59.5650   28.7530   47.1630 C   0  0  0  0  0  0  0  0  0  0  0  0
   60.4730   28.1570   48.0740 C   0  0  0  0  0  0  0  0  0  0  0  0
   60.7040   26.7850   48.0680 C   0  0  0  0  0  0  0  0  0  0  0  0
   60.0440   25.9750   47.1560 C   0  0  0  0  0  0  0  0  0  0  0  0
   59.1700   26.5350   46.2270 C   0  0  0  0  0  0  0  0  0  0  0  0
   58.9350   27.9330   46.1910 C   0  0  0  0  0  0  0  0  0  0  0  0
   58.8040   32.2170   45.9070 C   0  0  0  0  0  0  0  0  0  0  0  0
   59.5040   33.0160   46.7620 N   0  0  0  0  0  0  0  0  0  0  0  0
   59.6560   34.3510   46.5680 C   0  0  0  0  0  0  0  0  0  0  0  0
   59.1060   34.9580   45.4430 C   0  0  0  0  0  0  0  0  0  0  0  0
   58.4200   34.1740   44.5180 C   0  0  0  0  0  0  0  0  0  0  0  0
   58.2630   32.7980   44.7400 C   0  0  0  0  0  0  0  0  0  0  0  0
   57.6660   31.9410   43.6680 C   0  0  0  0  0  0  0  0  0  0  0  0
   57.0280   30.6880   44.2560 C   0  0  0  0  0  0  0  0  0  0  0  0
   57.9582   24.2186   45.9328 H   0  0  0  0  0  0  0  0  0  0  0  0
   57.9925   23.0198   44.5956 H   0  0  0  0  0  0  0  0  0  0  0  0
   59.1440   24.3984   44.5956 H   0  0  0  0  0  0  0  0  0  0  0  0
   55.4583   23.7499   44.6321 H   0  0  0  0  0  0  0  0  0  0  0  0
   55.2875   24.7180   43.1287 H   0  0  0  0  0  0  0  0  0  0  0  0
   56.2918   23.2287   43.1287 H   0  0  0  0  0  0  0  0  0  0  0  0
   58.6576   25.0691   42.6450 H   0  0  0  0  0  0  0  0  0  0  0  0
   56.9869   25.6610   42.1749 H   0  0  0  0  0  0  0  0  0  0  0  0
   59.2026   27.0860   43.6145 H   0  0  0  0  0  0  0  0  0  0  0  0
   58.0284   27.6585   42.3472 H   0  0  0  0  0  0  0  0  0  0  0  0
   56.4960   28.1810   43.8840 H   0  0  0  0  0  0  0  0  0  0  0  0
   56.8360   26.9300   44.8560 H   0  0  0  0  0  0  0  0  0  0  0  0
   59.3274   30.2023   49.3258 H   0  0  0  0  0  0  0  0  0  0  0  0
   60.6073   31.1519   48.4971 H   0  0  0  0  0  0  0  0  0  0  0  0
   58.9102   31.7404   48.4971 H   0  0  0  0  0  0  0  0  0  0  0  0
   61.0047   28.7909   48.7989 H   0  0  0  0  0  0  0  0  0  0  0  0
   61.4099   26.3428   48.7864 H   0  0  0  0  0  0  0  0  0  0  0  0
   60.2111   24.8878   47.1663 H   0  0  0  0  0  0  0  0  0  0  0  0
   58.6532   25.8814   45.5089 H   0  0  0  0  0  0  0  0  0  0  0  0
   60.2140   34.9530   47.3002 H   0  0  0  0  0  0  0  0  0  0  0  0
   59.2114   36.0417   45.2863 H   0  0  0  0  0  0  0  0  0  0  0  0
   58.0006   34.6351   43.6116 H   0  0  0  0  0  0  0  0  0  0  0  0
   56.8971   32.5183   43.1337 H   0  0  0  0  0  0  0  0  0  0  0  0
   58.4678   31.6339   42.9804 H   0  0  0  0  0  0  0  0  0  0  0  0
   56.1319   30.9776   44.8245 H   0  0  0  0  0  0  0  0  0  0  0  0
   56.7682   30.0142   43.4262 H   0  0  0  0  0  0  0  0  0  0  0  0
  1  2  1  0
  2  3  1  0
  2  4  1  0
  4  5  1  0
  5  6  1  0
  6  7  1  0
  7  8  2  0
  8  9  1  0
  9 10  2  0
 10 11  1  0
 10 12  1  0
 12 13  2  0
 13 14  1  0
 14 15  2  0
 15 16  1  0
 16 17  2  0
  9 18  1  0
 18 19  2  0
 19 20  1  0
 20 21  2  0
 21 22  1  0
 22 23  2  0
 23 24  1  0
 24 25  1  0
 17  7  1  0
 23 18  1  0
 25  8  1  0
 17 12  1  0
  1 26  1  0
  1 27  1  0
  1 28  1  0
  3 29  1  0
  3 30  1  0
  3 31  1  0
  4 32  1  0
  4 33  1  0
  5 34  1  0
  5 35  1  0
  6 36  1  0
  6 37  1  0
 11 38  1  0
 11 39  1  0
 11 40  1  0
 13 41  1  0
 14 42  1  0
 15 43  1  0
 16 44  1  0
 20 45  1  0
 21 46  1  0
 22 47  1  0
 24 48  1  0
 24 49  1  0
 25 50  1  0
 25 51  1  0
M  CHG  2   6   1  10   1
M  END
>  <UniqueID>  (23) 
22

>  <SMILES>  (23) 
CN(C)CC[NH2+]c1c2c([n+](C)c3ccccc13)-c1ncccc1CC2

>  <Energy>  (23) 
91.46414484994052

>  <Genealogy>  (23) 
CN(C)CC[NH2+]c1c2c([n+](C)c3ccccc13)-c1ncccc1CC2 (protonated)
CN(C)CC[NH2+]c1c2c([n+](C)c3ccccc13)-c1ncccc1CC2 (3D coordinates assigned)
CN(C)CC[NH2+]c1c2c([n+](C)c3ccccc13)-c1ncccc1CC2 (nonaromatic ring conformer: 91.46414484994052 kcal/mol)

>  <smiles>  (23) 
CN(C)CCNc1c2c([n+](C)c3ccccc13)-c1ncccc1CC2

>  <score_type>  (23) 
oracle

>  <origin>  (23) 
adg

>  <m_score__min__energy>  (23) 
-4.6699999999999999

>  <m_primary>  (23) 
energy

$$$$
23:0
     RDKit          3D

 77 79  0  0  0  0  0  0  0  0999 V2000
   63.5420   32.4770   47.4070 C   0  0  0  0  0  0  0  0  0  0  0  0
   62.0260   32.4790   47.5870 C   0  0  0  0  0  0  0  0  0  0  0  0
   61.4690   33.8430   47.4370 N   0  0  0  0  0  0  0  0  0  0  0  0
   60.8540   34.0360   46.0980 C   0  0  0  0  0  0  0  0  0  0  0  0
   59.6270   34.9590   46.1340 C   0  0  0  0  0  0  0  0  0  0  0  0
   58.5680   34.4370   47.0300 N   0  0  0  0  0  0  0  0  0  0  0  0
   57.6210   33.5390   46.3310 C   0  0  0  0  0  0  0  0  0  0  0  0
   58.1280   32.0840   46.3120 C   0  0  0  0  0  0  0  0  0  0  0  0
   57.4350   31.2810   45.2430 C   0  0  0  0  0  0  0  0  0  0  0  0
   57.4880   31.6870   44.0510 O   0  0  0  0  0  0  0  0  0  0  0  0
   56.8160   30.0130   45.4980 N   0  0  0  0  0  0  0  0  0  0  0  0
   57.2300   28.7010   45.0860 C   0  0  0  0  0  0  0  0  0  0  0  0
   58.1330   28.5920   44.0220 C   0  0  0  0  0  0  0  0  0  0  0  0
   58.5010   27.3390   43.5270 C   0  0  0  0  0  0  0  0  0  0  0  0
   57.9570   26.1780   44.0820 C   0  0  0  0  0  0  0  0  0  0  0  0
   57.0370   26.2640   45.1400 C   0  0  0  0  0  0  0  0  0  0  0  0
   56.4670   25.0300   45.7340 C   0  0  0  0  0  0  0  0  0  0  0  0
   57.1360   24.3800   46.7780 C   0  0  0  0  0  0  0  0  0  0  0  0
   56.6300   23.1960   47.3150 C   0  0  0  0  0  0  0  0  0  0  0  0
   55.4380   22.6360   46.8170 C   0  0  0  0  0  0  0  0  0  0  0  0
   54.8970   21.4400   47.3250 O   0  0  0  0  0  0  0  0  0  0  0  0
   54.6040   20.2730   46.5590 C   0  0  0  0  0  0  0  0  0  0  0  0
   55.4640   20.2010   45.2790 C   0  0  0  0  0  0  0  0  0  0  0  0
   56.9180   19.9750   45.5050 N   0  0  0  0  0  0  0  0  0  0  0  0
   57.7870   21.1160   45.1090 C   0  0  0  0  0  0  0  0  0  0  0  0
   57.3970   21.7430   43.7640 C   0  0  0  0  0  0  0  0  0  0  0  0
   57.1790   19.5650   46.9120 C   0  0  0  0  0  0  0  0  0  0  0  0
   58.6530   19.2220   47.1650 C   0  0  0  0  0  0  0  0  0  0  0  0
   54.7530   23.2850   45.7800 C   0  0  0  0  0  0  0  0  0  0  0  0
   53.5590   22.7110   45.3140 O   0  0  0  0  0  0  0  0  0  0  0  0
   52.2940   23.3640   45.3110 C   0  0  0  0  0  0  0  0  0  0  0  0
   55.2740   24.4790   45.2380 C   0  0  0  0  0  0  0  0  0  0  0  0
   56.6700   27.5310   45.6310 C   0  0  0  0  0  0  0  0  0  0  0  0
   59.1050   33.7830   48.2500 C   0  0  0  0  0  0  0  0  0  0  0  0
   60.5580   34.1900   48.5530 C   0  0  0  0  0  0  0  0  0  0  0  0
   64.0284   32.4764   48.3936 H   0  0  0  0  0  0  0  0  0  0  0  0
   63.8438   31.5785   46.8488 H   0  0  0  0  0  0  0  0  0  0  0  0
   63.8462   33.3747   46.8488 H   0  0  0  0  0  0  0  0  0  0  0  0
   61.5742   31.8219   46.8293 H   0  0  0  0  0  0  0  0  0  0  0  0
   61.7959   32.1191   48.6007 H   0  0  0  0  0  0  0  0  0  0  0  0
   61.6055   34.4765   45.4263 H   0  0  0  0  0  0  0  0  0  0  0  0
   60.5170   33.0508   45.7433 H   0  0  0  0  0  0  0  0  0  0  0  0
   59.9388   35.9511   46.4925 H   0  0  0  0  0  0  0  0  0  0  0  0
   59.2141   35.0165   45.1161 H   0  0  0  0  0  0  0  0  0  0  0  0
   56.6503   33.5721   46.8475 H   0  0  0  0  0  0  0  0  0  0  0  0
   57.5244   33.8833   45.2908 H   0  0  0  0  0  0  0  0  0  0  0  0
   59.2105   32.0835   46.1164 H   0  0  0  0  0  0  0  0  0  0  0  0
   57.9107   31.6261   47.2883 H   0  0  0  0  0  0  0  0  0  0  0  0
   58.5567   29.5017   43.5716 H   0  0  0  0  0  0  0  0  0  0  0  0
   59.2207   27.2660   42.6983 H   0  0  0  0  0  0  0  0  0  0  0  0
   58.2501   25.1932   43.6892 H   0  0  0  0  0  0  0  0  0  0  0  0
   58.0679   24.8062   47.1780 H   0  0  0  0  0  0  0  0  0  0  0  0
   57.1668   22.6957   48.1344 H   0  0  0  0  0  0  0  0  0  0  0  0
   54.8043   19.3831   47.1738 H   0  0  0  0  0  0  0  0  0  0  0  0
   53.5462   20.3149   46.2602 H   0  0  0  0  0  0  0  0  0  0  0  0
   55.0835   19.3757   44.6592 H   0  0  0  0  0  0  0  0  0  0  0  0
   55.3791   21.1866   44.7980 H   0  0  0  0  0  0  0  0  0  0  0  0
   57.1770   19.1650   44.8900 H   0  0  0  0  0  0  0  0  0  0  0  0
   57.7205   21.8909   45.8869 H   0  0  0  0  0  0  0  0  0  0  0  0
   58.8083   20.7225   44.9990 H   0  0  0  0  0  0  0  0  0  0  0  0
   56.8236   22.6648   43.9417 H   0  0  0  0  0  0  0  0  0  0  0  0
   58.3065   21.9812   43.1930 H   0  0  0  0  0  0  0  0  0  0  0  0
   56.7812   21.0325   43.1930 H   0  0  0  0  0  0  0  0  0  0  0  0
   56.8905   20.3911   47.5786 H   0  0  0  0  0  0  0  0  0  0  0  0
   56.5883   18.6582   47.1089 H   0  0  0  0  0  0  0  0  0  0  0  0
   58.8387   19.1788   48.2484 H   0  0  0  0  0  0  0  0  0  0  0  0
   58.8850   18.2459   46.7140 H   0  0  0  0  0  0  0  0  0  0  0  0
   59.2921   19.9954   46.7140 H   0  0  0  0  0  0  0  0  0  0  0  0
   51.9662   23.5332   46.3473 H   0  0  0  0  0  0  0  0  0  0  0  0
   52.3811   24.3298   44.7917 H   0  0  0  0  0  0  0  0  0  0  0  0
   51.5572   22.7336   44.7917 H   0  0  0  0  0  0  0  0  0  0  0  0
   54.7405   24.9834   44.4188 H   0  0  0  0  0  0  0  0  0  0  0  0
   55.9383   27.6072   46.4488 H   0  0  0  0  0  0  0  0  0  0  0  0
   58.4749   34.0649   49.1065 H   0  0  0  0  0  0  0  0  0  0  0  0
   59.0941   32.6969   48.0762 H   0  0  0  0  0  0  0  0  0  0  0  0
   60.5964   35.2766   48.7196 H   0  0  0  0  0  0  0  0  0  0  0  0
   60.8879   33.6418   49.4478 H   0  0  0  0  0  0  0  0  0  0  0  0
  1  2  1  0
  2  3  1  0
  3  4  1  0
  4  5  1  0
  5  6  1  0
  6  7  1  0
  7  8  1  0
  8  9  1  0
  9 10  2  0
  9 11  1  0
 11 12  1  0
 12 13  2  0
 13 14  1  0
 14 15  2  0
 15 16  1  0
 16 17  1  0
 17 18  2  0
 18 19  1  0
 19 20  2  0
 20 21  1  0
 21 22  1  0
 22 23  1  0
 23 24  1  0
 24 25  1  0
 25 26  1  0
 24 27  1  0
 27 28  1  0
 20 29  1  0
 29 30  1  0
 30 31  1  0
 29 32  2  0
 16 33  2  0
  6 34  1  0
 34 35  1  0
 35  3  1  0
 33 12  1  0
 32 17  1  0
  1 36  1  0
  1 37  1  0
  1 38  1  0
  2 39  1  0
  2 40  1  0
  4 41  1  0
  4 42  1  0
  5 43  1  0
  5 44  1  0
  7 45  1  0
  7 46  1  0
  8 47  1  0
  8 48  1  0
 13 49  1  0
 14 50  1  0
 15 51  1  0
 18 52  1  0
 19 53  1  0
 22 54  1  0
 22 55  1  0
 23 56  1  0
 23 57  1  0
 24 58  1  0
 25 59  1  0
 25 60  1  0
 26 61  1  0
 26 62  1  0
 26 63  1  0
 27 64  1  0
 27 65  1  0
 28 66  1  0
 28 67  1  0
 28 68  1  0
 31 69  1  0
 31 70  1  0
 31 71  1  0
 32 72  1  0
 33 73  1  0
 34 74  1  0
 34 75  1  0
 35 76  1  0
 35 77  1  0
M  CHG  2  11  -1  24   1
M  END
>  <UniqueID>  (24) 
23

>  <SMILES>  (24) 
CCN1CCN(CCC(=O)[N-]c2cccc(-c3ccc(OCC[NH+](CC)CC)c(OC)c3)c2)CC1

>  <Energy>  (24) 
98.42730710442308

>  <Genealogy>  (24) 
CCN1CCN(CCC(=O)[N-]c2cccc(-c3ccc(OCC[NH+](CC)CC)c(OC)c3)c2)CC1 (protonated)
CCN1CCN(CCC(=O)[N-]c2cccc(-c3ccc(OCC[NH+](CC)CC)c(OC)c3)c2)CC1 (3D coordinates assigned)
CCN1CCN(CCC(=O)[N-]c2cccc(-c3ccc(OCC[NH+](CC)CC)c(OC)c3)c2)CC1 (nonaromatic ring conformer: 98.42730710442308 kcal/mol)

>  <smiles>  (24) 
CCN(CC)CCOc1ccc(-c2cccc(NC(=O)CCN3CCN(CC)CC3)c2)cc1OC

>  <score_type>  (24) 
oracle

>  <origin>  (24) 
adg

>  <m_score__min__energy>  (24) 
-8.0700000000000003

>  <m_primary>  (24) 
energy

$$$$
24:0
     RDKit          3D

 39 40  0  0  0  0  0  0  0  0999 V2000
   66.8870   31.2820   51.7890 C   0  0  0  0  0  0  0  0  0  0  0  0
   65.5610   31.2390   51.1610 N   0  0  0  0  0  0  0  0  0  0  0  0
   64.5670   30.2650   51.6260 C   0  0  0  0  0  0  0  0  0  0  0  0
   65.2910   32.1160   50.0450 C   0  0  0  0  0  0  0  0  0  0  0  0
   66.2420   32.7590   49.5210 O   0  0  0  0  0  0  0  0  0  0  0  0
   63.9110   32.2500   49.4320 C   0  0  0  0  0  0  0  0  0  0  0  0
   63.9580   32.6980   48.0140 N   0  0  1  0  0  0  0  0  0  0  0  0
   63.3280   31.6810   47.1520 C   0  0  0  0  0  0  0  0  0  0  0  0
   63.2690   33.9980   47.8090 C   0  0  0  0  0  0  0  0  0  0  0  0
   61.7770   33.8450   47.6290 C   0  0  0  0  0  0  0  0  0  0  0  0
   60.9630   33.4750   48.7150 C   0  0  0  0  0  0  0  0  0  0  0  0
   59.5800   33.3590   48.5590 C   0  0  0  0  0  0  0  0  0  0  0  0
   58.9930   33.6050   47.3130 C   0  0  0  0  0  0  0  0  0  0  0  0
   57.6450   33.5010   47.1610 N   0  0  0  0  0  0  0  0  0  0  0  0
   57.0410   33.7370   45.9640 C   0  0  0  0  0  0  0  0  0  0  0  0
   57.8040   34.0960   44.8470 C   0  0  0  0  0  0  0  0  0  0  0  0
   59.1900   34.2100   44.9710 C   0  0  0  0  0  0  0  0  0  0  0  0
   59.8020   33.9660   46.2110 C   0  0  0  0  0  0  0  0  0  0  0  0
   61.1900   34.0760   46.3720 C   0  0  0  0  0  0  0  0  0  0  0  0
   66.7748   31.2784   52.8833 H   0  0  0  0  0  0  0  0  0  0  0  0
   67.4691   30.4023   51.4772 H   0  0  0  0  0  0  0  0  0  0  0  0
   67.4109   32.1976   51.4772 H   0  0  0  0  0  0  0  0  0  0  0  0
   64.5534   30.2516   52.7258 H   0  0  0  0  0  0  0  0  0  0  0  0
   63.5726   30.5481   51.2504 H   0  0  0  0  0  0  0  0  0  0  0  0
   64.8298   29.2651   51.2504 H   0  0  0  0  0  0  0  0  0  0  0  0
   63.4089   31.2723   49.4765 H   0  0  0  0  0  0  0  0  0  0  0  0
   63.3635   33.0126   50.0053 H   0  0  0  0  0  0  0  0  0  0  0  0
   64.9520   32.7790   47.6940 H   0  0  0  0  0  0  0  0  0  0  0  0
   62.8521   30.9127   47.7791 H   0  0  0  0  0  0  0  0  0  0  0  0
   62.5675   32.1588   46.5169 H   0  0  0  0  0  0  0  0  0  0  0  0
   64.0945   31.2128   46.5169 H   0  0  0  0  0  0  0  0  0  0  0  0
   63.4541   34.6364   48.6854 H   0  0  0  0  0  0  0  0  0  0  0  0
   63.6707   34.4453   46.8878 H   0  0  0  0  0  0  0  0  0  0  0  0
   61.4197   33.2753   49.6956 H   0  0  0  0  0  0  0  0  0  0  0  0
   58.9520   33.0741   49.4160 H   0  0  0  0  0  0  0  0  0  0  0  0
   55.9485   33.6451   45.8743 H   0  0  0  0  0  0  0  0  0  0  0  0
   57.3160   34.2867   43.8798 H   0  0  0  0  0  0  0  0  0  0  0  0
   59.8006   34.4901   44.1000 H   0  0  0  0  0  0  0  0  0  0  0  0
   61.8221   34.3438   45.5126 H   0  0  0  0  0  0  0  0  0  0  0  0
  1  2  1  0
  2  3  1  0
  2  4  1  0
  4  5  2  0
  4  6  1  0
  6  7  1  0
  7  8  1  0
  7  9  1  0
  9 10  1  0
 10 11  2  0
 11 12  1  0
 12 13  2  0
 13 14  1  0
 14 15  2  0
 15 16  1  0
 16 17  2  0
 17 18  1  0
 18 19  2  0
 19 10  1  0
 18 13  1  0
  1 20  1  0
  1 21  1  0
  1 22  1  0
  3 23  1  0
  3 24  1  0
  3 25  1  0
  6 26  1  0
  6 27  1  0
  7 28  1  6
  8 29  1  0
  8 30  1  0
  8 31  1  0
  9 32  1  0
  9 33  1  0
 11 34  1  0
 12 35  1  0
 15 36  1  0
 16 37  1  0
 17 38  1  0
 19 39  1  0
M  CHG  1   7   1
M  END
>  <UniqueID>  (25) 
24

>  <SMILES>  (25) 
CN(C)C(=O)C[N@@H+](C)Cc1ccc2ncccc2c1

>  <Energy>  (25) 
41.09307726795605

>  <Genealogy>  (25) 
CN(C)C(=O)C[NH+](C)Cc1ccc2ncccc2c1 (protonated)
CN(C)C(=O)C[N@@H+](C)Cc1ccc2ncccc2c1 (chirality)
CN(C)C(=O)C[N@@H+](C)Cc1ccc2ncccc2c1 (3D coordinates assigned)
CN(C)C(=O)C[N@@H+](C)Cc1ccc2ncccc2c1 (optimized conformer: 41.09307726795605 kcal/mol)

>  <smiles>  (25) 
CN(CC(=O)N(C)C)Cc1ccc2ncccc2c1

>  <score_type>  (25) 
oracle

>  <origin>  (25) 
adg

>  <m_score__min__energy>  (25) 
-5.2000000000000002

>  <m_primary>  (25) 
energy

$$$$
25:0
     RDKit          3D

 59 62  0  0  0  0  0  0  0  0999 V2000
   58.5560   34.4880   45.9050 C   0  0  0  0  0  0  0  0  0  0  0  0
   59.9940   34.8140   46.3410 C   0  0  0  0  0  0  0  0  0  0  0  0
   60.5280   33.8910   47.3690 N   0  0  0  0  0  0  0  0  0  0  0  0
   61.9330   34.1880   47.7240 C   0  0  0  0  0  0  0  0  0  0  0  0
   62.8990   33.5080   46.7570 C   0  0  0  0  0  0  0  0  0  0  0  0
   59.6320   33.7610   48.5460 C   0  0  0  0  0  0  0  0  0  0  0  0
   59.6790   32.3300   49.0950 C   0  0  0  0  0  0  0  0  0  0  0  0
   60.7310   31.5310   48.4400 N   0  0  0  0  0  0  0  0  0  0  0  0
   60.2550   30.1890   48.1490 C   0  0  0  0  0  0  0  0  0  0  0  0
   60.5360   29.1140   49.0320 C   0  0  0  0  0  0  0  0  0  0  0  0
   61.1030   29.3210   50.3130 C   0  0  0  0  0  0  0  0  0  0  0  0
   61.4070   28.2450   51.1450 C   0  0  0  0  0  0  0  0  0  0  0  0
   61.1550   26.9450   50.7270 C   0  0  0  0  0  0  0  0  0  0  0  0
   60.5890   26.7120   49.4770 C   0  0  0  0  0  0  0  0  0  0  0  0
   60.2690   27.7860   48.6090 C   0  0  0  0  0  0  0  0  0  0  0  0
   59.7160   27.5540   47.3710 N   0  0  0  0  0  0  0  0  0  0  0  0
   59.9610   26.2520   46.7130 C   0  0  0  0  0  0  0  0  0  0  0  0
   59.1110   28.5850   46.6820 C   0  0  0  0  0  0  0  0  0  0  0  0
   58.1280   28.3500   45.6690 C   0  0  0  0  0  0  0  0  0  0  0  0
   57.3040   27.0770   45.6690 C   0  0  0  0  0  0  0  0  0  0  0  0
   57.7930   29.3880   44.7640 C   0  0  0  0  0  0  0  0  0  0  0  0
   56.9990   29.1560   43.6170 C   0  0  0  0  0  0  0  0  0  0  0  0
   56.6630   30.2050   42.7590 C   0  0  0  0  0  0  0  0  0  0  0  0
   57.1070   31.4980   43.0250 C   0  0  0  0  0  0  0  0  0  0  0  0
   57.8970   31.7480   44.1470 C   0  0  0  0  0  0  0  0  0  0  0  0
   58.2510   30.6990   45.0150 C   0  0  0  0  0  0  0  0  0  0  0  0
   59.0220   30.9650   46.1480 C   0  0  0  0  0  0  0  0  0  0  0  0
   59.4670   29.9250   46.9930 C   0  0  0  0  0  0  0  0  0  0  0  0
   57.9263   34.3452   46.7956 H   0  0  0  0  0  0  0  0  0  0  0  0
   58.1579   35.3187   45.3038 H   0  0  0  0  0  0  0  0  0  0  0  0
   58.5551   33.5668   45.3038 H   0  0  0  0  0  0  0  0  0  0  0  0
   60.6453   34.7626   45.4561 H   0  0  0  0  0  0  0  0  0  0  0  0
   59.9742   35.8182   46.7896 H   0  0  0  0  0  0  0  0  0  0  0  0
   62.0914   35.2758   47.6846 H   0  0  0  0  0  0  0  0  0  0  0  0
   62.1259   33.8060   48.7373 H   0  0  0  0  0  0  0  0  0  0  0  0
   63.6682   32.9666   47.3273 H   0  0  0  0  0  0  0  0  0  0  0  0
   62.3454   32.7993   46.1235 H   0  0  0  0  0  0  0  0  0  0  0  0
   63.3794   34.2682   46.1235 H   0  0  0  0  0  0  0  0  0  0  0  0
   59.9580   34.4611   49.3293 H   0  0  0  0  0  0  0  0  0  0  0  0
   58.6015   33.9927   48.2386 H   0  0  0  0  0  0  0  0  0  0  0  0
   59.8811   32.3688   50.1756 H   0  0  0  0  0  0  0  0  0  0  0  0
   58.7088   31.8524   48.8934 H   0  0  0  0  0  0  0  0  0  0  0  0
   61.5840   31.4950   49.0410 H   0  0  0  0  0  0  0  0  0  0  0  0
   61.0700   32.0010   47.5720 H   0  0  0  0  0  0  0  0  0  0  0  0
   61.3065   30.3460   50.6564 H   0  0  0  0  0  0  0  0  0  0  0  0
   61.8481   28.4262   52.1363 H   0  0  0  0  0  0  0  0  0  0  0  0
   61.4029   26.0986   51.3844 H   0  0  0  0  0  0  0  0  0  0  0  0
   60.3870   25.6789   49.1579 H   0  0  0  0  0  0  0  0  0  0  0  0
   60.1070   25.4759   47.4787 H   0  0  0  0  0  0  0  0  0  0  0  0
   59.0964   25.9899   46.0855 H   0  0  0  0  0  0  0  0  0  0  0  0
   60.8617   26.3220   46.0855 H   0  0  0  0  0  0  0  0  0  0  0  0
   57.1048   26.7692   46.7061 H   0  0  0  0  0  0  0  0  0  0  0  0
   56.3508   27.2572   45.1505 H   0  0  0  0  0  0  0  0  0  0  0  0
   57.8587   26.2811   45.1505 H   0  0  0  0  0  0  0  0  0  0  0  0
   56.6424   28.1386   43.3985 H   0  0  0  0  0  0  0  0  0  0  0  0
   56.0455   30.0095   41.8699 H   0  0  0  0  0  0  0  0  0  0  0  0
   56.8345   32.3226   42.3498 H   0  0  0  0  0  0  0  0  0  0  0  0
   58.2450   32.7707   44.3542 H   0  0  0  0  0  0  0  0  0  0  0  0
   59.2880   32.0052   46.3871 H   0  0  0  0  0  0  0  0  0  0  0  0
  1  2  1  0
  2  3  1  0
  3  4  1  0
  4  5  1  0
  3  6  1  0
  6  7  1  0
  7  8  1  0
  8  9  1  0
  9 10  2  0
 10 11  1  0
 11 12  2  0
 12 13  1  0
 13 14  2  0
 14 15  1  0
 15 16  2  0
 16 17  1  0
 16 18  1  0
 18 19  2  0
 19 20  1  0
 19 21  1  0
 21 22  2  0
 22 23  1  0
 23 24  2  0
 24 25  1  0
 25 26  2  0
 26 27  1  0
 27 28  2  0
 28  9  1  0
 15 10  1  0
 28 18  1  0
 26 21  1  0
  1 29  1  0
  1 30  1  0
  1 31  1  0
  2 32  1  0
  2 33  1  0
  4 34  1  0
  4 35  1  0
  5 36  1  0
  5 37  1  0
  5 38  1  0
  6 39  1  0
  6 40  1  0
  7 41  1  0
  7 42  1  0
  8 43  1  0
  8 44  1  0
 11 45  1  0
 12 46  1  0
 13 47  1  0
 14 48  1  0
 17 49  1  0
 17 50  1  0
 17 51  1  0
 20 52  1  0
 20 53  1  0
 20 54  1  0
 22 55  1  0
 23 56  1  0
 24 57  1  0
 25 58  1  0
 27 59  1  0
M  CHG  2   8   1  16   1
M  END
>  <UniqueID>  (26) 
25

>  <SMILES>  (26) 
CCN(CC)CC[NH2+]c1c2ccccc2[n+](C)c2c(C)c3ccccc3cc12

>  <Energy>  (26) 
105.62085340843176

>  <Genealogy>  (26) 
CCN(CC)CC[NH2+]c1c2ccccc2[n+](C)c2c(C)c3ccccc3cc12 (protonated)
CCN(CC)CC[NH2+]c1c2ccccc2[n+](C)c2c(C)c3ccccc3cc12 (3D coordinates assigned)
CCN(CC)CC[NH2+]c1c2ccccc2[n+](C)c2c(C)c3ccccc3cc12 (optimized conformer: 105.62085340843176 kcal/mol)

>  <smiles>  (26) 
CCN(CC)CCNc1c2ccccc2[n+](C)c2c(C)c3ccccc3cc12

>  <score_type>  (26) 
oracle

>  <origin>  (26) 
adg

>  <m_score__min__energy>  (26) 
-4.9400000000000004

>  <m_primary>  (26) 
energy

$$$$
26:0
     RDKit          3D

 40 40  0  0  0  0  0  0  0  0999 V2000
   59.5370   30.3720   46.0360 C   0  0  0  0  0  0  0  0  0  0  0  0
   58.1500   30.8600   46.4490 C   0  0  0  0  0  0  0  0  0  0  0  0
   57.4070   31.4020   45.2900 N   0  0  0  0  0  0  0  0  0  0  0  0
   57.8140   30.8960   43.9520 C   0  0  0  0  0  0  0  0  0  0  0  0
   56.6770   30.6440   42.9290 C   0  0  0  0  0  0  0  0  0  0  0  0
   55.5570   29.7210   43.4220 C   0  0  0  0  0  0  0  0  0  0  0  0
   55.5180   29.6780   44.8810 N   0  0  0  0  0  0  0  0  0  0  0  0
   57.2120   32.8690   45.3430 C   0  0  0  0  0  0  0  0  0  0  0  0
   58.2890   33.5930   44.5200 C   0  0  0  0  0  0  0  0  0  0  0  0
   58.8980   34.8110   45.2350 C   0  0  0  0  0  0  0  0  0  0  0  0
   59.7210   34.4200   46.4380 C   0  0  0  0  0  0  0  0  0  0  0  0
   61.0060   33.8760   46.2710 C   0  0  0  0  0  0  0  0  0  0  0  0
   61.7620   33.5020   47.3850 C   0  0  0  0  0  0  0  0  0  0  0  0
   61.2450   33.6680   48.6720 C   0  0  0  0  0  0  0  0  0  0  0  0
   59.9710   34.2160   48.8470 C   0  0  0  0  0  0  0  0  0  0  0  0
   59.2110   34.5930   47.7360 C   0  0  0  0  0  0  0  0  0  0  0  0
   60.1345   30.1618   46.9353 H   0  0  0  0  0  0  0  0  0  0  0  0
   59.4396   29.4541   45.4376 H   0  0  0  0  0  0  0  0  0  0  0  0
   60.0358   31.1486   45.4376 H   0  0  0  0  0  0  0  0  0  0  0  0
   57.5854   30.0177   46.8752 H   0  0  0  0  0  0  0  0  0  0  0  0
   58.2697   31.6620   47.1923 H   0  0  0  0  0  0  0  0  0  0  0  0
   58.5016   31.6331   43.5116 H   0  0  0  0  0  0  0  0  0  0  0  0
   58.2594   29.9078   44.1393 H   0  0  0  0  0  0  0  0  0  0  0  0
   56.2299   31.6149   42.6692 H   0  0  0  0  0  0  0  0  0  0  0  0
   57.1412   30.1345   42.0717 H   0  0  0  0  0  0  0  0  0  0  0  0
   54.5924   30.0941   43.0473 H   0  0  0  0  0  0  0  0  0  0  0  0
   55.7496   28.7051   43.0467 H   0  0  0  0  0  0  0  0  0  0  0  0
   55.3110   30.6400   45.2330 H   0  0  0  0  0  0  0  0  0  0  0  0
   56.4770   29.4370   45.2180 H   0  0  0  0  0  0  0  0  0  0  0  0
   56.2204   33.1159   44.9358 H   0  0  0  0  0  0  0  0  0  0  0  0
   57.2886   33.1972   46.3901 H   0  0  0  0  0  0  0  0  0  0  0  0
   59.0968   32.8793   44.3006 H   0  0  0  0  0  0  0  0  0  0  0  0
   57.8001   33.9665   43.6081 H   0  0  0  0  0  0  0  0  0  0  0  0
   59.5430   35.3507   44.5260 H   0  0  0  0  0  0  0  0  0  0  0  0
   58.0689   35.4424   45.5868 H   0  0  0  0  0  0  0  0  0  0  0  0
   61.4181   33.7442   45.2597 H   0  0  0  0  0  0  0  0  0  0  0  0
   62.7668   33.0758   47.2482 H   0  0  0  0  0  0  0  0  0  0  0  0
   61.8400   33.3677   49.5471 H   0  0  0  0  0  0  0  0  0  0  0  0
   59.5658   34.3508   49.8607 H   0  0  0  0  0  0  0  0  0  0  0  0
   58.2101   35.0266   47.8783 H   0  0  0  0  0  0  0  0  0  0  0  0
  1  2  1  0
  2  3  1  0
  3  4  1  0
  4  5  1  0
  5  6  1  0
  6  7  1  0
  3  8  1  0
  8  9  1  0
  9 10  1  0
 10 11  1  0
 11 12  2  0
 12 13  1  0
 13 14  2  0
 14 15  1  0
 15 16  2  0
 16 11  1  0
  1 17  1  0
  1 18  1  0
  1 19  1  0
  2 20  1  0
  2 21  1  0
  4 22  1  0
  4 23  1  0
  5 24  1  0
  5 25  1  0
  6 26  1  0
  6 27  1  0
  7 28  1  0
  7 29  1  0
  8 30  1  0
  8 31  1  0
  9 32  1  0
  9 33  1  0
 10 34  1  0
 10 35  1  0
 12 36  1  0
 13 37  1  0
 14 38  1  0
 15 39  1  0
 16 40  1  0
M  END
>  <UniqueID>  (27) 
26

>  <SMILES>  (27) 
CCN(CCCN)CCCc1ccccc1

>  <Energy>  (27) 
36.65186685954561

>  <Genealogy>  (27) 
CCN(CCCN)CCCc1ccccc1 (3D coordinates assigned)
CCN(CCCN)CCCc1ccccc1 (optimized conformer: 36.65186685954561 kcal/mol)

>  <smiles>  (27) 
CCN(CCCN)CCCc1ccccc1

>  <score_type>  (27) 
oracle

>  <origin>  (27) 
adg

>  <m_score__min__energy>  (27) 
-6.4699999999999998

>  <m_primary>  (27) 
energy

$$$$
27:0
     RDKit          3D

 31 33  0  0  0  0  0  0  0  0999 V2000
   56.0370   29.7250   43.6290 C   0  0  0  0  0  0  0  0  0  0  0  0
   56.2860   30.6310   44.7550 N   0  0  0  0  0  0  0  0  0  0  0  0
   57.6940   31.0770   44.7930 C   0  0  1  0  0  0  0  0  0  0  0  0
   57.7730   32.5970   44.4050 C   0  0  0  0  0  0  0  0  0  0  0  0
   58.8650   33.3040   45.2030 C   0  0  1  0  0  0  0  0  0  0  0  0
   59.0670   34.8050   45.0320 C   0  0  0  0  0  0  0  0  0  0  0  0
   59.6320   35.1720   46.3730 C   0  0  0  0  0  0  0  0  0  0  0  0
   59.4100   34.2190   47.2790 C   0  0  0  0  0  0  0  0  0  0  0  0
   58.5500   33.1610   46.6820 C   0  0  2  0  0  0  0  0  0  0  0  0
   58.7650   31.7340   47.0600 C   0  0  0  0  0  0  0  0  0  0  0  0
   59.3130   31.3980   48.2590 N   0  0  0  0  0  0  0  0  0  0  0  0
   59.4930   30.1000   48.6180 C   0  0  0  0  0  0  0  0  0  0  0  0
   59.1110   29.0740   47.7530 C   0  0  0  0  0  0  0  0  0  0  0  0
   58.5310   29.3910   46.5230 C   0  0  0  0  0  0  0  0  0  0  0  0
   58.3230   30.7320   46.1620 C   0  0  0  0  0  0  0  0  0  0  0  0
   55.7637   28.7307   44.0119 H   0  0  0  0  0  0  0  0  0  0  0  0
   55.2142   30.1204   43.0152 H   0  0  0  0  0  0  0  0  0  0  0  0
   56.9463   29.6444   43.0152 H   0  0  0  0  0  0  0  0  0  0  0  0
   56.0640   30.0880   45.6220 H   0  0  0  0  0  0  0  0  0  0  0  0
   58.2971   30.5385   44.0472 H   0  0  0  0  0  0  0  0  0  0  0  0
   57.9971   32.6840   43.3316 H   0  0  0  0  0  0  0  0  0  0  0  0
   56.8067   33.0700   44.6340 H   0  0  0  0  0  0  0  0  0  0  0  0
   59.7704   32.8144   44.8151 H   0  0  0  0  0  0  0  0  0  0  0  0
   59.7754   35.0275   44.2205 H   0  0  0  0  0  0  0  0  0  0  0  0
   58.1561   35.3569   44.7571 H   0  0  0  0  0  0  0  0  0  0  0  0
   60.1639   36.1117   46.5828 H   0  0  0  0  0  0  0  0  0  0  0  0
   59.8013   34.2154   48.3070 H   0  0  0  0  0  0  0  0  0  0  0  0
   57.5218   33.3287   47.0352 H   0  0  0  0  0  0  0  0  0  0  0  0
   59.9410   29.8574   49.5929 H   0  0  0  0  0  0  0  0  0  0  0  0
   59.2657   28.0229   48.0380 H   0  0  0  0  0  0  0  0  0  0  0  0
   58.2356   28.5864   45.8335 H   0  0  0  0  0  0  0  0  0  0  0  0
  1  2  1  0
  2  3  1  0
  3  4  1  0
  4  5  1  0
  5  6  1  0
  6  7  1  0
  7  8  2  0
  8  9  1  0
  9 10  1  0
 10 11  2  0
 11 12  1  0
 12 13  2  0
 13 14  1  0
 14 15  2  0
 15  3  1  0
  9  5  1  0
 15 10  1  0
  1 16  1  0
  1 17  1  0
  1 18  1  0
  2 19  1  0
  3 20  1  6
  4 21  1  0
  4 22  1  0
  5 23  1  1
  6 24  1  0
  6 25  1  0
  7 26  1  0
  8 27  1  0
  9 28  1  6
 12 29  1  0
 13 30  1  0
 14 31  1  0
M  END
>  <UniqueID>  (28) 
27

>  <SMILES>  (28) 
CN[C@H]1C[C@H]2CC=CC2c2ncccc21

>  <Energy>  (28) 
54.425661756518615

>  <Genealogy>  (28) 
CN[C@H]1C[C@H]2CC=CC2c2ncccc21 (chirality)
CN[C@H]1C[C@H]2CC=CC2c2ncccc21 (3D coordinates assigned)
CN[C@H]1C[C@H]2CC=CC2c2ncccc21 (nonaromatic ring conformer: 54.425661756518615 kcal/mol)

>  <smiles>  (28) 
CNC1CC2CC=CC2c2ncccc21

>  <score_type>  (28) 
oracle

>  <origin>  (28) 
adg

>  <m_score__min__energy>  (28) 
-6.96

>  <m_primary>  (28) 
energy

$$$$
28:0
     RDKit          3D

 43 45  0  0  0  0  0  0  0  0999 V2000
   63.7150   32.3810   47.8700 C   0  0  0  0  0  0  0  0  0  0  0  0
   62.3720   32.2270   48.3150 O   0  0  0  0  0  0  0  0  0  0  0  0
   61.2460   32.6810   47.6130 C   0  0  0  0  0  0  0  0  0  0  0  0
   61.0110   34.0590   47.5580 C   0  0  0  0  0  0  0  0  0  0  0  0
   59.9060   34.5660   46.8710 C   0  0  0  0  0  0  0  0  0  0  0  0
   59.0130   33.6980   46.2280 C   0  0  0  0  0  0  0  0  0  0  0  0
   57.9070   34.2080   45.5320 C   0  0  0  0  0  0  0  0  0  0  0  0
   57.0200   33.3420   44.8900 C   0  0  0  0  0  0  0  0  0  0  0  0
   57.2250   31.9620   44.9400 C   0  0  0  0  0  0  0  0  0  0  0  0
   58.3200   31.4300   45.6350 C   0  0  0  0  0  0  0  0  0  0  0  0
   58.4900   30.0060   45.6870 N   0  0  0  0  0  0  0  0  0  0  0  0
   58.3780   29.3190   46.9770 C   0  0  0  0  0  0  0  0  0  0  0  0
   58.5020   27.8070   46.7960 C   0  0  0  0  0  0  0  0  0  0  0  0
   57.7080   27.3990   45.6230 N   0  0  0  0  0  0  0  0  0  0  0  0
   57.4200   25.9480   45.5670 C   0  0  0  0  0  0  0  0  0  0  0  0
   55.9230   25.5900   45.6480 C   0  0  0  0  0  0  0  0  0  0  0  0
   55.1710   26.7170   46.0090 O   0  0  0  0  0  0  0  0  0  0  0  0
   58.2210   27.9390   44.3420 C   0  0  0  0  0  0  0  0  0  0  0  0
   58.9560   29.2860   44.4980 C   0  0  0  0  0  0  0  0  0  0  0  0
   59.2300   32.2980   46.2810 C   0  0  0  0  0  0  0  0  0  0  0  0
   60.3530   31.8020   46.9700 C   0  0  0  0  0  0  0  0  0  0  0  0
   64.3832   32.4576   48.7404 H   0  0  0  0  0  0  0  0  0  0  0  0
   64.0022   31.5099   47.2628 H   0  0  0  0  0  0  0  0  0  0  0  0
   63.7976   33.2945   47.2628 H   0  0  0  0  0  0  0  0  0  0  0  0
   61.7035   34.7500   48.0609 H   0  0  0  0  0  0  0  0  0  0  0  0
   59.7356   35.6521   46.8343 H   0  0  0  0  0  0  0  0  0  0  0  0
   57.7380   35.2942   45.4919 H   0  0  0  0  0  0  0  0  0  0  0  0
   56.1566   33.7484   44.3429 H   0  0  0  0  0  0  0  0  0  0  0  0
   56.5219   31.2869   44.4301 H   0  0  0  0  0  0  0  0  0  0  0  0
   59.1795   29.6698   47.6438 H   0  0  0  0  0  0  0  0  0  0  0  0
   57.3934   29.5435   47.4130 H   0  0  0  0  0  0  0  0  0  0  0  0
   59.5573   27.5394   46.6386 H   0  0  0  0  0  0  0  0  0  0  0  0
   58.1302   27.2927   47.6945 H   0  0  0  0  0  0  0  0  0  0  0  0
   57.8164   25.5554   44.6190 H   0  0  0  0  0  0  0  0  0  0  0  0
   57.8971   25.5000   46.4511 H   0  0  0  0  0  0  0  0  0  0  0  0
   55.5834   25.2265   44.6669 H   0  0  0  0  0  0  0  0  0  0  0  0
   55.7832   24.8083   46.4091 H   0  0  0  0  0  0  0  0  0  0  0  0
   55.7660   27.2750   46.5750 H   0  0  0  0  0  0  0  0  0  0  0  0
   58.9201   27.2078   43.9100 H   0  0  0  0  0  0  0  0  0  0  0  0
   57.3516   28.1158   43.6917 H   0  0  0  0  0  0  0  0  0  0  0  0
   60.0356   29.0975   44.5921 H   0  0  0  0  0  0  0  0  0  0  0  0
   58.7475   29.9029   43.6115 H   0  0  0  0  0  0  0  0  0  0  0  0
   60.5347   30.7177   47.0065 H   0  0  0  0  0  0  0  0  0  0  0  0
  1  2  1  0
  2  3  1  0
  3  4  2  0
  4  5  1  0
  5  6  2  0
  6  7  1  0
  7  8  2  0
  8  9  1  0
  9 10  2  0
 10 11  1  0
 11 12  1  0
 12 13  1  0
 13 14  1  0
 14 15  1  0
 15 16  1  0
 16 17  1  0
 14 18  1  0
 18 19  1  0
 10 20  1  0
 20 21  2  0
 21  3  1  0
 20  6  1  0
 19 11  1  0
  1 22  1  0
  1 23  1  0
  1 24  1  0
  4 25  1  0
  5 26  1  0
  7 27  1  0
  8 28  1  0
  9 29  1  0
 12 30  1  0
 12 31  1  0
 13 32  1  0
 13 33  1  0
 15 34  1  0
 15 35  1  0
 16 36  1  0
 16 37  1  0
 17 38  1  0
 18 39  1  0
 18 40  1  0
 19 41  1  0
 19 42  1  0
 21 43  1  0
M  END
>  <UniqueID>  (29) 
28

>  <SMILES>  (29) 
COc1ccc2cccc(N3CCN(CCO)CC3)c2c1

>  <Energy>  (29) 
59.26002391800171

>  <Genealogy>  (29) 
COc1ccc2cccc(N3CCN(CCO)CC3)c2c1 (3D coordinates assigned)
COc1ccc2cccc(N3CCN(CCO)CC3)c2c1 (nonaromatic ring conformer: 59.26002391800171 kcal/mol)

>  <smiles>  (29) 
COc1ccc2cccc(N3CCN(CCO)CC3)c2c1

>  <score_type>  (29) 
oracle

>  <origin>  (29) 
adg

>  <m_score__min__energy>  (29) 
-7.0700000000000003

>  <m_primary>  (29) 
energy

$$$$
29:0
     RDKit          3D

 49 51  0  0  0  0  0  0  0  0999 V2000
   63.3990   33.8310   46.3850 C   0  0  0  0  0  0  0  0  0  0  0  0
   63.1890   33.9040   47.8930 C   0  0  0  0  0  0  0  0  0  0  0  0
   62.0080   33.1380   48.2750 N   0  0  0  0  0  0  0  0  0  0  0  0
   61.8980   31.7970   48.2600 C   0  0  0  0  0  0  0  0  0  0  0  0
   60.6070   31.4770   48.6180 C   0  0  0  0  0  0  0  0  0  0  0  0
   59.9950   30.1090   48.6710 C   0  0  0  0  0  0  0  0  0  0  0  0
   60.4320   29.2860   47.5240 N   0  0  0  0  0  0  0  0  0  0  0  0
   60.1280   29.9550   46.2340 C   0  0  0  0  0  0  0  0  0  0  0  0
   60.1120   28.9550   45.0680 C   0  0  0  0  0  0  0  0  0  0  0  0
   59.0960   27.8850   45.2520 N   0  0  0  0  0  0  0  0  0  0  0  0
   57.9070   28.0830   44.3970 C   0  0  0  0  0  0  0  0  0  0  0  0
   56.6450   28.2160   45.2500 C   0  0  0  0  0  0  0  0  0  0  0  0
   56.1720   29.5600   45.1970 O   0  0  0  0  0  0  0  0  0  0  0  0
   56.7860   30.5890   44.4690 C   0  0  0  0  0  0  0  0  0  0  0  0
   56.7750   30.6290   43.0600 C   0  0  0  0  0  0  0  0  0  0  0  0
   57.4030   31.6780   42.3820 C   0  0  0  0  0  0  0  0  0  0  0  0
   58.0440   32.6920   43.0970 C   0  0  0  0  0  0  0  0  0  0  0  0
   58.0600   32.6590   44.4950 C   0  0  0  0  0  0  0  0  0  0  0  0
   58.9380   34.0450   45.4740 Br  0  0  0  0  0  0  0  0  0  0  0  0
   57.4340   31.6100   45.1760 C   0  0  0  0  0  0  0  0  0  0  0  0
   58.7000   27.6880   46.6650 C   0  0  0  0  0  0  0  0  0  0  0  0
   59.8910   27.9060   47.6090 C   0  0  0  0  0  0  0  0  0  0  0  0
   59.9700   32.6870   48.8190 C   0  0  0  0  0  0  0  0  0  0  0  0
   60.8460   33.6870   48.5990 N   0  0  0  0  0  0  0  0  0  0  0  0
   64.4186   33.4766   46.1735 H   0  0  0  0  0  0  0  0  0  0  0  0
   62.6701   33.1335   45.9466 H   0  0  0  0  0  0  0  0  0  0  0  0
   63.2599   34.8302   45.9466 H   0  0  0  0  0  0  0  0  0  0  0  0
   64.0712   33.4900   48.4031 H   0  0  0  0  0  0  0  0  0  0  0  0
   63.0450   34.9548   48.1848 H   0  0  0  0  0  0  0  0  0  0  0  0
   62.6964   31.0838   48.0071 H   0  0  0  0  0  0  0  0  0  0  0  0
   60.3005   29.6147   49.6050 H   0  0  0  0  0  0  0  0  0  0  0  0
   58.9008   30.2138   48.6291 H   0  0  0  0  0  0  0  0  0  0  0  0
   59.1413   30.4360   46.3052 H   0  0  0  0  0  0  0  0  0  0  0  0
   60.9146   30.6987   46.0385 H   0  0  0  0  0  0  0  0  0  0  0  0
   59.8873   29.4994   44.1390 H   0  0  0  0  0  0  0  0  0  0  0  0
   61.1006   28.4746   45.0250 H   0  0  0  0  0  0  0  0  0  0  0  0
   58.0387   28.9985   43.8015 H   0  0  0  0  0  0  0  0  0  0  0  0
   57.7971   27.2107   43.7359 H   0  0  0  0  0  0  0  0  0  0  0  0
   55.8688   27.5391   44.8636 H   0  0  0  0  0  0  0  0  0  0  0  0
   56.8784   27.9514   46.2919 H   0  0  0  0  0  0  0  0  0  0  0  0
   56.2710   29.8328   42.4925 H   0  0  0  0  0  0  0  0  0  0  0  0
   57.3922   31.7048   41.2824 H   0  0  0  0  0  0  0  0  0  0  0  0
   58.5363   33.5166   42.5606 H   0  0  0  0  0  0  0  0  0  0  0  0
   57.4506   31.5865   46.2756 H   0  0  0  0  0  0  0  0  0  0  0  0
   57.9050   28.4047   46.9184 H   0  0  0  0  0  0  0  0  0  0  0  0
   58.3427   26.6548   46.7866 H   0  0  0  0  0  0  0  0  0  0  0  0
   59.5628   27.7177   48.6419 H   0  0  0  0  0  0  0  0  0  0  0  0
   60.6900   27.2122   47.3086 H   0  0  0  0  0  0  0  0  0  0  0  0
   58.9172   32.8134   49.1115 H   0  0  0  0  0  0  0  0  0  0  0  0
  1  2  1  0
  2  3  1  0
  3  4  1  0
  4  5  2  0
  5  6  1  0
  6  7  1  0
  7  8  1  0
  8  9  1  0
  9 10  1  0
 10 11  1  0
 11 12  1  0
 12 13  1  0
 13 14  1  0
 14 15  2  0
 15 16  1  0
 16 17  2  0
 17 18  1  0
 18 19  1  0
 18 20  2  0
 10 21  1  0
 21 22  1  0
  5 23  1  0
 23 24  2  0
 24  3  1  0
 22  7  1  0
 20 14  1  0
  1 25  1  0
  1 26  1  0
  1 27  1  0
  2 28  1  0
  2 29  1  0
  4 30  1  0
  6 31  1  0
  6 32  1  0
  8 33  1  0
  8 34  1  0
  9 35  1  0
  9 36  1  0
 11 37  1  0
 11 38  1  0
 12 39  1  0
 12 40  1  0
 15 41  1  0
 16 42  1  0
 17 43  1  0
 20 44  1  0
 21 45  1  0
 21 46  1  0
 22 47  1  0
 22 48  1  0
 23 49  1  0
M  END
>  <UniqueID>  (30) 
29

>  <SMILES>  (30) 
CCn1cc(CN2CCN(CCOc3cccc(Br)c3)CC2)cn1

>  <Energy>  (30) 
86.21823607252755

>  <Genealogy>  (30) 
CCn1cc(CN2CCN(CCOc3cccc(Br)c3)CC2)cn1 (3D coordinates assigned)
CCn1cc(CN2CCN(CCOc3cccc(Br)c3)CC2)cn1 (nonaromatic ring conformer: 86.21823607252755 kcal/mol)

>  <smiles>  (30) 
CCn1cc(CN2CCN(CCOc3cccc(Br)c3)CC2)cn1

>  <score_type>  (30) 
oracle

>  <origin>  (30) 
adg

>  <m_score__min__energy>  (30) 
-7.7300000000000004

>  <m_primary>  (30) 
energy

$$$$
30:0
     RDKit          3D

 52 55  0  0  0  0  0  0  0  0999 V2000
   59.2270   30.1320   46.4230 C   0  0  0  0  0  0  0  0  0  0  0  0
   58.0770   29.9870   45.4320 C   0  0  0  0  0  0  0  0  0  0  0  0
   57.4020   31.2880   45.2100 N   0  0  0  0  0  0  0  0  0  0  0  0
   57.7420   31.8240   43.8780 C   0  0  0  0  0  0  0  0  0  0  0  0
   57.7870   32.2620   46.2550 C   0  0  0  0  0  0  0  0  0  0  0  0
   57.6830   33.7070   45.7330 C   0  0  0  0  0  0  0  0  0  0  0  0
   58.8980   34.5700   46.1020 C   0  0  0  0  0  0  0  0  0  0  0  0
   59.1760   34.5270   47.5410 N   0  0  0  0  0  0  0  0  0  0  0  0
   60.0160   33.5330   48.1560 C   0  0  0  0  0  0  0  0  0  0  0  0
   61.3830   33.3420   47.8230 C   0  0  0  0  0  0  0  0  0  0  0  0
   61.9650   33.9960   46.7170 C   0  0  0  0  0  0  0  0  0  0  0  0
   63.3270   33.8710   46.4520 C   0  0  0  0  0  0  0  0  0  0  0  0
   64.1320   33.0910   47.2740 C   0  0  0  0  0  0  0  0  0  0  0  0
   63.5720   32.3720   48.3290 C   0  0  0  0  0  0  0  0  0  0  0  0
   62.1820   32.4240   48.5910 C   0  0  0  0  0  0  0  0  0  0  0  0
   61.5900   31.6170   49.5550 N   0  0  0  0  0  0  0  0  0  0  0  0
   62.3030   30.4820   50.1650 C   0  0  0  0  0  0  0  0  0  0  0  0
   60.2720   31.8400   49.8590 C   0  0  0  0  0  0  0  0  0  0  0  0
   59.4910   32.7320   49.1600 C   0  0  0  0  0  0  0  0  0  0  0  0
   58.2460   32.7170   49.5870 O   0  0  0  0  0  0  0  0  0  0  0  0
   58.1910   31.8490   50.5730 C   0  0  0  0  0  0  0  0  0  0  0  0
   57.0700   31.5180   51.3300 C   0  0  0  0  0  0  0  0  0  0  0  0
   57.2320   30.6130   52.3910 C   0  0  0  0  0  0  0  0  0  0  0  0
   58.5020   30.0710   52.6780 C   0  0  0  0  0  0  0  0  0  0  0  0
   59.6200   30.4090   51.8940 C   0  0  0  0  0  0  0  0  0  0  0  0
   59.4270   31.2800   50.8140 C   0  0  0  0  0  0  0  0  0  0  0  0
   58.8349   30.0826   47.4495 H   0  0  0  0  0  0  0  0  0  0  0  0
   59.9502   29.3179   46.2671 H   0  0  0  0  0  0  0  0  0  0  0  0
   59.7255   31.1001   46.2671 H   0  0  0  0  0  0  0  0  0  0  0  0
   58.4718   29.6181   44.4738 H   0  0  0  0  0  0  0  0  0  0  0  0
   57.3449   29.2775   45.8450 H   0  0  0  0  0  0  0  0  0  0  0  0
   58.3280   32.7478   43.9931 H   0  0  0  0  0  0  0  0  0  0  0  0
   58.3342   31.0808   43.3239 H   0  0  0  0  0  0  0  0  0  0  0  0
   56.8173   32.0430   43.3239 H   0  0  0  0  0  0  0  0  0  0  0  0
   57.1179   32.1437   47.1201 H   0  0  0  0  0  0  0  0  0  0  0  0
   58.8309   32.0696   46.5437 H   0  0  0  0  0  0  0  0  0  0  0  0
   57.5944   33.6777   44.6370 H   0  0  0  0  0  0  0  0  0  0  0  0
   56.8009   34.1636   46.2057 H   0  0  0  0  0  0  0  0  0  0  0  0
   59.7783   34.1978   45.5575 H   0  0  0  0  0  0  0  0  0  0  0  0
   58.6756   35.6114   45.8264 H   0  0  0  0  0  0  0  0  0  0  0  0
   58.9200   35.3700   48.1050 H   0  0  0  0  0  0  0  0  0  0  0  0
   61.3366   34.6115   46.0565 H   0  0  0  0  0  0  0  0  0  0  0  0
   63.7671   34.3917   45.5888 H   0  0  0  0  0  0  0  0  0  0  0  0
   65.2156   33.0408   47.0913 H   0  0  0  0  0  0  0  0  0  0  0  0
   64.2206   31.7546   48.9679 H   0  0  0  0  0  0  0  0  0  0  0  0
   62.2520   30.5632   51.2608 H   0  0  0  0  0  0  0  0  0  0  0  0
   61.8343   29.5398   49.8449 H   0  0  0  0  0  0  0  0  0  0  0  0
   63.3553   30.4953   49.8449 H   0  0  0  0  0  0  0  0  0  0  0  0
   56.0856   31.9532   51.1031 H   0  0  0  0  0  0  0  0  0  0  0  0
   56.3636   30.3251   53.0018 H   0  0  0  0  0  0  0  0  0  0  0  0
   58.6195   29.3770   53.5233 H   0  0  0  0  0  0  0  0  0  0  0  0
   60.6160   30.0016   52.1222 H   0  0  0  0  0  0  0  0  0  0  0  0
  1  2  1  0
  2  3  1  0
  3  4  1  0
  3  5  1  0
  5  6  1  0
  6  7  1  0
  7  8  1  0
  8  9  1  0
  9 10  2  0
 10 11  1  0
 11 12  2  0
 12 13  1  0
 13 14  2  0
 14 15  1  0
 15 16  2  0
 16 17  1  0
 16 18  1  0
 18 19  2  0
 19 20  1  0
 20 21  1  0
 21 22  2  0
 22 23  1  0
 23 24  2  0
 24 25  1  0
 25 26  2  0
 19  9  1  0
 26 21  1  0
 15 10  1  0
 26 18  1  0
  1 27  1  0
  1 28  1  0
  1 29  1  0
  2 30  1  0
  2 31  1  0
  4 32  1  0
  4 33  1  0
  4 34  1  0
  5 35  1  0
  5 36  1  0
  6 37  1  0
  6 38  1  0
  7 39  1  0
  7 40  1  0
  8 41  1  0
 11 42  1  0
 12 43  1  0
 13 44  1  0
 14 45  1  0
 17 46  1  0
 17 47  1  0
 17 48  1  0
 22 49  1  0
 23 50  1  0
 24 51  1  0
 25 52  1  0
M  CHG  1  16   1
M  END
>  <UniqueID>  (31) 
30

>  <SMILES>  (31) 
CCN(C)CCCNc1c2ccccc2[n+](C)c2c1oc1ccccc12

>  <Energy>  (31) 
112.57506627702253

>  <Genealogy>  (31) 
CCN(C)CCCNc1c2ccccc2[n+](C)c2c1oc1ccccc12 (3D coordinates assigned)
CCN(C)CCCNc1c2ccccc2[n+](C)c2c1oc1ccccc12 (optimized conformer: 112.57506627702253 kcal/mol)

>  <smiles>  (31) 
CCN(C)CCCNc1c2ccccc2[n+](C)c2c1oc1ccccc12

>  <score_type>  (31) 
oracle

>  <origin>  (31) 
adg

>  <m_score__min__energy>  (31) 
-5.8499999999999996

>  <m_primary>  (31) 
energy

$$$$
31:0
     RDKit          3D

 42 44  0  0  0  0  0  0  0  0999 V2000
   57.7740   25.2910   44.9480 C   0  0  0  0  0  0  0  0  0  0  0  0
   58.4720   26.3000   45.8180 C   0  0  0  0  0  0  0  0  0  0  0  0
   59.7250   25.9970   46.3750 C   0  0  0  0  0  0  0  0  0  0  0  0
   60.3670   26.9140   47.2120 C   0  0  0  0  0  0  0  0  0  0  0  0
   59.7670   28.1420   47.4940 C   0  0  0  0  0  0  0  0  0  0  0  0
   58.5170   28.4510   46.9520 C   0  0  0  0  0  0  0  0  0  0  0  0
   57.8530   27.5270   46.1290 C   0  0  0  0  0  0  0  0  0  0  0  0
   56.5600   27.8350   45.5910 N   0  0  0  0  0  0  0  0  0  0  0  0
   56.2520   28.9600   44.7540 C   0  0  0  0  0  0  0  0  0  0  0  0
   55.1440   29.5400   44.9040 O   0  0  0  0  0  0  0  0  0  0  0  0
   57.2210   29.4940   43.7300 C   0  0  0  0  0  0  0  0  0  0  0  0
   57.6670   30.8860   44.0680 C   0  0  0  0  0  0  0  0  0  0  0  0
   57.8830   31.8700   43.1040 C   0  0  0  0  0  0  0  0  0  0  0  0
   58.4340   33.2500   43.8910 S   0  0  0  0  0  0  0  0  0  0  0  0
   58.3580   32.5440   45.4190 C   0  0  0  0  0  0  0  0  0  0  0  0
   58.7450   33.1870   46.6480 N   0  0  0  0  0  0  0  0  0  0  0  0
   58.1570   32.7640   47.9280 C   0  0  0  0  0  0  0  0  0  0  0  0
   59.2490   32.6650   49.0020 C   0  0  0  0  0  0  0  0  0  0  0  0
   60.1630   33.9100   49.0670 C   0  0  0  0  0  0  0  0  0  0  0  0
   59.8500   34.9610   47.9930 C   0  0  0  0  0  0  0  0  0  0  0  0
   59.6930   34.3120   46.6140 C   0  0  0  0  0  0  0  0  0  0  0  0
   57.9230   31.2670   45.3490 N   0  0  0  0  0  0  0  0  0  0  0  0
   57.2626   24.5517   45.5819 H   0  0  0  0  0  0  0  0  0  0  0  0
   57.0358   25.8027   44.3129 H   0  0  0  0  0  0  0  0  0  0  0  0
   58.5131   24.7807   44.3129 H   0  0  0  0  0  0  0  0  0  0  0  0
   60.2040   25.0324   46.1513 H   0  0  0  0  0  0  0  0  0  0  0  0
   61.3460   26.6675   47.6488 H   0  0  0  0  0  0  0  0  0  0  0  0
   60.2787   28.8673   48.1436 H   0  0  0  0  0  0  0  0  0  0  0  0
   58.0506   29.4229   47.1710 H   0  0  0  0  0  0  0  0  0  0  0  0
   58.1014   28.8356   43.6936 H   0  0  0  0  0  0  0  0  0  0  0  0
   56.7122   29.5219   42.7552 H   0  0  0  0  0  0  0  0  0  0  0  0
   57.7216   31.7626   42.0212 H   0  0  0  0  0  0  0  0  0  0  0  0
   57.4025   33.5000   48.2428 H   0  0  0  0  0  0  0  0  0  0  0  0
   57.6868   31.7778   47.8002 H   0  0  0  0  0  0  0  0  0  0  0  0
   58.7642   32.5373   49.9811 H   0  0  0  0  0  0  0  0  0  0  0  0
   59.8865   31.8084   48.7379 H   0  0  0  0  0  0  0  0  0  0  0  0
   60.0437   34.3773   50.0556 H   0  0  0  0  0  0  0  0  0  0  0  0
   61.1917   33.5637   48.8883 H   0  0  0  0  0  0  0  0  0  0  0  0
   58.9142   35.4757   48.2563 H   0  0  0  0  0  0  0  0  0  0  0  0
   60.6856   35.6751   47.9495 H   0  0  0  0  0  0  0  0  0  0  0  0
   59.3249   35.0673   45.9041 H   0  0  0  0  0  0  0  0  0  0  0  0
   60.6745   33.9248   46.3029 H   0  0  0  0  0  0  0  0  0  0  0  0
  1  2  1  0
  2  3  2  0
  3  4  1  0
  4  5  2  0
  5  6  1  0
  6  7  2  0
  7  8  1  0
  8  9  1  0
  9 10  2  0
  9 11  1  0
 11 12  1  0
 12 13  2  0
 13 14  1  0
 14 15  1  0
 15 16  1  0
 16 17  1  0
 17 18  1  0
 18 19  1  0
 19 20  1  0
 20 21  1  0
 15 22  2  0
  7  2  1  0
 22 12  1  0
 21 16  1  0
  1 23  1  0
  1 24  1  0
  1 25  1  0
  3 26  1  0
  4 27  1  0
  5 28  1  0
  6 29  1  0
 11 30  1  0
 11 31  1  0
 13 32  1  0
 17 33  1  0
 17 34  1  0
 18 35  1  0
 18 36  1  0
 19 37  1  0
 19 38  1  0
 20 39  1  0
 20 40  1  0
 21 41  1  0
 21 42  1  0
M  CHG  1   8  -1
M  END
>  <UniqueID>  (32) 
31

>  <SMILES>  (32) 
Cc1ccccc1[N-]C(=O)Cc1csc(N2CCCCC2)n1

>  <Energy>  (32) 
73.82198537207461

>  <Genealogy>  (32) 
Cc1ccccc1[N-]C(=O)Cc1csc(N2CCCCC2)n1 (protonated)
Cc1ccccc1[N-]C(=O)Cc1csc(N2CCCCC2)n1 (3D coordinates assigned)
Cc1ccccc1[N-]C(=O)Cc1csc(N2CCCCC2)n1 (nonaromatic ring conformer: 73.82198537207461 kcal/mol)

>  <smiles>  (32) 
Cc1ccccc1NC(=O)Cc1csc(N2CCCCC2)n1

>  <score_type>  (32) 
oracle

>  <origin>  (32) 
adg

>  <m_score__min__energy>  (32) 
-9.6400000000000006

>  <m_primary>  (32) 
energy

$$$$
32:0
     RDKit          3D

 80 82  0  0  0  0  0  0  0  0999 V2000
   64.4560   33.6460   52.1560 C   0  0  0  0  0  0  0  0  0  0  0  0
   64.2900   33.9300   50.7820 O   0  0  0  0  0  0  0  0  0  0  0  0
   64.7620   32.8500   49.9960 C   0  0  0  0  0  0  0  0  0  0  0  0
   64.0820   32.8830   48.6220 C   0  0  0  0  0  0  0  0  0  0  0  0
   63.3340   34.1440   48.4290 N   0  0  0  0  0  0  0  0  0  0  0  0
   61.9150   33.9640   48.1630 C   0  0  0  0  0  0  0  0  0  0  0  0
   61.4300   33.7850   46.8450 C   0  0  0  0  0  0  0  0  0  0  0  0
   60.0590   33.6390   46.5940 C   0  0  0  0  0  0  0  0  0  0  0  0
   59.5820   33.4990   45.2790 C   0  0  0  0  0  0  0  0  0  0  0  0
   58.2020   33.3540   45.0330 C   0  0  0  0  0  0  0  0  0  0  0  0
   57.6730   33.1910   43.7420 O   0  0  0  0  0  0  0  0  0  0  0  0
   57.4950   31.9440   43.0710 C   0  0  0  0  0  0  0  0  0  0  0  0
   58.2640   30.8320   43.7950 C   0  0  0  0  0  0  0  0  0  0  0  0
   57.3650   29.7080   44.1360 N   0  0  0  0  0  0  0  0  0  0  0  0
   55.9630   30.1700   44.1280 C   0  0  0  0  0  0  0  0  0  0  0  0
   57.7130   29.1220   45.4540 C   0  0  0  0  0  0  0  0  0  0  0  0
   59.2320   29.1570   45.6930 C   0  0  0  0  0  0  0  0  0  0  0  0
   59.6190   30.2970   46.5500 N   0  0  0  0  0  0  0  0  0  0  0  0
   61.0650   30.2500   46.8250 C   0  0  0  0  0  0  0  0  0  0  0  0
   58.8780   30.2820   47.8230 C   0  0  0  0  0  0  0  0  0  0  0  0
   57.3090   33.3680   46.1110 C   0  0  0  0  0  0  0  0  0  0  0  0
   57.7750   33.4980   47.4200 C   0  0  0  0  0  0  0  0  0  0  0  0
   59.1480   33.6310   47.6700 C   0  0  0  0  0  0  0  0  0  0  0  0
   59.6230   33.7320   48.9800 C   0  0  0  0  0  0  0  0  0  0  0  0
   60.9960   33.8750   49.2430 C   0  0  0  0  0  0  0  0  0  0  0  0
   61.4620   33.8850   50.6060 N   0  0  0  0  0  0  0  0  0  0  0  0
   60.8790   33.0590   51.6620 C   0  0  0  0  0  0  0  0  0  0  0  0
   60.8460   31.6140   51.2450 C   0  0  0  0  0  0  0  0  0  0  0  0
   62.0320   30.9600   50.8880 C   0  0  0  0  0  0  0  0  0  0  0  0
   62.0100   29.6190   50.5030 C   0  0  0  0  0  0  0  0  0  0  0  0
   60.7980   28.8940   50.4650 C   0  0  0  0  0  0  0  0  0  0  0  0
   60.7690   27.5070   50.0260 N   0  0  0  0  0  0  0  0  0  0  0  0
   60.3950   27.1670   48.6440 C   0  0  0  0  0  0  0  0  0  0  0  0
   61.0990   26.4170   50.9550 C   0  0  0  0  0  0  0  0  0  0  0  0
   59.6150   29.5580   50.8550 C   0  0  0  0  0  0  0  0  0  0  0  0
   59.6410   30.9010   51.2380 C   0  0  0  0  0  0  0  0  0  0  0  0
   63.9901   34.4430   52.7541 H   0  0  0  0  0  0  0  0  0  0  0  0
   63.9782   32.6837   52.3919 H   0  0  0  0  0  0  0  0  0  0  0  0
   65.5290   33.5901   52.3919 H   0  0  0  0  0  0  0  0  0  0  0  0
   65.8511   32.9377   49.8684 H   0  0  0  0  0  0  0  0  0  0  0  0
   64.5273   31.9002   50.4988 H   0  0  0  0  0  0  0  0  0  0  0  0
   64.8497   32.7971   47.8389 H   0  0  0  0  0  0  0  0  0  0  0  0
   63.3736   32.0436   48.5622 H   0  0  0  0  0  0  0  0  0  0  0  0
   63.4380   34.7520   49.2760 H   0  0  0  0  0  0  0  0  0  0  0  0
   63.7720   34.6270   47.6110 H   0  0  0  0  0  0  0  0  0  0  0  0
   62.1401   33.7601   46.0052 H   0  0  0  0  0  0  0  0  0  0  0  0
   60.2901   33.5027   44.4372 H   0  0  0  0  0  0  0  0  0  0  0  0
   56.4245   31.6917   43.0531 H   0  0  0  0  0  0  0  0  0  0  0  0
   57.8798   32.0334   42.0444 H   0  0  0  0  0  0  0  0  0  0  0  0
   59.0683   30.4648   43.1406 H   0  0  0  0  0  0  0  0  0  0  0  0
   58.6844   31.2420   44.7252 H   0  0  0  0  0  0  0  0  0  0  0  0
   55.6094   30.2865   45.1631 H   0  0  0  0  0  0  0  0  0  0  0  0
   55.8985   31.1369   43.6075 H   0  0  0  0  0  0  0  0  0  0  0  0
   55.3363   29.4309   43.6075 H   0  0  0  0  0  0  0  0  0  0  0  0
   57.2115   29.6971   46.2463 H   0  0  0  0  0  0  0  0  0  0  0  0
   57.3816   28.0732   45.4680 H   0  0  0  0  0  0  0  0  0  0  0  0
   59.5384   28.2211   46.1831 H   0  0  0  0  0  0  0  0  0  0  0  0
   59.7321   29.2712   44.7199 H   0  0  0  0  0  0  0  0  0  0  0  0
   61.2315   30.2446   47.9123 H   0  0  0  0  0  0  0  0  0  0  0  0
   61.4926   29.3375   46.3840 H   0  0  0  0  0  0  0  0  0  0  0  0
   61.5510   31.1328   46.3840 H   0  0  0  0  0  0  0  0  0  0  0  0
   59.5896   30.2964   48.6617 H   0  0  0  0  0  0  0  0  0  0  0  0
   58.2273   31.1672   47.8790 H   0  0  0  0  0  0  0  0  0  0  0  0
   58.2637   29.3712   47.8790 H   0  0  0  0  0  0  0  0  0  0  0  0
   56.2289   33.2756   45.9244 H   0  0  0  0  0  0  0  0  0  0  0  0
   57.0627   33.4961   48.2583 H   0  0  0  0  0  0  0  0  0  0  0  0
   58.9115   33.6991   49.8182 H   0  0  0  0  0  0  0  0  0  0  0  0
   62.2260   34.5430   50.8820 H   0  0  0  0  0  0  0  0  0  0  0  0
   61.4847   33.1583   52.5748 H   0  0  0  0  0  0  0  0  0  0  0  0
   59.8496   33.3978   51.8503 H   0  0  0  0  0  0  0  0  0  0  0  0
   62.9863   31.5067   50.9113 H   0  0  0  0  0  0  0  0  0  0  0  0
   62.9497   29.1192   50.2251 H   0  0  0  0  0  0  0  0  0  0  0  0
   59.5811   26.4271   48.6559 H   0  0  0  0  0  0  0  0  0  0  0  0
   60.0580   28.0744   48.1215 H   0  0  0  0  0  0  0  0  0  0  0  0
   61.2663   26.7453   48.1215 H   0  0  0  0  0  0  0  0  0  0  0  0
   60.9914   26.7725   51.9904 H   0  0  0  0  0  0  0  0  0  0  0  0
   60.4167   25.5711   50.7850 H   0  0  0  0  0  0  0  0  0  0  0  0
   62.1359   26.0916   50.7850 H   0  0  0  0  0  0  0  0  0  0  0  0
   58.6607   29.0109   50.8573 H   0  0  0  0  0  0  0  0  0  0  0  0
   58.7082   31.4020   51.5362 H   0  0  0  0  0  0  0  0  0  0  0  0
  1  2  1  0
  2  3  1  0
  3  4  1  0
  4  5  1  0
  5  6  1  0
  6  7  2  0
  7  8  1  0
  8  9  2  0
  9 10  1  0
 10 11  1  0
 11 12  1  0
 12 13  1  0
 13 14  1  0
 14 15  1  0
 14 16  1  0
 16 17  1  0
 17 18  1  0
 18 19  1  0
 18 20  1  0
 10 21  2  0
 21 22  1  0
 22 23  2  0
 23 24  1  0
 24 25  2  0
 25 26  1  0
 26 27  1  0
 27 28  1  0
 28 29  2  0
 29 30  1  0
 30 31  2  0
 31 32  1  0
 32 33  1  0
 32 34  1  0
 31 35  1  0
 35 36  2  0
 25  6  1  0
 36 28  1  0
 23  8  1  0
  1 37  1  0
  1 38  1  0
  1 39  1  0
  3 40  1  0
  3 41  1  0
  4 42  1  0
  4 43  1  0
  5 44  1  0
  5 45  1  0
  7 46  1  0
  9 47  1  0
 12 48  1  0
 12 49  1  0
 13 50  1  0
 13 51  1  0
 15 52  1  0
 15 53  1  0
 15 54  1  0
 16 55  1  0
 16 56  1  0
 17 57  1  0
 17 58  1  0
 19 59  1  0
 19 60  1  0
 19 61  1  0
 20 62  1  0
 20 63  1  0
 20 64  1  0
 21 65  1  0
 22 66  1  0
 24 67  1  0
 26 68  1  0
 27 69  1  0
 27 70  1  0
 29 71  1  0
 30 72  1  0
 33 73  1  0
 33 74  1  0
 33 75  1  0
 34 76  1  0
 34 77  1  0
 34 78  1  0
 35 79  1  0
 36 80  1  0
M  CHG  1   5   1
M  END
>  <UniqueID>  (33) 
32

>  <SMILES>  (33) 
COCC[NH2+]c1cc2cc(OCCN(C)CCN(C)C)ccc2cc1NCc1ccc(N(C)C)cc1

>  <Energy>  (33) 
91.22788816199294

>  <Genealogy>  (33) 
COCC[NH2+]c1cc2cc(OCCN(C)CCN(C)C)ccc2cc1NCc1ccc(N(C)C)cc1 (protonated)
COCC[NH2+]c1cc2cc(OCCN(C)CCN(C)C)ccc2cc1NCc1ccc(N(C)C)cc1 (3D coordinates assigned)
COCC[NH2+]c1cc2cc(OCCN(C)CCN(C)C)ccc2cc1NCc1ccc(N(C)C)cc1 (optimized conformer: 91.22788816199294 kcal/mol)

>  <smiles>  (33) 
COCCNc1cc2cc(OCCN(C)CCN(C)C)ccc2cc1NCc1ccc(N(C)C)cc1

>  <score_type>  (33) 
oracle

>  <origin>  (33) 
adg

>  <m_score__min__energy>  (33) 
-6.0800000000000001

>  <m_primary>  (33) 
energy

$$$$
33:0
     RDKit          3D

 41 43  0  0  0  0  0  0  0  0999 V2000
   56.2710   29.3900   42.7120 C   0  0  0  0  0  0  0  0  0  0  0  0
   57.0160   30.5680   43.2660 C   0  0  0  0  0  0  0  0  0  0  0  0
   57.4570   31.5990   42.4020 C   0  0  0  0  0  0  0  0  0  0  0  0
   58.1240   32.7230   42.9150 C   0  0  0  0  0  0  0  0  0  0  0  0
   58.3210   32.7960   44.2920 C   0  0  0  0  0  0  0  0  0  0  0  0
   57.8850   31.8080   45.1460 C   0  0  0  0  0  0  0  0  0  0  0  0
   57.2230   30.6810   44.6570 C   0  0  0  0  0  0  0  0  0  0  0  0
   58.2350   32.1330   46.5700 C   0  0  0  0  0  0  0  0  0  0  0  0
   58.8740   33.4530   46.4760 N   0  0  0  0  0  0  0  0  0  0  0  0
   59.6520   34.0750   47.5520 C   0  0  0  0  0  0  0  0  0  0  0  0
   60.9030   33.2510   47.9340 C   0  0  0  0  0  0  0  0  0  0  0  0
   62.0380   33.3850   46.8940 C   0  0  0  0  0  0  0  0  0  0  0  0
   63.3660   32.9260   47.5040 C   0  0  0  0  0  0  0  0  0  0  0  0
   63.7840   33.8010   48.6270 N   0  0  0  0  0  0  0  0  0  0  0  0
   64.7110   33.0850   49.5200 C   0  0  0  0  0  0  0  0  0  0  0  0
   62.6600   34.4080   49.3870 C   0  0  0  0  0  0  0  0  0  0  0  0
   61.3950   33.5350   49.3750 C   0  0  0  0  0  0  0  0  0  0  0  0
   58.9590   33.8060   45.0950 C   0  0  0  0  0  0  0  0  0  0  0  0
   59.5550   34.8240   44.6530 O   0  0  0  0  0  0  0  0  0  0  0  0
   55.8841   28.7783   43.5403 H   0  0  0  0  0  0  0  0  0  0  0  0
   55.4322   29.7440   42.0947 H   0  0  0  0  0  0  0  0  0  0  0  0
   56.9503   28.7838   42.0947 H   0  0  0  0  0  0  0  0  0  0  0  0
   57.2757   31.5189   41.3200 H   0  0  0  0  0  0  0  0  0  0  0  0
   58.4806   33.5225   42.2490 H   0  0  0  0  0  0  0  0  0  0  0  0
   56.8697   29.8965   45.3423 H   0  0  0  0  0  0  0  0  0  0  0  0
   57.3317   32.1776   47.1961 H   0  0  0  0  0  0  0  0  0  0  0  0
   58.8841   31.3759   47.0341 H   0  0  0  0  0  0  0  0  0  0  0  0
   59.9751   35.0732   47.2215 H   0  0  0  0  0  0  0  0  0  0  0  0
   59.0060   34.1312   48.4406 H   0  0  0  0  0  0  0  0  0  0  0  0
   60.5845   32.1982   47.9206 H   0  0  0  0  0  0  0  0  0  0  0  0
   61.8048   32.7615   46.0183 H   0  0  0  0  0  0  0  0  0  0  0  0
   62.1259   34.4385   46.5899 H   0  0  0  0  0  0  0  0  0  0  0  0
   63.2507   31.8976   47.8769 H   0  0  0  0  0  0  0  0  0  0  0  0
   64.1387   32.9770   46.7228 H   0  0  0  0  0  0  0  0  0  0  0  0
   64.4441   33.2911   50.5670 H   0  0  0  0  0  0  0  0  0  0  0  0
   64.6416   32.0038   49.3299 H   0  0  0  0  0  0  0  0  0  0  0  0
   65.7396   33.4254   49.3299 H   0  0  0  0  0  0  0  0  0  0  0  0
   62.9780   34.5522   50.4301 H   0  0  0  0  0  0  0  0  0  0  0  0
   62.4089   35.3629   48.9021 H   0  0  0  0  0  0  0  0  0  0  0  0
   61.6185   32.5782   49.8695 H   0  0  0  0  0  0  0  0  0  0  0  0
   60.6000   34.0794   49.9056 H   0  0  0  0  0  0  0  0  0  0  0  0
  1  2  1  0
  2  3  2  0
  3  4  1  0
  4  5  2  0
  5  6  1  0
  6  7  2  0
  6  8  1  0
  8  9  1  0
  9 10  1  0
 10 11  1  0
 11 12  1  0
 12 13  1  0
 13 14  1  0
 14 15  1  0
 14 16  1  0
 16 17  1  0
  9 18  1  0
 18 19  2  0
  7  2  1  0
 17 11  1  0
 18  5  1  0
  1 20  1  0
  1 21  1  0
  1 22  1  0
  3 23  1  0
  4 24  1  0
  7 25  1  0
  8 26  1  0
  8 27  1  0
 10 28  1  0
 10 29  1  0
 11 30  1  0
 12 31  1  0
 12 32  1  0
 13 33  1  0
 13 34  1  0
 15 35  1  0
 15 36  1  0
 15 37  1  0
 16 38  1  0
 16 39  1  0
 17 40  1  0
 17 41  1  0
M  END
>  <UniqueID>  (34) 
33

>  <SMILES>  (34) 
Cc1ccc2c(c1)CN(CC1CCN(C)CC1)C2=O

>  <Energy>  (34) 
68.32276503262234

>  <Genealogy>  (34) 
Cc1ccc2c(c1)CN(CC1CCN(C)CC1)C2=O (3D coordinates assigned)
Cc1ccc2c(c1)CN(CC1CCN(C)CC1)C2=O (nonaromatic ring conformer: 68.32276503262234 kcal/mol)

>  <smiles>  (34) 
Cc1ccc2c(c1)CN(CC1CCN(C)CC1)C2=O

>  <score_type>  (34) 
oracle

>  <origin>  (34) 
adg

>  <m_score__min__energy>  (34) 
-7.4100000000000001

>  <m_primary>  (34) 
energy

$$$$
34:0
     RDKit          3D

 43 45  0  0  0  0  0  0  0  0999 V2000
   56.3020   30.0930   43.0430 C   0  0  0  0  0  0  0  0  0  0  0  0
   56.5030   30.5180   44.4930 C   0  0  0  0  0  0  0  0  0  0  0  0
   57.8330   31.1600   44.6760 N   0  0  0  0  0  0  0  0  0  0  0  0
   58.9060   30.1490   44.4920 C   0  0  0  0  0  0  0  0  0  0  0  0
   58.6670   28.9180   45.3280 C   0  0  0  0  0  0  0  0  0  0  0  0
   58.6050   28.9520   46.6750 N   0  0  0  0  0  0  0  0  0  0  0  0
   58.3050   27.7000   47.0620 C   0  0  0  0  0  0  0  0  0  0  0  0
   58.1640   26.9200   45.9370 C   0  0  0  0  0  0  0  0  0  0  0  0
   57.6370   25.0800   45.9330 Br  0  0  0  0  0  0  0  0  0  0  0  0
   58.3930   27.6820   44.8450 N   0  0  0  0  0  0  0  0  0  0  0  0
   58.1490   27.2980   43.4560 C   0  0  0  0  0  0  0  0  0  0  0  0
   57.8720   31.9250   45.9650 C   0  0  2  0  0  0  0  0  0  0  0  0
   57.0250   33.2070   45.8250 C   0  0  0  0  0  0  0  0  0  0  0  0
   57.7000   34.1920   44.8660 C   0  0  0  0  0  0  0  0  0  0  0  0
   59.0650   34.6470   45.3960 C   0  0  0  0  0  0  0  0  0  0  0  0
   59.8460   33.5570   46.0930 C   0  0  0  0  0  0  0  0  0  0  0  0
   61.1420   33.8390   46.5450 C   0  0  0  0  0  0  0  0  0  0  0  0
   61.8310   32.9160   47.3280 C   0  0  0  0  0  0  0  0  0  0  0  0
   61.2120   31.7150   47.6710 C   0  0  0  0  0  0  0  0  0  0  0  0
   59.9610   31.4420   47.2180 N   0  0  0  0  0  0  0  0  0  0  0  0
   59.2650   32.3130   46.4340 C   0  0  0  0  0  0  0  0  0  0  0  0
   55.8319   29.0989   43.0141 H   0  0  0  0  0  0  0  0  0  0  0  0
   55.6526   30.8207   42.5343 H   0  0  0  0  0  0  0  0  0  0  0  0
   57.2765   30.0527   42.5343 H   0  0  0  0  0  0  0  0  0  0  0  0
   55.7156   31.2339   44.7714 H   0  0  0  0  0  0  0  0  0  0  0  0
   56.4518   29.6245   45.1326 H   0  0  0  0  0  0  0  0  0  0  0  0
   58.9421   29.8576   43.4319 H   0  0  0  0  0  0  0  0  0  0  0  0
   59.8573   30.5992   44.8119 H   0  0  0  0  0  0  0  0  0  0  0  0
   58.7190   29.7830   47.2950 H   0  0  0  0  0  0  0  0  0  0  0  0
   58.1915   27.3573   48.1011 H   0  0  0  0  0  0  0  0  0  0  0  0
   57.5592   26.3698   43.4304 H   0  0  0  0  0  0  0  0  0  0  0  0
   57.5940   28.0993   42.9461 H   0  0  0  0  0  0  0  0  0  0  0  0
   59.1101   27.1359   42.9461 H   0  0  0  0  0  0  0  0  0  0  0  0
   57.4672   31.2419   46.7263 H   0  0  0  0  0  0  0  0  0  0  0  0
   56.0313   32.9437   45.4336 H   0  0  0  0  0  0  0  0  0  0  0  0
   56.9293   33.6806   46.8132 H   0  0  0  0  0  0  0  0  0  0  0  0
   57.8404   33.7023   43.8911 H   0  0  0  0  0  0  0  0  0  0  0  0
   57.0545   35.0775   44.7703 H   0  0  0  0  0  0  0  0  0  0  0  0
   59.6619   35.0120   44.5472 H   0  0  0  0  0  0  0  0  0  0  0  0
   58.8720   35.4297   46.1444 H   0  0  0  0  0  0  0  0  0  0  0  0
   61.6179   34.7947   46.2799 H   0  0  0  0  0  0  0  0  0  0  0  0
   62.8531   33.1325   47.6722 H   0  0  0  0  0  0  0  0  0  0  0  0
   61.7368   30.9883   48.3086 H   0  0  0  0  0  0  0  0  0  0  0  0
  1  2  1  0
  2  3  1  0
  3  4  1  0
  4  5  1  0
  5  6  2  0
  6  7  1  0
  7  8  2  0
  8  9  1  0
  8 10  1  0
 10 11  1  0
  3 12  1  0
 12 13  1  0
 13 14  1  0
 14 15  1  0
 15 16  1  0
 16 17  2  0
 17 18  1  0
 18 19  2  0
 19 20  1  0
 20 21  2  0
 10  5  1  0
 21 12  1  0
 21 16  1  0
  1 22  1  0
  1 23  1  0
  1 24  1  0
  2 25  1  0
  2 26  1  0
  4 27  1  0
  4 28  1  0
  6 29  1  0
  7 30  1  0
 11 31  1  0
 11 32  1  0
 11 33  1  0
 12 34  1  1
 13 35  1  0
 13 36  1  0
 14 37  1  0
 14 38  1  0
 15 39  1  0
 15 40  1  0
 17 41  1  0
 18 42  1  0
 19 43  1  0
M  CHG  1   6   1
M  END
>  <UniqueID>  (35) 
34

>  <SMILES>  (35) 
CCN(Cc1[nH+]cc(Br)n1C)[C@@H]1CCCc2cccnc21

>  <Energy>  (35) 
80.30192726984262

>  <Genealogy>  (35) 
CCN(Cc1[nH+]cc(Br)n1C)C1CCCc2cccnc21 (protonated)
CCN(Cc1[nH+]cc(Br)n1C)[C@@H]1CCCc2cccnc21 (chirality)
CCN(Cc1[nH+]cc(Br)n1C)[C@@H]1CCCc2cccnc21 (3D coordinates assigned)
CCN(Cc1[nH+]cc(Br)n1C)[C@@H]1CCCc2cccnc21 (nonaromatic ring conformer: 80.30192726984262 kcal/mol)

>  <smiles>  (35) 
CCN(Cc1ncc(Br)n1C)C1CCCc2cccnc21

>  <score_type>  (35) 
oracle

>  <origin>  (35) 
adg

>  <m_score__min__energy>  (35) 
-5.6299999999999999

>  <m_primary>  (35) 
energy

$$$$
35:0
     RDKit          3D

 43 45  0  0  0  0  0  0  0  0999 V2000
   56.7520   30.7100   43.0020 C   0  0  0  0  0  0  0  0  0  0  0  0
   57.3390   30.8400   44.3740 C   0  0  0  0  0  0  0  0  0  0  0  0
   57.6660   32.0100   45.0420 C   0  0  0  0  0  0  0  0  0  0  0  0
   57.5340   33.4090   44.5190 C   0  0  0  0  0  0  0  0  0  0  0  0
   57.8670   34.3960   45.5590 N   0  0  0  0  0  0  0  0  0  0  0  0
   59.2460   34.9000   45.4430 C   0  0  0  0  0  0  0  0  0  0  0  0
   60.0880   34.4250   46.5980 C   0  0  0  0  0  0  0  0  0  0  0  0
   61.3520   33.8520   46.3750 C   0  0  0  0  0  0  0  0  0  0  0  0
   62.1510   33.4640   47.4540 C   0  0  0  0  0  0  0  0  0  0  0  0
   61.6890   33.6300   48.7630 C   0  0  0  0  0  0  0  0  0  0  0  0
   60.4240   34.1760   48.9920 C   0  0  0  0  0  0  0  0  0  0  0  0
   59.6240   34.5710   47.9160 C   0  0  0  0  0  0  0  0  0  0  0  0
   58.2240   31.7130   46.2320 N   0  0  0  0  0  0  0  0  0  0  0  0
   58.2760   30.3930   46.3340 N   0  0  0  0  0  0  0  0  0  0  0  0
   58.8780   29.7110   47.4750 C   0  0  0  0  0  0  0  0  0  0  0  0
   57.7520   29.8260   45.2240 C   0  0  0  0  0  0  0  0  0  0  0  0
   57.6950   28.3730   44.9540 C   0  0  0  0  0  0  0  0  0  0  0  0
   58.1910   27.8550   43.7460 C   0  0  0  0  0  0  0  0  0  0  0  0
   58.1300   26.4820   43.4890 C   0  0  0  0  0  0  0  0  0  0  0  0
   57.5760   25.6160   44.4360 C   0  0  0  0  0  0  0  0  0  0  0  0
   57.0840   26.1230   45.6420 C   0  0  0  0  0  0  0  0  0  0  0  0
   57.1450   27.4950   45.9020 C   0  0  0  0  0  0  0  0  0  0  0  0
   55.6809   30.4728   43.0824 H   0  0  0  0  0  0  0  0  0  0  0  0
   56.8778   31.6578   42.4580 H   0  0  0  0  0  0  0  0  0  0  0  0
   57.2662   29.9040   42.4580 H   0  0  0  0  0  0  0  0  0  0  0  0
   58.2172   33.5402   43.6670 H   0  0  0  0  0  0  0  0  0  0  0  0
   56.4916   33.5686   44.2061 H   0  0  0  0  0  0  0  0  0  0  0  0
   57.7900   33.9070   46.4820 H   0  0  0  0  0  0  0  0  0  0  0  0
   59.6852   34.5356   44.5026 H   0  0  0  0  0  0  0  0  0  0  0  0
   59.2215   35.9997   45.4533 H   0  0  0  0  0  0  0  0  0  0  0  0
   61.7140   33.7083   45.3463 H   0  0  0  0  0  0  0  0  0  0  0  0
   63.1444   33.0276   47.2731 H   0  0  0  0  0  0  0  0  0  0  0  0
   62.3213   33.3308   49.6120 H   0  0  0  0  0  0  0  0  0  0  0  0
   60.0563   34.2955   50.0218 H   0  0  0  0  0  0  0  0  0  0  0  0
   58.6274   34.9978   48.1019 H   0  0  0  0  0  0  0  0  0  0  0  0
   58.4926   30.1476   48.4082 H   0  0  0  0  0  0  0  0  0  0  0  0
   58.6242   28.6413   47.4384 H   0  0  0  0  0  0  0  0  0  0  0  0
   59.9709   29.8300   47.4384 H   0  0  0  0  0  0  0  0  0  0  0  0
   58.6294   28.5328   42.9988 H   0  0  0  0  0  0  0  0  0  0  0  0
   58.5185   26.0829   42.5404 H   0  0  0  0  0  0  0  0  0  0  0  0
   57.5273   24.5361   44.2323 H   0  0  0  0  0  0  0  0  0  0  0  0
   56.6483   25.4415   46.3874 H   0  0  0  0  0  0  0  0  0  0  0  0
   56.7602   27.8891   46.8542 H   0  0  0  0  0  0  0  0  0  0  0  0
  1  2  1  0
  2  3  1  0
  3  4  1  0
  4  5  1  0
  5  6  1  0
  6  7  1  0
  7  8  2  0
  8  9  1  0
  9 10  2  0
 10 11  1  0
 11 12  2  0
  3 13  2  0
 13 14  1  0
 14 15  1  0
 14 16  1  0
 16 17  1  0
 17 18  2  0
 18 19  1  0
 19 20  2  0
 20 21  1  0
 21 22  2  0
 16  2  2  0
 22 17  1  0
 12  7  1  0
  1 23  1  0
  1 24  1  0
  1 25  1  0
  4 26  1  0
  4 27  1  0
  5 28  1  0
  6 29  1  0
  6 30  1  0
  8 31  1  0
  9 32  1  0
 10 33  1  0
 11 34  1  0
 12 35  1  0
 15 36  1  0
 15 37  1  0
 15 38  1  0
 18 39  1  0
 19 40  1  0
 20 41  1  0
 21 42  1  0
 22 43  1  0
M  END
>  <UniqueID>  (36) 
35

>  <SMILES>  (36) 
Cc1c(CNCc2ccccc2)nn(C)c1-c1ccccc1

>  <Energy>  (36) 
73.87061048882653

>  <Genealogy>  (36) 
Cc1c(CNCc2ccccc2)nn(C)c1-c1ccccc1 (3D coordinates assigned)
Cc1c(CNCc2ccccc2)nn(C)c1-c1ccccc1 (optimized conformer: 73.87061048882653 kcal/mol)

>  <smiles>  (36) 
Cc1c(CNCc2ccccc2)nn(C)c1-c1ccccc1

>  <score_type>  (36) 
oracle

>  <origin>  (36) 
adg

>  <m_score__min__energy>  (36) 
-7.3200000000000003

>  <m_primary>  (36) 
energy

$$$$
36:0
     RDKit          3D

 70 73  0  0  0  0  0  0  0  0999 V2000
   58.1660   27.0760   43.4910 C   0  0  0  0  0  0  0  0  0  0  0  0
   58.0520   26.6990   44.9090 N   0  0  0  0  0  0  0  0  0  0  0  0
   57.3410   25.4200   45.0670 C   0  0  0  0  0  0  0  0  0  0  0  0
   59.3460   26.7370   45.6280 C   0  0  0  0  0  0  0  0  0  0  0  0
   59.5870   28.0350   46.4340 C   0  0  0  0  0  0  0  0  0  0  0  0
   58.3450   28.8070   46.6480 N   0  0  0  0  0  0  0  0  0  0  0  0
   58.5500   30.2470   46.5160 C   0  0  0  0  0  0  0  0  0  0  0  0
   58.2490   30.9310   45.3010 C   0  0  0  0  0  0  0  0  0  0  0  0
   57.6830   30.2710   44.1780 C   0  0  0  0  0  0  0  0  0  0  0  0
   57.3500   30.9680   43.0200 C   0  0  0  0  0  0  0  0  0  0  0  0
   57.5550   32.3350   42.9470 C   0  0  0  0  0  0  0  0  0  0  0  0
   58.1190   33.0130   44.0210 C   0  0  0  0  0  0  0  0  0  0  0  0
   58.5120   32.3290   45.2020 C   0  0  0  0  0  0  0  0  0  0  0  0
   59.1210   33.0000   46.2410 N   0  0  0  0  0  0  0  0  0  0  0  0
   59.6790   34.3540   46.0200 C   0  0  0  0  0  0  0  0  0  0  0  0
   59.2370   32.4040   47.4780 C   0  0  0  0  0  0  0  0  0  0  0  0
   59.5640   33.1640   48.6310 C   0  0  0  0  0  0  0  0  0  0  0  0
   59.7580   32.5670   49.8750 C   0  0  0  0  0  0  0  0  0  0  0  0
   60.0680   33.3940   50.9670 O   0  0  0  0  0  0  0  0  0  0  0  0
   61.3800   33.8090   51.3540 C   0  0  0  0  0  0  0  0  0  0  0  0
   62.4280   32.6920   51.1040 C   0  0  0  0  0  0  0  0  0  0  0  0
   63.1580   32.7650   49.7950 N   0  0  0  0  0  0  0  0  0  0  0  0
   64.6050   32.8960   50.1300 C   0  0  0  0  0  0  0  0  0  0  0  0
   62.9530   31.4920   49.0120 C   0  0  0  0  0  0  0  0  0  0  0  0
   62.6350   31.7090   47.5190 C   0  0  0  0  0  0  0  0  0  0  0  0
   63.5430   32.7790   46.9180 C   0  0  0  0  0  0  0  0  0  0  0  0
   63.4260   34.1190   47.6650 C   0  0  0  0  0  0  0  0  0  0  0  0
   62.7320   33.9820   49.0360 C   0  0  0  0  0  0  0  0  0  0  0  0
   59.6370   31.1790   49.9880 C   0  0  0  0  0  0  0  0  0  0  0  0
   59.2630   30.4140   48.8880 C   0  0  0  0  0  0  0  0  0  0  0  0
   59.0150   31.0080   47.6250 C   0  0  0  0  0  0  0  0  0  0  0  0
   58.4836   28.1264   43.4153 H   0  0  0  0  0  0  0  0  0  0  0  0
   58.9095   26.4317   42.9989 H   0  0  0  0  0  0  0  0  0  0  0  0
   57.1901   26.9517   42.9989 H   0  0  0  0  0  0  0  0  0  0  0  0
   57.2180   25.1987   46.1375 H   0  0  0  0  0  0  0  0  0  0  0  0
   56.3518   25.4891   44.5908 H   0  0  0  0  0  0  0  0  0  0  0  0
   57.9218   24.6163   44.5908 H   0  0  0  0  0  0  0  0  0  0  0  0
   59.3779   25.8871   46.3256 H   0  0  0  0  0  0  0  0  0  0  0  0
   60.1341   26.6903   44.8620 H   0  0  0  0  0  0  0  0  0  0  0  0
   60.0100   27.7684   47.4138 H   0  0  0  0  0  0  0  0  0  0  0  0
   60.2768   28.6656   45.8538 H   0  0  0  0  0  0  0  0  0  0  0  0
   57.9010   28.5350   47.5490 H   0  0  0  0  0  0  0  0  0  0  0  0
   57.6270   28.4990   45.9550 H   0  0  0  0  0  0  0  0  0  0  0  0
   57.5041   29.1866   44.2243 H   0  0  0  0  0  0  0  0  0  0  0  0
   56.9227   30.4309   42.1604 H   0  0  0  0  0  0  0  0  0  0  0  0
   57.2712   32.8853   42.0378 H   0  0  0  0  0  0  0  0  0  0  0  0
   58.2640   34.1014   43.9551 H   0  0  0  0  0  0  0  0  0  0  0  0
   59.8761   34.8323   46.9908 H   0  0  0  0  0  0  0  0  0  0  0  0
   60.6181   34.2755   45.4525 H   0  0  0  0  0  0  0  0  0  0  0  0
   58.9573   34.9599   45.4525 H   0  0  0  0  0  0  0  0  0  0  0  0
   59.6672   34.2554   48.5401 H   0  0  0  0  0  0  0  0  0  0  0  0
   61.6599   34.6985   50.7706 H   0  0  0  0  0  0  0  0  0  0  0  0
   61.3666   34.0343   52.4306 H   0  0  0  0  0  0  0  0  0  0  0  0
   63.1745   32.7425   51.9104 H   0  0  0  0  0  0  0  0  0  0  0  0
   61.8612   31.7496   51.0787 H   0  0  0  0  0  0  0  0  0  0  0  0
   64.7288   32.9072   51.2230 H   0  0  0  0  0  0  0  0  0  0  0  0
   65.1579   32.0442   49.7071 H   0  0  0  0  0  0  0  0  0  0  0  0
   64.9959   33.8332   49.7071 H   0  0  0  0  0  0  0  0  0  0  0  0
   63.8716   30.8913   49.0847 H   0  0  0  0  0  0  0  0  0  0  0  0
   62.0778   30.9902   49.4505 H   0  0  0  0  0  0  0  0  0  0  0  0
   62.7857   30.7634   46.9776 H   0  0  0  0  0  0  0  0  0  0  0  0
   61.5908   32.0424   47.4272 H   0  0  0  0  0  0  0  0  0  0  0  0
   64.5854   32.4318   46.9722 H   0  0  0  0  0  0  0  0  0  0  0  0
   63.2322   32.9425   45.8755 H   0  0  0  0  0  0  0  0  0  0  0  0
   64.4370   34.5231   47.8219 H   0  0  0  0  0  0  0  0  0  0  0  0
   62.8094   34.7889   47.0477 H   0  0  0  0  0  0  0  0  0  0  0  0
   62.9705   34.8708   49.6386 H   0  0  0  0  0  0  0  0  0  0  0  0
   61.6525   33.8874   48.8471 H   0  0  0  0  0  0  0  0  0  0  0  0
   59.8386   30.6890   50.9520 H   0  0  0  0  0  0  0  0  0  0  0  0
   59.1574   29.3249   49.0006 H   0  0  0  0  0  0  0  0  0  0  0  0
  1  2  1  0
  2  3  1  0
  2  4  1  0
  4  5  1  0
  5  6  1  0
  6  7  1  0
  7  8  2  0
  8  9  1  0
  9 10  2  0
 10 11  1  0
 11 12  2  0
 12 13  1  0
 13 14  2  0
 14 15  1  0
 14 16  1  0
 16 17  2  0
 17 18  1  0
 18 19  1  0
 19 20  1  0
 20 21  1  0
 21 22  1  0
 22 23  1  0
 22 24  1  0
 24 25  1  0
 25 26  1  0
 26 27  1  0
 27 28  1  0
 18 29  2  0
 29 30  1  0
 30 31  2  0
 31  7  1  0
 13  8  1  0
 31 16  1  0
 28 22  1  0
  1 32  1  0
  1 33  1  0
  1 34  1  0
  3 35  1  0
  3 36  1  0
  3 37  1  0
  4 38  1  0
  4 39  1  0
  5 40  1  0
  5 41  1  0
  6 42  1  0
  6 43  1  0
  9 44  1  0
 10 45  1  0
 11 46  1  0
 12 47  1  0
 15 48  1  0
 15 49  1  0
 15 50  1  0
 17 51  1  0
 20 52  1  0
 20 53  1  0
 21 54  1  0
 21 55  1  0
 23 56  1  0
 23 57  1  0
 23 58  1  0
 24 59  1  0
 24 60  1  0
 25 61  1  0
 25 62  1  0
 26 63  1  0
 26 64  1  0
 27 65  1  0
 27 66  1  0
 28 67  1  0
 28 68  1  0
 29 69  1  0
 30 70  1  0
M  CHG  3   6   1  14   1  22   1
M  END
>  <UniqueID>  (37) 
36

>  <SMILES>  (37) 
CN(C)CC[NH2+]c1c2ccccc2[n+](C)c2cc(OCC[N+]3(C)CCCCC3)ccc12

>  <Energy>  (37) 
121.89120986549172

>  <Genealogy>  (37) 
CN(C)CC[NH2+]c1c2ccccc2[n+](C)c2cc(OCC[N+]3(C)CCCCC3)ccc12 (protonated)
CN(C)CC[NH2+]c1c2ccccc2[n+](C)c2cc(OCC[N+]3(C)CCCCC3)ccc12 (3D coordinates assigned)
CN(C)CC[NH2+]c1c2ccccc2[n+](C)c2cc(OCC[N+]3(C)CCCCC3)ccc12 (nonaromatic ring conformer: 121.89120986549172 kcal/mol)

>  <smiles>  (37) 
CN(C)CCNc1c2ccccc2[n+](C)c2cc(OCC[N+]3(C)CCCCC3)ccc12

>  <score_type>  (37) 
oracle

>  <origin>  (37) 
adg

>  <m_score__min__energy>  (37) 
-3.23

>  <m_primary>  (37) 
energy

$$$$
37:0
     RDKit          3D

 57 59  0  0  0  0  0  0  0  0999 V2000
   58.9010   29.7430   49.7600 C   0  0  0  0  0  0  0  0  0  0  0  0
   60.1910   30.0480   50.5200 C   0  0  0  0  0  0  0  0  0  0  0  0
   60.5600   31.4760   50.3240 N   0  0  0  0  0  0  0  0  0  0  0  0
   59.3860   32.3780   50.4450 C   0  0  0  0  0  0  0  0  0  0  0  0
   59.7710   33.8210   50.1060 C   0  0  0  0  0  0  0  0  0  0  0  0
   61.6470   31.8960   51.2430 C   0  0  0  0  0  0  0  0  0  0  0  0
   62.9820   32.0600   50.4840 C   0  0  0  0  0  0  0  0  0  0  0  0
   63.0060   31.2360   49.3250 O   0  0  0  0  0  0  0  0  0  0  0  0
   63.4350   31.9620   48.1900 C   0  0  0  0  0  0  0  0  0  0  0  0
   62.2870   31.9890   47.1730 C   0  0  0  0  0  0  0  0  0  0  0  0
   60.9950   31.5910   47.7640 N   0  0  0  0  0  0  0  0  0  0  0  0
   59.9810   31.3450   46.7430 C   0  0  0  0  0  0  0  0  0  0  0  0
   59.2840   32.4390   46.1530 C   0  0  0  0  0  0  0  0  0  0  0  0
   59.5320   33.7800   46.5450 C   0  0  0  0  0  0  0  0  0  0  0  0
   58.8960   34.8460   45.9130 C   0  0  0  0  0  0  0  0  0  0  0  0
   58.0100   34.6120   44.8720 C   0  0  0  0  0  0  0  0  0  0  0  0
   57.7240   33.3070   44.4820 C   0  0  0  0  0  0  0  0  0  0  0  0
   58.3130   32.1950   45.1400 C   0  0  0  0  0  0  0  0  0  0  0  0
   57.9670   30.9020   44.8040 N   0  0  0  0  0  0  0  0  0  0  0  0
   56.7490   30.6500   43.9960 C   0  0  0  0  0  0  0  0  0  0  0  0
   58.7270   29.8400   45.2500 C   0  0  0  0  0  0  0  0  0  0  0  0
   58.5660   28.5420   44.6960 C   0  0  0  0  0  0  0  0  0  0  0  0
   59.2650   27.4490   45.1980 C   0  0  0  0  0  0  0  0  0  0  0  0
   60.1450   27.6140   46.2560 C   0  0  0  0  0  0  0  0  0  0  0  0
   60.8040   26.5410   46.7610 F   0  0  0  0  0  0  0  0  0  0  0  0
   60.3680   28.8830   46.7900 C   0  0  0  0  0  0  0  0  0  0  0  0
   59.7040   30.0280   46.2730 C   0  0  0  0  0  0  0  0  0  0  0  0
   58.0894   29.5511   50.4773 H   0  0  0  0  0  0  0  0  0  0  0  0
   58.6358   30.6032   49.1278 H   0  0  0  0  0  0  0  0  0  0  0  0
   59.0491   28.8551   49.1278 H   0  0  0  0  0  0  0  0  0  0  0  0
   60.0393   29.8529   51.5919 H   0  0  0  0  0  0  0  0  0  0  0  0
   60.9995   29.4063   50.1398 H   0  0  0  0  0  0  0  0  0  0  0  0
   58.6004   32.0422   49.7521 H   0  0  0  0  0  0  0  0  0  0  0  0
   59.0217   32.3449   51.4824 H   0  0  0  0  0  0  0  0  0  0  0  0
   59.9224   34.3883   51.0362 H   0  0  0  0  0  0  0  0  0  0  0  0
   60.7014   33.8241   49.5192 H   0  0  0  0  0  0  0  0  0  0  0  0
   58.9658   34.2871   49.5192 H   0  0  0  0  0  0  0  0  0  0  0  0
   61.3759   32.8566   51.7054 H   0  0  0  0  0  0  0  0  0  0  0  0
   61.7746   31.1200   52.0122 H   0  0  0  0  0  0  0  0  0  0  0  0
   63.0989   33.1113   50.1821 H   0  0  0  0  0  0  0  0  0  0  0  0
   63.8057   31.7598   51.1484 H   0  0  0  0  0  0  0  0  0  0  0  0
   63.6967   32.9895   48.4828 H   0  0  0  0  0  0  0  0  0  0  0  0
   64.3218   31.4845   47.7477 H   0  0  0  0  0  0  0  0  0  0  0  0
   62.1927   33.0103   46.7754 H   0  0  0  0  0  0  0  0  0  0  0  0
   62.5275   31.2652   46.3803 H   0  0  0  0  0  0  0  0  0  0  0  0
   61.1320   30.7280   48.3380 H   0  0  0  0  0  0  0  0  0  0  0  0
   60.7000   32.2760   48.4900 H   0  0  0  0  0  0  0  0  0  0  0  0
   60.2394   33.9814   47.3629 H   0  0  0  0  0  0  0  0  0  0  0  0
   59.0971   35.8766   46.2406 H   0  0  0  0  0  0  0  0  0  0  0  0
   57.5334   35.4577   44.3547 H   0  0  0  0  0  0  0  0  0  0  0  0
   57.0282   33.1336   43.6479 H   0  0  0  0  0  0  0  0  0  0  0  0
   55.8946   30.4732   44.6659 H   0  0  0  0  0  0  0  0  0  0  0  0
   56.5426   31.5245   43.3614 H   0  0  0  0  0  0  0  0  0  0  0  0
   56.9065   29.7654   43.3614 H   0  0  0  0  0  0  0  0  0  0  0  0
   57.8744   28.3981   43.8528 H   0  0  0  0  0  0  0  0  0  0  0  0
   59.1192   26.4528   44.7548 H   0  0  0  0  0  0  0  0  0  0  0  0
   61.0715   28.9997   47.6276 H   0  0  0  0  0  0  0  0  0  0  0  0
  1  2  1  0
  2  3  1  0
  3  4  1  0
  4  5  1  0
  3  6  1  0
  6  7  1  0
  7  8  1  0
  8  9  1  0
  9 10  1  0
 10 11  1  0
 11 12  1  0
 12 13  2  0
 13 14  1  0
 14 15  2  0
 15 16  1  0
 16 17  2  0
 17 18  1  0
 18 19  2  0
 19 20  1  0
 19 21  1  0
 21 22  2  0
 22 23  1  0
 23 24  2  0
 24 25  1  0
 24 26  1  0
 26 27  2  0
 27 12  1  0
 18 13  1  0
 27 21  1  0
  1 28  1  0
  1 29  1  0
  1 30  1  0
  2 31  1  0
  2 32  1  0
  4 33  1  0
  4 34  1  0
  5 35  1  0
  5 36  1  0
  5 37  1  0
  6 38  1  0
  6 39  1  0
  7 40  1  0
  7 41  1  0
  9 42  1  0
  9 43  1  0
 10 44  1  0
 10 45  1  0
 11 46  1  0
 11 47  1  0
 14 48  1  0
 15 49  1  0
 16 50  1  0
 17 51  1  0
 20 52  1  0
 20 53  1  0
 20 54  1  0
 22 55  1  0
 23 56  1  0
 26 57  1  0
M  CHG  2  11   1  19   1
M  END
>  <UniqueID>  (38) 
37

>  <SMILES>  (38) 
CCN(CC)CCOCC[NH2+]c1c2ccccc2[n+](C)c2ccc(F)cc12

>  <Energy>  (38) 
87.9757014520807

>  <Genealogy>  (38) 
CCN(CC)CCOCC[NH2+]c1c2ccccc2[n+](C)c2ccc(F)cc12 (protonated)
CCN(CC)CCOCC[NH2+]c1c2ccccc2[n+](C)c2ccc(F)cc12 (3D coordinates assigned)
CCN(CC)CCOCC[NH2+]c1c2ccccc2[n+](C)c2ccc(F)cc12 (optimized conformer: 87.9757014520807 kcal/mol)

>  <smiles>  (38) 
CCN(CC)CCOCCNc1c2ccccc2[n+](C)c2ccc(F)cc12

>  <score_type>  (38) 
oracle

>  <origin>  (38) 
adg

>  <m_score__min__energy>  (38) 
-3.6099999999999999

>  <m_primary>  (38) 
energy

$$$$
38:0
     RDKit          3D

 44 44  0  0  0  0  0  0  0  0999 V2000
   59.3210   33.0590   49.5430 C   0  0  0  0  0  0  0  0  0  0  0  0
   59.6410   34.3170   48.7260 C   0  0  0  0  0  0  0  0  0  0  0  0
   60.3070   33.9940   47.4420 N   0  0  0  0  0  0  0  0  0  0  0  0
   60.0230   34.9900   46.3800 C   0  0  0  0  0  0  0  0  0  0  0  0
   59.6380   34.3900   45.0250 C   0  0  0  0  0  0  0  0  0  0  0  0
   62.0270   33.6370   47.6110 S   0  0  0  0  0  0  0  0  0  0  0  0
   62.6570   34.5700   48.6070 O   0  0  0  0  0  0  0  0  0  0  0  0
   62.6710   33.9100   46.2800 O   0  0  0  0  0  0  0  0  0  0  0  0
   62.4480   31.9260   48.0170 C   0  0  0  0  0  0  0  0  0  0  0  0
   61.8360   30.8430   47.1040 C   0  0  0  0  0  0  0  0  0  0  0  0
   60.4190   31.0570   46.7640 N   0  0  0  0  0  0  0  0  0  0  0  0
   59.6630   29.8060   46.6300 C   0  0  0  0  0  0  0  0  0  0  0  0
   58.5330   30.0080   45.6550 C   0  0  0  0  0  0  0  0  0  0  0  0
   58.2610   29.0370   44.6800 C   0  0  0  0  0  0  0  0  0  0  0  0
   57.2350   29.2410   43.7560 C   0  0  0  0  0  0  0  0  0  0  0  0
   56.4950   30.4230   43.8060 C   0  0  0  0  0  0  0  0  0  0  0  0
   56.7790   31.3650   44.7430 N   0  0  0  0  0  0  0  0  0  0  0  0
   57.7750   31.1940   45.6600 C   0  0  0  0  0  0  0  0  0  0  0  0
   58.0470   32.1940   46.6020 O   0  0  0  0  0  0  0  0  0  0  0  0
   57.2130   33.3330   46.7810 C   0  0  0  0  0  0  0  0  0  0  0  0
   59.3807   33.2936   50.6160 H   0  0  0  0  0  0  0  0  0  0  0  0
   58.3060   32.7120   49.2995 H   0  0  0  0  0  0  0  0  0  0  0  0
   60.0468   32.2692   49.2995 H   0  0  0  0  0  0  0  0  0  0  0  0
   58.7026   34.8506   48.5144 H   0  0  0  0  0  0  0  0  0  0  0  0
   60.3293   34.9387   49.3174 H   0  0  0  0  0  0  0  0  0  0  0  0
   59.8750   33.1080   47.0870 H   0  0  0  0  0  0  0  0  0  0  0  0
   59.1932   35.6267   46.7207 H   0  0  0  0  0  0  0  0  0  0  0  0
   60.9581   35.5463   46.2184 H   0  0  0  0  0  0  0  0  0  0  0  0
   59.0501   33.4738   45.1834 H   0  0  0  0  0  0  0  0  0  0  0  0
   59.0377   35.1176   44.4591 H   0  0  0  0  0  0  0  0  0  0  0  0
   60.5495   34.1475   44.4591 H   0  0  0  0  0  0  0  0  0  0  0  0
   63.5425   31.8282   47.9679 H   0  0  0  0  0  0  0  0  0  0  0  0
   62.0239   31.7457   49.0158 H   0  0  0  0  0  0  0  0  0  0  0  0
   62.4133   30.8169   46.1680 H   0  0  0  0  0  0  0  0  0  0  0  0
   61.8826   29.8986   47.6660 H   0  0  0  0  0  0  0  0  0  0  0  0
   59.9600   31.6680   47.4720 H   0  0  0  0  0  0  0  0  0  0  0  0
   60.3290   29.0121   46.2609 H   0  0  0  0  0  0  0  0  0  0  0  0
   59.2562   29.5151   47.6097 H   0  0  0  0  0  0  0  0  0  0  0  0
   58.8572   28.1133   44.6435 H   0  0  0  0  0  0  0  0  0  0  0  0
   57.0120   28.4777   42.9960 H   0  0  0  0  0  0  0  0  0  0  0  0
   55.6808   30.5923   43.0860 H   0  0  0  0  0  0  0  0  0  0  0  0
   57.0752   33.5212   47.8560 H   0  0  0  0  0  0  0  0  0  0  0  0
   57.6842   34.2097   46.3127 H   0  0  0  0  0  0  0  0  0  0  0  0
   56.2349   33.1485   46.3127 H   0  0  0  0  0  0  0  0  0  0  0  0
  1  2  1  0
  2  3  1  0
  3  4  1  0
  4  5  1  0
  3  6  1  0
  6  7  2  0
  6  8  2  0
  6  9  1  0
  9 10  1  0
 10 11  1  0
 11 12  1  0
 12 13  1  0
 13 14  2  0
 14 15  1  0
 15 16  2  0
 16 17  1  0
 17 18  2  0
 18 19  1  0
 19 20  1  0
 18 13  1  0
  1 21  1  0
  1 22  1  0
  1 23  1  0
  2 24  1  0
  2 25  1  0
  3 26  1  0
  4 27  1  0
  4 28  1  0
  5 29  1  0
  5 30  1  0
  5 31  1  0
  9 32  1  0
  9 33  1  0
 10 34  1  0
 10 35  1  0
 11 36  1  0
 12 37  1  0
 12 38  1  0
 14 39  1  0
 15 40  1  0
 16 41  1  0
 20 42  1  0
 20 43  1  0
 20 44  1  0
M  CHG  1   3   1
M  END
>  <UniqueID>  (39) 
38

>  <SMILES>  (39) 
CC[NH+](CC)S(=O)(=O)CCNCc1cccnc1OC

>  <Energy>  (39) 
40.947544503191516

>  <Genealogy>  (39) 
CC[NH+](CC)S(=O)(=O)CCNCc1cccnc1OC (protonated)
CC[NH+](CC)S(=O)(=O)CCNCc1cccnc1OC (3D coordinates assigned)
CC[NH+](CC)S(=O)(=O)CCNCc1cccnc1OC (optimized conformer: 40.947544503191516 kcal/mol)

>  <smiles>  (39) 
CCN(CC)S(=O)(=O)CCNCc1cccnc1OC

>  <score_type>  (39) 
oracle

>  <origin>  (39) 
adg

>  <m_score__min__energy>  (39) 
-4.6399999999999997

>  <m_primary>  (39) 
energy

$$$$
