0:0
     RDKit          3D

 43 45  0  0  0  0  0  0  0  0999 V2000
   60.1710   27.2310   46.5270 C   0  0  0  0  0  0  0  0  0  0  0  0
   59.0890   28.0500   47.2210 C   0  0  0  0  0  0  0  0  0  0  0  0
   58.9350   29.4040   46.5630 C   0  0  0  0  0  0  0  0  0  0  0  0
   59.7920   30.4040   46.9410 N   0  0  0  0  0  0  0  0  0  0  0  0
   59.6390   31.6480   46.4290 C   0  0  0  0  0  0  0  0  0  0  0  0
   58.6350   31.9720   45.5660 C   0  0  0  0  0  0  0  0  0  0  0  0
   58.7810   33.3460   45.3760 C   0  0  0  0  0  0  0  0  0  0  0  0
   57.9400   34.2610   44.5450 C   0  0  0  0  0  0  0  0  0  0  0  0
   59.8400   33.7820   46.1020 N   0  0  0  0  0  0  0  0  0  0  0  0
   60.3640   32.7400   46.7320 N   0  0  0  0  0  0  0  0  0  0  0  0
   61.4740   32.8320   47.6340 C   0  0  0  0  0  0  0  0  0  0  0  0
   62.7760   32.7180   47.1310 C   0  0  0  0  0  0  0  0  0  0  0  0
   63.8760   32.8140   47.9880 C   0  0  0  0  0  0  0  0  0  0  0  0
   63.6860   33.0000   49.3640 C   0  0  0  0  0  0  0  0  0  0  0  0
   64.8670   33.1420   50.2770 C   0  0  0  0  0  0  0  0  0  0  0  0
   62.3830   33.1120   49.8710 C   0  0  0  0  0  0  0  0  0  0  0  0
   61.2770   33.0170   49.0170 C   0  0  0  0  0  0  0  0  0  0  0  0
   59.5220   33.0790   49.7840 Br  0  0  0  0  0  0  0  0  0  0  0  0
   57.7250   31.0030   45.1160 C   0  0  0  0  0  0  0  0  0  0  0  0
   56.6390   31.3590   44.1300 C   0  0  0  0  0  0  0  0  0  0  0  0
   57.8670   29.6860   45.6490 C   0  0  0  0  0  0  0  0  0  0  0  0
   56.8930   28.6340   45.2930 C   0  0  0  0  0  0  0  0  0  0  0  0
   55.5190   28.9680   45.1080 N   0  0  0  0  0  0  0  0  0  0  0  0
   57.2740   27.4440   45.1320 O   0  0  0  0  0  0  0  0  0  0  0  0
   60.8078   26.7490   47.2834 H   0  0  0  0  0  0  0  0  0  0  0  0
   59.7010   26.4603   45.8984 H   0  0  0  0  0  0  0  0  0  0  0  0
   60.7851   27.8926   45.8984 H   0  0  0  0  0  0  0  0  0  0  0  0
   58.1331   27.5091   47.1611 H   0  0  0  0  0  0  0  0  0  0  0  0
   59.3791   28.1994   48.2715 H   0  0  0  0  0  0  0  0  0  0  0  0
   60.5450   30.2170   47.6400 H   0  0  0  0  0  0  0  0  0  0  0  0
   57.3436   34.9098   45.2033 H   0  0  0  0  0  0  0  0  0  0  0  0
   58.5900   34.8810   43.9101 H   0  0  0  0  0  0  0  0  0  0  0  0
   57.2675   33.6654   43.9101 H   0  0  0  0  0  0  0  0  0  0  0  0
   62.9339   32.5519   46.0551 H   0  0  0  0  0  0  0  0  0  0  0  0
   64.8953   32.7432   47.5806 H   0  0  0  0  0  0  0  0  0  0  0  0
   64.5288   33.1013   51.3229 H   0  0  0  0  0  0  0  0  0  0  0  0
   65.5765   32.3227   50.0889 H   0  0  0  0  0  0  0  0  0  0  0  0
   65.3620   34.1061   50.0889 H   0  0  0  0  0  0  0  0  0  0  0  0
   62.2286   33.2757   50.9477 H   0  0  0  0  0  0  0  0  0  0  0  0
   55.7314   31.6565   44.6757 H   0  0  0  0  0  0  0  0  0  0  0  0
   56.9768   32.1934   43.4979 H   0  0  0  0  0  0  0  0  0  0  0  0
   56.4173   30.4865   43.4979 H   0  0  0  0  0  0  0  0  0  0  0  0
   54.9450   29.3280   45.9010 H   0  0  0  0  0  0  0  0  0  0  0  0
  1  2  1  0
  2  3  1  0
  3  4  2  0
  4  5  1  0
  5  6  2  0
  6  7  1  0
  7  8  1  0
  7  9  2  0
  9 10  1  0
 10 11  1  0
 11 12  2  0
 12 13  1  0
 13 14  2  0
 14 15  1  0
 14 16  1  0
 16 17  2  0
 17 18  1  0
  6 19  1  0
 19 20  1  0
 19 21  2  0
 21 22  1  0
 22 23  1  0
 22 24  2  0
 21  3  1  0
 10  5  1  0
 17 11  1  0
  1 25  1  0
  1 26  1  0
  1 27  1  0
  2 28  1  0
  2 29  1  0
  4 30  1  0
  8 31  1  0
  8 32  1  0
  8 33  1  0
 12 34  1  0
 13 35  1  0
 15 36  1  0
 15 37  1  0
 15 38  1  0
 16 39  1  0
 20 40  1  0
 20 41  1  0
 20 42  1  0
 23 43  1  0
M  CHG  2   4   1  23  -1
M  END
>  <UniqueID>  (1) 
1

>  <SMILES>  (1) 
CCc1[nH+]c2c(c(C)nn2-c2ccc(C)cc2Br)c(C)c1C([NH-])=O

>  <Energy>  (1) 
97.17736783079474

>  <Genealogy>  (1) 
CCc1[nH+]c2c(c(C)nn2-c2ccc(C)cc2Br)c(C)c1C([NH-])=O (protonated)
CCc1[nH+]c2c(c(C)nn2-c2ccc(C)cc2Br)c(C)c1C([NH-])=O (3D coordinates assigned)
CCc1[nH+]c2c(c(C)nn2-c2ccc(C)cc2Br)c(C)c1C([NH-])=O (optimized conformer: 97.17736783079474 kcal/mol)

>  <smiles>  (1) 
CCc1nc2c(c(C)nn2-c2ccc(C)cc2Br)c(C)c1C(N)=O

>  <score_type>  (1) 
oracle

>  <origin>  (1) 
adg

>  <m_score__min__energy>  (1) 
-9.8599999999999994

>  <m_primary>  (1) 
energy

$$$$
1:0
     RDKit          3D

 60 64  0  0  0  0  0  0  0  0999 V2000
   64.7850   33.6040   50.5260 C   0  0  0  0  0  0  0  0  0  0  0  0
   63.9120   33.1130   49.6470 C   0  0  0  0  0  0  0  0  0  0  0  0
   62.7740   33.8100   49.0920 C   0  0  0  0  0  0  0  0  0  0  0  0
   62.4480   34.9970   49.3740 O   0  0  0  0  0  0  0  0  0  0  0  0
   61.9860   32.8660   48.2280 C   0  0  2  0  0  0  0  0  0  0  0  0
   61.3900   33.5780   46.9900 C   0  0  0  0  0  0  0  0  0  0  0  0
   60.0480   34.2340   47.3190 C   0  0  0  0  0  0  0  0  0  0  0  0
   58.9820   33.2270   47.8330 C   0  0  1  0  0  0  0  0  0  0  0  0
   57.9410   32.9960   46.7670 C   0  0  0  0  0  0  0  0  0  0  0  0
   57.0250   33.8390   46.5850 O   0  0  0  0  0  0  0  0  0  0  0  0
   58.0350   31.8930   45.9210 O   0  0  0  0  0  0  0  0  0  0  0  0
   58.9930   30.8920   46.1100 C   0  0  0  0  0  0  0  0  0  0  0  0
   59.1420   29.9200   45.1120 O   0  0  0  0  0  0  0  0  0  0  0  0
   58.5620   28.6420   45.1500 C   0  0  0  0  0  0  0  0  0  0  0  0
   57.8380   28.1940   46.2680 C   0  0  0  0  0  0  0  0  0  0  0  0
   57.2430   26.9320   46.2630 C   0  0  0  0  0  0  0  0  0  0  0  0
   57.3700   26.0900   45.1440 C   0  0  0  0  0  0  0  0  0  0  0  0
   56.7110   24.7230   45.1120 C   0  0  0  0  0  0  0  0  0  0  0  0
   55.2650   24.7800   45.6170 C   0  0  0  0  0  0  0  0  0  0  0  0
   56.7790   24.1220   43.7050 C   0  0  0  0  0  0  0  0  0  0  0  0
   58.0820   26.5520   44.0220 C   0  0  0  0  0  0  0  0  0  0  0  0
   58.6700   27.8170   44.0260 C   0  0  0  0  0  0  0  0  0  0  0  0
   59.7770   30.8880   47.2010 C   0  0  0  0  0  0  0  0  0  0  0  0
   59.5660   31.8630   48.3550 C   0  0  2  0  0  0  0  0  0  0  0  0
   58.5290   31.2210   49.3130 C   0  0  0  0  0  0  0  0  0  0  0  0
   60.9110   32.1410   49.1270 C   0  0  1  0  0  0  0  0  0  0  0  0
   61.4820   30.8810   49.8850 C   0  0  0  0  0  0  0  0  0  0  0  0
   63.0210   30.8530   50.1390 C   0  0  0  0  0  0  0  0  0  0  0  0
   63.8580   31.7040   49.1510 C   0  0  1  0  0  0  0  0  0  0  0  0
   63.0910   31.8630   47.8340 C   0  0  0  0  0  0  0  0  0  0  0  0
   65.6178   32.9795   50.8816 H   0  0  0  0  0  0  0  0  0  0  0  0
   64.6728   34.6338   50.8960 H   0  0  0  0  0  0  0  0  0  0  0  0
   62.0931   34.3520   46.6487 H   0  0  0  0  0  0  0  0  0  0  0  0
   61.2259   32.8272   46.2030 H   0  0  0  0  0  0  0  0  0  0  0  0
   60.2125   34.9953   48.0958 H   0  0  0  0  0  0  0  0  0  0  0  0
   59.6612   34.6707   46.3864 H   0  0  0  0  0  0  0  0  0  0  0  0
   58.5225   33.6933   48.7170 H   0  0  0  0  0  0  0  0  0  0  0  0
   57.7399   28.8417   47.1517 H   0  0  0  0  0  0  0  0  0  0  0  0
   56.6711   26.5937   47.1397 H   0  0  0  0  0  0  0  0  0  0  0  0
   57.2702   24.0670   45.7954 H   0  0  0  0  0  0  0  0  0  0  0  0
   55.2605   24.7802   46.7170 H   0  0  0  0  0  0  0  0  0  0  0  0
   54.7837   25.6978   45.2482 H   0  0  0  0  0  0  0  0  0  0  0  0
   54.7130   23.9029   45.2482 H   0  0  0  0  0  0  0  0  0  0  0  0
   56.9024   23.0314   43.7777 H   0  0  0  0  0  0  0  0  0  0  0  0
   55.8493   24.3505   43.1633 H   0  0  0  0  0  0  0  0  0  0  0  0
   57.6342   24.5525   43.1633 H   0  0  0  0  0  0  0  0  0  0  0  0
   58.1759   25.9100   43.1337 H   0  0  0  0  0  0  0  0  0  0  0  0
   59.2212   28.1672   43.1408 H   0  0  0  0  0  0  0  0  0  0  0  0
   60.5975   30.1581   47.2641 H   0  0  0  0  0  0  0  0  0  0  0  0
   58.8285   31.4064   50.3551 H   0  0  0  0  0  0  0  0  0  0  0  0
   57.5387   31.6643   49.1317 H   0  0  0  0  0  0  0  0  0  0  0  0
   58.4843   30.1370   49.1317 H   0  0  0  0  0  0  0  0  0  0  0  0
   60.6497   32.8515   49.9250 H   0  0  0  0  0  0  0  0  0  0  0  0
   60.9819   30.8257   50.8632 H   0  0  0  0  0  0  0  0  0  0  0  0
   61.2839   30.0288   49.2183 H   0  0  0  0  0  0  0  0  0  0  0  0
   63.2069   31.2281   51.1562 H   0  0  0  0  0  0  0  0  0  0  0  0
   63.3396   29.8099   49.9962 H   0  0  0  0  0  0  0  0  0  0  0  0
   64.8392   31.2184   49.0436 H   0  0  0  0  0  0  0  0  0  0  0  0
   63.7366   32.2698   47.0417 H   0  0  0  0  0  0  0  0  0  0  0  0
   62.7070   30.9163   47.4263 H   0  0  0  0  0  0  0  0  0  0  0  0
  1  2  2  0
  2  3  1  0
  3  4  2  0
  3  5  1  0
  5  6  1  6
  6  7  1  0
  7  8  1  0
  8  9  1  0
  9 10  2  0
  9 11  1  0
 11 12  1  0
 12 13  1  0
 13 14  1  0
 14 15  2  0
 15 16  1  0
 16 17  2  0
 17 18  1  0
 18 19  1  0
 18 20  1  0
 17 21  1  0
 21 22  2  0
 12 23  2  0
 23 24  1  0
 24 25  1  1
 24 26  1  0
 26 27  1  0
 27 28  1  0
 28 29  1  0
 29 30  1  0
 29  2  1  0
 26  5  1  0
 30  5  1  0
 24  8  1  0
 22 14  1  0
  1 31  1  0
  1 32  1  0
  6 33  1  0
  6 34  1  0
  7 35  1  0
  7 36  1  0
  8 37  1  1
 15 38  1  0
 16 39  1  0
 18 40  1  0
 19 41  1  0
 19 42  1  0
 19 43  1  0
 20 44  1  0
 20 45  1  0
 20 46  1  0
 21 47  1  0
 22 48  1  0
 23 49  1  0
 25 50  1  0
 25 51  1  0
 25 52  1  0
 26 53  1  1
 27 54  1  0
 27 55  1  0
 28 56  1  0
 28 57  1  0
 29 58  1  6
 30 59  1  0
 30 60  1  0
M  END
>  <UniqueID>  (2) 
2

>  <SMILES>  (2) 
C=C1C(=O)[C@]23CC[C@H]4C(=O)OC(Oc5ccc(C(C)C)cc5)=CC4(C)C2CCC1C3

>  <Energy>  (2) 
103.04011116622291

>  <Genealogy>  (2) 
C=C1C(=O)[C@]23CC[C@H]4C(=O)OC(Oc5ccc(C(C)C)cc5)=CC4(C)C2CCC1C3 (chirality)
C=C1C(=O)[C@]23CC[C@H]4C(=O)OC(Oc5ccc(C(C)C)cc5)=CC4(C)C2CCC1C3 (3D coordinates assigned)
C=C1C(=O)[C@]23CC[C@H]4C(=O)OC(Oc5ccc(C(C)C)cc5)=CC4(C)C2CCC1C3 (nonaromatic ring conformer: 103.04011116622291 kcal/mol)

>  <smiles>  (2) 
C=C1C(=O)C23CCC4C(=O)OC(Oc5ccc(C(C)C)cc5)=CC4(C)C2CCC1C3

>  <score_type>  (2) 
oracle

>  <origin>  (2) 
adg

>  <m_score__min__energy>  (2) 
-9.0700000000000003

>  <m_primary>  (2) 
energy

$$$$
2:0
     RDKit          3D

 46 50  0  0  0  0  0  0  0  0999 V2000
   61.1080   33.4690   52.4810 C   0  0  0  0  0  0  0  0  0  0  0  0
   61.1330   33.4480   51.0220 N   0  0  0  0  0  0  0  0  0  0  0  0
   60.0620   33.5380   50.2020 C   0  0  0  0  0  0  0  0  0  0  0  0
   60.4660   33.4920   48.8680 C   0  0  0  0  0  0  0  0  0  0  0  0
   59.5760   33.6140   47.6900 C   0  0  0  0  0  0  0  0  0  0  0  0
   59.9970   34.2430   46.5870 C   0  0  0  0  0  0  0  0  0  0  0  0
   59.1320   34.3400   45.3960 C   0  0  0  0  0  0  0  0  0  0  0  0
   59.4390   35.1830   44.5080 O   0  0  0  0  0  0  0  0  0  0  0  0
   57.9040   33.5630   45.2720 N   0  0  1  0  0  0  0  0  0  0  0  0
   57.7360   33.0660   43.8630 C   0  0  0  0  0  0  0  0  0  0  0  0
   57.3360   31.5860   43.7470 C   0  0  0  0  0  0  0  0  0  0  0  0
   58.2510   30.7670   44.6050 C   0  0  0  0  0  0  0  0  0  0  0  0
   58.8230   29.5730   44.1430 C   0  0  0  0  0  0  0  0  0  0  0  0
   59.6750   28.8410   44.9720 C   0  0  0  0  0  0  0  0  0  0  0  0
   59.9510   29.2940   46.2650 C   0  0  0  0  0  0  0  0  0  0  0  0
   59.3740   30.4770   46.7350 C   0  0  0  0  0  0  0  0  0  0  0  0
   58.5190   31.2290   45.9020 C   0  0  0  0  0  0  0  0  0  0  0  0
   57.7910   32.5020   46.3230 C   0  0  1  0  0  0  0  0  0  0  0  0
   58.1810   33.0530   47.7130 C   0  0  0  0  0  0  0  0  0  0  0  0
   61.8490   33.3640   48.9030 C   0  0  0  0  0  0  0  0  0  0  0  0
   62.7970   33.2260   47.8840 C   0  0  0  0  0  0  0  0  0  0  0  0
   64.1480   33.0940   48.2510 C   0  0  0  0  0  0  0  0  0  0  0  0
   64.5230   33.0910   49.6110 C   0  0  0  0  0  0  0  0  0  0  0  0
   63.5510   33.2120   50.6170 C   0  0  0  0  0  0  0  0  0  0  0  0
   62.2160   33.3420   50.2290 C   0  0  0  0  0  0  0  0  0  0  0  0
   61.8956   32.8074   52.8708 H   0  0  0  0  0  0  0  0  0  0  0  0
   61.2825   34.4954   52.8360 H   0  0  0  0  0  0  0  0  0  0  0  0
   60.1271   33.1200   52.8360 H   0  0  0  0  0  0  0  0  0  0  0  0
   59.0194   33.6339   50.5393 H   0  0  0  0  0  0  0  0  0  0  0  0
   61.0004   34.6934   46.5679 H   0  0  0  0  0  0  0  0  0  0  0  0
   57.1250   34.2410   45.4520 H   0  0  0  0  0  0  0  0  0  0  0  0
   56.9562   33.6708   43.3771 H   0  0  0  0  0  0  0  0  0  0  0  0
   58.7202   33.1604   43.3809 H   0  0  0  0  0  0  0  0  0  0  0  0
   56.2976   31.4565   44.0862 H   0  0  0  0  0  0  0  0  0  0  0  0
   57.4159   31.2595   42.6996 H   0  0  0  0  0  0  0  0  0  0  0  0
   58.6004   29.2132   43.1276 H   0  0  0  0  0  0  0  0  0  0  0  0
   60.1291   27.9077   44.6075 H   0  0  0  0  0  0  0  0  0  0  0  0
   60.6250   28.7172   46.9153 H   0  0  0  0  0  0  0  0  0  0  0  0
   59.5871   30.8227   47.7573 H   0  0  0  0  0  0  0  0  0  0  0  0
   56.7381   32.2004   46.4252 H   0  0  0  0  0  0  0  0  0  0  0  0
   57.4764   33.8487   47.9967 H   0  0  0  0  0  0  0  0  0  0  0  0
   58.1424   32.2310   48.4429 H   0  0  0  0  0  0  0  0  0  0  0  0
   62.4946   33.2209   46.8264 H   0  0  0  0  0  0  0  0  0  0  0  0
   64.9180   32.9924   47.4720 H   0  0  0  0  0  0  0  0  0  0  0  0
   65.5838   32.9932   49.8851 H   0  0  0  0  0  0  0  0  0  0  0  0
   63.8331   33.2046   51.6802 H   0  0  0  0  0  0  0  0  0  0  0  0
  1  2  1  0
  2  3  1  0
  3  4  2  0
  4  5  1  0
  5  6  2  0
  6  7  1  0
  7  8  2  0
  7  9  1  0
  9 10  1  0
 10 11  1  0
 11 12  1  0
 12 13  2  0
 13 14  1  0
 14 15  2  0
 15 16  1  0
 16 17  2  0
 17 18  1  0
 18 19  1  0
  4 20  1  0
 20 21  2  0
 21 22  1  0
 22 23  2  0
 23 24  1  0
 24 25  2  0
 25  2  1  0
 19  5  1  0
 25 20  1  0
 18  9  1  0
 17 12  1  0
  1 26  1  0
  1 27  1  0
  1 28  1  0
  3 29  1  0
  6 30  1  0
  9 31  1  1
 10 32  1  0
 10 33  1  0
 11 34  1  0
 11 35  1  0
 13 36  1  0
 14 37  1  0
 15 38  1  0
 16 39  1  0
 18 40  1  1
 19 41  1  0
 19 42  1  0
 21 43  1  0
 22 44  1  0
 23 45  1  0
 24 46  1  0
M  CHG  1   9   1
M  END
>  <UniqueID>  (3) 
3

>  <SMILES>  (3) 
Cn1cc(C2=CC(=O)[N@H+]3CCc4ccccc4[C@H]3C2)c2ccccc21

>  <Energy>  (3) 
107.81823834045915

>  <Genealogy>  (3) 
Cn1cc(C2=CC(=O)[NH+]3CCc4ccccc4C3C2)c2ccccc21 (protonated)
Cn1cc(C2=CC(=O)[N@H+]3CCc4ccccc4[C@H]3C2)c2ccccc21 (chirality)
Cn1cc(C2=CC(=O)[N@H+]3CCc4ccccc4[C@H]3C2)c2ccccc21 (3D coordinates assigned)
Cn1cc(C2=CC(=O)[N@H+]3CCc4ccccc4[C@H]3C2)c2ccccc21 (nonaromatic ring conformer: 107.81823834045915 kcal/mol)

>  <smiles>  (3) 
Cn1cc(C2=CC(=O)N3CCc4ccccc4C3C2)c2ccccc21

>  <score_type>  (3) 
oracle

>  <origin>  (3) 
adg

>  <m_score__min__energy>  (3) 
-7.1299999999999999

>  <m_primary>  (3) 
energy

$$$$
3:0
     RDKit          3D

 50 52  0  0  1  0  0  0  0  0999 V2000
   66.9220   32.7470   50.1770 C   0  0  0  0  0  0  0  0  0  0  0  0
   65.4600   33.0800   50.4820 C   0  0  0  0  0  0  0  0  0  0  0  0
   64.5930   32.5830   49.3650 C   0  0  0  0  0  0  0  0  0  0  0  0
   63.9310   33.5980   48.7140 O   0  0  0  0  0  0  0  0  0  0  0  0
   62.6310   33.8170   48.4140 C   0  0  0  0  0  0  0  0  0  0  0  0
   61.5940   34.0440   49.2680 C   0  0  0  0  0  0  0  0  0  0  0  0
   60.2780   34.2570   48.8440 C   0  0  0  0  0  0  0  0  0  0  0  0
   60.0200   34.2370   47.4930 C   0  0  0  0  0  0  0  0  0  0  0  0
   58.7150   34.4440   46.9710 N   0  0  0  0  0  0  0  0  0  0  0  0
   58.0970   33.5130   46.3330 C   0  0  0  0  0  0  0  0  0  0  0  0
   56.8930   33.5360   45.7620 N   0  0  0  0  0  0  0  0  0  0  0  0
   56.7190   32.3350   45.2390 N   0  0  0  0  0  0  0  0  0  0  0  0
   57.7750   31.5690   45.4680 C   0  0  0  0  0  0  0  0  0  0  0  0
   58.0830   30.1920   45.1130 C   0  0  0  0  0  0  0  0  0  0  0  0
   57.3730   29.5930   44.0930 C   0  0  0  0  0  0  0  0  0  0  0  0
   57.6290   28.2660   43.7300 C   0  0  0  0  0  0  0  0  0  0  0  0
   58.5950   27.5150   44.3750 C   0  0  0  0  0  0  0  0  0  0  0  0
   59.3110   28.1160   45.4000 C   0  0  0  0  0  0  0  0  0  0  0  0
   59.0380   29.4390   45.7430 C   0  0  0  0  0  0  0  0  0  0  0  0
   59.8300   29.9890   46.7850 N   0  0  0  0  0  0  0  0  0  0  0  0
   61.1590   30.4650   46.4050 C   0  0  0  0  0  0  0  0  0  0  0  0
   59.2650   30.0970   48.4250 S   0  0  0  0  0  0  0  0  0  0  0  0
   60.6670   30.0050   49.5520 C   0  0  0  0  0  0  0  0  0  0  0  0
   58.4610   28.8590   48.7040 O   0  0  0  0  0  0  0  0  0  0  0  0
   58.5120   31.3410   48.7070 O   0  0  0  0  0  0  0  0  0  0  0  0
   58.6210   32.3200   46.1500 O   0  0  0  0  0  0  0  0  0  0  0  0
   61.0330   34.0140   46.5890 C   0  0  0  0  0  0  0  0  0  0  0  0
   62.3030   33.8100   47.0440 C   0  0  0  0  0  0  0  0  0  0  0  0
   67.4739   32.6213   51.1202 H   0  0  0  0  0  0  0  0  0  0  0  0
   66.9721   31.8144   49.5958 H   0  0  0  0  0  0  0  0  0  0  0  0
   67.3710   33.5659   49.5958 H   0  0  0  0  0  0  0  0  0  0  0  0
   65.1614   32.5940   51.4225 H   0  0  0  0  0  0  0  0  0  0  0  0
   65.3440   34.1694   50.5804 H   0  0  0  0  0  0  0  0  0  0  0  0
   65.2256   32.0526   48.6380 H   0  0  0  0  0  0  0  0  0  0  0  0
   63.8335   31.9196   49.8043 H   0  0  0  0  0  0  0  0  0  0  0  0
   61.8026   34.0607   50.3479 H   0  0  0  0  0  0  0  0  0  0  0  0
   59.4719   34.4355   49.5708 H   0  0  0  0  0  0  0  0  0  0  0  0
   56.2640   34.3700   45.7620 H   0  0  0  0  0  0  0  0  0  0  0  0
   56.5984   30.1639   43.5600 H   0  0  0  0  0  0  0  0  0  0  0  0
   57.0493   27.8101   42.9138 H   0  0  0  0  0  0  0  0  0  0  0  0
   58.7897   26.4722   44.0839 H   0  0  0  0  0  0  0  0  0  0  0  0
   60.0880   27.5529   45.9378 H   0  0  0  0  0  0  0  0  0  0  0  0
   61.7461   30.6753   47.3111 H   0  0  0  0  0  0  0  0  0  0  0  0
   61.6683   29.6934   45.8090 H   0  0  0  0  0  0  0  0  0  0  0  0
   61.0626   31.3845   45.8090 H   0  0  0  0  0  0  0  0  0  0  0  0
   60.3049   30.0288   50.5904 H   0  0  0  0  0  0  0  0  0  0  0  0
   61.2174   29.0688   49.3769 H   0  0  0  0  0  0  0  0  0  0  0  0
   61.3350   30.8612   49.3769 H   0  0  0  0  0  0  0  0  0  0  0  0
   60.8210   34.0003   45.5097 H   0  0  0  0  0  0  0  0  0  0  0  0
   63.1037   33.6328   46.3109 H   0  0  0  0  0  0  0  0  0  0  0  0
  1  2  1  0
  2  3  1  0
  3  4  1  0
  4  5  1  0
  5  6  2  0
  6  7  1  0
  7  8  2  0
  8  9  1  0
  9 10  2  0
 10 11  1  0
 11 12  1  0
 12 13  2  0
 13 14  1  0
 14 15  2  0
 15 16  1  0
 16 17  2  0
 17 18  1  0
 18 19  2  0
 19 20  1  0
 20 21  1  0
 20 22  1  0
 22 23  1  0
 22 24  2  0
 22 25  2  0
 13 26  1  0
  8 27  1  0
 27 28  2  0
 28  5  1  0
 26 10  1  0
 19 14  1  0
  1 29  1  0
  1 30  1  0
  1 31  1  0
  2 32  1  0
  2 33  1  0
  3 34  1  0
  3 35  1  0
  6 36  1  0
  7 37  1  0
 11 38  1  0
 15 39  1  0
 16 40  1  0
 17 41  1  0
 18 42  1  0
 21 43  1  0
 21 44  1  0
 21 45  1  0
 23 46  1  0
 23 47  1  0
 23 48  1  0
 27 49  1  0
 28 50  1  0
M  END
>  <smiles>  (4) 
CCCOc1ccc(N=c2[nH]nc(-c3ccccc3N(C)S(C)(=O)=O)o2)cc1

>  <score_type>  (4) 
oracle

>  <origin>  (4) 
adg

>  <m_score__min__energy>  (4) 
-7.7699999999999996

>  <m_primary>  (4) 
energy

$$$$
4:0
     RDKit          3D

 77 83  0  0  0  0  0  0  0  0999 V2000
   59.2460   28.3850   44.4930 C   0  0  0  0  0  0  0  0  0  0  0  0
   60.2120   29.2470   45.0830 O   0  0  0  0  0  0  0  0  0  0  0  0
   60.1420   29.7330   46.3960 C   0  0  0  0  0  0  0  0  0  0  0  0
   60.7390   29.0660   47.4940 C   0  0  0  0  0  0  0  0  0  0  0  0
   60.6350   29.5880   48.8160 C   0  0  0  0  0  0  0  0  0  0  0  0
   61.2030   28.9030   49.9510 N   0  0  0  0  0  0  0  0  0  0  0  0
   60.4240   28.2220   50.9860 C   0  0  0  0  0  0  0  0  0  0  0  0
   59.9490   29.2270   52.0460 C   0  0  0  0  0  0  0  0  0  0  0  0
   58.5970   28.8260   52.6760 C   0  0  0  0  0  0  0  0  0  0  0  0
   57.4460   29.4570   51.9870 N   0  0  0  0  0  0  0  0  0  0  0  0
   57.8840   30.5820   51.1180 C   0  0  0  0  0  0  0  0  0  0  0  0
   57.0710   31.8780   51.3140 C   0  0  0  0  0  0  0  0  0  0  0  0
   56.9870   32.2770   52.7380 N   0  0  0  0  0  0  0  0  0  0  0  0
   58.1800   33.0320   53.1940 C   0  0  0  0  0  0  0  0  0  0  0  0
   58.8020   33.8640   52.0580 C   0  0  0  0  0  0  0  0  0  0  0  0
   60.3390   33.8360   52.0440 C   0  0  0  0  0  0  0  0  0  0  0  0
   60.8640   33.5310   50.7120 N   0  0  0  0  0  0  0  0  0  0  0  0
   60.4400   34.1080   49.4650 C   0  0  0  0  0  0  0  0  0  0  0  0
   59.3630   34.7380   49.2980 O   0  0  0  0  0  0  0  0  0  0  0  0
   61.4490   33.8480   48.4380 C   0  0  0  0  0  0  0  0  0  0  0  0
   61.5840   34.1980   47.0960 C   0  0  0  0  0  0  0  0  0  0  0  0
   62.7620   33.7870   46.4240 C   0  0  0  0  0  0  0  0  0  0  0  0
   63.7710   33.0550   47.1060 C   0  0  0  0  0  0  0  0  0  0  0  0
   63.6000   32.7310   48.4660 C   0  0  0  0  0  0  0  0  0  0  0  0
   64.5310   32.0400   49.2650 C   0  0  0  0  0  0  0  0  0  0  0  0
   64.2440   31.8040   50.6360 C   0  0  0  0  0  0  0  0  0  0  0  0
   63.0340   32.2590   51.2140 C   0  0  0  0  0  0  0  0  0  0  0  0
   62.1300   32.9360   50.3910 C   0  0  0  0  0  0  0  0  0  0  0  0
   62.4270   33.1420   49.0720 C   0  0  0  0  0  0  0  0  0  0  0  0
   56.6600   31.1480   53.6500 C   0  0  0  0  0  0  0  0  0  0  0  0
   56.3550   29.8340   52.9130 C   0  0  0  0  0  0  0  0  0  0  0  0
   59.9410   30.7980   49.0300 C   0  0  0  0  0  0  0  0  0  0  0  0
   59.3650   31.4390   47.9370 C   0  0  0  0  0  0  0  0  0  0  0  0
   58.6770   32.5640   47.9460 O   0  0  0  0  0  0  0  0  0  0  0  0
   58.3140   32.7930   46.7000 C   0  0  0  0  0  0  0  0  0  0  0  0
   57.5660   33.8650   46.2190 C   0  0  0  0  0  0  0  0  0  0  0  0
   57.2830   33.9100   44.8410 C   0  0  0  0  0  0  0  0  0  0  0  0
   57.7510   32.8920   43.9800 C   0  0  0  0  0  0  0  0  0  0  0  0
   58.5070   31.8190   44.4870 C   0  0  0  0  0  0  0  0  0  0  0  0
   58.7720   31.8020   45.8570 C   0  0  0  0  0  0  0  0  0  0  0  0
   59.4600   30.9200   46.6630 C   0  0  0  0  0  0  0  0  0  0  0  0
   58.6762   27.8765   45.2847 H   0  0  0  0  0  0  0  0  0  0  0  0
   58.5595   28.9762   43.8691 H   0  0  0  0  0  0  0  0  0  0  0  0
   59.7555   27.6359   43.8691 H   0  0  0  0  0  0  0  0  0  0  0  0
   61.2916   28.1303   47.3235 H   0  0  0  0  0  0  0  0  0  0  0  0
   62.2380   28.9470   50.0910 H   0  0  0  0  0  0  0  0  0  0  0  0
   59.5489   27.7416   50.5240 H   0  0  0  0  0  0  0  0  0  0  0  0
   61.0584   27.4652   51.4704 H   0  0  0  0  0  0  0  0  0  0  0  0
   60.7060   29.2847   52.8420 H   0  0  0  0  0  0  0  0  0  0  0  0
   59.8113   30.1983   51.5484 H   0  0  0  0  0  0  0  0  0  0  0  0
   58.4892   27.7329   52.6161 H   0  0  0  0  0  0  0  0  0  0  0  0
   58.5960   29.1732   53.7198 H   0  0  0  0  0  0  0  0  0  0  0  0
   58.9396   30.7990   51.3385 H   0  0  0  0  0  0  0  0  0  0  0  0
   57.7264   30.2612   50.0777 H   0  0  0  0  0  0  0  0  0  0  0  0
   57.5536   32.6879   50.7473 H   0  0  0  0  0  0  0  0  0  0  0  0
   56.0480   31.6919   50.9550 H   0  0  0  0  0  0  0  0  0  0  0  0
   57.8825   33.7088   54.0086 H   0  0  0  0  0  0  0  0  0  0  0  0
   58.9324   32.3061   53.5361 H   0  0  0  0  0  0  0  0  0  0  0  0
   58.4384   33.4684   51.0982 H   0  0  0  0  0  0  0  0  0  0  0  0
   58.5002   34.9091   52.2215 H   0  0  0  0  0  0  0  0  0  0  0  0
   60.7161   34.8202   52.3588 H   0  0  0  0  0  0  0  0  0  0  0  0
   60.6733   33.0463   52.7329 H   0  0  0  0  0  0  0  0  0  0  0  0
   60.8035   34.7732   46.5764 H   0  0  0  0  0  0  0  0  0  0  0  0
   62.8969   34.0377   45.3615 H   0  0  0  0  0  0  0  0  0  0  0  0
   64.6818   32.7427   46.5741 H   0  0  0  0  0  0  0  0  0  0  0  0
   65.4764   31.6845   48.8294 H   0  0  0  0  0  0  0  0  0  0  0  0
   64.9714   31.2606   51.2570 H   0  0  0  0  0  0  0  0  0  0  0  0
   62.8126   32.0850   52.2774 H   0  0  0  0  0  0  0  0  0  0  0  0
   57.5171   30.9813   54.3191 H   0  0  0  0  0  0  0  0  0  0  0  0
   55.7501   31.4294   54.2004 H   0  0  0  0  0  0  0  0  0  0  0  0
   56.2243   29.0320   53.6544 H   0  0  0  0  0  0  0  0  0  0  0  0
   55.4391   29.9787   52.3212 H   0  0  0  0  0  0  0  0  0  0  0  0
   59.8570   31.2258   50.0399 H   0  0  0  0  0  0  0  0  0  0  0  0
   57.2068   34.6537   46.8965 H   0  0  0  0  0  0  0  0  0  0  0  0
   56.6934   34.7434   44.4314 H   0  0  0  0  0  0  0  0  0  0  0  0
   57.5225   32.9387   42.9050 H   0  0  0  0  0  0  0  0  0  0  0  0
   58.8764   31.0210   43.8262 H   0  0  0  0  0  0  0  0  0  0  0  0
  1  2  1  0
  2  3  1  0
  3  4  2  0
  4  5  1  0
  5  6  1  0
  6  7  1  0
  7  8  1  0
  8  9  1  0
  9 10  1  0
 10 11  1  0
 11 12  1  0
 12 13  1  0
 13 14  1  0
 14 15  1  0
 15 16  1  0
 16 17  1  0
 17 18  1  0
 18 19  2  0
 18 20  1  0
 20 21  1  0
 21 22  2  0
 22 23  1  0
 23 24  2  0
 24 25  1  0
 25 26  2  0
 26 27  1  0
 27 28  2  0
 28 29  1  0
 13 30  1  0
 30 31  1  0
  5 32  2  0
 32 33  1  0
 33 34  1  0
 34 35  1  0
 35 36  2  0
 36 37  1  0
 37 38  2  0
 38 39  1  0
 39 40  2  0
 40 41  1  0
 41  3  1  0
 31 10  1  0
 41 33  2  0
 28 17  1  0
 40 35  1  0
 29 20  2  0
 29 24  1  0
  1 42  1  0
  1 43  1  0
  1 44  1  0
  4 45  1  0
  6 46  1  0
  7 47  1  0
  7 48  1  0
  8 49  1  0
  8 50  1  0
  9 51  1  0
  9 52  1  0
 11 53  1  0
 11 54  1  0
 12 55  1  0
 12 56  1  0
 14 57  1  0
 14 58  1  0
 15 59  1  0
 15 60  1  0
 16 61  1  0
 16 62  1  0
 21 63  1  0
 22 64  1  0
 23 65  1  0
 25 66  1  0
 26 67  1  0
 27 68  1  0
 30 69  1  0
 30 70  1  0
 31 71  1  0
 31 72  1  0
 32 73  1  0
 36 74  1  0
 37 75  1  0
 38 76  1  0
 39 77  1  0
M  END
>  <UniqueID>  (5) 
4

>  <SMILES>  (5) 
COc1cc(NCCCN2CCN(CCCN3C(=O)c4cccc5cccc3c45)CC2)cc2oc3ccccc3c12

>  <Energy>  (5) 
182.90882407913932

>  <Genealogy>  (5) 
COc1cc(NCCCN2CCN(CCCN3C(=O)c4cccc5cccc3c45)CC2)cc2oc3ccccc3c12 (3D coordinates assigned)
COc1cc(NCCCN2CCN(CCCN3C(=O)c4cccc5cccc3c45)CC2)cc2oc3ccccc3c12 (nonaromatic ring conformer: 182.90882407913932 kcal/mol)

>  <smiles>  (5) 
COc1cc(NCCCN2CCN(CCCN3C(=O)c4cccc5cccc3c45)CC2)cc2oc3ccccc3c12

>  <score_type>  (5) 
oracle

>  <origin>  (5) 
adg

>  <m_score__min__energy>  (5) 
-9.75

>  <m_primary>  (5) 
energy

$$$$
5:0
     RDKit          3D

 38 40  0  0  0  0  0  0  0  0999 V2000
   59.0990   31.5590   47.4760 C   0  0  0  0  0  0  0  0  0  0  0  0
   59.0880   32.9140   46.8040 C   0  0  0  0  0  0  0  0  0  0  0  0
   58.6850   33.0470   45.4460 C   0  0  0  0  0  0  0  0  0  0  0  0
   58.0910   31.9180   44.6860 C   0  0  0  0  0  0  0  0  0  0  0  0
   57.3880   32.0120   43.4960 C   0  0  0  0  0  0  0  0  0  0  0  0
   57.0160   30.7240   43.1720 C   0  0  0  0  0  0  0  0  0  0  0  0
   57.5120   29.9230   44.1840 C   0  0  0  0  0  0  0  0  0  0  0  0
   57.3740   28.4630   44.3000 C   0  0  0  0  0  0  0  0  0  0  0  0
   57.8040   27.7360   43.3640 O   0  0  0  0  0  0  0  0  0  0  0  0
   56.7270   27.8680   45.4380 N   0  0  0  0  0  0  0  0  0  0  0  0
   56.8200   26.4710   45.7670 C   0  0  0  0  0  0  0  0  0  0  0  0
   58.0720   25.8340   45.8720 C   0  0  0  0  0  0  0  0  0  0  0  0
   58.1500   24.4820   46.2180 C   0  0  0  0  0  0  0  0  0  0  0  0
   56.9840   23.7560   46.4740 C   0  0  0  0  0  0  0  0  0  0  0  0
   55.7390   24.3820   46.3920 C   0  0  0  0  0  0  0  0  0  0  0  0
   55.6530   25.7350   46.0450 C   0  0  0  0  0  0  0  0  0  0  0  0
   54.4030   26.3400   45.9680 O   0  0  0  0  0  0  0  0  0  0  0  0
   58.1410   30.6610   45.0690 O   0  0  0  0  0  0  0  0  0  0  0  0
   58.8240   34.2900   44.8050 C   0  0  0  0  0  0  0  0  0  0  0  0
   59.3190   35.3940   45.4930 C   0  0  0  0  0  0  0  0  0  0  0  0
   59.6570   35.2870   46.8380 C   0  0  0  0  0  0  0  0  0  0  0  0
   59.5240   34.0650   47.5150 C   0  0  0  0  0  0  0  0  0  0  0  0
   59.8180   34.0140   48.9230 N   0  0  0  0  0  0  0  0  0  0  0  0
   59.0120   33.4800   49.7120 O   0  0  0  0  0  0  0  0  0  0  0  0
   61.0700   34.3540   49.3820 O   0  0  0  0  0  0  0  0  0  0  0  0
   59.0979   31.6913   48.5680 H   0  0  0  0  0  0  0  0  0  0  0  0
   58.2054   30.9929   47.1744 H   0  0  0  0  0  0  0  0  0  0  0  0
   60.0017   31.0074   47.1744 H   0  0  0  0  0  0  0  0  0  0  0  0
   57.1708   32.9272   42.9258 H   0  0  0  0  0  0  0  0  0  0  0  0
   56.4430   30.4007   42.2904 H   0  0  0  0  0  0  0  0  0  0  0  0
   56.0810   28.4640   46.0040 H   0  0  0  0  0  0  0  0  0  0  0  0
   58.9933   26.4037   45.6807 H   0  0  0  0  0  0  0  0  0  0  0  0
   59.1307   23.9889   46.2888 H   0  0  0  0  0  0  0  0  0  0  0  0
   57.0471   22.6906   46.7403 H   0  0  0  0  0  0  0  0  0  0  0  0
   54.8228   23.8101   46.6007 H   0  0  0  0  0  0  0  0  0  0  0  0
   58.5383   34.3915   43.7476 H   0  0  0  0  0  0  0  0  0  0  0  0
   59.4433   36.3544   44.9713 H   0  0  0  0  0  0  0  0  0  0  0  0
   60.0325   36.1695   47.3767 H   0  0  0  0  0  0  0  0  0  0  0  0
  1  2  1  0
  2  3  2  0
  3  4  1  0
  4  5  2  0
  5  6  1  0
  6  7  2  0
  7  8  1  0
  8  9  2  0
  8 10  1  0
 10 11  1  0
 11 12  2  0
 12 13  1  0
 13 14  2  0
 14 15  1  0
 15 16  2  0
 16 17  1  0
  7 18  1  0
  3 19  1  0
 19 20  2  0
 20 21  1  0
 21 22  2  0
 22 23  1  0
 23 24  2  0
 23 25  1  0
 22  2  1  0
 18  4  1  0
 16 11  1  0
  1 26  1  0
  1 27  1  0
  1 28  1  0
  5 29  1  0
  6 30  1  0
 10 31  1  0
 12 32  1  0
 13 33  1  0
 14 34  1  0
 15 35  1  0
 19 36  1  0
 20 37  1  0
 21 38  1  0
M  CHG  3  17  -1  23   1  25  -1
M  END
>  <UniqueID>  (6) 
5

>  <SMILES>  (6) 
Cc1c(-c2ccc(C(=O)Nc3ccccc3[O-])o2)cccc1[N+](=O)[O-]

>  <Energy>  (6) 
81.19583300944244

>  <Genealogy>  (6) 
Cc1c(-c2ccc(C(=O)Nc3ccccc3[O-])o2)cccc1[N+](=O)[O-] (protonated)
Cc1c(-c2ccc(C(=O)Nc3ccccc3[O-])o2)cccc1[N+](=O)[O-] (3D coordinates assigned)
Cc1c(-c2ccc(C(=O)Nc3ccccc3[O-])o2)cccc1[N+](=O)[O-] (optimized conformer: 81.19583300944244 kcal/mol)

>  <smiles>  (6) 
Cc1c(-c2ccc(C(=O)Nc3ccccc3O)o2)cccc1[N+](=O)[O-]

>  <score_type>  (6) 
oracle

>  <origin>  (6) 
adg

>  <m_score__min__energy>  (6) 
-12.029999999999999

>  <m_primary>  (6) 
energy

$$$$
6:0
     RDKit          3D

 38 40  0  0  0  0  0  0  0  0999 V2000
   60.2420   28.9690   44.6070 C   0  0  0  0  0  0  0  0  0  0  0  0
   58.8960   29.6450   44.6130 C   0  0  0  0  0  0  0  0  0  0  0  0
   58.7810   30.9180   45.1920 C   0  0  0  0  0  0  0  0  0  0  0  0
   57.5370   31.5660   45.2310 C   0  0  0  0  0  0  0  0  0  0  0  0
   57.3760   32.9380   45.8440 C   0  0  0  0  0  0  0  0  0  0  0  0
   58.1580   33.0520   47.1590 C   0  0  0  0  0  0  0  0  0  0  0  0
   57.7840   34.0390   44.8600 C   0  0  0  0  0  0  0  0  0  0  0  0
   56.4470   30.9450   44.7090 N   0  0  0  0  0  0  0  0  0  0  0  0
   56.5160   29.7100   44.1490 C   0  0  0  0  0  0  0  0  0  0  0  0
   57.7370   29.0170   44.0870 C   0  0  0  0  0  0  0  0  0  0  0  0
   57.7740   27.6910   43.5090 N   0  0  0  0  0  0  0  0  0  0  0  0
   57.7830   26.6920   44.5420 C   0  0  0  0  0  0  0  0  0  0  0  0
   58.1860   26.8580   45.8600 C   0  0  0  0  0  0  0  0  0  0  0  0
   58.1010   25.6720   46.5150 N   0  0  0  0  0  0  0  0  0  0  0  0
   57.6570   24.8160   45.5680 C   0  0  0  0  0  0  0  0  0  0  0  0
   57.4140   23.4570   45.7250 C   0  0  0  0  0  0  0  0  0  0  0  0
   56.9730   22.7490   44.5960 C   0  0  0  0  0  0  0  0  0  0  0  0
   56.7990   23.4210   43.3710 C   0  0  0  0  0  0  0  0  0  0  0  0
   57.0560   24.7580   43.2900 N   0  0  0  0  0  0  0  0  0  0  0  0
   57.4650   25.4020   44.3800 N   0  0  0  0  0  0  0  0  0  0  0  0
   60.5734   28.8026   45.6426 H   0  0  0  0  0  0  0  0  0  0  0  0
   60.1647   28.0028   44.0870 H   0  0  0  0  0  0  0  0  0  0  0  0
   60.9709   29.6080   44.0870 H   0  0  0  0  0  0  0  0  0  0  0  0
   59.6688   31.4095   45.6166 H   0  0  0  0  0  0  0  0  0  0  0  0
   56.3094   33.0768   46.0746 H   0  0  0  0  0  0  0  0  0  0  0  0
   57.4653   32.9510   48.0075 H   0  0  0  0  0  0  0  0  0  0  0  0
   58.9143   32.2546   47.2062 H   0  0  0  0  0  0  0  0  0  0  0  0
   58.6551   34.0321   47.2062 H   0  0  0  0  0  0  0  0  0  0  0  0
   58.1131   34.9271   45.4194 H   0  0  0  0  0  0  0  0  0  0  0  0
   58.6081   33.6781   44.2270 H   0  0  0  0  0  0  0  0  0  0  0  0
   56.9237   34.3023   44.2270 H   0  0  0  0  0  0  0  0  0  0  0  0
   55.6062   29.2468   43.7394 H   0  0  0  0  0  0  0  0  0  0  0  0
   58.6140   27.5860   42.8960 H   0  0  0  0  0  0  0  0  0  0  0  0
   56.9370   27.5270   42.9040 H   0  0  0  0  0  0  0  0  0  0  0  0
   58.5227   27.8057   46.3055 H   0  0  0  0  0  0  0  0  0  0  0  0
   57.5611   22.9568   46.6936 H   0  0  0  0  0  0  0  0  0  0  0  0
   56.7638   21.6715   44.6681 H   0  0  0  0  0  0  0  0  0  0  0  0
   56.4571   22.8697   42.4826 H   0  0  0  0  0  0  0  0  0  0  0  0
  1  2  1  0
  2  3  2  0
  3  4  1  0
  4  5  1  0
  5  6  1  0
  5  7  1  0
  4  8  2  0
  8  9  1  0
  9 10  2  0
 10 11  1  0
 11 12  1  0
 12 13  2  0
 13 14  1  0
 14 15  2  0
 15 16  1  0
 16 17  2  0
 17 18  1  0
 18 19  2  0
 19 20  1  0
 10  2  1  0
 20 12  1  0
 20 15  1  0
  1 21  1  0
  1 22  1  0
  1 23  1  0
  3 24  1  0
  5 25  1  0
  6 26  1  0
  6 27  1  0
  6 28  1  0
  7 29  1  0
  7 30  1  0
  7 31  1  0
  9 32  1  0
 11 33  1  0
 11 34  1  0
 13 35  1  0
 16 36  1  0
 17 37  1  0
 18 38  1  0
M  CHG  1  11   1
M  END
>  <UniqueID>  (7) 
6

>  <SMILES>  (7) 
Cc1cc(C(C)C)ncc1[NH2+]c1cnc2cccnn12

>  <Energy>  (7) 
76.95457491557642

>  <Genealogy>  (7) 
Cc1cc(C(C)C)ncc1[NH2+]c1cnc2cccnn12 (protonated)
Cc1cc(C(C)C)ncc1[NH2+]c1cnc2cccnn12 (3D coordinates assigned)
Cc1cc(C(C)C)ncc1[NH2+]c1cnc2cccnn12 (optimized conformer: 76.95457491557642 kcal/mol)

>  <smiles>  (7) 
Cc1cc(C(C)C)ncc1Nc1cnc2cccnn12

>  <score_type>  (7) 
oracle

>  <origin>  (7) 
adg

>  <m_score__min__energy>  (7) 
-6.0099999999999998

>  <m_primary>  (7) 
energy

$$$$
7:0
     RDKit          3D

 46 49  0  0  0  0  0  0  0  0999 V2000
   63.4140   33.1680   46.7210 C   0  0  0  0  0  0  0  0  0  0  0  0
   63.2350   33.3230   48.2090 C   0  0  0  0  0  0  0  0  0  0  0  0
   64.3500   33.0980   49.0390 C   0  0  0  0  0  0  0  0  0  0  0  0
   64.2490   33.2390   50.4220 C   0  0  0  0  0  0  0  0  0  0  0  0
   63.0370   33.6060   51.0000 C   0  0  0  0  0  0  0  0  0  0  0  0
   61.9180   33.8310   50.1960 C   0  0  0  0  0  0  0  0  0  0  0  0
   61.9910   33.6920   48.7970 C   0  0  0  0  0  0  0  0  0  0  0  0
   60.7500   33.9430   48.0150 C   0  0  0  0  0  0  0  0  0  0  0  0
   59.4900   33.7180   48.4480 N   0  0  0  0  0  0  0  0  0  0  0  0
   58.6980   34.0770   47.4540 N   0  0  0  0  0  0  0  0  0  0  0  0
   59.4810   34.5060   46.4540 C   0  0  0  0  0  0  0  0  0  0  0  0
   58.8830   35.1120   44.8770 S   0  0  0  0  0  0  0  0  0  0  0  0
   58.6810   33.4540   44.1320 C   0  0  0  0  0  0  0  0  0  0  0  0
   57.6790   32.6300   44.8900 C   0  0  0  0  0  0  0  0  0  0  0  0
   56.8630   33.1990   45.6630 O   0  0  0  0  0  0  0  0  0  0  0  0
   57.7300   31.1920   44.8520 N   0  0  0  0  0  0  0  0  0  0  0  0
   56.7590   30.5230   43.9710 C   0  0  0  0  0  0  0  0  0  0  0  0
   57.0300   29.0220   43.8490 C   0  0  0  0  0  0  0  0  0  0  0  0
   57.1560   28.3900   45.2340 C   0  0  0  0  0  0  0  0  0  0  0  0
   58.2500   29.0650   46.0130 C   0  0  0  0  0  0  0  0  0  0  0  0
   58.9870   28.3390   46.9610 C   0  0  0  0  0  0  0  0  0  0  0  0
   60.0180   28.9540   47.6720 C   0  0  0  0  0  0  0  0  0  0  0  0
   60.3230   30.2960   47.4390 C   0  0  0  0  0  0  0  0  0  0  0  0
   59.5840   31.0330   46.5110 C   0  0  0  0  0  0  0  0  0  0  0  0
   58.5140   30.4380   45.8110 C   0  0  0  0  0  0  0  0  0  0  0  0
   60.7440   34.4310   46.7910 O   0  0  0  0  0  0  0  0  0  0  0  0
   64.2318   32.4598   46.5219 H   0  0  0  0  0  0  0  0  0  0  0  0
   62.4825   32.7865   46.2774 H   0  0  0  0  0  0  0  0  0  0  0  0
   63.6584   34.1445   46.2774 H   0  0  0  0  0  0  0  0  0  0  0  0
   65.3117   32.8076   48.5908 H   0  0  0  0  0  0  0  0  0  0  0  0
   65.1286   33.0599   51.0578 H   0  0  0  0  0  0  0  0  0  0  0  0
   62.9608   33.7189   52.0915 H   0  0  0  0  0  0  0  0  0  0  0  0
   60.9651   34.1212   50.6626 H   0  0  0  0  0  0  0  0  0  0  0  0
   57.6550   34.0330   47.4720 H   0  0  0  0  0  0  0  0  0  0  0  0
   58.3378   33.5680   43.0931 H   0  0  0  0  0  0  0  0  0  0  0  0
   59.6517   32.9378   44.1684 H   0  0  0  0  0  0  0  0  0  0  0  0
   55.7489   30.6687   44.3814 H   0  0  0  0  0  0  0  0  0  0  0  0
   56.8506   30.9660   42.9683 H   0  0  0  0  0  0  0  0  0  0  0  0
   56.1989   28.5463   43.3077 H   0  0  0  0  0  0  0  0  0  0  0  0
   57.9721   28.8726   43.3012 H   0  0  0  0  0  0  0  0  0  0  0  0
   56.2036   28.5019   45.7728 H   0  0  0  0  0  0  0  0  0  0  0  0
   57.3999   27.3233   45.1218 H   0  0  0  0  0  0  0  0  0  0  0  0
   58.7509   27.2804   47.1444 H   0  0  0  0  0  0  0  0  0  0  0  0
   60.5906   28.3812   48.4163 H   0  0  0  0  0  0  0  0  0  0  0  0
   61.1476   30.7744   47.9878 H   0  0  0  0  0  0  0  0  0  0  0  0
   59.8387   32.0867   46.3245 H   0  0  0  0  0  0  0  0  0  0  0  0
  1  2  1  0
  2  3  2  0
  3  4  1  0
  4  5  2  0
  5  6  1  0
  6  7  2  0
  7  8  1  0
  8  9  2  0
  9 10  1  0
 10 11  2  0
 11 12  1  0
 12 13  1  0
 13 14  1  0
 14 15  2  0
 14 16  1  0
 16 17  1  0
 17 18  1  0
 18 19  1  0
 19 20  1  0
 20 21  2  0
 21 22  1  0
 22 23  2  0
 23 24  1  0
 24 25  2  0
 11 26  1  0
  7  2  1  0
 26  8  1  0
 25 16  1  0
 25 20  1  0
  1 27  1  0
  1 28  1  0
  1 29  1  0
  3 30  1  0
  4 31  1  0
  5 32  1  0
  6 33  1  0
 10 34  1  0
 13 35  1  0
 13 36  1  0
 17 37  1  0
 17 38  1  0
 18 39  1  0
 18 40  1  0
 19 41  1  0
 19 42  1  0
 21 43  1  0
 22 44  1  0
 23 45  1  0
 24 46  1  0
M  CHG  1  10   1
M  END
>  <UniqueID>  (8) 
7

>  <SMILES>  (8) 
Cc1ccccc1-c1n[nH+]c(SCC(=O)N2CCCc3ccccc32)o1

>  <Energy>  (8) 
92.2572318158137

>  <Genealogy>  (8) 
Cc1ccccc1-c1n[nH+]c(SCC(=O)N2CCCc3ccccc32)o1 (protonated)
Cc1ccccc1-c1n[nH+]c(SCC(=O)N2CCCc3ccccc32)o1 (3D coordinates assigned)
Cc1ccccc1-c1n[nH+]c(SCC(=O)N2CCCc3ccccc32)o1 (nonaromatic ring conformer: 92.2572318158137 kcal/mol)

>  <smiles>  (8) 
Cc1ccccc1-c1nnc(SCC(=O)N2CCCc3ccccc32)o1

>  <score_type>  (8) 
oracle

>  <origin>  (8) 
adg

>  <m_score__min__energy>  (8) 
-7.6200000000000001

>  <m_primary>  (8) 
energy

$$$$
8:0
     RDKit          3D

 54 58  0  0  0  0  0  0  0  0999 V2000
   57.0350   31.1350   43.5910 C   0  0  0  0  0  0  0  0  0  0  0  0
   56.9210   31.7420   44.8740 O   0  0  0  0  0  0  0  0  0  0  0  0
   57.9470   32.4690   45.5050 C   0  0  0  0  0  0  0  0  0  0  0  0
   57.9450   33.8800   45.5530 C   0  0  0  0  0  0  0  0  0  0  0  0
   58.9990   34.5690   46.1670 C   0  0  0  0  0  0  0  0  0  0  0  0
   60.0630   33.8630   46.7350 C   0  0  0  0  0  0  0  0  0  0  0  0
   60.0750   32.4640   46.6960 C   0  0  0  0  0  0  0  0  0  0  0  0
   59.0180   31.7620   46.0910 C   0  0  0  0  0  0  0  0  0  0  0  0
   59.0470   30.3260   46.0580 N   0  0  0  0  0  0  0  0  0  0  0  0
   59.5830   29.6280   44.8860 C   0  0  0  0  0  0  0  0  0  0  0  0
   60.2460   28.3160   45.3270 C   0  0  0  0  0  0  0  0  0  0  0  0
   59.3500   27.4300   46.1360 N   0  0  0  0  0  0  0  0  0  0  0  0
   58.8990   26.2490   45.3500 C   0  0  0  0  0  0  0  0  0  0  0  0
   58.3270   25.1160   46.2480 C   0  0  1  0  0  0  0  0  0  0  0  0
   56.8970   25.4640   46.7940 C   0  0  0  0  0  0  0  0  0  0  0  0
   55.7600   25.2790   45.7480 C   0  0  0  0  0  0  0  0  0  0  0  0
   55.9460   24.0210   45.0260 N   0  0  0  0  0  0  0  0  0  0  0  0
   55.1040   23.2670   44.2770 C   0  0  0  0  0  0  0  0  0  0  0  0
   53.8860   23.5460   44.1150 O   0  0  0  0  0  0  0  0  0  0  0  0
   55.6980   22.1790   43.7070 N   0  0  0  0  0  0  0  0  0  0  0  0
   56.9770   22.2960   44.1310 C   0  0  0  0  0  0  0  0  0  0  0  0
   58.0710   21.4730   43.8630 C   0  0  0  0  0  0  0  0  0  0  0  0
   59.3200   21.8400   44.4260 C   0  0  0  0  0  0  0  0  0  0  0  0
   59.4390   23.0100   45.2260 C   0  0  0  0  0  0  0  0  0  0  0  0
   58.3030   23.8090   45.4770 C   0  0  0  0  0  0  0  0  0  0  0  0
   57.1130   23.4020   44.9020 C   0  0  0  0  0  0  0  0  0  0  0  0
   58.1670   28.1290   46.7070 C   0  0  0  0  0  0  0  0  0  0  0  0
   58.5070   29.5480   47.1780 C   0  0  0  0  0  0  0  0  0  0  0  0
   57.2368   30.0603   43.7105 H   0  0  0  0  0  0  0  0  0  0  0  0
   56.0954   31.2721   43.0357 H   0  0  0  0  0  0  0  0  0  0  0  0
   57.8608   31.6037   43.0357 H   0  0  0  0  0  0  0  0  0  0  0  0
   57.1114   34.4414   45.1059 H   0  0  0  0  0  0  0  0  0  0  0  0
   58.9891   35.6684   46.2021 H   0  0  0  0  0  0  0  0  0  0  0  0
   60.8912   34.4069   47.2128 H   0  0  0  0  0  0  0  0  0  0  0  0
   60.9155   31.9112   47.1409 H   0  0  0  0  0  0  0  0  0  0  0  0
   58.7643   29.4070   44.1853 H   0  0  0  0  0  0  0  0  0  0  0  0
   60.3295   30.2661   44.3905 H   0  0  0  0  0  0  0  0  0  0  0  0
   60.5583   27.7654   44.4274 H   0  0  0  0  0  0  0  0  0  0  0  0
   61.0962   28.5864   45.9705 H   0  0  0  0  0  0  0  0  0  0  0  0
   59.9080   27.0870   46.9560 H   0  0  0  0  0  0  0  0  0  0  0  0
   58.1159   26.5713   44.6479 H   0  0  0  0  0  0  0  0  0  0  0  0
   59.7758   25.8454   44.8225 H   0  0  0  0  0  0  0  0  0  0  0  0
   58.9881   25.0105   47.1208 H   0  0  0  0  0  0  0  0  0  0  0  0
   56.6862   24.8109   47.6537 H   0  0  0  0  0  0  0  0  0  0  0  0
   56.9100   26.5297   47.0661 H   0  0  0  0  0  0  0  0  0  0  0  0
   54.7888   25.2628   46.2643 H   0  0  0  0  0  0  0  0  0  0  0  0
   55.7876   26.1140   45.0325 H   0  0  0  0  0  0  0  0  0  0  0  0
   57.9688   20.5732   43.2385 H   0  0  0  0  0  0  0  0  0  0  0  0
   60.2054   21.2136   44.2421 H   0  0  0  0  0  0  0  0  0  0  0  0
   60.4148   23.2916   45.6484 H   0  0  0  0  0  0  0  0  0  0  0  0
   57.3844   28.1891   45.9363 H   0  0  0  0  0  0  0  0  0  0  0  0
   57.8238   27.5554   47.5806 H   0  0  0  0  0  0  0  0  0  0  0  0
   57.5963   30.0355   47.5561 H   0  0  0  0  0  0  0  0  0  0  0  0
   59.2584   29.4949   47.9796 H   0  0  0  0  0  0  0  0  0  0  0  0
  1  2  1  0
  2  3  1  0
  3  4  2  0
  4  5  1  0
  5  6  2  0
  6  7  1  0
  7  8  2  0
  8  9  1  0
  9 10  1  0
 10 11  1  0
 11 12  1  0
 12 13  1  0
 13 14  1  0
 14 15  1  0
 15 16  1  0
 16 17  1  0
 17 18  1  0
 18 19  2  0
 18 20  1  0
 20 21  1  0
 21 22  2  0
 22 23  1  0
 23 24  2  0
 24 25  1  0
 25 26  2  0
 12 27  1  0
 27 28  1  0
  8  3  1  0
 28  9  1  0
 25 14  1  0
 26 17  1  0
 26 21  1  0
  1 29  1  0
  1 30  1  0
  1 31  1  0
  4 32  1  0
  5 33  1  0
  6 34  1  0
  7 35  1  0
 10 36  1  0
 10 37  1  0
 11 38  1  0
 11 39  1  0
 12 40  1  0
 13 41  1  0
 13 42  1  0
 14 43  1  1
 15 44  1  0
 15 45  1  0
 16 46  1  0
 16 47  1  0
 22 48  1  0
 23 49  1  0
 24 50  1  0
 27 51  1  0
 27 52  1  0
 28 53  1  0
 28 54  1  0
M  CHG  2  12   1  20  -1
M  END
>  <UniqueID>  (9) 
8

>  <SMILES>  (9) 
COc1ccccc1N1CC[NH+](C[C@H]2CCn3c(=O)[n-]c4cccc2c43)CC1

>  <Energy>  (9) 
116.40704132768536

>  <Genealogy>  (9) 
COc1ccccc1N1CC[NH+](CC2CCn3c(=O)[n-]c4cccc2c43)CC1 (protonated)
COc1ccccc1N1CC[NH+](C[C@H]2CCn3c(=O)[n-]c4cccc2c43)CC1 (chirality)
COc1ccccc1N1CC[NH+](C[C@H]2CCn3c(=O)[n-]c4cccc2c43)CC1 (3D coordinates assigned)
COc1ccccc1N1CC[NH+](C[C@H]2CCn3c(=O)[n-]c4cccc2c43)CC1 (nonaromatic ring conformer: 116.40704132768536 kcal/mol)

>  <smiles>  (9) 
COc1ccccc1N1CCN(CC2CCn3c(=O)[nH]c4cccc2c43)CC1

>  <score_type>  (9) 
oracle

>  <origin>  (9) 
adg

>  <m_score__min__energy>  (9) 
-8.0399999999999991

>  <m_primary>  (9) 
energy

$$$$
9:0
     RDKit          3D

 35 36  0  0  0  0  0  0  0  0999 V2000
   65.2450   33.4190   50.0760 C   0  0  0  0  0  0  0  0  0  0  0  0
   63.9080   33.3530   49.3980 C   0  0  0  0  0  0  0  0  0  0  0  0
   63.7790   32.7210   48.1520 C   0  0  0  0  0  0  0  0  0  0  0  0
   62.5270   32.6270   47.5360 C   0  0  0  0  0  0  0  0  0  0  0  0
   61.3810   33.1390   48.1710 C   0  0  0  0  0  0  0  0  0  0  0  0
   60.0870   33.0770   47.5480 N   0  0  0  0  0  0  0  0  0  0  0  0
   59.5310   34.1290   46.7430 C   0  0  0  0  0  0  0  0  0  0  0  0
   60.2500   35.0920   46.3600 O   0  0  0  0  0  0  0  0  0  0  0  0
   58.0820   34.0840   46.3380 C   0  0  1  0  0  0  0  0  0  0  0  0
   57.9320   34.5290   44.8860 C   0  0  0  0  0  0  0  0  0  0  0  0
   57.5690   32.7590   46.4770 O   0  0  0  0  0  0  0  0  0  0  0  0
   58.1090   31.6530   45.8100 C   0  0  0  0  0  0  0  0  0  0  0  0
   59.0910   31.0270   46.2940 O   0  0  0  0  0  0  0  0  0  0  0  0
   57.5220   31.2220   44.5360 C   0  0  0  0  0  0  0  0  0  0  0  0
   57.7160   31.8220   43.2980 C   0  0  0  0  0  0  0  0  0  0  0  0
   57.0220   31.1840   42.2630 C   0  0  0  0  0  0  0  0  0  0  0  0
   56.2810   30.0860   42.6810 C   0  0  0  0  0  0  0  0  0  0  0  0
   56.4910   29.9080   44.3400 S   0  0  0  0  0  0  0  0  0  0  0  0
   61.5170   33.7750   49.4140 C   0  0  0  0  0  0  0  0  0  0  0  0
   62.7670   33.8690   50.0300 C   0  0  0  0  0  0  0  0  0  0  0  0
   65.1037   33.4120   51.1669 H   0  0  0  0  0  0  0  0  0  0  0  0
   65.8500   32.5496   49.7791 H   0  0  0  0  0  0  0  0  0  0  0  0
   65.7614   34.3437   49.7791 H   0  0  0  0  0  0  0  0  0  0  0  0
   64.6660   32.2979   47.6578 H   0  0  0  0  0  0  0  0  0  0  0  0
   62.4379   32.1498   46.5489 H   0  0  0  0  0  0  0  0  0  0  0  0
   59.5570   32.1780   47.6120 H   0  0  0  0  0  0  0  0  0  0  0  0
   57.5166   34.7632   46.9930 H   0  0  0  0  0  0  0  0  0  0  0  0
   57.5808   35.5710   44.8563 H   0  0  0  0  0  0  0  0  0  0  0  0
   58.9046   34.4553   44.3776 H   0  0  0  0  0  0  0  0  0  0  0  0
   57.2025   33.8815   44.3776 H   0  0  0  0  0  0  0  0  0  0  0  0
   58.3502   32.7079   43.1465 H   0  0  0  0  0  0  0  0  0  0  0  0
   57.0600   31.5208   41.2165 H   0  0  0  0  0  0  0  0  0  0  0  0
   55.6628   29.4431   42.0372 H   0  0  0  0  0  0  0  0  0  0  0  0
   60.6320   34.2031   49.9075 H   0  0  0  0  0  0  0  0  0  0  0  0
   62.8571   34.3499   51.0152 H   0  0  0  0  0  0  0  0  0  0  0  0
  1  2  1  0
  2  3  2  0
  3  4  1  0
  4  5  2  0
  5  6  1  0
  6  7  1  0
  7  8  2  0
  7  9  1  0
  9 10  1  0
  9 11  1  0
 11 12  1  0
 12 13  2  0
 12 14  1  0
 14 15  2  0
 15 16  1  0
 16 17  2  0
 17 18  1  0
  5 19  1  0
 19 20  2  0
 20  2  1  0
 18 14  1  0
  1 21  1  0
  1 22  1  0
  1 23  1  0
  3 24  1  0
  4 25  1  0
  6 26  1  0
  9 27  1  1
 10 28  1  0
 10 29  1  0
 10 30  1  0
 15 31  1  0
 16 32  1  0
 17 33  1  0
 19 34  1  0
 20 35  1  0
M  END
>  <UniqueID>  (10) 
9

>  <SMILES>  (10) 
Cc1ccc(NC(=O)[C@@H](C)OC(=O)c2cccs2)cc1

>  <Energy>  (10) 
57.95979515991659

>  <Genealogy>  (10) 
Cc1ccc(NC(=O)[C@@H](C)OC(=O)c2cccs2)cc1 (chirality)
Cc1ccc(NC(=O)[C@@H](C)OC(=O)c2cccs2)cc1 (3D coordinates assigned)
Cc1ccc(NC(=O)[C@@H](C)OC(=O)c2cccs2)cc1 (optimized conformer: 57.95979515991659 kcal/mol)

>  <smiles>  (10) 
Cc1ccc(NC(=O)C(C)OC(=O)c2cccs2)cc1

>  <score_type>  (10) 
oracle

>  <origin>  (10) 
adg

>  <m_score__min__energy>  (10) 
-6.8799999999999999

>  <m_primary>  (10) 
energy

$$$$
10:0
     RDKit          3D

 43 45  0  0  0  0  0  0  0  0999 V2000
   56.0456   26.6545   47.0525 H   0  0  0  0  0  0  0  0  0  0  0  0
   56.5100   26.5960   46.0570 C   0  0  0  0  0  0  0  0  0  0  0  0
   57.2190   27.6570   45.6360 C   0  0  0  0  0  0  0  0  0  0  0  0
   56.7150   28.8970   45.0620 C   0  0  0  0  0  0  0  0  0  0  0  0
   55.5010   29.1820   44.8900 O   0  0  0  0  0  0  0  0  0  0  0  0
   57.8430   29.7530   44.7240 C   0  0  0  0  0  0  0  0  0  0  0  0
   57.8110   30.9850   44.1880 C   0  0  0  0  0  0  0  0  0  0  0  0
   57.4479   31.0832   43.1543 H   0  0  0  0  0  0  0  0  0  0  0  0
   58.2280   32.2140   44.8870 C   0  0  0  0  0  0  0  0  0  0  0  0
   58.1880   33.4400   44.2080 C   0  0  0  0  0  0  0  0  0  0  0  0
   57.8869   33.4708   43.1505 H   0  0  0  0  0  0  0  0  0  0  0  0
   58.5290   34.6230   44.8690 C   0  0  0  0  0  0  0  0  0  0  0  0
   58.5075   35.5801   44.3272 H   0  0  0  0  0  0  0  0  0  0  0  0
   58.8970   34.5930   46.2160 C   0  0  0  0  0  0  0  0  0  0  0  0
   59.1628   35.5272   46.7323 H   0  0  0  0  0  0  0  0  0  0  0  0
   58.9290   33.3760   46.9130 C   0  0  0  0  0  0  0  0  0  0  0  0
   59.2700   33.3480   48.3730 C   0  0  0  0  0  0  0  0  0  0  0  0
   58.3470   33.4238   48.9666 H   0  0  0  0  0  0  0  0  0  0  0  0
   59.7831   32.4047   48.6117 H   0  0  0  0  0  0  0  0  0  0  0  0
   59.9301   34.1950   48.6117 H   0  0  0  0  0  0  0  0  0  0  0  0
   58.5660   32.1920   46.2510 C   0  0  0  0  0  0  0  0  0  0  0  0
   58.5461   31.2411   46.8036 H   0  0  0  0  0  0  0  0  0  0  0  0
   59.1170   29.0840   45.1370 C   0  0  0  0  0  0  0  0  0  0  0  0
   59.6014   29.6501   45.9462 H   0  0  0  0  0  0  0  0  0  0  0  0
   59.8332   29.0301   44.3038 H   0  0  0  0  0  0  0  0  0  0  0  0
   58.7160   27.6780   45.6310 C   0  0  0  0  0  0  0  0  0  0  0  0
   59.1046   27.5034   46.6452 H   0  0  0  0  0  0  0  0  0  0  0  0
   59.1291   26.8895   44.9847 H   0  0  0  0  0  0  0  0  0  0  0  0
   56.3100   25.3590   45.2800 C   0  0  0  0  0  0  0  0  0  0  0  0
   55.1650   24.5680   45.4600 C   0  0  0  0  0  0  0  0  0  0  0  0
   54.3847   24.8882   46.1661 H   0  0  0  0  0  0  0  0  0  0  0  0
   55.0100   23.3750   44.7470 C   0  0  0  0  0  0  0  0  0  0  0  0
   54.1011   22.7701   44.8811 H   0  0  0  0  0  0  0  0  0  0  0  0
   56.0140   22.9460   43.8580 C   0  0  0  0  0  0  0  0  0  0  0  0
   55.9060   21.7600   43.1180 O   0  0  0  0  0  0  0  0  0  0  0  0
   56.9390   20.7880   43.0000 C   0  0  0  0  0  0  0  0  0  0  0  0
   57.2677   20.4787   44.0031 H   0  0  0  0  0  0  0  0  0  0  0  0
   56.5583   19.9130   42.4528 H   0  0  0  0  0  0  0  0  0  0  0  0
   57.7893   21.2212   42.4528 H   0  0  0  0  0  0  0  0  0  0  0  0
   57.1680   23.7230   43.7060 C   0  0  0  0  0  0  0  0  0  0  0  0
   57.9613   23.3918   43.0198 H   0  0  0  0  0  0  0  0  0  0  0  0
   57.3220   24.9160   44.4180 C   0  0  0  0  0  0  0  0  0  0  0  0
   58.2410   25.5092   44.3012 H   0  0  0  0  0  0  0  0  0  0  0  0
  1  2  1  0
  2  3  2  3
  3  4  1  0
  4  5  2  0
  4  6  1  0
  6  7  2  0
  7  8  1  0
  7  9  1  0
  9 10  2  0
 10 11  1  0
 10 12  1  0
 12 13  1  0
 12 14  2  0
 14 15  1  0
 14 16  1  0
 16 17  1  0
 17 18  1  0
 17 19  1  0
 17 20  1  0
 16 21  2  0
 21 22  1  0
  6 23  1  0
 23 24  1  0
 23 25  1  0
 23 26  1  0
 26 27  1  0
 26 28  1  0
  2 29  1  0
 29 30  2  0
 30 31  1  0
 30 32  1  0
 32 33  1  0
 32 34  2  0
 34 35  1  0
 35 36  1  0
 36 37  1  0
 36 38  1  0
 36 39  1  0
 34 40  1  0
 40 41  1  0
 40 42  2  0
 42 43  1  0
 26  3  1  0
 42 29  1  0
 21  9  1  0
M  END
>  <UniqueID>  (11) 
10

>  <SMILES>  (11) 
COc1ccc(C=C2CC/C(=C/c3cccc(C)c3)C2=O)cc1

>  <Energy>  (11) 
67.61693585040487

>  <Genealogy>  (11) 
COc1ccc(C=C2CC/C(=C/c3cccc(C)c3)C2=O)cc1 (cis-trans isomerization)
COc1ccc(C=C2CC/C(=C/c3cccc(C)c3)C2=O)cc1 (3D coordinates assigned)
COc1ccc(C=C2CC/C(=C/c3cccc(C)c3)C2=O)cc1 (nonaromatic ring conformer: 67.61693585040487 kcal/mol)

>  <smiles>  (11) 
COc1ccc(C=C2CCC(=Cc3cccc(C)c3)C2=O)cc1

>  <score_type>  (11) 
oracle

>  <origin>  (11) 
adg

>  <m_score__min__energy>  (11) 
-9.2699999999999996

>  <m_primary>  (11) 
energy

$$$$
11:0
     RDKit          3D

 26 28  0  0  0  0  0  0  0  0999 V2000
   56.2810   29.7150   42.6140 C   0  0  0  0  0  0  0  0  0  0  0  0
   56.8300   30.6840   43.6040 C   0  0  0  0  0  0  0  0  0  0  0  0
   56.7240   30.5270   44.9420 N   0  0  0  0  0  0  0  0  0  0  0  0
   57.3530   31.4740   45.6360 N   0  0  0  0  0  0  0  0  0  0  0  0
   57.9590   32.3940   44.8530 C   0  0  0  0  0  0  0  0  0  0  0  0
   58.7740   33.4530   45.3790 N   0  0  0  0  0  0  0  0  0  0  0  0
   58.9020   34.6840   44.8510 C   0  0  0  0  0  0  0  0  0  0  0  0
   59.6260   35.4860   45.6530 N   0  0  0  0  0  0  0  0  0  0  0  0
   59.9810   34.7670   46.7080 N   0  0  0  0  0  0  0  0  0  0  0  0
   59.4650   33.5330   46.5370 C   0  0  0  0  0  0  0  0  0  0  0  0
   59.7360   32.4230   47.4710 C   0  0  0  0  0  0  0  0  0  0  0  0
   58.9220   32.2160   48.5970 C   0  0  0  0  0  0  0  0  0  0  0  0
   59.1680   31.1430   49.4580 C   0  0  0  0  0  0  0  0  0  0  0  0
   60.2170   30.2580   49.1910 C   0  0  0  0  0  0  0  0  0  0  0  0
   61.0150   30.4420   48.0590 C   0  0  0  0  0  0  0  0  0  0  0  0
   60.7720   31.5160   47.1960 C   0  0  0  0  0  0  0  0  0  0  0  0
   57.7700   32.0260   43.2160 S   0  0  0  0  0  0  0  0  0  0  0  0
   55.8063   28.8771   43.1455 H   0  0  0  0  0  0  0  0  0  0  0  0
   55.5343   30.2190   41.9828 H   0  0  0  0  0  0  0  0  0  0  0  0
   57.0972   29.3336   41.9828 H   0  0  0  0  0  0  0  0  0  0  0  0
   58.4705   34.9946   43.8880 H   0  0  0  0  0  0  0  0  0  0  0  0
   58.0868   32.9019   48.8021 H   0  0  0  0  0  0  0  0  0  0  0  0
   58.5361   30.9947   50.3461 H   0  0  0  0  0  0  0  0  0  0  0  0
   60.4140   29.4170   49.8721 H   0  0  0  0  0  0  0  0  0  0  0  0
   61.8357   29.7412   47.8459 H   0  0  0  0  0  0  0  0  0  0  0  0
   61.3946   31.6503   46.2991 H   0  0  0  0  0  0  0  0  0  0  0  0
  1  2  1  0
  2  3  2  0
  3  4  1  0
  4  5  2  0
  5  6  1  0
  6  7  1  0
  7  8  2  0
  8  9  1  0
  9 10  2  0
 10 11  1  0
 11 12  2  0
 12 13  1  0
 13 14  2  0
 14 15  1  0
 15 16  2  0
  5 17  1  0
 17  2  1  0
 10  6  1  0
 16 11  1  0
  1 18  1  0
  1 19  1  0
  1 20  1  0
  7 21  1  0
 12 22  1  0
 13 23  1  0
 14 24  1  0
 15 25  1  0
 16 26  1  0
M  END
>  <UniqueID>  (12) 
11

>  <SMILES>  (12) 
Cc1nnc(-n2cnnc2-c2ccccc2)s1

>  <Energy>  (12) 
103.22523810592301

>  <Genealogy>  (12) 
Cc1nnc(-n2cnnc2-c2ccccc2)s1 (3D coordinates assigned)
Cc1nnc(-n2cnnc2-c2ccccc2)s1 (optimized conformer: 103.22523810592301 kcal/mol)

>  <smiles>  (12) 
Cc1nnc(-n2cnnc2-c2ccccc2)s1

>  <score_type>  (12) 
oracle

>  <origin>  (12) 
adg

>  <m_score__min__energy>  (12) 
-6.7300000000000004

>  <m_primary>  (12) 
energy

$$$$
12:0
     RDKit          3D

 38 39  0  0  0  0  0  0  0  0999 V2000
   56.6650   30.8080   43.1310 C   0  0  0  0  0  0  0  0  0  0  0  0
   56.5720   31.2090   44.4920 O   0  0  0  0  0  0  0  0  0  0  0  0
   57.7080   31.3410   45.2980 C   0  0  0  0  0  0  0  0  0  0  0  0
   58.1620   32.6220   45.6670 C   0  0  0  0  0  0  0  0  0  0  0  0
   57.4270   33.8640   45.2460 C   0  0  0  0  0  0  0  0  0  0  0  0
   59.3300   32.7460   46.4250 C   0  0  0  0  0  0  0  0  0  0  0  0
   60.0330   31.6140   46.8300 C   0  0  0  0  0  0  0  0  0  0  0  0
   59.5800   30.3280   46.4970 C   0  0  0  0  0  0  0  0  0  0  0  0
   60.3960   29.1490   46.9560 C   0  0  0  0  0  0  0  0  0  0  0  0
   58.3750   30.1830   45.7600 C   0  0  0  0  0  0  0  0  0  0  0  0
   57.6600   28.5910   45.3900 S   0  0  0  0  0  0  0  0  0  0  0  0
   56.1750   28.7610   45.2410 O   0  0  0  0  0  0  0  0  0  0  0  0
   58.2040   28.0040   44.1180 O   0  0  0  0  0  0  0  0  0  0  0  0
   57.9740   27.4840   46.7000 N   0  0  0  0  0  0  0  0  0  0  0  0
   57.9290   26.0890   46.2540 C   0  0  0  0  0  0  0  0  0  0  0  0
   56.5200   25.6380   46.0210 C   0  0  0  0  0  0  0  0  0  0  0  0
   56.1350   24.4820   45.3750 C   0  0  0  0  0  0  0  0  0  0  0  0
   54.7610   24.5830   45.3390 C   0  0  0  0  0  0  0  0  0  0  0  0
   53.8160   23.5940   44.7480 C   0  0  0  0  0  0  0  0  0  0  0  0
   54.3970   25.6980   45.9290 O   0  0  0  0  0  0  0  0  0  0  0  0
   55.4320   26.3650   46.3480 N   0  0  0  0  0  0  0  0  0  0  0  0
   56.9133   29.7376   43.0803 H   0  0  0  0  0  0  0  0  0  0  0  0
   55.7019   30.9852   42.6299 H   0  0  0  0  0  0  0  0  0  0  0  0
   57.4518   31.3910   42.6299 H   0  0  0  0  0  0  0  0  0  0  0  0
   57.0998   34.4169   46.1389 H   0  0  0  0  0  0  0  0  0  0  0  0
   58.0946   34.4994   44.6455 H   0  0  0  0  0  0  0  0  0  0  0  0
   56.5487   33.5845   44.6455 H   0  0  0  0  0  0  0  0  0  0  0  0
   59.6965   33.7450   46.7036 H   0  0  0  0  0  0  0  0  0  0  0  0
   60.9552   31.7293   47.4185 H   0  0  0  0  0  0  0  0  0  0  0  0
   60.4148   29.1218   48.0555 H   0  0  0  0  0  0  0  0  0  0  0  0
   59.9462   28.2207   46.5739 H   0  0  0  0  0  0  0  0  0  0  0  0
   61.4232   29.2430   46.5739 H   0  0  0  0  0  0  0  0  0  0  0  0
   58.4955   25.9942   45.3159 H   0  0  0  0  0  0  0  0  0  0  0  0
   58.3701   25.4585   47.0401 H   0  0  0  0  0  0  0  0  0  0  0  0
   56.7709   23.6745   44.9832 H   0  0  0  0  0  0  0  0  0  0  0  0
   53.2993   23.0533   45.5546 H   0  0  0  0  0  0  0  0  0  0  0  0
   53.0762   24.1198   44.1266 H   0  0  0  0  0  0  0  0  0  0  0  0
   54.3749   22.8789   44.1266 H   0  0  0  0  0  0  0  0  0  0  0  0
  1  2  1  0
  2  3  1  0
  3  4  2  0
  4  5  1  0
  4  6  1  0
  6  7  2  0
  7  8  1  0
  8  9  1  0
  8 10  2  0
 10 11  1  0
 11 12  2  0
 11 13  2  0
 11 14  1  0
 14 15  1  0
 15 16  1  0
 16 17  1  0
 17 18  2  0
 18 19  1  0
 18 20  1  0
 20 21  1  0
 10  3  1  0
 21 16  2  0
  1 22  1  0
  1 23  1  0
  1 24  1  0
  5 25  1  0
  5 26  1  0
  5 27  1  0
  6 28  1  0
  7 29  1  0
  9 30  1  0
  9 31  1  0
  9 32  1  0
 15 33  1  0
 15 34  1  0
 17 35  1  0
 19 36  1  0
 19 37  1  0
 19 38  1  0
M  CHG  1  14  -1
M  END
>  <UniqueID>  (13) 
12

>  <SMILES>  (13) 
COc1c(C)ccc(C)c1S(=O)(=O)[N-]Cc1cc(C)on1

>  <Energy>  (13) 
71.26958960591935

>  <Genealogy>  (13) 
COc1c(C)ccc(C)c1S(=O)(=O)[N-]Cc1cc(C)on1 (protonated)
COc1c(C)ccc(C)c1S(=O)(=O)[N-]Cc1cc(C)on1 (3D coordinates assigned)
COc1c(C)ccc(C)c1S(=O)(=O)[N-]Cc1cc(C)on1 (optimized conformer: 71.26958960591935 kcal/mol)

>  <smiles>  (13) 
COc1c(C)ccc(C)c1S(=O)(=O)NCc1cc(C)on1

>  <score_type>  (13) 
oracle

>  <origin>  (13) 
adg

>  <m_score__min__energy>  (13) 
-9.6699999999999999

>  <m_primary>  (13) 
energy

$$$$
13:0
     RDKit          3D

 30 32  0  0  0  0  0  0  0  0999 V2000
   57.3890   31.2590   42.7630 C   0  0  0  0  0  0  0  0  0  0  0  0
   56.7460   31.2320   44.1700 C   0  0  1  0  0  0  0  0  0  0  0  0
   55.8660   29.9580   44.3100 C   0  0  0  0  0  0  0  0  0  0  0  0
   56.6850   28.7420   44.3930 N   0  0  0  0  0  0  0  0  0  0  0  0
   58.0240   28.8110   44.8870 C   0  0  0  0  0  0  0  0  0  0  0  0
   59.1460   27.5640   44.9020 S   0  0  0  0  0  0  0  0  0  0  0  0
   60.3910   28.5880   45.4070 C   0  0  0  0  0  0  0  0  0  0  0  0
   59.9590   29.8630   45.5460 N   0  0  0  0  0  0  0  0  0  0  0  0
   58.6340   29.9980   45.2510 C   0  0  0  0  0  0  0  0  0  0  0  0
   57.7990   31.2660   45.3280 C   0  0  1  0  0  0  0  0  0  0  0  0
   58.5870   32.5630   45.5070 C   0  0  0  0  0  0  0  0  0  0  0  0
   58.1560   33.8090   45.0000 C   0  0  0  0  0  0  0  0  0  0  0  0
   58.8860   34.9650   45.2870 C   0  0  0  0  0  0  0  0  0  0  0  0
   60.0120   34.8930   46.1030 C   0  0  0  0  0  0  0  0  0  0  0  0
   60.3840   33.6630   46.6390 C   0  0  0  0  0  0  0  0  0  0  0  0
   59.6630   32.5480   46.3440 N   0  0  0  0  0  0  0  0  0  0  0  0
   58.4837   31.3050   42.8609 H   0  0  0  0  0  0  0  0  0  0  0  0
   57.1079   30.3483   42.2139 H   0  0  0  0  0  0  0  0  0  0  0  0
   57.0326   32.1430   42.2139 H   0  0  0  0  0  0  0  0  0  0  0  0
   56.1364   32.1429   44.2630 H   0  0  0  0  0  0  0  0  0  0  0  0
   55.2585   30.0423   45.2232 H   0  0  0  0  0  0  0  0  0  0  0  0
   55.2263   29.8819   43.4184 H   0  0  0  0  0  0  0  0  0  0  0  0
   56.2720   27.8180   44.1330 H   0  0  0  0  0  0  0  0  0  0  0  0
   61.4232   28.2597   45.5988 H   0  0  0  0  0  0  0  0  0  0  0  0
   60.6020   30.6340   45.8220 H   0  0  0  0  0  0  0  0  0  0  0  0
   57.2452   31.2760   46.2783 H   0  0  0  0  0  0  0  0  0  0  0  0
   57.2485   33.8689   44.3812 H   0  0  0  0  0  0  0  0  0  0  0  0
   58.5712   35.9323   44.8683 H   0  0  0  0  0  0  0  0  0  0  0  0
   60.6002   35.7965   46.3214 H   0  0  0  0  0  0  0  0  0  0  0  0
   61.2602   33.5930   47.3004 H   0  0  0  0  0  0  0  0  0  0  0  0
  1  2  1  0
  2  3  1  0
  3  4  1  0
  4  5  1  0
  5  6  1  0
  6  7  1  0
  7  8  2  0
  8  9  1  0
  9 10  1  0
 10 11  1  0
 11 12  2  0
 12 13  1  0
 13 14  2  0
 14 15  1  0
 15 16  2  0
 10  2  1  0
 16 11  1  0
  9  5  2  0
  1 17  1  0
  1 18  1  0
  1 19  1  0
  2 20  1  1
  3 21  1  0
  3 22  1  0
  4 23  1  0
  7 24  1  0
  8 25  1  0
 10 26  1  1
 12 27  1  0
 13 28  1  0
 14 29  1  0
 15 30  1  0
M  CHG  1   8   1
M  END
>  <UniqueID>  (14) 
13

>  <SMILES>  (14) 
C[C@H]1CNc2sc[nH+]c2[C@H]1c1ccccn1

>  <Energy>  (14) 
74.165813213606

>  <Genealogy>  (14) 
CC1CNc2sc[nH+]c2C1c1ccccn1 (protonated)
C[C@H]1CNc2sc[nH+]c2[C@H]1c1ccccn1 (chirality)
C[C@H]1CNc2sc[nH+]c2[C@H]1c1ccccn1 (3D coordinates assigned)
C[C@H]1CNc2sc[nH+]c2[C@H]1c1ccccn1 (nonaromatic ring conformer: 74.165813213606 kcal/mol)

>  <smiles>  (14) 
CC1CNc2scnc2C1c1ccccn1

>  <score_type>  (14) 
oracle

>  <origin>  (14) 
adg

>  <m_score__min__energy>  (14) 
-5.1600000000000001

>  <m_primary>  (14) 
energy

$$$$
14:0
     RDKit          3D

 38 39  0  0  1  0  0  0  0  0999 V2000
   59.6420   33.5240   49.7090 C   0  0  0  0  0  0  0  0  0  0  0  0
   59.6490   34.5210   48.5860 C   0  0  0  0  0  0  0  0  0  0  0  0
   60.2960   33.9720   47.3630 N   0  0  0  0  0  0  0  0  0  0  0  0
   61.7090   33.8420   47.5990 C   0  0  0  0  0  0  0  0  0  0  0  0
   62.5790   33.8280   46.3840 C   0  0  0  0  0  0  0  0  0  0  0  0
   59.8960   34.8460   46.3250 C   0  0  0  0  0  0  0  0  0  0  0  0
   59.3540   34.2390   45.0600 C   0  0  0  0  0  0  0  0  0  0  0  0
   57.8370   34.1410   45.2940 C   0  0  0  0  0  0  0  0  0  0  0  0
   57.4550   32.9090   45.9150 N   0  0  0  0  0  0  0  0  0  0  0  0
   58.0820   31.7780   45.8430 C   0  0  0  0  0  0  0  0  0  0  0  0
   59.1040   31.5490   46.6570 N   0  0  0  0  0  0  0  0  0  0  0  0
   59.8240   30.4010   46.6920 C   0  0  0  0  0  0  0  0  0  0  0  0
   59.4390   29.4520   45.8190 N   0  0  0  0  0  0  0  0  0  0  0  0
   58.4330   29.6020   44.9750 C   0  0  0  0  0  0  0  0  0  0  0  0
   57.7630   28.5080   43.7690 S   0  0  0  0  0  0  0  0  0  0  0  0
   56.4530   29.7310   43.2340 C   0  0  0  0  0  0  0  0  0  0  0  0
   56.6740   30.8340   44.0360 C   0  0  0  0  0  0  0  0  0  0  0  0
   57.6590   30.8020   44.9200 C   0  0  0  0  0  0  0  0  0  0  0  0
   59.6457   34.0561   50.6717 H   0  0  0  0  0  0  0  0  0  0  0  0
   58.7394   32.8991   49.6389 H   0  0  0  0  0  0  0  0  0  0  0  0
   60.5357   32.8865   49.6389 H   0  0  0  0  0  0  0  0  0  0  0  0
   58.6109   34.7953   48.3470 H   0  0  0  0  0  0  0  0  0  0  0  0
   60.2251   35.3994   48.9124 H   0  0  0  0  0  0  0  0  0  0  0  0
   62.0240   34.6874   48.2284 H   0  0  0  0  0  0  0  0  0  0  0  0
   61.8411   32.8562   48.0689 H   0  0  0  0  0  0  0  0  0  0  0  0
   63.6355   33.8110   46.6897 H   0  0  0  0  0  0  0  0  0  0  0  0
   62.3565   32.9333   45.7840 H   0  0  0  0  0  0  0  0  0  0  0  0
   62.3854   34.7294   45.7840 H   0  0  0  0  0  0  0  0  0  0  0  0
   59.1140   35.5029   46.7337 H   0  0  0  0  0  0  0  0  0  0  0  0
   60.8251   35.3459   46.0136 H   0  0  0  0  0  0  0  0  0  0  0  0
   59.5725   34.8834   44.1957 H   0  0  0  0  0  0  0  0  0  0  0  0
   59.8058   33.2603   44.8407 H   0  0  0  0  0  0  0  0  0  0  0  0
   57.5258   34.9736   45.9420 H   0  0  0  0  0  0  0  0  0  0  0  0
   57.3444   34.1860   44.3115 H   0  0  0  0  0  0  0  0  0  0  0  0
   59.4160   32.2740   47.3380 H   0  0  0  0  0  0  0  0  0  0  0  0
   60.6649   30.2552   47.3860 H   0  0  0  0  0  0  0  0  0  0  0  0
   55.6833   29.6018   42.4588 H   0  0  0  0  0  0  0  0  0  0  0  0
   56.0395   31.7276   43.9413 H   0  0  0  0  0  0  0  0  0  0  0  0
  1  2  1  0
  2  3  1  0
  3  4  1  0
  4  5  1  0
  3  6  1  0
  6  7  1  0
  7  8  1  0
  8  9  1  0
  9 10  2  0
 10 11  1  0
 11 12  1  0
 12 13  2  0
 13 14  1  0
 14 15  1  0
 15 16  1  0
 16 17  2  0
 17 18  1  0
 18 10  1  0
 18 14  2  0
  1 19  1  0
  1 20  1  0
  1 21  1  0
  2 22  1  0
  2 23  1  0
  4 24  1  0
  4 25  1  0
  5 26  1  0
  5 27  1  0
  5 28  1  0
  6 29  1  0
  6 30  1  0
  7 31  1  0
  7 32  1  0
  8 33  1  0
  8 34  1  0
 11 35  1  0
 12 36  1  0
 16 37  1  0
 17 38  1  0
M  END
>  <smiles>  (15) 
CCN(CC)CCCN=c1[nH]cnc2sccc12

>  <score_type>  (15) 
oracle

>  <origin>  (15) 
adg

>  <m_score__min__energy>  (15) 
-5.8300000000000001

>  <m_primary>  (15) 
energy

$$$$
15:0
     RDKit          3D

 29 29  0  0  0  0  0  0  0  0999 V2000
   59.4840   29.2960   44.6050 C   0  0  0  0  0  0  0  0  0  0  0  0
   58.5200   30.4910   44.6770 C   0  0  0  0  0  0  0  0  0  0  0  0
   57.8520   30.8150   43.3890 N   0  0  0  0  0  0  0  0  0  0  0  0
   56.4780   30.2360   43.3240 C   0  0  0  0  0  0  0  0  0  0  0  0
   56.1280   29.4160   44.5710 C   0  0  0  0  0  0  0  0  0  0  0  0
   57.8670   32.2810   43.1370 C   0  0  0  0  0  0  0  0  0  0  0  0
   58.1090   33.0760   44.3960 C   0  0  0  0  0  0  0  0  0  0  0  0
   59.2680   33.8530   44.5360 C   0  0  0  0  0  0  0  0  0  0  0  0
   59.4740   34.5980   45.6980 C   0  0  0  0  0  0  0  0  0  0  0  0
   58.5180   34.5580   46.7150 C   0  0  0  0  0  0  0  0  0  0  0  0
   57.4000   33.8000   46.5680 N   0  0  0  0  0  0  0  0  0  0  0  0
   57.1760   33.0650   45.4450 C   0  0  0  0  0  0  0  0  0  0  0  0
   59.7445   28.9731   45.6238 H   0  0  0  0  0  0  0  0  0  0  0  0
   58.9997   28.4659   44.0698 H   0  0  0  0  0  0  0  0  0  0  0  0
   60.3978   29.5937   44.0698 H   0  0  0  0  0  0  0  0  0  0  0  0
   57.7424   30.2623   45.4207 H   0  0  0  0  0  0  0  0  0  0  0  0
   59.1251   31.3687   44.9482 H   0  0  0  0  0  0  0  0  0  0  0  0
   58.4500   30.3600   42.6570 H   0  0  0  0  0  0  0  0  0  0  0  0
   55.7530   31.0576   43.2269 H   0  0  0  0  0  0  0  0  0  0  0  0
   56.4405   29.5596   42.4573 H   0  0  0  0  0  0  0  0  0  0  0  0
   56.3755   29.9958   45.4724 H   0  0  0  0  0  0  0  0  0  0  0  0
   55.0526   29.1845   44.5677 H   0  0  0  0  0  0  0  0  0  0  0  0
   56.7047   28.4793   44.5677 H   0  0  0  0  0  0  0  0  0  0  0  0
   58.6664   32.5079   42.4163 H   0  0  0  0  0  0  0  0  0  0  0  0
   56.8795   32.5650   42.7443 H   0  0  0  0  0  0  0  0  0  0  0  0
   60.0154   33.8753   43.7292 H   0  0  0  0  0  0  0  0  0  0  0  0
   60.3805   35.2107   45.8116 H   0  0  0  0  0  0  0  0  0  0  0  0
   58.6701   35.1405   47.6357 H   0  0  0  0  0  0  0  0  0  0  0  0
   56.2611   32.4604   45.3588 H   0  0  0  0  0  0  0  0  0  0  0  0
  1  2  1  0
  2  3  1  0
  3  4  1  0
  4  5  1  0
  3  6  1  0
  6  7  1  0
  7  8  2  0
  8  9  1  0
  9 10  2  0
 10 11  1  0
 11 12  2  0
 12  7  1  0
  1 13  1  0
  1 14  1  0
  1 15  1  0
  2 16  1  0
  2 17  1  0
  3 18  1  0
  4 19  1  0
  4 20  1  0
  5 21  1  0
  5 22  1  0
  5 23  1  0
  6 24  1  0
  6 25  1  0
  8 26  1  0
  9 27  1  0
 10 28  1  0
 12 29  1  0
M  CHG  1   3   1
M  END
>  <UniqueID>  (16) 
14

>  <SMILES>  (16) 
CC[NH+](CC)Cc1cccnc1

>  <Energy>  (16) 
30.67135022873902

>  <Genealogy>  (16) 
CC[NH+](CC)Cc1cccnc1 (protonated)
CC[NH+](CC)Cc1cccnc1 (3D coordinates assigned)
CC[NH+](CC)Cc1cccnc1 (optimized conformer: 30.67135022873902 kcal/mol)

>  <smiles>  (16) 
CCN(CC)Cc1cccnc1

>  <score_type>  (16) 
oracle

>  <origin>  (16) 
adg

>  <m_score__min__energy>  (16) 
-3.0600000000000001

>  <m_primary>  (16) 
energy

$$$$
16:0
     RDKit          3D

 28 30  0  0  1  0  0  0  0  0999 V2000
   61.7570   32.7260   47.1290 C   0  0  0  0  0  0  0  0  0  0  0  0
   61.4580   30.9160   47.1220 S   0  0  0  0  0  0  0  0  0  0  0  0
   59.9220   30.5640   46.4400 C   0  0  0  0  0  0  0  0  0  0  0  0
   59.1080   29.4630   46.4040 C   0  0  0  0  0  0  0  0  0  0  0  0
   57.9410   29.4940   45.7780 C   0  0  0  0  0  0  0  0  0  0  0  0
   56.9800   28.4680   45.6380 C   0  0  0  0  0  0  0  0  0  0  0  0
   57.1620   27.3000   46.1490 N   0  0  0  0  0  0  0  0  0  0  0  0
   56.4860   26.1300   45.7180 C   0  0  0  0  0  0  0  0  0  0  0  0
   57.2280   25.1830   45.0260 C   0  0  0  0  0  0  0  0  0  0  0  0
   56.6330   24.0040   44.5700 C   0  0  0  0  0  0  0  0  0  0  0  0
   55.2870   23.8600   44.8540 C   0  0  0  0  0  0  0  0  0  0  0  0
   54.6030   24.8380   45.5460 C   0  0  0  0  0  0  0  0  0  0  0  0
   55.1760   25.9710   45.9850 N   0  0  0  0  0  0  0  0  0  0  0  0
   55.8450   28.6780   44.9670 N   0  0  0  0  0  0  0  0  0  0  0  0
   55.5020   29.8270   44.3780 C   0  0  0  0  0  0  0  0  0  0  0  0
   56.4100   30.8390   44.4950 N   0  0  0  0  0  0  0  0  0  0  0  0
   57.5490   30.6840   45.1500 C   0  0  0  0  0  0  0  0  0  0  0  0
   58.8960   31.8230   45.4530 S   0  0  0  0  0  0  0  0  0  0  0  0
   61.8161   33.0839   48.1675 H   0  0  0  0  0  0  0  0  0  0  0  0
   62.7032   32.9433   46.6119 H   0  0  0  0  0  0  0  0  0  0  0  0
   60.9309   33.2361   46.6119 H   0  0  0  0  0  0  0  0  0  0  0  0
   59.4289   28.5370   46.9036 H   0  0  0  0  0  0  0  0  0  0  0  0
   58.2962   25.3626   44.8345 H   0  0  0  0  0  0  0  0  0  0  0  0
   57.1994   23.2383   44.0197 H   0  0  0  0  0  0  0  0  0  0  0  0
   54.7557   22.9550   44.5242 H   0  0  0  0  0  0  0  0  0  0  0  0
   53.5332   24.6820   45.7488 H   0  0  0  0  0  0  0  0  0  0  0  0
   55.1660   27.8900   44.8890 H   0  0  0  0  0  0  0  0  0  0  0  0
   54.5527   29.9490   43.8358 H   0  0  0  0  0  0  0  0  0  0  0  0
  1  2  1  0
  2  3  1  0
  3  4  2  0
  4  5  1  0
  5  6  1  0
  6  7  2  0
  7  8  1  0
  8  9  2  0
  9 10  1  0
 10 11  2  0
 11 12  1  0
 12 13  2  0
  6 14  1  0
 14 15  1  0
 15 16  2  0
 16 17  1  0
 17 18  1  0
 18  3  1  0
 17  5  2  0
 13  8  1  0
  1 19  1  0
  1 20  1  0
  1 21  1  0
  4 22  1  0
  9 23  1  0
 10 24  1  0
 11 25  1  0
 12 26  1  0
 14 27  1  0
 15 28  1  0
M  END
>  <smiles>  (17) 
CSc1cc2c(=Nc3ccccn3)[nH]cnc2s1

>  <score_type>  (17) 
oracle

>  <origin>  (17) 
adg

>  <m_score__min__energy>  (17) 
-6.8300000000000001

>  <m_primary>  (17) 
energy

$$$$
17:0
     RDKit          3D

 36 39  0  0  0  0  0  0  0  0999 V2000
   56.7120   29.9720   44.8730 C   0  0  0  0  0  0  0  0  0  0  0  0
   57.7250   30.7850   44.6400 C   0  0  0  0  0  0  0  0  0  0  0  0
   58.6490   31.2540   45.6890 C   0  0  0  0  0  0  0  0  0  0  0  0
   59.5250   30.4990   46.4810 C   0  0  0  0  0  0  0  0  0  0  0  0
   59.6050   29.0300   46.5980 C   0  0  0  0  0  0  0  0  0  0  0  0
   59.4570   28.1960   45.4780 C   0  0  0  0  0  0  0  0  0  0  0  0
   59.5160   26.8110   45.6420 C   0  0  0  0  0  0  0  0  0  0  0  0
   59.7030   26.2690   46.9140 C   0  0  0  0  0  0  0  0  0  0  0  0
   59.8230   27.1260   48.0100 C   0  0  0  0  0  0  0  0  0  0  0  0
   59.7670   28.4720   47.8300 N   0  0  0  0  0  0  0  0  0  0  0  0
   60.3000   31.3390   47.2060 N   0  0  0  0  0  0  0  0  0  0  0  0
   59.9460   32.5780   46.9130 N   0  0  0  0  0  0  0  0  0  0  0  0
   60.4880   33.7180   47.4140 C   0  0  0  0  0  0  0  0  0  0  0  0
   59.9980   34.9460   46.9510 C   0  0  0  0  0  0  0  0  0  0  0  0
   58.9740   34.9630   45.9840 C   0  0  0  0  0  0  0  0  0  0  0  0
   58.4430   33.7610   45.4910 C   0  0  0  0  0  0  0  0  0  0  0  0
   58.9580   32.5690   46.0030 C   0  0  0  0  0  0  0  0  0  0  0  0
   57.7590   31.2580   43.2310 C   0  0  0  0  0  0  0  0  0  0  0  0
   56.6410   30.4710   42.5440 C   0  0  0  0  0  0  0  0  0  0  0  0
   55.9030   29.7210   43.6570 C   0  0  0  0  0  0  0  0  0  0  0  0
   56.4932   29.5313   45.8568 H   0  0  0  0  0  0  0  0  0  0  0  0
   59.2960   28.6302   44.4802 H   0  0  0  0  0  0  0  0  0  0  0  0
   59.4152   26.1481   44.7700 H   0  0  0  0  0  0  0  0  0  0  0  0
   59.7553   25.1789   47.0519 H   0  0  0  0  0  0  0  0  0  0  0  0
   59.9629   26.7116   49.0193 H   0  0  0  0  0  0  0  0  0  0  0  0
   61.0400   31.0730   47.8940 H   0  0  0  0  0  0  0  0  0  0  0  0
   61.2914   33.6781   48.1643 H   0  0  0  0  0  0  0  0  0  0  0  0
   60.4096   35.8892   47.3394 H   0  0  0  0  0  0  0  0  0  0  0  0
   58.5882   35.9240   45.6130 H   0  0  0  0  0  0  0  0  0  0  0  0
   57.6498   33.7584   44.7288 H   0  0  0  0  0  0  0  0  0  0  0  0
   57.5645   32.3394   43.1777 H   0  0  0  0  0  0  0  0  0  0  0  0
   58.7388   31.0994   42.7568 H   0  0  0  0  0  0  0  0  0  0  0  0
   55.9546   31.1566   42.0256 H   0  0  0  0  0  0  0  0  0  0  0  0
   57.0425   29.7777   41.7903 H   0  0  0  0  0  0  0  0  0  0  0  0
   54.8830   30.1140   43.7806 H   0  0  0  0  0  0  0  0  0  0  0  0
   55.7969   28.6480   43.4393 H   0  0  0  0  0  0  0  0  0  0  0  0
  1  2  2  0
  2  3  1  0
  3  4  1  0
  4  5  1  0
  5  6  2  0
  6  7  1  0
  7  8  2  0
  8  9  1  0
  9 10  2  0
  4 11  2  0
 11 12  1  0
 12 13  1  0
 13 14  2  0
 14 15  1  0
 15 16  2  0
 16 17  1  0
  2 18  1  0
 18 19  1  0
 19 20  1  0
 20  1  1  0
 17  3  2  0
 10  5  1  0
 17 12  1  0
  1 21  1  0
  6 22  1  0
  7 23  1  0
  8 24  1  0
  9 25  1  0
 11 26  1  0
 13 27  1  0
 14 28  1  0
 15 29  1  0
 16 30  1  0
 18 31  1  0
 18 32  1  0
 19 33  1  0
 19 34  1  0
 20 35  1  0
 20 36  1  0
M  CHG  1  11   1
M  END
>  <UniqueID>  (18) 
15

>  <SMILES>  (18) 
C1=C(c2c(-c3ccccn3)[nH+]n3ccccc23)CCC1

>  <Energy>  (18) 
88.1430059748894

>  <Genealogy>  (18) 
C1=C(c2c(-c3ccccn3)[nH+]n3ccccc23)CCC1 (protonated)
C1=C(c2c(-c3ccccn3)[nH+]n3ccccc23)CCC1 (3D coordinates assigned)
C1=C(c2c(-c3ccccn3)[nH+]n3ccccc23)CCC1 (nonaromatic ring conformer: 88.1430059748894 kcal/mol)

>  <smiles>  (18) 
C1=C(c2c(-c3ccccn3)nn3ccccc23)CCC1

>  <score_type>  (18) 
oracle

>  <origin>  (18) 
adg

>  <m_score__min__energy>  (18) 
-5.9100000000000001

>  <m_primary>  (18) 
energy

$$$$
18:0
     RDKit          3D

 47 50  0  0  0  0  0  0  0  0999 V2000
   61.8670   26.6600   51.5460 C   0  0  0  0  0  0  0  0  0  0  0  0
   61.2390   27.4650   50.5090 N   0  0  0  0  0  0  0  0  0  0  0  0
   61.4350   28.7670   50.3720 N   0  0  0  0  0  0  0  0  0  0  0  0
   60.7460   29.1350   49.2770 C   0  0  0  0  0  0  0  0  0  0  0  0
   60.1440   28.0000   48.7580 C   0  0  0  0  0  0  0  0  0  0  0  0
   59.2880   27.8880   47.5520 C   0  0  0  0  0  0  0  0  0  0  0  0
   59.4910   28.7620   46.4730 C   0  0  0  0  0  0  0  0  0  0  0  0
   58.6950   28.6790   45.3220 C   0  0  0  0  0  0  0  0  0  0  0  0
   58.9410   29.5540   44.2020 N   0  0  0  0  0  0  0  0  0  0  0  0
   58.3660   30.8490   44.4680 C   0  0  0  0  0  0  0  0  0  0  0  0
   58.1740   31.7800   43.4380 C   0  0  0  0  0  0  0  0  0  0  0  0
   57.6610   33.0070   43.7180 N   0  0  0  0  0  0  0  0  0  0  0  0
   57.3330   33.3540   44.9890 C   0  0  0  0  0  0  0  0  0  0  0  0
   57.5190   32.4730   46.0050 N   0  0  0  0  0  0  0  0  0  0  0  0
   58.0280   31.2360   45.7730 C   0  0  0  0  0  0  0  0  0  0  0  0
   57.6960   27.6980   45.2480 C   0  0  0  0  0  0  0  0  0  0  0  0
   57.4670   26.8070   46.3110 C   0  0  0  0  0  0  0  0  0  0  0  0
   56.3720   25.7410   46.1480 C   0  0  0  0  0  0  0  0  0  0  0  0
   55.1150   26.3810   46.1340 O   0  0  0  0  0  0  0  0  0  0  0  0
   56.3630   24.6580   47.2580 C   0  0  0  0  0  0  0  0  0  0  0  0
   55.2530   23.6110   46.9970 C   0  0  0  0  0  0  0  0  0  0  0  0
   54.7720   23.6180   45.6610 O   0  0  0  0  0  0  0  0  0  0  0  0
   55.8520   23.6540   44.7490 C   0  0  0  0  0  0  0  0  0  0  0  0
   56.5640   25.0210   44.7890 C   0  0  0  0  0  0  0  0  0  0  0  0
   58.2770   26.9140   47.4640 C   0  0  0  0  0  0  0  0  0  0  0  0
   60.4790   26.9620   49.5490 N   0  0  0  0  0  0  0  0  0  0  0  0
   61.5707   27.0399   52.5349 H   0  0  0  0  0  0  0  0  0  0  0  0
   61.5444   25.6134   51.4435 H   0  0  0  0  0  0  0  0  0  0  0  0
   62.9607   26.7183   51.4435 H   0  0  0  0  0  0  0  0  0  0  0  0
   60.6735   30.1533   48.8674 H   0  0  0  0  0  0  0  0  0  0  0  0
   60.2845   29.5216   46.5311 H   0  0  0  0  0  0  0  0  0  0  0  0
   59.9700   29.6470   44.0350 H   0  0  0  0  0  0  0  0  0  0  0  0
   58.5280   29.1500   43.3290 H   0  0  0  0  0  0  0  0  0  0  0  0
   58.4385   31.5176   42.4030 H   0  0  0  0  0  0  0  0  0  0  0  0
   56.9159   34.3506   45.1958 H   0  0  0  0  0  0  0  0  0  0  0  0
   58.1754   30.5367   46.6092 H   0  0  0  0  0  0  0  0  0  0  0  0
   57.0792   27.6241   44.3402 H   0  0  0  0  0  0  0  0  0  0  0  0
   54.4280   25.7050   46.3700 H   0  0  0  0  0  0  0  0  0  0  0  0
   57.3393   24.1515   47.2754 H   0  0  0  0  0  0  0  0  0  0  0  0
   56.1668   25.1457   48.2242 H   0  0  0  0  0  0  0  0  0  0  0  0
   55.6579   22.6120   47.2163 H   0  0  0  0  0  0  0  0  0  0  0  0
   54.4048   23.8689   47.6481 H   0  0  0  0  0  0  0  0  0  0  0  0
   56.5721   22.8655   45.0130 H   0  0  0  0  0  0  0  0  0  0  0  0
   55.4591   23.4932   43.7342 H   0  0  0  0  0  0  0  0  0  0  0  0
   57.6396   24.8654   44.6193 H   0  0  0  0  0  0  0  0  0  0  0  0
   56.1229   25.6548   44.0055 H   0  0  0  0  0  0  0  0  0  0  0  0
   58.1144   26.2249   48.3058 H   0  0  0  0  0  0  0  0  0  0  0  0
  1  2  1  0
  2  3  1  0
  3  4  2  0
  4  5  1  0
  5  6  1  0
  6  7  2  0
  7  8  1  0
  8  9  1  0
  9 10  1  0
 10 11  2  0
 11 12  1  0
 12 13  2  0
 13 14  1  0
 14 15  2  0
  8 16  2  0
 16 17  1  0
 17 18  1  0
 18 19  1  0
 18 20  1  0
 20 21  1  0
 21 22  1  0
 22 23  1  0
 23 24  1  0
 17 25  2  0
  5 26  2  0
 26  2  1  0
 25  6  1  0
 15 10  1  0
 24 18  1  0
  1 27  1  0
  1 28  1  0
  1 29  1  0
  4 30  1  0
  7 31  1  0
  9 32  1  0
  9 33  1  0
 11 34  1  0
 13 35  1  0
 15 36  1  0
 16 37  1  0
 19 38  1  0
 20 39  1  0
 20 40  1  0
 21 41  1  0
 21 42  1  0
 23 43  1  0
 23 44  1  0
 24 45  1  0
 24 46  1  0
 25 47  1  0
M  CHG  1   9   1
M  END
>  <UniqueID>  (19) 
16

>  <SMILES>  (19) 
Cn1ncc(-c2cc([NH2+]c3cncnc3)cc(C3(O)CCOCC3)c2)n1

>  <Energy>  (19) 
99.80462601389061

>  <Genealogy>  (19) 
Cn1ncc(-c2cc([NH2+]c3cncnc3)cc(C3(O)CCOCC3)c2)n1 (protonated)
Cn1ncc(-c2cc([NH2+]c3cncnc3)cc(C3(O)CCOCC3)c2)n1 (3D coordinates assigned)
Cn1ncc(-c2cc([NH2+]c3cncnc3)cc(C3(O)CCOCC3)c2)n1 (nonaromatic ring conformer: 99.80462601389061 kcal/mol)

>  <smiles>  (19) 
Cn1ncc(-c2cc(Nc3cncnc3)cc(C3(O)CCOCC3)c2)n1

>  <score_type>  (19) 
oracle

>  <origin>  (19) 
adg

>  <m_score__min__energy>  (19) 
-6.2699999999999996

>  <m_primary>  (19) 
energy

$$$$
19:0
     RDKit          3D

 38 40  0  0  0  0  0  0  0  0999 V2000
   61.8500   32.1110   47.2020 C   0  0  0  0  0  0  0  0  0  0  0  0
   61.1110   30.9950   47.6840 O   0  0  0  0  0  0  0  0  0  0  0  0
   60.2950   30.2160   46.8590 C   0  0  0  0  0  0  0  0  0  0  0  0
   60.3900   28.8260   46.9120 C   0  0  0  0  0  0  0  0  0  0  0  0
   59.5860   28.0510   46.0770 C   0  0  0  0  0  0  0  0  0  0  0  0
   58.6910   28.6670   45.1920 C   0  0  0  0  0  0  0  0  0  0  0  0
   58.5810   30.0730   45.2040 C   0  0  0  0  0  0  0  0  0  0  0  0
   59.4080   30.7990   46.0050 N   0  0  0  0  0  0  0  0  0  0  0  0
   57.6620   30.7910   44.2370 C   0  0  2  0  0  0  0  0  0  0  0  0
   56.9580   32.0180   44.8700 C   0  0  0  0  0  0  0  0  0  0  0  0
   57.9070   33.0520   45.4350 C   0  0  0  0  0  0  0  0  0  0  0  0
   58.7470   33.7860   44.5790 C   0  0  0  0  0  0  0  0  0  0  0  0
   59.6160   34.7510   45.0980 C   0  0  0  0  0  0  0  0  0  0  0  0
   59.6610   34.9850   46.4740 C   0  0  0  0  0  0  0  0  0  0  0  0
   58.8420   34.2510   47.3350 C   0  0  0  0  0  0  0  0  0  0  0  0
   57.9710   33.2860   46.8200 C   0  0  0  0  0  0  0  0  0  0  0  0
   56.6560   29.8220   43.5750 C   0  0  0  0  0  0  0  0  0  0  0  0
   57.3290   28.5920   43.1380 N   0  0  0  0  0  0  0  0  0  0  0  0
   57.8160   27.8260   44.2960 C   0  0  0  0  0  0  0  0  0  0  0  0
   62.2345   32.6916   48.0535 H   0  0  0  0  0  0  0  0  0  0  0  0
   62.6923   31.7563   46.5899 H   0  0  0  0  0  0  0  0  0  0  0  0
   61.1946   32.7480   46.5899 H   0  0  0  0  0  0  0  0  0  0  0  0
   61.0937   28.3445   47.6070 H   0  0  0  0  0  0  0  0  0  0  0  0
   59.6544   26.9537   46.1131 H   0  0  0  0  0  0  0  0  0  0  0  0
   58.3053   31.1899   43.4389 H   0  0  0  0  0  0  0  0  0  0  0  0
   56.3427   32.5003   44.0962 H   0  0  0  0  0  0  0  0  0  0  0  0
   56.3615   31.6408   45.7137 H   0  0  0  0  0  0  0  0  0  0  0  0
   58.7205   33.6002   43.4951 H   0  0  0  0  0  0  0  0  0  0  0  0
   60.2649   35.3265   44.4215 H   0  0  0  0  0  0  0  0  0  0  0  0
   60.3418   35.7477   46.8800 H   0  0  0  0  0  0  0  0  0  0  0  0
   58.8822   34.4323   48.4192 H   0  0  0  0  0  0  0  0  0  0  0  0
   57.3320   32.7064   47.5025 H   0  0  0  0  0  0  0  0  0  0  0  0
   55.8709   29.5652   44.3014 H   0  0  0  0  0  0  0  0  0  0  0  0
   56.2166   30.3156   42.6957 H   0  0  0  0  0  0  0  0  0  0  0  0
   56.6470   28.0020   42.6090 H   0  0  0  0  0  0  0  0  0  0  0  0
   58.1280   28.8250   42.5020 H   0  0  0  0  0  0  0  0  0  0  0  0
   56.9523   27.4676   44.8753 H   0  0  0  0  0  0  0  0  0  0  0  0
   58.4164   26.9835   43.9224 H   0  0  0  0  0  0  0  0  0  0  0  0
  1  2  1  0
  2  3  1  0
  3  4  2  0
  4  5  1  0
  5  6  2  0
  6  7  1  0
  7  8  2  0
  7  9  1  0
  9 10  1  0
 10 11  1  0
 11 12  2  0
 12 13  1  0
 13 14  2  0
 14 15  1  0
 15 16  2  0
  9 17  1  0
 17 18  1  0
 18 19  1  0
  8  3  1  0
 16 11  1  0
 19  6  1  0
  1 20  1  0
  1 21  1  0
  1 22  1  0
  4 23  1  0
  5 24  1  0
  9 25  1  6
 10 26  1  0
 10 27  1  0
 12 28  1  0
 13 29  1  0
 14 30  1  0
 15 31  1  0
 16 32  1  0
 17 33  1  0
 17 34  1  0
 18 35  1  0
 18 36  1  0
 19 37  1  0
 19 38  1  0
M  CHG  1  18   1
M  END
>  <UniqueID>  (20) 
17

>  <SMILES>  (20) 
COc1ccc2c(n1)[C@H](Cc1ccccc1)C[NH2+]C2

>  <Energy>  (20) 
39.20813404786989

>  <Genealogy>  (20) 
COc1ccc2c(n1)C(Cc1ccccc1)C[NH2+]C2 (protonated)
COc1ccc2c(n1)[C@H](Cc1ccccc1)C[NH2+]C2 (chirality)
COc1ccc2c(n1)[C@H](Cc1ccccc1)C[NH2+]C2 (3D coordinates assigned)
COc1ccc2c(n1)[C@H](Cc1ccccc1)C[NH2+]C2 (nonaromatic ring conformer: 39.20813404786989 kcal/mol)

>  <smiles>  (20) 
COc1ccc2c(n1)C(Cc1ccccc1)CNC2

>  <score_type>  (20) 
oracle

>  <origin>  (20) 
adg

>  <m_score__min__energy>  (20) 
-5.7300000000000004

>  <m_primary>  (20) 
energy

$$$$
20:0
     RDKit          3D

 28 29  0  0  0  0  0  0  0  0999 V2000
   56.2890   29.6740   42.3340 C   0  0  0  0  0  0  0  0  0  0  0  0
   56.9940   30.5900   43.2970 C   0  0  0  0  0  0  0  0  0  0  0  0
   57.1220   30.2240   44.6470 C   0  0  0  0  0  0  0  0  0  0  0  0
   57.7730   31.0660   45.5500 C   0  0  0  0  0  0  0  0  0  0  0  0
   58.3100   32.2890   45.1240 C   0  0  0  0  0  0  0  0  0  0  0  0
   58.9750   33.1550   46.0630 N   0  0  0  0  0  0  0  0  0  0  0  0
   59.3160   32.6600   47.4010 C   0  0  0  0  0  0  0  0  0  0  0  0
   59.3500   33.8300   48.3900 C   0  0  0  0  0  0  0  0  0  0  0  0
   60.1920   34.8640   47.9150 O   0  0  0  0  0  0  0  0  0  0  0  0
   59.6510   35.4160   46.7290 C   0  0  0  0  0  0  0  0  0  0  0  0
   59.6410   34.3770   45.6020 C   0  0  0  0  0  0  0  0  0  0  0  0
   58.1760   32.6620   43.7760 C   0  0  0  0  0  0  0  0  0  0  0  0
   57.5260   31.8210   42.8650 C   0  0  0  0  0  0  0  0  0  0  0  0
   57.3980   32.3390   41.1870 Cl  0  0  0  0  0  0  0  0  0  0  0  0
   55.7123   28.9247   42.8961 H   0  0  0  0  0  0  0  0  0  0  0  0
   55.6079   30.2616   41.7009 H   0  0  0  0  0  0  0  0  0  0  0  0
   57.0314   29.1660   41.7009 H   0  0  0  0  0  0  0  0  0  0  0  0
   56.7062   29.2669   44.9951 H   0  0  0  0  0  0  0  0  0  0  0  0
   57.8655   30.7675   46.6047 H   0  0  0  0  0  0  0  0  0  0  0  0
   58.5600   31.9294   47.7245 H   0  0  0  0  0  0  0  0  0  0  0  0
   60.3047   32.1789   47.3709 H   0  0  0  0  0  0  0  0  0  0  0  0
   58.3311   34.2244   48.5176 H   0  0  0  0  0  0  0  0  0  0  0  0
   59.7431   33.4682   49.3515 H   0  0  0  0  0  0  0  0  0  0  0  0
   58.6204   35.7481   46.9229 H   0  0  0  0  0  0  0  0  0  0  0  0
   60.2749   36.2673   46.4190 H   0  0  0  0  0  0  0  0  0  0  0  0
   59.1001   34.7834   44.7347 H   0  0  0  0  0  0  0  0  0  0  0  0
   60.6762   34.1415   45.3142 H   0  0  0  0  0  0  0  0  0  0  0  0
   58.5856   33.6237   43.4334 H   0  0  0  0  0  0  0  0  0  0  0  0
  1  2  1  0
  2  3  2  0
  3  4  1  0
  4  5  2  0
  5  6  1  0
  6  7  1  0
  7  8  1  0
  8  9  1  0
  9 10  1  0
 10 11  1  0
  5 12  1  0
 12 13  2  0
 13 14  1  0
 13  2  1  0
 11  6  1  0
  1 15  1  0
  1 16  1  0
  1 17  1  0
  3 18  1  0
  4 19  1  0
  7 20  1  0
  7 21  1  0
  8 22  1  0
  8 23  1  0
 10 24  1  0
 10 25  1  0
 11 26  1  0
 11 27  1  0
 12 28  1  0
M  END
>  <UniqueID>  (21) 
18

>  <SMILES>  (21) 
Cc1ccc(N2CCOCC2)cc1Cl

>  <Energy>  (21) 
32.851490460970425

>  <Genealogy>  (21) 
Cc1ccc(N2CCOCC2)cc1Cl (3D coordinates assigned)
Cc1ccc(N2CCOCC2)cc1Cl (nonaromatic ring conformer: 32.851490460970425 kcal/mol)

>  <smiles>  (21) 
Cc1ccc(N2CCOCC2)cc1Cl

>  <score_type>  (21) 
oracle

>  <origin>  (21) 
adg

>  <m_score__min__energy>  (21) 
-5.5999999999999996

>  <m_primary>  (21) 
energy

$$$$
21:0
     RDKit          3D

 54 57  0  0  0  0  0  0  0  0999 V2000
   64.8550   33.3420   50.2570 C   0  0  0  0  0  0  0  0  0  0  0  0
   63.7220   34.2010   50.3460 O   0  0  0  0  0  0  0  0  0  0  0  0
   62.4210   33.8720   49.9340 C   0  0  0  0  0  0  0  0  0  0  0  0
   61.4340   33.5270   50.8780 C   0  0  0  0  0  0  0  0  0  0  0  0
   60.1310   33.1900   50.4800 C   0  0  0  0  0  0  0  0  0  0  0  0
   59.0960   32.8200   51.4810 C   0  0  0  0  0  0  0  0  0  0  0  0
   59.0870   33.1460   52.8380 C   0  0  0  0  0  0  0  0  0  0  0  0
   57.9730   32.6490   53.5280 C   0  0  0  0  0  0  0  0  0  0  0  0
   57.0930   31.9320   52.7310 C   0  0  0  0  0  0  0  0  0  0  0  0
   57.7050   31.9190   51.1670 S   0  0  0  0  0  0  0  0  0  0  0  0
   59.8200   33.1950   49.1160 C   0  0  0  0  0  0  0  0  0  0  0  0
   60.7810   33.5360   48.1550 C   0  0  0  0  0  0  0  0  0  0  0  0
   60.3800   33.5070   46.6980 C   0  0  0  0  0  0  0  0  0  0  0  0
   59.2240   34.4020   46.4600 N   0  0  0  0  0  0  0  0  0  0  0  0
   57.9510   33.8380   46.9830 C   0  0  0  0  0  0  0  0  0  0  0  0
   57.0730   33.1730   45.9040 C   0  0  0  0  0  0  0  0  0  0  0  0
   57.9090   32.6600   44.8150 N   0  0  0  0  0  0  0  0  0  0  0  0
   57.9210   31.2620   44.4710 C   0  0  0  0  0  0  0  0  0  0  0  0
   58.8990   30.4020   45.0050 C   0  0  0  0  0  0  0  0  0  0  0  0
   58.9240   29.0510   44.6470 C   0  0  0  0  0  0  0  0  0  0  0  0
   57.9770   28.5450   43.7520 C   0  0  0  0  0  0  0  0  0  0  0  0
   58.0130   26.8490   43.3020 Cl  0  0  0  0  0  0  0  0  0  0  0  0
   57.0070   29.3920   43.2090 C   0  0  0  0  0  0  0  0  0  0  0  0
   56.9790   30.7450   43.5650 C   0  0  0  0  0  0  0  0  0  0  0  0
   58.8100   33.5970   44.1330 C   0  0  0  0  0  0  0  0  0  0  0  0
   59.1210   34.8020   45.0390 C   0  0  0  0  0  0  0  0  0  0  0  0
   62.0920   33.8780   48.5540 C   0  0  0  0  0  0  0  0  0  0  0  0
   63.0160   34.2080   47.5410 O   0  0  0  0  0  0  0  0  0  0  0  0
   63.7700   33.3030   46.7430 C   0  0  0  0  0  0  0  0  0  0  0  0
   65.1982   33.0818   51.2692 H   0  0  0  0  0  0  0  0  0  0  0  0
   64.5782   32.4248   49.7166 H   0  0  0  0  0  0  0  0  0  0  0  0
   65.6634   33.8562   49.7166 H   0  0  0  0  0  0  0  0  0  0  0  0
   61.6895   33.5216   51.9479 H   0  0  0  0  0  0  0  0  0  0  0  0
   59.8794   33.7372   53.3204 H   0  0  0  0  0  0  0  0  0  0  0  0
   57.8113   32.8126   54.6037 H   0  0  0  0  0  0  0  0  0  0  0  0
   56.1591   31.4559   53.0644 H   0  0  0  0  0  0  0  0  0  0  0  0
   58.8035   32.9266   48.7924 H   0  0  0  0  0  0  0  0  0  0  0  0
   61.2285   33.8402   46.0824 H   0  0  0  0  0  0  0  0  0  0  0  0
   60.0957   32.4793   46.4277 H   0  0  0  0  0  0  0  0  0  0  0  0
   58.1939   33.0833   47.7455 H   0  0  0  0  0  0  0  0  0  0  0  0
   57.3726   34.6798   47.3915 H   0  0  0  0  0  0  0  0  0  0  0  0
   56.5123   32.3407   46.3543 H   0  0  0  0  0  0  0  0  0  0  0  0
   56.3754   33.9207   45.4986 H   0  0  0  0  0  0  0  0  0  0  0  0
   59.6480   30.7953   45.7081 H   0  0  0  0  0  0  0  0  0  0  0  0
   59.6902   28.3849   45.0703 H   0  0  0  0  0  0  0  0  0  0  0  0
   56.2648   28.9947   42.5010 H   0  0  0  0  0  0  0  0  0  0  0  0
   56.2150   31.4081   43.1331 H   0  0  0  0  0  0  0  0  0  0  0  0
   59.7483   33.0801   43.8833 H   0  0  0  0  0  0  0  0  0  0  0  0
   58.3205   33.9580   43.2165 H   0  0  0  0  0  0  0  0  0  0  0  0
   60.0754   35.2489   44.7237 H   0  0  0  0  0  0  0  0  0  0  0  0
   58.2982   35.5259   44.9438 H   0  0  0  0  0  0  0  0  0  0  0  0
   64.3366   32.6229   47.3960 H   0  0  0  0  0  0  0  0  0  0  0  0
   63.0881   32.7183   46.1080 H   0  0  0  0  0  0  0  0  0  0  0  0
   64.4682   33.8681   46.1080 H   0  0  0  0  0  0  0  0  0  0  0  0
  1  2  1  0
  2  3  1  0
  3  4  2  0
  4  5  1  0
  5  6  1  0
  6  7  2  0
  7  8  1  0
  8  9  2  0
  9 10  1  0
  5 11  2  0
 11 12  1  0
 12 13  1  0
 13 14  1  0
 14 15  1  0
 15 16  1  0
 16 17  1  0
 17 18  1  0
 18 19  2  0
 19 20  1  0
 20 21  2  0
 21 22  1  0
 21 23  1  0
 23 24  2  0
 17 25  1  0
 25 26  1  0
 12 27  2  0
 27 28  1  0
 28 29  1  0
 27  3  1  0
 10  6  1  0
 26 14  1  0
 24 18  1  0
  1 30  1  0
  1 31  1  0
  1 32  1  0
  4 33  1  0
  7 34  1  0
  8 35  1  0
  9 36  1  0
 11 37  1  0
 13 38  1  0
 13 39  1  0
 15 40  1  0
 15 41  1  0
 16 42  1  0
 16 43  1  0
 19 44  1  0
 20 45  1  0
 23 46  1  0
 24 47  1  0
 25 48  1  0
 25 49  1  0
 26 50  1  0
 26 51  1  0
 29 52  1  0
 29 53  1  0
 29 54  1  0
M  END
>  <UniqueID>  (22) 
19

>  <SMILES>  (22) 
COc1cc(-c2cccs2)cc(CN2CCN(c3ccc(Cl)cc3)CC2)c1OC

>  <Energy>  (22) 
98.94817305361435

>  <Genealogy>  (22) 
COc1cc(-c2cccs2)cc(CN2CCN(c3ccc(Cl)cc3)CC2)c1OC (3D coordinates assigned)
COc1cc(-c2cccs2)cc(CN2CCN(c3ccc(Cl)cc3)CC2)c1OC (nonaromatic ring conformer: 98.94817305361435 kcal/mol)

>  <smiles>  (22) 
COc1cc(-c2cccs2)cc(CN2CCN(c3ccc(Cl)cc3)CC2)c1OC

>  <score_type>  (22) 
oracle

>  <origin>  (22) 
adg

>  <m_score__min__energy>  (22) 
-8.0700000000000003

>  <m_primary>  (22) 
energy

$$$$
22:0
     RDKit          3D

 50 52  0  0  0  0  0  0  0  0999 V2000
   58.9170   34.5000   52.1880 C   0  0  0  0  0  0  0  0  0  0  0  0
   59.3960   33.6970   51.1160 O   0  0  0  0  0  0  0  0  0  0  0  0
   59.0840   32.3400   50.9240 C   0  0  0  0  0  0  0  0  0  0  0  0
   58.0450   31.7250   51.6480 C   0  0  0  0  0  0  0  0  0  0  0  0
   57.7610   30.3760   51.4680 C   0  0  0  0  0  0  0  0  0  0  0  0
   58.5020   29.6180   50.5680 C   0  0  0  0  0  0  0  0  0  0  0  0
   59.5410   30.2040   49.8220 C   0  0  0  0  0  0  0  0  0  0  0  0
   60.2830   29.4470   48.9000 O   0  0  0  0  0  0  0  0  0  0  0  0
   60.3740   28.0270   48.8970 C   0  0  0  0  0  0  0  0  0  0  0  0
   59.8310   31.5830   49.9870 C   0  0  0  0  0  0  0  0  0  0  0  0
   60.9800   32.2640   49.2310 C   0  0  1  0  0  0  0  0  0  0  0  0
   62.3240   31.9410   49.9410 C   0  0  0  0  0  0  0  0  0  0  0  0
   63.4950   32.8800   49.6030 C   0  0  0  0  0  0  0  0  0  0  0  0
   63.1280   34.1360   48.7850 C   0  0  0  0  0  0  0  0  0  0  0  0
   62.6250   33.8320   47.3650 C   0  0  0  0  0  0  0  0  0  0  0  0
   62.2540   32.3480   47.1220 C   0  0  0  0  0  0  0  0  0  0  0  0
   60.9820   31.9480   47.7750 N   0  0  0  0  0  0  0  0  0  0  0  0
   59.6510   32.7670   46.9660 S   0  0  0  0  0  0  0  0  0  0  0  0
   58.9250   33.6500   47.9440 O   0  0  0  0  0  0  0  0  0  0  0  0
   60.1710   33.6480   45.8660 O   0  0  0  0  0  0  0  0  0  0  0  0
   58.5080   31.6090   46.2850 C   0  0  0  0  0  0  0  0  0  0  0  0
   57.5330   32.0170   45.3710 C   0  0  0  0  0  0  0  0  0  0  0  0
   56.6500   31.1140   44.8720 N   0  0  0  0  0  0  0  0  0  0  0  0
   56.6980   29.8070   45.2480 C   0  0  0  0  0  0  0  0  0  0  0  0
   55.8490   28.9580   44.7660 N   0  0  0  0  0  0  0  0  0  0  0  0
   57.6380   29.3910   46.1350 N   0  0  0  0  0  0  0  0  0  0  0  0
   58.5400   30.2620   46.6570 C   0  0  0  0  0  0  0  0  0  0  0  0
   59.1939   34.0358   53.1460 H   0  0  0  0  0  0  0  0  0  0  0  0
   59.3647   35.5027   52.1235 H   0  0  0  0  0  0  0  0  0  0  0  0
   57.8220   34.5825   52.1235 H   0  0  0  0  0  0  0  0  0  0  0  0
   57.4531   32.3166   52.3619 H   0  0  0  0  0  0  0  0  0  0  0  0
   56.9470   29.9065   52.0397 H   0  0  0  0  0  0  0  0  0  0  0  0
   58.2736   28.5498   50.4381 H   0  0  0  0  0  0  0  0  0  0  0  0
   60.3976   27.6589   49.9333 H   0  0  0  0  0  0  0  0  0  0  0  0
   59.5011   27.6047   48.3777 H   0  0  0  0  0  0  0  0  0  0  0  0
   61.2937   27.7196   48.3777 H   0  0  0  0  0  0  0  0  0  0  0  0
   60.8317   33.3534   49.2660 H   0  0  0  0  0  0  0  0  0  0  0  0
   62.1537   31.9892   51.0267 H   0  0  0  0  0  0  0  0  0  0  0  0
   62.6229   30.9450   49.5823 H   0  0  0  0  0  0  0  0  0  0  0  0
   63.9462   33.2125   50.5495 H   0  0  0  0  0  0  0  0  0  0  0  0
   64.1757   32.2951   48.9670 H   0  0  0  0  0  0  0  0  0  0  0  0
   62.3378   34.6803   49.3228 H   0  0  0  0  0  0  0  0  0  0  0  0
   64.0501   34.7259   48.6766 H   0  0  0  0  0  0  0  0  0  0  0  0
   61.7312   34.4452   47.1779 H   0  0  0  0  0  0  0  0  0  0  0  0
   63.4549   34.0643   46.6814 H   0  0  0  0  0  0  0  0  0  0  0  0
   62.1570   32.1849   46.0385 H   0  0  0  0  0  0  0  0  0  0  0  0
   63.0541   31.7350   47.5625 H   0  0  0  0  0  0  0  0  0  0  0  0
   57.4807   33.0695   45.0557 H   0  0  0  0  0  0  0  0  0  0  0  0
   56.1340   27.9830   44.5200 H   0  0  0  0  0  0  0  0  0  0  0  0
   59.2961   29.9072   47.3729 H   0  0  0  0  0  0  0  0  0  0  0  0
  1  2  1  0
  2  3  1  0
  3  4  2  0
  4  5  1  0
  5  6  2  0
  6  7  1  0
  7  8  1  0
  8  9  1  0
  7 10  2  0
 10 11  1  0
 11 12  1  0
 12 13  1  0
 13 14  1  0
 14 15  1  0
 15 16  1  0
 16 17  1  0
 17 18  1  0
 18 19  2  0
 18 20  2  0
 18 21  1  0
 21 22  1  0
 22 23  2  0
 23 24  1  0
 24 25  2  3
 24 26  1  0
 26 27  1  0
 10  3  1  0
 17 11  1  0
 27 21  2  0
  1 28  1  0
  1 29  1  0
  1 30  1  0
  4 31  1  0
  5 32  1  0
  6 33  1  0
  9 34  1  0
  9 35  1  0
  9 36  1  0
 11 37  1  6
 12 38  1  0
 12 39  1  0
 13 40  1  0
 13 41  1  0
 14 42  1  0
 14 43  1  0
 15 44  1  0
 15 45  1  0
 16 46  1  0
 16 47  1  0
 22 48  1  0
 25 49  1  0
 27 50  1  0
M  CHG  1  26  -1
M  END
>  <UniqueID>  (23) 
20

>  <SMILES>  (23) 
COc1cccc(OC)c1[C@H]1CCCCCN1S(=O)(=O)c1cnc(=N)[n-]c1

>  <Energy>  (23) 
62.34197395997185

>  <Genealogy>  (23) 
COc1cccc(OC)c1C1CCCCCN1S(=O)(=O)c1cnc(=N)[n-]c1 (protonated)
COc1cccc(OC)c1[C@H]1CCCCCN1S(=O)(=O)c1cnc(=N)[n-]c1 (chirality)
COc1cccc(OC)c1[C@H]1CCCCCN1S(=O)(=O)c1cnc(=N)[n-]c1 (3D coordinates assigned)
COc1cccc(OC)c1[C@H]1CCCCCN1S(=O)(=O)c1cnc(=N)[n-]c1 (nonaromatic ring conformer: 62.34197395997185 kcal/mol)

>  <smiles>  (23) 
COc1cccc(OC)c1C1CCCCCN1S(=O)(=O)c1cnc(=N)[nH]c1

>  <score_type>  (23) 
oracle

>  <origin>  (23) 
adg

>  <m_score__min__energy>  (23) 
-7.4800000000000004

>  <m_primary>  (23) 
energy

$$$$
23:0
     RDKit          3D

 38 39  0  0  0  0  0  0  0  0999 V2000
   55.0750   25.1200   45.6400 C   0  0  0  0  0  0  0  0  0  0  0  0
   55.2640   26.4690   46.0030 O   0  0  0  0  0  0  0  0  0  0  0  0
   56.6390   26.7820   45.9440 C   0  0  0  0  0  0  0  0  0  0  0  0
   56.8280   28.2420   45.5210 C   0  0  0  0  0  0  0  0  0  0  0  0
   57.3720   28.3260   44.1440 N   0  0  0  0  0  0  0  0  0  0  0  0
   58.8380   28.5170   44.1520 C   0  0  0  0  0  0  0  0  0  0  0  0
   59.2990   28.9490   45.5100 C   0  0  0  0  0  0  0  0  0  0  0  0
   60.0600   28.1940   46.3800 C   0  0  0  0  0  0  0  0  0  0  0  0
   60.2290   28.9770   47.5030 C   0  0  0  0  0  0  0  0  0  0  0  0
   59.5630   30.1570   47.2400 C   0  0  0  0  0  0  0  0  0  0  0  0
   59.4500   31.3150   48.1710 C   0  0  0  0  0  0  0  0  0  0  0  0
   59.0160   30.1130   46.0470 O   0  0  0  0  0  0  0  0  0  0  0  0
   56.6900   29.3610   43.3280 C   0  0  0  0  0  0  0  0  0  0  0  0
   57.1210   30.7120   43.7950 C   0  0  0  0  0  0  0  0  0  0  0  0
   58.0210   31.4830   43.1550 N   0  0  0  0  0  0  0  0  0  0  0  0
   58.1270   32.5950   43.8670 N   0  0  0  0  0  0  0  0  0  0  0  0
   57.2830   32.4580   44.9060 C   0  0  0  0  0  0  0  0  0  0  0  0
   57.1060   33.4750   45.9820 C   0  0  0  0  0  0  0  0  0  0  0  0
   56.6630   31.3050   44.8710 O   0  0  0  0  0  0  0  0  0  0  0  0
   54.9888   24.5047   46.5477 H   0  0  0  0  0  0  0  0  0  0  0  0
   54.1549   25.0260   45.0445 H   0  0  0  0  0  0  0  0  0  0  0  0
   55.9338   24.7767   45.0445 H   0  0  0  0  0  0  0  0  0  0  0  0
   57.0900   26.6291   46.9356 H   0  0  0  0  0  0  0  0  0  0  0  0
   57.1263   26.1272   45.2066 H   0  0  0  0  0  0  0  0  0  0  0  0
   55.8563   28.7563   45.5567 H   0  0  0  0  0  0  0  0  0  0  0  0
   57.5398   28.7192   46.2106 H   0  0  0  0  0  0  0  0  0  0  0  0
   59.3288   27.5690   43.8868 H   0  0  0  0  0  0  0  0  0  0  0  0
   59.1012   29.2953   43.4206 H   0  0  0  0  0  0  0  0  0  0  0  0
   60.4503   27.1793   46.2125 H   0  0  0  0  0  0  0  0  0  0  0  0
   60.7802   28.7153   48.4183 H   0  0  0  0  0  0  0  0  0  0  0  0
   59.4851   30.9551   49.2098 H   0  0  0  0  0  0  0  0  0  0  0  0
   60.2846   32.0096   47.9952 H   0  0  0  0  0  0  0  0  0  0  0  0
   58.4968   31.8352   47.9952 H   0  0  0  0  0  0  0  0  0  0  0  0
   56.9607   29.2333   42.2695 H   0  0  0  0  0  0  0  0  0  0  0  0
   55.6000   29.2609   43.4372 H   0  0  0  0  0  0  0  0  0  0  0  0
   57.1908   32.9878   46.9646 H   0  0  0  0  0  0  0  0  0  0  0  0
   57.8832   34.2477   45.8876 H   0  0  0  0  0  0  0  0  0  0  0  0
   56.1135   33.9397   45.8876 H   0  0  0  0  0  0  0  0  0  0  0  0
  1  2  1  0
  2  3  1  0
  3  4  1  0
  4  5  1  0
  5  6  1  0
  6  7  1  0
  7  8  2  0
  8  9  1  0
  9 10  2  0
 10 11  1  0
 10 12  1  0
  5 13  1  0
 13 14  1  0
 14 15  2  0
 15 16  1  0
 16 17  2  0
 17 18  1  0
 17 19  1  0
 12  7  1  0
 19 14  1  0
  1 20  1  0
  1 21  1  0
  1 22  1  0
  3 23  1  0
  3 24  1  0
  4 25  1  0
  4 26  1  0
  6 27  1  0
  6 28  1  0
  8 29  1  0
  9 30  1  0
 11 31  1  0
 11 32  1  0
 11 33  1  0
 13 34  1  0
 13 35  1  0
 18 36  1  0
 18 37  1  0
 18 38  1  0
M  END
>  <UniqueID>  (24) 
21

>  <SMILES>  (24) 
COCCN(Cc1ccc(C)o1)Cc1nnc(C)o1

>  <Energy>  (24) 
96.34752653285142

>  <Genealogy>  (24) 
COCCN(Cc1ccc(C)o1)Cc1nnc(C)o1 (3D coordinates assigned)
COCCN(Cc1ccc(C)o1)Cc1nnc(C)o1 (optimized conformer: 96.34752653285142 kcal/mol)

>  <smiles>  (24) 
COCCN(Cc1ccc(C)o1)Cc1nnc(C)o1

>  <score_type>  (24) 
oracle

>  <origin>  (24) 
adg

>  <m_score__min__energy>  (24) 
-5.7400000000000002

>  <m_primary>  (24) 
energy

$$$$
24:0
     RDKit          3D

 43 45  0  0  0  0  0  0  0  0999 V2000
   55.8860   19.4230   43.8360 C   0  0  0  0  0  0  0  0  0  0  0  0
   56.0830   20.6220   43.0930 O   0  0  0  0  0  0  0  0  0  0  0  0
   56.6590   21.7890   43.6140 C   0  0  0  0  0  0  0  0  0  0  0  0
   56.4200   23.0620   43.0610 C   0  0  0  0  0  0  0  0  0  0  0  0
   57.0180   24.1960   43.6180 C   0  0  0  0  0  0  0  0  0  0  0  0
   57.8720   24.0760   44.7250 C   0  0  0  0  0  0  0  0  0  0  0  0
   58.4850   25.2990   45.3450 C   0  0  0  0  0  0  0  0  0  0  0  0
   57.5600   25.8570   46.3250 N   0  0  0  0  0  0  0  0  0  0  0  0
   56.6690   26.9520   46.0790 C   0  0  0  0  0  0  0  0  0  0  0  0
   55.4360   26.7180   45.9800 O   0  0  0  0  0  0  0  0  0  0  0  0
   57.1430   28.3470   45.9800 C   0  0  0  0  0  0  0  0  0  0  0  0
   58.2190   28.8040   46.7510 C   0  0  0  0  0  0  0  0  0  0  0  0
   58.6600   30.1220   46.6300 C   0  0  0  0  0  0  0  0  0  0  0  0
   58.0280   30.9830   45.7170 C   0  0  0  0  0  0  0  0  0  0  0  0
   58.4490   32.3520   45.5610 N   0  0  0  0  0  0  0  0  0  0  0  0
   57.9640   33.2520   44.5260 C   0  0  0  0  0  0  0  0  0  0  0  0
   58.5630   34.6140   44.8510 C   0  0  0  0  0  0  0  0  0  0  0  0
   59.7020   34.3480   45.8310 C   0  0  0  0  0  0  0  0  0  0  0  0
   59.4170   32.9830   46.4410 C   0  0  0  0  0  0  0  0  0  0  0  0
   56.9970   30.5070   44.9630 N   0  0  0  0  0  0  0  0  0  0  0  0
   56.5520   29.2270   45.0650 C   0  0  0  0  0  0  0  0  0  0  0  0
   58.0970   22.8110   45.2860 C   0  0  0  0  0  0  0  0  0  0  0  0
   57.4980   21.6770   44.7290 C   0  0  0  0  0  0  0  0  0  0  0  0
   55.9230   19.6482   44.9121 H   0  0  0  0  0  0  0  0  0  0  0  0
   54.9052   18.9930   43.5849 H   0  0  0  0  0  0  0  0  0  0  0  0
   56.6777   18.7018   43.5849 H   0  0  0  0  0  0  0  0  0  0  0  0
   55.7599   23.1643   42.1870 H   0  0  0  0  0  0  0  0  0  0  0  0
   56.8181   25.1878   43.1863 H   0  0  0  0  0  0  0  0  0  0  0  0
   59.4272   25.0259   45.8427 H   0  0  0  0  0  0  0  0  0  0  0  0
   58.6891   26.0458   44.5635 H   0  0  0  0  0  0  0  0  0  0  0  0
   58.7182   28.1214   47.4545 H   0  0  0  0  0  0  0  0  0  0  0  0
   59.4967   30.4847   47.2451 H   0  0  0  0  0  0  0  0  0  0  0  0
   58.2987   32.9124   43.5347 H   0  0  0  0  0  0  0  0  0  0  0  0
   56.8649   33.2872   44.5008 H   0  0  0  0  0  0  0  0  0  0  0  0
   58.9480   35.0903   43.9373 H   0  0  0  0  0  0  0  0  0  0  0  0
   57.8117   35.2931   45.2803 H   0  0  0  0  0  0  0  0  0  0  0  0
   60.6667   34.3371   45.3026 H   0  0  0  0  0  0  0  0  0  0  0  0
   59.7625   35.1303   46.6020 H   0  0  0  0  0  0  0  0  0  0  0  0
   60.3387   32.3846   46.4888 H   0  0  0  0  0  0  0  0  0  0  0  0
   59.0343   33.0701   47.4686 H   0  0  0  0  0  0  0  0  0  0  0  0
   55.7253   28.8812   44.4270 H   0  0  0  0  0  0  0  0  0  0  0  0
   58.7471   22.7103   46.1676 H   0  0  0  0  0  0  0  0  0  0  0  0
   57.6878   20.6877   45.1710 H   0  0  0  0  0  0  0  0  0  0  0  0
  1  2  1  0
  2  3  1  0
  3  4  2  0
  4  5  1  0
  5  6  2  0
  6  7  1  0
  7  8  1  0
  8  9  1  0
  9 10  2  0
  9 11  1  0
 11 12  2  0
 12 13  1  0
 13 14  2  0
 14 15  1  0
 15 16  1  0
 16 17  1  0
 17 18  1  0
 18 19  1  0
 14 20  1  0
 20 21  2  0
  6 22  1  0
 22 23  2  0
 23  3  1  0
 21 11  1  0
 19 15  1  0
  1 24  1  0
  1 25  1  0
  1 26  1  0
  4 27  1  0
  5 28  1  0
  7 29  1  0
  7 30  1  0
 12 31  1  0
 13 32  1  0
 16 33  1  0
 16 34  1  0
 17 35  1  0
 17 36  1  0
 18 37  1  0
 18 38  1  0
 19 39  1  0
 19 40  1  0
 21 41  1  0
 22 42  1  0
 23 43  1  0
M  CHG  1   8  -1
M  END
>  <UniqueID>  (25) 
22

>  <SMILES>  (25) 
COc1ccc(C[N-]C(=O)c2ccc(N3CCCC3)nc2)cc1

>  <Energy>  (25) 
47.35827425668177

>  <Genealogy>  (25) 
COc1ccc(C[N-]C(=O)c2ccc(N3CCCC3)nc2)cc1 (protonated)
COc1ccc(C[N-]C(=O)c2ccc(N3CCCC3)nc2)cc1 (3D coordinates assigned)
COc1ccc(C[N-]C(=O)c2ccc(N3CCCC3)nc2)cc1 (nonaromatic ring conformer: 47.35827425668177 kcal/mol)

>  <smiles>  (25) 
COc1ccc(CNC(=O)c2ccc(N3CCCC3)nc2)cc1

>  <score_type>  (25) 
oracle

>  <origin>  (25) 
adg

>  <m_score__min__energy>  (25) 
-9.0899999999999999

>  <m_primary>  (25) 
energy

$$$$
25:0
     RDKit          3D

 38 40  0  0  0  0  0  0  0  0999 V2000
   61.1920   32.0150   47.1230 C   0  0  0  0  0  0  0  0  0  0  0  0
   60.5600   30.6950   47.2100 N   0  0  0  0  0  0  0  0  0  0  0  0
   60.9610   30.0230   48.4530 C   0  0  0  0  0  0  0  0  0  0  0  0
   58.8220   30.8730   47.1770 S   0  0  0  0  0  0  0  0  0  0  0  0
   58.4080   32.0460   48.0210 O   0  0  0  0  0  0  0  0  0  0  0  0
   58.1830   29.6310   47.7340 O   0  0  0  0  0  0  0  0  0  0  0  0
   58.2740   31.1440   45.5130 C   0  0  0  0  0  0  0  0  0  0  0  0
   58.2100   32.4580   45.0220 C   0  0  0  0  0  0  0  0  0  0  0  0
   57.7570   32.7110   43.7250 C   0  0  0  0  0  0  0  0  0  0  0  0
   57.3620   31.6550   42.9050 C   0  0  0  0  0  0  0  0  0  0  0  0
   57.4240   30.3420   43.3740 C   0  0  0  0  0  0  0  0  0  0  0  0
   57.8840   30.0720   44.6730 C   0  0  0  0  0  0  0  0  0  0  0  0
   57.9410   28.6650   45.1230 C   0  0  0  0  0  0  0  0  0  0  0  0
   56.7620   27.9440   45.3640 C   0  0  0  0  0  0  0  0  0  0  0  0
   55.5220   28.5660   45.2240 O   0  0  0  0  0  0  0  0  0  0  0  0
   56.8440   26.6010   45.7570 C   0  0  0  0  0  0  0  0  0  0  0  0
   55.6980   25.8210   45.9910 C   0  0  0  0  0  0  0  0  0  0  0  0
   55.8300   24.4830   46.3790 C   0  0  0  0  0  0  0  0  0  0  0  0
   57.0980   23.9170   46.5370 C   0  0  0  0  0  0  0  0  0  0  0  0
   58.2430   24.6860   46.3080 C   0  0  0  0  0  0  0  0  0  0  0  0
   58.1240   26.0250   45.9190 C   0  0  0  0  0  0  0  0  0  0  0  0
   59.2190   26.7490   45.7080 O   0  0  0  0  0  0  0  0  0  0  0  0
   59.1760   28.0220   45.3290 C   0  0  0  0  0  0  0  0  0  0  0  0
   60.2570   28.6450   45.1470 O   0  0  0  0  0  0  0  0  0  0  0  0
   61.3766   32.4006   48.1365 H   0  0  0  0  0  0  0  0  0  0  0  0
   62.1469   31.9295   46.5836 H   0  0  0  0  0  0  0  0  0  0  0  0
   60.5267   32.7052   46.5836 H   0  0  0  0  0  0  0  0  0  0  0  0
   60.6114   30.6089   49.3158 H   0  0  0  0  0  0  0  0  0  0  0  0
   60.5147   29.0182   48.4870 H   0  0  0  0  0  0  0  0  0  0  0  0
   62.0572   29.9386   48.4870 H   0  0  0  0  0  0  0  0  0  0  0  0
   58.5193   33.2956   45.6644 H   0  0  0  0  0  0  0  0  0  0  0  0
   57.7119   33.7443   43.3504 H   0  0  0  0  0  0  0  0  0  0  0  0
   57.0006   31.8571   41.8859 H   0  0  0  0  0  0  0  0  0  0  0  0
   57.1105   29.5134   42.7220 H   0  0  0  0  0  0  0  0  0  0  0  0
   54.6978   26.2624   45.8691 H   0  0  0  0  0  0  0  0  0  0  0  0
   54.9320   23.8742   46.5604 H   0  0  0  0  0  0  0  0  0  0  0  0
   57.1954   22.8646   46.8421 H   0  0  0  0  0  0  0  0  0  0  0  0
   59.2395   24.2375   46.4339 H   0  0  0  0  0  0  0  0  0  0  0  0
  1  2  1  0
  2  3  1  0
  2  4  1  0
  4  5  2  0
  4  6  2  0
  4  7  1  0
  7  8  2  0
  8  9  1  0
  9 10  2  0
 10 11  1  0
 11 12  2  0
 12 13  1  0
 13 14  2  0
 14 15  1  0
 14 16  1  0
 16 17  2  0
 17 18  1  0
 18 19  2  0
 19 20  1  0
 20 21  2  0
 21 22  1  0
 22 23  1  0
 23 24  2  0
 12  7  1  0
 23 13  1  0
 21 16  1  0
  1 25  1  0
  1 26  1  0
  1 27  1  0
  3 28  1  0
  3 29  1  0
  3 30  1  0
  8 31  1  0
  9 32  1  0
 10 33  1  0
 11 34  1  0
 17 35  1  0
 18 36  1  0
 19 37  1  0
 20 38  1  0
M  CHG  1  15  -1
M  END
>  <UniqueID>  (26) 
23

>  <SMILES>  (26) 
CN(C)S(=O)(=O)c1ccccc1-c1c([O-])c2ccccc2oc1=O

>  <Energy>  (26) 
51.66966391096016

>  <Genealogy>  (26) 
CN(C)S(=O)(=O)c1ccccc1-c1c([O-])c2ccccc2oc1=O (protonated)
CN(C)S(=O)(=O)c1ccccc1-c1c([O-])c2ccccc2oc1=O (3D coordinates assigned)
CN(C)S(=O)(=O)c1ccccc1-c1c([O-])c2ccccc2oc1=O (optimized conformer: 51.66966391096016 kcal/mol)

>  <smiles>  (26) 
CN(C)S(=O)(=O)c1ccccc1-c1c(O)c2ccccc2oc1=O

>  <score_type>  (26) 
oracle

>  <origin>  (26) 
adg

>  <m_score__min__energy>  (26) 
-10.630000000000001

>  <m_primary>  (26) 
energy

$$$$
26:0
     RDKit          3D

 46 49  0  0  0  0  0  0  0  0999 V2000
   59.6450   33.3370   50.6610 C   0  0  0  0  0  0  0  0  0  0  0  0
   60.2300   34.2160   49.7070 O   0  0  0  0  0  0  0  0  0  0  0  0
   61.3700   33.9180   48.9420 C   0  0  0  0  0  0  0  0  0  0  0  0
   62.6510   33.8190   49.5240 C   0  0  0  0  0  0  0  0  0  0  0  0
   63.7610   33.5000   48.7380 C   0  0  0  0  0  0  0  0  0  0  0  0
   63.6090   33.2730   47.3710 C   0  0  0  0  0  0  0  0  0  0  0  0
   62.3470   33.3670   46.7830 C   0  0  0  0  0  0  0  0  0  0  0  0
   61.2220   33.6960   47.5570 C   0  0  0  0  0  0  0  0  0  0  0  0
   59.9330   33.8150   46.9290 N   0  0  0  0  0  0  0  0  0  0  0  0
   59.5890   35.0110   46.1570 C   0  0  0  0  0  0  0  0  0  0  0  0
   58.9720   34.5870   44.8240 C   0  0  0  0  0  0  0  0  0  0  0  0
   57.8550   33.6220   44.9800 N   0  0  0  0  0  0  0  0  0  0  0  0
   57.7750   32.6220   43.8910 C   0  0  0  0  0  0  0  0  0  0  0  0
   57.2850   31.2790   44.3620 C   0  0  0  0  0  0  0  0  0  0  0  0
   55.9870   30.8230   44.2990 C   0  0  0  0  0  0  0  0  0  0  0  0
   55.9590   29.6410   44.8620 O   0  0  0  0  0  0  0  0  0  0  0  0
   57.1830   29.3740   45.2620 C   0  0  0  0  0  0  0  0  0  0  0  0
   57.5590   28.1480   45.9720 C   0  0  0  0  0  0  0  0  0  0  0  0
   58.7360   27.9480   46.6810 C   0  0  0  0  0  0  0  0  0  0  0  0
   58.8390   26.6610   47.2230 C   0  0  0  0  0  0  0  0  0  0  0  0
   57.7470   25.8480   46.9410 C   0  0  0  0  0  0  0  0  0  0  0  0
   56.6550   26.7300   46.0150 S   0  0  0  0  0  0  0  0  0  0  0  0
   58.0570   30.3600   44.9720 N   0  0  0  0  0  0  0  0  0  0  0  0
   57.6360   33.0710   46.3390 C   0  0  0  0  0  0  0  0  0  0  0  0
   58.9480   32.7370   47.0700 C   0  0  0  0  0  0  0  0  0  0  0  0
   59.8795   33.6893   51.6763 H   0  0  0  0  0  0  0  0  0  0  0  0
   58.5540   33.3187   50.5221 H   0  0  0  0  0  0  0  0  0  0  0  0
   60.0494   32.3235   50.5221 H   0  0  0  0  0  0  0  0  0  0  0  0
   62.7767   33.9939   50.6027 H   0  0  0  0  0  0  0  0  0  0  0  0
   64.7572   33.4278   49.1988 H   0  0  0  0  0  0  0  0  0  0  0  0
   64.4846   33.0196   46.7553 H   0  0  0  0  0  0  0  0  0  0  0  0
   62.2323   33.1820   45.7048 H   0  0  0  0  0  0  0  0  0  0  0  0
   58.8655   35.6178   46.7211 H   0  0  0  0  0  0  0  0  0  0  0  0
   60.4956   35.6060   45.9726 H   0  0  0  0  0  0  0  0  0  0  0  0
   58.5911   35.4839   44.3136 H   0  0  0  0  0  0  0  0  0  0  0  0
   59.7598   34.0855   44.2427 H   0  0  0  0  0  0  0  0  0  0  0  0
   57.0849   32.9967   43.1207 H   0  0  0  0  0  0  0  0  0  0  0  0
   58.7924   32.4819   43.4969 H   0  0  0  0  0  0  0  0  0  0  0  0
   55.1311   31.3541   43.8570 H   0  0  0  0  0  0  0  0  0  0  0  0
   59.5084   28.7214   46.8043 H   0  0  0  0  0  0  0  0  0  0  0  0
   59.7024   26.3249   47.8159 H   0  0  0  0  0  0  0  0  0  0  0  0
   57.6191   24.8055   47.2679 H   0  0  0  0  0  0  0  0  0  0  0  0
   57.0825   33.8130   46.9333 H   0  0  0  0  0  0  0  0  0  0  0  0
   57.0731   32.1326   46.2272 H   0  0  0  0  0  0  0  0  0  0  0  0
   58.7334   32.5867   48.1383 H   0  0  0  0  0  0  0  0  0  0  0  0
   59.3692   31.8247   46.6224 H   0  0  0  0  0  0  0  0  0  0  0  0
  1  2  1  0
  2  3  1  0
  3  4  2  0
  4  5  1  0
  5  6  2  0
  6  7  1  0
  7  8  2  0
  8  9  1  0
  9 10  1  0
 10 11  1  0
 11 12  1  0
 12 13  1  0
 13 14  1  0
 14 15  2  0
 15 16  1  0
 16 17  1  0
 17 18  1  0
 18 19  2  0
 19 20  1  0
 20 21  2  0
 21 22  1  0
 17 23  2  0
 12 24  1  0
 24 25  1  0
  8  3  1  0
 25  9  1  0
 23 14  1  0
 22 18  1  0
  1 26  1  0
  1 27  1  0
  1 28  1  0
  4 29  1  0
  5 30  1  0
  6 31  1  0
  7 32  1  0
 10 33  1  0
 10 34  1  0
 11 35  1  0
 11 36  1  0
 13 37  1  0
 13 38  1  0
 15 39  1  0
 19 40  1  0
 20 41  1  0
 21 42  1  0
 24 43  1  0
 24 44  1  0
 25 45  1  0
 25 46  1  0
M  END
>  <UniqueID>  (27) 
24

>  <SMILES>  (27) 
COc1ccccc1N1CCN(Cc2coc(-c3cccs3)n2)CC1

>  <Energy>  (27) 
114.52927577400929

>  <Genealogy>  (27) 
COc1ccccc1N1CCN(Cc2coc(-c3cccs3)n2)CC1 (3D coordinates assigned)
COc1ccccc1N1CCN(Cc2coc(-c3cccs3)n2)CC1 (nonaromatic ring conformer: 114.52927577400929 kcal/mol)

>  <smiles>  (27) 
COc1ccccc1N1CCN(Cc2coc(-c3cccs3)n2)CC1

>  <score_type>  (27) 
oracle

>  <origin>  (27) 
adg

>  <m_score__min__energy>  (27) 
-8.3000000000000007

>  <m_primary>  (27) 
energy

$$$$
27:0
     RDKit          3D

 29 31  0  0  0  0  0  0  0  0999 V2000
   56.2760   30.0210   42.9360 C   0  0  0  0  0  0  0  0  0  0  0  0
   56.9360   30.7040   44.0400 N   0  0  0  0  0  0  0  0  0  0  0  0
   57.5470   31.9000   43.9730 C   0  0  0  0  0  0  0  0  0  0  0  0
   58.1130   32.1610   45.2050 C   0  0  0  0  0  0  0  0  0  0  0  0
   58.8500   33.3870   45.5810 C   0  0  0  0  0  0  0  0  0  0  0  0
   58.7650   34.5870   44.9030 C   0  0  0  0  0  0  0  0  0  0  0  0
   59.6420   35.4250   45.5590 C   0  0  0  0  0  0  0  0  0  0  0  0
   60.2350   34.7590   46.5670 N   0  0  0  0  0  0  0  0  0  0  0  0
   59.7550   33.5240   46.5810 N   0  0  0  0  0  0  0  0  0  0  0  0
   60.2500   32.5050   47.5090 C   0  0  0  0  0  0  0  0  0  0  0  0
   61.7470   32.5070   47.5480 C   0  0  0  0  0  0  0  0  0  0  0  0
   62.5210   33.3120   46.7950 N   0  0  0  0  0  0  0  0  0  0  0  0
   63.7790   32.9840   47.1300 C   0  0  0  0  0  0  0  0  0  0  0  0
   63.7260   31.9820   48.0740 C   0  0  0  0  0  0  0  0  0  0  0  0
   62.4630   31.7070   48.3070 O   0  0  0  0  0  0  0  0  0  0  0  0
   57.7930   31.0610   45.9850 C   0  0  0  0  0  0  0  0  0  0  0  0
   57.0850   30.1830   45.2470 N   0  0  0  0  0  0  0  0  0  0  0  0
   55.5635   29.2837   43.3344 H   0  0  0  0  0  0  0  0  0  0  0  0
   55.7371   30.7558   42.3199 H   0  0  0  0  0  0  0  0  0  0  0  0
   57.0289   29.5076   42.3199 H   0  0  0  0  0  0  0  0  0  0  0  0
   57.5886   32.5558   43.0908 H   0  0  0  0  0  0  0  0  0  0  0  0
   58.1363   34.8225   44.0317 H   0  0  0  0  0  0  0  0  0  0  0  0
   59.8284   36.4772   45.2982 H   0  0  0  0  0  0  0  0  0  0  0  0
   59.8623   32.7154   48.5167 H   0  0  0  0  0  0  0  0  0  0  0  0
   59.9065   31.5178   47.1663 H   0  0  0  0  0  0  0  0  0  0  0  0
   62.2150   34.0340   46.1060 H   0  0  0  0  0  0  0  0  0  0  0  0
   64.6942   33.4371   46.7213 H   0  0  0  0  0  0  0  0  0  0  0  0
   64.5909   31.4967   48.5498 H   0  0  0  0  0  0  0  0  0  0  0  0
   58.0728   30.9258   47.0402 H   0  0  0  0  0  0  0  0  0  0  0  0
  1  2  1  0
  2  3  1  0
  3  4  2  0
  4  5  1  0
  5  6  2  0
  6  7  1  0
  7  8  2  0
  8  9  1  0
  9 10  1  0
 10 11  1  0
 11 12  2  0
 12 13  1  0
 13 14  2  0
 14 15  1  0
  4 16  1  0
 16 17  2  0
 17  2  1  0
  9  5  1  0
 15 11  1  0
  1 18  1  0
  1 19  1  0
  1 20  1  0
  3 21  1  0
  6 22  1  0
  7 23  1  0
 10 24  1  0
 10 25  1  0
 12 26  1  0
 13 27  1  0
 14 28  1  0
 16 29  1  0
M  CHG  1  12   1
M  END
>  <UniqueID>  (28) 
25

>  <SMILES>  (28) 
Cn1cc(-c2ccnn2Cc2[nH+]cco2)cn1

>  <Energy>  (28) 
121.47333675091794

>  <Genealogy>  (28) 
Cn1cc(-c2ccnn2Cc2[nH+]cco2)cn1 (protonated)
Cn1cc(-c2ccnn2Cc2[nH+]cco2)cn1 (3D coordinates assigned)
Cn1cc(-c2ccnn2Cc2[nH+]cco2)cn1 (optimized conformer: 121.47333675091794 kcal/mol)

>  <smiles>  (28) 
Cn1cc(-c2ccnn2Cc2ncco2)cn1

>  <score_type>  (28) 
oracle

>  <origin>  (28) 
adg

>  <m_score__min__energy>  (28) 
-4.1100000000000003

>  <m_primary>  (28) 
energy

$$$$
28:0
     RDKit          3D

 44 46  0  0  0  0  0  0  0  0999 V2000
   57.8490   32.6210   43.4630 C   0  0  0  0  0  0  0  0  0  0  0  0
   57.3900   33.0100   44.8650 C   0  0  0  0  0  0  0  0  0  0  0  0
   58.5610   33.1830   45.7550 N   0  0  0  0  0  0  0  0  0  0  0  0
   59.4830   34.2230   45.2390 C   0  0  0  0  0  0  0  0  0  0  0  0
   59.6450   35.3660   46.2420 C   0  0  0  0  0  0  0  0  0  0  0  0
   58.1340   33.5010   47.1390 C   0  0  0  0  0  0  0  0  0  0  0  0
   58.5120   32.3640   48.0950 C   0  0  0  0  0  0  0  0  0  0  0  0
   59.8650   31.8700   47.8050 N   0  0  0  0  0  0  0  0  0  0  0  0
   60.2230   30.8060   47.0260 C   0  0  0  0  0  0  0  0  0  0  0  0
   59.2840   29.8140   46.4700 C   0  0  0  0  0  0  0  0  0  0  0  0
   58.7930   29.9410   45.1620 C   0  0  0  0  0  0  0  0  0  0  0  0
   57.8920   28.9940   44.6710 C   0  0  0  0  0  0  0  0  0  0  0  0
   57.4820   27.9670   45.4640 N   0  0  0  0  0  0  0  0  0  0  0  0
   57.9250   27.8340   46.7420 C   0  0  0  0  0  0  0  0  0  0  0  0
   58.8260   28.7600   47.2720 C   0  0  0  0  0  0  0  0  0  0  0  0
   61.5530   30.7660   46.7480 N   0  0  0  0  0  0  0  0  0  0  0  0
   62.0330   31.8430   47.3900 C   0  0  0  0  0  0  0  0  0  0  0  0
   63.3500   32.2950   47.4150 C   0  0  0  0  0  0  0  0  0  0  0  0
   63.6250   33.4790   48.1230 C   0  0  0  0  0  0  0  0  0  0  0  0
   62.5850   34.1750   48.7800 C   0  0  0  0  0  0  0  0  0  0  0  0
   61.2640   33.6930   48.7350 C   0  0  0  0  0  0  0  0  0  0  0  0
   61.0260   32.5130   48.0230 C   0  0  0  0  0  0  0  0  0  0  0  0
   58.6864   31.9113   43.5350 H   0  0  0  0  0  0  0  0  0  0  0  0
   57.0151   32.1504   42.9216 H   0  0  0  0  0  0  0  0  0  0  0  0
   58.1765   33.5208   42.9216 H   0  0  0  0  0  0  0  0  0  0  0  0
   56.8286   33.9546   44.8149 H   0  0  0  0  0  0  0  0  0  0  0  0
   56.7472   32.2130   45.2671 H   0  0  0  0  0  0  0  0  0  0  0  0
   60.4670   33.7687   45.0509 H   0  0  0  0  0  0  0  0  0  0  0  0
   59.0606   34.6326   44.3096 H   0  0  0  0  0  0  0  0  0  0  0  0
   59.5884   34.9666   47.2654 H   0  0  0  0  0  0  0  0  0  0  0  0
   60.6208   35.8507   46.0910 H   0  0  0  0  0  0  0  0  0  0  0  0
   58.8423   36.1028   46.0910 H   0  0  0  0  0  0  0  0  0  0  0  0
   58.6284   34.4276   47.4660 H   0  0  0  0  0  0  0  0  0  0  0  0
   57.0414   33.6274   47.1528 H   0  0  0  0  0  0  0  0  0  0  0  0
   58.4773   32.7357   49.1297 H   0  0  0  0  0  0  0  0  0  0  0  0
   57.7978   31.5380   47.9621 H   0  0  0  0  0  0  0  0  0  0  0  0
   59.1153   30.7802   44.5281 H   0  0  0  0  0  0  0  0  0  0  0  0
   57.5131   29.0783   43.6418 H   0  0  0  0  0  0  0  0  0  0  0  0
   57.5730   26.9950   47.3603 H   0  0  0  0  0  0  0  0  0  0  0  0
   59.1736   28.6628   48.3111 H   0  0  0  0  0  0  0  0  0  0  0  0
   64.1493   31.7440   46.8978 H   0  0  0  0  0  0  0  0  0  0  0  0
   64.6542   33.8650   48.1655 H   0  0  0  0  0  0  0  0  0  0  0  0
   62.8101   35.1003   49.3305 H   0  0  0  0  0  0  0  0  0  0  0  0
   60.4464   34.2260   49.2424 H   0  0  0  0  0  0  0  0  0  0  0  0
  1  2  1  0
  2  3  1  0
  3  4  1  0
  4  5  1  0
  3  6  1  0
  6  7  1  0
  7  8  1  0
  8  9  1  0
  9 10  1  0
 10 11  2  0
 11 12  1  0
 12 13  2  0
 13 14  1  0
 14 15  2  0
  9 16  2  0
 16 17  1  0
 17 18  2  0
 18 19  1  0
 19 20  2  0
 20 21  1  0
 21 22  2  0
 22  8  1  0
 15 10  1  0
 22 17  1  0
  1 23  1  0
  1 24  1  0
  1 25  1  0
  2 26  1  0
  2 27  1  0
  4 28  1  0
  4 29  1  0
  5 30  1  0
  5 31  1  0
  5 32  1  0
  6 33  1  0
  6 34  1  0
  7 35  1  0
  7 36  1  0
 11 37  1  0
 12 38  1  0
 14 39  1  0
 15 40  1  0
 18 41  1  0
 19 42  1  0
 20 43  1  0
 21 44  1  0
M  END
>  <UniqueID>  (29) 
26

>  <SMILES>  (29) 
CCN(CC)CCn1c(-c2ccncc2)nc2ccccc21

>  <Energy>  (29) 
83.82397629289743

>  <Genealogy>  (29) 
CCN(CC)CCn1c(-c2ccncc2)nc2ccccc21 (3D coordinates assigned)
CCN(CC)CCn1c(-c2ccncc2)nc2ccccc21 (optimized conformer: 83.82397629289743 kcal/mol)

>  <smiles>  (29) 
CCN(CC)CCn1c(-c2ccncc2)nc2ccccc21

>  <score_type>  (29) 
oracle

>  <origin>  (29) 
adg

>  <m_score__min__energy>  (29) 
-6.2400000000000002

>  <m_primary>  (29) 
energy

$$$$
29:0
     RDKit          3D

 57 59  0  0  0  0  0  0  0  0999 V2000
   61.1390   30.2870   47.0320 C   0  0  0  0  0  0  0  0  0  0  0  0
   61.8660   31.5020   46.8670 O   0  0  0  0  0  0  0  0  0  0  0  0
   62.1630   32.3990   47.9050 C   0  0  0  0  0  0  0  0  0  0  0  0
   63.3120   32.2550   48.7080 C   0  0  0  0  0  0  0  0  0  0  0  0
   63.5810   33.1720   49.7250 C   0  0  0  0  0  0  0  0  0  0  0  0
   62.7060   34.2320   49.9610 C   0  0  0  0  0  0  0  0  0  0  0  0
   61.5670   34.3900   49.1710 C   0  0  0  0  0  0  0  0  0  0  0  0
   61.2910   33.4810   48.1360 C   0  0  0  0  0  0  0  0  0  0  0  0
   60.1170   33.6690   47.3270 N   0  0  0  0  0  0  0  0  0  0  0  0
   60.0670   34.7320   46.3190 C   0  0  0  0  0  0  0  0  0  0  0  0
   59.4560   34.2150   45.0000 C   0  0  0  0  0  0  0  0  0  0  0  0
   58.5320   33.0500   45.1650 N   0  0  0  0  0  0  0  0  0  0  0  0
   57.4960   33.0230   44.1050 C   0  0  0  0  0  0  0  0  0  0  0  0
   57.6440   31.8440   43.1120 C   0  0  0  0  0  0  0  0  0  0  0  0
   56.7340   30.6580   43.4360 C   0  0  0  0  0  0  0  0  0  0  0  0
   56.6580   30.4440   44.8800 N   0  0  0  0  0  0  0  0  0  0  0  0
   58.0400   29.5370   45.4100 S   0  0  0  0  0  0  0  0  0  0  0  0
   58.1680   29.6500   46.9020 O   0  0  0  0  0  0  0  0  0  0  0  0
   59.2880   30.0900   44.7750 O   0  0  0  0  0  0  0  0  0  0  0  0
   57.8260   27.8420   44.9730 C   0  0  0  0  0  0  0  0  0  0  0  0
   57.9990   27.4270   43.6490 C   0  0  0  0  0  0  0  0  0  0  0  0
   57.7840   26.0980   43.2980 C   0  0  0  0  0  0  0  0  0  0  0  0
   57.3890   25.1650   44.2640 C   0  0  0  0  0  0  0  0  0  0  0  0
   57.1920   23.4850   43.7530 Cl  0  0  0  0  0  0  0  0  0  0  0  0
   57.2050   25.5670   45.6090 C   0  0  0  0  0  0  0  0  0  0  0  0
   56.8330   24.5520   46.6760 C   0  0  0  0  0  0  0  0  0  0  0  0
   55.5320   24.1200   46.4770 F   0  0  0  0  0  0  0  0  0  0  0  0
   56.9190   25.0820   47.9560 F   0  0  0  0  0  0  0  0  0  0  0  0
   57.6970   23.4670   46.5900 F   0  0  0  0  0  0  0  0  0  0  0  0
   57.4200   26.9210   45.9450 C   0  0  0  0  0  0  0  0  0  0  0  0
   57.8760   33.0580   46.4950 C   0  0  0  0  0  0  0  0  0  0  0  0
   58.9200   32.8710   47.6040 C   0  0  0  0  0  0  0  0  0  0  0  0
   61.0136   30.0775   48.1046 H   0  0  0  0  0  0  0  0  0  0  0  0
   60.1505   30.3841   46.5594 H   0  0  0  0  0  0  0  0  0  0  0  0
   61.6919   29.4618   46.5594 H   0  0  0  0  0  0  0  0  0  0  0  0
   64.0005   31.4153   48.5323 H   0  0  0  0  0  0  0  0  0  0  0  0
   64.4848   33.0585   50.3416 H   0  0  0  0  0  0  0  0  0  0  0  0
   62.9144   34.9453   50.7720 H   0  0  0  0  0  0  0  0  0  0  0  0
   60.8821   35.2299   49.3593 H   0  0  0  0  0  0  0  0  0  0  0  0
   59.4517   35.5604   46.7001 H   0  0  0  0  0  0  0  0  0  0  0  0
   61.0932   35.0742   46.1194 H   0  0  0  0  0  0  0  0  0  0  0  0
   58.8933   35.0379   44.5350 H   0  0  0  0  0  0  0  0  0  0  0  0
   60.2947   33.8666   44.3793 H   0  0  0  0  0  0  0  0  0  0  0  0
   59.0940   32.1700   45.1040 H   0  0  0  0  0  0  0  0  0  0  0  0
   56.5098   32.9484   44.5865 H   0  0  0  0  0  0  0  0  0  0  0  0
   57.6125   33.9481   43.5214 H   0  0  0  0  0  0  0  0  0  0  0  0
   57.3990   32.2057   42.1025 H   0  0  0  0  0  0  0  0  0  0  0  0
   58.6816   31.4863   43.1855 H   0  0  0  0  0  0  0  0  0  0  0  0
   55.7250   30.8604   43.0474 H   0  0  0  0  0  0  0  0  0  0  0  0
   57.1500   29.7546   42.9662 H   0  0  0  0  0  0  0  0  0  0  0  0
   58.3061   28.1537   42.8824 H   0  0  0  0  0  0  0  0  0  0  0  0
   57.9253   25.7784   42.2550 H   0  0  0  0  0  0  0  0  0  0  0  0
   57.2668   27.2556   46.9816 H   0  0  0  0  0  0  0  0  0  0  0  0
   57.3607   34.0190   46.6398 H   0  0  0  0  0  0  0  0  0  0  0  0
   57.1516   32.2316   46.5420 H   0  0  0  0  0  0  0  0  0  0  0  0
   58.4879   33.1892   48.5643 H   0  0  0  0  0  0  0  0  0  0  0  0
   59.2044   31.8093   47.6471 H   0  0  0  0  0  0  0  0  0  0  0  0
  1  2  1  0
  2  3  1  0
  3  4  2  0
  4  5  1  0
  5  6  2  0
  6  7  1  0
  7  8  2  0
  8  9  1  0
  9 10  1  0
 10 11  1  0
 11 12  1  0
 12 13  1  0
 13 14  1  0
 14 15  1  0
 15 16  1  0
 16 17  1  0
 17 18  2  0
 17 19  2  0
 17 20  1  0
 20 21  2  0
 21 22  1  0
 22 23  2  0
 23 24  1  0
 23 25  1  0
 25 26  1  0
 26 27  1  0
 26 28  1  0
 26 29  1  0
 25 30  2  0
 12 31  1  0
 31 32  1  0
  8  3  1  0
 32  9  1  0
 30 20  1  0
  1 33  1  0
  1 34  1  0
  1 35  1  0
  4 36  1  0
  5 37  1  0
  6 38  1  0
  7 39  1  0
 10 40  1  0
 10 41  1  0
 11 42  1  0
 11 43  1  0
 12 44  1  0
 13 45  1  0
 13 46  1  0
 14 47  1  0
 14 48  1  0
 15 49  1  0
 15 50  1  0
 21 51  1  0
 22 52  1  0
 30 53  1  0
 31 54  1  0
 31 55  1  0
 32 56  1  0
 32 57  1  0
M  CHG  2  12   1  16  -1
M  END
>  <UniqueID>  (30) 
27

>  <SMILES>  (30) 
COc1ccccc1N1CC[NH+](CCC[N-]S(=O)(=O)c2ccc(Cl)c(C(F)(F)F)c2)CC1

>  <Energy>  (30) 
67.59019664327197

>  <Genealogy>  (30) 
COc1ccccc1N1CC[NH+](CCC[N-]S(=O)(=O)c2ccc(Cl)c(C(F)(F)F)c2)CC1 (protonated)
COc1ccccc1N1CC[NH+](CCC[N-]S(=O)(=O)c2ccc(Cl)c(C(F)(F)F)c2)CC1 (3D coordinates assigned)
COc1ccccc1N1CC[NH+](CCC[N-]S(=O)(=O)c2ccc(Cl)c(C(F)(F)F)c2)CC1 (nonaromatic ring conformer: 67.59019664327197 kcal/mol)

>  <smiles>  (30) 
COc1ccccc1N1CCN(CCCNS(=O)(=O)c2ccc(Cl)c(C(F)(F)F)c2)CC1

>  <score_type>  (30) 
oracle

>  <origin>  (30) 
adg

>  <m_score__min__energy>  (30) 
-7.8399999999999999

>  <m_primary>  (30) 
energy

$$$$
30:0
     RDKit          3D

 38 39  0  0  0  0  0  0  0  0999 V2000
   58.1470   27.0970   42.7650 C   0  0  0  0  0  0  0  0  0  0  0  0
   58.3780   27.0230   44.2710 C   0  0  0  0  0  0  0  0  0  0  0  0
   57.3640   27.8880   45.0260 C   0  0  0  0  0  0  0  0  0  0  0  0
   57.8860   29.6020   45.1470 S   0  0  0  0  0  0  0  0  0  0  0  0
   58.0760   29.9140   46.6050 O   0  0  0  0  0  0  0  0  0  0  0  0
   59.2150   29.7540   44.4600 O   0  0  0  0  0  0  0  0  0  0  0  0
   56.7320   30.7510   44.4950 N   0  0  0  0  0  0  0  0  0  0  0  0
   55.6890   30.0530   43.7320 C   0  0  0  0  0  0  0  0  0  0  0  0
   57.3870   31.7920   43.6840 C   0  0  0  0  0  0  0  0  0  0  0  0
   58.1280   32.7380   44.5740 C   0  0  0  0  0  0  0  0  0  0  0  0
   58.9680   32.3660   45.5550 N   0  0  0  0  0  0  0  0  0  0  0  0
   59.3810   33.5480   46.0580 C   0  0  0  0  0  0  0  0  0  0  0  0
   60.3300   33.7140   47.1870 C   0  0  0  0  0  0  0  0  0  0  0  0
   59.8790   34.0300   48.4830 C   0  0  0  0  0  0  0  0  0  0  0  0
   60.7910   34.1820   49.5320 C   0  0  0  0  0  0  0  0  0  0  0  0
   62.1600   34.0210   49.3030 C   0  0  0  0  0  0  0  0  0  0  0  0
   63.4010   34.2310   50.7400 Br  0  0  0  0  0  0  0  0  0  0  0  0
   62.6190   33.7080   48.0210 C   0  0  0  0  0  0  0  0  0  0  0  0
   61.7110   33.5550   46.9690 C   0  0  0  0  0  0  0  0  0  0  0  0
   58.8130   34.5830   45.4010 N   0  0  0  0  0  0  0  0  0  0  0  0
   58.0520   34.0440   44.4950 O   0  0  0  0  0  0  0  0  0  0  0  0
   57.1164   27.4272   42.5679 H   0  0  0  0  0  0  0  0  0  0  0  0
   58.8530   27.8139   42.3205 H   0  0  0  0  0  0  0  0  0  0  0  0
   58.3050   26.1033   42.3205 H   0  0  0  0  0  0  0  0  0  0  0  0
   58.2747   25.9783   44.5997 H   0  0  0  0  0  0  0  0  0  0  0  0
   59.3889   27.3979   44.4889 H   0  0  0  0  0  0  0  0  0  0  0  0
   56.4010   27.8482   44.4959 H   0  0  0  0  0  0  0  0  0  0  0  0
   57.2771   27.4899   46.0478 H   0  0  0  0  0  0  0  0  0  0  0  0
   54.9809   29.5791   44.4277 H   0  0  0  0  0  0  0  0  0  0  0  0
   55.1530   30.7750   43.0984 H   0  0  0  0  0  0  0  0  0  0  0  0
   56.1520   29.2821   43.0984 H   0  0  0  0  0  0  0  0  0  0  0  0
   58.0930   31.3197   42.9851 H   0  0  0  0  0  0  0  0  0  0  0  0
   56.6225   32.3474   43.1209 H   0  0  0  0  0  0  0  0  0  0  0  0
   59.2200   31.3950   45.8400 H   0  0  0  0  0  0  0  0  0  0  0  0
   58.8028   34.1580   48.6713 H   0  0  0  0  0  0  0  0  0  0  0  0
   60.4295   34.4292   50.5411 H   0  0  0  0  0  0  0  0  0  0  0  0
   63.6965   33.5818   47.8391 H   0  0  0  0  0  0  0  0  0  0  0  0
   62.0793   33.3082   45.9623 H   0  0  0  0  0  0  0  0  0  0  0  0
  1  2  1  0
  2  3  1  0
  3  4  1  0
  4  5  2  0
  4  6  2  0
  4  7  1  0
  7  8  1  0
  7  9  1  0
  9 10  1  0
 10 11  2  0
 11 12  1  0
 12 13  1  0
 13 14  2  0
 14 15  1  0
 15 16  2  0
 16 17  1  0
 16 18  1  0
 18 19  2  0
 12 20  2  0
 20 21  1  0
 21 10  1  0
 19 13  1  0
  1 22  1  0
  1 23  1  0
  1 24  1  0
  2 25  1  0
  2 26  1  0
  3 27  1  0
  3 28  1  0
  8 29  1  0
  8 30  1  0
  8 31  1  0
  9 32  1  0
  9 33  1  0
 11 34  1  0
 14 35  1  0
 15 36  1  0
 18 37  1  0
 19 38  1  0
M  CHG  1  11   1
M  END
>  <UniqueID>  (31) 
28

>  <SMILES>  (31) 
CCCS(=O)(=O)N(C)Cc1[nH+]c(-c2ccc(Br)cc2)no1

>  <Energy>  (31) 
64.84896438193616

>  <Genealogy>  (31) 
CCCS(=O)(=O)N(C)Cc1[nH+]c(-c2ccc(Br)cc2)no1 (protonated)
CCCS(=O)(=O)N(C)Cc1[nH+]c(-c2ccc(Br)cc2)no1 (3D coordinates assigned)
CCCS(=O)(=O)N(C)Cc1[nH+]c(-c2ccc(Br)cc2)no1 (optimized conformer: 64.84896438193616 kcal/mol)

>  <smiles>  (31) 
CCCS(=O)(=O)N(C)Cc1nc(-c2ccc(Br)cc2)no1

>  <score_type>  (31) 
oracle

>  <origin>  (31) 
adg

>  <m_score__min__energy>  (31) 
-6.4299999999999997

>  <m_primary>  (31) 
energy

$$$$
31:0
     RDKit          3D

 66 70  0  0  0  0  0  0  0  0999 V2000
   58.4830   21.6660   43.8140 C   0  0  0  0  0  0  0  0  0  0  0  0
   57.5390   22.1770   44.7510 O   0  0  0  0  0  0  0  0  0  0  0  0
   57.5560   23.4800   45.2720 C   0  0  0  0  0  0  0  0  0  0  0  0
   57.6600   24.6120   44.4450 C   0  0  0  0  0  0  0  0  0  0  0  0
   57.6720   25.9030   44.9940 C   0  0  0  0  0  0  0  0  0  0  0  0
   57.5670   26.0660   46.3930 C   0  0  0  0  0  0  0  0  0  0  0  0
   57.4620   24.9340   47.2150 C   0  0  0  0  0  0  0  0  0  0  0  0
   57.4640   23.6420   46.6610 C   0  0  0  0  0  0  0  0  0  0  0  0
   57.3660   22.4910   47.4600 O   0  0  0  0  0  0  0  0  0  0  0  0
   56.3030   21.5460   47.3870 C   0  0  0  0  0  0  0  0  0  0  0  0
   57.4340   27.4460   46.9910 C   0  0  0  0  0  0  0  0  0  0  0  0
   58.7120   28.2130   46.7900 C   0  0  0  0  0  0  0  0  0  0  0  0
   59.4980   28.3770   47.7620 O   0  0  0  0  0  0  0  0  0  0  0  0
   59.0360   28.7780   45.5060 N   0  0  0  0  0  0  0  0  0  0  0  0
   59.3160   30.2150   45.4040 C   0  0  0  0  0  0  0  0  0  0  0  0
   58.4760   30.8440   44.2850 C   0  0  0  0  0  0  0  0  0  0  0  0
   57.2770   31.6210   44.8420 C   0  0  0  0  0  0  0  0  0  0  0  0
   57.3780   33.0580   44.4970 N   0  0  0  0  0  0  0  0  0  0  0  0
   58.7110   33.4160   43.9390 C   0  0  0  0  0  0  0  0  0  0  0  0
   59.5860   34.2800   44.8710 C   0  0  0  0  0  0  0  0  0  0  0  0
   59.3510   33.9410   46.2810 N   0  0  0  0  0  0  0  0  0  0  0  0
   60.4460   33.8630   47.2130 C   0  0  0  0  0  0  0  0  0  0  0  0
   61.7060   33.5080   46.8520 N   0  0  0  0  0  0  0  0  0  0  0  0
   62.5360   33.5060   47.9260 C   0  0  0  0  0  0  0  0  0  0  0  0
   63.8920   33.1710   47.8750 C   0  0  0  0  0  0  0  0  0  0  0  0
   64.6380   33.1910   49.0660 C   0  0  0  0  0  0  0  0  0  0  0  0
   64.0290   33.5460   50.2860 C   0  0  0  0  0  0  0  0  0  0  0  0
   62.6660   33.8840   50.3250 C   0  0  0  0  0  0  0  0  0  0  0  0
   61.9480   33.8540   49.1320 C   0  0  0  0  0  0  0  0  0  0  0  0
   60.3230   34.1820   48.8780 S   0  0  0  0  0  0  0  0  0  0  0  0
   57.9730   33.8500   46.7750 C   0  0  0  0  0  0  0  0  0  0  0  0
   56.9670   33.9270   45.6180 C   0  0  0  0  0  0  0  0  0  0  0  0
   59.0460   27.9460   44.2890 C   0  0  0  0  0  0  0  0  0  0  0  0
   57.7640   27.1100   44.0860 C   0  0  0  0  0  0  0  0  0  0  0  0
   59.3257   21.2098   44.3542 H   0  0  0  0  0  0  0  0  0  0  0  0
   57.9985   20.9070   43.1822 H   0  0  0  0  0  0  0  0  0  0  0  0
   58.8536   22.4867   43.1822 H   0  0  0  0  0  0  0  0  0  0  0  0
   57.7328   24.4841   43.3549 H   0  0  0  0  0  0  0  0  0  0  0  0
   57.3772   25.0587   48.3046 H   0  0  0  0  0  0  0  0  0  0  0  0
   55.9896   21.2674   48.4039 H   0  0  0  0  0  0  0  0  0  0  0  0
   55.4525   21.9916   46.8503 H   0  0  0  0  0  0  0  0  0  0  0  0
   56.6459   20.6491   46.8503 H   0  0  0  0  0  0  0  0  0  0  0  0
   56.6069   27.9790   46.4993 H   0  0  0  0  0  0  0  0  0  0  0  0
   57.2290   27.3572   48.0681 H   0  0  0  0  0  0  0  0  0  0  0  0
   59.0697   30.7012   46.3595 H   0  0  0  0  0  0  0  0  0  0  0  0
   60.3822   30.3558   45.1728 H   0  0  0  0  0  0  0  0  0  0  0  0
   59.1102   31.5332   43.7081 H   0  0  0  0  0  0  0  0  0  0  0  0
   58.0924   30.0333   43.6481 H   0  0  0  0  0  0  0  0  0  0  0  0
   56.3505   31.2111   44.4135 H   0  0  0  0  0  0  0  0  0  0  0  0
   57.2683   31.5201   45.9373 H   0  0  0  0  0  0  0  0  0  0  0  0
   59.2547   32.4842   43.7243 H   0  0  0  0  0  0  0  0  0  0  0  0
   58.5207   34.0211   43.0403 H   0  0  0  0  0  0  0  0  0  0  0  0
   60.6456   34.1069   44.6316 H   0  0  0  0  0  0  0  0  0  0  0  0
   59.3227   35.3369   44.7171 H   0  0  0  0  0  0  0  0  0  0  0  0
   64.3662   32.8970   46.9211 H   0  0  0  0  0  0  0  0  0  0  0  0
   65.7058   32.9274   49.0455 H   0  0  0  0  0  0  0  0  0  0  0  0
   64.6232   33.5585   51.2116 H   0  0  0  0  0  0  0  0  0  0  0  0
   62.1796   34.1644   51.2710 H   0  0  0  0  0  0  0  0  0  0  0  0
   57.8424   32.8934   47.3021 H   0  0  0  0  0  0  0  0  0  0  0  0
   57.7887   34.6939   47.4561 H   0  0  0  0  0  0  0  0  0  0  0  0
   55.9791   33.6046   45.9789 H   0  0  0  0  0  0  0  0  0  0  0  0
   56.9273   34.9658   45.2583 H   0  0  0  0  0  0  0  0  0  0  0  0
   59.1680   28.6080   43.4190 H   0  0  0  0  0  0  0  0  0  0  0  0
   59.8757   27.2323   44.3997 H   0  0  0  0  0  0  0  0  0  0  0  0
   56.8946   27.7559   44.2785 H   0  0  0  0  0  0  0  0  0  0  0  0
   57.7877   26.7328   43.0530 H   0  0  0  0  0  0  0  0  0  0  0  0
  1  2  1  0
  2  3  1  0
  3  4  2  0
  4  5  1  0
  5  6  2  0
  6  7  1  0
  7  8  2  0
  8  9  1  0
  9 10  1  0
  6 11  1  0
 11 12  1  0
 12 13  2  0
 12 14  1  0
 14 15  1  0
 15 16  1  0
 16 17  1  0
 17 18  1  0
 18 19  1  0
 19 20  1  0
 20 21  1  0
 21 22  1  0
 22 23  2  0
 23 24  1  0
 24 25  2  0
 25 26  1  0
 26 27  2  0
 27 28  1  0
 28 29  2  0
 29 30  1  0
 21 31  1  0
 31 32  1  0
 14 33  1  0
 33 34  1  0
  8  3  1  0
 32 18  1  0
 34  5  1  0
 30 22  1  0
 29 24  1  0
  1 35  1  0
  1 36  1  0
  1 37  1  0
  4 38  1  0
  7 39  1  0
 10 40  1  0
 10 41  1  0
 10 42  1  0
 11 43  1  0
 11 44  1  0
 15 45  1  0
 15 46  1  0
 16 47  1  0
 16 48  1  0
 17 49  1  0
 17 50  1  0
 19 51  1  0
 19 52  1  0
 20 53  1  0
 20 54  1  0
 25 55  1  0
 26 56  1  0
 27 57  1  0
 28 58  1  0
 31 59  1  0
 31 60  1  0
 32 61  1  0
 32 62  1  0
 33 63  1  0
 33 64  1  0
 34 65  1  0
 34 66  1  0
M  END
>  <UniqueID>  (32) 
29

>  <SMILES>  (32) 
COc1cc2c(cc1OC)CC(=O)N(CCCN1CCN(c3nc4ccccc4s3)CC1)CC2

>  <Energy>  (32) 
114.93073227144333

>  <Genealogy>  (32) 
COc1cc2c(cc1OC)CC(=O)N(CCCN1CCN(c3nc4ccccc4s3)CC1)CC2 (3D coordinates assigned)
COc1cc2c(cc1OC)CC(=O)N(CCCN1CCN(c3nc4ccccc4s3)CC1)CC2 (nonaromatic ring conformer: 114.93073227144333 kcal/mol)

>  <smiles>  (32) 
COc1cc2c(cc1OC)CC(=O)N(CCCN1CCN(c3nc4ccccc4s3)CC1)CC2

>  <score_type>  (32) 
oracle

>  <origin>  (32) 
adg

>  <m_score__min__energy>  (32) 
-7.8399999999999999

>  <m_primary>  (32) 
energy

$$$$
32:0
     RDKit          3D

 45 47  0  0  0  0  0  0  0  0999 V2000
   61.2580   33.8110   47.8550 C   0  0  0  0  0  0  0  0  0  0  0  0
   60.6330   34.0550   46.4780 C   0  0  0  0  0  0  0  0  0  0  0  0
   59.1540   34.0910   46.4900 N   0  0  0  0  0  0  0  0  0  0  0  0
   58.5240   34.6310   45.2610 C   0  0  0  0  0  0  0  0  0  0  0  0
   57.6960   33.5850   44.5010 C   0  0  0  0  0  0  0  0  0  0  0  0
   58.3120   32.2630   44.6700 N   0  0  0  0  0  0  0  0  0  0  0  0
   57.8440   31.2680   43.6810 C   0  0  0  0  0  0  0  0  0  0  0  0
   57.1160   30.1010   44.2960 C   0  0  0  0  0  0  0  0  0  0  0  0
   55.7510   29.9570   44.4050 C   0  0  0  0  0  0  0  0  0  0  0  0
   55.5250   28.8190   45.0120 O   0  0  0  0  0  0  0  0  0  0  0  0
   56.6960   28.2740   45.2710 C   0  0  0  0  0  0  0  0  0  0  0  0
   56.8590   26.9760   45.9570 C   0  0  0  0  0  0  0  0  0  0  0  0
   55.8920   25.9670   45.8190 C   0  0  0  0  0  0  0  0  0  0  0  0
   56.0520   24.7400   46.4690 C   0  0  0  0  0  0  0  0  0  0  0  0
   57.1860   24.5010   47.2680 C   0  0  0  0  0  0  0  0  0  0  0  0
   57.3930   23.2870   47.9390 O   0  0  0  0  0  0  0  0  0  0  0  0
   56.3600   22.5220   48.5540 C   0  0  0  0  0  0  0  0  0  0  0  0
   58.1490   25.5080   47.4020 C   0  0  0  0  0  0  0  0  0  0  0  0
   57.9900   26.7350   46.7530 C   0  0  0  0  0  0  0  0  0  0  0  0
   57.7270   29.0340   44.8450 N   0  0  0  0  0  0  0  0  0  0  0  0
   58.1850   31.7920   46.0610 C   0  0  0  0  0  0  0  0  0  0  0  0
   58.4960   32.9080   47.0850 C   0  0  0  0  0  0  0  0  0  0  0  0
   60.5391   34.0916   48.6389 H   0  0  0  0  0  0  0  0  0  0  0  0
   61.5152   32.7464   47.9575 H   0  0  0  0  0  0  0  0  0  0  0  0
   62.1685   34.4197   47.9575 H   0  0  0  0  0  0  0  0  0  0  0  0
   61.0000   35.0193   46.0968 H   0  0  0  0  0  0  0  0  0  0  0  0
   60.9271   33.2094   45.8389 H   0  0  0  0  0  0  0  0  0  0  0  0
   57.8629   35.4637   45.5430 H   0  0  0  0  0  0  0  0  0  0  0  0
   59.3343   34.9577   44.5926 H   0  0  0  0  0  0  0  0  0  0  0  0
   56.6712   33.5667   44.9002 H   0  0  0  0  0  0  0  0  0  0  0  0
   57.6661   33.8439   43.4323 H   0  0  0  0  0  0  0  0  0  0  0  0
   57.1637   31.7705   42.9777 H   0  0  0  0  0  0  0  0  0  0  0  0
   58.7377   30.8639   43.1830 H   0  0  0  0  0  0  0  0  0  0  0  0
   54.9905   30.6671   44.0480 H   0  0  0  0  0  0  0  0  0  0  0  0
   55.0031   26.1434   45.1955 H   0  0  0  0  0  0  0  0  0  0  0  0
   55.2878   23.9570   46.3556 H   0  0  0  0  0  0  0  0  0  0  0  0
   56.4539   22.5915   49.6478 H   0  0  0  0  0  0  0  0  0  0  0  0
   55.3798   22.9137   48.2445 H   0  0  0  0  0  0  0  0  0  0  0  0
   56.4489   21.4702   48.2445 H   0  0  0  0  0  0  0  0  0  0  0  0
   59.0390   25.3317   48.0239 H   0  0  0  0  0  0  0  0  0  0  0  0
   58.7555   27.5168   46.8664 H   0  0  0  0  0  0  0  0  0  0  0  0
   57.1559   31.4389   46.2231 H   0  0  0  0  0  0  0  0  0  0  0  0
   58.9139   30.9821   46.2117 H   0  0  0  0  0  0  0  0  0  0  0  0
   57.5506   33.2308   47.5454 H   0  0  0  0  0  0  0  0  0  0  0  0
   59.1965   32.4851   47.8202 H   0  0  0  0  0  0  0  0  0  0  0  0
  1  2  1  0
  2  3  1  0
  3  4  1  0
  4  5  1  0
  5  6  1  0
  6  7  1  0
  7  8  1  0
  8  9  2  0
  9 10  1  0
 10 11  1  0
 11 12  1  0
 12 13  2  0
 13 14  1  0
 14 15  2  0
 15 16  1  0
 16 17  1  0
 15 18  1  0
 18 19  2  0
 11 20  2  0
  6 21  1  0
 21 22  1  0
 22  3  1  0
 20  8  1  0
 19 12  1  0
  1 23  1  0
  1 24  1  0
  1 25  1  0
  2 26  1  0
  2 27  1  0
  4 28  1  0
  4 29  1  0
  5 30  1  0
  5 31  1  0
  7 32  1  0
  7 33  1  0
  9 34  1  0
 13 35  1  0
 14 36  1  0
 17 37  1  0
 17 38  1  0
 17 39  1  0
 18 40  1  0
 19 41  1  0
 21 42  1  0
 21 43  1  0
 22 44  1  0
 22 45  1  0
M  END
>  <UniqueID>  (33) 
30

>  <SMILES>  (33) 
CCN1CCN(Cc2coc(-c3ccc(OC)cc3)n2)CC1

>  <Energy>  (33) 
89.63572685373656

>  <Genealogy>  (33) 
CCN1CCN(Cc2coc(-c3ccc(OC)cc3)n2)CC1 (3D coordinates assigned)
CCN1CCN(Cc2coc(-c3ccc(OC)cc3)n2)CC1 (nonaromatic ring conformer: 89.63572685373656 kcal/mol)

>  <smiles>  (33) 
CCN1CCN(Cc2coc(-c3ccc(OC)cc3)n2)CC1

>  <score_type>  (33) 
oracle

>  <origin>  (33) 
adg

>  <m_score__min__energy>  (33) 
-7.1299999999999999

>  <m_primary>  (33) 
energy

$$$$
33:0
     RDKit          3D

 29 31  0  0  0  0  0  0  0  0999 V2000
   60.0720   30.8940   47.7790 C   0  0  0  0  0  0  0  0  0  0  0  0
   60.7230   29.9290   46.3820 S   0  0  0  0  0  0  0  0  0  0  0  0
   59.0970   29.4230   45.8260 C   0  0  0  0  0  0  0  0  0  0  0  0
   58.7290   28.1090   45.8660 N   0  0  0  0  0  0  0  0  0  0  0  0
   57.4870   27.6910   45.4450 C   0  0  0  0  0  0  0  0  0  0  0  0
   57.1340   26.2450   45.5020 C   0  0  0  0  0  0  0  0  0  0  0  0
   58.1320   25.2770   45.2750 C   0  0  0  0  0  0  0  0  0  0  0  0
   57.8330   23.9130   45.3190 C   0  0  0  0  0  0  0  0  0  0  0  0
   56.5320   23.4830   45.6020 C   0  0  0  0  0  0  0  0  0  0  0  0
   56.2040   22.0190   45.6090 C   0  0  0  0  0  0  0  0  0  0  0  0
   55.5260   24.4340   45.8140 C   0  0  0  0  0  0  0  0  0  0  0  0
   55.8170   25.8020   45.7730 C   0  0  0  0  0  0  0  0  0  0  0  0
   54.7840   26.7030   46.0100 O   0  0  0  0  0  0  0  0  0  0  0  0
   56.5920   28.6130   44.9700 N   0  0  0  0  0  0  0  0  0  0  0  0
   56.9580   29.9160   44.9330 C   0  0  0  0  0  0  0  0  0  0  0  0
   56.2170   30.9440   44.5010 N   0  0  0  0  0  0  0  0  0  0  0  0
   57.0620   31.9950   44.6820 C   0  0  0  0  0  0  0  0  0  0  0  0
   58.2780   31.6640   45.1990 N   0  0  0  0  0  0  0  0  0  0  0  0
   58.1710   30.3360   45.3440 C   0  0  0  0  0  0  0  0  0  0  0  0
   60.3863   30.4281   48.7246 H   0  0  0  0  0  0  0  0  0  0  0  0
   60.4625   31.9211   47.7287 H   0  0  0  0  0  0  0  0  0  0  0  0
   58.9734   30.9165   47.7287 H   0  0  0  0  0  0  0  0  0  0  0  0
   59.1614   25.5997   45.0600 H   0  0  0  0  0  0  0  0  0  0  0  0
   58.6247   23.1731   45.1301 H   0  0  0  0  0  0  0  0  0  0  0  0
   56.1249   21.6659   46.6478 H   0  0  0  0  0  0  0  0  0  0  0  0
   55.2469   21.8552   45.0922 H   0  0  0  0  0  0  0  0  0  0  0  0
   56.9997   21.4625   45.0922 H   0  0  0  0  0  0  0  0  0  0  0  0
   54.4967   24.1021   46.0148 H   0  0  0  0  0  0  0  0  0  0  0  0
   56.7852   33.0296   44.4308 H   0  0  0  0  0  0  0  0  0  0  0  0
  1  2  1  0
  2  3  1  0
  3  4  2  0
  4  5  1  0
  5  6  1  0
  6  7  2  0
  7  8  1  0
  8  9  2  0
  9 10  1  0
  9 11  1  0
 11 12  2  0
 12 13  1  0
  5 14  2  0
 14 15  1  0
 15 16  1  0
 16 17  2  0
 17 18  1  0
 18 19  1  0
 19  3  1  0
 12  6  1  0
 19 15  2  0
  1 20  1  0
  1 21  1  0
  1 22  1  0
  7 23  1  0
  8 24  1  0
 10 25  1  0
 10 26  1  0
 10 27  1  0
 11 28  1  0
 17 29  1  0
M  CHG  2  13  -1  18  -1
M  END
>  <UniqueID>  (34) 
31

>  <SMILES>  (34) 
CSc1nc(-c2ccc(C)cc2[O-])nc2nc[n-]c12

>  <Energy>  (34) 
68.17199070176221

>  <Genealogy>  (34) 
CSc1nc(-c2ccc(C)cc2[O-])nc2nc[n-]c12 (protonated)
CSc1nc(-c2ccc(C)cc2[O-])nc2nc[n-]c12 (3D coordinates assigned)
CSc1nc(-c2ccc(C)cc2[O-])nc2nc[n-]c12 (optimized conformer: 68.17199070176221 kcal/mol)

>  <smiles>  (34) 
CSc1nc(-c2ccc(C)cc2O)nc2nc[nH]c12

>  <score_type>  (34) 
oracle

>  <origin>  (34) 
adg

>  <m_score__min__energy>  (34) 
-11.74

>  <m_primary>  (34) 
energy

$$$$
34:0
     RDKit          3D

 43 44  0  0  0  0  0  0  0  0999 V2000
   63.5530   33.9700   45.2780 H   0  0  0  0  0  0  0  0  0  0  0  0
   63.2530   34.2160   46.2470 N   0  0  0  0  0  0  0  0  0  0  0  0
   62.8330   33.3120   47.0730 C   0  0  0  0  0  0  0  0  0  0  0  0
   63.5810   32.2610   47.4660 N   0  0  0  0  0  0  0  0  0  0  0  0
   64.5590   32.0300   47.1820 H   0  0  0  0  0  0  0  0  0  0  0  0
   62.7860   31.5560   48.2940 C   0  0  0  0  0  0  0  0  0  0  0  0
   63.0594   30.6202   48.8034 H   0  0  0  0  0  0  0  0  0  0  0  0
   61.5700   32.2040   48.3970 C   0  0  0  0  0  0  0  0  0  0  0  0
   60.4140   31.7280   49.1810 C   0  0  0  0  0  0  0  0  0  0  0  0
   59.9970   30.4060   49.0100 C   0  0  0  0  0  0  0  0  0  0  0  0
   60.5499   29.7437   48.3276 H   0  0  0  0  0  0  0  0  0  0  0  0
   58.8890   29.9200   49.6950 C   0  0  0  0  0  0  0  0  0  0  0  0
   58.5707   28.8781   49.5427 H   0  0  0  0  0  0  0  0  0  0  0  0
   58.1700   30.7430   50.5800 C   0  0  0  0  0  0  0  0  0  0  0  0
   57.0440   30.2530   51.2610 O   0  0  0  0  0  0  0  0  0  0  0  0
   56.8730   30.2690   52.6750 C   0  0  0  0  0  0  0  0  0  0  0  0
   57.8540   30.1772   53.1640 H   0  0  0  0  0  0  0  0  0  0  0  0
   56.4001   31.2153   52.9765 H   0  0  0  0  0  0  0  0  0  0  0  0
   56.2328   29.4268   52.9765 H   0  0  0  0  0  0  0  0  0  0  0  0
   58.5990   32.0820   50.7840 C   0  0  0  0  0  0  0  0  0  0  0  0
   57.9510   32.9740   51.6620 O   0  0  0  0  0  0  0  0  0  0  0  0
   58.4520   33.4710   52.8980 C   0  0  0  0  0  0  0  0  0  0  0  0
   57.9417   32.9648   53.7306 H   0  0  0  0  0  0  0  0  0  0  0  0
   59.5333   33.2786   52.9593 H   0  0  0  0  0  0  0  0  0  0  0  0
   58.2682   34.5538   52.9593 H   0  0  0  0  0  0  0  0  0  0  0  0
   59.7290   32.5670   50.0890 C   0  0  0  0  0  0  0  0  0  0  0  0
   60.1940   33.9050   50.3350 N   0  0  0  0  0  0  0  0  0  0  0  0
   61.0870   34.2610   49.9290 H   0  0  0  0  0  0  0  0  0  0  0  0
   59.6700   34.5600   50.9560 H   0  0  0  0  0  0  0  0  0  0  0  0
   61.5980   33.3130   47.6190 N   0  0  0  0  0  0  0  0  0  0  0  0
   60.5000   34.2420   47.3220 C   0  0  0  0  0  0  0  0  0  0  0  0
   59.9760   34.4875   48.2575 H   0  0  0  0  0  0  0  0  0  0  0  0
   60.9265   35.1467   46.8643 H   0  0  0  0  0  0  0  0  0  0  0  0
   59.4930   33.6250   46.3300 C   0  0  0  0  0  0  0  0  0  0  0  0
   59.9205   32.6818   45.9590 H   0  0  0  0  0  0  0  0  0  0  0  0
   58.1580   33.2990   47.0110 C   0  0  0  0  0  0  0  0  0  0  0  0
   58.2862   33.3303   48.1031 H   0  0  0  0  0  0  0  0  0  0  0  0
   57.4021   34.0389   46.7092 H   0  0  0  0  0  0  0  0  0  0  0  0
   57.8282   32.2939   46.7092 H   0  0  0  0  0  0  0  0  0  0  0  0
   59.2640   34.5790   45.1500 C   0  0  0  0  0  0  0  0  0  0  0  0
   59.0231   35.5824   45.5311 H   0  0  0  0  0  0  0  0  0  0  0  0
   60.1757   34.6289   44.5365 H   0  0  0  0  0  0  0  0  0  0  0  0
   58.4290   34.2096   44.5365 H   0  0  0  0  0  0  0  0  0  0  0  0
  1  2  1  0
  2  3  2  0
  3  4  1  0
  4  5  1  0
  4  6  1  0
  6  7  1  0
  6  8  2  0
  8  9  1  0
  9 10  2  0
 10 11  1  0
 10 12  1  0
 12 13  1  0
 12 14  2  0
 14 15  1  0
 15 16  1  0
 16 17  1  0
 16 18  1  0
 16 19  1  0
 14 20  1  0
 20 21  1  0
 21 22  1  0
 22 23  1  0
 22 24  1  0
 22 25  1  0
 20 26  2  0
 26 27  1  0
 27 28  1  0
 27 29  1  0
  8 30  1  0
 30 31  1  0
 31 32  1  0
 31 33  1  0
 31 34  1  0
 34 35  1  0
 34 36  1  0
 36 37  1  0
 36 38  1  0
 36 39  1  0
 34 40  1  0
 40 41  1  0
 40 42  1  0
 40 43  1  0
 30  3  1  0
 26  9  1  0
M  END
>  <UniqueID>  (35) 
32

>  <SMILES>  (35) 
[H]/N=c1\[nH]cc(-c2ccc(OC)c(OC)c2N)n1CC(C)C

>  <Energy>  (35) 
76.80184614384466

>  <Genealogy>  (35) 
[H]/N=c1\[nH]cc(-c2ccc(OC)c(OC)c2N)n1CC(C)C (cis-trans isomerization)
[H]/N=c1\[nH]cc(-c2ccc(OC)c(OC)c2N)n1CC(C)C (3D coordinates assigned)
[H]/N=c1\[nH]cc(-c2ccc(OC)c(OC)c2N)n1CC(C)C (optimized conformer: 76.80184614384466 kcal/mol)

>  <smiles>  (35) 
COc1ccc(-c2c[nH]c(=N)n2CC(C)C)c(N)c1OC

>  <score_type>  (35) 
oracle

>  <origin>  (35) 
adg

>  <m_score__min__energy>  (35) 
-6.2699999999999996

>  <m_primary>  (35) 
energy

$$$$
35:0
     RDKit          3D

 61 64  0  0  0  0  0  0  0  0999 V2000
   57.0740   29.5230   52.3630 C   0  0  0  0  0  0  0  0  0  0  0  0
   57.1300   30.4110   51.2460 O   0  0  0  0  0  0  0  0  0  0  0  0
   58.2750   31.1190   50.8430 C   0  0  0  0  0  0  0  0  0  0  0  0
   58.5070   32.4470   51.2480 C   0  0  0  0  0  0  0  0  0  0  0  0
   59.6530   33.1250   50.8230 C   0  0  0  0  0  0  0  0  0  0  0  0
   60.5970   32.4830   50.0100 C   0  0  0  0  0  0  0  0  0  0  0  0
   61.8250   33.2120   49.5530 C   0  0  0  0  0  0  0  0  0  0  0  0
   60.3650   31.1620   49.5950 C   0  0  0  0  0  0  0  0  0  0  0  0
   59.1980   30.4790   49.9990 C   0  0  0  0  0  0  0  0  0  0  0  0
   58.9540   29.1140   49.6210 N   0  0  0  0  0  0  0  0  0  0  0  0
   59.6280   28.3730   48.5940 C   0  0  0  0  0  0  0  0  0  0  0  0
   60.6340   27.6670   48.8750 O   0  0  0  0  0  0  0  0  0  0  0  0
   59.1980   28.4880   47.1520 C   0  0  0  0  0  0  0  0  0  0  0  0
   60.3940   28.5940   46.1890 C   0  0  0  0  0  0  0  0  0  0  0  0
   59.8990   28.8050   44.7450 C   0  0  0  0  0  0  0  0  0  0  0  0
   58.7410   27.9510   44.3670 N   0  0  0  0  0  0  0  0  0  0  0  0
   57.3070   28.8940   44.0120 S   0  0  0  0  0  0  0  0  0  0  0  0
   56.1550   28.4500   44.8690 O   0  0  0  0  0  0  0  0  0  0  0  0
   56.9170   28.7280   42.5700 O   0  0  0  0  0  0  0  0  0  0  0  0
   57.6420   30.5990   44.3120 C   0  0  0  0  0  0  0  0  0  0  0  0
   57.5780   31.5260   43.2740 C   0  0  0  0  0  0  0  0  0  0  0  0
   57.8220   32.8750   43.5240 C   0  0  0  0  0  0  0  0  0  0  0  0
   58.1420   33.3320   44.8160 C   0  0  0  0  0  0  0  0  0  0  0  0
   58.1930   32.3900   45.8890 C   0  0  0  0  0  0  0  0  0  0  0  0
   57.9400   31.0320   45.6060 C   0  0  0  0  0  0  0  0  0  0  0  0
   58.4490   32.6970   47.3580 C   0  0  0  0  0  0  0  0  0  0  0  0
   58.7630   34.1390   47.7520 C   0  0  0  0  0  0  0  0  0  0  0  0
   59.9460   34.6990   46.9680 C   0  0  0  0  0  0  0  0  0  0  0  0
   59.4630   35.3090   45.6970 C   0  0  0  0  0  0  0  0  0  0  0  0
   60.0120   36.3590   45.2740 O   0  0  0  0  0  0  0  0  0  0  0  0
   58.3710   34.7430   44.9650 N   0  0  0  0  0  0  0  0  0  0  0  0
   58.4590   26.8450   45.3040 C   0  0  0  0  0  0  0  0  0  0  0  0
   58.2640   27.3190   46.7590 C   0  0  0  0  0  0  0  0  0  0  0  0
   57.1107   30.1046   53.2960 H   0  0  0  0  0  0  0  0  0  0  0  0
   56.1377   28.9467   52.3267 H   0  0  0  0  0  0  0  0  0  0  0  0
   57.9305   28.8337   52.3267 H   0  0  0  0  0  0  0  0  0  0  0  0
   57.7826   32.9539   51.9024 H   0  0  0  0  0  0  0  0  0  0  0  0
   59.8150   34.1692   51.1286 H   0  0  0  0  0  0  0  0  0  0  0  0
   62.3971   33.5516   50.4290 H   0  0  0  0  0  0  0  0  0  0  0  0
   62.4479   32.5373   48.9474 H   0  0  0  0  0  0  0  0  0  0  0  0
   61.5309   34.0819   48.9474 H   0  0  0  0  0  0  0  0  0  0  0  0
   61.0983   30.6556   48.9502 H   0  0  0  0  0  0  0  0  0  0  0  0
   58.6337   29.4276   47.0586 H   0  0  0  0  0  0  0  0  0  0  0  0
   61.0242   29.4457   46.4850 H   0  0  0  0  0  0  0  0  0  0  0  0
   60.9757   27.6615   46.2359 H   0  0  0  0  0  0  0  0  0  0  0  0
   59.6024   29.8582   44.6323 H   0  0  0  0  0  0  0  0  0  0  0  0
   60.7298   28.5232   44.0814 H   0  0  0  0  0  0  0  0  0  0  0  0
   57.3343   31.1922   42.2546 H   0  0  0  0  0  0  0  0  0  0  0  0
   57.7634   33.5964   42.6957 H   0  0  0  0  0  0  0  0  0  0  0  0
   57.9782   30.2967   46.4232 H   0  0  0  0  0  0  0  0  0  0  0  0
   57.5498   32.3955   47.9153 H   0  0  0  0  0  0  0  0  0  0  0  0
   59.3700   32.1441   47.5946 H   0  0  0  0  0  0  0  0  0  0  0  0
   57.8784   34.7622   47.5542 H   0  0  0  0  0  0  0  0  0  0  0  0
   59.0260   34.1507   48.8200 H   0  0  0  0  0  0  0  0  0  0  0  0
   60.4545   35.4655   47.5713 H   0  0  0  0  0  0  0  0  0  0  0  0
   60.6483   33.8844   46.7372 H   0  0  0  0  0  0  0  0  0  0  0  0
   57.9320   35.3740   44.2520 H   0  0  0  0  0  0  0  0  0  0  0  0
   57.5416   26.3340   44.9764 H   0  0  0  0  0  0  0  0  0  0  0  0
   59.3309   26.1745   45.2917 H   0  0  0  0  0  0  0  0  0  0  0  0
   57.2217   27.6483   46.8822 H   0  0  0  0  0  0  0  0  0  0  0  0
   58.5107   26.4704   47.4140 H   0  0  0  0  0  0  0  0  0  0  0  0
  1  2  1  0
  2  3  1  0
  3  4  2  0
  4  5  1  0
  5  6  2  0
  6  7  1  0
  6  8  1  0
  8  9  2  0
  9 10  1  0
 10 11  1  0
 11 12  2  0
 11 13  1  0
 13 14  1  0
 14 15  1  0
 15 16  1  0
 16 17  1  0
 17 18  2  0
 17 19  2  0
 17 20  1  0
 20 21  2  0
 21 22  1  0
 22 23  2  0
 23 24  1  0
 24 25  2  0
 24 26  1  0
 26 27  1  0
 27 28  1  0
 28 29  1  0
 29 30  2  0
 29 31  1  0
 16 32  1  0
 32 33  1  0
  9  3  1  0
 33 13  1  0
 25 20  1  0
 31 23  1  0
  1 34  1  0
  1 35  1  0
  1 36  1  0
  4 37  1  0
  5 38  1  0
  7 39  1  0
  7 40  1  0
  7 41  1  0
  8 42  1  0
 13 43  1  0
 14 44  1  0
 14 45  1  0
 15 46  1  0
 15 47  1  0
 21 48  1  0
 22 49  1  0
 25 50  1  0
 26 51  1  0
 26 52  1  0
 27 53  1  0
 27 54  1  0
 28 55  1  0
 28 56  1  0
 31 57  1  0
 32 58  1  0
 32 59  1  0
 33 60  1  0
 33 61  1  0
M  CHG  1  10  -1
M  END
>  <UniqueID>  (36) 
33

>  <SMILES>  (36) 
COc1ccc(C)cc1[N-]C(=O)C1CCN(S(=O)(=O)c2ccc3c(c2)CCCC(=O)N3)CC1

>  <Energy>  (36) 
87.19385208808038

>  <Genealogy>  (36) 
COc1ccc(C)cc1[N-]C(=O)C1CCN(S(=O)(=O)c2ccc3c(c2)CCCC(=O)N3)CC1 (protonated)
COc1ccc(C)cc1[N-]C(=O)C1CCN(S(=O)(=O)c2ccc3c(c2)CCCC(=O)N3)CC1 (3D coordinates assigned)
COc1ccc(C)cc1[N-]C(=O)C1CCN(S(=O)(=O)c2ccc3c(c2)CCCC(=O)N3)CC1 (nonaromatic ring conformer: 87.19385208808038 kcal/mol)

>  <smiles>  (36) 
COc1ccc(C)cc1NC(=O)C1CCN(S(=O)(=O)c2ccc3c(c2)CCCC(=O)N3)CC1

>  <score_type>  (36) 
oracle

>  <origin>  (36) 
adg

>  <m_score__min__energy>  (36) 
-10.039999999999999

>  <m_primary>  (36) 
energy

$$$$
36:0
     RDKit          3D

 54 56  0  0  0  0  0  0  0  0999 V2000
   56.3030   30.0160   43.2850 C   0  0  0  0  0  0  0  0  0  0  0  0
   56.4100   30.5200   44.6130 O   0  0  0  0  0  0  0  0  0  0  0  0
   57.3370   31.4920   45.0190 C   0  0  0  0  0  0  0  0  0  0  0  0
   57.4390   32.7480   44.3890 C   0  0  0  0  0  0  0  0  0  0  0  0
   58.3790   33.6830   44.8310 C   0  0  0  0  0  0  0  0  0  0  0  0
   59.2330   33.3780   45.9030 C   0  0  0  0  0  0  0  0  0  0  0  0
   60.2300   34.3910   46.4040 C   0  0  0  0  0  0  0  0  0  0  0  0
   61.3330   33.7290   47.1310 N   0  0  0  0  0  0  0  0  0  0  0  0
   62.6170   33.8960   46.4140 C   0  0  0  0  0  0  0  0  0  0  0  0
   63.7420   33.0510   47.0600 C   0  0  0  0  0  0  0  0  0  0  0  0
   64.0150   33.3970   48.5420 C   0  0  0  0  0  0  0  0  0  0  0  0
   63.1680   32.6500   49.5190 N   0  0  1  0  0  0  0  0  0  0  0  0
   63.7790   32.7130   50.8730 C   0  0  0  0  0  0  0  0  0  0  0  0
   64.8610   31.6730   51.0670 C   0  0  0  0  0  0  0  0  0  0  0  0
   66.1920   31.9710   50.7430 C   0  0  0  0  0  0  0  0  0  0  0  0
   67.1910   31.0070   50.9020 C   0  0  0  0  0  0  0  0  0  0  0  0
   66.8710   29.7250   51.3860 C   0  0  0  0  0  0  0  0  0  0  0  0
   67.8390   28.7250   51.5600 O   0  0  0  0  0  0  0  0  0  0  0  0
   68.0540   27.6450   50.6560 C   0  0  0  0  0  0  0  0  0  0  0  0
   65.5400   29.4290   51.7070 C   0  0  0  0  0  0  0  0  0  0  0  0
   65.2120   28.1980   52.1740 F   0  0  0  0  0  0  0  0  0  0  0  0
   64.5410   30.3940   51.5500 C   0  0  0  0  0  0  0  0  0  0  0  0
   61.7500   33.1000   49.5670 C   0  0  0  0  0  0  0  0  0  0  0  0
   61.4020   34.1980   48.5380 C   0  0  0  0  0  0  0  0  0  0  0  0
   59.1260   32.1300   46.5330 C   0  0  0  0  0  0  0  0  0  0  0  0
   58.1860   31.1940   46.0910 C   0  0  0  0  0  0  0  0  0  0  0  0
   56.0747   28.9405   43.3183 H   0  0  0  0  0  0  0  0  0  0  0  0
   55.4973   30.5457   42.7556 H   0  0  0  0  0  0  0  0  0  0  0  0
   57.2544   30.1726   42.7556 H   0  0  0  0  0  0  0  0  0  0  0  0
   56.7763   32.9937   43.5461 H   0  0  0  0  0  0  0  0  0  0  0  0
   58.4502   34.6630   44.3365 H   0  0  0  0  0  0  0  0  0  0  0  0
   60.6435   34.9436   45.5475 H   0  0  0  0  0  0  0  0  0  0  0  0
   59.7172   35.0784   47.0928 H   0  0  0  0  0  0  0  0  0  0  0  0
   62.4867   33.5784   45.3689 H   0  0  0  0  0  0  0  0  0  0  0  0
   62.9071   34.9557   46.4681 H   0  0  0  0  0  0  0  0  0  0  0  0
   63.4566   31.9904   46.9991 H   0  0  0  0  0  0  0  0  0  0  0  0
   64.6657   33.2730   46.5055 H   0  0  0  0  0  0  0  0  0  0  0  0
   65.0696   33.1714   48.7588 H   0  0  0  0  0  0  0  0  0  0  0  0
   63.7686   34.4620   48.6649 H   0  0  0  0  0  0  0  0  0  0  0  0
   63.1710   31.6460   49.2170 H   0  0  0  0  0  0  0  0  0  0  0  0
   64.2188   33.7111   51.0159 H   0  0  0  0  0  0  0  0  0  0  0  0
   62.9858   32.5127   51.6084 H   0  0  0  0  0  0  0  0  0  0  0  0
   66.4515   32.9695   50.3614 H   0  0  0  0  0  0  0  0  0  0  0  0
   68.2329   31.2515   50.6475 H   0  0  0  0  0  0  0  0  0  0  0  0
   68.2378   26.7217   51.2249 H   0  0  0  0  0  0  0  0  0  0  0  0
   67.1642   27.5144   50.0226 H   0  0  0  0  0  0  0  0  0  0  0  0
   68.9260   27.8651   50.0226 H   0  0  0  0  0  0  0  0  0  0  0  0
   63.4993   30.1503   51.8060 H   0  0  0  0  0  0  0  0  0  0  0  0
   61.1047   32.2300   49.3754 H   0  0  0  0  0  0  0  0  0  0  0  0
   61.5892   33.5367   50.5637 H   0  0  0  0  0  0  0  0  0  0  0  0
   60.4230   34.6216   48.8065 H   0  0  0  0  0  0  0  0  0  0  0  0
   62.2181   34.9343   48.5808 H   0  0  0  0  0  0  0  0  0  0  0  0
   59.7849   31.8860   47.3793 H   0  0  0  0  0  0  0  0  0  0  0  0
   58.1132   30.2162   46.5895 H   0  0  0  0  0  0  0  0  0  0  0  0
  1  2  1  0
  2  3  1  0
  3  4  2  0
  4  5  1  0
  5  6  2  0
  6  7  1  0
  7  8  1  0
  8  9  1  0
  9 10  1  0
 10 11  1  0
 11 12  1  0
 12 13  1  0
 13 14  1  0
 14 15  2  0
 15 16  1  0
 16 17  2  0
 17 18  1  0
 18 19  1  0
 17 20  1  0
 20 21  1  0
 20 22  2  0
 12 23  1  0
 23 24  1  0
  6 25  1  0
 25 26  2  0
 26  3  1  0
 24  8  1  0
 22 14  1  0
  1 27  1  0
  1 28  1  0
  1 29  1  0
  4 30  1  0
  5 31  1  0
  7 32  1  0
  7 33  1  0
  9 34  1  0
  9 35  1  0
 10 36  1  0
 10 37  1  0
 11 38  1  0
 11 39  1  0
 12 40  1  6
 13 41  1  0
 13 42  1  0
 15 43  1  0
 16 44  1  0
 19 45  1  0
 19 46  1  0
 19 47  1  0
 22 48  1  0
 23 49  1  0
 23 50  1  0
 24 51  1  0
 24 52  1  0
 25 53  1  0
 26 54  1  0
M  CHG  1  12   1
M  END
>  <UniqueID>  (37) 
34

>  <SMILES>  (37) 
COc1ccc(CN2CCC[N@@H+](Cc3ccc(OC)c(F)c3)CC2)cc1

>  <Energy>  (37) 
72.24843634201297

>  <Genealogy>  (37) 
COc1ccc(CN2CCC[NH+](Cc3ccc(OC)c(F)c3)CC2)cc1 (protonated)
COc1ccc(CN2CCC[N@@H+](Cc3ccc(OC)c(F)c3)CC2)cc1 (chirality)
COc1ccc(CN2CCC[N@@H+](Cc3ccc(OC)c(F)c3)CC2)cc1 (3D coordinates assigned)
COc1ccc(CN2CCC[N@@H+](Cc3ccc(OC)c(F)c3)CC2)cc1 (nonaromatic ring conformer: 72.24843634201297 kcal/mol)

>  <smiles>  (37) 
COc1ccc(CN2CCCN(Cc3ccc(OC)c(F)c3)CC2)cc1

>  <score_type>  (37) 
oracle

>  <origin>  (37) 
adg

>  <m_score__min__energy>  (37) 
-3.9500000000000002

>  <m_primary>  (37) 
energy

$$$$
37:0
     RDKit          3D

 55 57  0  0  0  0  0  0  0  0999 V2000
   58.9480   29.4210   48.7050 C   0  0  0  0  0  0  0  0  0  0  0  0
   59.1680   30.2480   49.9810 C   0  0  0  0  0  0  0  0  0  0  0  0
   58.2310   31.3870   50.1250 N   0  0  0  0  0  0  0  0  0  0  0  0
   58.0530   31.8160   51.5290 C   0  0  0  0  0  0  0  0  0  0  0  0
   56.6300   31.5290   52.0020 C   0  0  0  0  0  0  0  0  0  0  0  0
   58.5310   32.5040   49.1980 C   0  0  0  0  0  0  0  0  0  0  0  0
   59.4190   33.5290   49.9090 C   0  0  0  0  0  0  0  0  0  0  0  0
   60.0130   34.5640   48.9230 C   0  0  0  0  0  0  0  0  0  0  0  0
   59.0720   34.9490   47.8560 N   0  0  0  0  0  0  0  0  0  0  0  0
   59.5620   34.6270   46.5060 C   0  0  0  0  0  0  0  0  0  0  0  0
   59.3130   33.1750   46.1500 C   0  0  0  0  0  0  0  0  0  0  0  0
   58.1240   32.8330   45.4870 C   0  0  0  0  0  0  0  0  0  0  0  0
   57.8960   31.5150   45.0780 C   0  0  0  0  0  0  0  0  0  0  0  0
   56.7220   31.1550   44.3980 C   0  0  0  0  0  0  0  0  0  0  0  0
   56.5270   29.8300   43.9940 C   0  0  0  0  0  0  0  0  0  0  0  0
   57.4990   28.8620   44.2640 C   0  0  0  0  0  0  0  0  0  0  0  0
   58.6710   29.2130   44.9400 C   0  0  0  0  0  0  0  0  0  0  0  0
   58.8740   30.5360   45.3490 C   0  0  0  0  0  0  0  0  0  0  0  0
   60.0090   30.8800   46.0100 N   0  0  0  0  0  0  0  0  0  0  0  0
   60.2530   32.1520   46.4300 C   0  0  0  0  0  0  0  0  0  0  0  0
   61.5190   32.4130   47.1410 C   0  0  0  0  0  0  0  0  0  0  0  0
   61.8460   31.6620   48.2800 C   0  0  0  0  0  0  0  0  0  0  0  0
   63.0420   31.9060   48.9650 C   0  0  0  0  0  0  0  0  0  0  0  0
   63.9090   32.9090   48.5230 C   0  0  0  0  0  0  0  0  0  0  0  0
   63.5800   33.6740   47.4000 C   0  0  0  0  0  0  0  0  0  0  0  0
   62.3870   33.4320   46.7130 C   0  0  0  0  0  0  0  0  0  0  0  0
   58.6741   28.3913   48.9781 H   0  0  0  0  0  0  0  0  0  0  0  0
   58.1383   29.8707   48.1117 H   0  0  0  0  0  0  0  0  0  0  0  0
   59.8742   29.4089   48.1117 H   0  0  0  0  0  0  0  0  0  0  0  0
   59.0437   29.5848   50.8497 H   0  0  0  0  0  0  0  0  0  0  0  0
   60.1807   30.6727   49.9167 H   0  0  0  0  0  0  0  0  0  0  0  0
   58.7632   31.2694   52.1669 H   0  0  0  0  0  0  0  0  0  0  0  0
   58.2373   32.8984   51.5953 H   0  0  0  0  0  0  0  0  0  0  0  0
   56.6032   31.5236   53.1017 H   0  0  0  0  0  0  0  0  0  0  0  0
   55.9532   32.3087   51.6226 H   0  0  0  0  0  0  0  0  0  0  0  0
   56.3083   30.5479   51.6226 H   0  0  0  0  0  0  0  0  0  0  0  0
   59.0553   32.1155   48.3124 H   0  0  0  0  0  0  0  0  0  0  0  0
   57.5923   32.9846   48.8851 H   0  0  0  0  0  0  0  0  0  0  0  0
   58.8167   34.0598   50.6610 H   0  0  0  0  0  0  0  0  0  0  0  0
   60.2541   32.9880   50.3780 H   0  0  0  0  0  0  0  0  0  0  0  0
   60.2912   35.4663   49.4874 H   0  0  0  0  0  0  0  0  0  0  0  0
   60.8841   34.0965   48.4406 H   0  0  0  0  0  0  0  0  0  0  0  0
   58.8880   35.9780   47.9130 H   0  0  0  0  0  0  0  0  0  0  0  0
   59.0434   35.2667   45.7767 H   0  0  0  0  0  0  0  0  0  0  0  0
   60.6475   34.8038   46.4843 H   0  0  0  0  0  0  0  0  0  0  0  0
   57.3671   33.6060   45.2879 H   0  0  0  0  0  0  0  0  0  0  0  0
   55.9558   31.9144   44.1829 H   0  0  0  0  0  0  0  0  0  0  0  0
   55.6060   29.5488   43.4622 H   0  0  0  0  0  0  0  0  0  0  0  0
   57.3410   27.8216   43.9436 H   0  0  0  0  0  0  0  0  0  0  0  0
   59.4340   28.4492   45.1506 H   0  0  0  0  0  0  0  0  0  0  0  0
   61.1603   30.8789   48.6358 H   0  0  0  0  0  0  0  0  0  0  0  0
   63.2996   31.3080   49.8516 H   0  0  0  0  0  0  0  0  0  0  0  0
   64.8510   33.0967   49.0591 H   0  0  0  0  0  0  0  0  0  0  0  0
   64.2606   34.4671   47.0568 H   0  0  0  0  0  0  0  0  0  0  0  0
   62.1268   34.0410   45.8347 H   0  0  0  0  0  0  0  0  0  0  0  0
  1  2  1  0
  2  3  1  0
  3  4  1  0
  4  5  1  0
  3  6  1  0
  6  7  1  0
  7  8  1  0
  8  9  1  0
  9 10  1  0
 10 11  1  0
 11 12  2  0
 12 13  1  0
 13 14  2  0
 14 15  1  0
 15 16  2  0
 16 17  1  0
 17 18  2  0
 18 19  1  0
 19 20  2  0
 20 21  1  0
 21 22  2  0
 22 23  1  0
 23 24  2  0
 24 25  1  0
 25 26  2  0
 20 11  1  0
 26 21  1  0
 18 13  1  0
  1 27  1  0
  1 28  1  0
  1 29  1  0
  2 30  1  0
  2 31  1  0
  4 32  1  0
  4 33  1  0
  5 34  1  0
  5 35  1  0
  5 36  1  0
  6 37  1  0
  6 38  1  0
  7 39  1  0
  7 40  1  0
  8 41  1  0
  8 42  1  0
  9 43  1  0
 10 44  1  0
 10 45  1  0
 12 46  1  0
 14 47  1  0
 15 48  1  0
 16 49  1  0
 17 50  1  0
 22 51  1  0
 23 52  1  0
 24 53  1  0
 25 54  1  0
 26 55  1  0
M  END
>  <UniqueID>  (38) 
35

>  <SMILES>  (38) 
CCN(CC)CCCNCc1cc2ccccc2nc1-c1ccccc1

>  <Energy>  (38) 
67.59572022683193

>  <Genealogy>  (38) 
CCN(CC)CCCNCc1cc2ccccc2nc1-c1ccccc1 (3D coordinates assigned)
CCN(CC)CCCNCc1cc2ccccc2nc1-c1ccccc1 (optimized conformer: 67.59572022683193 kcal/mol)

>  <smiles>  (38) 
CCN(CC)CCCNCc1cc2ccccc2nc1-c1ccccc1

>  <score_type>  (38) 
oracle

>  <origin>  (38) 
adg

>  <m_score__min__energy>  (38) 
-7.5

>  <m_primary>  (38) 
energy

$$$$
38:0
     RDKit          3D

 59 63  0  0  0  0  0  0  0  0999 V2000
   59.6150   24.4200   45.9930 C   0  0  0  0  0  0  0  0  0  0  0  0
   60.0640   25.7360   46.3240 O   0  0  0  0  0  0  0  0  0  0  0  0
   59.4180   26.9180   45.9310 C   0  0  0  0  0  0  0  0  0  0  0  0
   60.1270   28.0830   45.5720 C   0  0  0  0  0  0  0  0  0  0  0  0
   59.4370   29.2370   45.1890 C   0  0  0  0  0  0  0  0  0  0  0  0
   58.0300   29.2480   45.1700 C   0  0  0  0  0  0  0  0  0  0  0  0
   57.1470   30.7110   44.7280 S   0  0  0  0  0  0  0  0  0  0  0  0
   55.7090   30.3530   44.4790 O   0  0  0  0  0  0  0  0  0  0  0  0
   57.7050   31.3110   43.4660 O   0  0  0  0  0  0  0  0  0  0  0  0
   57.2170   31.8540   46.0320 N   0  0  0  0  0  0  0  0  0  0  0  0
   58.2550   32.8250   46.2310 C   0  0  0  0  0  0  0  0  0  0  0  0
   59.4460   32.5080   46.9020 C   0  0  0  0  0  0  0  0  0  0  0  0
   60.4360   33.4840   47.0970 C   0  0  0  0  0  0  0  0  0  0  0  0
   61.7090   33.1420   47.7840 C   0  0  0  0  0  0  0  0  0  0  0  0
   62.9410   33.4130   47.1650 C   0  0  0  0  0  0  0  0  0  0  0  0
   64.1450   33.1020   47.8050 C   0  0  0  0  0  0  0  0  0  0  0  0
   64.1360   32.5070   49.0740 C   0  0  0  0  0  0  0  0  0  0  0  0
   65.3090   32.1990   49.7010 N   0  0  0  0  0  0  0  0  0  0  0  0
   65.3070   31.6160   50.9280 C   0  0  0  0  0  0  0  0  0  0  0  0
   64.1320   31.3290   51.5480 N   0  0  0  0  0  0  0  0  0  0  0  0
   62.9320   31.6160   50.9700 C   0  0  0  0  0  0  0  0  0  0  0  0
   61.7350   31.3060   51.6320 O   0  0  0  0  0  0  0  0  0  0  0  0
   60.8820   30.2230   51.2540 C   0  0  0  0  0  0  0  0  0  0  0  0
   59.5430   30.7940   50.7660 C   0  0  0  0  0  0  0  0  0  0  0  0
   58.7900   29.7530   49.9150 C   0  0  0  0  0  0  0  0  0  0  0  0
   59.5210   29.1970   48.8210 O   0  0  0  0  0  0  0  0  0  0  0  0
   60.8940   29.5470   48.7990 C   0  0  0  0  0  0  0  0  0  0  0  0
   61.5590   29.3540   50.1690 C   0  0  0  0  0  0  0  0  0  0  0  0
   62.9060   32.2220   49.7040 C   0  0  0  0  0  0  0  0  0  0  0  0
   61.6990   32.5450   49.0580 C   0  0  0  0  0  0  0  0  0  0  0  0
   60.2010   34.7790   46.6140 C   0  0  0  0  0  0  0  0  0  0  0  0
   59.0550   35.0630   45.9450 N   0  0  0  0  0  0  0  0  0  0  0  0
   58.0900   34.1270   45.7360 C   0  0  0  0  0  0  0  0  0  0  0  0
   56.6440   34.5850   44.8590 Cl  0  0  0  0  0  0  0  0  0  0  0  0
   57.3250   28.0910   45.5290 C   0  0  0  0  0  0  0  0  0  0  0  0
   58.0140   26.9330   45.9000 C   0  0  0  0  0  0  0  0  0  0  0  0
   59.4223   23.8551   46.9170 H   0  0  0  0  0  0  0  0  0  0  0  0
   58.6886   24.4861   45.4036 H   0  0  0  0  0  0  0  0  0  0  0  0
   60.3886   23.9060   45.4036 H   0  0  0  0  0  0  0  0  0  0  0  0
   61.2268   28.0837   45.5934 H   0  0  0  0  0  0  0  0  0  0  0  0
   59.9960   30.1397   44.9015 H   0  0  0  0  0  0  0  0  0  0  0  0
   59.6051   31.4866   47.2782 H   0  0  0  0  0  0  0  0  0  0  0  0
   62.9587   33.8746   46.1667 H   0  0  0  0  0  0  0  0  0  0  0  0
   65.1021   33.3251   47.3109 H   0  0  0  0  0  0  0  0  0  0  0  0
   66.2270   32.4020   49.2420 H   0  0  0  0  0  0  0  0  0  0  0  0
   66.2600   31.3752   51.4217 H   0  0  0  0  0  0  0  0  0  0  0  0
   60.6956   29.5717   52.1206 H   0  0  0  0  0  0  0  0  0  0  0  0
   58.9264   31.0647   51.6358 H   0  0  0  0  0  0  0  0  0  0  0  0
   59.7393   31.6830   50.1487 H   0  0  0  0  0  0  0  0  0  0  0  0
   58.4937   28.9264   50.5775 H   0  0  0  0  0  0  0  0  0  0  0  0
   57.9432   30.2919   49.4649 H   0  0  0  0  0  0  0  0  0  0  0  0
   61.4099   28.9145   48.0616 H   0  0  0  0  0  0  0  0  0  0  0  0
   60.9689   30.6115   48.5321 H   0  0  0  0  0  0  0  0  0  0  0  0
   61.4810   28.2956   50.4584 H   0  0  0  0  0  0  0  0  0  0  0  0
   62.6122   29.6608   50.0881 H   0  0  0  0  0  0  0  0  0  0  0  0
   60.7403   32.3293   49.5524 H   0  0  0  0  0  0  0  0  0  0  0  0
   60.9491   35.5686   46.7781 H   0  0  0  0  0  0  0  0  0  0  0  0
   56.2251   28.0944   45.5187 H   0  0  0  0  0  0  0  0  0  0  0  0
   57.4524   26.0265   46.1698 H   0  0  0  0  0  0  0  0  0  0  0  0
  1  2  1  0
  2  3  1  0
  3  4  2  0
  4  5  1  0
  5  6  2  0
  6  7  1  0
  7  8  2  0
  7  9  2  0
  7 10  1  0
 10 11  1  0
 11 12  2  0
 12 13  1  0
 13 14  1  0
 14 15  2  0
 15 16  1  0
 16 17  2  0
 17 18  1  0
 18 19  2  0
 19 20  1  0
 20 21  2  0
 21 22  1  0
 22 23  1  0
 23 24  1  0
 24 25  1  0
 25 26  1  0
 26 27  1  0
 27 28  1  0
 21 29  1  0
 29 30  2  0
 13 31  2  0
 31 32  1  0
 32 33  2  0
 33 34  1  0
  6 35  1  0
 35 36  2  0
 36  3  1  0
 33 11  1  0
 30 14  1  0
 29 17  1  0
 28 23  1  0
  1 37  1  0
  1 38  1  0
  1 39  1  0
  4 40  1  0
  5 41  1  0
 12 42  1  0
 15 43  1  0
 16 44  1  0
 18 45  1  0
 19 46  1  0
 23 47  1  0
 24 48  1  0
 24 49  1  0
 25 50  1  0
 25 51  1  0
 27 52  1  0
 27 53  1  0
 28 54  1  0
 28 55  1  0
 30 56  1  0
 31 57  1  0
 35 58  1  0
 36 59  1  0
M  CHG  2  10  -1  18   1
M  END
>  <UniqueID>  (39) 
36

>  <SMILES>  (39) 
COc1ccc(S(=O)(=O)[N-]c2cc(-c3ccc4[nH+]cnc(OC5CCOCC5)c4c3)cnc2Cl)cc1

>  <Energy>  (39) 
86.793244468837

>  <Genealogy>  (39) 
COc1ccc(S(=O)(=O)[N-]c2cc(-c3ccc4[nH+]cnc(OC5CCOCC5)c4c3)cnc2Cl)cc1 (protonated)
COc1ccc(S(=O)(=O)[N-]c2cc(-c3ccc4[nH+]cnc(OC5CCOCC5)c4c3)cnc2Cl)cc1 (3D coordinates assigned)
COc1ccc(S(=O)(=O)[N-]c2cc(-c3ccc4[nH+]cnc(OC5CCOCC5)c4c3)cnc2Cl)cc1 (nonaromatic ring conformer: 86.793244468837 kcal/mol)

>  <smiles>  (39) 
COc1ccc(S(=O)(=O)Nc2cc(-c3ccc4ncnc(OC5CCOCC5)c4c3)cnc2Cl)cc1

>  <score_type>  (39) 
oracle

>  <origin>  (39) 
adg

>  <m_score__min__energy>  (39) 
-9.2899999999999991

>  <m_primary>  (39) 
energy

$$$$
39:0
     RDKit          3D

 28 30  0  0  0  0  0  0  0  0999 V2000
   60.4860   32.1100   46.8500 C   0  0  0  0  0  0  0  0  0  0  0  0
   59.0520   32.5070   46.4770 C   0  0  1  0  0  0  0  0  0  0  0  0
   58.4320   33.5050   47.4710 C   0  0  0  0  0  0  0  0  0  0  0  0
   59.0060   34.9400   47.3190 C   0  0  0  0  0  0  0  0  0  0  0  0
   59.6130   35.2600   45.9260 C   0  0  0  0  0  0  0  0  0  0  0  0
   59.1070   34.3700   44.8810 N   0  0  0  0  0  0  0  0  0  0  0  0
   58.9750   33.1010   45.1060 C   0  0  0  0  0  0  0  0  0  0  0  0
   58.2230   32.1920   44.2640 C   0  0  0  0  0  0  0  0  0  0  0  0
   57.8140   31.1920   45.0230 C   0  0  0  0  0  0  0  0  0  0  0  0
   56.9650   30.0580   44.5160 C   0  0  0  0  0  0  0  0  0  0  0  0
   56.6110   30.2310   43.0540 C   0  0  0  0  0  0  0  0  0  0  0  0
   55.8960   29.3640   42.4870 O   0  0  0  0  0  0  0  0  0  0  0  0
   57.0860   31.4010   42.2780 C   0  0  0  0  0  0  0  0  0  0  0  0
   57.8500   32.3360   42.8510 C   0  0  0  0  0  0  0  0  0  0  0  0
   58.2470   31.3340   46.3400 O   0  0  0  0  0  0  0  0  0  0  0  0
   60.5857   32.0824   47.9451 H   0  0  0  0  0  0  0  0  0  0  0  0
   60.7107   31.1159   46.4362 H   0  0  0  0  0  0  0  0  0  0  0  0
   61.1899   32.8471   46.4362 H   0  0  0  0  0  0  0  0  0  0  0  0
   57.3457   33.5411   47.3016 H   0  0  0  0  0  0  0  0  0  0  0  0
   58.6750   33.1565   48.4856 H   0  0  0  0  0  0  0  0  0  0  0  0
   58.1919   35.6550   47.5089 H   0  0  0  0  0  0  0  0  0  0  0  0
   59.8331   35.0182   48.0400 H   0  0  0  0  0  0  0  0  0  0  0  0
   59.3604   36.2970   45.6600 H   0  0  0  0  0  0  0  0  0  0  0  0
   60.7014   35.1155   45.9925 H   0  0  0  0  0  0  0  0  0  0  0  0
   57.5190   29.1157   44.6392 H   0  0  0  0  0  0  0  0  0  0  0  0
   56.0299   30.0453   45.0952 H   0  0  0  0  0  0  0  0  0  0  0  0
   56.8066   31.5009   41.2188 H   0  0  0  0  0  0  0  0  0  0  0  0
   58.1957   33.2040   42.2704 H   0  0  0  0  0  0  0  0  0  0  0  0
  2  1  1  1
  2  3  1  0
  3  4  1  0
  4  5  1  0
  5  6  1  0
  6  7  2  0
  7  8  1  0
  8  9  2  0
  9 10  1  0
 10 11  1  0
 11 12  2  0
 11 13  1  0
 13 14  2  0
  9 15  1  0
  7  2  1  0
 14  8  1  0
 15  2  1  0
  1 16  1  0
  1 17  1  0
  1 18  1  0
  3 19  1  0
  3 20  1  0
  4 21  1  0
  4 22  1  0
  5 23  1  0
  5 24  1  0
 10 25  1  0
 10 26  1  0
 13 27  1  0
 14 28  1  0
M  END
>  <UniqueID>  (40) 
37

>  <SMILES>  (40) 
C[C@@]12CCCN=C1C1=C(CC(=O)C=C1)O2

>  <Energy>  (40) 
52.877108950679684

>  <Genealogy>  (40) 
C[C@@]12CCCN=C1C1=C(CC(=O)C=C1)O2 (chirality)
C[C@@]12CCCN=C1C1=C(CC(=O)C=C1)O2 (3D coordinates assigned)
C[C@@]12CCCN=C1C1=C(CC(=O)C=C1)O2 (nonaromatic ring conformer: 52.877108950679684 kcal/mol)

>  <smiles>  (40) 
CC12CCCN=C1C1=C(CC(=O)C=C1)O2

>  <score_type>  (40) 
oracle

>  <origin>  (40) 
adg

>  <m_score__min__energy>  (40) 
-6.3399999999999999

>  <m_primary>  (40) 
energy

$$$$
40:0
     RDKit          3D

 53 56  0  0  0  0  0  0  0  0999 V2000
   56.5490   29.3180   42.6440 C   0  0  0  0  0  0  0  0  0  0  0  0
   56.9910   30.6190   43.1510 N   0  0  0  0  0  0  0  0  0  0  0  0
   57.3540   31.6670   42.1930 C   0  0  0  0  0  0  0  0  0  0  0  0
   57.1310   30.8170   44.5710 C   0  0  0  0  0  0  0  0  0  0  0  0
   56.6290   29.9860   45.3750 O   0  0  0  0  0  0  0  0  0  0  0  0
   57.8990   31.9120   45.0890 N   0  0  0  0  0  0  0  0  0  0  0  0
   57.5700   33.2710   44.6420 C   0  0  0  0  0  0  0  0  0  0  0  0
   57.8030   34.2890   45.7760 C   0  0  0  0  0  0  0  0  0  0  0  0
   59.1340   34.1710   46.4280 N   0  0  0  0  0  0  0  0  0  0  0  0
   59.1210   34.6020   47.8530 C   0  0  0  0  0  0  0  0  0  0  0  0
   59.3060   33.4880   48.8620 C   0  0  0  0  0  0  0  0  0  0  0  0
   58.3880   32.4300   48.9480 C   0  0  0  0  0  0  0  0  0  0  0  0
   58.5740   31.4260   49.9050 C   0  0  0  0  0  0  0  0  0  0  0  0
   59.6230   31.4870   50.7670 N   0  0  0  0  0  0  0  0  0  0  0  0
   60.5070   32.5190   50.7310 C   0  0  0  0  0  0  0  0  0  0  0  0
   60.3600   33.5350   49.7870 C   0  0  0  0  0  0  0  0  0  0  0  0
   59.9050   32.9540   46.0430 C   0  0  1  0  0  0  0  0  0  0  0  0
   61.2350   32.7710   46.7610 C   0  0  0  0  0  0  0  0  0  0  0  0
   62.1170   33.8640   46.8810 C   0  0  0  0  0  0  0  0  0  0  0  0
   63.3710   33.7020   47.4720 C   0  0  0  0  0  0  0  0  0  0  0  0
   63.7780   32.4450   47.9150 C   0  0  0  0  0  0  0  0  0  0  0  0
   62.9500   31.3360   47.7330 C   0  0  0  0  0  0  0  0  0  0  0  0
   61.6950   31.4820   47.1220 C   0  0  0  0  0  0  0  0  0  0  0  0
   60.8480   30.2530   46.9030 C   0  0  0  0  0  0  0  0  0  0  0  0
   59.8200   30.4460   45.7840 C   0  0  0  0  0  0  0  0  0  0  0  0
   58.9900   31.7080   46.0620 C   0  0  2  0  0  0  0  0  0  0  0  0
   56.3229   28.6524   43.4900 H   0  0  0  0  0  0  0  0  0  0  0  0
   55.6457   29.4512   42.0306 H   0  0  0  0  0  0  0  0  0  0  0  0
   57.3465   28.8733   42.0306 H   0  0  0  0  0  0  0  0  0  0  0  0
   57.6667   32.5698   42.7382 H   0  0  0  0  0  0  0  0  0  0  0  0
   58.1826   31.3149   41.5609 H   0  0  0  0  0  0  0  0  0  0  0  0
   56.4852   31.9029   41.5609 H   0  0  0  0  0  0  0  0  0  0  0  0
   58.2073   33.5333   43.7847 H   0  0  0  0  0  0  0  0  0  0  0  0
   56.5093   33.3009   44.3523 H   0  0  0  0  0  0  0  0  0  0  0  0
   57.7115   35.3017   45.3564 H   0  0  0  0  0  0  0  0  0  0  0  0
   57.0491   34.0826   46.5500 H   0  0  0  0  0  0  0  0  0  0  0  0
   59.9330   35.3301   47.9964 H   0  0  0  0  0  0  0  0  0  0  0  0
   58.1205   35.0201   48.0378 H   0  0  0  0  0  0  0  0  0  0  0  0
   57.5258   32.3901   48.2660 H   0  0  0  0  0  0  0  0  0  0  0  0
   57.8683   30.5840   49.9598 H   0  0  0  0  0  0  0  0  0  0  0  0
   59.7360   30.7420   51.4910 H   0  0  0  0  0  0  0  0  0  0  0  0
   61.3403   32.5528   51.4482 H   0  0  0  0  0  0  0  0  0  0  0  0
   61.0711   34.3740   49.7676 H   0  0  0  0  0  0  0  0  0  0  0  0
   60.2342   33.1080   45.0048 H   0  0  0  0  0  0  0  0  0  0  0  0
   61.8145   34.8528   46.5058 H   0  0  0  0  0  0  0  0  0  0  0  0
   64.0392   34.5680   47.5883 H   0  0  0  0  0  0  0  0  0  0  0  0
   64.7536   32.3265   48.4091 H   0  0  0  0  0  0  0  0  0  0  0  0
   63.2827   30.3432   48.0700 H   0  0  0  0  0  0  0  0  0  0  0  0
   61.5063   29.4127   46.6373 H   0  0  0  0  0  0  0  0  0  0  0  0
   60.2976   30.0539   47.8343 H   0  0  0  0  0  0  0  0  0  0  0  0
   60.3418   30.5551   44.8218 H   0  0  0  0  0  0  0  0  0  0  0  0
   59.1542   29.5713   45.7435 H   0  0  0  0  0  0  0  0  0  0  0  0
   58.5332   31.5657   47.0525 H   0  0  0  0  0  0  0  0  0  0  0  0
  1  2  1  0
  2  3  1  0
  2  4  1  0
  4  5  2  0
  4  6  1  0
  6  7  1  0
  7  8  1  0
  8  9  1  0
  9 10  1  0
 10 11  1  0
 11 12  2  0
 12 13  1  0
 13 14  2  0
 14 15  1  0
 15 16  2  0
  9 17  1  0
 17 18  1  0
 18 19  2  0
 19 20  1  0
 20 21  2  0
 21 22  1  0
 22 23  2  0
 23 24  1  0
 24 25  1  0
 25 26  1  0
 26  6  1  0
 16 11  1  0
 26 17  1  0
 23 18  1  0
  1 27  1  0
  1 28  1  0
  1 29  1  0
  3 30  1  0
  3 31  1  0
  3 32  1  0
  7 33  1  0
  7 34  1  0
  8 35  1  0
  8 36  1  0
 10 37  1  0
 10 38  1  0
 12 39  1  0
 13 40  1  0
 14 41  1  0
 15 42  1  0
 16 43  1  0
 17 44  1  6
 19 45  1  0
 20 46  1  0
 21 47  1  0
 22 48  1  0
 24 49  1  0
 24 50  1  0
 25 51  1  0
 25 52  1  0
 26 53  1  1
M  CHG  1  14   1
M  END
>  <UniqueID>  (41) 
38

>  <SMILES>  (41) 
CN(C)C(=O)N1CCN(Cc2cc[nH+]cc2)[C@H]2c3ccccc3CC[C@@H]21

>  <Energy>  (41) 
79.85152361835443

>  <Genealogy>  (41) 
CN(C)C(=O)N1CCN(Cc2cc[nH+]cc2)C2c3ccccc3CCC21 (protonated)
CN(C)C(=O)N1CCN(Cc2cc[nH+]cc2)[C@H]2c3ccccc3CC[C@@H]21 (chirality)
CN(C)C(=O)N1CCN(Cc2cc[nH+]cc2)[C@H]2c3ccccc3CC[C@@H]21 (3D coordinates assigned)
CN(C)C(=O)N1CCN(Cc2cc[nH+]cc2)[C@H]2c3ccccc3CC[C@@H]21 (nonaromatic ring conformer: 79.85152361835443 kcal/mol)

>  <smiles>  (41) 
CN(C)C(=O)N1CCN(Cc2ccncc2)C2c3ccccc3CCC21

>  <score_type>  (41) 
oracle

>  <origin>  (41) 
adg

>  <m_score__min__energy>  (41) 
-7.4100000000000001

>  <m_primary>  (41) 
energy

$$$$
41:0
     RDKit          3D

 30 32  0  0  0  0  0  0  0  0999 V2000
   58.9910   29.9040   50.6100 C   0  0  0  0  0  0  0  0  0  0  0  0
   59.3160   29.3320   49.2720 C   0  0  0  0  0  0  0  0  0  0  0  0
   58.5570   29.5150   48.1710 N   0  0  0  0  0  0  0  0  0  0  0  0
   59.2910   28.8760   47.2320 C   0  0  0  0  0  0  0  0  0  0  0  0
   58.8900   28.7500   45.7910 C   0  0  1  0  0  0  0  0  0  0  0  0
   58.3100   27.3360   45.5090 C   0  0  0  0  0  0  0  0  0  0  0  0
   56.8810   27.5190   45.2850 N   0  0  0  0  0  0  0  0  0  0  0  0
   56.6460   28.9080   45.2440 C   0  0  0  0  0  0  0  0  0  0  0  0
   55.4980   29.3980   45.0820 O   0  0  0  0  0  0  0  0  0  0  0  0
   57.8100   29.6850   45.4730 N   0  0  0  0  0  0  0  0  0  0  0  0
   57.9860   31.0820   45.1470 C   0  0  0  0  0  0  0  0  0  0  0  0
   58.1290   32.0480   46.1620 C   0  0  0  0  0  0  0  0  0  0  0  0
   58.2890   33.3990   45.8390 C   0  0  0  0  0  0  0  0  0  0  0  0
   58.2990   33.8040   44.5020 C   0  0  0  0  0  0  0  0  0  0  0  0
   58.1440   32.8580   43.4870 C   0  0  0  0  0  0  0  0  0  0  0  0
   57.9820   31.5060   43.8050 C   0  0  0  0  0  0  0  0  0  0  0  0
   60.3900   28.3660   47.7350 O   0  0  0  0  0  0  0  0  0  0  0  0
   60.4360   28.6400   49.0000 N   0  0  0  0  0  0  0  0  0  0  0  0
   59.3708   29.2355   51.3966 H   0  0  0  0  0  0  0  0  0  0  0  0
   59.4621   30.8930   50.7102 H   0  0  0  0  0  0  0  0  0  0  0  0
   57.9003   30.0056   50.7102 H   0  0  0  0  0  0  0  0  0  0  0  0
   59.7908   28.9496   45.1920 H   0  0  0  0  0  0  0  0  0  0  0  0
   58.7831   26.9010   44.6163 H   0  0  0  0  0  0  0  0  0  0  0  0
   58.4993   26.6507   46.3483 H   0  0  0  0  0  0  0  0  0  0  0  0
   58.1147   31.7372   47.2171 H   0  0  0  0  0  0  0  0  0  0  0  0
   58.4072   34.1444   46.6392 H   0  0  0  0  0  0  0  0  0  0  0  0
   58.4288   34.8667   44.2493 H   0  0  0  0  0  0  0  0  0  0  0  0
   58.1493   33.1771   42.4343 H   0  0  0  0  0  0  0  0  0  0  0  0
   57.8504   30.7680   43.0000 H   0  0  0  0  0  0  0  0  0  0  0  0
   61.2030   28.3720   49.6560 H   0  0  0  0  0  0  0  0  0  0  0  0
  1  2  1  0
  2  3  1  0
  3  4  2  0
  4  5  1  0
  5  6  1  0
  6  7  1  0
  7  8  1  0
  8  9  2  0
  8 10  1  0
 10 11  1  0
 11 12  2  0
 12 13  1  0
 13 14  2  0
 14 15  1  0
 15 16  2  0
  4 17  1  0
 17 18  1  0
 18  2  2  0
 10  5  1  0
 16 11  1  0
  1 19  1  0
  1 20  1  0
  1 21  1  0
  5 22  1  6
  6 23  1  0
  6 24  1  0
 12 25  1  0
 13 26  1  0
 14 27  1  0
 15 28  1  0
 16 29  1  0
 18 30  1  0
M  CHG  2   7  -1  18   1
M  END
>  <UniqueID>  (42) 
39

>  <SMILES>  (42) 
Cc1nc([C@H]2C[N-]C(=O)N2c2ccccc2)o[nH+]1

>  <Energy>  (42) 
82.41000478219368

>  <Genealogy>  (42) 
Cc1nc(C2C[N-]C(=O)N2c2ccccc2)o[nH+]1 (protonated)
Cc1nc([C@H]2C[N-]C(=O)N2c2ccccc2)o[nH+]1 (chirality)
Cc1nc([C@H]2C[N-]C(=O)N2c2ccccc2)o[nH+]1 (3D coordinates assigned)
Cc1nc([C@H]2C[N-]C(=O)N2c2ccccc2)o[nH+]1 (nonaromatic ring conformer: 82.41000478219368 kcal/mol)

>  <smiles>  (42) 
Cc1noc(C2CNC(=O)N2c2ccccc2)n1

>  <score_type>  (42) 
oracle

>  <origin>  (42) 
adg

>  <m_score__min__energy>  (42) 
-6.5700000000000003

>  <m_primary>  (42) 
energy

$$$$
42:0
     RDKit          3D

 55 59  0  0  0  0  0  0  0  0999 V2000
   66.7560   32.8990   50.1560 C   0  0  0  0  0  0  0  0  0  0  0  0
   65.5770   32.1460   50.4200 O   0  0  0  0  0  0  0  0  0  0  0  0
   64.3950   32.2370   49.6710 C   0  0  0  0  0  0  0  0  0  0  0  0
   64.3860   33.0610   48.5400 C   0  0  0  0  0  0  0  0  0  0  0  0
   63.2330   33.1830   47.7590 C   0  0  0  0  0  0  0  0  0  0  0  0
   62.0730   32.4710   48.0960 C   0  0  0  0  0  0  0  0  0  0  0  0
   60.8830   32.6050   47.3040 N   0  0  0  0  0  0  0  0  0  0  0  0
   60.1190   33.7220   47.2160 C   0  0  0  0  0  0  0  0  0  0  0  0
   60.3600   34.8090   47.8070 O   0  0  0  0  0  0  0  0  0  0  0  0
   59.0540   33.4710   46.3840 C   0  0  0  0  0  0  0  0  0  0  0  0
   57.9670   34.2250   45.9580 C   0  0  0  0  0  0  0  0  0  0  0  0
   57.0430   33.5890   45.1070 C   0  0  0  0  0  0  0  0  0  0  0  0
   57.2430   32.2390   44.7300 C   0  0  0  0  0  0  0  0  0  0  0  0
   58.3310   31.5440   45.1830 N   0  0  0  0  0  0  0  0  0  0  0  0
   59.2180   32.1720   45.9950 C   0  0  0  0  0  0  0  0  0  0  0  0
   60.3320   31.6490   46.5500 N   0  0  0  0  0  0  0  0  0  0  0  0
   60.7410   30.2410   46.4930 C   0  0  0  0  0  0  0  0  0  0  0  0
   59.9090   29.4140   47.4390 C   0  0  0  0  0  0  0  0  0  0  0  0
   60.1240   29.5290   48.6760 O   0  0  0  0  0  0  0  0  0  0  0  0
   58.9230   28.4670   46.9730 N   0  0  0  0  0  0  0  0  0  0  0  0
   58.3190   28.5960   45.6360 C   0  0  0  0  0  0  0  0  0  0  0  0
   57.0020   27.8160   45.5400 C   0  0  0  0  0  0  0  0  0  0  0  0
   57.1690   26.3270   45.9250 C   0  0  0  0  0  0  0  0  0  0  0  0
   58.1770   26.1270   47.0900 C   0  0  0  0  0  0  0  0  0  0  0  0
   58.4430   27.4120   47.8800 C   0  0  0  0  0  0  0  0  0  0  0  0
   57.6480   25.6250   44.7940 O   0  0  0  0  0  0  0  0  0  0  0  0
   56.6230   24.7660   44.4080 C   0  0  0  0  0  0  0  0  0  0  0  0
   55.6820   24.6900   45.5690 C   0  0  0  0  0  0  0  0  0  0  0  0
   55.9070   25.8350   46.3250 O   0  0  0  0  0  0  0  0  0  0  0  0
   62.0720   31.6570   49.2360 C   0  0  0  0  0  0  0  0  0  0  0  0
   63.2250   31.5340   50.0180 C   0  0  0  0  0  0  0  0  0  0  0  0
   67.2217   33.1965   51.1071 H   0  0  0  0  0  0  0  0  0  0  0  0
   67.4621   32.2842   49.5785 H   0  0  0  0  0  0  0  0  0  0  0  0
   66.4952   33.7981   49.5785 H   0  0  0  0  0  0  0  0  0  0  0  0
   65.2937   33.6173   48.2632 H   0  0  0  0  0  0  0  0  0  0  0  0
   63.2358   33.8400   46.8768 H   0  0  0  0  0  0  0  0  0  0  0  0
   57.8346   35.2711   46.2714 H   0  0  0  0  0  0  0  0  0  0  0  0
   56.1667   34.1404   44.7355 H   0  0  0  0  0  0  0  0  0  0  0  0
   56.5175   31.7447   44.0672 H   0  0  0  0  0  0  0  0  0  0  0  0
   60.6056   29.8654   45.4680 H   0  0  0  0  0  0  0  0  0  0  0  0
   61.7982   30.1642   46.7869 H   0  0  0  0  0  0  0  0  0  0  0  0
   58.1211   29.6590   45.4336 H   0  0  0  0  0  0  0  0  0  0  0  0
   59.0212   28.1824   44.8972 H   0  0  0  0  0  0  0  0  0  0  0  0
   56.2686   28.2762   46.2185 H   0  0  0  0  0  0  0  0  0  0  0  0
   56.6640   27.8561   44.4940 H   0  0  0  0  0  0  0  0  0  0  0  0
   57.7717   25.3704   47.7779 H   0  0  0  0  0  0  0  0  0  0  0  0
   59.1326   25.8100   46.6469 H   0  0  0  0  0  0  0  0  0  0  0  0
   57.5118   27.7424   48.3634 H   0  0  0  0  0  0  0  0  0  0  0  0
   59.2091   27.2153   48.6444 H   0  0  0  0  0  0  0  0  0  0  0  0
   56.1051   25.1639   43.5229 H   0  0  0  0  0  0  0  0  0  0  0  0
   57.0120   23.7721   44.1418 H   0  0  0  0  0  0  0  0  0  0  0  0
   54.6408   24.6650   45.2152 H   0  0  0  0  0  0  0  0  0  0  0  0
   55.8489   23.7785   46.1618 H   0  0  0  0  0  0  0  0  0  0  0  0
   61.1593   31.1115   49.5177 H   0  0  0  0  0  0  0  0  0  0  0  0
   63.2180   30.8861   50.9069 H   0  0  0  0  0  0  0  0  0  0  0  0
  1  2  1  0
  2  3  1  0
  3  4  2  0
  4  5  1  0
  5  6  2  0
  6  7  1  0
  7  8  1  0
  8  9  2  0
  8 10  1  0
 10 11  2  0
 11 12  1  0
 12 13  2  0
 13 14  1  0
 14 15  2  0
 15 16  1  0
 16 17  1  0
 17 18  1  0
 18 19  2  0
 18 20  1  0
 20 21  1  0
 21 22  1  0
 22 23  1  0
 23 24  1  0
 24 25  1  0
 23 26  1  0
 26 27  1  0
 27 28  1  0
 28 29  1  0
  6 30  1  0
 30 31  2  0
 31  3  1  0
 16  7  1  0
 25 20  1  0
 15 10  1  0
 29 23  1  0
  1 32  1  0
  1 33  1  0
  1 34  1  0
  4 35  1  0
  5 36  1  0
 11 37  1  0
 12 38  1  0
 13 39  1  0
 17 40  1  0
 17 41  1  0
 21 42  1  0
 21 43  1  0
 22 44  1  0
 22 45  1  0
 24 46  1  0
 24 47  1  0
 25 48  1  0
 25 49  1  0
 27 50  1  0
 27 51  1  0
 28 52  1  0
 28 53  1  0
 30 54  1  0
 31 55  1  0
M  END
>  <UniqueID>  (43) 
40

>  <SMILES>  (43) 
COc1ccc(-n2c(=O)c3cccnc3n2CC(=O)N2CCC3(CC2)OCCO3)cc1

>  <Energy>  (43) 
109.40924160313475

>  <Genealogy>  (43) 
COc1ccc(-n2c(=O)c3cccnc3n2CC(=O)N2CCC3(CC2)OCCO3)cc1 (3D coordinates assigned)
COc1ccc(-n2c(=O)c3cccnc3n2CC(=O)N2CCC3(CC2)OCCO3)cc1 (nonaromatic ring conformer: 109.40924160313475 kcal/mol)

>  <smiles>  (43) 
COc1ccc(-n2c(=O)c3cccnc3n2CC(=O)N2CCC3(CC2)OCCO3)cc1

>  <score_type>  (43) 
oracle

>  <origin>  (43) 
adg

>  <m_score__min__energy>  (43) 
-8.4499999999999993

>  <m_primary>  (43) 
energy

$$$$
43:0
     RDKit          3D

 44 45  0  0  0  0  0  0  0  0999 V2000
   58.5210   27.4790   47.7730 C   0  0  0  0  0  0  0  0  0  0  0  0
   57.5680   27.5650   46.7210 O   0  0  0  0  0  0  0  0  0  0  0  0
   57.5120   26.6930   45.6240 C   0  0  0  0  0  0  0  0  0  0  0  0
   57.0750   25.3590   45.7470 C   0  0  0  0  0  0  0  0  0  0  0  0
   57.0130   24.5310   44.6240 C   0  0  0  0  0  0  0  0  0  0  0  0
   57.3820   25.0210   43.3690 C   0  0  0  0  0  0  0  0  0  0  0  0
   57.8200   26.3400   43.2360 C   0  0  0  0  0  0  0  0  0  0  0  0
   57.8930   27.1760   44.3590 C   0  0  0  0  0  0  0  0  0  0  0  0
   58.3270   28.5350   44.2090 N   0  0  0  0  0  0  0  0  0  0  0  0
   59.7150   28.9010   44.4970 C   0  0  0  0  0  0  0  0  0  0  0  0
   59.7730   29.8070   45.6900 C   0  0  0  0  0  0  0  0  0  0  0  0
   60.8710   30.3320   46.0180 O   0  0  0  0  0  0  0  0  0  0  0  0
   58.5780   30.1030   46.4240 N   0  0  0  0  0  0  0  0  0  0  0  0
   58.5450   31.0830   47.5060 C   0  0  0  0  0  0  0  0  0  0  0  0
   58.8060   32.4640   46.9690 C   0  0  0  0  0  0  0  0  0  0  0  0
   59.9110   33.2090   47.4130 C   0  0  0  0  0  0  0  0  0  0  0  0
   60.1330   34.4990   46.9210 C   0  0  0  0  0  0  0  0  0  0  0  0
   59.2540   35.0550   45.9880 C   0  0  0  0  0  0  0  0  0  0  0  0
   58.1480   34.3220   45.5450 C   0  0  0  0  0  0  0  0  0  0  0  0
   57.9220   33.0320   46.0350 C   0  0  0  0  0  0  0  0  0  0  0  0
   57.1800   29.7570   43.7520 S   0  0  0  0  0  0  0  0  0  0  0  0
   58.0430   31.2590   43.3520 C   0  0  0  0  0  0  0  0  0  0  0  0
   56.3900   29.2890   42.5640 O   0  0  0  0  0  0  0  0  0  0  0  0
   56.2370   30.0250   44.8910 O   0  0  0  0  0  0  0  0  0  0  0  0
   58.0026   27.5258   48.7421 H   0  0  0  0  0  0  0  0  0  0  0  0
   59.0680   26.5278   47.6953 H   0  0  0  0  0  0  0  0  0  0  0  0
   59.2295   28.3169   47.6953 H   0  0  0  0  0  0  0  0  0  0  0  0
   56.7813   24.9679   46.7323 H   0  0  0  0  0  0  0  0  0  0  0  0
   56.6727   23.4902   44.7281 H   0  0  0  0  0  0  0  0  0  0  0  0
   57.3275   24.3678   42.4857 H   0  0  0  0  0  0  0  0  0  0  0  0
   58.1088   26.7245   42.2467 H   0  0  0  0  0  0  0  0  0  0  0  0
   60.2959   27.9900   44.7036 H   0  0  0  0  0  0  0  0  0  0  0  0
   60.1367   29.4250   43.6266 H   0  0  0  0  0  0  0  0  0  0  0  0
   57.6820   29.6490   46.1390 H   0  0  0  0  0  0  0  0  0  0  0  0
   57.5550   31.0612   47.9850 H   0  0  0  0  0  0  0  0  0  0  0  0
   59.3249   30.8316   48.2399 H   0  0  0  0  0  0  0  0  0  0  0  0
   60.6037   32.7764   48.1499 H   0  0  0  0  0  0  0  0  0  0  0  0
   61.0015   35.0773   47.2693 H   0  0  0  0  0  0  0  0  0  0  0  0
   59.4318   36.0695   45.6017 H   0  0  0  0  0  0  0  0  0  0  0  0
   57.4559   34.7605   44.8110 H   0  0  0  0  0  0  0  0  0  0  0  0
   57.0491   32.4594   45.6883 H   0  0  0  0  0  0  0  0  0  0  0  0
   58.3372   31.7711   44.2800 H   0  0  0  0  0  0  0  0  0  0  0  0
   58.9416   31.0202   42.7643 H   0  0  0  0  0  0  0  0  0  0  0  0
   57.3841   31.9151   42.7643 H   0  0  0  0  0  0  0  0  0  0  0  0
  1  2  1  0
  2  3  1  0
  3  4  2  0
  4  5  1  0
  5  6  2  0
  6  7  1  0
  7  8  2  0
  8  9  1  0
  9 10  1  0
 10 11  1  0
 11 12  2  0
 11 13  1  0
 13 14  1  0
 14 15  1  0
 15 16  2  0
 16 17  1  0
 17 18  2  0
 18 19  1  0
 19 20  2  0
  9 21  1  0
 21 22  1  0
 21 23  2  0
 21 24  2  0
  8  3  1  0
 20 15  1  0
  1 25  1  0
  1 26  1  0
  1 27  1  0
  4 28  1  0
  5 29  1  0
  6 30  1  0
  7 31  1  0
 10 32  1  0
 10 33  1  0
 13 34  1  0
 14 35  1  0
 14 36  1  0
 16 37  1  0
 17 38  1  0
 18 39  1  0
 19 40  1  0
 20 41  1  0
 22 42  1  0
 22 43  1  0
 22 44  1  0
M  END
>  <UniqueID>  (44) 
41

>  <SMILES>  (44) 
COc1ccccc1N(CC(=O)NCc1ccccc1)S(C)(=O)=O

>  <Energy>  (44) 
39.47455966703981

>  <Genealogy>  (44) 
COc1ccccc1N(CC(=O)NCc1ccccc1)S(C)(=O)=O (3D coordinates assigned)
COc1ccccc1N(CC(=O)NCc1ccccc1)S(C)(=O)=O (optimized conformer: 39.47455966703981 kcal/mol)

>  <smiles>  (44) 
COc1ccccc1N(CC(=O)NCc1ccccc1)S(C)(=O)=O

>  <score_type>  (44) 
oracle

>  <origin>  (44) 
adg

>  <m_score__min__energy>  (44) 
-7.2199999999999998

>  <m_primary>  (44) 
energy

$$$$
44:0
     RDKit          3D

 53 57  0  0  0  0  0  0  0  0999 V2000
   56.7070   29.4390   43.5920 C   0  0  0  0  0  0  0  0  0  0  0  0
   56.6950   29.6440   45.0010 O   0  0  0  0  0  0  0  0  0  0  0  0
   57.8110   29.5070   45.8440 C   0  0  0  0  0  0  0  0  0  0  0  0
   58.6430   30.6070   46.1350 C   0  0  0  0  0  0  0  0  0  0  0  0
   59.7570   30.4700   46.9790 C   0  0  0  0  0  0  0  0  0  0  0  0
   60.6270   31.6360   47.2770 C   0  0  0  0  0  0  0  0  0  0  0  0
   61.9210   31.4500   47.8010 C   0  0  0  0  0  0  0  0  0  0  0  0
   62.7370   32.5490   48.0820 C   0  0  0  0  0  0  0  0  0  0  0  0
   62.2740   33.8450   47.8430 C   0  0  0  0  0  0  0  0  0  0  0  0
   60.9920   34.0440   47.3240 C   0  0  0  0  0  0  0  0  0  0  0  0
   60.1710   32.9480   47.0420 C   0  0  0  0  0  0  0  0  0  0  0  0
   60.0360   29.2150   47.5370 C   0  0  0  0  0  0  0  0  0  0  0  0
   59.2210   28.1180   47.2570 C   0  0  0  0  0  0  0  0  0  0  0  0
   58.1040   28.2440   46.4120 C   0  0  0  0  0  0  0  0  0  0  0  0
   57.2660   27.0450   46.1420 C   0  0  0  0  0  0  0  0  0  0  0  0
   55.9050   27.0990   46.0840 N   0  0  0  0  0  0  0  0  0  0  0  0
   55.5790   25.8270   45.8250 C   0  0  0  0  0  0  0  0  0  0  0  0
   54.3290   25.3300   45.6660 N   0  0  0  0  0  0  0  0  0  0  0  0
   54.1630   23.9930   45.4030 C   0  0  0  0  0  0  0  0  0  0  0  0
   52.7900   23.4570   45.2250 C   0  0  0  0  0  0  0  0  0  0  0  0
   52.2220   22.5720   46.1600 C   0  0  0  0  0  0  0  0  0  0  0  0
   50.9320   22.0720   45.9660 C   0  0  0  0  0  0  0  0  0  0  0  0
   50.1870   22.4610   44.8520 C   0  0  0  0  0  0  0  0  0  0  0  0
   50.7160   23.3730   43.9320 C   0  0  0  0  0  0  0  0  0  0  0  0
   49.9310   23.7370   42.7890 N   0  0  0  0  0  0  0  0  0  0  0  0
   49.9330   25.0040   42.1170 C   0  0  0  0  0  0  0  0  0  0  0  0
   49.9260   25.1110   40.6220 C   0  0  0  0  0  0  0  0  0  0  0  0
   49.9760   26.0580   42.8030 O   0  0  0  0  0  0  0  0  0  0  0  0
   52.0260   23.8510   44.1100 C   0  0  0  0  0  0  0  0  0  0  0  0
   55.3100   23.1560   45.2890 C   0  0  0  0  0  0  0  0  0  0  0  0
   56.5980   23.6980   45.4600 C   0  0  0  0  0  0  0  0  0  0  0  0
   56.6850   25.0560   45.7320 C   0  0  0  0  0  0  0  0  0  0  0  0
   57.7800   25.8010   45.9270 N   0  0  0  0  0  0  0  0  0  0  0  0
   56.7701   28.3617   43.3787 H   0  0  0  0  0  0  0  0  0  0  0  0
   55.7835   29.8460   43.1544 H   0  0  0  0  0  0  0  0  0  0  0  0
   57.5767   29.9509   43.1544 H   0  0  0  0  0  0  0  0  0  0  0  0
   58.4160   31.5887   45.6938 H   0  0  0  0  0  0  0  0  0  0  0  0
   62.2921   30.4320   47.9905 H   0  0  0  0  0  0  0  0  0  0  0  0
   63.7457   32.3933   48.4921 H   0  0  0  0  0  0  0  0  0  0  0  0
   62.9185   34.7088   48.0633 H   0  0  0  0  0  0  0  0  0  0  0  0
   60.6280   35.0650   47.1369 H   0  0  0  0  0  0  0  0  0  0  0  0
   59.1626   33.1112   46.6340 H   0  0  0  0  0  0  0  0  0  0  0  0
   60.9046   29.0940   48.2010 H   0  0  0  0  0  0  0  0  0  0  0  0
   59.4554   27.1404   47.7036 H   0  0  0  0  0  0  0  0  0  0  0  0
   52.7969   22.2722   47.0486 H   0  0  0  0  0  0  0  0  0  0  0  0
   50.5018   21.3688   46.6943 H   0  0  0  0  0  0  0  0  0  0  0  0
   49.1791   22.0487   44.6964 H   0  0  0  0  0  0  0  0  0  0  0  0
   49.8568   26.1694   40.3305 H   0  0  0  0  0  0  0  0  0  0  0  0
   50.8543   24.6797   40.2192 H   0  0  0  0  0  0  0  0  0  0  0  0
   49.0618   24.5624   40.2192 H   0  0  0  0  0  0  0  0  0  0  0  0
   52.4588   24.5403   43.3701 H   0  0  0  0  0  0  0  0  0  0  0  0
   55.1893   22.0854   45.0672 H   0  0  0  0  0  0  0  0  0  0  0  0
   57.4983   23.0709   45.3812 H   0  0  0  0  0  0  0  0  0  0  0  0
  1  2  1  0
  2  3  1  0
  3  4  2  0
  4  5  1  0
  5  6  1  0
  6  7  2  0
  7  8  1  0
  8  9  2  0
  9 10  1  0
 10 11  2  0
  5 12  2  0
 12 13  1  0
 13 14  2  0
 14 15  1  0
 15 16  2  0
 16 17  1  0
 17 18  2  0
 18 19  1  0
 19 20  1  0
 20 21  2  0
 21 22  1  0
 22 23  2  0
 23 24  1  0
 24 25  1  0
 25 26  1  0
 26 27  1  0
 26 28  2  0
 24 29  2  0
 19 30  2  0
 30 31  1  0
 31 32  2  0
 32 33  1  0
 14  3  1  0
 33 15  1  0
 11  6  1  0
 32 17  1  0
 29 20  1  0
  1 34  1  0
  1 35  1  0
  1 36  1  0
  4 37  1  0
  7 38  1  0
  8 39  1  0
  9 40  1  0
 10 41  1  0
 11 42  1  0
 12 43  1  0
 13 44  1  0
 21 45  1  0
 22 46  1  0
 23 47  1  0
 27 48  1  0
 27 49  1  0
 27 50  1  0
 29 51  1  0
 30 52  1  0
 31 53  1  0
M  CHG  2  25  -1  33  -1
M  END
>  <UniqueID>  (45) 
42

>  <SMILES>  (45) 
COc1cc(-c2ccccc2)ccc1-c1nc2nc(-c3cccc([N-]C(C)=O)c3)ccc2[n-]1

>  <Energy>  (45) 
111.02679805827982

>  <Genealogy>  (45) 
COc1cc(-c2ccccc2)ccc1-c1nc2nc(-c3cccc([N-]C(C)=O)c3)ccc2[n-]1 (protonated)
COc1cc(-c2ccccc2)ccc1-c1nc2nc(-c3cccc([N-]C(C)=O)c3)ccc2[n-]1 (3D coordinates assigned)
COc1cc(-c2ccccc2)ccc1-c1nc2nc(-c3cccc([N-]C(C)=O)c3)ccc2[n-]1 (optimized conformer: 111.02679805827982 kcal/mol)

>  <smiles>  (45) 
COc1cc(-c2ccccc2)ccc1-c1nc2nc(-c3cccc(NC(C)=O)c3)ccc2[nH]1

>  <score_type>  (45) 
oracle

>  <origin>  (45) 
adg

>  <m_score__min__energy>  (45) 
-12.24

>  <m_primary>  (45) 
energy

$$$$
