0:0
     RDKit          3D

 39 42  0  0  0  0  0  0  0  0999 V2000
   65.5640   32.3700   50.1590 C   0  0  0  0  0  0  0  0  0  0  0  0
   65.0430   33.0280   49.0080 O   0  0  0  0  0  0  0  0  0  0  0  0
   63.6800   33.1130   48.6940 C   0  0  0  0  0  0  0  0  0  0  0  0
   63.1440   32.5910   47.5020 C   0  0  0  0  0  0  0  0  0  0  0  0
   61.7760   32.7000   47.2350 C   0  0  0  0  0  0  0  0  0  0  0  0
   60.9170   33.3260   48.1550 C   0  0  0  0  0  0  0  0  0  0  0  0
   59.4390   33.4570   47.8420 C   0  0  2  0  0  0  0  0  0  0  0  0
   58.7260   32.0760   47.8880 C   0  0  0  0  0  0  0  0  0  0  0  0
   58.7160   31.3320   46.5500 C   0  0  0  0  0  0  0  0  0  0  0  0
   58.5230   29.8590   46.5060 C   0  0  0  0  0  0  0  0  0  0  0  0
   57.5990   29.2690   45.6200 C   0  0  0  0  0  0  0  0  0  0  0  0
   57.4280   27.8810   45.5920 C   0  0  0  0  0  0  0  0  0  0  0  0
   58.1750   27.0640   46.4430 C   0  0  0  0  0  0  0  0  0  0  0  0
   57.9390   25.1700   46.4020 Br  0  0  0  0  0  0  0  0  0  0  0  0
   59.0990   27.6350   47.3230 C   0  0  0  0  0  0  0  0  0  0  0  0
   59.2750   29.0210   47.3540 C   0  0  0  0  0  0  0  0  0  0  0  0
   58.7740   31.9930   45.4250 N   0  0  0  0  0  0  0  0  0  0  0  0
   58.9680   33.4030   45.4230 C   0  0  0  0  0  0  0  0  0  0  0  0
   58.9690   34.1870   44.3310 N   0  0  0  0  0  0  0  0  0  0  0  0
   59.2710   35.3940   44.8750 C   0  0  0  0  0  0  0  0  0  0  0  0
   59.4580   35.3380   46.2140 N   0  0  0  0  0  0  0  0  0  0  0  0
   59.2490   34.0760   46.5340 N   0  0  0  0  0  0  0  0  0  0  0  0
   61.4590   33.8530   49.3410 C   0  0  0  0  0  0  0  0  0  0  0  0
   62.8250   33.7430   49.6060 C   0  0  0  0  0  0  0  0  0  0  0  0
   65.1779   32.8576   51.0663 H   0  0  0  0  0  0  0  0  0  0  0  0
   65.2541   31.3146   50.1498 H   0  0  0  0  0  0  0  0  0  0  0  0
   66.6623   32.4297   50.1498 H   0  0  0  0  0  0  0  0  0  0  0  0
   63.8050   32.0945   46.7764 H   0  0  0  0  0  0  0  0  0  0  0  0
   61.3687   32.2928   46.2978 H   0  0  0  0  0  0  0  0  0  0  0  0
   58.9885   34.0996   48.6128 H   0  0  0  0  0  0  0  0  0  0  0  0
   59.2400   31.4465   48.6293 H   0  0  0  0  0  0  0  0  0  0  0  0
   57.6756   32.2703   48.1504 H   0  0  0  0  0  0  0  0  0  0  0  0
   57.0076   29.9053   44.9451 H   0  0  0  0  0  0  0  0  0  0  0  0
   56.7029   27.4317   44.8975 H   0  0  0  0  0  0  0  0  0  0  0  0
   59.6889   26.9918   47.9926 H   0  0  0  0  0  0  0  0  0  0  0  0
   60.0071   29.4620   48.0465 H   0  0  0  0  0  0  0  0  0  0  0  0
   59.3549   36.3207   44.2883 H   0  0  0  0  0  0  0  0  0  0  0  0
   60.8013   34.3558   50.0654 H   0  0  0  0  0  0  0  0  0  0  0  0
   63.2336   34.1553   50.5404 H   0  0  0  0  0  0  0  0  0  0  0  0
  1  2  1  0
  2  3  1  0
  3  4  2  0
  4  5  1  0
  5  6  2  0
  6  7  1  0
  7  8  1  0
  8  9  1  0
  9 10  1  0
 10 11  2  0
 11 12  1  0
 12 13  2  0
 13 14  1  0
 13 15  1  0
 15 16  2  0
  9 17  2  0
 17 18  1  0
 18 19  2  0
 19 20  1  0
 20 21  2  0
 21 22  1  0
  6 23  1  0
 23 24  2  0
 24  3  1  0
 22  7  1  0
 16 10  1  0
 22 18  1  0
  1 25  1  0
  1 26  1  0
  1 27  1  0
  4 28  1  0
  5 29  1  0
  7 30  1  1
  8 31  1  0
  8 32  1  0
 11 33  1  0
 12 34  1  0
 15 35  1  0
 16 36  1  0
 20 37  1  0
 23 38  1  0
 24 39  1  0
M  END
>  <UniqueID>  (1) 
1

>  <SMILES>  (1) 
COc1ccc([C@@H]2CC(c3ccc(Br)cc3)=Nc3ncnn32)cc1

>  <Energy>  (1) 
83.04521388577173

>  <Genealogy>  (1) 
COc1ccc([C@@H]2CC(c3ccc(Br)cc3)=Nc3ncnn32)cc1 (chirality)
COc1ccc([C@@H]2CC(c3ccc(Br)cc3)=Nc3ncnn32)cc1 (3D coordinates assigned)
COc1ccc([C@@H]2CC(c3ccc(Br)cc3)=Nc3ncnn32)cc1 (nonaromatic ring conformer: 83.04521388577173 kcal/mol)

>  <smiles>  (1) 
COc1ccc(C2CC(c3ccc(Br)cc3)=Nc3ncnn32)cc1

>  <score_type>  (1) 
oracle

>  <origin>  (1) 
adg

>  <m_score__min__energy>  (1) 
-7.3600000000000003

>  <m_primary>  (1) 
energy

$$$$
1:0
     RDKit          3D

 38 40  0  0  0  0  0  0  0  0999 V2000
   60.0550   33.8500   50.0550 C   0  0  0  0  0  0  0  0  0  0  0  0
   59.6530   34.6090   48.9190 O   0  0  0  0  0  0  0  0  0  0  0  0
   59.2580   34.0510   47.6940 C   0  0  0  0  0  0  0  0  0  0  0  0
   58.4670   32.8890   47.6120 C   0  0  0  0  0  0  0  0  0  0  0  0
   58.1020   32.3710   46.3660 C   0  0  0  0  0  0  0  0  0  0  0  0
   58.5310   32.9920   45.1830 C   0  0  0  0  0  0  0  0  0  0  0  0
   58.1130   32.4390   43.8780 C   0  0  0  0  0  0  0  0  0  0  0  0
   58.2280   33.0920   42.7430 O   0  0  0  0  0  0  0  0  0  0  0  0
   57.7810   32.3090   41.7870 C   0  0  0  0  0  0  0  0  0  0  0  0
   57.3610   31.1250   42.2690 N   0  0  0  0  0  0  0  0  0  0  0  0
   57.5630   31.1950   43.5970 C   0  0  0  0  0  0  0  0  0  0  0  0
   57.0950   30.1730   44.5540 C   0  0  0  0  0  0  0  0  0  0  0  0
   55.8710   30.1380   44.8560 O   0  0  0  0  0  0  0  0  0  0  0  0
   58.0000   29.2110   45.1350 N   0  0  0  0  0  0  0  0  0  0  0  0
   57.5300   27.8640   45.4730 C   0  0  0  0  0  0  0  0  0  0  0  0
   58.2480   27.3640   46.7310 C   0  0  0  0  0  0  0  0  0  0  0  0
   59.6510   27.4850   46.5920 O   0  0  0  0  0  0  0  0  0  0  0  0
   60.0060   28.8510   46.4990 C   0  0  0  0  0  0  0  0  0  0  0  0
   59.4410   29.4740   45.2190 C   0  0  0  0  0  0  0  0  0  0  0  0
   59.3010   34.1630   45.2680 C   0  0  0  0  0  0  0  0  0  0  0  0
   59.6660   34.6810   46.5140 C   0  0  0  0  0  0  0  0  0  0  0  0
   59.7713   34.3856   50.9729 H   0  0  0  0  0  0  0  0  0  0  0  0
   59.5584   32.8687   50.0348 H   0  0  0  0  0  0  0  0  0  0  0  0
   61.1458   33.7094   50.0348 H   0  0  0  0  0  0  0  0  0  0  0  0
   58.1348   32.3866   48.5325 H   0  0  0  0  0  0  0  0  0  0  0  0
   57.4737   31.4697   46.3124 H   0  0  0  0  0  0  0  0  0  0  0  0
   57.7535   32.5873   40.7232 H   0  0  0  0  0  0  0  0  0  0  0  0
   56.9120   30.3530   41.7270 H   0  0  0  0  0  0  0  0  0  0  0  0
   56.4460   27.8912   45.6577 H   0  0  0  0  0  0  0  0  0  0  0  0
   57.7466   27.1833   44.6365 H   0  0  0  0  0  0  0  0  0  0  0  0
   57.9187   27.9601   47.5948 H   0  0  0  0  0  0  0  0  0  0  0  0
   57.9993   26.3029   46.8800 H   0  0  0  0  0  0  0  0  0  0  0  0
   59.6029   29.3885   47.3700 H   0  0  0  0  0  0  0  0  0  0  0  0
   61.1029   28.9293   46.4747 H   0  0  0  0  0  0  0  0  0  0  0  0
   59.6141   30.5602   45.2338 H   0  0  0  0  0  0  0  0  0  0  0  0
   59.9434   29.0316   44.3462 H   0  0  0  0  0  0  0  0  0  0  0  0
   59.6190   34.6760   44.3484 H   0  0  0  0  0  0  0  0  0  0  0  0
   60.2797   35.5924   46.5668 H   0  0  0  0  0  0  0  0  0  0  0  0
  1  2  1  0
  2  3  1  0
  3  4  2  0
  4  5  1  0
  5  6  2  0
  6  7  1  0
  7  8  1  0
  8  9  1  0
  9 10  2  0
 10 11  1  0
 11 12  1  0
 12 13  2  0
 12 14  1  0
 14 15  1  0
 15 16  1  0
 16 17  1  0
 17 18  1  0
 18 19  1  0
  6 20  1  0
 20 21  2  0
 21  3  1  0
 11  7  2  0
 19 14  1  0
  1 22  1  0
  1 23  1  0
  1 24  1  0
  4 25  1  0
  5 26  1  0
  9 27  1  0
 10 28  1  0
 15 29  1  0
 15 30  1  0
 16 31  1  0
 16 32  1  0
 18 33  1  0
 18 34  1  0
 19 35  1  0
 19 36  1  0
 20 37  1  0
 21 38  1  0
M  CHG  1  10   1
M  END
>  <UniqueID>  (2) 
2

>  <SMILES>  (2) 
COc1ccc(-c2oc[nH+]c2C(=O)N2CCOCC2)cc1

>  <Energy>  (2) 
79.08332322024584

>  <Genealogy>  (2) 
COc1ccc(-c2oc[nH+]c2C(=O)N2CCOCC2)cc1 (protonated)
COc1ccc(-c2oc[nH+]c2C(=O)N2CCOCC2)cc1 (3D coordinates assigned)
COc1ccc(-c2oc[nH+]c2C(=O)N2CCOCC2)cc1 (nonaromatic ring conformer: 79.08332322024584 kcal/mol)

>  <smiles>  (2) 
COc1ccc(-c2ocnc2C(=O)N2CCOCC2)cc1

>  <score_type>  (2) 
oracle

>  <origin>  (2) 
adg

>  <m_score__min__energy>  (2) 
-5.2699999999999996

>  <m_primary>  (2) 
energy

$$$$
2:0
     RDKit          3D

 56 59  0  0  0  0  0  0  0  0999 V2000
   56.8080   21.6610   42.9960 C   0  0  0  0  0  0  0  0  0  0  0  0
   56.5110   23.1580   43.0480 C   0  0  0  0  0  0  0  0  0  0  0  0
   57.0060   23.7310   44.2600 O   0  0  0  0  0  0  0  0  0  0  0  0
   57.2430   25.0990   44.4860 C   0  0  0  0  0  0  0  0  0  0  0  0
   57.7800   25.9420   43.4940 C   0  0  0  0  0  0  0  0  0  0  0  0
   57.9990   27.2950   43.7560 C   0  0  0  0  0  0  0  0  0  0  0  0
   57.6920   27.8390   45.0130 C   0  0  0  0  0  0  0  0  0  0  0  0
   57.9240   29.2800   45.2890 C   0  0  0  0  0  0  0  0  0  0  0  0
   58.3380   29.7080   46.5730 C   0  0  0  0  0  0  0  0  0  0  0  0
   58.5570   31.0680   46.8380 C   0  0  0  0  0  0  0  0  0  0  0  0
   58.3690   31.9890   45.8040 C   0  0  0  0  0  0  0  0  0  0  0  0
   57.9570   31.5870   44.5660 C   0  0  0  0  0  0  0  0  0  0  0  0
   57.7270   30.2420   44.2750 C   0  0  0  0  0  0  0  0  0  0  0  0
   57.7880   32.7570   43.6620 C   0  0  0  0  0  0  0  0  0  0  0  0
   58.1890   33.9580   44.5520 C   0  0  0  0  0  0  0  0  0  0  0  0
   58.5260   33.3980   45.8620 N   0  0  0  0  0  0  0  0  0  0  0  0
   59.1320   34.1690   46.9480 C   0  0  0  0  0  0  0  0  0  0  0  0
   60.5550   34.6030   46.5820 C   0  0  0  0  0  0  0  0  0  0  0  0
   61.4670   33.4410   46.5700 N   0  0  0  0  0  0  0  0  0  0  0  0
   62.8740   33.8480   46.5070 C   0  0  0  0  0  0  0  0  0  0  0  0
   63.6870   32.7120   47.1130 C   0  0  0  0  0  0  0  0  0  0  0  0
   62.6870   31.8780   47.9010 C   0  0  0  0  0  0  0  0  0  0  0  0
   61.3680   32.6230   47.7840 C   0  0  0  0  0  0  0  0  0  0  0  0
   57.1630   26.9980   46.0070 C   0  0  0  0  0  0  0  0  0  0  0  0
   56.9400   25.6360   45.7520 C   0  0  0  0  0  0  0  0  0  0  0  0
   56.3650   24.7530   46.8260 C   0  0  0  0  0  0  0  0  0  0  0  0
   56.8862   21.2669   44.0200 H   0  0  0  0  0  0  0  0  0  0  0  0
   55.9949   21.1441   42.4653 H   0  0  0  0  0  0  0  0  0  0  0  0
   57.7568   21.4937   42.4653 H   0  0  0  0  0  0  0  0  0  0  0  0
   56.9942   23.6516   42.1919 H   0  0  0  0  0  0  0  0  0  0  0  0
   55.4214   23.3032   43.0082 H   0  0  0  0  0  0  0  0  0  0  0  0
   58.0288   25.5306   42.5046 H   0  0  0  0  0  0  0  0  0  0  0  0
   58.4162   27.9415   42.9699 H   0  0  0  0  0  0  0  0  0  0  0  0
   58.4896   28.9666   47.3713 H   0  0  0  0  0  0  0  0  0  0  0  0
   58.8700   31.4023   47.8382 H   0  0  0  0  0  0  0  0  0  0  0  0
   57.3973   29.9361   43.2711 H   0  0  0  0  0  0  0  0  0  0  0  0
   58.4497   32.6772   42.7869 H   0  0  0  0  0  0  0  0  0  0  0  0
   56.7689   32.8435   43.2572 H   0  0  0  0  0  0  0  0  0  0  0  0
   59.0590   34.4770   44.1234 H   0  0  0  0  0  0  0  0  0  0  0  0
   57.3737   34.6927   44.6267 H   0  0  0  0  0  0  0  0  0  0  0  0
   58.5207   35.0632   47.1396 H   0  0  0  0  0  0  0  0  0  0  0  0
   59.1777   33.5354   47.8460 H   0  0  0  0  0  0  0  0  0  0  0  0
   60.5462   35.0658   45.5841 H   0  0  0  0  0  0  0  0  0  0  0  0
   60.9097   35.3240   47.3332 H   0  0  0  0  0  0  0  0  0  0  0  0
   63.1742   34.0131   45.4617 H   0  0  0  0  0  0  0  0  0  0  0  0
   63.0385   34.7876   47.0548 H   0  0  0  0  0  0  0  0  0  0  0  0
   64.1538   32.1074   46.3214 H   0  0  0  0  0  0  0  0  0  0  0  0
   64.5018   33.0857   47.7506 H   0  0  0  0  0  0  0  0  0  0  0  0
   62.6004   30.8699   47.4694 H   0  0  0  0  0  0  0  0  0  0  0  0
   62.9948   31.7486   48.9491 H   0  0  0  0  0  0  0  0  0  0  0  0
   60.5341   31.9109   47.6972 H   0  0  0  0  0  0  0  0  0  0  0  0
   61.1780   33.2441   48.6718 H   0  0  0  0  0  0  0  0  0  0  0  0
   56.9208   27.4122   46.9968 H   0  0  0  0  0  0  0  0  0  0  0  0
   56.6288   25.1582   47.8140 H   0  0  0  0  0  0  0  0  0  0  0  0
   55.2703   24.7177   46.7246 H   0  0  0  0  0  0  0  0  0  0  0  0
   56.7755   23.7375   46.7246 H   0  0  0  0  0  0  0  0  0  0  0  0
  1  2  1  0
  2  3  1  0
  3  4  1  0
  4  5  2  0
  5  6  1  0
  6  7  2  0
  7  8  1  0
  8  9  2  0
  9 10  1  0
 10 11  2  0
 11 12  1  0
 12 13  2  0
 12 14  1  0
 14 15  1  0
 15 16  1  0
 16 17  1  0
 17 18  1  0
 18 19  1  0
 19 20  1  0
 20 21  1  0
 21 22  1  0
 22 23  1  0
  7 24  1  0
 24 25  2  0
 25 26  1  0
 25  4  1  0
 13  8  1  0
 23 19  1  0
 16 11  1  0
  1 27  1  0
  1 28  1  0
  1 29  1  0
  2 30  1  0
  2 31  1  0
  5 32  1  0
  6 33  1  0
  9 34  1  0
 10 35  1  0
 13 36  1  0
 14 37  1  0
 14 38  1  0
 15 39  1  0
 15 40  1  0
 17 41  1  0
 17 42  1  0
 18 43  1  0
 18 44  1  0
 20 45  1  0
 20 46  1  0
 21 47  1  0
 21 48  1  0
 22 49  1  0
 22 50  1  0
 23 51  1  0
 23 52  1  0
 24 53  1  0
 26 54  1  0
 26 55  1  0
 26 56  1  0
M  END
>  <UniqueID>  (3) 
3

>  <SMILES>  (3) 
CCOc1ccc(-c2ccc3c(c2)CCN3CCN2CCCC2)cc1C

>  <Energy>  (3) 
74.28655605449137

>  <Genealogy>  (3) 
CCOc1ccc(-c2ccc3c(c2)CCN3CCN2CCCC2)cc1C (3D coordinates assigned)
CCOc1ccc(-c2ccc3c(c2)CCN3CCN2CCCC2)cc1C (nonaromatic ring conformer: 74.28655605449137 kcal/mol)

>  <smiles>  (3) 
CCOc1ccc(-c2ccc3c(c2)CCN3CCN2CCCC2)cc1C

>  <score_type>  (3) 
oracle

>  <origin>  (3) 
adg

>  <m_score__min__energy>  (3) 
-8.1099999999999994

>  <m_primary>  (3) 
energy

$$$$
3:0
     RDKit          3D

 38 40  0  0  0  0  0  0  0  0999 V2000
   65.3370   32.6020   50.1000 C   0  0  0  0  0  0  0  0  0  0  0  0
   64.4210   31.9470   49.2290 O   0  0  0  0  0  0  0  0  0  0  0  0
   63.3910   32.5940   48.5310 C   0  0  0  0  0  0  0  0  0  0  0  0
   63.4920   32.9170   47.1630 C   0  0  0  0  0  0  0  0  0  0  0  0
   62.4350   33.5600   46.5110 C   0  0  0  0  0  0  0  0  0  0  0  0
   61.2670   33.8790   47.2110 C   0  0  0  0  0  0  0  0  0  0  0  0
   59.9040   34.6930   46.3730 S   0  0  0  0  0  0  0  0  0  0  0  0
   59.0700   33.1410   46.0080 C   0  0  0  0  0  0  0  0  0  0  0  0
   59.6740   31.9390   46.3990 C   0  0  0  0  0  0  0  0  0  0  0  0
   59.0620   30.7160   46.1130 C   0  0  0  0  0  0  0  0  0  0  0  0
   57.8330   30.6850   45.4420 C   0  0  0  0  0  0  0  0  0  0  0  0
   57.0710   29.1480   45.0420 S   0  0  0  0  0  0  0  0  0  0  0  0
   55.5880   29.3300   44.8760 O   0  0  0  0  0  0  0  0  0  0  0  0
   57.6380   28.6400   43.7470 O   0  0  0  0  0  0  0  0  0  0  0  0
   57.3780   27.9860   46.2940 N   0  0  0  0  0  0  0  0  0  0  0  0
   56.6330   26.7690   45.9960 C   0  0  0  0  0  0  0  0  0  0  0  0
   57.2280   25.5490   46.6750 C   0  0  0  0  0  0  0  0  0  0  0  0
   57.4090   25.7520   45.1800 C   0  0  0  0  0  0  0  0  0  0  0  0
   57.2220   31.8850   45.0590 C   0  0  0  0  0  0  0  0  0  0  0  0
   57.8300   33.1130   45.3420 C   0  0  0  0  0  0  0  0  0  0  0  0
   57.0100   34.5930   44.8620 Cl  0  0  0  0  0  0  0  0  0  0  0  0
   61.1650   33.5680   48.5720 C   0  0  0  0  0  0  0  0  0  0  0  0
   62.2210   32.9250   49.2260 C   0  0  0  0  0  0  0  0  0  0  0  0
   65.0568   32.4016   51.1447 H   0  0  0  0  0  0  0  0  0  0  0  0
   66.3534   32.2247   49.9142 H   0  0  0  0  0  0  0  0  0  0  0  0
   65.3086   33.6858   49.9142 H   0  0  0  0  0  0  0  0  0  0  0  0
   64.4057   32.6624   46.6059 H   0  0  0  0  0  0  0  0  0  0  0  0
   62.5225   33.8156   45.4447 H   0  0  0  0  0  0  0  0  0  0  0  0
   60.6350   31.9581   46.9339 H   0  0  0  0  0  0  0  0  0  0  0  0
   59.5463   29.7758   46.4154 H   0  0  0  0  0  0  0  0  0  0  0  0
   55.6333   27.2208   45.9154 H   0  0  0  0  0  0  0  0  0  0  0  0
   58.0867   25.6609   47.3533 H   0  0  0  0  0  0  0  0  0  0  0  0
   56.8332   24.7409   47.3084 H   0  0  0  0  0  0  0  0  0  0  0  0
   58.3988   26.0108   44.7759 H   0  0  0  0  0  0  0  0  0  0  0  0
   57.1996   25.1517   44.2824 H   0  0  0  0  0  0  0  0  0  0  0  0
   56.2569   31.8623   44.5317 H   0  0  0  0  0  0  0  0  0  0  0  0
   60.2528   33.8298   49.1281 H   0  0  0  0  0  0  0  0  0  0  0  0
   62.1319   32.6775   50.2941 H   0  0  0  0  0  0  0  0  0  0  0  0
  1  2  1  0
  2  3  1  0
  3  4  2  0
  4  5  1  0
  5  6  2  0
  6  7  1  0
  7  8  1  0
  8  9  2  0
  9 10  1  0
 10 11  2  0
 11 12  1  0
 12 13  2  0
 12 14  2  0
 12 15  1  0
 15 16  1  0
 16 17  1  0
 17 18  1  0
 11 19  1  0
 19 20  2  0
 20 21  1  0
  6 22  1  0
 22 23  2  0
 23  3  1  0
 20  8  1  0
 18 16  1  0
  1 24  1  0
  1 25  1  0
  1 26  1  0
  4 27  1  0
  5 28  1  0
  9 29  1  0
 10 30  1  0
 16 31  1  0
 17 32  1  0
 17 33  1  0
 18 34  1  0
 18 35  1  0
 19 36  1  0
 22 37  1  0
 23 38  1  0
M  CHG  1  15  -1
M  END
>  <UniqueID>  (4) 
4

>  <SMILES>  (4) 
COc1ccc(Sc2ccc(S(=O)(=O)[N-]C3CC3)cc2Cl)cc1

>  <Energy>  (4) 
297.095257210314

>  <Genealogy>  (4) 
COc1ccc(Sc2ccc(S(=O)(=O)[N-]C3CC3)cc2Cl)cc1 (protonated)
COc1ccc(Sc2ccc(S(=O)(=O)[N-]C3CC3)cc2Cl)cc1 (3D coordinates assigned)
COc1ccc(Sc2ccc(S(=O)(=O)[N-]C3CC3)cc2Cl)cc1 (nonaromatic ring conformer: 297.095257210314 kcal/mol)

>  <smiles>  (4) 
COc1ccc(Sc2ccc(S(=O)(=O)NC3CC3)cc2Cl)cc1

>  <score_type>  (4) 
oracle

>  <origin>  (4) 
adg

>  <m_score__min__energy>  (4) 
-9.3000000000000007

>  <m_primary>  (4) 
energy

$$$$
4:0
     RDKit          3D

 45 48  0  0  0  0  0  0  0  0999 V2000
   57.2670   31.0330   44.4630 C   0  0  0  0  0  0  0  0  0  0  0  0
   57.5930   31.6510   45.7040 O   0  0  0  0  0  0  0  0  0  0  0  0
   58.2630   32.8800   45.8320 C   0  0  0  0  0  0  0  0  0  0  0  0
   58.5870   33.6700   44.7110 C   0  0  0  0  0  0  0  0  0  0  0  0
   59.2710   34.8770   44.8710 C   0  0  0  0  0  0  0  0  0  0  0  0
   59.6400   35.3100   46.1460 C   0  0  0  0  0  0  0  0  0  0  0  0
   59.3230   34.5380   47.2640 C   0  0  0  0  0  0  0  0  0  0  0  0
   58.6240   33.3280   47.1190 C   0  0  0  0  0  0  0  0  0  0  0  0
   58.3250   32.4880   48.3370 C   0  0  0  0  0  0  0  0  0  0  0  0
   59.4620   31.6260   48.6770 N   0  0  0  0  0  0  0  0  0  0  0  0
   59.3140   30.2120   48.6690 C   0  0  0  0  0  0  0  0  0  0  0  0
   59.0100   29.6170   49.7380 O   0  0  0  0  0  0  0  0  0  0  0  0
   59.4480   29.4650   47.4120 C   0  0  0  0  0  0  0  0  0  0  0  0
   58.6860   28.2950   47.2490 C   0  0  0  0  0  0  0  0  0  0  0  0
   58.6870   27.6130   46.0380 C   0  0  0  0  0  0  0  0  0  0  0  0
   59.4460   28.1060   44.9830 C   0  0  0  0  0  0  0  0  0  0  0  0
   60.1930   29.2290   45.1470 N   0  0  0  0  0  0  0  0  0  0  0  0
   60.2450   29.9150   46.3260 C   0  0  0  0  0  0  0  0  0  0  0  0
   61.1390   31.0050   46.3720 O   0  0  0  0  0  0  0  0  0  0  0  0
   61.5810   31.7980   47.4440 C   0  0  0  0  0  0  0  0  0  0  0  0
   62.8700   32.3390   47.3490 C   0  0  0  0  0  0  0  0  0  0  0  0
   63.3680   33.1860   48.3420 C   0  0  0  0  0  0  0  0  0  0  0  0
   62.5710   33.5260   49.4410 C   0  0  0  0  0  0  0  0  0  0  0  0
   63.0970   34.4240   50.5230 C   0  0  0  0  0  0  0  0  0  0  0  0
   61.2810   32.9900   49.5440 C   0  0  0  0  0  0  0  0  0  0  0  0
   60.7830   32.1330   48.5530 C   0  0  0  0  0  0  0  0  0  0  0  0
   56.7614   30.0746   44.6523 H   0  0  0  0  0  0  0  0  0  0  0  0
   56.5995   31.6926   43.8891 H   0  0  0  0  0  0  0  0  0  0  0  0
   58.1883   30.8545   43.8891 H   0  0  0  0  0  0  0  0  0  0  0  0
   58.2994   33.3339   43.7038 H   0  0  0  0  0  0  0  0  0  0  0  0
   59.5196   35.4879   43.9906 H   0  0  0  0  0  0  0  0  0  0  0  0
   60.1807   36.2600   46.2691 H   0  0  0  0  0  0  0  0  0  0  0  0
   59.6224   34.8791   48.2660 H   0  0  0  0  0  0  0  0  0  0  0  0
   58.1109   33.1520   49.1874 H   0  0  0  0  0  0  0  0  0  0  0  0
   57.4568   31.8497   48.1162 H   0  0  0  0  0  0  0  0  0  0  0  0
   58.0835   27.9158   48.0875 H   0  0  0  0  0  0  0  0  0  0  0  0
   58.0944   26.6943   45.9159 H   0  0  0  0  0  0  0  0  0  0  0  0
   59.4419   27.5860   44.0137 H   0  0  0  0  0  0  0  0  0  0  0  0
   60.7690   29.5610   44.3410 H   0  0  0  0  0  0  0  0  0  0  0  0
   63.4986   32.0933   46.4804 H   0  0  0  0  0  0  0  0  0  0  0  0
   64.3891   33.5867   48.2599 H   0  0  0  0  0  0  0  0  0  0  0  0
   62.8477   33.9984   51.5062 H   0  0  0  0  0  0  0  0  0  0  0  0
   64.1893   34.5119   50.4278 H   0  0  0  0  0  0  0  0  0  0  0  0
   62.6394   35.4198   50.4278 H   0  0  0  0  0  0  0  0  0  0  0  0
   60.6530   33.2440   50.4106 H   0  0  0  0  0  0  0  0  0  0  0  0
  1  2  1  0
  2  3  1  0
  3  4  2  0
  4  5  1  0
  5  6  2  0
  6  7  1  0
  7  8  2  0
  8  9  1  0
  9 10  1  0
 10 11  1  0
 11 12  2  0
 11 13  1  0
 13 14  2  0
 14 15  1  0
 15 16  2  0
 16 17  1  0
 17 18  2  0
 18 19  1  0
 19 20  1  0
 20 21  2  0
 21 22  1  0
 22 23  2  0
 23 24  1  0
 23 25  1  0
 25 26  2  0
  8  3  1  0
 26 10  1  0
 18 13  1  0
 26 20  1  0
  1 27  1  0
  1 28  1  0
  1 29  1  0
  4 30  1  0
  5 31  1  0
  6 32  1  0
  7 33  1  0
  9 34  1  0
  9 35  1  0
 14 36  1  0
 15 37  1  0
 16 38  1  0
 17 39  1  0
 21 40  1  0
 22 41  1  0
 24 42  1  0
 24 43  1  0
 24 44  1  0
 25 45  1  0
M  CHG  1  17   1
M  END
>  <UniqueID>  (5) 
5

>  <SMILES>  (5) 
COc1ccccc1CN1C(=O)c2ccc[nH+]c2Oc2ccc(C)cc21

>  <Energy>  (5) 
75.46707126410867

>  <Genealogy>  (5) 
COc1ccccc1CN1C(=O)c2ccc[nH+]c2Oc2ccc(C)cc21 (protonated)
COc1ccccc1CN1C(=O)c2ccc[nH+]c2Oc2ccc(C)cc21 (3D coordinates assigned)
COc1ccccc1CN1C(=O)c2ccc[nH+]c2Oc2ccc(C)cc21 (nonaromatic ring conformer: 75.46707126410867 kcal/mol)

>  <smiles>  (5) 
COc1ccccc1CN1C(=O)c2cccnc2Oc2ccc(C)cc21

>  <score_type>  (5) 
oracle

>  <origin>  (5) 
adg

>  <m_score__min__energy>  (5) 
-6.2400000000000002

>  <m_primary>  (5) 
energy

$$$$
5:0
     RDKit          3D

 30 32  0  0  0  0  0  0  0  0999 V2000
   56.6330   30.5160   43.2470 C   0  0  0  0  0  0  0  0  0  0  0  0
   56.5220   31.2350   44.4610 O   0  0  0  0  0  0  0  0  0  0  0  0
   57.6100   31.8120   45.0850 C   0  0  0  0  0  0  0  0  0  0  0  0
   57.8200   33.1810   45.0490 C   0  0  0  0  0  0  0  0  0  0  0  0
   58.9090   33.7760   45.6720 C   0  0  0  0  0  0  0  0  0  0  0  0
   59.8220   32.9650   46.3550 C   0  0  0  0  0  0  0  0  0  0  0  0
   60.9040   33.4720   46.9840 F   0  0  0  0  0  0  0  0  0  0  0  0
   59.5980   31.5990   46.3810 C   0  0  0  0  0  0  0  0  0  0  0  0
   58.5110   31.0120   45.7590 C   0  0  0  0  0  0  0  0  0  0  0  0
   58.3810   29.5990   45.8510 N   0  0  0  0  0  0  0  0  0  0  0  0
   59.4720   28.7800   45.9110 C   0  0  0  0  0  0  0  0  0  0  0  0
   59.0520   27.4740   45.9950 C   0  0  0  0  0  0  0  0  0  0  0  0
   59.7210   26.2930   46.0750 N   0  0  0  0  0  0  0  0  0  0  0  0
   59.0480   25.1160   46.1490 C   0  0  0  0  0  0  0  0  0  0  0  0
   57.6960   25.1300   46.1410 N   0  0  0  0  0  0  0  0  0  0  0  0
   57.0120   26.3010   46.0610 C   0  0  0  0  0  0  0  0  0  0  0  0
   55.7210   26.2910   46.0550 N   0  0  0  0  0  0  0  0  0  0  0  0
   57.6740   27.5080   45.9840 C   0  0  0  0  0  0  0  0  0  0  0  0
   57.2760   28.8390   45.8950 C   0  0  0  0  0  0  0  0  0  0  0  0
   56.7975   29.4506   43.4656 H   0  0  0  0  0  0  0  0  0  0  0  0
   55.7063   30.6323   42.6659 H   0  0  0  0  0  0  0  0  0  0  0  0
   57.4815   30.9063   42.6659 H   0  0  0  0  0  0  0  0  0  0  0  0
   57.1017   33.8163   44.5101 H   0  0  0  0  0  0  0  0  0  0  0  0
   59.0514   34.8659   45.6293 H   0  0  0  0  0  0  0  0  0  0  0  0
   60.3118   30.9560   46.9168 H   0  0  0  0  0  0  0  0  0  0  0  0
   60.5204   29.1126   45.8947 H   0  0  0  0  0  0  0  0  0  0  0  0
   59.5953   24.1641   46.2146 H   0  0  0  0  0  0  0  0  0  0  0  0
   57.2090   24.2010   46.2010 H   0  0  0  0  0  0  0  0  0  0  0  0
   55.1350   26.3500   46.9000 H   0  0  0  0  0  0  0  0  0  0  0  0
   56.2385   29.2035   45.8659 H   0  0  0  0  0  0  0  0  0  0  0  0
  1  2  1  0
  2  3  1  0
  3  4  2  0
  4  5  1  0
  5  6  2  0
  6  7  1  0
  6  8  1  0
  8  9  2  0
  9 10  1  0
 10 11  1  0
 11 12  2  0
 12 13  1  0
 13 14  2  0
 14 15  1  0
 15 16  1  0
 16 17  2  3
 16 18  1  0
 18 19  2  0
  9  3  1  0
 19 10  1  0
 18 12  1  0
  1 20  1  0
  1 21  1  0
  1 22  1  0
  4 23  1  0
  5 24  1  0
  8 25  1  0
 11 26  1  0
 14 27  1  0
 15 28  1  0
 17 29  1  0
 19 30  1  0
M  END
>  <smiles>  (6) 
COc1ccc(F)cc1-n1cc2nc[nH]c(=N)c2c1

>  <score_type>  (6) 
oracle

>  <origin>  (6) 
adg

>  <m_score__min__energy>  (6) 
-6.0300000000000002

>  <m_primary>  (6) 
energy

$$$$
6:0
     RDKit          3D

 52 56  0  0  0  0  0  0  0  0999 V2000
   57.3430   34.0630   44.8740 C   0  0  0  0  0  0  0  0  0  0  0  0
   57.0580   33.4880   46.1140 C   0  0  0  0  0  0  0  0  0  0  0  0
   58.0550   33.3920   47.0890 C   0  0  0  0  0  0  0  0  0  0  0  0
   59.3500   33.8810   46.8370 C   0  0  0  0  0  0  0  0  0  0  0  0
   60.3990   33.7640   47.8820 C   0  0  0  0  0  0  0  0  0  0  0  0
   60.0790   33.5170   49.2330 C   0  0  0  0  0  0  0  0  0  0  0  0
   61.0990   33.4290   50.1300 N   0  0  0  0  0  0  0  0  0  0  0  0
   61.0660   33.2520   51.4700 C   0  0  0  0  0  0  0  0  0  0  0  0
   59.8260   33.1600   52.3210 C   0  0  0  0  0  0  0  0  0  0  0  0
   58.7350   32.4840   51.5880 N   0  0  0  0  0  0  0  0  0  0  0  0
   59.1330   31.1220   51.1540 C   0  0  0  0  0  0  0  0  0  0  0  0
   57.9060   30.2570   50.8380 C   0  0  0  0  0  0  0  0  0  0  0  0
   57.0360   30.0740   52.0150 N   0  0  0  0  0  0  0  0  0  0  0  0
   57.1550   31.1510   53.0160 C   0  0  0  0  0  0  0  0  0  0  0  0
   57.4640   32.5050   52.3600 C   0  0  0  0  0  0  0  0  0  0  0  0
   62.3600   33.2730   51.9700 C   0  0  0  0  0  0  0  0  0  0  0  0
   63.2110   33.4430   50.8850 C   0  0  0  0  0  0  0  0  0  0  0  0
   64.6870   33.5120   50.9500 C   0  0  0  0  0  0  0  0  0  0  0  0
   65.3280   34.4330   51.7980 C   0  0  0  0  0  0  0  0  0  0  0  0
   66.7240   34.5000   51.8390 C   0  0  0  0  0  0  0  0  0  0  0  0
   67.4910   33.6590   51.0280 C   0  0  0  0  0  0  0  0  0  0  0  0
   66.8620   32.7530   50.1700 C   0  0  0  0  0  0  0  0  0  0  0  0
   65.4660   32.6830   50.1250 C   0  0  0  0  0  0  0  0  0  0  0  0
   62.3890   33.5470   49.7710 C   0  0  0  0  0  0  0  0  0  0  0  0
   62.7240   33.8010   48.4420 C   0  0  0  0  0  0  0  0  0  0  0  0
   61.7160   33.8980   47.5310 N   0  0  0  0  0  0  0  0  0  0  0  0
   59.6280   34.4490   45.5770 C   0  0  0  0  0  0  0  0  0  0  0  0
   58.6270   34.5400   44.6060 C   0  0  0  0  0  0  0  0  0  0  0  0
   56.5563   34.1400   44.1090 H   0  0  0  0  0  0  0  0  0  0  0  0
   56.0467   33.1097   46.3241 H   0  0  0  0  0  0  0  0  0  0  0  0
   57.8254   32.9306   48.0608 H   0  0  0  0  0  0  0  0  0  0  0  0
   59.0333   33.3986   49.5533 H   0  0  0  0  0  0  0  0  0  0  0  0
   60.0559   32.5889   53.2326 H   0  0  0  0  0  0  0  0  0  0  0  0
   59.4993   34.1782   52.5790 H   0  0  0  0  0  0  0  0  0  0  0  0
   59.7573   31.2015   50.2518 H   0  0  0  0  0  0  0  0  0  0  0  0
   59.6918   30.6459   51.9732 H   0  0  0  0  0  0  0  0  0  0  0  0
   57.3254   30.7435   50.0404 H   0  0  0  0  0  0  0  0  0  0  0  0
   58.2635   29.2651   50.5245 H   0  0  0  0  0  0  0  0  0  0  0  0
   57.2910   29.1720   52.4820 H   0  0  0  0  0  0  0  0  0  0  0  0
   56.2071   31.2306   53.5683 H   0  0  0  0  0  0  0  0  0  0  0  0
   57.9855   30.9002   53.6922 H   0  0  0  0  0  0  0  0  0  0  0  0
   56.6406   32.7632   51.6779 H   0  0  0  0  0  0  0  0  0  0  0  0
   57.5712   33.2498   53.1624 H   0  0  0  0  0  0  0  0  0  0  0  0
   62.6559   33.1739   53.0248 H   0  0  0  0  0  0  0  0  0  0  0  0
   64.7286   35.1033   52.4315 H   0  0  0  0  0  0  0  0  0  0  0  0
   67.2196   35.2161   52.5110 H   0  0  0  0  0  0  0  0  0  0  0  0
   68.5892   33.7102   51.0651 H   0  0  0  0  0  0  0  0  0  0  0  0
   67.4658   32.0938   49.5290 H   0  0  0  0  0  0  0  0  0  0  0  0
   64.9753   31.9755   49.4404 H   0  0  0  0  0  0  0  0  0  0  0  0
   63.7742   33.9199   48.1371 H   0  0  0  0  0  0  0  0  0  0  0  0
   60.6388   34.8228   45.3568 H   0  0  0  0  0  0  0  0  0  0  0  0
   58.8518   34.9890   43.6273 H   0  0  0  0  0  0  0  0  0  0  0  0
  1  2  2  0
  2  3  1  0
  3  4  2  0
  4  5  1  0
  5  6  2  0
  6  7  1  0
  7  8  1  0
  8  9  1  0
  9 10  1  0
 10 11  1  0
 11 12  1  0
 12 13  1  0
 13 14  1  0
 14 15  1  0
  8 16  2  0
 16 17  1  0
 17 18  1  0
 18 19  2  0
 19 20  1  0
 20 21  2  0
 21 22  1  0
 22 23  2  0
 17 24  2  0
 24 25  1  0
 25 26  2  0
  4 27  1  0
 27 28  2  0
 28  1  1  0
 26  5  1  0
 24  7  1  0
 15 10  1  0
 23 18  1  0
  1 29  1  0
  2 30  1  0
  3 31  1  0
  6 32  1  0
  9 33  1  0
  9 34  1  0
 11 35  1  0
 11 36  1  0
 12 37  1  0
 12 38  1  0
 13 39  1  0
 14 40  1  0
 14 41  1  0
 15 42  1  0
 15 43  1  0
 16 44  1  0
 19 45  1  0
 20 46  1  0
 21 47  1  0
 22 48  1  0
 23 49  1  0
 25 50  1  0
 27 51  1  0
 28 52  1  0
M  END
>  <UniqueID>  (7) 
6

>  <SMILES>  (7) 
c1ccc(-c2cn3c(CN4CCNCC4)cc(-c4ccccc4)c3cn2)cc1

>  <Energy>  (7) 
109.39399805453601

>  <Genealogy>  (7) 
c1ccc(-c2cn3c(CN4CCNCC4)cc(-c4ccccc4)c3cn2)cc1 (3D coordinates assigned)
c1ccc(-c2cn3c(CN4CCNCC4)cc(-c4ccccc4)c3cn2)cc1 (nonaromatic ring conformer: 109.39399805453601 kcal/mol)

>  <smiles>  (7) 
c1ccc(-c2cn3c(CN4CCNCC4)cc(-c4ccccc4)c3cn2)cc1

>  <score_type>  (7) 
oracle

>  <origin>  (7) 
adg

>  <m_score__min__energy>  (7) 
-8.3599999999999994

>  <m_primary>  (7) 
energy

$$$$
7:0
     RDKit          3D

 34 35  0  0  0  0  0  0  0  0999 V2000
   56.1962   33.1152   44.9262 H   0  0  0  0  0  0  0  0  0  0  0  0
   57.2300   32.7960   44.7280 C   0  0  0  0  0  0  0  0  0  0  0  0
   57.4100   31.7870   43.8570 C   0  0  0  0  0  0  0  0  0  0  0  0
   57.8200   32.1040   42.5120 C   0  0  0  0  0  0  0  0  0  0  0  0
   58.1490   32.3590   41.4320 N   0  0  0  0  0  0  0  0  0  0  0  0
   57.1500   30.3670   44.1800 C   0  0  0  0  0  0  0  0  0  0  0  0
   56.1400   30.0690   44.8730 O   0  0  0  0  0  0  0  0  0  0  0  0
   58.0750   29.3440   43.7780 N   0  0  0  0  0  0  0  0  0  0  0  0
   58.9920   29.6220   43.3610 H   0  0  0  0  0  0  0  0  0  0  0  0
   57.8420   27.9250   44.0450 C   0  0  0  0  0  0  0  0  0  0  0  0
   56.7898   27.7789   44.3304 H   0  0  0  0  0  0  0  0  0  0  0  0
   58.5058   27.6041   44.8613 H   0  0  0  0  0  0  0  0  0  0  0  0
   58.1460   27.0890   42.8070 C   0  0  0  0  0  0  0  0  0  0  0  0
   58.5069   26.0964   43.1144 H   0  0  0  0  0  0  0  0  0  0  0  0
   57.2311   26.9767   42.2066 H   0  0  0  0  0  0  0  0  0  0  0  0
   58.9193   27.5906   42.2066 H   0  0  0  0  0  0  0  0  0  0  0  0
   58.3090   33.5090   45.4390 C   0  0  0  0  0  0  0  0  0  0  0  0
   58.7640   33.1320   46.6100 O   0  0  0  0  0  0  0  0  0  0  0  0
   59.6960   33.9740   46.9960 C   0  0  0  0  0  0  0  0  0  0  0  0
   60.4410   33.8690   48.2750 C   0  0  0  0  0  0  0  0  0  0  0  0
   59.7310   33.8830   49.4920 C   0  0  0  0  0  0  0  0  0  0  0  0
   58.6358   33.9856   49.4819 H   0  0  0  0  0  0  0  0  0  0  0  0
   60.4030   33.7680   50.7110 C   0  0  0  0  0  0  0  0  0  0  0  0
   59.8358   33.7785   51.6534 H   0  0  0  0  0  0  0  0  0  0  0  0
   61.7910   33.6400   50.7360 C   0  0  0  0  0  0  0  0  0  0  0  0
   62.3179   33.5485   51.6972 H   0  0  0  0  0  0  0  0  0  0  0  0
   62.5110   33.6280   49.5420 C   0  0  0  0  0  0  0  0  0  0  0  0
   63.6062   33.5282   49.5665 H   0  0  0  0  0  0  0  0  0  0  0  0
   61.8510   33.7420   48.3110 C   0  0  0  0  0  0  0  0  0  0  0  0
   62.9470   33.7830   46.7330 Br  0  0  0  0  0  0  0  0  0  0  0  0
   59.8490   34.9640   46.0380 C   0  0  0  0  0  0  0  0  0  0  0  0
   60.5466   35.8139   46.0700 H   0  0  0  0  0  0  0  0  0  0  0  0
   58.9500   34.6670   45.0380 C   0  0  0  0  0  0  0  0  0  0  0  0
   58.7773   35.2339   44.1113 H   0  0  0  0  0  0  0  0  0  0  0  0
  1  2  1  0
  2  3  2  0
  3  4  1  0
  4  5  3  0
  3  6  1  0
  6  7  2  0
  6  8  1  0
  8  9  1  0
  8 10  1  0
 10 11  1  0
 10 12  1  0
 10 13  1  0
 13 14  1  0
 13 15  1  0
 13 16  1  0
  2 17  1  0
 17 18  1  0
 18 19  1  0
 19 20  1  0
 20 21  2  0
 21 22  1  0
 21 23  1  0
 23 24  1  0
 23 25  2  0
 25 26  1  0
 25 27  1  0
 27 28  1  0
 27 29  2  0
 29 30  1  0
 19 31  2  0
 31 32  1  0
 31 33  1  0
 33 34  1  0
 33 17  2  0
 29 20  1  0
M  END
>  <UniqueID>  (8) 
7

>  <SMILES>  (8) 
CCNC(=O)/C(C#N)=C\c1ccc(-c2ccccc2Br)o1

>  <Energy>  (8) 
65.82159875142315

>  <Genealogy>  (8) 
CCNC(=O)/C(C#N)=C\c1ccc(-c2ccccc2Br)o1 (cis-trans isomerization)
CCNC(=O)/C(C#N)=C\c1ccc(-c2ccccc2Br)o1 (3D coordinates assigned)
CCNC(=O)/C(C#N)=C\c1ccc(-c2ccccc2Br)o1 (optimized conformer: 65.82159875142315 kcal/mol)

>  <smiles>  (8) 
CCNC(=O)C(C#N)=Cc1ccc(-c2ccccc2Br)o1

>  <score_type>  (8) 
oracle

>  <origin>  (8) 
adg

>  <m_score__min__energy>  (8) 
-8.3900000000000006

>  <m_primary>  (8) 
energy

$$$$
8:0
     RDKit          3D

 42 43  0  0  0  0  0  0  0  0999 V2000
   57.4020   32.3920   40.7430 C   0  0  0  0  0  0  0  0  0  0  0  0
   58.1390   32.3390   42.0810 C   0  0  0  0  0  0  0  0  0  0  0  0
   57.4140   31.4680   43.1170 C   0  0  0  0  0  0  0  0  0  0  0  0
   57.7690   31.8570   44.5280 C   0  0  0  0  0  0  0  0  0  0  0  0
   58.5200   30.9910   45.3380 C   0  0  0  0  0  0  0  0  0  0  0  0
   58.8830   31.3720   46.6320 C   0  0  0  0  0  0  0  0  0  0  0  0
   58.5090   32.6290   47.1360 C   0  0  0  0  0  0  0  0  0  0  0  0
   58.9210   33.0350   48.4580 N   0  0  0  0  0  0  0  0  0  0  0  0
   58.4090   32.3170   49.6340 C   0  0  0  0  0  0  0  0  0  0  0  0
   58.9990   32.8740   50.9270 C   0  0  0  0  0  0  0  0  0  0  0  0
   59.7840   34.2140   48.6410 C   0  0  0  0  0  0  0  0  0  0  0  0
   61.1880   33.9250   48.1740 C   0  0  0  0  0  0  0  0  0  0  0  0
   62.2100   33.6700   49.1070 C   0  0  0  0  0  0  0  0  0  0  0  0
   63.5210   33.4510   48.6740 C   0  0  0  0  0  0  0  0  0  0  0  0
   63.8240   33.4870   47.3100 C   0  0  0  0  0  0  0  0  0  0  0  0
   62.8150   33.7420   46.3780 C   0  0  0  0  0  0  0  0  0  0  0  0
   61.5040   33.9620   46.8060 C   0  0  0  0  0  0  0  0  0  0  0  0
   57.7500   33.4900   46.3270 C   0  0  0  0  0  0  0  0  0  0  0  0
   57.3860   33.1090   45.0330 C   0  0  0  0  0  0  0  0  0  0  0  0
   56.3197   32.4698   40.9234 H   0  0  0  0  0  0  0  0  0  0  0  0
   57.7424   33.2680   40.1713 H   0  0  0  0  0  0  0  0  0  0  0  0
   57.6135   31.4763   40.1713 H   0  0  0  0  0  0  0  0  0  0  0  0
   59.1444   31.9253   41.9139 H   0  0  0  0  0  0  0  0  0  0  0  0
   58.1845   33.3636   42.4786 H   0  0  0  0  0  0  0  0  0  0  0  0
   56.3286   31.5818   42.9796 H   0  0  0  0  0  0  0  0  0  0  0  0
   57.7271   30.4248   42.9629 H   0  0  0  0  0  0  0  0  0  0  0  0
   58.8243   30.0070   44.9518 H   0  0  0  0  0  0  0  0  0  0  0  0
   59.4658   30.6829   47.2609 H   0  0  0  0  0  0  0  0  0  0  0  0
   57.3142   32.4191   49.6670 H   0  0  0  0  0  0  0  0  0  0  0  0
   58.7000   31.2597   49.5479 H   0  0  0  0  0  0  0  0  0  0  0  0
   58.5019   32.4048   51.7888 H   0  0  0  0  0  0  0  0  0  0  0  0
   60.0767   32.6562   50.9620 H   0  0  0  0  0  0  0  0  0  0  0  0
   58.8435   33.9624   50.9620 H   0  0  0  0  0  0  0  0  0  0  0  0
   59.3759   35.0539   48.0596 H   0  0  0  0  0  0  0  0  0  0  0  0
   59.8127   34.4683   49.7108 H   0  0  0  0  0  0  0  0  0  0  0  0
   61.9764   33.6429   50.1816 H   0  0  0  0  0  0  0  0  0  0  0  0
   64.3154   33.2500   49.4079 H   0  0  0  0  0  0  0  0  0  0  0  0
   64.8561   33.3147   46.9707 H   0  0  0  0  0  0  0  0  0  0  0  0
   63.0537   33.7696   45.3046 H   0  0  0  0  0  0  0  0  0  0  0  0
   60.7145   34.1654   46.0676 H   0  0  0  0  0  0  0  0  0  0  0  0
   57.4398   34.4715   46.7148 H   0  0  0  0  0  0  0  0  0  0  0  0
   56.7960   33.7942   44.4066 H   0  0  0  0  0  0  0  0  0  0  0  0
  1  2  1  0
  2  3  1  0
  3  4  1  0
  4  5  2  0
  5  6  1  0
  6  7  2  0
  7  8  1  0
  8  9  1  0
  9 10  1  0
  8 11  1  0
 11 12  1  0
 12 13  2  0
 13 14  1  0
 14 15  2  0
 15 16  1  0
 16 17  2  0
  7 18  1  0
 18 19  2  0
 19  4  1  0
 17 12  1  0
  1 20  1  0
  1 21  1  0
  1 22  1  0
  2 23  1  0
  2 24  1  0
  3 25  1  0
  3 26  1  0
  5 27  1  0
  6 28  1  0
  9 29  1  0
  9 30  1  0
 10 31  1  0
 10 32  1  0
 10 33  1  0
 11 34  1  0
 11 35  1  0
 13 36  1  0
 14 37  1  0
 15 38  1  0
 16 39  1  0
 17 40  1  0
 18 41  1  0
 19 42  1  0
M  END
>  <UniqueID>  (9) 
8

>  <SMILES>  (9) 
CCCc1ccc(N(CC)Cc2ccccc2)cc1

>  <Energy>  (9) 
35.920462611838516

>  <Genealogy>  (9) 
CCCc1ccc(N(CC)Cc2ccccc2)cc1 (3D coordinates assigned)
CCCc1ccc(N(CC)Cc2ccccc2)cc1 (optimized conformer: 35.920462611838516 kcal/mol)

>  <smiles>  (9) 
CCCc1ccc(N(CC)Cc2ccccc2)cc1

>  <score_type>  (9) 
oracle

>  <origin>  (9) 
adg

>  <m_score__min__energy>  (9) 
-6.6900000000000004

>  <m_primary>  (9) 
energy

$$$$
9:0
     RDKit          3D

 37 38  0  0  0  0  0  0  0  0999 V2000
   57.7530   32.3350   41.2710 C   0  0  0  0  0  0  0  0  0  0  0  0
   56.9940   31.2450   42.0300 C   0  0  0  0  0  0  0  0  0  0  0  0
   57.4390   31.0990   43.4680 C   0  0  0  0  0  0  0  0  0  0  0  0
   57.8900   32.1320   44.1120 N   0  0  0  0  0  0  0  0  0  0  0  0
   58.2960   32.0820   45.4820 C   0  0  0  0  0  0  0  0  0  0  0  0
   58.5840   33.2800   46.1450 C   0  0  0  0  0  0  0  0  0  0  0  0
   59.0370   33.2690   47.4680 C   0  0  0  0  0  0  0  0  0  0  0  0
   59.3790   34.5540   48.1630 C   0  0  0  0  0  0  0  0  0  0  0  0
   59.2570   32.0430   48.1060 C   0  0  0  0  0  0  0  0  0  0  0  0
   58.9820   30.8420   47.4470 C   0  0  0  0  0  0  0  0  0  0  0  0
   58.4550   30.8390   46.1390 C   0  0  0  0  0  0  0  0  0  0  0  0
   58.2090   29.5390   45.3500 C   0  0  1  0  0  0  0  0  0  0  0  0
   59.5460   29.1230   44.6900 C   0  0  0  0  0  0  0  0  0  0  0  0
   57.6180   28.3930   46.2540 C   0  0  0  0  0  0  0  0  0  0  0  0
   56.7880   27.3380   45.5700 C   0  0  0  0  0  0  0  0  0  0  0  0
   55.5310   27.3870   45.6260 O   0  0  0  0  0  0  0  0  0  0  0  0
   57.3940   26.3660   44.7840 O   0  0  0  0  0  0  0  0  0  0  0  0
   57.1440   29.8230   44.2350 C   0  0  2  0  0  0  0  0  0  0  0  0
   57.0520   28.7260   43.3570 O   0  0  0  0  0  0  0  0  0  0  0  0
   58.2290   33.0185   41.9895 H   0  0  0  0  0  0  0  0  0  0  0  0
   58.5250   31.8719   40.6389 H   0  0  0  0  0  0  0  0  0  0  0  0
   57.0508   32.8984   40.6389 H   0  0  0  0  0  0  0  0  0  0  0  0
   55.9224   31.4933   42.0193 H   0  0  0  0  0  0  0  0  0  0  0  0
   57.2024   30.2902   41.5252 H   0  0  0  0  0  0  0  0  0  0  0  0
   58.4530   34.2384   45.6213 H   0  0  0  0  0  0  0  0  0  0  0  0
   59.3390   34.4038   49.2520 H   0  0  0  0  0  0  0  0  0  0  0  0
   60.3923   34.8691   47.8733 H   0  0  0  0  0  0  0  0  0  0  0  0
   58.6564   35.3311   47.8733 H   0  0  0  0  0  0  0  0  0  0  0  0
   59.6492   32.0247   49.1335 H   0  0  0  0  0  0  0  0  0  0  0  0
   59.1791   29.8865   47.9551 H   0  0  0  0  0  0  0  0  0  0  0  0
   60.2849   28.8931   45.4718 H   0  0  0  0  0  0  0  0  0  0  0  0
   59.3848   28.2326   44.0646 H   0  0  0  0  0  0  0  0  0  0  0  0
   59.9184   29.9477   44.0646 H   0  0  0  0  0  0  0  0  0  0  0  0
   58.4639   27.8852   46.7404 H   0  0  0  0  0  0  0  0  0  0  0  0
   56.9237   28.9010   46.9395 H   0  0  0  0  0  0  0  0  0  0  0  0
   56.1751   29.9662   44.7357 H   0  0  0  0  0  0  0  0  0  0  0  0
   56.4300   28.0710   43.7690 H   0  0  0  0  0  0  0  0  0  0  0  0
  1  2  1  0
  2  3  1  0
  3  4  2  0
  4  5  1  0
  5  6  2  0
  6  7  1  0
  7  8  1  0
  7  9  2  0
  9 10  1  0
 10 11  2  0
 11 12  1  0
 12 13  1  6
 12 14  1  0
 14 15  1  0
 15 16  2  0
 15 17  1  0
 12 18  1  0
 18 19  1  0
 18  3  1  0
 11  5  1  0
  1 20  1  0
  1 21  1  0
  1 22  1  0
  2 23  1  0
  2 24  1  0
  6 25  1  0
  8 26  1  0
  8 27  1  0
  8 28  1  0
  9 29  1  0
 10 30  1  0
 13 31  1  0
 13 32  1  0
 13 33  1  0
 14 34  1  0
 14 35  1  0
 18 36  1  1
 19 37  1  0
M  CHG  1  17  -1
M  END
>  <UniqueID>  (10) 
9

>  <SMILES>  (10) 
CCC1=Nc2cc(C)ccc2[C@@](C)(CC(=O)[O-])[C@@H]1O

>  <Energy>  (10) 
45.29153409680934

>  <Genealogy>  (10) 
CCC1=Nc2cc(C)ccc2C(C)(CC(=O)[O-])C1O (protonated)
CCC1=Nc2cc(C)ccc2[C@@](C)(CC(=O)[O-])[C@@H]1O (chirality)
CCC1=Nc2cc(C)ccc2[C@@](C)(CC(=O)[O-])[C@@H]1O (3D coordinates assigned)
CCC1=Nc2cc(C)ccc2[C@@](C)(CC(=O)[O-])[C@@H]1O (nonaromatic ring conformer: 45.29153409680934 kcal/mol)

>  <smiles>  (10) 
CCC1=Nc2cc(C)ccc2C(C)(CC(=O)O)C1O

>  <score_type>  (10) 
oracle

>  <origin>  (10) 
adg

>  <m_score__min__energy>  (10) 
-9.4900000000000002

>  <m_primary>  (10) 
energy

$$$$
10:0
     RDKit          3D

 41 43  0  0  0  0  0  0  0  0999 V2000
   56.5640   29.4630   42.6410 C   0  0  0  0  0  0  0  0  0  0  0  0
   55.5330   29.7620   43.7230 C   0  0  0  0  0  0  0  0  0  0  0  0
   56.1680   30.4000   44.8710 N   0  0  0  0  0  0  0  0  0  0  0  0
   56.9010   31.6320   44.8500 C   0  0  0  0  0  0  0  0  0  0  0  0
   56.3320   32.6790   45.2530 O   0  0  0  0  0  0  0  0  0  0  0  0
   58.3400   31.7060   44.4130 C   0  0  0  0  0  0  0  0  0  0  0  0
   59.2440   31.5610   45.5600 N   0  0  0  0  0  0  0  0  0  0  0  0
   59.9660   32.5510   46.1150 C   0  0  0  0  0  0  0  0  0  0  0  0
   60.7660   31.9990   47.0910 C   0  0  0  0  0  0  0  0  0  0  0  0
   61.7300   32.7200   47.9320 C   0  0  0  0  0  0  0  0  0  0  0  0
   63.1130   32.6290   47.8420 C   0  0  0  0  0  0  0  0  0  0  0  0
   63.7800   33.4350   48.7740 C   0  0  0  0  0  0  0  0  0  0  0  0
   62.9290   34.1610   49.5970 C   0  0  0  0  0  0  0  0  0  0  0  0
   61.3450   33.8000   49.1650 S   0  0  0  0  0  0  0  0  0  0  0  0
   60.5520   30.6700   47.1630 N   0  0  0  0  0  0  0  0  0  0  0  0
   59.6080   30.4370   46.2250 C   0  0  0  0  0  0  0  0  0  0  0  0
   59.0810   29.0840   45.9630 C   0  0  0  0  0  0  0  0  0  0  0  0
   59.1460   28.5230   44.6790 C   0  0  0  0  0  0  0  0  0  0  0  0
   58.6350   27.2430   44.4420 C   0  0  0  0  0  0  0  0  0  0  0  0
   58.0500   26.5110   45.4860 C   0  0  0  0  0  0  0  0  0  0  0  0
   57.4660   25.1550   45.2230 C   0  0  0  0  0  0  0  0  0  0  0  0
   57.9470   27.0900   46.7600 C   0  0  0  0  0  0  0  0  0  0  0  0
   58.4590   28.3690   46.9960 C   0  0  0  0  0  0  0  0  0  0  0  0
   57.5191   29.1860   43.1111 H   0  0  0  0  0  0  0  0  0  0  0  0
   56.2083   28.6310   42.0155 H   0  0  0  0  0  0  0  0  0  0  0  0
   56.7086   30.3562   42.0155 H   0  0  0  0  0  0  0  0  0  0  0  0
   54.7641   30.4343   43.3146 H   0  0  0  0  0  0  0  0  0  0  0  0
   55.0752   28.8165   44.0494 H   0  0  0  0  0  0  0  0  0  0  0  0
   58.5396   30.8988   43.6929 H   0  0  0  0  0  0  0  0  0  0  0  0
   58.5162   32.6875   43.9487 H   0  0  0  0  0  0  0  0  0  0  0  0
   59.9248   33.6148   45.8380 H   0  0  0  0  0  0  0  0  0  0  0  0
   63.6319   31.9892   47.1131 H   0  0  0  0  0  0  0  0  0  0  0  0
   64.8763   33.4878   48.8471 H   0  0  0  0  0  0  0  0  0  0  0  0
   63.2382   34.8530   50.3942 H   0  0  0  0  0  0  0  0  0  0  0  0
   59.6009   29.0923   43.8550 H   0  0  0  0  0  0  0  0  0  0  0  0
   58.6920   26.8085   43.4331 H   0  0  0  0  0  0  0  0  0  0  0  0
   57.2513   24.6564   46.1797 H   0  0  0  0  0  0  0  0  0  0  0  0
   56.5343   25.2622   44.6482 H   0  0  0  0  0  0  0  0  0  0  0  0
   58.1841   24.5517   44.6482 H   0  0  0  0  0  0  0  0  0  0  0  0
   57.4614   26.5351   47.5763 H   0  0  0  0  0  0  0  0  0  0  0  0
   58.3735   28.8167   47.9971 H   0  0  0  0  0  0  0  0  0  0  0  0
  1  2  1  0
  2  3  1  0
  3  4  1  0
  4  5  2  0
  4  6  1  0
  6  7  1  0
  7  8  1  0
  8  9  2  0
  9 10  1  0
 10 11  2  0
 11 12  1  0
 12 13  2  0
 13 14  1  0
  9 15  1  0
 15 16  2  0
 16 17  1  0
 17 18  2  0
 18 19  1  0
 19 20  2  0
 20 21  1  0
 20 22  1  0
 22 23  2  0
 16  7  1  0
 23 17  1  0
 14 10  1  0
  1 24  1  0
  1 25  1  0
  1 26  1  0
  2 27  1  0
  2 28  1  0
  6 29  1  0
  6 30  1  0
  8 31  1  0
 11 32  1  0
 12 33  1  0
 13 34  1  0
 18 35  1  0
 19 36  1  0
 21 37  1  0
 21 38  1  0
 21 39  1  0
 22 40  1  0
 23 41  1  0
M  CHG  1   3  -1
M  END
>  <UniqueID>  (11) 
10

>  <SMILES>  (11) 
CC[N-]C(=O)Cn1cc(-c2cccs2)nc1-c1ccc(C)cc1

>  <Energy>  (11) 
97.11261991023531

>  <Genealogy>  (11) 
CC[N-]C(=O)Cn1cc(-c2cccs2)nc1-c1ccc(C)cc1 (protonated)
CC[N-]C(=O)Cn1cc(-c2cccs2)nc1-c1ccc(C)cc1 (3D coordinates assigned)
CC[N-]C(=O)Cn1cc(-c2cccs2)nc1-c1ccc(C)cc1 (optimized conformer: 97.11261991023531 kcal/mol)

>  <smiles>  (11) 
CCNC(=O)Cn1cc(-c2cccs2)nc1-c1ccc(C)cc1

>  <score_type>  (11) 
oracle

>  <origin>  (11) 
adg

>  <m_score__min__energy>  (11) 
-8.4700000000000006

>  <m_primary>  (11) 
energy

$$$$
11:0
     RDKit          3D

 21 22  0  0  0  0  0  0  0  0999 V2000
   58.5000   33.8190   44.7690 C   0  0  0  0  0  0  0  0  0  0  0  0
   57.5370   33.0290   46.0950 S   0  0  0  0  0  0  0  0  0  0  0  0
   57.4050   31.4610   45.2240 C   0  0  0  0  0  0  0  0  0  0  0  0
   56.2810   31.2320   44.4920 N   0  0  0  0  0  0  0  0  0  0  0  0
   56.0870   30.0800   43.7990 C   0  0  0  0  0  0  0  0  0  0  0  0
   57.0570   29.0790   43.8190 C   0  0  0  0  0  0  0  0  0  0  0  0
   58.2310   29.2710   44.5550 C   0  0  0  0  0  0  0  0  0  0  0  0
   59.2200   28.2760   44.5860 C   0  0  0  0  0  0  0  0  0  0  0  0
   60.3910   28.4710   45.3220 C   0  0  0  0  0  0  0  0  0  0  0  0
   60.5840   29.6590   46.0310 C   0  0  0  0  0  0  0  0  0  0  0  0
   59.6090   30.6600   46.0090 C   0  0  0  0  0  0  0  0  0  0  0  0
   58.4210   30.4790   45.2730 C   0  0  0  0  0  0  0  0  0  0  0  0
   59.2785   34.4576   45.2118 H   0  0  0  0  0  0  0  0  0  0  0  0
   58.9715   33.0441   44.1467 H   0  0  0  0  0  0  0  0  0  0  0  0
   57.8322   34.4329   44.1467 H   0  0  0  0  0  0  0  0  0  0  0  0
   55.1624   29.9366   43.2207 H   0  0  0  0  0  0  0  0  0  0  0  0
   56.9003   28.1447   43.2599 H   0  0  0  0  0  0  0  0  0  0  0  0
   59.0726   27.3391   44.0287 H   0  0  0  0  0  0  0  0  0  0  0  0
   61.1628   27.6875   45.3434 H   0  0  0  0  0  0  0  0  0  0  0  0
   61.5078   29.8073   46.6094 H   0  0  0  0  0  0  0  0  0  0  0  0
   59.7696   31.5933   46.5687 H   0  0  0  0  0  0  0  0  0  0  0  0
  1  2  1  0
  2  3  1  0
  3  4  2  0
  4  5  1  0
  5  6  2  0
  6  7  1  0
  7  8  2  0
  8  9  1  0
  9 10  2  0
 10 11  1  0
 11 12  2  0
 12  3  1  0
 12  7  1  0
  1 13  1  0
  1 14  1  0
  1 15  1  0
  5 16  1  0
  6 17  1  0
  8 18  1  0
  9 19  1  0
 10 20  1  0
 11 21  1  0
M  END
>  <UniqueID>  (12) 
11

>  <SMILES>  (12) 
CSc1nccc2ccccc12

>  <Energy>  (12) 
22.85958579638009

>  <Genealogy>  (12) 
CSc1nccc2ccccc12 (3D coordinates assigned)
CSc1nccc2ccccc12 (optimized conformer: 22.85958579638009 kcal/mol)

>  <smiles>  (12) 
CSc1nccc2ccccc12

>  <score_type>  (12) 
oracle

>  <origin>  (12) 
adg

>  <m_score__min__energy>  (12) 
-5.29

>  <m_primary>  (12) 
energy

$$$$
12:0
     RDKit          3D

 57 60  0  0  0  0  0  0  0  0999 V2000
   60.4620   32.7890   51.6070 C   0  0  0  0  0  0  0  0  0  0  0  0
   59.9640   31.8080   50.5770 C   0  0  0  0  0  0  0  0  0  0  0  0
   58.7600   31.1290   50.8070 C   0  0  0  0  0  0  0  0  0  0  0  0
   58.3110   30.2060   49.9170 N   0  0  0  0  0  0  0  0  0  0  0  0
   59.0070   29.9350   48.7800 C   0  0  0  0  0  0  0  0  0  0  0  0
   58.5330   28.8750   47.8330 C   0  0  0  0  0  0  0  0  0  0  0  0
   59.4900   28.7440   46.7320 N   0  0  0  0  0  0  0  0  0  0  0  0
   59.2520   29.7600   45.6940 C   0  0  0  0  0  0  0  0  0  0  0  0
   57.7390   30.0400   45.5080 C   0  0  2  0  0  0  0  0  0  0  0  0
   57.0600   28.9070   44.6860 C   0  0  0  0  0  0  0  0  0  0  0  0
   55.9850   29.4380   43.8360 N   0  0  0  0  0  0  0  0  0  0  0  0
   56.5470   30.3210   42.7990 C   0  0  0  0  0  0  0  0  0  0  0  0
   57.3870   31.4740   43.4000 C   0  0  0  0  0  0  0  0  0  0  0  0
   57.3840   31.4500   44.9450 C   0  0  2  0  0  0  0  0  0  0  0  0
   58.1510   32.5820   45.6180 C   0  0  0  0  0  0  0  0  0  0  0  0
   58.1760   32.7670   47.0180 C   0  0  0  0  0  0  0  0  0  0  0  0
   58.8620   33.8510   47.5760 C   0  0  0  0  0  0  0  0  0  0  0  0
   59.5280   34.7620   46.7520 C   0  0  0  0  0  0  0  0  0  0  0  0
   59.5090   34.5940   45.3670 C   0  0  0  0  0  0  0  0  0  0  0  0
   58.8210   33.5160   44.8020 C   0  0  0  0  0  0  0  0  0  0  0  0
   60.1710   30.5890   48.5290 N   0  0  0  0  0  0  0  0  0  0  0  0
   60.6610   31.5330   49.3780 C   0  0  0  0  0  0  0  0  0  0  0  0
   61.9250   32.2110   49.0130 C   0  0  0  0  0  0  0  0  0  0  0  0
   62.0410   32.9250   47.8070 C   0  0  0  0  0  0  0  0  0  0  0  0
   63.2450   33.5530   47.4720 C   0  0  0  0  0  0  0  0  0  0  0  0
   64.3460   33.4600   48.3280 C   0  0  0  0  0  0  0  0  0  0  0  0
   64.2460   32.7300   49.5150 C   0  0  0  0  0  0  0  0  0  0  0  0
   63.0440   32.1010   49.8550 C   0  0  0  0  0  0  0  0  0  0  0  0
   60.2623   32.3957   52.6147 H   0  0  0  0  0  0  0  0  0  0  0  0
   61.5444   32.9371   51.4791 H   0  0  0  0  0  0  0  0  0  0  0  0
   59.9427   33.7502   51.4791 H   0  0  0  0  0  0  0  0  0  0  0  0
   58.1751   31.3446   51.7133 H   0  0  0  0  0  0  0  0  0  0  0  0
   57.4210   29.6970   50.1220 H   0  0  0  0  0  0  0  0  0  0  0  0
   58.4528   27.9160   48.3658 H   0  0  0  0  0  0  0  0  0  0  0  0
   57.5473   29.1540   47.4322 H   0  0  0  0  0  0  0  0  0  0  0  0
   60.4400   28.9110   47.1340 H   0  0  0  0  0  0  0  0  0  0  0  0
   59.7548   30.6937   45.9861 H   0  0  0  0  0  0  0  0  0  0  0  0
   59.6518   29.3805   44.7421 H   0  0  0  0  0  0  0  0  0  0  0  0
   57.3256   30.0461   46.5273 H   0  0  0  0  0  0  0  0  0  0  0  0
   57.8155   28.4237   44.0490 H   0  0  0  0  0  0  0  0  0  0  0  0
   56.6229   28.1815   45.3879 H   0  0  0  0  0  0  0  0  0  0  0  0
   55.5270   28.6290   43.3550 H   0  0  0  0  0  0  0  0  0  0  0  0
   57.1900   29.7233   42.1362 H   0  0  0  0  0  0  0  0  0  0  0  0
   55.7071   30.7690   42.2477 H   0  0  0  0  0  0  0  0  0  0  0  0
   58.4241   31.3796   43.0456 H   0  0  0  0  0  0  0  0  0  0  0  0
   56.9396   32.4248   43.0747 H   0  0  0  0  0  0  0  0  0  0  0  0
   56.3409   31.6578   45.2257 H   0  0  0  0  0  0  0  0  0  0  0  0
   57.6531   32.0548   47.6732 H   0  0  0  0  0  0  0  0  0  0  0  0
   58.8772   33.9867   48.6675 H   0  0  0  0  0  0  0  0  0  0  0  0
   60.0675   35.6119   47.1954 H   0  0  0  0  0  0  0  0  0  0  0  0
   60.0357   35.3102   44.7192 H   0  0  0  0  0  0  0  0  0  0  0  0
   58.8023   33.3954   43.7088 H   0  0  0  0  0  0  0  0  0  0  0  0
   61.1811   32.9899   47.1241 H   0  0  0  0  0  0  0  0  0  0  0  0
   63.3255   34.1210   46.5334 H   0  0  0  0  0  0  0  0  0  0  0  0
   65.2900   33.9609   48.0674 H   0  0  0  0  0  0  0  0  0  0  0  0
   65.1153   32.6497   50.1842 H   0  0  0  0  0  0  0  0  0  0  0  0
   62.9746   31.5180   50.7852 H   0  0  0  0  0  0  0  0  0  0  0  0
  1  2  1  0
  2  3  2  0
  3  4  1  0
  4  5  2  0
  5  6  1  0
  6  7  1  0
  7  8  1  0
  8  9  1  0
  9 10  1  0
 10 11  1  0
 11 12  1  0
 12 13  1  0
 13 14  1  0
 14 15  1  0
 15 16  2  0
 16 17  1  0
 17 18  2  0
 18 19  1  0
 19 20  2  0
  5 21  1  0
 21 22  2  0
 22 23  1  0
 23 24  2  0
 24 25  1  0
 25 26  2  0
 26 27  1  0
 27 28  2  0
 22  2  1  0
 28 23  1  0
 14  9  1  0
 20 15  1  0
  1 29  1  0
  1 30  1  0
  1 31  1  0
  3 32  1  0
  4 33  1  0
  6 34  1  0
  6 35  1  0
  7 36  1  0
  8 37  1  0
  8 38  1  0
  9 39  1  1
 10 40  1  0
 10 41  1  0
 11 42  1  0
 12 43  1  0
 12 44  1  0
 13 45  1  0
 13 46  1  0
 14 47  1  1
 16 48  1  0
 17 49  1  0
 18 50  1  0
 19 51  1  0
 20 52  1  0
 24 53  1  0
 25 54  1  0
 26 55  1  0
 27 56  1  0
 28 57  1  0
M  CHG  1   4   1
M  END
>  <UniqueID>  (13) 
12

>  <SMILES>  (13) 
Cc1c[nH+]c(CNC[C@@H]2CNCC[C@@H]2c2ccccc2)nc1-c1ccccc1

>  <Energy>  (13) 
74.73236380593539

>  <Genealogy>  (13) 
Cc1c[nH+]c(CNCC2CNCCC2c2ccccc2)nc1-c1ccccc1 (protonated)
Cc1c[nH+]c(CNC[C@@H]2CNCC[C@@H]2c2ccccc2)nc1-c1ccccc1 (chirality)
Cc1c[nH+]c(CNC[C@@H]2CNCC[C@@H]2c2ccccc2)nc1-c1ccccc1 (3D coordinates assigned)
Cc1c[nH+]c(CNC[C@@H]2CNCC[C@@H]2c2ccccc2)nc1-c1ccccc1 (nonaromatic ring conformer: 74.73236380593539 kcal/mol)

>  <smiles>  (13) 
Cc1cnc(CNCC2CNCCC2c2ccccc2)nc1-c1ccccc1

>  <score_type>  (13) 
oracle

>  <origin>  (13) 
adg

>  <m_score__min__energy>  (13) 
-7.8600000000000003

>  <m_primary>  (13) 
energy

$$$$
13:0
     RDKit          3D

 41 43  0  0  0  0  0  0  0  0999 V2000
   57.3150   21.4100   43.1110 C   0  0  0  0  0  0  0  0  0  0  0  0
   57.9020   21.4310   44.4630 N   0  0  0  0  0  0  0  0  0  0  0  0
   56.8290   21.3160   45.4680 C   0  0  0  0  0  0  0  0  0  0  0  0
   58.6930   22.6740   44.6430 C   0  0  0  0  0  0  0  0  0  0  0  0
   57.8330   23.9540   44.6500 C   0  0  0  0  0  0  0  0  0  0  0  0
   58.0630   24.7570   45.8520 N   0  0  0  0  0  0  0  0  0  0  0  0
   58.2130   26.1900   45.8640 C   0  0  0  0  0  0  0  0  0  0  0  0
   59.2900   26.7590   46.5850 C   0  0  0  0  0  0  0  0  0  0  0  0
   59.4770   28.1490   46.6220 C   0  0  0  0  0  0  0  0  0  0  0  0
   58.5700   28.9550   45.9370 C   0  0  0  0  0  0  0  0  0  0  0  0
   57.5070   28.4210   45.2390 C   0  0  0  0  0  0  0  0  0  0  0  0
   57.3060   27.0400   45.1870 C   0  0  0  0  0  0  0  0  0  0  0  0
   56.6770   29.4960   44.5900 C   0  0  1  0  0  0  0  0  0  0  0  0
   55.3830   29.5190   45.1250 O   0  0  0  0  0  0  0  0  0  0  0  0
   57.4340   30.7210   45.0170 C   0  0  0  0  0  0  0  0  0  0  0  0
   57.1510   32.0530   44.7080 C   0  0  0  0  0  0  0  0  0  0  0  0
   57.9970   33.0550   45.2120 C   0  0  0  0  0  0  0  0  0  0  0  0
   59.1080   32.7160   46.0100 C   0  0  0  0  0  0  0  0  0  0  0  0
   59.3830   31.3720   46.3100 C   0  0  0  0  0  0  0  0  0  0  0  0
   58.5270   30.3950   45.7990 C   0  0  0  0  0  0  0  0  0  0  0  0
   56.2184   21.3708   43.1880 H   0  0  0  0  0  0  0  0  0  0  0  0
   57.6122   22.3194   42.5681 H   0  0  0  0  0  0  0  0  0  0  0  0
   57.6764   20.5242   42.5681 H   0  0  0  0  0  0  0  0  0  0  0  0
   58.5290   20.5970   44.5440 H   0  0  0  0  0  0  0  0  0  0  0  0
   57.2650   21.3627   46.4768 H   0  0  0  0  0  0  0  0  0  0  0  0
   56.1151   22.1428   45.3384 H   0  0  0  0  0  0  0  0  0  0  0  0
   56.3065   20.3567   45.3384 H   0  0  0  0  0  0  0  0  0  0  0  0
   59.2296   22.6097   45.6011 H   0  0  0  0  0  0  0  0  0  0  0  0
   59.3781   22.7489   43.7857 H   0  0  0  0  0  0  0  0  0  0  0  0
   58.0851   24.5571   43.7653 H   0  0  0  0  0  0  0  0  0  0  0  0
   56.7746   23.6548   44.6361 H   0  0  0  0  0  0  0  0  0  0  0  0
   58.1560   24.2410   46.7570 H   0  0  0  0  0  0  0  0  0  0  0  0
   59.9896   26.1027   47.1234 H   0  0  0  0  0  0  0  0  0  0  0  0
   60.3175   28.5909   47.1772 H   0  0  0  0  0  0  0  0  0  0  0  0
   56.4565   26.6195   44.6289 H   0  0  0  0  0  0  0  0  0  0  0  0
   56.5470   29.3794   43.5040 H   0  0  0  0  0  0  0  0  0  0  0  0
   55.1500   30.4750   45.2520 H   0  0  0  0  0  0  0  0  0  0  0  0
   56.2838   32.3124   44.0830 H   0  0  0  0  0  0  0  0  0  0  0  0
   57.7909   34.1108   44.9823 H   0  0  0  0  0  0  0  0  0  0  0  0
   59.7634   33.5086   46.4001 H   0  0  0  0  0  0  0  0  0  0  0  0
   60.2487   31.0968   46.9303 H   0  0  0  0  0  0  0  0  0  0  0  0
  1  2  1  0
  2  3  1  0
  2  4  1  0
  4  5  1  0
  5  6  1  0
  6  7  1  0
  7  8  2  0
  8  9  1  0
  9 10  2  0
 10 11  1  0
 11 12  2  0
 11 13  1  0
 13 14  1  0
 13 15  1  0
 15 16  2  0
 16 17  1  0
 17 18  2  0
 18 19  1  0
 19 20  2  0
 12  7  1  0
 20 15  1  0
 20 10  1  0
  1 21  1  0
  1 22  1  0
  1 23  1  0
  2 24  1  0
  3 25  1  0
  3 26  1  0
  3 27  1  0
  4 28  1  0
  4 29  1  0
  5 30  1  0
  5 31  1  0
  6 32  1  0
  8 33  1  0
  9 34  1  0
 12 35  1  0
 13 36  1  6
 14 37  1  0
 16 38  1  0
 17 39  1  0
 18 40  1  0
 19 41  1  0
M  CHG  1   2   1
M  END
>  <UniqueID>  (14) 
13

>  <SMILES>  (14) 
C[NH+](C)CCNc1ccc2c(c1)[C@@H](O)c1ccccc1-2

>  <Energy>  (14) 
64.10510226419846

>  <Genealogy>  (14) 
C[NH+](C)CCNc1ccc2c(c1)C(O)c1ccccc1-2 (protonated)
C[NH+](C)CCNc1ccc2c(c1)[C@@H](O)c1ccccc1-2 (chirality)
C[NH+](C)CCNc1ccc2c(c1)[C@@H](O)c1ccccc1-2 (3D coordinates assigned)
C[NH+](C)CCNc1ccc2c(c1)[C@@H](O)c1ccccc1-2 (nonaromatic ring conformer: 64.10510226419846 kcal/mol)

>  <smiles>  (14) 
CN(C)CCNc1ccc2c(c1)C(O)c1ccccc1-2

>  <score_type>  (14) 
oracle

>  <origin>  (14) 
adg

>  <m_score__min__energy>  (14) 
-6.29

>  <m_primary>  (14) 
energy

$$$$
14:0
     RDKit          3D

 59 61  0  0  0  0  0  0  0  0999 V2000
   57.9990   32.5350   41.2970 C   0  0  0  0  0  0  0  0  0  0  0  0
   57.4030   31.7610   42.4690 C   0  0  0  0  0  0  0  0  0  0  0  0
   57.3920   32.5450   43.7990 C   0  0  0  0  0  0  0  0  0  0  0  0
   57.3140   31.6710   45.0080 N   0  0  0  0  0  0  0  0  0  0  0  0
   57.9150   32.3510   46.1880 C   0  0  0  0  0  0  0  0  0  0  0  0
   57.8360   33.8870   46.0670 C   0  0  0  0  0  0  0  0  0  0  0  0
   59.2210   34.4980   45.8780 C   0  0  0  0  0  0  0  0  0  0  0  0
   57.9970   30.3640   44.7660 C   0  0  0  0  0  0  0  0  0  0  0  0
   57.0390   29.1440   44.7580 C   0  0  2  0  0  0  0  0  0  0  0  0
   55.7640   29.4720   45.2360 O   0  0  0  0  0  0  0  0  0  0  0  0
   57.6580   27.9320   45.4640 C   0  0  0  0  0  0  0  0  0  0  0  0
   57.4170   26.6860   44.8490 C   0  0  0  0  0  0  0  0  0  0  0  0
   57.9610   25.5050   45.3650 C   0  0  0  0  0  0  0  0  0  0  0  0
   57.7190   24.1890   44.7230 C   0  0  0  0  0  0  0  0  0  0  0  0
   56.7230   24.0260   43.7370 C   0  0  0  0  0  0  0  0  0  0  0  0
   56.5200   22.7800   43.1360 C   0  0  0  0  0  0  0  0  0  0  0  0
   57.3070   21.6860   43.5030 C   0  0  0  0  0  0  0  0  0  0  0  0
   58.3040   21.8380   44.4690 C   0  0  0  0  0  0  0  0  0  0  0  0
   58.5140   23.0810   45.0720 C   0  0  0  0  0  0  0  0  0  0  0  0
   58.7190   25.5630   46.4870 N   0  0  0  0  0  0  0  0  0  0  0  0
   58.9980   26.7270   47.1230 C   0  0  0  0  0  0  0  0  0  0  0  0
   59.8080   26.6890   48.2650 C   0  0  0  0  0  0  0  0  0  0  0  0
   60.1420   27.8710   48.9420 C   0  0  0  0  0  0  0  0  0  0  0  0
   60.9520   27.8820   50.0870 O   0  0  0  0  0  0  0  0  0  0  0  0
   61.0900   26.7840   50.9850 C   0  0  0  0  0  0  0  0  0  0  0  0
   59.6580   29.0870   48.4620 C   0  0  0  0  0  0  0  0  0  0  0  0
   58.8440   29.1370   47.3270 C   0  0  0  0  0  0  0  0  0  0  0  0
   58.4900   27.9600   46.6300 C   0  0  0  0  0  0  0  0  0  0  0  0
   58.6283   33.3522   41.6794 H   0  0  0  0  0  0  0  0  0  0  0  0
   58.6108   31.8574   40.6833 H   0  0  0  0  0  0  0  0  0  0  0  0
   57.1876   32.9534   40.6833 H   0  0  0  0  0  0  0  0  0  0  0  0
   56.3662   31.4946   42.2160 H   0  0  0  0  0  0  0  0  0  0  0  0
   58.0412   30.8787   42.6250 H   0  0  0  0  0  0  0  0  0  0  0  0
   58.3150   33.1404   43.8593 H   0  0  0  0  0  0  0  0  0  0  0  0
   56.4886   33.1726   43.7959 H   0  0  0  0  0  0  0  0  0  0  0  0
   56.3090   31.4950   45.2260 H   0  0  0  0  0  0  0  0  0  0  0  0
   57.3745   32.0370   47.0932 H   0  0  0  0  0  0  0  0  0  0  0  0
   58.9763   32.0668   46.2421 H   0  0  0  0  0  0  0  0  0  0  0  0
   57.2082   34.1469   45.2019 H   0  0  0  0  0  0  0  0  0  0  0  0
   57.4026   34.2875   46.9953 H   0  0  0  0  0  0  0  0  0  0  0  0
   59.6714   34.6967   46.8617 H   0  0  0  0  0  0  0  0  0  0  0  0
   59.8576   33.7972   45.3180 H   0  0  0  0  0  0  0  0  0  0  0  0
   59.1326   35.4407   45.3180 H   0  0  0  0  0  0  0  0  0  0  0  0
   58.5026   30.4133   43.7903 H   0  0  0  0  0  0  0  0  0  0  0  0
   58.6988   30.2123   45.5993 H   0  0  0  0  0  0  0  0  0  0  0  0
   56.8947   28.8449   43.7093 H   0  0  0  0  0  0  0  0  0  0  0  0
   55.8640   29.7120   46.1950 H   0  0  0  0  0  0  0  0  0  0  0  0
   56.7895   26.6419   43.9466 H   0  0  0  0  0  0  0  0  0  0  0  0
   56.1026   24.8842   43.4394 H   0  0  0  0  0  0  0  0  0  0  0  0
   55.7380   22.6609   42.3717 H   0  0  0  0  0  0  0  0  0  0  0  0
   57.1417   20.7059   43.0317 H   0  0  0  0  0  0  0  0  0  0  0  0
   58.9256   20.9770   44.7560 H   0  0  0  0  0  0  0  0  0  0  0  0
   59.3072   23.1946   45.8257 H   0  0  0  0  0  0  0  0  0  0  0  0
   60.1854   25.7239   48.6340 H   0  0  0  0  0  0  0  0  0  0  0  0
   61.0440   27.1499   52.0213 H   0  0  0  0  0  0  0  0  0  0  0  0
   60.2751   26.0653   50.8134 H   0  0  0  0  0  0  0  0  0  0  0  0
   62.0574   26.2893   50.8134 H   0  0  0  0  0  0  0  0  0  0  0  0
   59.9202   30.0194   48.9834 H   0  0  0  0  0  0  0  0  0  0  0  0
   58.4727   30.1090   46.9703 H   0  0  0  0  0  0  0  0  0  0  0  0
  1  2  1  0
  2  3  1  0
  3  4  1  0
  4  5  1  0
  5  6  1  0
  6  7  1  0
  4  8  1  0
  8  9  1  0
  9 10  1  0
  9 11  1  0
 11 12  2  0
 12 13  1  0
 13 14  1  0
 14 15  2  0
 15 16  1  0
 16 17  2  0
 17 18  1  0
 18 19  2  0
 13 20  2  0
 20 21  1  0
 21 22  2  0
 22 23  1  0
 23 24  1  0
 24 25  1  0
 23 26  2  0
 26 27  1  0
 27 28  2  0
 28 11  1  0
 19 14  1  0
 28 21  1  0
  1 29  1  0
  1 30  1  0
  1 31  1  0
  2 32  1  0
  2 33  1  0
  3 34  1  0
  3 35  1  0
  4 36  1  0
  5 37  1  0
  5 38  1  0
  6 39  1  0
  6 40  1  0
  7 41  1  0
  7 42  1  0
  7 43  1  0
  8 44  1  0
  8 45  1  0
  9 46  1  6
 10 47  1  0
 12 48  1  0
 15 49  1  0
 16 50  1  0
 17 51  1  0
 18 52  1  0
 19 53  1  0
 22 54  1  0
 25 55  1  0
 25 56  1  0
 25 57  1  0
 26 58  1  0
 27 59  1  0
M  CHG  1   4   1
M  END
>  <UniqueID>  (15) 
14

>  <SMILES>  (15) 
CCC[NH+](CCC)C[C@H](O)c1cc(-c2ccccc2)nc2cc(OC)ccc12

>  <Energy>  (15) 
74.67592028179293

>  <Genealogy>  (15) 
CCC[NH+](CCC)CC(O)c1cc(-c2ccccc2)nc2cc(OC)ccc12 (protonated)
CCC[NH+](CCC)C[C@H](O)c1cc(-c2ccccc2)nc2cc(OC)ccc12 (chirality)
CCC[NH+](CCC)C[C@H](O)c1cc(-c2ccccc2)nc2cc(OC)ccc12 (3D coordinates assigned)
CCC[NH+](CCC)C[C@H](O)c1cc(-c2ccccc2)nc2cc(OC)ccc12 (optimized conformer: 74.67592028179293 kcal/mol)

>  <smiles>  (15) 
CCCN(CCC)CC(O)c1cc(-c2ccccc2)nc2cc(OC)ccc12

>  <score_type>  (15) 
oracle

>  <origin>  (15) 
adg

>  <m_score__min__energy>  (15) 
-6.8700000000000001

>  <m_primary>  (15) 
energy

$$$$
15:0
     RDKit          3D

 50 53  0  0  0  0  0  0  0  0999 V2000
   56.2610   29.7420   43.1550 C   0  0  0  0  0  0  0  0  0  0  0  0
   56.2560   30.2480   44.4850 O   0  0  0  0  0  0  0  0  0  0  0  0
   57.2610   31.0630   45.0320 C   0  0  0  0  0  0  0  0  0  0  0  0
   57.3550   32.4340   44.7290 C   0  0  0  0  0  0  0  0  0  0  0  0
   58.3700   33.2220   45.2910 C   0  0  0  0  0  0  0  0  0  0  0  0
   58.4560   34.5510   44.9890 N   0  0  0  0  0  0  0  0  0  0  0  0
   59.4300   35.3390   45.5170 C   0  0  0  0  0  0  0  0  0  0  0  0
   60.3750   34.8030   46.3890 C   0  0  0  0  0  0  0  0  0  0  0  0
   60.3210   33.4480   46.7230 C   0  0  0  0  0  0  0  0  0  0  0  0
   61.2990   32.9140   47.6260 N   0  0  0  0  0  0  0  0  0  0  0  0
   60.9220   32.6160   49.0120 C   0  0  0  0  0  0  0  0  0  0  0  0
   62.0340   33.0640   49.9700 C   0  0  0  0  0  0  0  0  0  0  0  0
   63.3690   32.7170   49.4580 N   0  0  0  0  0  0  0  0  0  0  0  0
   64.5400   33.1920   50.1500 C   0  0  0  0  0  0  0  0  0  0  0  0
   64.4150   34.1000   51.2170 C   0  0  0  0  0  0  0  0  0  0  0  0
   65.5510   34.5510   51.8970 C   0  0  0  0  0  0  0  0  0  0  0  0
   66.8180   34.1010   51.5190 C   0  0  0  0  0  0  0  0  0  0  0  0
   66.9520   33.1950   50.4640 C   0  0  0  0  0  0  0  0  0  0  0  0
   65.8180   32.7390   49.7820 C   0  0  0  0  0  0  0  0  0  0  0  0
   63.5000   31.9550   48.2080 C   0  0  0  0  0  0  0  0  0  0  0  0
   62.6420   32.6030   47.1200 C   0  0  0  0  0  0  0  0  0  0  0  0
   59.3080   32.6350   46.1710 C   0  0  0  0  0  0  0  0  0  0  0  0
   59.2100   31.2650   46.4700 C   0  0  0  0  0  0  0  0  0  0  0  0
   58.1900   30.4780   45.9040 C   0  0  0  0  0  0  0  0  0  0  0  0
   58.0660   29.1070   46.1840 O   0  0  0  0  0  0  0  0  0  0  0  0
   59.1370   28.1710   46.1330 C   0  0  0  0  0  0  0  0  0  0  0  0
   56.2719   28.6424   43.1811 H   0  0  0  0  0  0  0  0  0  0  0  0
   55.3594   30.0874   42.6279 H   0  0  0  0  0  0  0  0  0  0  0  0
   57.1556   30.1051   42.6279 H   0  0  0  0  0  0  0  0  0  0  0  0
   56.6255   32.8920   44.0449 H   0  0  0  0  0  0  0  0  0  0  0  0
   57.7650   34.9880   44.3380 H   0  0  0  0  0  0  0  0  0  0  0  0
   59.4721   36.4063   45.2541 H   0  0  0  0  0  0  0  0  0  0  0  0
   61.1612   35.4449   46.8131 H   0  0  0  0  0  0  0  0  0  0  0  0
   59.9924   33.1499   49.2588 H   0  0  0  0  0  0  0  0  0  0  0  0
   60.7710   31.5316   49.1184 H   0  0  0  0  0  0  0  0  0  0  0  0
   61.9746   34.1548   50.0991 H   0  0  0  0  0  0  0  0  0  0  0  0
   61.8896   32.5439   50.9285 H   0  0  0  0  0  0  0  0  0  0  0  0
   63.4191   34.4571   51.5181 H   0  0  0  0  0  0  0  0  0  0  0  0
   65.4464   35.2610   52.7306 H   0  0  0  0  0  0  0  0  0  0  0  0
   67.7107   34.4601   52.0521 H   0  0  0  0  0  0  0  0  0  0  0  0
   67.9503   32.8395   50.1689 H   0  0  0  0  0  0  0  0  0  0  0  0
   65.9278   32.0229   48.9543 H   0  0  0  0  0  0  0  0  0  0  0  0
   64.5531   31.9513   47.8901 H   0  0  0  0  0  0  0  0  0  0  0  0
   63.1617   30.9214   48.3730 H   0  0  0  0  0  0  0  0  0  0  0  0
   63.1254   33.5332   46.7868 H   0  0  0  0  0  0  0  0  0  0  0  0
   62.5464   31.8973   46.2816 H   0  0  0  0  0  0  0  0  0  0  0  0
   59.9380   30.8034   47.1533 H   0  0  0  0  0  0  0  0  0  0  0  0
   59.4409   27.9054   47.1563 H   0  0  0  0  0  0  0  0  0  0  0  0
   58.8079   27.2658   45.6016 H   0  0  0  0  0  0  0  0  0  0  0  0
   59.9900   28.6184   45.6016 H   0  0  0  0  0  0  0  0  0  0  0  0
  1  2  1  0
  2  3  1  0
  3  4  2  0
  4  5  1  0
  5  6  2  0
  6  7  1  0
  7  8  2  0
  8  9  1  0
  9 10  1  0
 10 11  1  0
 11 12  1  0
 12 13  1  0
 13 14  1  0
 14 15  2  0
 15 16  1  0
 16 17  2  0
 17 18  1  0
 18 19  2  0
 13 20  1  0
 20 21  1  0
  9 22  2  0
 22 23  1  0
 23 24  2  0
 24 25  1  0
 25 26  1  0
 24  3  1  0
 22  5  1  0
 21 10  1  0
 19 14  1  0
  1 27  1  0
  1 28  1  0
  1 29  1  0
  4 30  1  0
  6 31  1  0
  7 32  1  0
  8 33  1  0
 11 34  1  0
 11 35  1  0
 12 36  1  0
 12 37  1  0
 15 38  1  0
 16 39  1  0
 17 40  1  0
 18 41  1  0
 19 42  1  0
 20 43  1  0
 20 44  1  0
 21 45  1  0
 21 46  1  0
 23 47  1  0
 26 48  1  0
 26 49  1  0
 26 50  1  0
M  CHG  1   6   1
M  END
>  <UniqueID>  (16) 
15

>  <SMILES>  (16) 
COc1cc2[nH+]ccc(N3CCN(c4ccccc4)CC3)c2cc1OC

>  <Energy>  (16) 
66.00882530651242

>  <Genealogy>  (16) 
COc1cc2[nH+]ccc(N3CCN(c4ccccc4)CC3)c2cc1OC (protonated)
COc1cc2[nH+]ccc(N3CCN(c4ccccc4)CC3)c2cc1OC (3D coordinates assigned)
COc1cc2[nH+]ccc(N3CCN(c4ccccc4)CC3)c2cc1OC (nonaromatic ring conformer: 66.00882530651242 kcal/mol)

>  <smiles>  (16) 
COc1cc2nccc(N3CCN(c4ccccc4)CC3)c2cc1OC

>  <score_type>  (16) 
oracle

>  <origin>  (16) 
adg

>  <m_score__min__energy>  (16) 
-5.7400000000000002

>  <m_primary>  (16) 
energy

$$$$
16:0
     RDKit          3D

 65 68  0  0  0  0  0  0  0  0999 V2000
   59.6510   33.7750   50.5080 C   0  0  0  0  0  0  0  0  0  0  0  0
   59.0130   32.9350   51.5530 N   0  0  0  0  0  0  0  0  0  0  0  0
   58.1320   31.9510   50.8790 C   0  0  0  0  0  0  0  0  0  0  0  0
   58.1750   33.7840   52.4330 C   0  0  0  0  0  0  0  0  0  0  0  0
   60.0320   32.1690   52.3360 C   0  0  0  0  0  0  0  0  0  0  0  0
   61.1280   31.4520   51.5120 C   0  0  0  0  0  0  0  0  0  0  0  0
   62.4150   31.9830   51.7820 O   0  0  0  0  0  0  0  0  0  0  0  0
   63.4360   31.0370   51.5200 C   0  0  0  0  0  0  0  0  0  0  0  0
   64.4350   31.5750   50.4920 C   0  0  0  0  0  0  0  0  0  0  0  0
   63.7830   32.5070   49.5760 N   0  0  0  0  0  0  0  0  0  0  0  0
   63.7580   32.4350   48.2340 C   0  0  0  0  0  0  0  0  0  0  0  0
   63.0370   33.5330   47.8070 C   0  0  0  0  0  0  0  0  0  0  0  0
   62.6480   33.8510   46.3920 C   0  0  0  0  0  0  0  0  0  0  0  0
   61.2300   33.5530   46.1360 N   0  0  0  0  0  0  0  0  0  0  0  0
   60.3490   34.6960   46.4220 C   0  0  0  0  0  0  0  0  0  0  0  0
   59.0200   34.2220   47.0230 C   0  0  0  0  0  0  0  0  0  0  0  0
   58.6660   32.8850   46.5210 N   0  0  0  0  0  0  0  0  0  0  0  0
   57.9480   32.7340   45.2810 C   0  0  0  0  0  0  0  0  0  0  0  0
   57.5480   33.7530   44.6510 O   0  0  0  0  0  0  0  0  0  0  0  0
   57.6820   31.3820   44.7410 C   0  0  0  0  0  0  0  0  0  0  0  0
   56.9880   31.2210   43.5280 C   0  0  0  0  0  0  0  0  0  0  0  0
   56.7370   29.9480   43.0170 C   0  0  0  0  0  0  0  0  0  0  0  0
   57.1750   28.8150   43.7020 C   0  0  0  0  0  0  0  0  0  0  0  0
   57.8710   28.9480   44.9120 C   0  0  0  0  0  0  0  0  0  0  0  0
   58.3130   27.8100   45.6000 C   0  0  0  0  0  0  0  0  0  0  0  0
   59.0070   27.9420   46.8020 C   0  0  0  0  0  0  0  0  0  0  0  0
   59.2660   29.2070   47.3310 C   0  0  0  0  0  0  0  0  0  0  0  0
   58.8330   30.3640   46.6610 C   0  0  0  0  0  0  0  0  0  0  0  0
   58.1290   30.2400   45.4420 C   0  0  0  0  0  0  0  0  0  0  0  0
   59.1160   31.7080   47.2170 C   0  0  0  0  0  0  0  0  0  0  0  0
   59.7550   31.8180   48.2990 O   0  0  0  0  0  0  0  0  0  0  0  0
   62.6430   34.2400   48.8870 N   0  0  0  0  0  0  0  0  0  0  0  0
   63.1230   33.5950   49.9400 N   0  0  0  0  0  0  0  0  0  0  0  0
   60.2500   34.5637   50.9867 H   0  0  0  0  0  0  0  0  0  0  0  0
   60.3030   33.1486   49.8816 H   0  0  0  0  0  0  0  0  0  0  0  0
   58.8726   34.2350   49.8816 H   0  0  0  0  0  0  0  0  0  0  0  0
   57.5997   31.3565   51.6361 H   0  0  0  0  0  0  0  0  0  0  0  0
   57.4022   32.4824   50.2505 H   0  0  0  0  0  0  0  0  0  0  0  0
   58.7405   31.2842   50.2505 H   0  0  0  0  0  0  0  0  0  0  0  0
   58.4002   33.5558   53.4852 H   0  0  0  0  0  0  0  0  0  0  0  0
   58.3907   34.8440   52.2334 H   0  0  0  0  0  0  0  0  0  0  0  0
   57.1123   33.5822   52.2334 H   0  0  0  0  0  0  0  0  0  0  0  0
   60.5312   32.8737   53.0173 H   0  0  0  0  0  0  0  0  0  0  0  0
   59.4734   31.3685   52.8430 H   0  0  0  0  0  0  0  0  0  0  0  0
   61.1229   30.3817   51.7660 H   0  0  0  0  0  0  0  0  0  0  0  0
   60.9103   31.6033   50.4444 H   0  0  0  0  0  0  0  0  0  0  0  0
   63.9687   30.8146   52.4564 H   0  0  0  0  0  0  0  0  0  0  0  0
   62.9725   30.1261   51.1133 H   0  0  0  0  0  0  0  0  0  0  0  0
   65.2489   32.0957   51.0179 H   0  0  0  0  0  0  0  0  0  0  0  0
   64.8341   30.7301   49.9115 H   0  0  0  0  0  0  0  0  0  0  0  0
   64.2181   31.6595   47.6040 H   0  0  0  0  0  0  0  0  0  0  0  0
   62.8267   34.9202   46.2051 H   0  0  0  0  0  0  0  0  0  0  0  0
   63.2557   33.2259   45.7212 H   0  0  0  0  0  0  0  0  0  0  0  0
   60.9350   32.7370   46.7230 H   0  0  0  0  0  0  0  0  0  0  0  0
   60.8489   35.3668   47.1362 H   0  0  0  0  0  0  0  0  0  0  0  0
   60.1413   35.2255   45.4804 H   0  0  0  0  0  0  0  0  0  0  0  0
   59.1133   34.1827   48.1183 H   0  0  0  0  0  0  0  0  0  0  0  0
   58.2293   34.9287   46.7308 H   0  0  0  0  0  0  0  0  0  0  0  0
   56.6401   32.1075   42.9775 H   0  0  0  0  0  0  0  0  0  0  0  0
   56.1907   29.8370   42.0687 H   0  0  0  0  0  0  0  0  0  0  0  0
   56.9740   27.8143   43.2920 H   0  0  0  0  0  0  0  0  0  0  0  0
   58.1117   26.8092   45.1903 H   0  0  0  0  0  0  0  0  0  0  0  0
   59.3521   27.0444   47.3360 H   0  0  0  0  0  0  0  0  0  0  0  0
   59.8137   29.2994   48.2805 H   0  0  0  0  0  0  0  0  0  0  0  0
   62.9830   33.9040   50.9280 H   0  0  0  0  0  0  0  0  0  0  0  0
  1  2  1  0
  2  3  1  0
  2  4  1  0
  2  5  1  0
  5  6  1  0
  6  7  1  0
  7  8  1  0
  8  9  1  0
  9 10  1  0
 10 11  1  0
 11 12  2  0
 12 13  1  0
 13 14  1  0
 14 15  1  0
 15 16  1  0
 16 17  1  0
 17 18  1  0
 18 19  2  0
 18 20  1  0
 20 21  2  0
 21 22  1  0
 22 23  2  0
 23 24  1  0
 24 25  2  0
 25 26  1  0
 26 27  2  0
 27 28  1  0
 28 29  2  0
 28 30  1  0
 30 31  2  0
 12 32  1  0
 32 33  2  0
 33 10  1  0
 30 17  1  0
 29 20  1  0
 29 24  1  0
  1 34  1  0
  1 35  1  0
  1 36  1  0
  3 37  1  0
  3 38  1  0
  3 39  1  0
  4 40  1  0
  4 41  1  0
  4 42  1  0
  5 43  1  0
  5 44  1  0
  6 45  1  0
  6 46  1  0
  8 47  1  0
  8 48  1  0
  9 49  1  0
  9 50  1  0
 11 51  1  0
 13 52  1  0
 13 53  1  0
 14 54  1  0
 15 55  1  0
 15 56  1  0
 16 57  1  0
 16 58  1  0
 21 59  1  0
 22 60  1  0
 23 61  1  0
 25 62  1  0
 26 63  1  0
 27 64  1  0
 33 65  1  0
M  CHG  2   2   1  33   1
M  END
>  <UniqueID>  (17) 
16

>  <SMILES>  (17) 
C[N+](C)(C)CCOCCn1cc(CNCCN2C(=O)c3cccc4cccc(c34)C2=O)n[nH+]1

>  <Energy>  (17) 
114.33848758776787

>  <Genealogy>  (17) 
C[N+](C)(C)CCOCCn1cc(CNCCN2C(=O)c3cccc4cccc(c34)C2=O)n[nH+]1 (protonated)
C[N+](C)(C)CCOCCn1cc(CNCCN2C(=O)c3cccc4cccc(c34)C2=O)n[nH+]1 (3D coordinates assigned)
C[N+](C)(C)CCOCCn1cc(CNCCN2C(=O)c3cccc4cccc(c34)C2=O)n[nH+]1 (nonaromatic ring conformer: 114.33848758776787 kcal/mol)

>  <smiles>  (17) 
C[N+](C)(C)CCOCCn1cc(CNCCN2C(=O)c3cccc4cccc(c34)C2=O)nn1

>  <score_type>  (17) 
oracle

>  <origin>  (17) 
adg

>  <m_score__min__energy>  (17) 
-6.1100000000000003

>  <m_primary>  (17) 
energy

$$$$
17:0
     RDKit          3D

 51 53  0  0  0  0  0  0  0  0999 V2000
   56.6940   31.0700   52.1310 C   0  0  0  0  0  0  0  0  0  0  0  0
   57.4280   30.1350   51.3460 O   0  0  0  0  0  0  0  0  0  0  0  0
   58.7750   30.2870   50.9890 C   0  0  0  0  0  0  0  0  0  0  0  0
   59.2820   29.8580   49.7490 C   0  0  0  0  0  0  0  0  0  0  0  0
   60.6350   30.0340   49.4410 C   0  0  0  0  0  0  0  0  0  0  0  0
   61.5010   30.6420   50.3570 C   0  0  0  0  0  0  0  0  0  0  0  0
   62.8480   30.7920   49.9910 O   0  0  0  0  0  0  0  0  0  0  0  0
   63.9580   30.8060   50.8900 C   0  0  0  0  0  0  0  0  0  0  0  0
   64.3860   32.2400   51.2340 C   0  0  0  0  0  0  0  0  0  0  0  0
   64.4750   33.1720   50.0080 C   0  0  0  0  0  0  0  0  0  0  0  0
   63.2050   33.2190   49.2240 N   0  0  0  0  0  0  0  0  0  0  0  0
   63.4680   33.5980   47.8260 C   0  0  0  0  0  0  0  0  0  0  0  0
   62.1980   33.5360   46.9630 C   0  0  0  0  0  0  0  0  0  0  0  0
   60.9500   33.9320   47.6550 N   0  0  0  0  0  0  0  0  0  0  0  0
   59.6990   33.9570   46.8980 C   0  0  0  0  0  0  0  0  0  0  0  0
   59.6200   34.5780   45.6270 C   0  0  0  0  0  0  0  0  0  0  0  0
   58.4220   34.6000   44.9070 C   0  0  0  0  0  0  0  0  0  0  0  0
   57.2750   34.0110   45.4340 C   0  0  0  0  0  0  0  0  0  0  0  0
   57.3210   33.4010   46.6850 C   0  0  0  0  0  0  0  0  0  0  0  0
   58.5140   33.3740   47.4130 C   0  0  0  0  0  0  0  0  0  0  0  0
   60.9030   34.1340   49.1200 C   0  0  0  0  0  0  0  0  0  0  0  0
   62.2760   34.2120   49.7900 C   0  0  0  0  0  0  0  0  0  0  0  0
   60.9940   31.0660   51.6000 C   0  0  0  0  0  0  0  0  0  0  0  0
   59.6420   30.8910   51.9070 C   0  0  0  0  0  0  0  0  0  0  0  0
   56.8580   30.8611   53.1985 H   0  0  0  0  0  0  0  0  0  0  0  0
   57.0351   32.0900   51.9004 H   0  0  0  0  0  0  0  0  0  0  0  0
   55.6222   30.9808   51.9004 H   0  0  0  0  0  0  0  0  0  0  0  0
   58.6115   29.3820   49.0183 H   0  0  0  0  0  0  0  0  0  0  0  0
   61.0219   29.6914   48.4700 H   0  0  0  0  0  0  0  0  0  0  0  0
   63.6739   30.2858   51.8167 H   0  0  0  0  0  0  0  0  0  0  0  0
   64.8043   30.3013   50.4011 H   0  0  0  0  0  0  0  0  0  0  0  0
   63.6535   32.6615   51.9381 H   0  0  0  0  0  0  0  0  0  0  0  0
   65.3961   32.1791   51.6653 H   0  0  0  0  0  0  0  0  0  0  0  0
   64.7114   34.1885   50.3556 H   0  0  0  0  0  0  0  0  0  0  0  0
   65.2586   32.7748   49.3460 H   0  0  0  0  0  0  0  0  0  0  0  0
   62.7470   32.2750   49.2230 H   0  0  0  0  0  0  0  0  0  0  0  0
   63.8618   34.6249   47.8047 H   0  0  0  0  0  0  0  0  0  0  0  0
   64.1949   32.8838   47.4118 H   0  0  0  0  0  0  0  0  0  0  0  0
   62.3378   34.2060   46.1018 H   0  0  0  0  0  0  0  0  0  0  0  0
   62.0705   32.4807   46.6799 H   0  0  0  0  0  0  0  0  0  0  0  0
   60.5165   35.0508   45.1995 H   0  0  0  0  0  0  0  0  0  0  0  0
   58.3849   35.0845   43.9201 H   0  0  0  0  0  0  0  0  0  0  0  0
   56.3348   34.0277   44.8632 H   0  0  0  0  0  0  0  0  0  0  0  0
   56.4144   32.9383   47.1022 H   0  0  0  0  0  0  0  0  0  0  0  0
   58.5336   32.8924   48.4018 H   0  0  0  0  0  0  0  0  0  0  0  0
   60.3679   35.0738   49.3210 H   0  0  0  0  0  0  0  0  0  0  0  0
   60.3962   33.2540   49.5428 H   0  0  0  0  0  0  0  0  0  0  0  0
   62.6919   35.2190   49.6384 H   0  0  0  0  0  0  0  0  0  0  0  0
   62.1517   33.9995   50.8621 H   0  0  0  0  0  0  0  0  0  0  0  0
   61.6653   31.5373   52.3330 H   0  0  0  0  0  0  0  0  0  0  0  0
   59.2555   31.2311   52.8791 H   0  0  0  0  0  0  0  0  0  0  0  0
  1  2  1  0
  2  3  1  0
  3  4  2  0
  4  5  1  0
  5  6  2  0
  6  7  1  0
  7  8  1  0
  8  9  1  0
  9 10  1  0
 10 11  1  0
 11 12  1  0
 12 13  1  0
 13 14  1  0
 14 15  1  0
 15 16  2  0
 16 17  1  0
 17 18  2  0
 18 19  1  0
 19 20  2  0
 14 21  1  0
 21 22  1  0
  6 23  1  0
 23 24  2  0
 24  3  1  0
 22 11  1  0
 20 15  1  0
  1 25  1  0
  1 26  1  0
  1 27  1  0
  4 28  1  0
  5 29  1  0
  8 30  1  0
  8 31  1  0
  9 32  1  0
  9 33  1  0
 10 34  1  0
 10 35  1  0
 11 36  1  0
 12 37  1  0
 12 38  1  0
 13 39  1  0
 13 40  1  0
 16 41  1  0
 17 42  1  0
 18 43  1  0
 19 44  1  0
 20 45  1  0
 21 46  1  0
 21 47  1  0
 22 48  1  0
 22 49  1  0
 23 50  1  0
 24 51  1  0
M  CHG  1  11   1
M  END
>  <UniqueID>  (18) 
17

>  <SMILES>  (18) 
COc1ccc(OCCC[NH+]2CCN(c3ccccc3)CC2)cc1

>  <Energy>  (18) 
61.802336721252125

>  <Genealogy>  (18) 
COc1ccc(OCCC[NH+]2CCN(c3ccccc3)CC2)cc1 (protonated)
COc1ccc(OCCC[NH+]2CCN(c3ccccc3)CC2)cc1 (3D coordinates assigned)
COc1ccc(OCCC[NH+]2CCN(c3ccccc3)CC2)cc1 (nonaromatic ring conformer: 61.802336721252125 kcal/mol)

>  <smiles>  (18) 
COc1ccc(OCCCN2CCN(c3ccccc3)CC2)cc1

>  <score_type>  (18) 
oracle

>  <origin>  (18) 
adg

>  <m_score__min__energy>  (18) 
-4.8300000000000001

>  <m_primary>  (18) 
energy

$$$$
18:0
     RDKit          3D

 53 55  0  0  0  0  0  0  0  0999 V2000
   61.2010   29.7530   50.1940 C   0  0  0  0  0  0  0  0  0  0  0  0
   60.9040   31.1490   49.6210 C   0  0  0  0  0  0  0  0  0  0  0  0
   59.6870   31.2210   48.7800 N   0  0  0  0  0  0  0  0  0  0  0  0
   58.5600   32.0010   49.3370 C   0  0  0  0  0  0  0  0  0  0  0  0
   58.8870   32.7130   50.6520 C   0  0  0  0  0  0  0  0  0  0  0  0
   59.3050   29.9940   48.0500 C   0  0  0  0  0  0  0  0  0  0  0  0
   60.2960   29.7120   46.9190 C   0  0  0  0  0  0  0  0  0  0  0  0
   59.8910   30.3760   45.7200 O   0  0  0  0  0  0  0  0  0  0  0  0
   58.7650   30.0610   44.9380 C   0  0  0  0  0  0  0  0  0  0  0  0
   58.5220   28.7520   44.4740 C   0  0  0  0  0  0  0  0  0  0  0  0
   57.4320   28.4880   43.6400 C   0  0  0  0  0  0  0  0  0  0  0  0
   56.5820   29.5220   43.2500 C   0  0  0  0  0  0  0  0  0  0  0  0
   56.8060   30.8220   43.7040 C   0  0  0  0  0  0  0  0  0  0  0  0
   57.8800   31.0960   44.5660 C   0  0  0  0  0  0  0  0  0  0  0  0
   58.0490   32.4690   45.0800 C   0  0  0  0  0  0  0  0  0  0  0  0
   58.7890   32.8040   46.1530 N   0  0  0  0  0  0  0  0  0  0  0  0
   58.6220   34.1370   46.2230 C   0  0  0  0  0  0  0  0  0  0  0  0
   59.2850   35.0200   47.2330 C   0  0  0  0  0  0  0  0  0  0  0  0
   60.0400   34.2350   48.1540 O   0  0  0  0  0  0  0  0  0  0  0  0
   61.4010   33.9090   48.0270 C   0  0  0  0  0  0  0  0  0  0  0  0
   62.2180   34.0320   49.1570 C   0  0  0  0  0  0  0  0  0  0  0  0
   63.5810   33.7280   49.0850 C   0  0  0  0  0  0  0  0  0  0  0  0
   64.1390   33.2930   47.8800 C   0  0  0  0  0  0  0  0  0  0  0  0
   63.3320   33.1560   46.7480 C   0  0  0  0  0  0  0  0  0  0  0  0
   61.9670   33.4580   46.8170 C   0  0  0  0  0  0  0  0  0  0  0  0
   57.8180   34.5910   45.2410 N   0  0  0  0  0  0  0  0  0  0  0  0
   57.4790   33.5330   44.5630 O   0  0  0  0  0  0  0  0  0  0  0  0
   61.1914   29.7981   51.2930 H   0  0  0  0  0  0  0  0  0  0  0  0
   60.4335   29.0443   49.8494 H   0  0  0  0  0  0  0  0  0  0  0  0
   62.1905   29.4181   49.8494 H   0  0  0  0  0  0  0  0  0  0  0  0
   60.7821   31.8470   50.4624 H   0  0  0  0  0  0  0  0  0  0  0  0
   61.7512   31.4062   48.9683 H   0  0  0  0  0  0  0  0  0  0  0  0
   58.2647   32.7593   48.5969 H   0  0  0  0  0  0  0  0  0  0  0  0
   57.7534   31.2852   49.5540 H   0  0  0  0  0  0  0  0  0  0  0  0
   58.5935   32.0739   51.4978 H   0  0  0  0  0  0  0  0  0  0  0  0
   59.9674   32.9135   50.7016 H   0  0  0  0  0  0  0  0  0  0  0  0
   58.3351   33.6632   50.7016 H   0  0  0  0  0  0  0  0  0  0  0  0
   59.3012   29.1440   48.7481 H   0  0  0  0  0  0  0  0  0  0  0  0
   58.3032   30.1348   47.6179 H   0  0  0  0  0  0  0  0  0  0  0  0
   61.2928   30.0724   47.2131 H   0  0  0  0  0  0  0  0  0  0  0  0
   60.3237   28.6282   46.7329 H   0  0  0  0  0  0  0  0  0  0  0  0
   59.1945   27.9334   44.7702 H   0  0  0  0  0  0  0  0  0  0  0  0
   57.2443   27.4620   43.2905 H   0  0  0  0  0  0  0  0  0  0  0  0
   55.7329   29.3123   42.5829 H   0  0  0  0  0  0  0  0  0  0  0  0
   56.1383   31.6360   43.3853 H   0  0  0  0  0  0  0  0  0  0  0  0
   59.3190   32.1850   46.8020 H   0  0  0  0  0  0  0  0  0  0  0  0
   59.9573   35.7212   46.7169 H   0  0  0  0  0  0  0  0  0  0  0  0
   58.5131   35.5767   47.7846 H   0  0  0  0  0  0  0  0  0  0  0  0
   61.7842   34.3706   50.1095 H   0  0  0  0  0  0  0  0  0  0  0  0
   64.2148   33.8314   49.9781 H   0  0  0  0  0  0  0  0  0  0  0  0
   65.2123   33.0588   47.8229 H   0  0  0  0  0  0  0  0  0  0  0  0
   63.7703   32.8100   45.8003 H   0  0  0  0  0  0  0  0  0  0  0  0
   61.3341   33.3431   45.9247 H   0  0  0  0  0  0  0  0  0  0  0  0
  1  2  1  0
  2  3  1  0
  3  4  1  0
  4  5  1  0
  3  6  1  0
  6  7  1  0
  7  8  1  0
  8  9  1  0
  9 10  2  0
 10 11  1  0
 11 12  2  0
 12 13  1  0
 13 14  2  0
 14 15  1  0
 15 16  2  0
 16 17  1  0
 17 18  1  0
 18 19  1  0
 19 20  1  0
 20 21  2  0
 21 22  1  0
 22 23  2  0
 23 24  1  0
 24 25  2  0
 17 26  2  0
 26 27  1  0
 14  9  1  0
 27 15  1  0
 25 20  1  0
  1 28  1  0
  1 29  1  0
  1 30  1  0
  2 31  1  0
  2 32  1  0
  4 33  1  0
  4 34  1  0
  5 35  1  0
  5 36  1  0
  5 37  1  0
  6 38  1  0
  6 39  1  0
  7 40  1  0
  7 41  1  0
 10 42  1  0
 11 43  1  0
 12 44  1  0
 13 45  1  0
 16 46  1  0
 18 47  1  0
 18 48  1  0
 21 49  1  0
 22 50  1  0
 23 51  1  0
 24 52  1  0
 25 53  1  0
M  CHG  1  16   1
M  END
>  <UniqueID>  (19) 
18

>  <SMILES>  (19) 
CCN(CC)CCOc1ccccc1-c1[nH+]c(COc2ccccc2)no1

>  <Energy>  (19) 
96.69516575087985

>  <Genealogy>  (19) 
CCN(CC)CCOc1ccccc1-c1[nH+]c(COc2ccccc2)no1 (protonated)
CCN(CC)CCOc1ccccc1-c1[nH+]c(COc2ccccc2)no1 (3D coordinates assigned)
CCN(CC)CCOc1ccccc1-c1[nH+]c(COc2ccccc2)no1 (optimized conformer: 96.69516575087985 kcal/mol)

>  <smiles>  (19) 
CCN(CC)CCOc1ccccc1-c1nc(COc2ccccc2)no1

>  <score_type>  (19) 
oracle

>  <origin>  (19) 
adg

>  <m_score__min__energy>  (19) 
-5.9400000000000004

>  <m_primary>  (19) 
energy

$$$$
19:0
     RDKit          3D

 35 35  0  0  0  0  0  0  0  0999 V2000
   63.0480   32.7460   47.4790 C   0  0  0  0  0  0  0  0  0  0  0  0
   61.9470   33.7730   47.2180 C   0  0  0  0  0  0  0  0  0  0  0  0
   60.6250   33.3180   47.6910 N   0  0  0  0  0  0  0  0  0  0  0  0
   59.6410   33.3050   46.6240 C   0  0  0  0  0  0  0  0  0  0  0  0
   59.1000   34.5330   46.2020 C   0  0  0  0  0  0  0  0  0  0  0  0
   58.1570   34.5900   45.1840 C   0  0  0  0  0  0  0  0  0  0  0  0
   57.7400   33.4240   44.5540 C   0  0  0  0  0  0  0  0  0  0  0  0
   58.2600   32.1750   44.9300 C   0  0  0  0  0  0  0  0  0  0  0  0
   57.7840   30.9550   44.1660 C   0  0  0  0  0  0  0  0  0  0  0  0
   56.6700   30.2910   44.8740 N   0  0  0  0  0  0  0  0  0  0  0  0
   57.0940   28.9890   45.4180 C   0  0  0  0  0  0  0  0  0  0  0  0
   55.5360   30.0960   43.9570 C   0  0  0  0  0  0  0  0  0  0  0  0
   59.2220   32.1010   45.9810 C   0  0  0  0  0  0  0  0  0  0  0  0
   59.8470   30.7780   46.3730 C   0  0  0  0  0  0  0  0  0  0  0  0
   63.1827   32.6204   48.5635 H   0  0  0  0  0  0  0  0  0  0  0  0
   62.7643   31.7824   47.0307 H   0  0  0  0  0  0  0  0  0  0  0  0
   63.9896   33.0959   47.0307 H   0  0  0  0  0  0  0  0  0  0  0  0
   62.2054   34.7070   47.7384 H   0  0  0  0  0  0  0  0  0  0  0  0
   61.8796   33.9211   46.1301 H   0  0  0  0  0  0  0  0  0  0  0  0
   60.3290   33.8850   48.5150 H   0  0  0  0  0  0  0  0  0  0  0  0
   60.7310   32.3380   48.0460 H   0  0  0  0  0  0  0  0  0  0  0  0
   59.4294   35.4640   46.6865 H   0  0  0  0  0  0  0  0  0  0  0  0
   57.7395   35.5600   44.8760 H   0  0  0  0  0  0  0  0  0  0  0  0
   56.9920   33.4801   43.7494 H   0  0  0  0  0  0  0  0  0  0  0  0
   57.4419   31.2660   43.1679 H   0  0  0  0  0  0  0  0  0  0  0  0
   58.6199   30.2449   44.0818 H   0  0  0  0  0  0  0  0  0  0  0  0
   57.0809   29.0291   46.5172 H   0  0  0  0  0  0  0  0  0  0  0  0
   56.4048   28.2048   45.0715 H   0  0  0  0  0  0  0  0  0  0  0  0
   58.1128   28.7611   45.0715 H   0  0  0  0  0  0  0  0  0  0  0  0
   54.6164   29.9379   44.5395 H   0  0  0  0  0  0  0  0  0  0  0  0
   55.4197   30.9873   43.3230 H   0  0  0  0  0  0  0  0  0  0  0  0
   55.7241   29.2170   43.3230 H   0  0  0  0  0  0  0  0  0  0  0  0
   59.8836   30.7004   47.4697 H   0  0  0  0  0  0  0  0  0  0  0  0
   59.2435   29.9528   45.9670 H   0  0  0  0  0  0  0  0  0  0  0  0
   60.8677   30.7201   45.9670 H   0  0  0  0  0  0  0  0  0  0  0  0
  1  2  1  0
  2  3  1  0
  3  4  1  0
  4  5  2  0
  5  6  1  0
  6  7  2  0
  7  8  1  0
  8  9  1  0
  9 10  1  0
 10 11  1  0
 10 12  1  0
  8 13  2  0
 13 14  1  0
 13  4  1  0
  1 15  1  0
  1 16  1  0
  1 17  1  0
  2 18  1  0
  2 19  1  0
  3 20  1  0
  3 21  1  0
  5 22  1  0
  6 23  1  0
  7 24  1  0
  9 25  1  0
  9 26  1  0
 11 27  1  0
 11 28  1  0
 11 29  1  0
 12 30  1  0
 12 31  1  0
 12 32  1  0
 14 33  1  0
 14 34  1  0
 14 35  1  0
M  CHG  1   3   1
M  END
>  <UniqueID>  (20) 
19

>  <SMILES>  (20) 
CC[NH2+]c1cccc(CN(C)C)c1C

>  <Energy>  (20) 
36.57127840243223

>  <Genealogy>  (20) 
CC[NH2+]c1cccc(CN(C)C)c1C (protonated)
CC[NH2+]c1cccc(CN(C)C)c1C (3D coordinates assigned)
CC[NH2+]c1cccc(CN(C)C)c1C (optimized conformer: 36.57127840243223 kcal/mol)

>  <smiles>  (20) 
CCNc1cccc(CN(C)C)c1C

>  <score_type>  (20) 
oracle

>  <origin>  (20) 
adg

>  <m_score__min__energy>  (20) 
-3.98

>  <m_primary>  (20) 
energy

$$$$
20:0
     RDKit          3D

 44 47  0  0  0  0  0  0  0  0999 V2000
   59.3100   34.9690   47.2250 C   0  0  0  0  0  0  0  0  0  0  0  0
   59.7550   33.6850   47.6480 O   0  0  0  0  0  0  0  0  0  0  0  0
   61.0900   33.2490   47.6100 C   0  0  0  0  0  0  0  0  0  0  0  0
   62.0490   33.8790   46.7920 C   0  0  0  0  0  0  0  0  0  0  0  0
   63.3640   33.4080   46.7510 C   0  0  0  0  0  0  0  0  0  0  0  0
   63.7340   32.3000   47.5130 C   0  0  0  0  0  0  0  0  0  0  0  0
   62.7960   31.6670   48.3280 C   0  0  0  0  0  0  0  0  0  0  0  0
   61.4780   32.1490   48.4090 C   0  0  0  0  0  0  0  0  0  0  0  0
   60.4810   31.4340   49.2940 C   0  0  0  0  0  0  0  0  0  0  0  0
   59.8500   30.3490   48.6160 O   0  0  0  0  0  0  0  0  0  0  0  0
   59.3000   30.3830   47.3260 C   0  0  0  0  0  0  0  0  0  0  0  0
   58.7560   31.5060   46.8100 N   0  0  0  0  0  0  0  0  0  0  0  0
   58.2840   31.2490   45.5970 N   0  0  0  0  0  0  0  0  0  0  0  0
   57.5410   32.2050   44.7770 C   0  0  0  0  0  0  0  0  0  0  0  0
   58.3190   33.4670   44.4390 C   0  0  0  0  0  0  0  0  0  0  0  0
   58.1170   32.3940   43.3830 C   0  0  0  0  0  0  0  0  0  0  0  0
   58.5090   29.9470   45.3280 C   0  0  0  0  0  0  0  0  0  0  0  0
   58.1560   29.2280   44.1850 C   0  0  0  0  0  0  0  0  0  0  0  0
   58.5260   27.8690   44.1180 C   0  0  0  0  0  0  0  0  0  0  0  0
   58.1380   27.0440   42.9280 C   0  0  0  0  0  0  0  0  0  0  0  0
   59.2140   27.2700   45.2020 C   0  0  0  0  0  0  0  0  0  0  0  0
   59.5500   28.0200   46.3430 C   0  0  0  0  0  0  0  0  0  0  0  0
   59.1660   29.3630   46.3850 C   0  0  0  0  0  0  0  0  0  0  0  0
   59.0944   35.5910   48.1063 H   0  0  0  0  0  0  0  0  0  0  0  0
   60.0944   35.4483   46.6209 H   0  0  0  0  0  0  0  0  0  0  0  0
   58.3972   34.8601   46.6209 H   0  0  0  0  0  0  0  0  0  0  0  0
   61.7605   34.7474   46.1816 H   0  0  0  0  0  0  0  0  0  0  0  0
   64.1083   33.9118   46.1169 H   0  0  0  0  0  0  0  0  0  0  0  0
   64.7672   31.9249   47.4711 H   0  0  0  0  0  0  0  0  0  0  0  0
   63.0901   30.7828   48.9126 H   0  0  0  0  0  0  0  0  0  0  0  0
   61.0062   31.0436   50.1781 H   0  0  0  0  0  0  0  0  0  0  0  0
   59.7020   32.1553   49.5818 H   0  0  0  0  0  0  0  0  0  0  0  0
   58.6800   32.4280   47.2970 H   0  0  0  0  0  0  0  0  0  0  0  0
   56.5440   31.9908   45.1894 H   0  0  0  0  0  0  0  0  0  0  0  0
   57.7943   34.4299   44.3521 H   0  0  0  0  0  0  0  0  0  0  0  0
   59.1915   33.9812   44.8683 H   0  0  0  0  0  0  0  0  0  0  0  0
   57.4461   32.5800   42.5314 H   0  0  0  0  0  0  0  0  0  0  0  0
   58.7829   31.8096   42.7310 H   0  0  0  0  0  0  0  0  0  0  0  0
   57.6059   29.7069   43.3616 H   0  0  0  0  0  0  0  0  0  0  0  0
   57.6927   26.0972   43.2677 H   0  0  0  0  0  0  0  0  0  0  0  0
   57.4055   27.5969   42.3216 H   0  0  0  0  0  0  0  0  0  0  0  0
   59.0310   26.8325   42.3216 H   0  0  0  0  0  0  0  0  0  0  0  0
   59.4885   26.2060   45.1505 H   0  0  0  0  0  0  0  0  0  0  0  0
   60.0996   27.5625   47.1789 H   0  0  0  0  0  0  0  0  0  0  0  0
  1  2  1  0
  2  3  1  0
  3  4  2  0
  4  5  1  0
  5  6  2  0
  6  7  1  0
  7  8  2  0
  8  9  1  0
  9 10  1  0
 10 11  1  0
 11 12  2  0
 12 13  1  0
 13 14  1  0
 14 15  1  0
 15 16  1  0
 13 17  1  0
 17 18  2  0
 18 19  1  0
 19 20  1  0
 19 21  2  0
 21 22  1  0
 22 23  2  0
  8  3  1  0
 23 11  1  0
 16 14  1  0
 23 17  1  0
  1 24  1  0
  1 25  1  0
  1 26  1  0
  4 27  1  0
  5 28  1  0
  6 29  1  0
  7 30  1  0
  9 31  1  0
  9 32  1  0
 12 33  1  0
 14 34  1  0
 15 35  1  0
 15 36  1  0
 16 37  1  0
 16 38  1  0
 18 39  1  0
 20 40  1  0
 20 41  1  0
 20 42  1  0
 21 43  1  0
 22 44  1  0
M  CHG  1  12   1
M  END
>  <UniqueID>  (21) 
20

>  <SMILES>  (21) 
COc1ccccc1COc1[nH+]n(C2CC2)c2cc(C)ccc12

>  <Energy>  (21) 
352.32639510253165

>  <Genealogy>  (21) 
COc1ccccc1COc1[nH+]n(C2CC2)c2cc(C)ccc12 (protonated)
COc1ccccc1COc1[nH+]n(C2CC2)c2cc(C)ccc12 (3D coordinates assigned)
COc1ccccc1COc1[nH+]n(C2CC2)c2cc(C)ccc12 (nonaromatic ring conformer: 352.32639510253165 kcal/mol)

>  <smiles>  (21) 
COc1ccccc1COc1nn(C2CC2)c2cc(C)ccc12

>  <score_type>  (21) 
oracle

>  <origin>  (21) 
adg

>  <m_score__min__energy>  (21) 
-5.2300000000000004

>  <m_primary>  (21) 
energy

$$$$
21:0
     RDKit          3D

 55 58  0  0  0  0  0  0  0  0999 V2000
   58.7920   24.8870   45.6450 C   0  0  0  0  0  0  0  0  0  0  0  0
   58.3200   26.2700   45.3070 C   0  0  0  0  0  0  0  0  0  0  0  0
   58.2520   26.6850   43.9680 C   0  0  0  0  0  0  0  0  0  0  0  0
   57.7790   27.9620   43.6490 C   0  0  0  0  0  0  0  0  0  0  0  0
   57.3620   28.8330   44.6640 C   0  0  0  0  0  0  0  0  0  0  0  0
   56.7630   30.4410   44.2720 S   0  0  0  0  0  0  0  0  0  0  0  0
   57.0780   30.7730   42.8390 O   0  0  0  0  0  0  0  0  0  0  0  0
   55.2720   30.4600   44.4680 O   0  0  0  0  0  0  0  0  0  0  0  0
   57.5150   31.6120   45.3240 N   0  0  0  0  0  0  0  0  0  0  0  0
   58.8660   31.9330   44.8430 C   0  0  0  0  0  0  0  0  0  0  0  0
   59.6300   32.7510   45.9030 C   0  0  0  0  0  0  0  0  0  0  0  0
   58.6940   33.5890   46.8360 C   0  0  0  0  0  0  0  0  0  0  0  0
   59.4220   34.8690   47.3260 C   0  0  0  0  0  0  0  0  0  0  0  0
   60.6760   34.5670   48.1650 C   0  0  0  0  0  0  0  0  0  0  0  0
   60.5240   33.3310   49.0660 C   0  0  0  0  0  0  0  0  0  0  0  0
   59.1110   32.9780   49.2570 N   0  0  0  0  0  0  0  0  0  0  0  0
   58.6060   32.7050   50.5780 C   0  0  0  0  0  0  0  0  0  0  0  0
   58.9070   33.5700   51.6450 C   0  0  0  0  0  0  0  0  0  0  0  0
   58.4080   33.3130   52.9260 C   0  0  0  0  0  0  0  0  0  0  0  0
   57.6020   32.1960   53.1520 C   0  0  0  0  0  0  0  0  0  0  0  0
   57.2890   31.3340   52.0970 C   0  0  0  0  0  0  0  0  0  0  0  0
   57.7860   31.5870   50.8150 C   0  0  0  0  0  0  0  0  0  0  0  0
   58.2460   32.7560   48.0860 C   0  0  0  0  0  0  0  0  0  0  0  0
   57.4460   34.0240   46.0170 C   0  0  0  0  0  0  0  0  0  0  0  0
   56.6810   32.8260   45.4100 C   0  0  0  0  0  0  0  0  0  0  0  0
   57.4070   28.4110   46.0000 C   0  0  0  0  0  0  0  0  0  0  0  0
   57.8800   27.1360   46.3210 C   0  0  0  0  0  0  0  0  0  0  0  0
   58.8319   24.7701   46.7380 H   0  0  0  0  0  0  0  0  0  0  0  0
   58.0951   24.1482   45.2224 H   0  0  0  0  0  0  0  0  0  0  0  0
   59.7951   24.7284   45.2224 H   0  0  0  0  0  0  0  0  0  0  0  0
   58.5720   26.0032   43.1662 H   0  0  0  0  0  0  0  0  0  0  0  0
   57.7343   28.2834   42.5980 H   0  0  0  0  0  0  0  0  0  0  0  0
   59.4115   30.9990   44.6426 H   0  0  0  0  0  0  0  0  0  0  0  0
   58.7861   32.5275   43.9209 H   0  0  0  0  0  0  0  0  0  0  0  0
   60.2121   32.0563   46.5264 H   0  0  0  0  0  0  0  0  0  0  0  0
   60.2714   33.4630   45.3630 H   0  0  0  0  0  0  0  0  0  0  0  0
   59.7224   35.4588   46.4474 H   0  0  0  0  0  0  0  0  0  0  0  0
   58.7205   35.4185   47.9710 H   0  0  0  0  0  0  0  0  0  0  0  0
   61.5209   34.3983   47.4811 H   0  0  0  0  0  0  0  0  0  0  0  0
   60.8416   35.4316   48.8246 H   0  0  0  0  0  0  0  0  0  0  0  0
   61.0452   32.4819   48.5998 H   0  0  0  0  0  0  0  0  0  0  0  0
   60.9589   33.5635   50.0493 H   0  0  0  0  0  0  0  0  0  0  0  0
   59.5385   34.4538   51.4712 H   0  0  0  0  0  0  0  0  0  0  0  0
   58.6510   33.9920   53.7566 H   0  0  0  0  0  0  0  0  0  0  0  0
   57.2129   31.9940   54.1609 H   0  0  0  0  0  0  0  0  0  0  0  0
   56.6511   30.4558   52.2757 H   0  0  0  0  0  0  0  0  0  0  0  0
   57.5344   30.9079   49.9870 H   0  0  0  0  0  0  0  0  0  0  0  0
   58.2740   31.6877   47.8253 H   0  0  0  0  0  0  0  0  0  0  0  0
   57.2309   33.0825   48.3562 H   0  0  0  0  0  0  0  0  0  0  0  0
   56.7647   34.5761   46.6811 H   0  0  0  0  0  0  0  0  0  0  0  0
   57.7983   34.6490   45.1832 H   0  0  0  0  0  0  0  0  0  0  0  0
   55.8059   32.6096   46.0403 H   0  0  0  0  0  0  0  0  0  0  0  0
   56.3828   33.1014   44.3876 H   0  0  0  0  0  0  0  0  0  0  0  0
   57.0684   29.0866   46.7993 H   0  0  0  0  0  0  0  0  0  0  0  0
   57.9078   26.8097   47.3711 H   0  0  0  0  0  0  0  0  0  0  0  0
  1  2  1  0
  2  3  2  0
  3  4  1  0
  4  5  2  0
  5  6  1  0
  6  7  2  0
  6  8  2  0
  6  9  1  0
  9 10  1  0
 10 11  1  0
 11 12  1  0
 12 13  1  0
 13 14  1  0
 14 15  1  0
 15 16  1  0
 16 17  1  0
 17 18  2  0
 18 19  1  0
 19 20  2  0
 20 21  1  0
 21 22  2  0
 16 23  1  0
 12 24  1  0
 24 25  1  0
  5 26  1  0
 26 27  2  0
 27  2  1  0
 25  9  1  0
 23 12  1  0
 22 17  1  0
  1 28  1  0
  1 29  1  0
  1 30  1  0
  3 31  1  0
  4 32  1  0
 10 33  1  0
 10 34  1  0
 11 35  1  0
 11 36  1  0
 13 37  1  0
 13 38  1  0
 14 39  1  0
 14 40  1  0
 15 41  1  0
 15 42  1  0
 18 43  1  0
 19 44  1  0
 20 45  1  0
 21 46  1  0
 22 47  1  0
 23 48  1  0
 23 49  1  0
 24 50  1  0
 24 51  1  0
 25 52  1  0
 25 53  1  0
 26 54  1  0
 27 55  1  0
M  END
>  <UniqueID>  (22) 
21

>  <SMILES>  (22) 
Cc1ccc(S(=O)(=O)N2CCC3(CCCN(c4ccccc4)C3)CC2)cc1

>  <Energy>  (22) 
71.26245959460073

>  <Genealogy>  (22) 
Cc1ccc(S(=O)(=O)N2CCC3(CCCN(c4ccccc4)C3)CC2)cc1 (3D coordinates assigned)
Cc1ccc(S(=O)(=O)N2CCC3(CCCN(c4ccccc4)C3)CC2)cc1 (nonaromatic ring conformer: 71.26245959460073 kcal/mol)

>  <smiles>  (22) 
Cc1ccc(S(=O)(=O)N2CCC3(CCCN(c4ccccc4)C3)CC2)cc1

>  <score_type>  (22) 
oracle

>  <origin>  (22) 
adg

>  <m_score__min__energy>  (22) 
-9.5199999999999996

>  <m_primary>  (22) 
energy

$$$$
22:0
     RDKit          3D

 41 43  0  0  0  0  0  0  0  0999 V2000
   55.6445   34.1477   44.8904 H   0  0  0  0  0  0  0  0  0  0  0  0
   56.6850   34.1790   45.2460 C   0  0  0  0  0  0  0  0  0  0  0  0
   57.6150   34.8980   44.5630 N   0  0  0  0  0  0  0  0  0  0  0  0
   58.9100   34.9600   44.9720 C   0  0  0  0  0  0  0  0  0  0  0  0
   59.6388   35.5524   44.3993 H   0  0  0  0  0  0  0  0  0  0  0  0
   59.3170   34.2730   46.1180 C   0  0  0  0  0  0  0  0  0  0  0  0
   60.3637   34.3247   46.4524 H   0  0  0  0  0  0  0  0  0  0  0  0
   58.3820   33.5170   46.8390 C   0  0  0  0  0  0  0  0  0  0  0  0
   58.8140   32.7320   48.0510 C   0  0  0  0  0  0  0  0  0  0  0  0
   58.0165   32.0262   48.3262 H   0  0  0  0  0  0  0  0  0  0  0  0
   59.0058   33.4347   48.8753 H   0  0  0  0  0  0  0  0  0  0  0  0
   60.0450   31.9830   47.7770 N   0  0  0  0  0  0  0  0  0  0  0  0
   61.2990   32.4250   47.9930 C   0  0  0  0  0  0  0  0  0  0  0  0
   61.5744   33.3729   48.4784 H   0  0  0  0  0  0  0  0  0  0  0  0
   62.1780   31.4830   47.5000 C   0  0  0  0  0  0  0  0  0  0  0  0
   63.6620   31.6150   47.4320 C   0  0  0  0  0  0  0  0  0  0  0  0
   64.0739   31.6516   48.4513 H   0  0  0  0  0  0  0  0  0  0  0  0
   64.0829   30.7507   46.8973 H   0  0  0  0  0  0  0  0  0  0  0  0
   63.9237   32.5400   46.8973 H   0  0  0  0  0  0  0  0  0  0  0  0
   61.4780   30.4680   46.9570 N   0  0  0  0  0  0  0  0  0  0  0  0
   61.8570   29.6320   46.4590 H   0  0  0  0  0  0  0  0  0  0  0  0
   60.1840   30.7860   47.1560 C   0  0  0  0  0  0  0  0  0  0  0  0
   59.0740   29.9840   46.6220 C   0  0  0  0  0  0  0  0  0  0  0  0
   57.9490   30.5650   45.5130 S   0  0  0  0  0  0  0  0  0  0  0  0
   57.0450   29.1530   45.5640 C   0  0  0  0  0  0  0  0  0  0  0  0
   55.9460   28.9770   44.8940 N   0  0  0  0  0  0  0  0  0  0  0  0
   55.5190   29.8200   43.7800 C   0  0  0  0  0  0  0  0  0  0  0  0
   55.4453   30.8624   44.1235 H   0  0  0  0  0  0  0  0  0  0  0  0
   54.5407   29.4658   43.4231 H   0  0  0  0  0  0  0  0  0  0  0  0
   56.5190   29.7410   42.6300 C   0  0  0  0  0  0  0  0  0  0  0  0
   57.5384   29.6605   43.0354 H   0  0  0  0  0  0  0  0  0  0  0  0
   56.2990   28.8574   42.0128 H   0  0  0  0  0  0  0  0  0  0  0  0
   56.4405   30.6481   42.0128 H   0  0  0  0  0  0  0  0  0  0  0  0
   57.5780   28.2280   46.3950 N   0  0  0  0  0  0  0  0  0  0  0  0
   58.7160   28.6820   46.9840 C   0  0  0  0  0  0  0  0  0  0  0  0
   59.4890   27.8170   47.9290 C   0  0  0  0  0  0  0  0  0  0  0  0
   59.2420   28.0934   48.9646 H   0  0  0  0  0  0  0  0  0  0  0  0
   59.2270   26.7624   47.7585 H   0  0  0  0  0  0  0  0  0  0  0  0
   60.5664   27.9593   47.7585 H   0  0  0  0  0  0  0  0  0  0  0  0
   57.0500   33.4800   46.3990 C   0  0  0  0  0  0  0  0  0  0  0  0
   56.2981   32.9042   46.9585 H   0  0  0  0  0  0  0  0  0  0  0  0
  1  2  1  0
  2  3  2  0
  3  4  1  0
  4  5  1  0
  4  6  2  0
  6  7  1  0
  6  8  1  0
  8  9  1  0
  9 10  1  0
  9 11  1  0
  9 12  1  0
 12 13  1  0
 13 14  1  0
 13 15  2  0
 15 16  1  0
 16 17  1  0
 16 18  1  0
 16 19  1  0
 15 20  1  0
 20 21  1  0
 20 22  2  0
 22 23  1  0
 23 24  1  0
 24 25  1  0
 25 26  2  0
 26 27  1  0
 27 28  1  0
 27 29  1  0
 27 30  1  0
 30 31  1  0
 30 32  1  0
 30 33  1  0
 25 34  1  0
 34 35  1  0
 35 36  1  0
 36 37  1  0
 36 38  1  0
 36 39  1  0
  8 40  2  0
 40 41  1  0
 40  2  1  0
 22 12  1  0
 35 23  2  0
M  CHG  2  20   1  34  -1
M  END
>  <UniqueID>  (23) 
22

>  <SMILES>  (23) 
CC/N=c1\[n-]c(C)c(-c2[nH+]c(C)cn2Cc2ccncc2)s1

>  <Energy>  (23) 
101.45571899045217

>  <Genealogy>  (23) 
CCN=c1[n-]c(C)c(-c2[nH+]c(C)cn2Cc2ccncc2)s1 (protonated)
CC/N=c1\[n-]c(C)c(-c2[nH+]c(C)cn2Cc2ccncc2)s1 (cis-trans isomerization)
CC/N=c1\[n-]c(C)c(-c2[nH+]c(C)cn2Cc2ccncc2)s1 (3D coordinates assigned)
CC/N=c1\[n-]c(C)c(-c2[nH+]c(C)cn2Cc2ccncc2)s1 (optimized conformer: 101.45571899045217 kcal/mol)

>  <smiles>  (23) 
CCN=c1[nH]c(C)c(-c2nc(C)cn2Cc2ccncc2)s1

>  <score_type>  (23) 
oracle

>  <origin>  (23) 
adg

>  <m_score__min__energy>  (23) 
-7.3600000000000003

>  <m_primary>  (23) 
energy

$$$$
23:0
     RDKit          3D

 41 43  0  0  0  0  0  0  0  0999 V2000
   58.9700   28.4440   46.0580 C   0  0  0  0  0  0  0  0  0  0  0  0
   58.8000   29.8970   45.7020 C   0  0  0  0  0  0  0  0  0  0  0  0
   58.0550   30.2270   44.5580 C   0  0  0  0  0  0  0  0  0  0  0  0
   57.8480   31.5570   44.2040 C   0  0  0  0  0  0  0  0  0  0  0  0
   57.1120   31.8590   43.1070 F   0  0  0  0  0  0  0  0  0  0  0  0
   58.3790   32.5810   44.9860 C   0  0  0  0  0  0  0  0  0  0  0  0
   59.1420   32.2890   46.1260 C   0  0  0  0  0  0  0  0  0  0  0  0
   59.3770   30.9350   46.4840 C   0  0  0  0  0  0  0  0  0  0  0  0
   60.1600   30.6450   47.6640 N   0  0  0  0  0  0  0  0  0  0  0  0
   59.3870   30.9720   48.8290 C   0  0  0  0  0  0  0  0  0  0  0  0
   58.9850   30.0270   49.7870 C   0  0  0  0  0  0  0  0  0  0  0  0
   58.2970   30.5880   50.8570 C   0  0  0  0  0  0  0  0  0  0  0  0
   58.1960   32.2510   50.6110 S   0  0  0  0  0  0  0  0  0  0  0  0
   59.0060   32.2730   49.1380 C   0  0  0  0  0  0  0  0  0  0  0  0
   59.3130   33.4700   48.3390 C   0  0  0  0  0  0  0  0  0  0  0  0
   59.3000   34.5950   48.9050 O   0  0  0  0  0  0  0  0  0  0  0  0
   59.6550   33.3710   46.9370 N   0  0  0  0  0  0  0  0  0  0  0  0
   60.5850   34.3480   46.3490 C   0  0  0  0  0  0  0  0  0  0  0  0
   62.0460   33.8410   46.3840 C   0  0  0  0  0  0  0  0  0  0  0  0
   62.3450   32.9300   47.5130 N   0  0  0  0  0  0  0  0  0  0  0  0
   63.3860   31.9400   47.1890 C   0  0  0  0  0  0  0  0  0  0  0  0
   62.6550   33.6420   48.7620 C   0  0  0  0  0  0  0  0  0  0  0  0
   58.9829   28.3337   47.1524 H   0  0  0  0  0  0  0  0  0  0  0  0
   58.1336   27.8640   45.6409 H   0  0  0  0  0  0  0  0  0  0  0  0
   59.9177   28.0727   45.6409 H   0  0  0  0  0  0  0  0  0  0  0  0
   57.6306   29.4258   43.9352 H   0  0  0  0  0  0  0  0  0  0  0  0
   58.1978   33.6293   44.7062 H   0  0  0  0  0  0  0  0  0  0  0  0
   61.0290   31.2290   47.6580 H   0  0  0  0  0  0  0  0  0  0  0  0
   60.4770   29.6520   47.7040 H   0  0  0  0  0  0  0  0  0  0  0  0
   59.1936   28.9505   49.6995 H   0  0  0  0  0  0  0  0  0  0  0  0
   57.8881   30.0389   51.7180 H   0  0  0  0  0  0  0  0  0  0  0  0
   60.2961   34.5305   45.3034 H   0  0  0  0  0  0  0  0  0  0  0  0
   60.5292   35.2734   46.9410 H   0  0  0  0  0  0  0  0  0  0  0  0
   62.2477   33.3047   45.4450 H   0  0  0  0  0  0  0  0  0  0  0  0
   62.6852   34.7267   46.5143 H   0  0  0  0  0  0  0  0  0  0  0  0
   63.8105   31.5363   48.1200 H   0  0  0  0  0  0  0  0  0  0  0  0
   62.9436   31.1213   46.6025 H   0  0  0  0  0  0  0  0  0  0  0  0
   64.1815   32.4230   46.6025 H   0  0  0  0  0  0  0  0  0  0  0  0
   62.3807   33.0120   49.6210 H   0  0  0  0  0  0  0  0  0  0  0  0
   63.7316   33.8647   48.7996 H   0  0  0  0  0  0  0  0  0  0  0  0
   62.0846   34.5818   48.7996 H   0  0  0  0  0  0  0  0  0  0  0  0
  1  2  1  0
  2  3  2  0
  3  4  1  0
  4  5  1  0
  4  6  2  0
  6  7  1  0
  7  8  2  0
  8  9  1  0
  9 10  1  0
 10 11  1  0
 11 12  2  0
 12 13  1  0
 13 14  1  0
 14 15  1  0
 15 16  2  0
 15 17  1  0
 17 18  1  0
 18 19  1  0
 19 20  1  0
 20 21  1  0
 20 22  1  0
  8  2  1  0
 14 10  2  0
 17  7  1  0
  1 23  1  0
  1 24  1  0
  1 25  1  0
  3 26  1  0
  6 27  1  0
  9 28  1  0
  9 29  1  0
 11 30  1  0
 12 31  1  0
 18 32  1  0
 18 33  1  0
 19 34  1  0
 19 35  1  0
 21 36  1  0
 21 37  1  0
 21 38  1  0
 22 39  1  0
 22 40  1  0
 22 41  1  0
M  CHG  1   9   1
M  END
>  <UniqueID>  (24) 
23

>  <SMILES>  (24) 
Cc1cc(F)cc2c1[NH2+]c1ccsc1C(=O)N2CCN(C)C

>  <Energy>  (24) 
86.35969281304797

>  <Genealogy>  (24) 
Cc1cc(F)cc2c1[NH2+]c1ccsc1C(=O)N2CCN(C)C (protonated)
Cc1cc(F)cc2c1[NH2+]c1ccsc1C(=O)N2CCN(C)C (3D coordinates assigned)
Cc1cc(F)cc2c1[NH2+]c1ccsc1C(=O)N2CCN(C)C (nonaromatic ring conformer: 86.35969281304797 kcal/mol)

>  <smiles>  (24) 
Cc1cc(F)cc2c1Nc1ccsc1C(=O)N2CCN(C)C

>  <score_type>  (24) 
oracle

>  <origin>  (24) 
adg

>  <m_score__min__energy>  (24) 
-4.3200000000000003

>  <m_primary>  (24) 
energy

$$$$
24:0
     RDKit          3D

 28 29  0  0  0  0  0  0  0  0999 V2000
   57.2019   25.0798   45.2148 H   0  0  0  0  0  0  0  0  0  0  0  0
   57.5790   26.1090   45.3070 C   0  0  0  0  0  0  0  0  0  0  0  0
   56.6510   27.4730   45.6210 S   0  0  0  0  0  0  0  0  0  0  0  0
   57.9170   28.5830   45.6060 C   0  0  0  0  0  0  0  0  0  0  0  0
   57.7490   30.0300   45.8230 C   0  0  0  0  0  0  0  0  0  0  0  0
   58.3410   30.5860   46.7880 O   0  0  0  0  0  0  0  0  0  0  0  0
   56.9360   30.7820   44.9710 O   0  0  0  0  0  0  0  0  0  0  0  0
   57.1490   30.8570   43.5660 C   0  0  0  0  0  0  0  0  0  0  0  0
   57.8429   30.0613   43.2570 H   0  0  0  0  0  0  0  0  0  0  0  0
   56.1903   30.7302   43.0417 H   0  0  0  0  0  0  0  0  0  0  0  0
   57.7350   32.1930   43.2220 C   0  0  0  0  0  0  0  0  0  0  0  0
   58.5040   32.2710   42.2290 O   0  0  0  0  0  0  0  0  0  0  0  0
   57.5010   33.3770   44.0030 N   0  0  0  0  0  0  0  0  0  0  0  0
   58.0850   33.7600   45.1030 C   0  0  0  0  0  0  0  0  0  0  0  0
   59.2570   34.9630   45.2680 S   0  0  0  0  0  0  0  0  0  0  0  0
   59.4500   34.7080   46.9220 C   0  0  0  0  0  0  0  0  0  0  0  0
   60.1307   35.2597   47.5870 H   0  0  0  0  0  0  0  0  0  0  0  0
   58.5960   33.6760   47.2980 C   0  0  0  0  0  0  0  0  0  0  0  0
   58.5294   33.3092   48.3329 H   0  0  0  0  0  0  0  0  0  0  0  0
   57.8500   33.1560   46.2870 N   0  0  0  0  0  0  0  0  0  0  0  0
   57.1730   32.3710   46.4190 H   0  0  0  0  0  0  0  0  0  0  0  0
   59.1030   27.8840   45.3490 C   0  0  0  0  0  0  0  0  0  0  0  0
   60.4590   28.5160   45.2500 C   0  0  0  0  0  0  0  0  0  0  0  0
   60.8527   28.6995   46.2606 H   0  0  0  0  0  0  0  0  0  0  0  0
   61.1390   27.8420   44.7084 H   0  0  0  0  0  0  0  0  0  0  0  0
   60.3802   29.4702   44.7084 H   0  0  0  0  0  0  0  0  0  0  0  0
   58.9030   26.5040   45.1840 C   0  0  0  0  0  0  0  0  0  0  0  0
   59.7221   25.7999   44.9760 H   0  0  0  0  0  0  0  0  0  0  0  0
  1  2  1  0
  2  3  1  0
  3  4  1  0
  4  5  1  0
  5  6  2  0
  5  7  1  0
  7  8  1  0
  8  9  1  0
  8 10  1  0
  8 11  1  0
 11 12  2  0
 11 13  1  0
 13 14  2  0
 14 15  1  0
 15 16  1  0
 16 17  1  0
 16 18  2  0
 18 19  1  0
 18 20  1  0
 20 21  1  0
  4 22  2  0
 22 23  1  0
 23 24  1  0
 23 25  1  0
 23 26  1  0
 22 27  1  0
 27 28  1  0
 27  2  2  0
 20 14  1  0
M  END
>  <UniqueID>  (25) 
24

>  <SMILES>  (25) 
Cc1ccsc1C(=O)OCC(=O)/N=c1/[nH]ccs1

>  <Energy>  (25) 
85.34192814724207

>  <Genealogy>  (25) 
Cc1ccsc1C(=O)OCC(=O)/N=c1/[nH]ccs1 (cis-trans isomerization)
Cc1ccsc1C(=O)OCC(=O)/N=c1/[nH]ccs1 (3D coordinates assigned)
Cc1ccsc1C(=O)OCC(=O)/N=c1/[nH]ccs1 (optimized conformer: 85.34192814724207 kcal/mol)

>  <smiles>  (25) 
Cc1ccsc1C(=O)OCC(=O)N=c1[nH]ccs1

>  <score_type>  (25) 
oracle

>  <origin>  (25) 
adg

>  <m_score__min__energy>  (25) 
-6.5999999999999996

>  <m_primary>  (25) 
energy

$$$$
25:0
     RDKit          3D

 46 49  0  0  0  0  0  0  0  0999 V2000
   57.7750   33.0630   52.7110 C   0  0  0  0  0  0  0  0  0  0  0  0
   57.4770   31.7820   52.1670 O   0  0  0  0  0  0  0  0  0  0  0  0
   58.1140   31.2300   51.0460 C   0  0  0  0  0  0  0  0  0  0  0  0
   58.6070   29.9110   51.0310 C   0  0  0  0  0  0  0  0  0  0  0  0
   59.2350   29.4070   49.8880 C   0  0  0  0  0  0  0  0  0  0  0  0
   59.3850   30.2100   48.7500 C   0  0  0  0  0  0  0  0  0  0  0  0
   60.0090   29.6830   47.5690 N   0  0  0  0  0  0  0  0  0  0  0  0
   59.6590   28.5680   46.8980 C   0  0  0  0  0  0  0  0  0  0  0  0
   58.3800   27.4170   47.4110 S   0  0  0  0  0  0  0  0  0  0  0  0
   57.7480   27.1250   45.7190 C   0  0  0  0  0  0  0  0  0  0  0  0
   56.2700   27.3920   45.6170 C   0  0  0  0  0  0  0  0  0  0  0  0
   55.4580   26.5580   46.1000 O   0  0  0  0  0  0  0  0  0  0  0  0
   55.7670   28.6540   45.1600 N   0  0  0  0  0  0  0  0  0  0  0  0
   56.5340   29.6990   44.5490 C   0  0  0  0  0  0  0  0  0  0  0  0
   57.4540   30.4150   45.3260 C   0  0  0  0  0  0  0  0  0  0  0  0
   58.1810   31.4690   44.7640 C   0  0  0  0  0  0  0  0  0  0  0  0
   57.9760   31.8300   43.4300 C   0  0  0  0  0  0  0  0  0  0  0  0
   57.0360   31.1410   42.6590 C   0  0  0  0  0  0  0  0  0  0  0  0
   56.3130   30.0820   43.2160 C   0  0  0  0  0  0  0  0  0  0  0  0
   60.3380   28.4490   45.7420 N   0  0  0  0  0  0  0  0  0  0  0  0
   61.1370   29.5030   45.6580 N   0  0  0  0  0  0  0  0  0  0  0  0
   60.9350   30.2480   46.7630 C   0  0  0  0  0  0  0  0  0  0  0  0
   61.6670   31.5010   47.0160 C   0  0  0  0  0  0  0  0  0  0  0  0
   62.9580   31.6340   47.4950 C   0  0  0  0  0  0  0  0  0  0  0  0
   63.2000   32.9890   47.5400 C   0  0  0  0  0  0  0  0  0  0  0  0
   62.0530   33.6000   47.0810 C   0  0  0  0  0  0  0  0  0  0  0  0
   61.1600   32.6890   46.7720 O   0  0  0  0  0  0  0  0  0  0  0  0
   58.8890   31.5220   48.7630 C   0  0  0  0  0  0  0  0  0  0  0  0
   58.2620   32.0270   49.9040 C   0  0  0  0  0  0  0  0  0  0  0  0
   57.7620   33.0069   53.8095 H   0  0  0  0  0  0  0  0  0  0  0  0
   58.7715   33.3826   52.3720 H   0  0  0  0  0  0  0  0  0  0  0  0
   57.0219   33.7896   52.3720 H   0  0  0  0  0  0  0  0  0  0  0  0
   58.4976   29.2749   51.9217 H   0  0  0  0  0  0  0  0  0  0  0  0
   59.6134   28.3742   49.8823 H   0  0  0  0  0  0  0  0  0  0  0  0
   58.2783   27.7903   45.0217 H   0  0  0  0  0  0  0  0  0  0  0  0
   57.9211   26.0680   45.4685 H   0  0  0  0  0  0  0  0  0  0  0  0
   57.6050   30.1470   46.3821 H   0  0  0  0  0  0  0  0  0  0  0  0
   58.9160   32.0151   45.3736 H   0  0  0  0  0  0  0  0  0  0  0  0
   58.5534   32.6550   42.9874 H   0  0  0  0  0  0  0  0  0  0  0  0
   56.8647   31.4323   41.6122 H   0  0  0  0  0  0  0  0  0  0  0  0
   55.5685   29.5469   42.6082 H   0  0  0  0  0  0  0  0  0  0  0  0
   63.6475   30.8259   47.7804 H   0  0  0  0  0  0  0  0  0  0  0  0
   64.1233   33.4842   47.8750 H   0  0  0  0  0  0  0  0  0  0  0  0
   61.9079   34.6864   46.9878 H   0  0  0  0  0  0  0  0  0  0  0  0
   58.9944   32.1560   47.8703 H   0  0  0  0  0  0  0  0  0  0  0  0
   57.8813   33.0590   49.9058 H   0  0  0  0  0  0  0  0  0  0  0  0
  1  2  1  0
  2  3  1  0
  3  4  2  0
  4  5  1  0
  5  6  2  0
  6  7  1  0
  7  8  1  0
  8  9  1  0
  9 10  1  0
 10 11  1  0
 11 12  2  0
 11 13  1  0
 13 14  1  0
 14 15  2  0
 15 16  1  0
 16 17  2  0
 17 18  1  0
 18 19  2  0
  8 20  2  0
 20 21  1  0
 21 22  2  0
 22 23  1  0
 23 24  2  0
 24 25  1  0
 25 26  2  0
 26 27  1  0
  6 28  1  0
 28 29  2  0
 29  3  1  0
 22  7  1  0
 27 23  1  0
 19 14  1  0
  1 30  1  0
  1 31  1  0
  1 32  1  0
  4 33  1  0
  5 34  1  0
 10 35  1  0
 10 36  1  0
 15 37  1  0
 16 38  1  0
 17 39  1  0
 18 40  1  0
 19 41  1  0
 24 42  1  0
 25 43  1  0
 26 44  1  0
 28 45  1  0
 29 46  1  0
M  CHG  1  13  -1
M  END
>  <UniqueID>  (26) 
25

>  <SMILES>  (26) 
COc1ccc(-n2c(SCC(=O)[N-]c3ccccc3)nnc2-c2ccco2)cc1

>  <Energy>  (26) 
116.97633128861969

>  <Genealogy>  (26) 
COc1ccc(-n2c(SCC(=O)[N-]c3ccccc3)nnc2-c2ccco2)cc1 (protonated)
COc1ccc(-n2c(SCC(=O)[N-]c3ccccc3)nnc2-c2ccco2)cc1 (3D coordinates assigned)
COc1ccc(-n2c(SCC(=O)[N-]c3ccccc3)nnc2-c2ccco2)cc1 (optimized conformer: 116.97633128861969 kcal/mol)

>  <smiles>  (26) 
COc1ccc(-n2c(SCC(=O)Nc3ccccc3)nnc2-c2ccco2)cc1

>  <score_type>  (26) 
oracle

>  <origin>  (26) 
adg

>  <m_score__min__energy>  (26) 
-9.9700000000000006

>  <m_primary>  (26) 
energy

$$$$
26:0
     RDKit          3D

 49 51  0  0  0  0  0  0  0  0999 V2000
   60.5612   30.0437   47.5109 H   0  0  0  0  0  0  0  0  0  0  0  0
   60.4870   31.0680   47.9050 C   0  0  0  0  0  0  0  0  0  0  0  0
   59.3080   31.4590   48.4110 C   0  0  0  0  0  0  0  0  0  0  0  0
   58.6743   30.6929   48.8817 H   0  0  0  0  0  0  0  0  0  0  0  0
   58.7880   32.8800   48.3800 C   0  0  0  0  0  0  0  0  0  0  0  0
   59.5331   33.5348   48.8554 H   0  0  0  0  0  0  0  0  0  0  0  0
   57.8275   32.8870   48.9161 H   0  0  0  0  0  0  0  0  0  0  0  0
   58.5300   33.3780   47.0150 N   0  0  0  0  0  0  0  0  0  0  0  0
   59.2290   34.6280   46.6930 C   0  0  0  0  0  0  0  0  0  0  0  0
   60.2617   34.5779   47.0685 H   0  0  0  0  0  0  0  0  0  0  0  0
   58.7073   35.4725   47.1669 H   0  0  0  0  0  0  0  0  0  0  0  0
   59.2470   34.8270   45.1670 C   0  0  0  0  0  0  0  0  0  0  0  0
   60.1974   34.4357   44.7749 H   0  0  0  0  0  0  0  0  0  0  0  0
   59.1330   35.9045   44.9773 H   0  0  0  0  0  0  0  0  0  0  0  0
   58.1320   34.1380   44.4730 N   0  0  0  0  0  0  0  0  0  0  0  0
   58.5090   32.9200   43.7160 C   0  0  0  0  0  0  0  0  0  0  0  0
   59.5867   32.7461   43.8510 H   0  0  0  0  0  0  0  0  0  0  0  0
   58.2431   33.0985   42.6636 H   0  0  0  0  0  0  0  0  0  0  0  0
   57.7680   31.6840   44.1560 C   0  0  0  0  0  0  0  0  0  0  0  0
   58.1640   31.0310   45.2830 N   0  0  0  0  0  0  0  0  0  0  0  0
   57.5930   29.8640   45.6820 C   0  0  0  0  0  0  0  0  0  0  0  0
   57.9406   29.3679   46.6002 H   0  0  0  0  0  0  0  0  0  0  0  0
   56.5580   29.2900   44.9220 C   0  0  0  0  0  0  0  0  0  0  0  0
   55.9580   28.0690   45.2610 O   0  0  0  0  0  0  0  0  0  0  0  0
   56.6730   26.9220   45.7070 C   0  0  0  0  0  0  0  0  0  0  0  0
   56.6853   26.9023   46.8068 H   0  0  0  0  0  0  0  0  0  0  0  0
   56.1810   26.0135   45.3295 H   0  0  0  0  0  0  0  0  0  0  0  0
   57.7053   26.9637   45.3295 H   0  0  0  0  0  0  0  0  0  0  0  0
   56.1160   29.9630   43.7800 C   0  0  0  0  0  0  0  0  0  0  0  0
   55.2917   29.5449   43.1835 H   0  0  0  0  0  0  0  0  0  0  0  0
   56.7140   31.1620   43.3920 C   0  0  0  0  0  0  0  0  0  0  0  0
   56.3622   31.6931   42.4952 H   0  0  0  0  0  0  0  0  0  0  0  0
   56.8820   34.0310   45.2580 C   0  0  0  0  0  0  0  0  0  0  0  0
   56.1924   33.3597   44.7252 H   0  0  0  0  0  0  0  0  0  0  0  0
   56.4764   35.0482   45.3616 H   0  0  0  0  0  0  0  0  0  0  0  0
   57.0970   33.4790   46.6860 C   0  0  0  0  0  0  0  0  0  0  0  0
   56.6429   32.4795   46.7552 H   0  0  0  0  0  0  0  0  0  0  0  0
   56.6269   34.1724   47.3989 H   0  0  0  0  0  0  0  0  0  0  0  0
   61.6910   31.9180   47.8410 C   0  0  0  0  0  0  0  0  0  0  0  0
   61.8580   32.8590   46.8110 C   0  0  0  0  0  0  0  0  0  0  0  0
   61.0787   32.9765   46.0436 H   0  0  0  0  0  0  0  0  0  0  0  0
   63.0130   33.6470   46.7590 C   0  0  0  0  0  0  0  0  0  0  0  0
   63.1326   34.3947   45.9611 H   0  0  0  0  0  0  0  0  0  0  0  0
   64.0150   33.4850   47.7200 C   0  0  0  0  0  0  0  0  0  0  0  0
   64.9188   34.1109   47.6834 H   0  0  0  0  0  0  0  0  0  0  0  0
   63.8680   32.5270   48.7280 C   0  0  0  0  0  0  0  0  0  0  0  0
   64.6609   32.3934   49.4786 H   0  0  0  0  0  0  0  0  0  0  0  0
   62.7150   31.7390   48.7830 C   0  0  0  0  0  0  0  0  0  0  0  0
   62.6101   30.9755   49.5679 H   0  0  0  0  0  0  0  0  0  0  0  0
  1  2  1  0
  2  3  2  0
  3  4  1  0
  3  5  1  0
  5  6  1  0
  5  7  1  0
  5  8  1  0
  8  9  1  0
  9 10  1  0
  9 11  1  0
  9 12  1  0
 12 13  1  0
 12 14  1  0
 12 15  1  0
 15 16  1  0
 16 17  1  0
 16 18  1  0
 16 19  1  0
 19 20  2  0
 20 21  1  0
 21 22  1  0
 21 23  2  0
 23 24  1  0
 24 25  1  0
 25 26  1  0
 25 27  1  0
 25 28  1  0
 23 29  1  0
 29 30  1  0
 29 31  2  0
 31 32  1  0
 15 33  1  0
 33 34  1  0
 33 35  1  0
 33 36  1  0
 36 37  1  0
 36 38  1  0
  2 39  1  0
 39 40  2  0
 40 41  1  0
 40 42  1  0
 42 43  1  0
 42 44  2  0
 44 45  1  0
 44 46  1  0
 46 47  1  0
 46 48  2  0
 48 49  1  0
 36  8  1  0
 48 39  1  0
 31 19  1  0
M  END
>  <UniqueID>  (27) 
26

>  <SMILES>  (27) 
COc1ccc(CN2CCN(C/C=C\c3ccccc3)CC2)nc1

>  <Energy>  (27) 
70.89223152729494

>  <Genealogy>  (27) 
COc1ccc(CN2CCN(C/C=C\c3ccccc3)CC2)nc1 (cis-trans isomerization)
COc1ccc(CN2CCN(C/C=C\c3ccccc3)CC2)nc1 (3D coordinates assigned)
COc1ccc(CN2CCN(C/C=C\c3ccccc3)CC2)nc1 (nonaromatic ring conformer: 70.89223152729494 kcal/mol)

>  <smiles>  (27) 
COc1ccc(CN2CCN(CC=Cc3ccccc3)CC2)nc1

>  <score_type>  (27) 
oracle

>  <origin>  (27) 
adg

>  <m_score__min__energy>  (27) 
-7.71

>  <m_primary>  (27) 
energy

$$$$
27:0
     RDKit          3D

 47 50  0  0  1  0  0  0  0  0999 V2000
   63.6660   33.2000   48.5020 C   0  0  0  0  0  0  0  0  0  0  0  0
   63.0060   33.6260   47.3680 C   0  0  0  0  0  0  0  0  0  0  0  0
   62.0020   32.8280   46.8240 C   0  0  0  0  0  0  0  0  0  0  0  0
   61.6430   31.6190   47.3800 C   0  0  0  0  0  0  0  0  0  0  0  0
   60.5940   30.7720   46.8230 C   0  0  0  0  0  0  0  0  0  0  0  0
   60.7950   29.4480   46.7200 N   0  0  0  0  0  0  0  0  0  0  0  0
   59.9120   28.5710   46.2270 C   0  0  0  0  0  0  0  0  0  0  0  0
   60.1810   27.2190   46.1490 C   0  0  0  0  0  0  0  0  0  0  0  0
   59.2330   26.3420   45.6290 C   0  0  0  0  0  0  0  0  0  0  0  0
   58.0230   26.8380   45.1930 C   0  0  0  0  0  0  0  0  0  0  0  0
   57.7410   28.2020   45.2680 C   0  0  0  0  0  0  0  0  0  0  0  0
   58.6950   29.0450   45.7850 C   0  0  0  0  0  0  0  0  0  0  0  0
   58.4750   30.4230   45.8880 C   0  0  0  0  0  0  0  0  0  0  0  0
   57.3250   30.8300   45.4650 N   0  0  0  0  0  0  0  0  0  0  0  0
   57.2830   31.6130   44.2550 C   0  0  0  0  0  0  0  0  0  0  0  0
   58.4520   32.5700   44.2800 C   0  0  0  0  0  0  0  0  0  0  0  0
   58.0740   33.9510   44.4020 N   0  0  0  0  0  0  0  0  0  0  0  0
   59.2390   34.6900   44.8650 C   0  0  0  0  0  0  0  0  0  0  0  0
   59.2480   34.9070   46.3560 C   0  0  0  0  0  0  0  0  0  0  0  0
   58.7350   33.7990   47.0590 O   0  0  0  0  0  0  0  0  0  0  0  0
   57.4050   33.5490   46.7310 C   0  0  0  0  0  0  0  0  0  0  0  0
   57.0310   34.1470   45.3860 C   0  0  0  0  0  0  0  0  0  0  0  0
   59.4110   31.2420   46.3950 N   0  0  0  0  0  0  0  0  0  0  0  0
   62.3170   31.2230   48.5080 C   0  0  0  0  0  0  0  0  0  0  0  0
   63.3210   31.9850   49.0820 C   0  0  0  0  0  0  0  0  0  0  0  0
   64.4608   33.8184   48.9446 H   0  0  0  0  0  0  0  0  0  0  0  0
   63.2696   34.5852   46.8985 H   0  0  0  0  0  0  0  0  0  0  0  0
   61.4784   33.1743   45.9207 H   0  0  0  0  0  0  0  0  0  0  0  0
   61.1495   26.8328   46.4996 H   0  0  0  0  0  0  0  0  0  0  0  0
   59.4472   25.2649   45.5667 H   0  0  0  0  0  0  0  0  0  0  0  0
   57.2705   26.1496   44.7808 H   0  0  0  0  0  0  0  0  0  0  0  0
   56.7742   28.5949   44.9202 H   0  0  0  0  0  0  0  0  0  0  0  0
   57.3599   30.9519   43.3792 H   0  0  0  0  0  0  0  0  0  0  0  0
   56.3352   32.1676   44.1903 H   0  0  0  0  0  0  0  0  0  0  0  0
   59.0936   32.3101   45.1349 H   0  0  0  0  0  0  0  0  0  0  0  0
   58.9695   32.4657   43.3150 H   0  0  0  0  0  0  0  0  0  0  0  0
   60.1429   34.1278   44.5877 H   0  0  0  0  0  0  0  0  0  0  0  0
   59.2082   35.6816   44.3897 H   0  0  0  0  0  0  0  0  0  0  0  0
   60.2836   35.0845   46.6817 H   0  0  0  0  0  0  0  0  0  0  0  0
   58.6052   35.7724   46.5748 H   0  0  0  0  0  0  0  0  0  0  0  0
   57.2466   32.4611   46.6928 H   0  0  0  0  0  0  0  0  0  0  0  0
   56.7711   34.0155   47.4994 H   0  0  0  0  0  0  0  0  0  0  0  0
   56.1084   33.6674   45.0273 H   0  0  0  0  0  0  0  0  0  0  0  0
   56.8873   35.2292   45.5210 H   0  0  0  0  0  0  0  0  0  0  0  0
   59.1950   32.2410   46.4450 H   0  0  0  0  0  0  0  0  0  0  0  0
   62.0495   30.2633   48.9742 H   0  0  0  0  0  0  0  0  0  0  0  0
   63.8392   31.6328   49.9861 H   0  0  0  0  0  0  0  0  0  0  0  0
  1  2  2  0
  2  3  1  0
  3  4  2  0
  4  5  1  0
  5  6  2  0
  6  7  1  0
  7  8  2  0
  8  9  1  0
  9 10  2  0
 10 11  1  0
 11 12  2  0
 12 13  1  0
 13 14  2  0
 14 15  1  0
 15 16  1  0
 16 17  1  0
 17 18  1  0
 18 19  1  0
 19 20  1  0
 20 21  1  0
 21 22  1  0
 13 23  1  0
  4 24  1  0
 24 25  2  0
 25  1  1  0
 23  5  1  0
 12  7  1  0
 22 17  1  0
  1 26  1  0
  2 27  1  0
  3 28  1  0
  8 29  1  0
  9 30  1  0
 10 31  1  0
 11 32  1  0
 15 33  1  0
 15 34  1  0
 16 35  1  0
 16 36  1  0
 18 37  1  0
 18 38  1  0
 19 39  1  0
 19 40  1  0
 21 41  1  0
 21 42  1  0
 22 43  1  0
 22 44  1  0
 23 45  1  0
 24 46  1  0
 25 47  1  0
M  END
>  <smiles>  (28) 
c1ccc(-c2nc3ccccc3c(=NCCN3CCOCC3)[nH]2)cc1

>  <score_type>  (28) 
oracle

>  <origin>  (28) 
adg

>  <m_score__min__energy>  (28) 
-7.8399999999999999

>  <m_primary>  (28) 
energy

$$$$
28:0
     RDKit          3D

 32 34  0  0  0  0  0  0  0  0999 V2000
   59.6530   35.3880   45.8870 C   0  0  0  0  0  0  0  0  0  0  0  0
   58.8850   34.5480   44.8740 C   0  0  0  0  0  0  0  0  0  0  0  0
   57.1850   34.2110   45.4520 S   0  0  0  0  0  0  0  0  0  0  0  0
   57.3940   32.4280   45.5080 C   0  0  0  0  0  0  0  0  0  0  0  0
   56.6210   31.5690   44.8180 N   0  0  0  0  0  0  0  0  0  0  0  0
   57.0740   30.3500   45.0770 N   0  0  0  0  0  0  0  0  0  0  0  0
   58.1260   30.4860   45.9100 C   0  0  0  0  0  0  0  0  0  0  0  0
   58.8800   29.3310   46.5100 C   0  0  0  0  0  0  0  0  0  0  0  0
   60.1460   28.9610   45.7540 C   0  0  0  0  0  0  0  0  0  0  0  0
   58.9310   28.0550   45.6820 C   0  0  0  0  0  0  0  0  0  0  0  0
   58.3480   31.7830   46.2070 N   0  0  0  0  0  0  0  0  0  0  0  0
   59.3360   32.3430   47.0860 C   0  0  0  0  0  0  0  0  0  0  0  0
   58.9430   33.0410   48.2390 C   0  0  0  0  0  0  0  0  0  0  0  0
   59.9050   33.5880   49.0930 C   0  0  0  0  0  0  0  0  0  0  0  0
   61.2640   33.4430   48.8020 C   0  0  0  0  0  0  0  0  0  0  0  0
   61.6620   32.7530   47.6540 C   0  0  0  0  0  0  0  0  0  0  0  0
   60.7020   32.2040   46.7980 C   0  0  0  0  0  0  0  0  0  0  0  0
   59.3726   35.0813   46.9055 H   0  0  0  0  0  0  0  0  0  0  0  0
   60.7333   35.2385   45.7434 H   0  0  0  0  0  0  0  0  0  0  0  0
   59.4076   36.4506   45.7434 H   0  0  0  0  0  0  0  0  0  0  0  0
   58.8385   35.0912   43.9186 H   0  0  0  0  0  0  0  0  0  0  0  0
   59.4077   33.5883   44.7483 H   0  0  0  0  0  0  0  0  0  0  0  0
   58.6156   29.5584   47.5533 H   0  0  0  0  0  0  0  0  0  0  0  0
   60.4498   29.5441   44.8721 H   0  0  0  0  0  0  0  0  0  0  0  0
   61.2025   28.8237   46.0279 H   0  0  0  0  0  0  0  0  0  0  0  0
   58.3541   27.9819   44.7483 H   0  0  0  0  0  0  0  0  0  0  0  0
   58.7421   26.9900   45.8822 H   0  0  0  0  0  0  0  0  0  0  0  0
   57.8742   33.1579   48.4712 H   0  0  0  0  0  0  0  0  0  0  0  0
   59.5917   34.1334   49.9954 H   0  0  0  0  0  0  0  0  0  0  0  0
   62.0200   33.8718   49.4762 H   0  0  0  0  0  0  0  0  0  0  0  0
   62.7317   32.6415   47.4233 H   0  0  0  0  0  0  0  0  0  0  0  0
   61.0192   31.6611   45.8954 H   0  0  0  0  0  0  0  0  0  0  0  0
  1  2  1  0
  2  3  1  0
  3  4  1  0
  4  5  2  0
  5  6  1  0
  6  7  2  0
  7  8  1  0
  8  9  1  0
  9 10  1  0
  7 11  1  0
 11 12  1  0
 12 13  2  0
 13 14  1  0
 14 15  2  0
 15 16  1  0
 16 17  2  0
 11  4  1  0
 17 12  1  0
 10  8  1  0
  1 18  1  0
  1 19  1  0
  1 20  1  0
  2 21  1  0
  2 22  1  0
  8 23  1  0
  9 24  1  0
  9 25  1  0
 10 26  1  0
 10 27  1  0
 13 28  1  0
 14 29  1  0
 15 30  1  0
 16 31  1  0
 17 32  1  0
M  END
>  <UniqueID>  (29) 
27

>  <SMILES>  (29) 
CCSc1nnc(C2CC2)n1-c1ccccc1

>  <Energy>  (29) 
330.91204846199844

>  <Genealogy>  (29) 
CCSc1nnc(C2CC2)n1-c1ccccc1 (3D coordinates assigned)
CCSc1nnc(C2CC2)n1-c1ccccc1 (nonaromatic ring conformer: 330.91204846199844 kcal/mol)

>  <smiles>  (29) 
CCSc1nnc(C2CC2)n1-c1ccccc1

>  <score_type>  (29) 
oracle

>  <origin>  (29) 
adg

>  <m_score__min__energy>  (29) 
-6.5599999999999996

>  <m_primary>  (29) 
energy

$$$$
29:0
     RDKit          3D

 45 46  0  0  0  0  0  0  0  0999 V2000
   64.9850   32.2950   50.0010 C   0  0  0  0  0  0  0  0  0  0  0  0
   63.6990   31.5790   49.5690 C   0  0  0  0  0  0  0  0  0  0  0  0
   62.8750   32.3870   48.6320 N   0  0  0  0  0  0  0  0  0  0  0  0
   63.4730   32.3910   47.2670 C   0  0  0  0  0  0  0  0  0  0  0  0
   63.3610   33.7590   46.5840 C   0  0  0  0  0  0  0  0  0  0  0  0
   62.6150   33.7720   49.1140 C   0  0  0  0  0  0  0  0  0  0  0  0
   61.1240   34.1130   49.3570 C   0  0  0  0  0  0  0  0  0  0  0  0
   60.5120   34.6980   48.1620 N   0  0  0  0  0  0  0  0  0  0  0  0
   59.6240   33.9830   47.2860 C   0  0  0  0  0  0  0  0  0  0  0  0
   58.5250   34.6110   46.6800 C   0  0  0  0  0  0  0  0  0  0  0  0
   57.6670   33.8870   45.8520 C   0  0  0  0  0  0  0  0  0  0  0  0
   57.9010   32.5270   45.6000 C   0  0  0  0  0  0  0  0  0  0  0  0
   57.0100   31.8040   44.7960 C   0  0  0  0  0  0  0  0  0  0  0  0
   57.2150   30.4380   44.5510 C   0  0  0  0  0  0  0  0  0  0  0  0
   56.2870   29.7000   43.7330 N   0  0  0  0  0  0  0  0  0  0  0  0
   56.5940   29.3560   42.5730 O   0  0  0  0  0  0  0  0  0  0  0  0
   55.0450   29.3570   44.2180 O   0  0  0  0  0  0  0  0  0  0  0  0
   58.3400   29.8060   45.1040 C   0  0  0  0  0  0  0  0  0  0  0  0
   59.2610   30.5150   45.8910 C   0  0  0  0  0  0  0  0  0  0  0  0
   60.4230   29.8260   46.3790 N   0  0  0  0  0  0  0  0  0  0  0  0
   60.7460   28.7230   45.8930 O   0  0  0  0  0  0  0  0  0  0  0  0
   61.0180   30.2340   47.5510 O   0  0  0  0  0  0  0  0  0  0  0  0
   59.0310   31.8870   46.1680 C   0  0  0  0  0  0  0  0  0  0  0  0
   59.8720   32.6270   47.0230 C   0  0  0  0  0  0  0  0  0  0  0  0
   65.0372   32.3241   51.0994 H   0  0  0  0  0  0  0  0  0  0  0  0
   65.8569   31.7525   49.6067 H   0  0  0  0  0  0  0  0  0  0  0  0
   64.9831   33.3219   49.6067 H   0  0  0  0  0  0  0  0  0  0  0  0
   63.9719   30.6359   49.0729 H   0  0  0  0  0  0  0  0  0  0  0  0
   63.0972   31.4060   50.4734 H   0  0  0  0  0  0  0  0  0  0  0  0
   61.9330   31.9300   48.5650 H   0  0  0  0  0  0  0  0  0  0  0  0
   64.5366   32.1218   47.3465 H   0  0  0  0  0  0  0  0  0  0  0  0
   62.9180   31.6643   46.6555 H   0  0  0  0  0  0  0  0  0  0  0  0
   63.2965   34.5467   47.3491 H   0  0  0  0  0  0  0  0  0  0  0  0
   64.2482   33.9292   45.9564 H   0  0  0  0  0  0  0  0  0  0  0  0
   62.4579   33.7827   45.9564 H   0  0  0  0  0  0  0  0  0  0  0  0
   63.1552   33.9101   50.0622 H   0  0  0  0  0  0  0  0  0  0  0  0
   62.9570   34.4446   48.3136 H   0  0  0  0  0  0  0  0  0  0  0  0
   60.5841   33.1920   49.6222 H   0  0  0  0  0  0  0  0  0  0  0  0
   61.0637   34.8473   50.1738 H   0  0  0  0  0  0  0  0  0  0  0  0
   60.6780   35.7120   47.9670 H   0  0  0  0  0  0  0  0  0  0  0  0
   58.3391   35.6803   46.8589 H   0  0  0  0  0  0  0  0  0  0  0  0
   56.8007   34.3861   45.3934 H   0  0  0  0  0  0  0  0  0  0  0  0
   56.1412   32.3125   44.3525 H   0  0  0  0  0  0  0  0  0  0  0  0
   58.5029   28.7343   44.9169 H   0  0  0  0  0  0  0  0  0  0  0  0
   60.7365   32.1340   47.4916 H   0  0  0  0  0  0  0  0  0  0  0  0
  1  2  1  0
  2  3  1  0
  3  4  1  0
  4  5  1  0
  3  6  1  0
  6  7  1  0
  7  8  1  0
  8  9  1  0
  9 10  2  0
 10 11  1  0
 11 12  2  0
 12 13  1  0
 13 14  2  0
 14 15  1  0
 15 16  2  0
 15 17  1  0
 14 18  1  0
 18 19  2  0
 19 20  1  0
 20 21  2  0
 20 22  1  0
 19 23  1  0
 23 24  2  0
 24  9  1  0
 23 12  1  0
  1 25  1  0
  1 26  1  0
  1 27  1  0
  2 28  1  0
  2 29  1  0
  3 30  1  0
  4 31  1  0
  4 32  1  0
  5 33  1  0
  5 34  1  0
  5 35  1  0
  6 36  1  0
  6 37  1  0
  7 38  1  0
  7 39  1  0
  8 40  1  0
 10 41  1  0
 11 42  1  0
 13 43  1  0
 18 44  1  0
 24 45  1  0
M  CHG  5   3   1  15   1  17  -1  20   1  22  -1
M  END
>  <UniqueID>  (30) 
28

>  <SMILES>  (30) 
CC[NH+](CC)CCNc1ccc2cc([N+](=O)[O-])cc([N+](=O)[O-])c2c1

>  <Energy>  (30) 
60.271116666851796

>  <Genealogy>  (30) 
CC[NH+](CC)CCNc1ccc2cc([N+](=O)[O-])cc([N+](=O)[O-])c2c1 (protonated)
CC[NH+](CC)CCNc1ccc2cc([N+](=O)[O-])cc([N+](=O)[O-])c2c1 (3D coordinates assigned)
CC[NH+](CC)CCNc1ccc2cc([N+](=O)[O-])cc([N+](=O)[O-])c2c1 (optimized conformer: 60.271116666851796 kcal/mol)

>  <smiles>  (30) 
CCN(CC)CCNc1ccc2cc([N+](=O)[O-])cc([N+](=O)[O-])c2c1

>  <score_type>  (30) 
oracle

>  <origin>  (30) 
adg

>  <m_score__min__energy>  (30) 
-5.3600000000000003

>  <m_primary>  (30) 
energy

$$$$
30:0
     RDKit          3D

 30 31  0  0  0  0  0  0  0  0999 V2000
   60.4556   36.2079   46.3991 H   0  0  0  0  0  0  0  0  0  0  0  0
   60.0130   35.2010   46.3810 C   0  0  0  0  0  0  0  0  0  0  0  0
   60.4530   34.2200   47.3130 C   0  0  0  0  0  0  0  0  0  0  0  0
   61.4410   34.4890   48.2710 O   0  0  0  0  0  0  0  0  0  0  0  0
   62.6920   33.8130   48.3470 C   0  0  0  0  0  0  0  0  0  0  0  0
   62.9654   33.6653   49.4022 H   0  0  0  0  0  0  0  0  0  0  0  0
   62.6115   32.8356   47.8488 H   0  0  0  0  0  0  0  0  0  0  0  0
   63.4655   34.4159   47.8488 H   0  0  0  0  0  0  0  0  0  0  0  0
   59.8860   32.9300   47.2850 C   0  0  0  0  0  0  0  0  0  0  0  0
   60.2121   32.1552   47.9945 H   0  0  0  0  0  0  0  0  0  0  0  0
   58.8990   32.6600   46.3330 C   0  0  0  0  0  0  0  0  0  0  0  0
   58.4840   33.6100   45.4470 C   0  0  0  0  0  0  0  0  0  0  0  0
   57.5340   33.1170   44.6340 N   0  0  0  0  0  0  0  0  0  0  0  0
   57.3830   31.8410   45.0730 C   0  0  0  0  0  0  0  0  0  0  0  0
   56.5050   31.0510   44.5190 N   0  0  0  0  0  0  0  0  0  0  0  0
   56.5810   29.6350   44.3390 C   0  0  0  0  0  0  0  0  0  0  0  0
   55.7020   28.9000   44.8630 O   0  0  0  0  0  0  0  0  0  0  0  0
   57.7020   29.0510   43.6650 N   0  0  0  0  0  0  0  0  0  0  0  0
   58.4890   29.6660   43.3580 H   0  0  0  0  0  0  0  0  0  0  0  0
   57.7810   27.6200   43.4020 C   0  0  0  0  0  0  0  0  0  0  0  0
   57.8112   27.0730   44.3559 H   0  0  0  0  0  0  0  0  0  0  0  0
   56.8989   27.3038   42.8258 H   0  0  0  0  0  0  0  0  0  0  0  0
   58.6925   27.4029   42.8258 H   0  0  0  0  0  0  0  0  0  0  0  0
   58.2290   31.5130   46.1010 N   0  0  0  0  0  0  0  0  0  0  0  0
   58.5010   30.2180   46.7320 C   0  0  0  0  0  0  0  0  0  0  0  0
   58.4773   30.3310   47.8259 H   0  0  0  0  0  0  0  0  0  0  0  0
   57.7359   29.4911   46.4218 H   0  0  0  0  0  0  0  0  0  0  0  0
   59.4939   29.8603   46.4218 H   0  0  0  0  0  0  0  0  0  0  0  0
   59.0170   34.8940   45.4370 C   0  0  0  0  0  0  0  0  0  0  0  0
   58.6704   35.6463   44.7132 H   0  0  0  0  0  0  0  0  0  0  0  0
  1  2  1  0
  2  3  2  0
  3  4  1  0
  4  5  1  0
  5  6  1  0
  5  7  1  0
  5  8  1  0
  3  9  1  0
  9 10  1  0
  9 11  2  0
 11 12  1  0
 12 13  1  0
 13 14  1  0
 14 15  2  0
 15 16  1  0
 16 17  2  0
 16 18  1  0
 18 19  1  0
 18 20  1  0
 20 21  1  0
 20 22  1  0
 20 23  1  0
 14 24  1  0
 24 25  1  0
 25 26  1  0
 25 27  1  0
 25 28  1  0
 12 29  2  0
 29 30  1  0
 29  2  1  0
 24 11  1  0
M  CHG  1  13  -1
M  END
>  <UniqueID>  (31) 
29

>  <SMILES>  (31) 
CNC(=O)/N=c1/[n-]c2ccc(OC)cc2n1C

>  <Energy>  (31) 
76.23790771703214

>  <Genealogy>  (31) 
CNC(=O)N=c1[n-]c2ccc(OC)cc2n1C (protonated)
CNC(=O)/N=c1/[n-]c2ccc(OC)cc2n1C (cis-trans isomerization)
CNC(=O)/N=c1/[n-]c2ccc(OC)cc2n1C (3D coordinates assigned)
CNC(=O)/N=c1/[n-]c2ccc(OC)cc2n1C (optimized conformer: 76.23790771703214 kcal/mol)

>  <smiles>  (31) 
CNC(=O)N=c1[nH]c2ccc(OC)cc2n1C

>  <score_type>  (31) 
oracle

>  <origin>  (31) 
adg

>  <m_score__min__energy>  (31) 
-7.5999999999999996

>  <m_primary>  (31) 
energy

$$$$
31:0
     RDKit          3D

 40 43  0  0  0  0  0  0  0  0999 V2000
   59.0020   29.7880   48.7300 C   0  0  0  0  0  0  0  0  0  0  0  0
   58.5210   30.4660   47.5890 O   0  0  0  0  0  0  0  0  0  0  0  0
   59.4200   30.3180   46.5030 C   0  0  1  0  0  0  0  0  0  0  0  0
   59.6700   28.8010   46.1880 C   0  0  0  0  0  0  0  0  0  0  0  0
   58.5390   28.1760   45.2900 C   0  0  1  0  0  0  0  0  0  0  0  0
   58.8920   26.7480   44.8790 C   0  0  0  0  0  0  0  0  0  0  0  0
   57.3340   28.1700   46.0210 O   0  0  0  0  0  0  0  0  0  0  0  0
   56.6830   29.3280   45.5810 C   0  0  2  0  0  0  0  0  0  0  0  0
   55.5800   28.9690   44.7430 O   0  0  0  0  0  0  0  0  0  0  0  0
   55.7040   29.7150   43.5340 C   0  0  0  0  0  0  0  0  0  0  0  0
   56.6910   30.8000   43.8500 C   0  0  2  0  0  0  0  0  0  0  0  0
   57.3950   31.7020   42.8480 C   0  0  0  0  0  0  0  0  0  0  0  0
   58.1410   32.8250   43.6530 C   0  0  0  0  0  0  0  0  0  0  0  0
   58.4730   32.4640   45.1560 C   0  0  2  0  0  0  0  0  0  0  0  0
   59.6120   33.3470   45.6780 C   0  0  0  0  0  0  0  0  0  0  0  0
   58.8150   30.9580   45.2380 C   0  0  2  0  0  0  0  0  0  0  0  0
   57.6700   30.0550   44.7040 C   0  0  1  0  0  0  0  0  0  0  0  0
   58.3330   28.9680   44.1300 O   0  0  0  0  0  0  0  0  0  0  0  0
   58.6419   30.2956   49.6370 H   0  0  0  0  0  0  0  0  0  0  0  0
   58.6369   28.7504   48.7210 H   0  0  0  0  0  0  0  0  0  0  0  0
   60.1020   29.7898   48.7210 H   0  0  0  0  0  0  0  0  0  0  0  0
   60.3660   30.8055   46.7814 H   0  0  0  0  0  0  0  0  0  0  0  0
   60.6314   28.7039   45.6624 H   0  0  0  0  0  0  0  0  0  0  0  0
   59.6746   28.2580   47.1446 H   0  0  0  0  0  0  0  0  0  0  0  0
   59.0437   26.1343   45.7792 H   0  0  0  0  0  0  0  0  0  0  0  0
   58.0714   26.3251   44.2809 H   0  0  0  0  0  0  0  0  0  0  0  0
   59.8152   26.7562   44.2809 H   0  0  0  0  0  0  0  0  0  0  0  0
   56.3330   29.9253   46.4359 H   0  0  0  0  0  0  0  0  0  0  0  0
   56.0787   29.0755   42.7212 H   0  0  0  0  0  0  0  0  0  0  0  0
   54.7385   30.1190   43.1955 H   0  0  0  0  0  0  0  0  0  0  0  0
   56.0851   31.6287   44.2451 H   0  0  0  0  0  0  0  0  0  0  0  0
   58.1198   31.1170   42.2629 H   0  0  0  0  0  0  0  0  0  0  0  0
   56.6666   32.1467   42.1539 H   0  0  0  0  0  0  0  0  0  0  0  0
   59.0881   33.0421   43.1374 H   0  0  0  0  0  0  0  0  0  0  0  0
   57.4549   33.6841   43.6884 H   0  0  0  0  0  0  0  0  0  0  0  0
   57.6023   32.6596   45.7991 H   0  0  0  0  0  0  0  0  0  0  0  0
   59.6053   33.3418   46.7780 H   0  0  0  0  0  0  0  0  0  0  0  0
   60.5743   32.9566   45.3153 H   0  0  0  0  0  0  0  0  0  0  0  0
   59.4737   34.3762   45.3153 H   0  0  0  0  0  0  0  0  0  0  0  0
   59.6950   30.9936   44.5790 H   0  0  0  0  0  0  0  0  0  0  0  0
  1  2  1  0
  2  3  1  0
  3  4  1  0
  4  5  1  0
  5  6  1  6
  5  7  1  0
  7  8  1  0
  8  9  1  0
  9 10  1  0
 10 11  1  0
 11 12  1  0
 12 13  1  0
 13 14  1  0
 14 15  1  0
 14 16  1  0
 16 17  1  0
 17 18  1  6
 16  3  1  0
 18  5  1  0
 17  8  1  0
 17 11  1  0
  1 19  1  0
  1 20  1  0
  1 21  1  0
  3 22  1  1
  4 23  1  0
  4 24  1  0
  6 25  1  0
  6 26  1  0
  6 27  1  0
  8 28  1  1
 10 29  1  0
 10 30  1  0
 11 31  1  1
 12 32  1  0
 12 33  1  0
 13 34  1  0
 13 35  1  0
 14 36  1  1
 15 37  1  0
 15 38  1  0
 15 39  1  0
 16 40  1  6
M  END
>  <UniqueID>  (32) 
30

>  <SMILES>  (32) 
CO[C@H]1C[C@@]2(C)OC3OCC4CCC(C)C1C43O2

>  <Energy>  (32) 
88.08811089966501

>  <Genealogy>  (32) 
CO[C@H]1C[C@@]2(C)OC3OCC4CCC(C)C1C43O2 (chirality)
CO[C@H]1C[C@@]2(C)OC3OCC4CCC(C)C1C43O2 (3D coordinates assigned)
CO[C@H]1C[C@@]2(C)OC3OCC4CCC(C)C1C43O2 (nonaromatic ring conformer: 88.08811089966501 kcal/mol)

>  <smiles>  (32) 
COC1CC2(C)OC3OCC4CCC(C)C1C43O2

>  <score_type>  (32) 
oracle

>  <origin>  (32) 
adg

>  <m_score__min__energy>  (32) 
-6.79

>  <m_primary>  (32) 
energy

$$$$
32:0
     RDKit          3D

 44 45  0  0  0  0  0  0  0  0999 V2000
   57.1850   34.5260   44.9140 C   0  0  0  0  0  0  0  0  0  0  0  0
   57.7870   33.1690   45.1760 C   0  0  0  0  0  0  0  0  0  0  0  0
   57.1600   32.0320   44.6370 C   0  0  0  0  0  0  0  0  0  0  0  0
   57.6860   30.7530   44.8510 C   0  0  0  0  0  0  0  0  0  0  0  0
   56.8750   29.3350   44.1810 S   0  0  0  0  0  0  0  0  0  0  0  0
   56.5840   29.5740   42.7250 O   0  0  0  0  0  0  0  0  0  0  0  0
   55.5620   29.1350   44.8880 O   0  0  0  0  0  0  0  0  0  0  0  0
   57.8500   27.8950   44.3440 N   0  0  0  0  0  0  0  0  0  0  0  0
   58.0020   27.2460   43.0350 C   0  0  0  0  0  0  0  0  0  0  0  0
   57.2190   26.9740   45.2980 C   0  0  0  0  0  0  0  0  0  0  0  0
   58.8560   30.6060   45.6020 C   0  0  0  0  0  0  0  0  0  0  0  0
   59.4970   31.7250   46.1340 C   0  0  0  0  0  0  0  0  0  0  0  0
   58.9800   33.0150   45.9260 C   0  0  0  0  0  0  0  0  0  0  0  0
   59.7160   34.2000   46.5120 C   0  0  0  0  0  0  0  0  0  0  0  0
   59.2860   34.4670   47.8940 N   0  0  0  0  0  0  0  0  0  0  0  0
   59.9330   33.5780   48.8730 C   0  0  0  0  0  0  0  0  0  0  0  0
   61.3260   33.2110   48.4320 C   0  0  0  0  0  0  0  0  0  0  0  0
   62.2940   34.2050   48.2270 C   0  0  0  0  0  0  0  0  0  0  0  0
   63.5770   33.8410   47.8100 C   0  0  0  0  0  0  0  0  0  0  0  0
   63.8820   32.5330   47.5980 N   0  0  0  0  0  0  0  0  0  0  0  0
   62.9580   31.5510   47.7810 C   0  0  0  0  0  0  0  0  0  0  0  0
   61.6640   31.8720   48.1930 C   0  0  0  0  0  0  0  0  0  0  0  0
   56.9655   35.0208   45.8716 H   0  0  0  0  0  0  0  0  0  0  0  0
   57.8961   35.1379   44.3396 H   0  0  0  0  0  0  0  0  0  0  0  0
   56.2541   34.4095   44.3396 H   0  0  0  0  0  0  0  0  0  0  0  0
   56.2440   32.1492   44.0393 H   0  0  0  0  0  0  0  0  0  0  0  0
   58.2507   26.1842   43.1789 H   0  0  0  0  0  0  0  0  0  0  0  0
   57.0601   27.3291   42.4730 H   0  0  0  0  0  0  0  0  0  0  0  0
   58.8090   27.7387   42.4730 H   0  0  0  0  0  0  0  0  0  0  0  0
   57.4422   27.2998   46.3246 H   0  0  0  0  0  0  0  0  0  0  0  0
   56.1301   26.9738   45.1420 H   0  0  0  0  0  0  0  0  0  0  0  0
   57.6120   25.9585   45.1420 H   0  0  0  0  0  0  0  0  0  0  0  0
   59.2732   29.6029   45.7743 H   0  0  0  0  0  0  0  0  0  0  0  0
   60.4172   31.5961   46.7227 H   0  0  0  0  0  0  0  0  0  0  0  0
   60.7956   33.9893   46.5071 H   0  0  0  0  0  0  0  0  0  0  0  0
   59.4894   35.0860   45.9008 H   0  0  0  0  0  0  0  0  0  0  0  0
   58.2570   34.2780   47.9380 H   0  0  0  0  0  0  0  0  0  0  0  0
   59.9869   34.0914   49.8444 H   0  0  0  0  0  0  0  0  0  0  0  0
   59.3379   32.6566   48.9562 H   0  0  0  0  0  0  0  0  0  0  0  0
   62.0450   35.2635   48.3933 H   0  0  0  0  0  0  0  0  0  0  0  0
   64.3426   34.6150   47.6528 H   0  0  0  0  0  0  0  0  0  0  0  0
   64.8470   32.2760   47.2900 H   0  0  0  0  0  0  0  0  0  0  0  0
   63.2320   30.5006   47.6036 H   0  0  0  0  0  0  0  0  0  0  0  0
   60.9139   31.0791   48.3293 H   0  0  0  0  0  0  0  0  0  0  0  0
  1  2  1  0
  2  3  2  0
  3  4  1  0
  4  5  1  0
  5  6  2  0
  5  7  2  0
  5  8  1  0
  8  9  1  0
  8 10  1  0
  4 11  2  0
 11 12  1  0
 12 13  2  0
 13 14  1  0
 14 15  1  0
 15 16  1  0
 16 17  1  0
 17 18  2  0
 18 19  1  0
 19 20  2  0
 20 21  1  0
 21 22  2  0
 13  2  1  0
 22 17  1  0
  1 23  1  0
  1 24  1  0
  1 25  1  0
  3 26  1  0
  9 27  1  0
  9 28  1  0
  9 29  1  0
 10 30  1  0
 10 31  1  0
 10 32  1  0
 11 33  1  0
 12 34  1  0
 14 35  1  0
 14 36  1  0
 15 37  1  0
 16 38  1  0
 16 39  1  0
 18 40  1  0
 19 41  1  0
 20 42  1  0
 21 43  1  0
 22 44  1  0
M  CHG  1  20   1
M  END
>  <UniqueID>  (33) 
31

>  <SMILES>  (33) 
Cc1cc(S(=O)(=O)N(C)C)ccc1CNCc1cc[nH+]cc1

>  <Energy>  (33) 
36.95654771739237

>  <Genealogy>  (33) 
Cc1cc(S(=O)(=O)N(C)C)ccc1CNCc1cc[nH+]cc1 (protonated)
Cc1cc(S(=O)(=O)N(C)C)ccc1CNCc1cc[nH+]cc1 (3D coordinates assigned)
Cc1cc(S(=O)(=O)N(C)C)ccc1CNCc1cc[nH+]cc1 (optimized conformer: 36.95654771739237 kcal/mol)

>  <smiles>  (33) 
Cc1cc(S(=O)(=O)N(C)C)ccc1CNCc1ccncc1

>  <score_type>  (33) 
oracle

>  <origin>  (33) 
adg

>  <m_score__min__energy>  (33) 
-6.7800000000000002

>  <m_primary>  (33) 
energy

$$$$
33:0
     RDKit          3D

 50 53  0  0  0  0  0  0  0  0999 V2000
   58.8847   32.9660   54.2964 H   0  0  0  0  0  0  0  0  0  0  0  0
   58.8390   32.8280   53.2060 C   0  0  0  0  0  0  0  0  0  0  0  0
   59.3300   33.8210   52.3560 C   0  0  0  0  0  0  0  0  0  0  0  0
   59.7615   34.7408   52.7776 H   0  0  0  0  0  0  0  0  0  0  0  0
   59.2740   33.6480   50.9700 C   0  0  0  0  0  0  0  0  0  0  0  0
   59.6627   34.4330   50.3047 H   0  0  0  0  0  0  0  0  0  0  0  0
   58.7240   32.4770   50.4220 C   0  0  0  0  0  0  0  0  0  0  0  0
   58.6600   32.3110   48.9190 C   0  0  0  0  0  0  0  0  0  0  0  0
   58.0674   33.1361   48.4970 H   0  0  0  0  0  0  0  0  0  0  0  0
   58.1981   31.3352   48.7079 H   0  0  0  0  0  0  0  0  0  0  0  0
   60.0070   32.3210   48.2920 N   0  0  2  0  0  0  0  0  0  0  0  0
   59.9310   31.8710   47.3480 H   0  0  0  0  0  0  0  0  0  0  0  0
   60.9630   31.5200   49.0930 C   0  0  0  0  0  0  0  0  0  0  0  0
   60.5252   30.5297   49.2872 H   0  0  0  0  0  0  0  0  0  0  0  0
   61.1565   32.0535   50.0353 H   0  0  0  0  0  0  0  0  0  0  0  0
   62.3050   31.3390   48.3540 C   0  0  0  0  0  0  0  0  0  0  0  0
   62.2661   30.4035   47.7767 H   0  0  0  0  0  0  0  0  0  0  0  0
   63.1023   31.3149   49.1115 H   0  0  0  0  0  0  0  0  0  0  0  0
   62.6100   32.4970   47.3940 C   0  0  0  0  0  0  0  0  0  0  0  0
   62.1602   32.2805   46.4138 H   0  0  0  0  0  0  0  0  0  0  0  0
   63.7013   32.5991   47.3012 H   0  0  0  0  0  0  0  0  0  0  0  0
   62.0400   33.8100   47.9270 C   0  0  0  0  0  0  0  0  0  0  0  0
   62.2588   34.6116   47.2062 H   0  0  0  0  0  0  0  0  0  0  0  0
   62.5080   34.0151   48.9011 H   0  0  0  0  0  0  0  0  0  0  0  0
   60.5000   33.7290   48.1380 C   0  0  1  0  0  0  0  0  0  0  0  0
   60.2585   34.2305   49.0868 H   0  0  0  0  0  0  0  0  0  0  0  0
   59.7990   34.4470   46.9960 C   0  0  0  0  0  0  0  0  0  0  0  0
   59.0470   35.4260   47.2470 O   0  0  0  0  0  0  0  0  0  0  0  0
   59.7980   33.9090   45.6660 N   0  0  0  0  0  0  0  0  0  0  0  0
   59.0220   32.9730   45.2060 C   0  0  0  0  0  0  0  0  0  0  0  0
   58.7550   31.8550   45.9220 N   0  0  0  0  0  0  0  0  0  0  0  0
   57.8880   31.0490   45.2590 C   0  0  0  0  0  0  0  0  0  0  0  0
   57.4270   29.8220   45.7390 C   0  0  0  0  0  0  0  0  0  0  0  0
   57.7659   29.4439   46.7148 H   0  0  0  0  0  0  0  0  0  0  0  0
   56.5240   29.0740   44.9610 C   0  0  0  0  0  0  0  0  0  0  0  0
   56.0770   27.8440   45.4660 O   0  0  0  0  0  0  0  0  0  0  0  0
   56.9330   26.7620   45.8190 C   0  0  0  0  0  0  0  0  0  0  0  0
   56.9939   26.6850   46.9146 H   0  0  0  0  0  0  0  0  0  0  0  0
   56.5288   25.8254   45.4075 H   0  0  0  0  0  0  0  0  0  0  0  0
   57.9375   26.9399   45.4075 H   0  0  0  0  0  0  0  0  0  0  0  0
   56.0960   29.5790   43.7050 C   0  0  0  0  0  0  0  0  0  0  0  0
   55.3899   28.9964   43.0950 H   0  0  0  0  0  0  0  0  0  0  0  0
   56.5660   30.8150   43.2350 C   0  0  0  0  0  0  0  0  0  0  0  0
   56.2371   31.2117   42.2632 H   0  0  0  0  0  0  0  0  0  0  0  0
   57.4590   31.5250   44.0310 C   0  0  0  0  0  0  0  0  0  0  0  0
   58.1730   33.0120   43.7330 S   0  0  0  0  0  0  0  0  0  0  0  0
   58.2310   31.4800   51.2860 C   0  0  0  0  0  0  0  0  0  0  0  0
   57.6870   30.3390   50.7920 F   0  0  0  0  0  0  0  0  0  0  0  0
   58.2900   31.6600   52.6730 C   0  0  0  0  0  0  0  0  0  0  0  0
   57.9030   30.8795   53.3446 H   0  0  0  0  0  0  0  0  0  0  0  0
  1  2  1  0
  2  3  2  0
  3  4  1  0
  3  5  1  0
  5  6  1  0
  5  7  2  0
  7  8  1  0
  8  9  1  0
  8 10  1  0
  8 11  1  0
 11 12  1  6
 11 13  1  0
 13 14  1  0
 13 15  1  0
 13 16  1  0
 16 17  1  0
 16 18  1  0
 16 19  1  0
 19 20  1  0
 19 21  1  0
 19 22  1  0
 22 23  1  0
 22 24  1  0
 22 25  1  0
 25 26  1  1
 25 27  1  0
 27 28  2  0
 27 29  1  0
 29 30  2  0
 30 31  1  0
 31 32  1  0
 32 33  2  0
 33 34  1  0
 33 35  1  0
 35 36  1  0
 36 37  1  0
 37 38  1  0
 37 39  1  0
 37 40  1  0
 35 41  2  0
 41 42  1  0
 41 43  1  0
 43 44  1  0
 43 45  2  0
 45 46  1  0
  7 47  1  0
 47 48  1  0
 47 49  2  0
 49 50  1  0
 49  2  1  0
 25 11  1  0
 46 30  1  0
 45 32  1  0
M  CHG  2  11   1  31  -1
M  END
>  <UniqueID>  (34) 
32

>  <SMILES>  (34) 
COc1ccc2s/c(=N\C(=O)[C@@H]3CCCC[N@H+]3Cc3ccccc3F)[n-]c2c1

>  <Energy>  (34) 
103.93495970985569

>  <Genealogy>  (34) 
COc1ccc2sc(=NC(=O)C3CCCC[NH+]3Cc3ccccc3F)[n-]c2c1 (protonated)
COc1ccc2sc(=NC(=O)[C@@H]3CCCC[N@H+]3Cc3ccccc3F)[n-]c2c1 (chirality)
COc1ccc2s/c(=N\C(=O)[C@@H]3CCCC[N@H+]3Cc3ccccc3F)[n-]c2c1 (cis-trans isomerization)
COc1ccc2s/c(=N\C(=O)[C@@H]3CCCC[N@H+]3Cc3ccccc3F)[n-]c2c1 (3D coordinates assigned)
COc1ccc2s/c(=N\C(=O)[C@@H]3CCCC[N@H+]3Cc3ccccc3F)[n-]c2c1 (nonaromatic ring conformer: 103.93495970985569 kcal/mol)

>  <smiles>  (34) 
COc1ccc2sc(=NC(=O)C3CCCCN3Cc3ccccc3F)[nH]c2c1

>  <score_type>  (34) 
oracle

>  <origin>  (34) 
adg

>  <m_score__min__energy>  (34) 
-8.9000000000000004

>  <m_primary>  (34) 
energy

$$$$
34:0
     RDKit          3D

 42 44  0  0  0  0  0  0  0  0999 V2000
   55.4740   23.8020   44.6320 C   0  0  0  0  0  0  0  0  0  0  0  0
   54.9930   24.3730   45.9620 C   0  0  0  0  0  0  0  0  0  0  0  0
   55.5130   25.7350   46.1500 N   0  0  0  0  0  0  0  0  0  0  0  0
   56.8380   25.7540   46.7920 C   0  0  0  0  0  0  0  0  0  0  0  0
   57.9620   26.0990   45.7900 C   0  0  0  0  0  0  0  0  0  0  0  0
   57.4440   26.7530   44.5760 N   0  0  0  0  0  0  0  0  0  0  0  0
   57.6110   28.1850   44.6280 C   0  0  0  0  0  0  0  0  0  0  0  0
   58.1990   28.7990   45.7680 C   0  0  0  0  0  0  0  0  0  0  0  0
   58.3870   30.1920   45.8210 C   0  0  0  0  0  0  0  0  0  0  0  0
   57.9620   30.9490   44.7270 C   0  0  0  0  0  0  0  0  0  0  0  0
   57.4200   30.3600   43.6210 C   0  0  0  0  0  0  0  0  0  0  0  0
   57.1990   31.3780   42.7210 C   0  0  0  0  0  0  0  0  0  0  0  0
   57.6050   32.5400   43.2870 N   0  0  0  0  0  0  0  0  0  0  0  0
   58.0600   32.2780   44.5100 N   0  0  0  0  0  0  0  0  0  0  0  0
   58.5660   33.2890   45.3960 C   0  0  0  0  0  0  0  0  0  0  0  0
   58.4100   33.1730   46.7880 C   0  0  0  0  0  0  0  0  0  0  0  0
   58.8870   34.1760   47.6380 C   0  0  0  0  0  0  0  0  0  0  0  0
   59.5110   35.3070   47.1040 C   0  0  0  0  0  0  0  0  0  0  0  0
   59.6530   35.4400   45.7200 C   0  0  0  0  0  0  0  0  0  0  0  0
   59.1750   34.4400   44.8680 C   0  0  0  0  0  0  0  0  0  0  0  0
   57.2220   28.9870   43.5290 C   0  0  0  0  0  0  0  0  0  0  0  0
   56.1723   22.9731   44.8199 H   0  0  0  0  0  0  0  0  0  0  0  0
   54.6114   23.4319   44.0584 H   0  0  0  0  0  0  0  0  0  0  0  0
   55.9852   24.5892   44.0584 H   0  0  0  0  0  0  0  0  0  0  0  0
   53.8934   24.4002   45.9688 H   0  0  0  0  0  0  0  0  0  0  0  0
   55.3591   23.7341   46.7792 H   0  0  0  0  0  0  0  0  0  0  0  0
   54.8340   26.2870   46.7260 H   0  0  0  0  0  0  0  0  0  0  0  0
   56.8334   26.5073   47.5936 H   0  0  0  0  0  0  0  0  0  0  0  0
   57.0362   24.7485   47.1917 H   0  0  0  0  0  0  0  0  0  0  0  0
   58.6773   26.7763   46.2795 H   0  0  0  0  0  0  0  0  0  0  0  0
   58.4446   25.1581   45.4869 H   0  0  0  0  0  0  0  0  0  0  0  0
   57.9670   26.3830   43.7480 H   0  0  0  0  0  0  0  0  0  0  0  0
   56.4370   26.5020   44.4380 H   0  0  0  0  0  0  0  0  0  0  0  0
   58.5109   28.1764   46.6195 H   0  0  0  0  0  0  0  0  0  0  0  0
   58.8534   30.6694   46.6954 H   0  0  0  0  0  0  0  0  0  0  0  0
   56.7671   31.2671   41.7154 H   0  0  0  0  0  0  0  0  0  0  0  0
   57.9103   32.2890   47.2110 H   0  0  0  0  0  0  0  0  0  0  0  0
   58.7710   34.0748   48.7272 H   0  0  0  0  0  0  0  0  0  0  0  0
   59.8906   36.0929   47.7735 H   0  0  0  0  0  0  0  0  0  0  0  0
   60.1412   36.3321   45.3008 H   0  0  0  0  0  0  0  0  0  0  0  0
   59.2762   34.5548   43.7787 H   0  0  0  0  0  0  0  0  0  0  0  0
   56.7765   28.5377   42.6292 H   0  0  0  0  0  0  0  0  0  0  0  0
  1  2  1  0
  2  3  1  0
  3  4  1  0
  4  5  1  0
  5  6  1  0
  6  7  1  0
  7  8  2  0
  8  9  1  0
  9 10  2  0
 10 11  1  0
 11 12  1  0
 12 13  2  0
 13 14  1  0
 14 15  1  0
 15 16  2  0
 16 17  1  0
 17 18  2  0
 18 19  1  0
 19 20  2  0
 11 21  2  0
 21  7  1  0
 14 10  1  0
 20 15  1  0
  1 22  1  0
  1 23  1  0
  1 24  1  0
  2 25  1  0
  2 26  1  0
  3 27  1  0
  4 28  1  0
  4 29  1  0
  5 30  1  0
  5 31  1  0
  6 32  1  0
  6 33  1  0
  8 34  1  0
  9 35  1  0
 12 36  1  0
 16 37  1  0
 17 38  1  0
 18 39  1  0
 19 40  1  0
 20 41  1  0
 21 42  1  0
M  CHG  1   6   1
M  END
>  <UniqueID>  (35) 
33

>  <SMILES>  (35) 
CCNCC[NH2+]c1ccc2c(cnn2-c2ccccc2)c1

>  <Energy>  (35) 
86.77354260827562

>  <Genealogy>  (35) 
CCNCC[NH2+]c1ccc2c(cnn2-c2ccccc2)c1 (protonated)
CCNCC[NH2+]c1ccc2c(cnn2-c2ccccc2)c1 (3D coordinates assigned)
CCNCC[NH2+]c1ccc2c(cnn2-c2ccccc2)c1 (optimized conformer: 86.77354260827562 kcal/mol)

>  <smiles>  (35) 
CCNCCNc1ccc2c(cnn2-c2ccccc2)c1

>  <score_type>  (35) 
oracle

>  <origin>  (35) 
adg

>  <m_score__min__energy>  (35) 
-6.0800000000000001

>  <m_primary>  (35) 
energy

$$$$
35:0
     RDKit          3D

 37 39  0  0  0  0  0  0  0  0999 V2000
   58.8920   27.8900   44.1210 C   0  0  0  0  0  0  0  0  0  0  0  0
   57.9940   28.8180   44.7230 O   0  0  0  0  0  0  0  0  0  0  0  0
   58.2970   29.6020   45.8460 C   0  0  0  0  0  0  0  0  0  0  0  0
   58.6590   29.0310   47.0820 C   0  0  0  0  0  0  0  0  0  0  0  0
   58.9560   29.8460   48.1770 C   0  0  0  0  0  0  0  0  0  0  0  0
   58.9080   31.2430   48.0570 C   0  0  0  0  0  0  0  0  0  0  0  0
   59.2130   32.0880   49.1820 N   0  0  0  0  0  0  0  0  0  0  0  0
   58.4120   32.3010   50.2460 C   0  0  0  0  0  0  0  0  0  0  0  0
   59.0790   33.1260   51.1300 C   0  0  0  0  0  0  0  0  0  0  0  0
   58.5960   33.5530   52.4800 C   0  0  0  0  0  0  0  0  0  0  0  0
   59.6820   33.8270   53.2900 F   0  0  0  0  0  0  0  0  0  0  0  0
   57.8400   32.5470   53.0560 F   0  0  0  0  0  0  0  0  0  0  0  0
   57.8160   34.6900   52.3660 F   0  0  0  0  0  0  0  0  0  0  0  0
   60.2970   33.4100   50.6310 N   0  0  0  0  0  0  0  0  0  0  0  0
   60.3540   32.7740   49.4420 C   0  0  0  0  0  0  0  0  0  0  0  0
   61.4900   32.9170   48.5050 C   0  0  0  0  0  0  0  0  0  0  0  0
   62.6760   32.2040   48.7490 C   0  0  0  0  0  0  0  0  0  0  0  0
   63.7600   32.3150   47.8740 C   0  0  0  0  0  0  0  0  0  0  0  0
   63.6690   33.1360   46.7480 C   0  0  0  0  0  0  0  0  0  0  0  0
   62.4960   33.8490   46.4960 C   0  0  0  0  0  0  0  0  0  0  0  0
   61.4030   33.7450   47.3660 C   0  0  0  0  0  0  0  0  0  0  0  0
   59.9730   34.7170   47.0310 Cl  0  0  0  0  0  0  0  0  0  0  0  0
   58.5330   31.8120   46.8310 C   0  0  0  0  0  0  0  0  0  0  0  0
   58.2350   30.9990   45.7330 C   0  0  0  0  0  0  0  0  0  0  0  0
   57.7450   31.8190   44.0740 Br  0  0  0  0  0  0  0  0  0  0  0  0
   59.4278   27.3363   44.9060 H   0  0  0  0  0  0  0  0  0  0  0  0
   58.3253   27.1841   43.4961 H   0  0  0  0  0  0  0  0  0  0  0  0
   59.6162   28.4332   43.4961 H   0  0  0  0  0  0  0  0  0  0  0  0
   58.7081   27.9370   47.1854 H   0  0  0  0  0  0  0  0  0  0  0  0
   59.2293   29.3894   49.1397 H   0  0  0  0  0  0  0  0  0  0  0  0
   57.4018   31.8887   50.3855 H   0  0  0  0  0  0  0  0  0  0  0  0
   61.0300   34.0160   51.0610 H   0  0  0  0  0  0  0  0  0  0  0  0
   62.7516   31.5548   49.6338 H   0  0  0  0  0  0  0  0  0  0  0  0
   64.6858   31.7551   48.0724 H   0  0  0  0  0  0  0  0  0  0  0  0
   64.5224   33.2208   46.0592 H   0  0  0  0  0  0  0  0  0  0  0  0
   62.4294   34.4963   45.6091 H   0  0  0  0  0  0  0  0  0  0  0  0
   58.4729   32.9059   46.7325 H   0  0  0  0  0  0  0  0  0  0  0  0
  1  2  1  0
  2  3  1  0
  3  4  2  0
  4  5  1  0
  5  6  2  0
  6  7  1  0
  7  8  1  0
  8  9  2  0
  9 10  1  0
 10 11  1  0
 10 12  1  0
 10 13  1  0
  9 14  1  0
 14 15  2  0
 15 16  1  0
 16 17  2  0
 17 18  1  0
 18 19  2  0
 19 20  1  0
 20 21  2  0
 21 22  1  0
  6 23  1  0
 23 24  2  0
 24 25  1  0
 24  3  1  0
 15  7  1  0
 21 16  1  0
  1 26  1  0
  1 27  1  0
  1 28  1  0
  4 29  1  0
  5 30  1  0
  8 31  1  0
 14 32  1  0
 17 33  1  0
 18 34  1  0
 19 35  1  0
 20 36  1  0
 23 37  1  0
M  CHG  1  14   1
M  END
>  <UniqueID>  (36) 
34

>  <SMILES>  (36) 
COc1ccc(-n2cc(C(F)(F)F)[nH+]c2-c2ccccc2Cl)cc1Br

>  <Energy>  (36) 
79.2644777115896

>  <Genealogy>  (36) 
COc1ccc(-n2cc(C(F)(F)F)[nH+]c2-c2ccccc2Cl)cc1Br (protonated)
COc1ccc(-n2cc(C(F)(F)F)[nH+]c2-c2ccccc2Cl)cc1Br (3D coordinates assigned)
COc1ccc(-n2cc(C(F)(F)F)[nH+]c2-c2ccccc2Cl)cc1Br (optimized conformer: 79.2644777115896 kcal/mol)

>  <smiles>  (36) 
COc1ccc(-n2cc(C(F)(F)F)nc2-c2ccccc2Cl)cc1Br

>  <score_type>  (36) 
oracle

>  <origin>  (36) 
adg

>  <m_score__min__energy>  (36) 
-5.4400000000000004

>  <m_primary>  (36) 
energy

$$$$
36:0
     RDKit          3D

 58 58  0  0  0  0  0  0  0  0999 V2000
   63.0690   31.6450   47.6940 C   0  0  0  0  0  0  0  0  0  0  0  0
   63.7470   32.8740   47.0900 C   0  0  0  0  0  0  0  0  0  0  0  0
   62.7430   33.8380   46.4470 C   0  0  0  0  0  0  0  0  0  0  0  0
   61.4760   34.0210   47.2970 C   0  0  0  0  0  0  0  0  0  0  0  0
   60.2190   34.1990   46.4280 C   0  0  0  0  0  0  0  0  0  0  0  0
   58.9300   33.8690   47.1950 C   0  0  0  0  0  0  0  0  0  0  0  0
   59.2260   33.2610   48.5830 C   0  0  0  0  0  0  0  0  0  0  0  0
   58.7730   31.7960   48.7220 C   0  0  0  0  0  0  0  0  0  0  0  0
   59.5310   30.8220   47.7900 C   0  0  0  0  0  0  0  0  0  0  0  0
   59.7990   29.4580   48.4490 C   0  0  0  0  0  0  0  0  0  0  0  0
   59.7960   28.2700   47.4600 C   0  0  0  0  0  0  0  0  0  0  0  0
   58.4200   27.7760   46.9430 C   0  0  1  0  0  0  0  0  0  0  0  0
   57.5340   28.8510   46.7620 O   0  0  0  0  0  0  0  0  0  0  0  0
   58.5150   26.8720   45.6900 C   0  0  0  0  0  0  0  0  0  0  0  0
   58.9680   27.6190   44.4220 C   0  0  0  0  0  0  0  0  0  0  0  0
   57.8110   28.1370   43.5510 C   0  0  0  0  0  0  0  0  0  0  0  0
   57.3650   29.5120   43.9630 C   0  0  0  0  0  0  0  0  0  0  0  0
   58.0750   30.6880   43.8170 C   0  0  0  0  0  0  0  0  0  0  0  0
   57.2680   31.6730   44.3570 C   0  0  0  0  0  0  0  0  0  0  0  0
   57.5940   33.1270   44.4150 C   0  0  0  0  0  0  0  0  0  0  0  0
   56.1390   31.1540   44.7930 O   0  0  0  0  0  0  0  0  0  0  0  0
   56.1760   29.8630   44.5690 C   0  0  0  0  0  0  0  0  0  0  0  0
   55.1470   28.9920   44.8970 O   0  0  0  0  0  0  0  0  0  0  0  0
   63.1043   31.7090   48.7916 H   0  0  0  0  0  0  0  0  0  0  0  0
   62.0209   31.6045   47.3626 H   0  0  0  0  0  0  0  0  0  0  0  0
   63.5937   30.7368   47.3626 H   0  0  0  0  0  0  0  0  0  0  0  0
   64.2877   33.4064   47.8863 H   0  0  0  0  0  0  0  0  0  0  0  0
   64.4308   32.5265   46.3015 H   0  0  0  0  0  0  0  0  0  0  0  0
   63.2267   34.8177   46.3193 H   0  0  0  0  0  0  0  0  0  0  0  0
   62.4385   33.4084   45.4812 H   0  0  0  0  0  0  0  0  0  0  0  0
   61.3446   33.1338   47.9339 H   0  0  0  0  0  0  0  0  0  0  0  0
   61.6018   34.9307   47.9024 H   0  0  0  0  0  0  0  0  0  0  0  0
   60.1700   35.2434   46.0862 H   0  0  0  0  0  0  0  0  0  0  0  0
   60.2942   33.5025   45.5799 H   0  0  0  0  0  0  0  0  0  0  0  0
   58.3488   34.7934   47.3282 H   0  0  0  0  0  0  0  0  0  0  0  0
   58.3660   33.1269   46.6108 H   0  0  0  0  0  0  0  0  0  0  0  0
   60.3107   33.3081   48.7594 H   0  0  0  0  0  0  0  0  0  0  0  0
   58.6572   33.8465   49.3203 H   0  0  0  0  0  0  0  0  0  0  0  0
   58.9358   31.4790   49.7627 H   0  0  0  0  0  0  0  0  0  0  0  0
   57.7121   31.7579   48.4339 H   0  0  0  0  0  0  0  0  0  0  0  0
   58.9293   30.6626   46.8831 H   0  0  0  0  0  0  0  0  0  0  0  0
   60.5055   31.2757   47.5568 H   0  0  0  0  0  0  0  0  0  0  0  0
   60.7832   29.4979   48.9386 H   0  0  0  0  0  0  0  0  0  0  0  0
   58.9787   29.2818   49.1603 H   0  0  0  0  0  0  0  0  0  0  0  0
   60.3900   28.5686   46.5837 H   0  0  0  0  0  0  0  0  0  0  0  0
   60.2010   27.4241   48.0349 H   0  0  0  0  0  0  0  0  0  0  0  0
   58.0068   27.1266   47.7289 H   0  0  0  0  0  0  0  0  0  0  0  0
   56.7440   28.5210   46.2700 H   0  0  0  0  0  0  0  0  0  0  0  0
   59.2365   26.0676   45.8958 H   0  0  0  0  0  0  0  0  0  0  0  0
   57.5034   26.4875   45.4930 H   0  0  0  0  0  0  0  0  0  0  0  0
   59.5815   28.4790   44.7284 H   0  0  0  0  0  0  0  0  0  0  0  0
   59.5263   26.8953   43.8100 H   0  0  0  0  0  0  0  0  0  0  0  0
   58.1436   28.1711   42.5031 H   0  0  0  0  0  0  0  0  0  0  0  0
   56.9592   27.4525   43.6772 H   0  0  0  0  0  0  0  0  0  0  0  0
   59.0707   30.8142   43.3669 H   0  0  0  0  0  0  0  0  0  0  0  0
   57.6653   33.4451   45.4656 H   0  0  0  0  0  0  0  0  0  0  0  0
   58.5550   33.3077   43.9111 H   0  0  0  0  0  0  0  0  0  0  0  0
   56.8022   33.7007   43.9111 H   0  0  0  0  0  0  0  0  0  0  0  0
  1  2  1  0
  2  3  1  0
  3  4  1  0
  4  5  1  0
  5  6  1  0
  6  7  1  0
  7  8  1  0
  8  9  1  0
  9 10  1  0
 10 11  1  0
 11 12  1  0
 12 13  1  0
 12 14  1  0
 14 15  1  0
 15 16  1  0
 16 17  1  0
 17 18  1  0
 18 19  2  0
 19 20  1  0
 19 21  1  0
 21 22  1  0
 22 23  1  0
 22 17  2  0
  1 24  1  0
  1 25  1  0
  1 26  1  0
  2 27  1  0
  2 28  1  0
  3 29  1  0
  3 30  1  0
  4 31  1  0
  4 32  1  0
  5 33  1  0
  5 34  1  0
  6 35  1  0
  6 36  1  0
  7 37  1  0
  7 38  1  0
  8 39  1  0
  8 40  1  0
  9 41  1  0
  9 42  1  0
 10 43  1  0
 10 44  1  0
 11 45  1  0
 11 46  1  0
 12 47  1  1
 13 48  1  0
 14 49  1  0
 14 50  1  0
 15 51  1  0
 15 52  1  0
 16 53  1  0
 16 54  1  0
 18 55  1  0
 20 56  1  0
 20 57  1  0
 20 58  1  0
M  CHG  1  23  -1
M  END
>  <UniqueID>  (37) 
35

>  <SMILES>  (37) 
CCCCCCCCCCC[C@@H](O)CCCc1cc(C)oc1[O-]

>  <Energy>  (37) 
63.065327664702295

>  <Genealogy>  (37) 
CCCCCCCCCCCC(O)CCCc1cc(C)oc1[O-] (protonated)
CCCCCCCCCCC[C@@H](O)CCCc1cc(C)oc1[O-] (chirality)
CCCCCCCCCCC[C@@H](O)CCCc1cc(C)oc1[O-] (3D coordinates assigned)
CCCCCCCCCCC[C@@H](O)CCCc1cc(C)oc1[O-] (optimized conformer: 63.065327664702295 kcal/mol)

>  <smiles>  (37) 
CCCCCCCCCCCC(O)CCCc1cc(C)oc1O

>  <score_type>  (37) 
oracle

>  <origin>  (37) 
adg

>  <m_score__min__energy>  (37) 
-11

>  <m_primary>  (37) 
energy

$$$$
37:0
     RDKit          3D

 25 26  0  0  0  0  0  0  0  0999 V2000
   57.3890   32.5240   44.6180 C   0  0  0  0  0  0  0  0  0  0  0  0
   56.6940   31.2830   44.5500 O   0  0  0  0  0  0  0  0  0  0  0  0
   57.2800   30.0330   44.7990 C   0  0  0  0  0  0  0  0  0  0  0  0
   58.6760   29.8120   44.6770 C   0  0  0  0  0  0  0  0  0  0  0  0
   59.2210   28.5430   44.9350 C   0  0  0  0  0  0  0  0  0  0  0  0
   58.3660   27.5080   45.3150 C   0  0  0  0  0  0  0  0  0  0  0  0
   57.0170   27.7230   45.4340 C   0  0  0  0  0  0  0  0  0  0  0  0
   56.4440   28.9700   45.1830 C   0  0  0  0  0  0  0  0  0  0  0  0
   56.3800   26.4930   45.8320 C   0  0  0  0  0  0  0  0  0  0  0  0
   55.1390   26.3490   46.0020 O   0  0  0  0  0  0  0  0  0  0  0  0
   57.3970   25.4040   45.9900 C   0  0  2  0  0  0  0  0  0  0  0  0
   57.3970   24.8530   47.4180 C   0  0  0  0  0  0  0  0  0  0  0  0
   58.7440   26.0950   45.6300 C   0  0  0  0  0  0  0  0  0  0  0  0
   57.5438   32.8003   45.6714 H   0  0  0  0  0  0  0  0  0  0  0  0
   58.3637   32.4263   44.1176 H   0  0  0  0  0  0  0  0  0  0  0  0
   56.7964   33.3040   44.1176 H   0  0  0  0  0  0  0  0  0  0  0  0
   59.3361   30.6397   44.3784 H   0  0  0  0  0  0  0  0  0  0  0  0
   60.3028   28.3685   44.8391 H   0  0  0  0  0  0  0  0  0  0  0  0
   55.3587   29.1186   45.2836 H   0  0  0  0  0  0  0  0  0  0  0  0
   57.1962   24.5327   45.3494 H   0  0  0  0  0  0  0  0  0  0  0  0
   58.4341   24.7210   47.7601 H   0  0  0  0  0  0  0  0  0  0  0  0
   56.8785   25.5589   48.0834 H   0  0  0  0  0  0  0  0  0  0  0  0
   56.8785   23.8831   47.4368 H   0  0  0  0  0  0  0  0  0  0  0  0
   59.4395   26.0589   46.4814 H   0  0  0  0  0  0  0  0  0  0  0  0
   59.2568   25.6016   44.7912 H   0  0  0  0  0  0  0  0  0  0  0  0
  1  2  1  0
  2  3  1  0
  3  4  2  0
  4  5  1  0
  5  6  2  0
  6  7  1  0
  7  8  2  0
  7  9  1  0
  9 10  2  0
  9 11  1  0
 11 12  1  0
 11 13  1  0
  8  3  1  0
 13  6  1  0
  1 14  1  0
  1 15  1  0
  1 16  1  0
  4 17  1  0
  5 18  1  0
  8 19  1  0
 11 20  1  6
 12 21  1  0
 12 22  1  0
 12 23  1  0
 13 24  1  0
 13 25  1  0
M  END
>  <UniqueID>  (38) 
36

>  <SMILES>  (38) 
COc1ccc2c(c1)C(=O)[C@H](C)C2

>  <Energy>  (38) 
35.79924752348068

>  <Genealogy>  (38) 
COc1ccc2c(c1)C(=O)[C@H](C)C2 (chirality)
COc1ccc2c(c1)C(=O)[C@H](C)C2 (3D coordinates assigned)
COc1ccc2c(c1)C(=O)[C@H](C)C2 (nonaromatic ring conformer: 35.79924752348068 kcal/mol)

>  <smiles>  (38) 
COc1ccc2c(c1)C(=O)C(C)C2

>  <score_type>  (38) 
oracle

>  <origin>  (38) 
adg

>  <m_score__min__energy>  (38) 
-5.6600000000000001

>  <m_primary>  (38) 
energy

$$$$
38:0
     RDKit          3D

 35 36  0  0  0  0  0  0  0  0999 V2000
   60.2340   27.1950   48.2950 C   0  0  0  0  0  0  0  0  0  0  0  0
   59.0590   26.6910   47.4640 C   0  0  0  0  0  0  0  0  0  0  0  0
   58.9640   27.4420   46.2140 N   0  0  0  0  0  0  0  0  0  0  0  0
   59.9720   28.0700   45.5720 C   0  0  0  0  0  0  0  0  0  0  0  0
   59.4440   28.7590   44.4960 C   0  0  0  0  0  0  0  0  0  0  0  0
   58.1100   28.5590   44.4700 N   0  0  0  0  0  0  0  0  0  0  0  0
   57.1480   29.1880   43.5710 C   0  0  0  0  0  0  0  0  0  0  0  0
   56.1310   29.9440   44.3650 C   0  0  0  0  0  0  0  0  0  0  0  0
   55.1570   29.3320   44.8780 O   0  0  0  0  0  0  0  0  0  0  0  0
   56.2650   31.3640   44.5070 N   0  0  0  0  0  0  0  0  0  0  0  0
   57.3320   32.0560   45.1700 C   0  0  0  0  0  0  0  0  0  0  0  0
   58.1730   31.4160   46.0990 C   0  0  0  0  0  0  0  0  0  0  0  0
   59.2150   32.1200   46.7080 C   0  0  0  0  0  0  0  0  0  0  0  0
   59.4510   33.4640   46.3780 C   0  0  0  0  0  0  0  0  0  0  0  0
   60.5430   34.2310   47.0620 C   0  0  0  0  0  0  0  0  0  0  0  0
   58.6180   34.0990   45.4450 C   0  0  0  0  0  0  0  0  0  0  0  0
   57.5760   33.3930   44.8350 C   0  0  0  0  0  0  0  0  0  0  0  0
   57.8490   27.7730   45.5350 C   0  0  0  0  0  0  0  0  0  0  0  0
   56.6890   27.4120   45.8710 O   0  0  0  0  0  0  0  0  0  0  0  0
   59.9971   27.0934   49.3644 H   0  0  0  0  0  0  0  0  0  0  0  0
   61.1303   26.6022   48.0600 H   0  0  0  0  0  0  0  0  0  0  0  0
   60.4222   28.2530   48.0600 H   0  0  0  0  0  0  0  0  0  0  0  0
   59.2059   25.6248   47.2367 H   0  0  0  0  0  0  0  0  0  0  0  0
   58.1299   26.8292   48.0365 H   0  0  0  0  0  0  0  0  0  0  0  0
   61.0340   28.0388   45.8569 H   0  0  0  0  0  0  0  0  0  0  0  0
   60.0159   29.3684   43.7807 H   0  0  0  0  0  0  0  0  0  0  0  0
   57.6754   29.8811   42.8990 H   0  0  0  0  0  0  0  0  0  0  0  0
   56.6421   28.4107   42.9795 H   0  0  0  0  0  0  0  0  0  0  0  0
   58.0094   30.3569   46.3469 H   0  0  0  0  0  0  0  0  0  0  0  0
   59.8538   31.6185   47.4499 H   0  0  0  0  0  0  0  0  0  0  0  0
   60.4229   34.1466   48.1522 H   0  0  0  0  0  0  0  0  0  0  0  0
   61.5198   33.8195   46.7678 H   0  0  0  0  0  0  0  0  0  0  0  0
   60.4873   35.2895   46.7678 H   0  0  0  0  0  0  0  0  0  0  0  0
   58.7849   35.1564   45.1921 H   0  0  0  0  0  0  0  0  0  0  0  0
   56.9434   33.8923   44.0863 H   0  0  0  0  0  0  0  0  0  0  0  0
  1  2  1  0
  2  3  1  0
  3  4  1  0
  4  5  2  0
  5  6  1  0
  6  7  1  0
  7  8  1  0
  8  9  2  0
  8 10  1  0
 10 11  1  0
 11 12  2  0
 12 13  1  0
 13 14  2  0
 14 15  1  0
 14 16  1  0
 16 17  2  0
  6 18  1  0
 18 19  2  0
 18  3  1  0
 17 11  1  0
  1 20  1  0
  1 21  1  0
  1 22  1  0
  2 23  1  0
  2 24  1  0
  4 25  1  0
  5 26  1  0
  7 27  1  0
  7 28  1  0
 12 29  1  0
 13 30  1  0
 15 31  1  0
 15 32  1  0
 15 33  1  0
 16 34  1  0
 17 35  1  0
M  CHG  1  10  -1
M  END
>  <UniqueID>  (39) 
37

>  <SMILES>  (39) 
CCn1ccn(CC(=O)[N-]c2ccc(C)cc2)c1=O

>  <Energy>  (39) 
64.35658564399927

>  <Genealogy>  (39) 
CCn1ccn(CC(=O)[N-]c2ccc(C)cc2)c1=O (protonated)
CCn1ccn(CC(=O)[N-]c2ccc(C)cc2)c1=O (3D coordinates assigned)
CCn1ccn(CC(=O)[N-]c2ccc(C)cc2)c1=O (optimized conformer: 64.35658564399927 kcal/mol)

>  <smiles>  (39) 
CCn1ccn(CC(=O)Nc2ccc(C)cc2)c1=O

>  <score_type>  (39) 
oracle

>  <origin>  (39) 
adg

>  <m_score__min__energy>  (39) 
-8.2200000000000006

>  <m_primary>  (39) 
energy

$$$$
39:0
     RDKit          3D

 45 47  0  0  0  0  0  0  0  0999 V2000
   57.0140   31.0490   42.8220 C   0  0  0  0  0  0  0  0  0  0  0  0
   56.3560   29.6710   42.9500 C   0  0  0  0  0  0  0  0  0  0  0  0
   57.3380   28.6050   43.2110 N   0  0  0  0  0  0  0  0  0  0  0  0
   58.0160   28.8040   44.4700 C   0  0  0  0  0  0  0  0  0  0  0  0
   57.4270   28.3820   45.6740 C   0  0  0  0  0  0  0  0  0  0  0  0
   58.0910   28.5630   46.8890 C   0  0  0  0  0  0  0  0  0  0  0  0
   59.3520   29.1800   46.9250 C   0  0  0  0  0  0  0  0  0  0  0  0
   60.0570   29.3870   48.2130 C   0  0  0  0  0  0  0  0  0  0  0  0
   60.4460   28.2630   48.9630 C   0  0  0  0  0  0  0  0  0  0  0  0
   61.0800   28.4160   50.1980 C   0  0  0  0  0  0  0  0  0  0  0  0
   61.4430   27.3210   50.9100 F   0  0  0  0  0  0  0  0  0  0  0  0
   61.3330   29.6930   50.7010 C   0  0  0  0  0  0  0  0  0  0  0  0
   61.9460   29.8410   51.9030 F   0  0  0  0  0  0  0  0  0  0  0  0
   60.9630   30.8210   49.9660 C   0  0  0  0  0  0  0  0  0  0  0  0
   60.3370   30.6840   48.7170 C   0  0  0  0  0  0  0  0  0  0  0  0
   60.0160   31.9090   47.9500 C   0  0  0  0  0  0  0  0  0  0  0  0
   58.6770   32.3180   47.8500 C   0  0  0  0  0  0  0  0  0  0  0  0
   58.3390   33.4570   47.1140 C   0  0  0  0  0  0  0  0  0  0  0  0
   59.3350   34.2030   46.4820 C   0  0  0  0  0  0  0  0  0  0  0  0
   60.6730   33.8170   46.5910 C   0  0  0  0  0  0  0  0  0  0  0  0
   61.0250   32.6800   47.3290 C   0  0  0  0  0  0  0  0  0  0  0  0
   62.7690   32.2580   47.4830 S   0  0  0  0  0  0  0  0  0  0  0  0
   63.3380   33.8200   46.7430 C   0  0  0  0  0  0  0  0  0  0  0  0
   59.9500   29.5870   45.7210 C   0  0  0  0  0  0  0  0  0  0  0  0
   59.2870   29.4050   44.5050 C   0  0  0  0  0  0  0  0  0  0  0  0
   57.2088   31.4569   43.8248 H   0  0  0  0  0  0  0  0  0  0  0  0
   57.9633   30.9526   42.2746 H   0  0  0  0  0  0  0  0  0  0  0  0
   56.3423   31.7266   42.2746 H   0  0  0  0  0  0  0  0  0  0  0  0
   55.6351   29.6990   43.7804 H   0  0  0  0  0  0  0  0  0  0  0  0
   55.8597   29.4449   41.9947 H   0  0  0  0  0  0  0  0  0  0  0  0
   58.0250   28.5510   42.4230 H   0  0  0  0  0  0  0  0  0  0  0  0
   56.8340   27.6890   43.2410 H   0  0  0  0  0  0  0  0  0  0  0  0
   56.4356   27.9056   45.6593 H   0  0  0  0  0  0  0  0  0  0  0  0
   57.6234   28.2201   47.8238 H   0  0  0  0  0  0  0  0  0  0  0  0
   60.2491   27.2534   48.5732 H   0  0  0  0  0  0  0  0  0  0  0  0
   61.1636   31.8248   50.3688 H   0  0  0  0  0  0  0  0  0  0  0  0
   57.8892   31.7387   48.3538 H   0  0  0  0  0  0  0  0  0  0  0  0
   57.2864   33.7660   47.0327 H   0  0  0  0  0  0  0  0  0  0  0  0
   59.0662   35.0954   45.8977 H   0  0  0  0  0  0  0  0  0  0  0  0
   61.4551   34.4098   46.0941 H   0  0  0  0  0  0  0  0  0  0  0  0
   63.5970   34.5310   47.5414 H   0  0  0  0  0  0  0  0  0  0  0  0
   64.2244   33.6292   46.1202 H   0  0  0  0  0  0  0  0  0  0  0  0
   62.5366   34.2440   46.1202 H   0  0  0  0  0  0  0  0  0  0  0  0
   60.9468   30.0520   45.7357 H   0  0  0  0  0  0  0  0  0  0  0  0
   59.7620   29.7338   43.5689 H   0  0  0  0  0  0  0  0  0  0  0  0
  1  2  1  0
  2  3  1  0
  3  4  1  0
  4  5  2  0
  5  6  1  0
  6  7  2  0
  7  8  1  0
  8  9  2  0
  9 10  1  0
 10 11  1  0
 10 12  2  0
 12 13  1  0
 12 14  1  0
 14 15  2  0
 15 16  1  0
 16 17  2  0
 17 18  1  0
 18 19  2  0
 19 20  1  0
 20 21  2  0
 21 22  1  0
 22 23  1  0
  7 24  1  0
 24 25  2  0
 25  4  1  0
 15  8  1  0
 21 16  1  0
  1 26  1  0
  1 27  1  0
  1 28  1  0
  2 29  1  0
  2 30  1  0
  3 31  1  0
  3 32  1  0
  5 33  1  0
  6 34  1  0
  9 35  1  0
 14 36  1  0
 17 37  1  0
 18 38  1  0
 19 39  1  0
 20 40  1  0
 23 41  1  0
 23 42  1  0
 23 43  1  0
 24 44  1  0
 25 45  1  0
M  CHG  1   3   1
M  END
>  <UniqueID>  (40) 
38

>  <SMILES>  (40) 
CC[NH2+]c1ccc(-c2cc(F)c(F)cc2-c2ccccc2SC)cc1

>  <Energy>  (40) 
55.22192976328078

>  <Genealogy>  (40) 
CC[NH2+]c1ccc(-c2cc(F)c(F)cc2-c2ccccc2SC)cc1 (protonated)
CC[NH2+]c1ccc(-c2cc(F)c(F)cc2-c2ccccc2SC)cc1 (3D coordinates assigned)
CC[NH2+]c1ccc(-c2cc(F)c(F)cc2-c2ccccc2SC)cc1 (optimized conformer: 55.22192976328078 kcal/mol)

>  <smiles>  (40) 
CCNc1ccc(-c2cc(F)c(F)cc2-c2ccccc2SC)cc1

>  <score_type>  (40) 
oracle

>  <origin>  (40) 
adg

>  <m_score__min__energy>  (40) 
-6.2699999999999996

>  <m_primary>  (40) 
energy

$$$$
40:0
     RDKit          3D

 68 70  0  0  0  0  0  0  0  0999 V2000
   53.0210   22.5630   46.1210 C   0  0  0  0  0  0  0  0  0  0  0  0
   53.9490   22.6010   45.0400 O   0  0  0  0  0  0  0  0  0  0  0  0
   54.9920   23.5330   44.9200 C   0  0  0  0  0  0  0  0  0  0  0  0
   55.0530   24.6900   45.7180 C   0  0  0  0  0  0  0  0  0  0  0  0
   56.1190   25.5810   45.5880 C   0  0  0  0  0  0  0  0  0  0  0  0
   57.1370   25.3390   44.6560 C   0  0  0  0  0  0  0  0  0  0  0  0
   58.3340   26.2550   44.5860 C   0  0  0  0  0  0  0  0  0  0  0  0
   58.1490   27.3520   43.5240 C   0  0  0  0  0  0  0  0  0  0  0  0
   57.2330   28.4130   43.9840 N   0  0  0  0  0  0  0  0  0  0  0  0
   57.7810   29.7620   43.7580 C   0  0  0  0  0  0  0  0  0  0  0  0
   57.9000   30.5480   45.0470 C   0  0  0  0  0  0  0  0  0  0  0  0
   58.2440   30.0400   46.2970 C   0  0  0  0  0  0  0  0  0  0  0  0
   58.4200   28.6200   46.6680 C   0  0  0  0  0  0  0  0  0  0  0  0
   59.7710   28.0600   46.9840 C   0  0  0  0  0  0  0  0  0  0  0  0
   57.4130   27.8670   46.7400 O   0  0  0  0  0  0  0  0  0  0  0  0
   58.5250   31.1340   47.1050 C   0  0  0  0  0  0  0  0  0  0  0  0
   58.9680   31.0530   48.5420 C   0  0  0  0  0  0  0  0  0  0  0  0
   58.3860   32.2840   46.3990 N   0  0  0  0  0  0  0  0  0  0  0  0
   58.7880   33.6350   46.8250 C   0  0  0  0  0  0  0  0  0  0  0  0
   60.1930   33.6140   47.3750 C   0  0  0  0  0  0  0  0  0  0  0  0
   60.4590   34.1470   48.6450 C   0  0  0  0  0  0  0  0  0  0  0  0
   61.7490   34.0990   49.1790 C   0  0  0  0  0  0  0  0  0  0  0  0
   62.7900   33.5210   48.4440 C   0  0  0  0  0  0  0  0  0  0  0  0
   64.4470   33.4730   49.1240 S   0  0  0  0  0  0  0  0  0  0  0  0
   64.1620   31.9060   50.0100 C   0  0  0  0  0  0  0  0  0  0  0  0
   62.5320   32.9800   47.1790 C   0  0  0  0  0  0  0  0  0  0  0  0
   61.2420   33.0300   46.6440 C   0  0  0  0  0  0  0  0  0  0  0  0
   57.9740   31.9320   45.1550 C   0  0  0  0  0  0  0  0  0  0  0  0
   57.7810   32.8970   44.0170 C   0  0  0  0  0  0  0  0  0  0  0  0
   57.0740   24.1940   43.8490 C   0  0  0  0  0  0  0  0  0  0  0  0
   56.0020   23.2870   43.9770 C   0  0  0  0  0  0  0  0  0  0  0  0
   55.9110   22.1230   43.1960 O   0  0  0  0  0  0  0  0  0  0  0  0
   56.9660   21.1820   43.0250 C   0  0  0  0  0  0  0  0  0  0  0  0
   53.5682   22.5854   47.0750 H   0  0  0  0  0  0  0  0  0  0  0  0
   52.3525   23.4345   46.0612 H   0  0  0  0  0  0  0  0  0  0  0  0
   52.4260   21.6397   46.0612 H   0  0  0  0  0  0  0  0  0  0  0  0
   54.2560   24.8934   46.4484 H   0  0  0  0  0  0  0  0  0  0  0  0
   56.1605   26.4794   46.2214 H   0  0  0  0  0  0  0  0  0  0  0  0
   58.4775   26.7298   45.5678 H   0  0  0  0  0  0  0  0  0  0  0  0
   59.2112   25.6525   44.3077 H   0  0  0  0  0  0  0  0  0  0  0  0
   59.1286   27.7998   43.3007 H   0  0  0  0  0  0  0  0  0  0  0  0
   57.7116   26.8886   42.6273 H   0  0  0  0  0  0  0  0  0  0  0  0
   56.3310   28.3350   43.4570 H   0  0  0  0  0  0  0  0  0  0  0  0
   57.0260   28.2970   45.0000 H   0  0  0  0  0  0  0  0  0  0  0  0
   58.7791   29.6688   43.3052 H   0  0  0  0  0  0  0  0  0  0  0  0
   57.0916   30.3022   43.0924 H   0  0  0  0  0  0  0  0  0  0  0  0
   59.8997   28.0066   48.0751 H   0  0  0  0  0  0  0  0  0  0  0  0
   59.8593   27.0511   46.5546 H   0  0  0  0  0  0  0  0  0  0  0  0
   60.5472   28.7105   46.5546 H   0  0  0  0  0  0  0  0  0  0  0  0
   58.1024   31.2113   49.2020 H   0  0  0  0  0  0  0  0  0  0  0  0
   59.4011   30.0608   48.7368 H   0  0  0  0  0  0  0  0  0  0  0  0
   59.7242   31.8278   48.7368 H   0  0  0  0  0  0  0  0  0  0  0  0
   58.7464   34.3152   45.9615 H   0  0  0  0  0  0  0  0  0  0  0  0
   58.1010   33.9817   47.6111 H   0  0  0  0  0  0  0  0  0  0  0  0
   59.6452   34.6065   49.2251 H   0  0  0  0  0  0  0  0  0  0  0  0
   61.9465   34.5157   50.1777 H   0  0  0  0  0  0  0  0  0  0  0  0
   64.1949   32.0868   51.0945 H   0  0  0  0  0  0  0  0  0  0  0  0
   63.1759   31.5034   49.7351 H   0  0  0  0  0  0  0  0  0  0  0  0
   64.9432   31.1820   49.7351 H   0  0  0  0  0  0  0  0  0  0  0  0
   63.3466   32.5144   46.6048 H   0  0  0  0  0  0  0  0  0  0  0  0
   61.0466   32.6104   45.6461 H   0  0  0  0  0  0  0  0  0  0  0  0
   57.5801   33.9014   44.4180 H   0  0  0  0  0  0  0  0  0  0  0  0
   58.6916   32.9237   43.4005 H   0  0  0  0  0  0  0  0  0  0  0  0
   56.9302   32.5714   43.4005 H   0  0  0  0  0  0  0  0  0  0  0  0
   57.8666   24.0020   43.1108 H   0  0  0  0  0  0  0  0  0  0  0  0
   57.3306   20.8568   44.0106 H   0  0  0  0  0  0  0  0  0  0  0  0
   56.5933   20.3109   42.4662 H   0  0  0  0  0  0  0  0  0  0  0  0
   57.7890   21.6514   42.4662 H   0  0  0  0  0  0  0  0  0  0  0  0
  1  2  1  0
  2  3  1  0
  3  4  2  0
  4  5  1  0
  5  6  2  0
  6  7  1  0
  7  8  1  0
  8  9  1  0
  9 10  1  0
 10 11  1  0
 11 12  1  0
 12 13  1  0
 13 14  1  0
 13 15  2  0
 12 16  2  0
 16 17  1  0
 16 18  1  0
 18 19  1  0
 19 20  1  0
 20 21  2  0
 21 22  1  0
 22 23  2  0
 23 24  1  0
 24 25  1  0
 23 26  1  0
 26 27  2  0
 18 28  1  0
 28 29  1  0
  6 30  1  0
 30 31  2  0
 31 32  1  0
 32 33  1  0
 31  3  1  0
 28 11  2  0
 27 20  1  0
  1 34  1  0
  1 35  1  0
  1 36  1  0
  4 37  1  0
  5 38  1  0
  7 39  1  0
  7 40  1  0
  8 41  1  0
  8 42  1  0
  9 43  1  0
  9 44  1  0
 10 45  1  0
 10 46  1  0
 14 47  1  0
 14 48  1  0
 14 49  1  0
 17 50  1  0
 17 51  1  0
 17 52  1  0
 19 53  1  0
 19 54  1  0
 21 55  1  0
 22 56  1  0
 25 57  1  0
 25 58  1  0
 25 59  1  0
 26 60  1  0
 27 61  1  0
 29 62  1  0
 29 63  1  0
 29 64  1  0
 30 65  1  0
 33 66  1  0
 33 67  1  0
 33 68  1  0
M  CHG  1   9   1
M  END
>  <UniqueID>  (41) 
39

>  <SMILES>  (41) 
COc1ccc(CC[NH2+]Cc2c(C(C)=O)c(C)n(Cc3ccc(SC)cc3)c2C)cc1OC

>  <Energy>  (41) 
85.26259708683006

>  <Genealogy>  (41) 
COc1ccc(CC[NH2+]Cc2c(C(C)=O)c(C)n(Cc3ccc(SC)cc3)c2C)cc1OC (protonated)
COc1ccc(CC[NH2+]Cc2c(C(C)=O)c(C)n(Cc3ccc(SC)cc3)c2C)cc1OC (3D coordinates assigned)
COc1ccc(CC[NH2+]Cc2c(C(C)=O)c(C)n(Cc3ccc(SC)cc3)c2C)cc1OC (optimized conformer: 85.26259708683006 kcal/mol)

>  <smiles>  (41) 
COc1ccc(CCNCc2c(C(C)=O)c(C)n(Cc3ccc(SC)cc3)c2C)cc1OC

>  <score_type>  (41) 
oracle

>  <origin>  (41) 
adg

>  <m_score__min__energy>  (41) 
-8.4900000000000002

>  <m_primary>  (41) 
energy

$$$$
41:0
     RDKit          3D

 47 49  0  0  0  0  0  0  0  0999 V2000
   60.4249   27.6322   46.7538 H   0  0  0  0  0  0  0  0  0  0  0  0
   59.9460   28.6220   46.7240 C   0  0  0  0  0  0  0  0  0  0  0  0
   58.7540   28.7890   46.0820 N   0  0  0  0  0  0  0  0  0  0  0  0
   58.1110   29.9910   46.0070 C   0  0  0  0  0  0  0  0  0  0  0  0
   56.9770   30.0190   45.3590 N   0  0  0  0  0  0  0  0  0  0  0  0
   56.6120   30.5850   44.0640 C   0  0  0  0  0  0  0  0  0  0  0  0
   55.5206   30.7154   44.0219 H   0  0  0  0  0  0  0  0  0  0  0  0
   56.9460   29.8986   43.2720 H   0  0  0  0  0  0  0  0  0  0  0  0
   57.2910   31.9480   43.8540 C   0  0  0  0  0  0  0  0  0  0  0  0
   57.9271   32.1632   44.7252 H   0  0  0  0  0  0  0  0  0  0  0  0
   56.4985   32.7016   43.7359 H   0  0  0  0  0  0  0  0  0  0  0  0
   58.1610   31.9830   42.5880 C   0  0  0  0  0  0  0  0  0  0  0  0
   58.5684   30.9764   42.4127 H   0  0  0  0  0  0  0  0  0  0  0  0
   58.9597   32.7211   42.7531 H   0  0  0  0  0  0  0  0  0  0  0  0
   57.3790   32.4170   41.3490 C   0  0  0  0  0  0  0  0  0  0  0  0
   56.4561   32.9292   41.6587 H   0  0  0  0  0  0  0  0  0  0  0  0
   57.9948   33.1024   40.7482 H   0  0  0  0  0  0  0  0  0  0  0  0
   57.1231   31.5318   40.7482 H   0  0  0  0  0  0  0  0  0  0  0  0
   58.7430   31.0980   46.6380 C   0  0  0  0  0  0  0  0  0  0  0  0
   59.9170   30.9090   47.2790 N   0  0  0  0  0  0  0  0  0  0  0  0
   60.5530   29.7140   47.3420 C   0  0  0  0  0  0  0  0  0  0  0  0
   61.5159   29.6093   47.8633 H   0  0  0  0  0  0  0  0  0  0  0  0
   60.2900   32.1060   47.7700 C   0  0  0  0  0  0  0  0  0  0  0  0
   61.5170   32.3690   48.5460 C   0  0  0  0  0  0  0  0  0  0  0  0
   61.6480   31.8210   49.8310 C   0  0  0  0  0  0  0  0  0  0  0  0
   60.8393   31.2020   50.2466 H   0  0  0  0  0  0  0  0  0  0  0  0
   62.7990   32.0570   50.5850 C   0  0  0  0  0  0  0  0  0  0  0  0
   62.8939   31.6243   51.5919 H   0  0  0  0  0  0  0  0  0  0  0  0
   63.8310   32.8420   50.0630 C   0  0  0  0  0  0  0  0  0  0  0  0
   65.2760   33.1370   51.0120 Cl  0  0  0  0  0  0  0  0  0  0  0  0
   63.7120   33.3880   48.7810 C   0  0  0  0  0  0  0  0  0  0  0  0
   64.5260   34.0035   48.3704 H   0  0  0  0  0  0  0  0  0  0  0  0
   62.5620   33.1550   48.0180 C   0  0  0  0  0  0  0  0  0  0  0  0
   62.4780   33.8220   46.3910 Cl  0  0  0  0  0  0  0  0  0  0  0  0
   59.3160   33.0250   47.4110 C   0  0  0  0  0  0  0  0  0  0  0  0
   59.2930   34.4910   47.7310 C   0  0  0  0  0  0  0  0  0  0  0  0
   58.2878   34.7694   48.0803 H   0  0  0  0  0  0  0  0  0  0  0  0
   60.0374   34.6954   48.5147 H   0  0  0  0  0  0  0  0  0  0  0  0
   59.6420   35.3180   46.4890 C   0  0  0  0  0  0  0  0  0  0  0  0
   59.3604   36.3667   46.6648 H   0  0  0  0  0  0  0  0  0  0  0  0
   60.7233   35.2339   46.3055 H   0  0  0  0  0  0  0  0  0  0  0  0
   58.9000   34.8020   45.2600 C   0  0  0  0  0  0  0  0  0  0  0  0
   58.0357   34.2010   45.5790 H   0  0  0  0  0  0  0  0  0  0  0  0
   58.5518   35.6539   44.6574 H   0  0  0  0  0  0  0  0  0  0  0  0
   59.5774   34.1791   44.6574 H   0  0  0  0  0  0  0  0  0  0  0  0
   58.3520   32.3940   46.7030 N   0  0  0  0  0  0  0  0  0  0  0  0
   57.5120   32.8690   46.3220 H   0  0  0  0  0  0  0  0  0  0  0  0
  1  2  1  0
  2  3  1  0
  3  4  1  0
  4  5  2  0
  5  6  1  0
  6  7  1  0
  6  8  1  0
  6  9  1  0
  9 10  1  0
  9 11  1  0
  9 12  1  0
 12 13  1  0
 12 14  1  0
 12 15  1  0
 15 16  1  0
 15 17  1  0
 15 18  1  0
  4 19  1  0
 19 20  1  0
 20 21  1  0
 21 22  1  0
 20 23  1  0
 23 24  1  0
 24 25  2  0
 25 26  1  0
 25 27  1  0
 27 28  1  0
 27 29  2  0
 29 30  1  0
 29 31  1  0
 31 32  1  0
 31 33  2  0
 33 34  1  0
 23 35  2  0
 35 36  1  0
 36 37  1  0
 36 38  1  0
 36 39  1  0
 39 40  1  0
 39 41  1  0
 39 42  1  0
 42 43  1  0
 42 44  1  0
 42 45  1  0
 35 46  1  0
 46 47  1  0
 21  2  2  0
 33 24  1  0
 46 19  2  0
M  CHG  2   3  -1  46   1
M  END
>  <UniqueID>  (42) 
40

>  <SMILES>  (42) 
CCCC/N=c1/[n-]ccn2c(-c3ccc(Cl)cc3Cl)c(CCC)[nH+]c12

>  <Energy>  (42) 
90.65914331250592

>  <Genealogy>  (42) 
CCCCN=c1[n-]ccn2c(-c3ccc(Cl)cc3Cl)c(CCC)[nH+]c12 (protonated)
CCCC/N=c1/[n-]ccn2c(-c3ccc(Cl)cc3Cl)c(CCC)[nH+]c12 (cis-trans isomerization)
CCCC/N=c1/[n-]ccn2c(-c3ccc(Cl)cc3Cl)c(CCC)[nH+]c12 (3D coordinates assigned)
CCCC/N=c1/[n-]ccn2c(-c3ccc(Cl)cc3Cl)c(CCC)[nH+]c12 (optimized conformer: 90.65914331250592 kcal/mol)

>  <smiles>  (42) 
CCCCN=c1[nH]ccn2c(-c3ccc(Cl)cc3Cl)c(CCC)nc12

>  <score_type>  (42) 
oracle

>  <origin>  (42) 
adg

>  <m_score__min__energy>  (42) 
-8.2300000000000004

>  <m_primary>  (42) 
energy

$$$$
42:0
     RDKit          3D

 40 42  0  0  0  0  0  0  0  0999 V2000
   56.6700   23.5330   48.2600 C   0  0  0  0  0  0  0  0  0  0  0  0
   57.6290   23.9830   47.3080 O   0  0  0  0  0  0  0  0  0  0  0  0
   57.6290   25.2590   46.7220 C   0  0  0  0  0  0  0  0  0  0  0  0
   58.8000   26.0340   46.6190 C   0  0  0  0  0  0  0  0  0  0  0  0
   58.7610   27.2980   46.0290 C   0  0  0  0  0  0  0  0  0  0  0  0
   57.5550   27.8170   45.5320 C   0  0  0  0  0  0  0  0  0  0  0  0
   57.5160   29.1640   44.9070 C   0  0  0  0  0  0  0  0  0  0  0  0
   56.9620   29.3390   43.6260 C   0  0  0  0  0  0  0  0  0  0  0  0
   56.9210   30.6060   43.0420 C   0  0  0  0  0  0  0  0  0  0  0  0
   57.4300   31.7120   43.7230 C   0  0  0  0  0  0  0  0  0  0  0  0
   57.9910   31.5640   45.0040 C   0  0  0  0  0  0  0  0  0  0  0  0
   58.5380   32.7400   45.7270 C   0  0  0  0  0  0  0  0  0  0  0  0
   58.6870   32.7140   47.1270 C   0  0  0  0  0  0  0  0  0  0  0  0
   59.2020   33.8230   47.8050 C   0  0  0  0  0  0  0  0  0  0  0  0
   59.5740   34.9670   47.0960 C   0  0  0  0  0  0  0  0  0  0  0  0
   59.4320   35.0050   45.7070 C   0  0  0  0  0  0  0  0  0  0  0  0
   58.9180   33.8990   45.0240 C   0  0  0  0  0  0  0  0  0  0  0  0
   58.0290   30.2840   45.5880 C   0  0  0  0  0  0  0  0  0  0  0  0
   56.3860   27.0440   45.6360 C   0  0  0  0  0  0  0  0  0  0  0  0
   56.4170   25.7660   46.2280 C   0  0  0  0  0  0  0  0  0  0  0  0
   55.2670   24.9700   46.3440 O   0  0  0  0  0  0  0  0  0  0  0  0
   54.7660   24.1190   45.3170 C   0  0  0  0  0  0  0  0  0  0  0  0
   57.0507   23.7116   49.2765 H   0  0  0  0  0  0  0  0  0  0  0  0
   55.7278   24.0830   48.1194 H   0  0  0  0  0  0  0  0  0  0  0  0
   56.4909   22.4568   48.1194 H   0  0  0  0  0  0  0  0  0  0  0  0
   59.7516   25.6406   47.0060 H   0  0  0  0  0  0  0  0  0  0  0  0
   59.6832   27.8928   45.9527 H   0  0  0  0  0  0  0  0  0  0  0  0
   56.5588   28.4725   43.0814 H   0  0  0  0  0  0  0  0  0  0  0  0
   56.4853   30.7331   42.0400 H   0  0  0  0  0  0  0  0  0  0  0  0
   57.3923   32.7067   43.2548 H   0  0  0  0  0  0  0  0  0  0  0  0
   58.3963   31.8154   47.6909 H   0  0  0  0  0  0  0  0  0  0  0  0
   59.3143   33.7943   48.8989 H   0  0  0  0  0  0  0  0  0  0  0  0
   59.9789   35.8384   47.6314 H   0  0  0  0  0  0  0  0  0  0  0  0
   59.7252   35.9069   45.1496 H   0  0  0  0  0  0  0  0  0  0  0  0
   58.8097   33.9345   43.9299 H   0  0  0  0  0  0  0  0  0  0  0  0
   58.4653   30.1572   46.5898 H   0  0  0  0  0  0  0  0  0  0  0  0
   55.4355   27.4415   45.2506 H   0  0  0  0  0  0  0  0  0  0  0  0
   54.2578   23.2558   45.7715 H   0  0  0  0  0  0  0  0  0  0  0  0
   54.0527   24.6778   44.6933 H   0  0  0  0  0  0  0  0  0  0  0  0
   55.6007   23.7664   44.6933 H   0  0  0  0  0  0  0  0  0  0  0  0
  1  2  1  0
  2  3  1  0
  3  4  2  0
  4  5  1  0
  5  6  2  0
  6  7  1  0
  7  8  2  0
  8  9  1  0
  9 10  2  0
 10 11  1  0
 11 12  1  0
 12 13  2  0
 13 14  1  0
 14 15  2  0
 15 16  1  0
 16 17  2  0
 11 18  2  0
  6 19  1  0
 19 20  2  0
 20 21  1  0
 21 22  1  0
 20  3  1  0
 18  7  1  0
 17 12  1  0
  1 23  1  0
  1 24  1  0
  1 25  1  0
  4 26  1  0
  5 27  1  0
  8 28  1  0
  9 29  1  0
 10 30  1  0
 13 31  1  0
 14 32  1  0
 15 33  1  0
 16 34  1  0
 17 35  1  0
 18 36  1  0
 19 37  1  0
 22 38  1  0
 22 39  1  0
 22 40  1  0
M  END
>  <UniqueID>  (43) 
41

>  <SMILES>  (43) 
COc1ccc(-c2cccc(-c3ccccc3)c2)cc1OC

>  <Energy>  (43) 
52.14997422799056

>  <Genealogy>  (43) 
COc1ccc(-c2cccc(-c3ccccc3)c2)cc1OC (3D coordinates assigned)
COc1ccc(-c2cccc(-c3ccccc3)c2)cc1OC (optimized conformer: 52.14997422799056 kcal/mol)

>  <smiles>  (43) 
COc1ccc(-c2cccc(-c3ccccc3)c2)cc1OC

>  <score_type>  (43) 
oracle

>  <origin>  (43) 
adg

>  <m_score__min__energy>  (43) 
-7.7400000000000002

>  <m_primary>  (43) 
energy

$$$$
43:0
     RDKit          3D

 34 35  0  0  0  0  0  0  0  0999 V2000
   64.8370   32.7660   49.5470 C   0  0  0  0  0  0  0  0  0  0  0  0
   63.7530   31.9930   48.7960 C   0  0  0  0  0  0  0  0  0  0  0  0
   63.7470   32.3540   47.3690 N   0  0  0  0  0  0  0  0  0  0  0  0
   63.1000   33.6560   47.1170 C   0  0  0  0  0  0  0  0  0  0  0  0
   61.8110   33.8790   47.9330 C   0  0  0  0  0  0  0  0  0  0  0  0
   60.5910   33.9160   47.0640 C   0  0  0  0  0  0  0  0  0  0  0  0
   60.0850   32.8530   46.3270 C   0  0  0  0  0  0  0  0  0  0  0  0
   58.9630   33.1960   45.5500 C   0  0  0  0  0  0  0  0  0  0  0  0
   58.2470   32.2340   44.6730 C   0  0  0  0  0  0  0  0  0  0  0  0
   58.0760   32.5030   43.3010 C   0  0  0  0  0  0  0  0  0  0  0  0
   57.4030   31.5950   42.4780 C   0  0  0  0  0  0  0  0  0  0  0  0
   56.8910   30.4110   43.0120 C   0  0  0  0  0  0  0  0  0  0  0  0
   56.2380   29.5320   42.2130 F   0  0  0  0  0  0  0  0  0  0  0  0
   57.0520   30.1320   44.3710 C   0  0  0  0  0  0  0  0  0  0  0  0
   57.7260   31.0360   45.1990 C   0  0  0  0  0  0  0  0  0  0  0  0
   58.6010   34.5380   45.6800 C   0  0  0  0  0  0  0  0  0  0  0  0
   59.6670   35.2820   46.7470 S   0  0  0  0  0  0  0  0  0  0  0  0
   64.6822   32.6556   50.6304 H   0  0  0  0  0  0  0  0  0  0  0  0
   65.8259   32.3681   49.2755 H   0  0  0  0  0  0  0  0  0  0  0  0
   64.7830   33.8306   49.2755 H   0  0  0  0  0  0  0  0  0  0  0  0
   63.9455   30.9144   48.8943 H   0  0  0  0  0  0  0  0  0  0  0  0
   62.7743   32.2483   49.2284 H   0  0  0  0  0  0  0  0  0  0  0  0
   64.7370   32.4280   47.0370 H   0  0  0  0  0  0  0  0  0  0  0  0
   63.2820   31.6010   46.8100 H   0  0  0  0  0  0  0  0  0  0  0  0
   63.8140   34.4531   47.3718 H   0  0  0  0  0  0  0  0  0  0  0  0
   62.8134   33.6709   46.0551 H   0  0  0  0  0  0  0  0  0  0  0  0
   61.7046   33.0590   48.6585 H   0  0  0  0  0  0  0  0  0  0  0  0
   61.8953   34.8522   48.4387 H   0  0  0  0  0  0  0  0  0  0  0  0
   60.5187   31.8423   46.3486 H   0  0  0  0  0  0  0  0  0  0  0  0
   58.4751   33.4347   42.8737 H   0  0  0  0  0  0  0  0  0  0  0  0
   57.2766   31.8139   41.4074 H   0  0  0  0  0  0  0  0  0  0  0  0
   56.6479   29.1992   44.7913 H   0  0  0  0  0  0  0  0  0  0  0  0
   57.8499   30.8095   46.2683 H   0  0  0  0  0  0  0  0  0  0  0  0
   57.7585   35.0274   45.1694 H   0  0  0  0  0  0  0  0  0  0  0  0
  1  2  1  0
  2  3  1  0
  3  4  1  0
  4  5  1  0
  5  6  1  0
  6  7  2  0
  7  8  1  0
  8  9  1  0
  9 10  2  0
 10 11  1  0
 11 12  2  0
 12 13  1  0
 12 14  1  0
 14 15  2  0
  8 16  2  0
 16 17  1  0
 17  6  1  0
 15  9  1  0
  1 18  1  0
  1 19  1  0
  1 20  1  0
  2 21  1  0
  2 22  1  0
  3 23  1  0
  3 24  1  0
  4 25  1  0
  4 26  1  0
  5 27  1  0
  5 28  1  0
  7 29  1  0
 10 30  1  0
 11 31  1  0
 14 32  1  0
 15 33  1  0
 16 34  1  0
M  CHG  1   3   1
M  END
>  <UniqueID>  (44) 
42

>  <SMILES>  (44) 
CC[NH2+]CCc1cc(-c2ccc(F)cc2)cs1

>  <Energy>  (44) 
58.15968320835024

>  <Genealogy>  (44) 
CC[NH2+]CCc1cc(-c2ccc(F)cc2)cs1 (protonated)
CC[NH2+]CCc1cc(-c2ccc(F)cc2)cs1 (3D coordinates assigned)
CC[NH2+]CCc1cc(-c2ccc(F)cc2)cs1 (optimized conformer: 58.15968320835024 kcal/mol)

>  <smiles>  (44) 
CCNCCc1cc(-c2ccc(F)cc2)cs1

>  <score_type>  (44) 
oracle

>  <origin>  (44) 
adg

>  <m_score__min__energy>  (44) 
-5.3600000000000003

>  <m_primary>  (44) 
energy

$$$$
44:0
     RDKit          3D

 38 40  0  0  0  0  0  0  0  0999 V2000
   57.7870   33.4810   44.5100 C   0  0  0  0  0  0  0  0  0  0  0  0
   57.7640   32.0470   43.9930 C   0  0  0  0  0  0  0  0  0  0  0  0
   57.0220   31.2030   44.8740 O   0  0  0  0  0  0  0  0  0  0  0  0
   57.5430   30.1290   45.6170 C   0  0  0  0  0  0  0  0  0  0  0  0
   57.1120   28.8010   45.4290 C   0  0  0  0  0  0  0  0  0  0  0  0
   57.6570   27.7560   46.1920 C   0  0  0  0  0  0  0  0  0  0  0  0
   57.2190   26.3990   45.9970 N   0  0  0  0  0  0  0  0  0  0  0  0
   55.9440   25.9360   45.9030 C   0  0  0  0  0  0  0  0  0  0  0  0
   54.7960   26.7160   46.0000 O   0  0  0  0  0  0  0  0  0  0  0  0
   55.9850   24.5820   45.6580 C   0  0  0  0  0  0  0  0  0  0  0  0
   57.2410   24.2020   45.5830 N   0  0  0  0  0  0  0  0  0  0  0  0
   57.9890   25.3060   45.7540 C   0  0  0  0  0  0  0  0  0  0  0  0
   59.2400   25.3320   45.6170 O   0  0  0  0  0  0  0  0  0  0  0  0
   57.4220   22.9190   44.9510 C   0  0  0  0  0  0  0  0  0  0  0  0
   55.9670   22.4290   44.7270 C   0  0  0  0  0  0  0  0  0  0  0  0
   55.0240   23.5980   45.1310 C   0  0  0  0  0  0  0  0  0  0  0  0
   58.6430   28.0470   47.1460 C   0  0  0  0  0  0  0  0  0  0  0  0
   59.0710   29.3600   47.3430 C   0  0  0  0  0  0  0  0  0  0  0  0
   58.5230   30.4100   46.5820 C   0  0  0  0  0  0  0  0  0  0  0  0
   58.9290   31.7440   46.7530 O   0  0  0  0  0  0  0  0  0  0  0  0
   58.5280   32.5760   47.8380 C   0  0  0  0  0  0  0  0  0  0  0  0
   57.7869   33.4742   45.6100 H   0  0  0  0  0  0  0  0  0  0  0  0
   58.6934   33.9873   44.1465 H   0  0  0  0  0  0  0  0  0  0  0  0
   56.8973   34.0161   44.1465 H   0  0  0  0  0  0  0  0  0  0  0  0
   57.2961   32.0298   42.9976 H   0  0  0  0  0  0  0  0  0  0  0  0
   58.7979   31.6757   43.9361 H   0  0  0  0  0  0  0  0  0  0  0  0
   56.3405   28.5805   44.6766 H   0  0  0  0  0  0  0  0  0  0  0  0
   57.9558   23.0216   43.9947 H   0  0  0  0  0  0  0  0  0  0  0  0
   58.0254   22.2223   45.5515 H   0  0  0  0  0  0  0  0  0  0  0  0
   55.8148   22.1697   43.6689 H   0  0  0  0  0  0  0  0  0  0  0  0
   55.7588   21.5319   45.3286 H   0  0  0  0  0  0  0  0  0  0  0  0
   54.4796   23.9941   44.2611 H   0  0  0  0  0  0  0  0  0  0  0  0
   54.2370   23.3131   45.8448 H   0  0  0  0  0  0  0  0  0  0  0  0
   59.0820   27.2341   47.7431 H   0  0  0  0  0  0  0  0  0  0  0  0
   59.8415   29.5763   48.0977 H   0  0  0  0  0  0  0  0  0  0  0  0
   58.7677   32.0787   48.7894 H   0  0  0  0  0  0  0  0  0  0  0  0
   59.0624   33.5358   47.7811 H   0  0  0  0  0  0  0  0  0  0  0  0
   57.4443   32.7559   47.7811 H   0  0  0  0  0  0  0  0  0  0  0  0
  1  2  1  0
  2  3  1  0
  3  4  1  0
  4  5  2  0
  5  6  1  0
  6  7  1  0
  7  8  1  0
  8  9  1  0
  8 10  2  0
 10 11  1  0
 11 12  1  0
 12 13  2  0
 11 14  1  0
 14 15  1  0
 15 16  1  0
  6 17  2  0
 17 18  1  0
 18 19  2  0
 19 20  1  0
 20 21  1  0
 19  4  1  0
 12  7  1  0
 16 10  1  0
  1 22  1  0
  1 23  1  0
  1 24  1  0
  2 25  1  0
  2 26  1  0
  5 27  1  0
 14 28  1  0
 14 29  1  0
 15 30  1  0
 15 31  1  0
 16 32  1  0
 16 33  1  0
 17 34  1  0
 18 35  1  0
 21 36  1  0
 21 37  1  0
 21 38  1  0
M  CHG  1   9  -1
M  END
>  <UniqueID>  (45) 
43

>  <SMILES>  (45) 
CCOc1cc(-n2c([O-])c3n(c2=O)CCC3)ccc1OC

>  <Energy>  (45) 
98.3230572902888

>  <Genealogy>  (45) 
CCOc1cc(-n2c([O-])c3n(c2=O)CCC3)ccc1OC (protonated)
CCOc1cc(-n2c([O-])c3n(c2=O)CCC3)ccc1OC (3D coordinates assigned)
CCOc1cc(-n2c([O-])c3n(c2=O)CCC3)ccc1OC (nonaromatic ring conformer: 98.3230572902888 kcal/mol)

>  <smiles>  (45) 
CCOc1cc(-n2c(O)c3n(c2=O)CCC3)ccc1OC

>  <score_type>  (45) 
oracle

>  <origin>  (45) 
adg

>  <m_score__min__energy>  (45) 
-9.7300000000000004

>  <m_primary>  (45) 
energy

$$$$
45:0
     RDKit          3D

 41 42  0  0  0  0  0  0  0  0999 V2000
   57.6900   34.1930   44.8990 C   0  0  0  0  0  0  0  0  0  0  0  0
   59.1490   34.3720   45.3150 C   0  0  0  0  0  0  0  0  0  0  0  0
   59.4250   33.7430   46.6280 N   0  0  0  0  0  0  0  0  0  0  0  0
   58.2110   33.2870   47.3480 C   0  0  0  0  0  0  0  0  0  0  0  0
   58.5020   32.4760   48.6190 C   0  0  0  0  0  0  0  0  0  0  0  0
   60.2960   34.5910   47.4720 C   0  0  0  0  0  0  0  0  0  0  0  0
   61.4630   33.7800   48.0460 C   0  0  0  0  0  0  0  0  0  0  0  0
   61.9360   32.7850   47.0680 N   0  0  0  0  0  0  0  0  0  0  0  0
   61.8880   31.4050   47.5790 C   0  0  0  0  0  0  0  0  0  0  0  0
   60.7680   30.6140   46.9640 C   0  0  0  0  0  0  0  0  0  0  0  0
   60.4070   29.3200   47.2780 C   0  0  0  0  0  0  0  0  0  0  0  0
   59.3670   29.0070   46.5390 O   0  0  0  0  0  0  0  0  0  0  0  0
   59.0840   30.0550   45.7940 C   0  0  0  0  0  0  0  0  0  0  0  0
   57.9780   30.0970   44.8310 C   0  0  0  0  0  0  0  0  0  0  0  0
   57.8990   30.9330   43.7240 C   0  0  0  0  0  0  0  0  0  0  0  0
   56.7270   30.7540   42.9810 C   0  0  0  0  0  0  0  0  0  0  0  0
   55.8810   29.7800   43.4980 C   0  0  0  0  0  0  0  0  0  0  0  0
   56.5940   29.1430   44.8810 S   0  0  0  0  0  0  0  0  0  0  0  0
   59.9280   31.0810   46.0240 N   0  0  0  0  0  0  0  0  0  0  0  0
   57.0595   34.1156   45.7971 H   0  0  0  0  0  0  0  0  0  0  0  0
   57.3706   35.0587   44.3002 H   0  0  0  0  0  0  0  0  0  0  0  0
   57.5893   33.2758   44.3002 H   0  0  0  0  0  0  0  0  0  0  0  0
   59.7958   33.9094   44.5550 H   0  0  0  0  0  0  0  0  0  0  0  0
   59.3515   35.4497   45.4014 H   0  0  0  0  0  0  0  0  0  0  0  0
   57.6240   34.1733   47.6308 H   0  0  0  0  0  0  0  0  0  0  0  0
   57.6689   32.6185   46.6630 H   0  0  0  0  0  0  0  0  0  0  0  0
   58.2816   33.0903   49.5044 H   0  0  0  0  0  0  0  0  0  0  0  0
   57.8711   31.5750   48.6315 H   0  0  0  0  0  0  0  0  0  0  0  0
   59.5618   32.1817   48.6315 H   0  0  0  0  0  0  0  0  0  0  0  0
   60.6959   35.4147   46.8624 H   0  0  0  0  0  0  0  0  0  0  0  0
   59.6985   34.9846   48.3075 H   0  0  0  0  0  0  0  0  0  0  0  0
   62.2890   34.4624   48.2952 H   0  0  0  0  0  0  0  0  0  0  0  0
   61.1180   33.2533   48.9480 H   0  0  0  0  0  0  0  0  0  0  0  0
   61.3470   32.8450   46.2040 H   0  0  0  0  0  0  0  0  0  0  0  0
   62.8418   30.9079   47.3485 H   0  0  0  0  0  0  0  0  0  0  0  0
   61.7145   31.4511   48.6643 H   0  0  0  0  0  0  0  0  0  0  0  0
   60.9007   28.6683   48.0139 H   0  0  0  0  0  0  0  0  0  0  0  0
   58.6790   31.6618   43.4586 H   0  0  0  0  0  0  0  0  0  0  0  0
   56.4967   31.3302   42.0727 H   0  0  0  0  0  0  0  0  0  0  0  0
   54.9116   29.4778   43.0751 H   0  0  0  0  0  0  0  0  0  0  0  0
   59.9300   32.0250   45.5800 H   0  0  0  0  0  0  0  0  0  0  0  0
  1  2  1  0
  2  3  1  0
  3  4  1  0
  4  5  1  0
  3  6  1  0
  6  7  1  0
  7  8  1  0
  8  9  1  0
  9 10  1  0
 10 11  2  0
 11 12  1  0
 12 13  1  0
 13 14  1  0
 14 15  2  0
 15 16  1  0
 16 17  2  0
 17 18  1  0
 13 19  2  0
 19 10  1  0
 18 14  1  0
  1 20  1  0
  1 21  1  0
  1 22  1  0
  2 23  1  0
  2 24  1  0
  4 25  1  0
  4 26  1  0
  5 27  1  0
  5 28  1  0
  5 29  1  0
  6 30  1  0
  6 31  1  0
  7 32  1  0
  7 33  1  0
  8 34  1  0
  9 35  1  0
  9 36  1  0
 11 37  1  0
 15 38  1  0
 16 39  1  0
 17 40  1  0
 19 41  1  0
M  CHG  1  19   1
M  END
>  <UniqueID>  (46) 
44

>  <SMILES>  (46) 
CCN(CC)CCNCc1coc(-c2cccs2)[nH+]1

>  <Energy>  (46) 
96.19804566394812

>  <Genealogy>  (46) 
CCN(CC)CCNCc1coc(-c2cccs2)[nH+]1 (protonated)
CCN(CC)CCNCc1coc(-c2cccs2)[nH+]1 (3D coordinates assigned)
CCN(CC)CCNCc1coc(-c2cccs2)[nH+]1 (optimized conformer: 96.19804566394812 kcal/mol)

>  <smiles>  (46) 
CCN(CC)CCNCc1coc(-c2cccs2)n1

>  <score_type>  (46) 
oracle

>  <origin>  (46) 
adg

>  <m_score__min__energy>  (46) 
-4.4500000000000002

>  <m_primary>  (46) 
energy

$$$$
