0:0
     RDKit          3D

109114  0  0  0  0  0  0  0  0999 V2000
   64.6700   36.5530   53.5630 C   0  0  0  0  0  0  0  0  0  0  0  0
   63.8140   35.4590   54.2220 C   0  0  0  0  0  0  0  0  0  0  0  0
   63.8210   34.1710   53.4790 N   0  0  0  0  0  0  0  0  0  0  0  0
   64.7190   33.2250   54.1890 C   0  0  0  0  0  0  0  0  0  0  0  0
   64.0720   32.7770   55.4900 C   0  0  0  0  0  0  0  0  0  0  0  0
   64.2260   34.3770   52.0650 C   0  0  0  0  0  0  0  0  0  0  0  0
   63.0810   34.1660   51.0540 C   0  0  0  0  0  0  0  0  0  0  0  0
   62.7590   32.7470   50.8580 N   0  0  0  0  0  0  0  0  0  0  0  0
   63.2950   31.7480   51.7600 C   0  0  0  0  0  0  0  0  0  0  0  0
   64.5520   31.1950   51.4890 C   0  0  0  0  0  0  0  0  0  0  0  0
   65.5490   31.9620   50.8610 C   0  0  0  0  0  0  0  0  0  0  0  0
   66.8090   31.4260   50.6320 C   0  0  0  0  0  0  0  0  0  0  0  0
   67.1050   30.1320   51.0560 C   0  0  0  0  0  0  0  0  0  0  0  0
   66.1260   29.3500   51.6620 C   0  0  0  0  0  0  0  0  0  0  0  0
   64.8130   29.8550   51.8610 C   0  0  0  0  0  0  0  0  0  0  0  0
   63.7910   29.0840   52.3820 N   0  0  0  0  0  0  0  0  0  0  0  0
   63.9080   27.6070   52.4240 C   0  0  0  0  0  0  0  0  0  0  0  0
   62.6640   29.7000   52.8960 C   0  0  0  0  0  0  0  0  0  0  0  0
   61.7010   28.9810   53.6360 C   0  0  0  0  0  0  0  0  0  0  0  0
   60.6140   29.6210   54.2150 C   0  0  0  0  0  0  0  0  0  0  0  0
   60.5060   30.9930   54.1580 C   0  0  0  0  0  0  0  0  0  0  0  0
   61.4190   31.7600   53.4170 C   0  0  0  0  0  0  0  0  0  0  0  0
   61.3770   33.1980   53.5830 N   0  0  0  0  0  0  0  0  0  0  0  0
   59.9940   33.6430   53.8290 C   0  0  0  0  0  0  0  0  0  0  0  0
   59.0640   33.3450   52.6390 C   0  0  0  0  0  0  0  0  0  0  0  0
   59.6080   33.8170   51.2690 C   0  0  0  0  0  0  0  0  0  0  0  0
   59.3960   32.8640   50.0690 C   0  0  0  0  0  0  0  0  0  0  0  0
   59.1370   31.3850   50.4210 C   0  0  0  0  0  0  0  0  0  0  0  0
   60.3460   30.4740   50.1290 C   0  0  0  0  0  0  0  0  0  0  0  0
   60.1060   29.0250   50.5760 C   0  0  0  0  0  0  0  0  0  0  0  0
   60.4550   28.0020   49.4720 C   0  0  0  0  0  0  0  0  0  0  0  0
   59.6350   28.1750   48.1750 C   0  0  0  0  0  0  0  0  0  0  0  0
   60.3080   27.6870   46.8690 C   0  0  0  0  0  0  0  0  0  0  0  0
   60.7490   28.7690   45.9760 N   0  0  0  0  0  0  0  0  0  0  0  0
   60.1190   30.0640   45.9410 C   0  0  0  0  0  0  0  0  0  0  0  0
   58.8780   30.2170   45.3050 C   0  0  0  0  0  0  0  0  0  0  0  0
   58.1690   29.0950   44.8410 C   0  0  0  0  0  0  0  0  0  0  0  0
   56.9070   29.2380   44.2570 C   0  0  0  0  0  0  0  0  0  0  0  0
   56.3420   30.5010   44.1250 C   0  0  0  0  0  0  0  0  0  0  0  0
   57.0300   31.6320   44.5860 C   0  0  0  0  0  0  0  0  0  0  0  0
   58.3220   31.5140   45.1640 C   0  0  0  0  0  0  0  0  0  0  0  0
   59.0320   32.6220   45.6020 N   0  0  0  0  0  0  0  0  0  0  0  0
   58.5640   33.9840   45.2490 C   0  0  0  0  0  0  0  0  0  0  0  0
   60.1600   32.4620   46.3940 C   0  0  0  0  0  0  0  0  0  0  0  0
   60.7730   33.5510   47.0690 C   0  0  0  0  0  0  0  0  0  0  0  0
   61.9340   33.3630   47.8190 C   0  0  0  0  0  0  0  0  0  0  0  0
   62.4970   32.0990   47.9460 C   0  0  0  0  0  0  0  0  0  0  0  0
   61.8920   31.0050   47.3330 C   0  0  0  0  0  0  0  0  0  0  0  0
   60.7280   31.1690   46.5530 C   0  0  0  0  0  0  0  0  0  0  0  0
   62.4560   31.0930   52.6910 C   0  0  0  0  0  0  0  0  0  0  0  0
   65.1481   37.1640   54.3428 H   0  0  0  0  0  0  0  0  0  0  0  0
   65.4445   36.0854   52.9373 H   0  0  0  0  0  0  0  0  0  0  0  0
   64.0298   37.1923   52.9373 H   0  0  0  0  0  0  0  0  0  0  0  0
   64.2007   35.2780   55.2358 H   0  0  0  0  0  0  0  0  0  0  0  0
   62.7756   35.8220   54.2296 H   0  0  0  0  0  0  0  0  0  0  0  0
   64.9023   32.3475   53.5514 H   0  0  0  0  0  0  0  0  0  0  0  0
   65.6718   33.7274   54.4119 H   0  0  0  0  0  0  0  0  0  0  0  0
   64.6455   33.1741   56.3405 H   0  0  0  0  0  0  0  0  0  0  0  0
   63.0399   33.1548   55.5354 H   0  0  0  0  0  0  0  0  0  0  0  0
   64.0625   31.6780   55.5354 H   0  0  0  0  0  0  0  0  0  0  0  0
   64.5989   35.4062   51.9572 H   0  0  0  0  0  0  0  0  0  0  0  0
   64.9963   33.6250   51.8390 H   0  0  0  0  0  0  0  0  0  0  0  0
   62.1837   34.6836   51.4240 H   0  0  0  0  0  0  0  0  0  0  0  0
   63.4108   34.5709   50.0859 H   0  0  0  0  0  0  0  0  0  0  0  0
   61.9720   32.5260   50.2240 H   0  0  0  0  0  0  0  0  0  0  0  0
   65.3292   32.9937   50.5490 H   0  0  0  0  0  0  0  0  0  0  0  0
   67.5745   32.0234   50.1153 H   0  0  0  0  0  0  0  0  0  0  0  0
   68.1173   29.7266   50.9111 H   0  0  0  0  0  0  0  0  0  0  0  0
   66.3716   28.3294   51.9906 H   0  0  0  0  0  0  0  0  0  0  0  0
   63.9346   27.2709   53.4711 H   0  0  0  0  0  0  0  0  0  0  0  0
   63.0428   27.1561   51.9161 H   0  0  0  0  0  0  0  0  0  0  0  0
   64.8334   27.2979   51.9161 H   0  0  0  0  0  0  0  0  0  0  0  0
   61.8140   27.8934   53.7561 H   0  0  0  0  0  0  0  0  0  0  0  0
   59.8361   29.0305   54.7211 H   0  0  0  0  0  0  0  0  0  0  0  0
   59.6921   31.4953   54.7013 H   0  0  0  0  0  0  0  0  0  0  0  0
   61.8020   33.6850   52.7630 H   0  0  0  0  0  0  0  0  0  0  0  0
   61.9660   33.4400   54.4130 H   0  0  0  0  0  0  0  0  0  0  0  0
   59.6081   33.1233   54.7184 H   0  0  0  0  0  0  0  0  0  0  0  0
   60.0125   34.7328   53.9770 H   0  0  0  0  0  0  0  0  0  0  0  0
   58.9054   32.2576   52.5901 H   0  0  0  0  0  0  0  0  0  0  0  0
   58.1350   33.9061   52.8182 H   0  0  0  0  0  0  0  0  0  0  0  0
   59.1174   34.7713   51.0269 H   0  0  0  0  0  0  0  0  0  0  0  0
   60.6986   33.8794   51.3981 H   0  0  0  0  0  0  0  0  0  0  0  0
   58.5314   33.2305   49.4962 H   0  0  0  0  0  0  0  0  0  0  0  0
   60.3427   32.8753   49.5090 H   0  0  0  0  0  0  0  0  0  0  0  0
   58.8977   31.3167   51.4925 H   0  0  0  0  0  0  0  0  0  0  0  0
   58.3048   31.0383   49.7907 H   0  0  0  0  0  0  0  0  0  0  0  0
   60.5418   30.4823   49.0466 H   0  0  0  0  0  0  0  0  0  0  0  0
   61.2047   30.8629   50.6959 H   0  0  0  0  0  0  0  0  0  0  0  0
   60.7303   28.8195   51.4580 H   0  0  0  0  0  0  0  0  0  0  0  0
   59.0356   28.9181   50.8057 H   0  0  0  0  0  0  0  0  0  0  0  0
   61.5213   28.1103   49.2244 H   0  0  0  0  0  0  0  0  0  0  0  0
   60.2126   27.0064   49.8719 H   0  0  0  0  0  0  0  0  0  0  0  0
   58.6944   27.6176   48.2961 H   0  0  0  0  0  0  0  0  0  0  0  0
   59.5064   29.2604   48.0514 H   0  0  0  0  0  0  0  0  0  0  0  0
   61.1868   27.0830   47.1389 H   0  0  0  0  0  0  0  0  0  0  0  0
   59.5484   27.1130   46.3180 H   0  0  0  0  0  0  0  0  0  0  0  0
   61.2130   28.4690   45.0810 H   0  0  0  0  0  0  0  0  0  0  0  0
   58.6125   28.0931   44.9387 H   0  0  0  0  0  0  0  0  0  0  0  0
   56.3613   28.3513   43.9021 H   0  0  0  0  0  0  0  0  0  0  0  0
   55.3526   30.6133   43.6577 H   0  0  0  0  0  0  0  0  0  0  0  0
   56.5630   32.6241   44.4989 H   0  0  0  0  0  0  0  0  0  0  0  0
   58.3680   34.5543   46.1690 H   0  0  0  0  0  0  0  0  0  0  0  0
   59.3378   34.4959   44.6581 H   0  0  0  0  0  0  0  0  0  0  0  0
   57.6390   33.9122   44.6581 H   0  0  0  0  0  0  0  0  0  0  0  0
   60.3271   34.5542   46.9995 H   0  0  0  0  0  0  0  0  0  0  0  0
   62.4081   34.2231   48.3144 H   0  0  0  0  0  0  0  0  0  0  0  0
   63.4192   31.9629   48.5299 H   0  0  0  0  0  0  0  0  0  0  0  0
   62.3263   30.0021   47.4582 H   0  0  0  0  0  0  0  0  0  0  0  0
  1  2  1  0
  2  3  1  0
  3  4  1  0
  4  5  1  0
  3  6  1  0
  6  7  1  0
  7  8  1  0
  8  9  1  0
  9 10  2  0
 10 11  1  0
 11 12  2  0
 12 13  1  0
 13 14  2  0
 14 15  1  0
 15 16  2  0
 16 17  1  0
 16 18  1  0
 18 19  2  0
 19 20  1  0
 20 21  2  0
 21 22  1  0
 22 23  1  0
 23 24  1  0
 24 25  1  0
 25 26  1  0
 26 27  1  0
 27 28  1  0
 28 29  1  0
 29 30  1  0
 30 31  1  0
 31 32  1  0
 32 33  1  0
 33 34  1  0
 34 35  1  0
 35 36  1  0
 36 37  2  0
 37 38  1  0
 38 39  2  0
 39 40  1  0
 40 41  2  0
 41 42  1  0
 42 43  1  0
 42 44  2  0
 44 45  1  0
 45 46  2  0
 46 47  1  0
 47 48  2  0
 48 49  1  0
 22 50  2  0
 50  9  1  0
 15 10  1  0
 50 18  1  0
 49 35  2  0
 41 36  1  0
 49 44  1  0
  1 51  1  0
  1 52  1  0
  1 53  1  0
  2 54  1  0
  2 55  1  0
  4 56  1  0
  4 57  1  0
  5 58  1  0
  5 59  1  0
  5 60  1  0
  6 61  1  0
  6 62  1  0
  7 63  1  0
  7 64  1  0
  8 65  1  0
 11 66  1  0
 12 67  1  0
 13 68  1  0
 14 69  1  0
 17 70  1  0
 17 71  1  0
 17 72  1  0
 19 73  1  0
 20 74  1  0
 21 75  1  0
 23 76  1  0
 23 77  1  0
 24 78  1  0
 24 79  1  0
 25 80  1  0
 25 81  1  0
 26 82  1  0
 26 83  1  0
 27 84  1  0
 27 85  1  0
 28 86  1  0
 28 87  1  0
 29 88  1  0
 29 89  1  0
 30 90  1  0
 30 91  1  0
 31 92  1  0
 31 93  1  0
 32 94  1  0
 32 95  1  0
 33 96  1  0
 33 97  1  0
 34 98  1  0
 37 99  1  0
 38100  1  0
 39101  1  0
 40102  1  0
 43103  1  0
 43104  1  0
 43105  1  0
 45106  1  0
 46107  1  0
 47108  1  0
 48109  1  0
M  CHG  3  16   1  23   1  42   1
M  END
>  <UniqueID>  (1) 
1

>  <SMILES>  (1) 
CCN(CC)CCNc1c2ccccc2[n+](C)c2cccc([NH2+]CCCCCCCCCCNc3c4ccccc4[n+](C)c4ccccc34)c12

>  <Energy>  (1) 
173.05164178806035

>  <Genealogy>  (1) 
CCN(CC)CCNc1c2ccccc2[n+](C)c2cccc([NH2+]CCCCCCCCCCNc3c4ccccc4[n+](C)c4ccccc34)c12 (protonated)
CCN(CC)CCNc1c2ccccc2[n+](C)c2cccc([NH2+]CCCCCCCCCCNc3c4ccccc4[n+](C)c4ccccc34)c12 (3D coordinates assigned)
CCN(CC)CCNc1c2ccccc2[n+](C)c2cccc([NH2+]CCCCCCCCCCNc3c4ccccc4[n+](C)c4ccccc34)c12 (optimized conformer: 173.05164178806035 kcal/mol)

>  <smiles>  (1) 
CCN(CC)CCNc1c2ccccc2[n+](C)c2cccc(NCCCCCCCCCCNc3c4ccccc4[n+](C)c4ccccc34)c12

>  <score_type>  (1) 
oracle

>  <origin>  (1) 
adg

>  <m_score__min__energy>  (1) 
-5.0899999999999999

>  <m_primary>  (1) 
energy

$$$$
1:0
     RDKit          3D

 54 56  0  0  0  0  0  0  0  0999 V2000
   64.8150   33.0160   49.5770 C   0  0  0  0  0  0  0  0  0  0  0  0
   63.7890   32.0110   49.0340 C   0  0  0  0  0  0  0  0  0  0  0  0
   63.6510   31.9960   47.5530 N   0  0  1  0  0  0  0  0  0  0  0  0
   62.4780   31.2130   47.1200 C   0  0  0  0  0  0  0  0  0  0  0  0
   63.6210   33.3450   46.9370 C   0  0  0  0  0  0  0  0  0  0  0  0
   62.2600   33.9030   46.9020 C   0  0  0  0  0  0  0  0  0  0  0  0
   61.1440   34.3600   46.8780 C   0  0  0  0  0  0  0  0  0  0  0  0
   59.7840   34.9140   46.8390 C   0  0  0  0  0  0  0  0  0  0  0  0
   59.2890   35.0780   45.3970 C   0  0  0  0  0  0  0  0  0  0  0  0
   58.6220   33.8000   44.8660 C   0  0  0  0  0  0  0  0  0  0  0  0
   57.7870   33.1130   45.9570 C   0  0  0  0  0  0  0  0  0  0  0  0
   57.9560   31.6140   45.8970 C   0  0  0  0  0  0  0  0  0  0  0  0
   58.5370   30.8360   46.9200 C   0  0  0  0  0  0  0  0  0  0  0  0
   59.1090   31.3030   48.2030 C   0  0  0  0  0  0  0  0  0  0  0  0
   59.9990   30.4780   48.9110 C   0  0  0  0  0  0  0  0  0  0  0  0
   60.5330   30.8950   50.1330 C   0  0  0  0  0  0  0  0  0  0  0  0
   60.1750   32.1350   50.6670 C   0  0  0  0  0  0  0  0  0  0  0  0
   59.2780   32.9570   49.9800 C   0  0  0  0  0  0  0  0  0  0  0  0
   58.7420   32.5420   48.7580 C   0  0  0  0  0  0  0  0  0  0  0  0
   58.5640   29.2150   46.4340 S   0  0  0  0  0  0  0  0  0  0  0  0
   57.8310   29.4750   44.9530 C   0  0  0  0  0  0  0  0  0  0  0  0
   57.5230   28.5320   43.9760 C   0  0  0  0  0  0  0  0  0  0  0  0
   56.9190   28.9760   42.7920 C   0  0  0  0  0  0  0  0  0  0  0  0
   56.6410   30.3420   42.6070 C   0  0  0  0  0  0  0  0  0  0  0  0
   56.9640   31.2770   43.6050 C   0  0  0  0  0  0  0  0  0  0  0  0
   57.5610   30.8280   44.7930 C   0  0  0  0  0  0  0  0  0  0  0  0
   64.7980   32.9993   50.6767 H   0  0  0  0  0  0  0  0  0  0  0  0
   65.8195   32.7427   49.2216 H   0  0  0  0  0  0  0  0  0  0  0  0
   64.5625   34.0259   49.2216 H   0  0  0  0  0  0  0  0  0  0  0  0
   64.0911   31.0046   49.3593 H   0  0  0  0  0  0  0  0  0  0  0  0
   62.8118   32.3219   49.4320 H   0  0  0  0  0  0  0  0  0  0  0  0
   64.4920   31.4960   47.1770 H   0  0  0  0  0  0  0  0  0  0  0  0
   61.9333   30.8494   48.0038 H   0  0  0  0  0  0  0  0  0  0  0  0
   61.8144   31.8499   46.5167 H   0  0  0  0  0  0  0  0  0  0  0  0
   62.8117   30.3559   46.5167 H   0  0  0  0  0  0  0  0  0  0  0  0
   64.2659   34.0173   47.5220 H   0  0  0  0  0  0  0  0  0  0  0  0
   63.9785   33.2541   45.9007 H   0  0  0  0  0  0  0  0  0  0  0  0
   59.1052   34.2348   47.3756 H   0  0  0  0  0  0  0  0  0  0  0  0
   59.7998   35.9056   47.3150 H   0  0  0  0  0  0  0  0  0  0  0  0
   58.5581   35.8994   45.3641 H   0  0  0  0  0  0  0  0  0  0  0  0
   60.1609   35.2939   44.7621 H   0  0  0  0  0  0  0  0  0  0  0  0
   57.9652   34.0619   44.0234 H   0  0  0  0  0  0  0  0  0  0  0  0
   59.4107   33.1049   44.5424 H   0  0  0  0  0  0  0  0  0  0  0  0
   58.1150   33.4737   46.9430 H   0  0  0  0  0  0  0  0  0  0  0  0
   56.7264   33.3551   45.7942 H   0  0  0  0  0  0  0  0  0  0  0  0
   60.2775   29.4963   48.5002 H   0  0  0  0  0  0  0  0  0  0  0  0
   61.2363   30.2459   50.6752 H   0  0  0  0  0  0  0  0  0  0  0  0
   60.5988   32.4640   51.6273 H   0  0  0  0  0  0  0  0  0  0  0  0
   58.9933   33.9323   50.4017 H   0  0  0  0  0  0  0  0  0  0  0  0
   58.0283   33.1887   48.2267 H   0  0  0  0  0  0  0  0  0  0  0  0
   57.7479   27.4662   44.1295 H   0  0  0  0  0  0  0  0  0  0  0  0
   56.6613   28.2530   42.0041 H   0  0  0  0  0  0  0  0  0  0  0  0
   56.1671   30.6812   41.6740 H   0  0  0  0  0  0  0  0  0  0  0  0
   56.7518   32.3462   43.4571 H   0  0  0  0  0  0  0  0  0  0  0  0
  1  2  1  0
  2  3  1  0
  3  4  1  0
  3  5  1  0
  5  6  1  0
  6  7  3  0
  7  8  1  0
  8  9  1  0
  9 10  1  0
 10 11  1  0
 11 12  1  0
 12 13  2  0
 13 14  1  0
 14 15  2  0
 15 16  1  0
 16 17  2  0
 17 18  1  0
 18 19  2  0
 13 20  1  0
 20 21  1  0
 21 22  2  0
 22 23  1  0
 23 24  2  0
 24 25  1  0
 25 26  2  0
 26 12  1  0
 19 14  1  0
 26 21  1  0
  1 27  1  0
  1 28  1  0
  1 29  1  0
  2 30  1  0
  2 31  1  0
  3 32  1  6
  4 33  1  0
  4 34  1  0
  4 35  1  0
  5 36  1  0
  5 37  1  0
  8 38  1  0
  8 39  1  0
  9 40  1  0
  9 41  1  0
 10 42  1  0
 10 43  1  0
 11 44  1  0
 11 45  1  0
 15 46  1  0
 16 47  1  0
 17 48  1  0
 18 49  1  0
 19 50  1  0
 22 51  1  0
 23 52  1  0
 24 53  1  0
 25 54  1  0
M  CHG  1   3   1
M  END
>  <UniqueID>  (2) 
2

>  <SMILES>  (2) 
CC[N@@H+](C)CC#CCCCCc1c(-c2ccccc2)sc2ccccc12

>  <Energy>  (2) 
80.88782030484812

>  <Genealogy>  (2) 
CC[NH+](C)CC#CCCCCc1c(-c2ccccc2)sc2ccccc12 (protonated)
CC[N@@H+](C)CC#CCCCCc1c(-c2ccccc2)sc2ccccc12 (chirality)
CC[N@@H+](C)CC#CCCCCc1c(-c2ccccc2)sc2ccccc12 (3D coordinates assigned)
CC[N@@H+](C)CC#CCCCCc1c(-c2ccccc2)sc2ccccc12 (optimized conformer: 80.88782030484812 kcal/mol)

>  <smiles>  (2) 
CCN(C)CC#CCCCCc1c(-c2ccccc2)sc2ccccc12

>  <score_type>  (2) 
oracle

>  <origin>  (2) 
adg

>  <m_score__min__energy>  (2) 
-6.5

>  <m_primary>  (2) 
energy

$$$$
2:0
     RDKit          3D

 52 54  0  0  0  0  0  0  0  0999 V2000
   64.6860   33.1940   49.7090 C   0  0  0  0  0  0  0  0  0  0  0  0
   64.0590   31.9810   49.0320 C   0  0  0  0  0  0  0  0  0  0  0  0
   62.8160   32.3910   48.3260 N   0  0  0  0  0  0  0  0  0  0  0  0
   62.9040   33.7840   47.8270 C   0  0  0  0  0  0  0  0  0  0  0  0
   63.3510   33.8420   46.3650 C   0  0  0  0  0  0  0  0  0  0  0  0
   61.6260   32.2460   49.1970 C   0  0  0  0  0  0  0  0  0  0  0  0
   60.5990   31.2440   48.6250 C   0  0  0  0  0  0  0  0  0  0  0  0
   60.9680   30.7130   47.2980 N   0  0  0  0  0  0  0  0  0  0  0  0
   59.8620   30.7630   46.3540 C   0  0  0  0  0  0  0  0  0  0  0  0
   59.3650   29.5900   45.7530 C   0  0  0  0  0  0  0  0  0  0  0  0
   58.4580   29.6420   44.7210 C   0  0  0  0  0  0  0  0  0  0  0  0
   57.9460   30.8280   44.2620 N   0  0  0  0  0  0  0  0  0  0  0  0
   56.9810   30.8320   43.1440 C   0  0  0  0  0  0  0  0  0  0  0  0
   58.3250   32.0080   44.8750 C   0  0  0  0  0  0  0  0  0  0  0  0
   57.7750   33.2510   44.4740 C   0  0  0  0  0  0  0  0  0  0  0  0
   58.1530   34.4400   45.0900 C   0  0  0  0  0  0  0  0  0  0  0  0
   59.0840   34.4340   46.1260 C   0  0  0  0  0  0  0  0  0  0  0  0
   59.4610   35.6610   46.7580 N   0  0  0  0  0  0  0  0  0  0  0  0
   59.6450   33.2250   46.5460 C   0  0  0  0  0  0  0  0  0  0  0  0
   59.2890   32.0000   45.9350 C   0  0  0  0  0  0  0  0  0  0  0  0
   58.1240   28.2690   44.1990 C   0  0  0  0  0  0  0  0  0  0  0  0
   58.9430   27.3000   45.0650 C   0  0  0  0  0  0  0  0  0  0  0  0
   59.6410   28.1840   46.0320 C   0  0  0  0  0  0  0  0  0  0  0  0
   60.2960   27.7410   47.0100 O   0  0  0  0  0  0  0  0  0  0  0  0
   64.6253   33.0766   50.8010 H   0  0  0  0  0  0  0  0  0  0  0  0
   65.7405   33.2780   49.4073 H   0  0  0  0  0  0  0  0  0  0  0  0
   64.1448   34.1029   49.4073 H   0  0  0  0  0  0  0  0  0  0  0  0
   64.7697   31.5585   48.3065 H   0  0  0  0  0  0  0  0  0  0  0  0
   63.8149   31.2240   49.7918 H   0  0  0  0  0  0  0  0  0  0  0  0
   61.9142   34.2558   47.9147 H   0  0  0  0  0  0  0  0  0  0  0  0
   63.6531   34.3151   48.4326 H   0  0  0  0  0  0  0  0  0  0  0  0
   64.4410   33.9834   46.3202 H   0  0  0  0  0  0  0  0  0  0  0  0
   63.0823   32.9015   45.8618 H   0  0  0  0  0  0  0  0  0  0  0  0
   62.8512   34.6828   45.8618 H   0  0  0  0  0  0  0  0  0  0  0  0
   61.9526   31.8919   50.1859 H   0  0  0  0  0  0  0  0  0  0  0  0
   61.1361   33.2286   49.2635 H   0  0  0  0  0  0  0  0  0  0  0  0
   60.5095   30.4000   49.3248 H   0  0  0  0  0  0  0  0  0  0  0  0
   59.6508   31.7881   48.5027 H   0  0  0  0  0  0  0  0  0  0  0  0
   61.3020   29.7280   47.3970 H   0  0  0  0  0  0  0  0  0  0  0  0
   61.8040   31.2280   46.9570 H   0  0  0  0  0  0  0  0  0  0  0  0
   55.9563   30.8362   43.5441 H   0  0  0  0  0  0  0  0  0  0  0  0
   57.1377   31.7295   42.5276 H   0  0  0  0  0  0  0  0  0  0  0  0
   57.1302   29.9332   42.5276 H   0  0  0  0  0  0  0  0  0  0  0  0
   57.0352   33.2763   43.6603 H   0  0  0  0  0  0  0  0  0  0  0  0
   57.7134   35.3916   44.7564 H   0  0  0  0  0  0  0  0  0  0  0  0
   58.8620   36.0870   47.5000 H   0  0  0  0  0  0  0  0  0  0  0  0
   60.3410   36.1540   46.4900 H   0  0  0  0  0  0  0  0  0  0  0  0
   60.3771   33.2260   47.3670 H   0  0  0  0  0  0  0  0  0  0  0  0
   57.0480   28.0667   44.3057 H   0  0  0  0  0  0  0  0  0  0  0  0
   58.3610   28.1663   43.1298 H   0  0  0  0  0  0  0  0  0  0  0  0
   58.2843   26.5912   45.5883 H   0  0  0  0  0  0  0  0  0  0  0  0
   59.6390   26.6879   44.4725 H   0  0  0  0  0  0  0  0  0  0  0  0
  1  2  1  0
  2  3  1  0
  3  4  1  0
  4  5  1  0
  3  6  1  0
  6  7  1  0
  7  8  1  0
  8  9  1  0
  9 10  2  0
 10 11  1  0
 11 12  2  0
 12 13  1  0
 12 14  1  0
 14 15  2  0
 15 16  1  0
 16 17  2  0
 17 18  1  0
 17 19  1  0
 19 20  2  0
 11 21  1  0
 21 22  1  0
 22 23  1  0
 23 24  2  0
 20  9  1  0
 23 10  1  0
 20 14  1  0
  1 25  1  0
  1 26  1  0
  1 27  1  0
  2 28  1  0
  2 29  1  0
  4 30  1  0
  4 31  1  0
  5 32  1  0
  5 33  1  0
  5 34  1  0
  6 35  1  0
  6 36  1  0
  7 37  1  0
  7 38  1  0
  8 39  1  0
  8 40  1  0
 13 41  1  0
 13 42  1  0
 13 43  1  0
 15 44  1  0
 16 45  1  0
 18 46  1  0
 18 47  1  0
 19 48  1  0
 21 49  1  0
 21 50  1  0
 22 51  1  0
 22 52  1  0
M  CHG  2   8   1  12   1
M  END
>  <UniqueID>  (3) 
3

>  <SMILES>  (3) 
CCN(CC)CC[NH2+]c1c2c([n+](C)c3ccc(N)cc13)CCC2=O

>  <Energy>  (3) 
79.48330393106615

>  <Genealogy>  (3) 
CCN(CC)CC[NH2+]c1c2c([n+](C)c3ccc(N)cc13)CCC2=O (protonated)
CCN(CC)CC[NH2+]c1c2c([n+](C)c3ccc(N)cc13)CCC2=O (3D coordinates assigned)
CCN(CC)CC[NH2+]c1c2c([n+](C)c3ccc(N)cc13)CCC2=O (nonaromatic ring conformer: 79.48330393106615 kcal/mol)

>  <smiles>  (3) 
CCN(CC)CCNc1c2c([n+](C)c3ccc(N)cc13)CCC2=O

>  <score_type>  (3) 
oracle

>  <origin>  (3) 
adg

>  <m_score__min__energy>  (3) 
-3.71

>  <m_primary>  (3) 
energy

$$$$
3:0
     RDKit          3D

 46 47  0  0  0  0  0  0  0  0999 V2000
   64.1440   33.0480   48.5490 C   0  0  0  0  0  0  0  0  0  0  0  0
   63.6360   32.7420   47.1420 C   0  0  0  0  0  0  0  0  0  0  0  0
   62.7100   33.8520   46.6310 C   0  0  0  0  0  0  0  0  0  0  0  0
   61.2980   33.4470   46.7880 N   0  0  0  0  0  0  0  0  0  0  0  0
   60.4010   34.2530   45.9370 C   0  0  0  0  0  0  0  0  0  0  0  0
   59.0040   33.6060   45.8700 C   0  0  0  0  0  0  0  0  0  0  0  0
   58.6280   32.8400   47.1660 C   0  0  0  0  0  0  0  0  0  0  0  0
   58.8310   31.3290   47.1000 C   0  0  0  0  0  0  0  0  0  0  0  0
   59.8240   30.6560   47.8440 C   0  0  0  0  0  0  0  0  0  0  0  0
   59.9350   29.2640   47.7820 C   0  0  0  0  0  0  0  0  0  0  0  0
   59.0580   28.5220   46.9900 C   0  0  0  0  0  0  0  0  0  0  0  0
   58.0590   29.1710   46.2550 C   0  0  0  0  0  0  0  0  0  0  0  0
   56.9440   28.2530   45.2450 S   0  0  0  0  0  0  0  0  0  0  0  0
   56.5140   27.0220   45.9890 O   0  0  0  0  0  0  0  0  0  0  0  0
   57.6170   27.8330   43.9670 O   0  0  0  0  0  0  0  0  0  0  0  0
   55.5450   29.2230   44.8830 N   0  0  0  0  0  0  0  0  0  0  0  0
   55.5880   29.7200   43.5060 C   0  0  0  0  0  0  0  0  0  0  0  0
   56.7550   30.6830   43.3280 C   0  0  0  0  0  0  0  0  0  0  0  0
   57.9480   30.5650   46.3130 C   0  0  0  0  0  0  0  0  0  0  0  0
   59.3480   33.4410   48.3890 C   0  0  0  0  0  0  0  0  0  0  0  0
   60.8820   33.5030   48.2080 C   0  0  0  0  0  0  0  0  0  0  0  0
   63.4474   32.6284   49.2897 H   0  0  0  0  0  0  0  0  0  0  0  0
   65.1387   32.5987   48.6855 H   0  0  0  0  0  0  0  0  0  0  0  0
   64.2119   34.1374   48.6855 H   0  0  0  0  0  0  0  0  0  0  0  0
   64.4961   32.6515   46.4622 H   0  0  0  0  0  0  0  0  0  0  0  0
   63.0659   31.8018   47.1753 H   0  0  0  0  0  0  0  0  0  0  0  0
   62.8912   34.7712   47.2075 H   0  0  0  0  0  0  0  0  0  0  0  0
   62.9169   34.0317   45.5657 H   0  0  0  0  0  0  0  0  0  0  0  0
   60.3125   35.2649   46.3592 H   0  0  0  0  0  0  0  0  0  0  0  0
   60.8210   34.3040   44.9216 H   0  0  0  0  0  0  0  0  0  0  0  0
   58.2588   34.3975   45.7019 H   0  0  0  0  0  0  0  0  0  0  0  0
   59.0190   32.8749   45.0482 H   0  0  0  0  0  0  0  0  0  0  0  0
   57.5421   32.9773   47.2755 H   0  0  0  0  0  0  0  0  0  0  0  0
   60.5155   31.2312   48.4772 H   0  0  0  0  0  0  0  0  0  0  0  0
   60.7175   28.7510   48.3604 H   0  0  0  0  0  0  0  0  0  0  0  0
   59.1517   27.4270   46.9432 H   0  0  0  0  0  0  0  0  0  0  0  0
   55.7098   28.8709   42.8173 H   0  0  0  0  0  0  0  0  0  0  0  0
   54.6495   30.2506   43.2875 H   0  0  0  0  0  0  0  0  0  0  0  0
   57.1293   30.9919   44.3151 H   0  0  0  0  0  0  0  0  0  0  0  0
   57.5608   30.1835   42.7702 H   0  0  0  0  0  0  0  0  0  0  0  0
   56.4175   31.5690   42.7702 H   0  0  0  0  0  0  0  0  0  0  0  0
   57.1600   31.0708   45.7357 H   0  0  0  0  0  0  0  0  0  0  0  0
   58.9715   34.4616   48.5525 H   0  0  0  0  0  0  0  0  0  0  0  0
   59.1414   32.7881   49.2498 H   0  0  0  0  0  0  0  0  0  0  0  0
   61.2491   34.4437   48.6443 H   0  0  0  0  0  0  0  0  0  0  0  0
   61.3094   32.6235   48.7118 H   0  0  0  0  0  0  0  0  0  0  0  0
  1  2  1  0
  2  3  1  0
  3  4  1  0
  4  5  1  0
  5  6  1  0
  6  7  1  0
  7  8  1  0
  8  9  2  0
  9 10  1  0
 10 11  2  0
 11 12  1  0
 12 13  1  0
 13 14  2  0
 13 15  2  0
 13 16  1  0
 16 17  1  0
 17 18  1  0
 12 19  2  0
  7 20  1  0
 20 21  1  0
 21  4  1  0
 19  8  1  0
  1 22  1  0
  1 23  1  0
  1 24  1  0
  2 25  1  0
  2 26  1  0
  3 27  1  0
  3 28  1  0
  5 29  1  0
  5 30  1  0
  6 31  1  0
  6 32  1  0
  7 33  1  0
  9 34  1  0
 10 35  1  0
 11 36  1  0
 17 37  1  0
 17 38  1  0
 18 39  1  0
 18 40  1  0
 18 41  1  0
 19 42  1  0
 20 43  1  0
 20 44  1  0
 21 45  1  0
 21 46  1  0
M  CHG  1  16  -1
M  END
>  <UniqueID>  (4) 
4

>  <SMILES>  (4) 
CCCN1CCC(c2cccc(S(=O)(=O)[N-]CC)c2)CC1

>  <Energy>  (4) 
46.90178258732141

>  <Genealogy>  (4) 
CCCN1CCC(c2cccc(S(=O)(=O)[N-]CC)c2)CC1 (protonated)
CCCN1CCC(c2cccc(S(=O)(=O)[N-]CC)c2)CC1 (3D coordinates assigned)
CCCN1CCC(c2cccc(S(=O)(=O)[N-]CC)c2)CC1 (nonaromatic ring conformer: 46.90178258732141 kcal/mol)

>  <smiles>  (4) 
CCCN1CCC(c2cccc(S(=O)(=O)NCC)c2)CC1

>  <score_type>  (4) 
oracle

>  <origin>  (4) 
adg

>  <m_score__min__energy>  (4) 
-9.3399999999999999

>  <m_primary>  (4) 
energy

$$$$
4:0
     RDKit          3D

 62 65  0  0  0  0  0  0  0  0999 V2000
   63.3660   33.9780   49.8390 C   0  0  0  0  0  0  0  0  0  0  0  0
   63.1210   32.6440   49.2630 N   0  0  0  0  0  0  0  0  0  0  0  0
   63.9630   31.6480   49.9530 C   0  0  0  0  0  0  0  0  0  0  0  0
   63.3940   32.6530   47.8070 C   0  0  0  0  0  0  0  0  0  0  0  0
   62.7020   31.4700   47.1130 C   0  0  0  0  0  0  0  0  0  0  0  0
   61.4430   31.1030   47.7980 N   0  0  0  0  0  0  0  0  0  0  0  0
   60.2870   31.1980   46.9140 C   0  0  0  0  0  0  0  0  0  0  0  0
   59.8430   30.0300   46.2220 C   0  0  0  0  0  0  0  0  0  0  0  0
   60.4150   28.7530   46.4710 C   0  0  0  0  0  0  0  0  0  0  0  0
   59.9840   27.6200   45.7860 C   0  0  0  0  0  0  0  0  0  0  0  0
   58.9930   27.7250   44.8240 C   0  0  0  0  0  0  0  0  0  0  0  0
   58.4240   28.9610   44.5420 C   0  0  0  0  0  0  0  0  0  0  0  0
   58.8190   30.1340   45.2410 C   0  0  0  0  0  0  0  0  0  0  0  0
   58.2640   31.3570   44.9430 N   0  0  0  0  0  0  0  0  0  0  0  0
   57.0410   31.4350   44.1100 C   0  0  0  0  0  0  0  0  0  0  0  0
   58.8250   32.5130   45.4430 C   0  0  0  0  0  0  0  0  0  0  0  0
   58.5440   33.7660   44.8460 C   0  0  0  0  0  0  0  0  0  0  0  0
   59.0180   34.9470   45.3960 C   0  0  0  0  0  0  0  0  0  0  0  0
   59.7210   34.9180   46.5860 C   0  0  0  0  0  0  0  0  0  0  0  0
   60.0450   33.7010   47.2010 C   0  0  0  0  0  0  0  0  0  0  0  0
   60.4880   33.7540   48.5630 N   0  0  0  0  0  0  0  0  0  0  0  0
   59.6480   34.2520   49.6500 C   0  0  0  0  0  0  0  0  0  0  0  0
   59.9030   33.4500   50.9270 C   0  0  0  0  0  0  0  0  0  0  0  0
   59.8520   32.0120   50.6400 N   0  0  0  0  0  0  0  0  0  0  0  0
   60.8470   31.1910   51.1000 C   0  0  0  0  0  0  0  0  0  0  0  0
   60.7930   29.8150   50.8720 C   0  0  0  0  0  0  0  0  0  0  0  0
   59.7090   29.2780   50.1770 C   0  0  0  0  0  0  0  0  0  0  0  0
   58.6960   30.1200   49.7200 C   0  0  0  0  0  0  0  0  0  0  0  0
   58.7800   31.4920   49.9660 C   0  0  0  0  0  0  0  0  0  0  0  0
   59.7190   32.4640   46.5540 C   0  0  0  0  0  0  0  0  0  0  0  0
   63.3537   33.9112   50.9369 H   0  0  0  0  0  0  0  0  0  0  0  0
   64.3470   34.3471   49.5050 H   0  0  0  0  0  0  0  0  0  0  0  0
   62.5802   34.6715   49.5050 H   0  0  0  0  0  0  0  0  0  0  0  0
   63.8591   31.7709   51.0412 H   0  0  0  0  0  0  0  0  0  0  0  0
   63.6429   30.6355   49.6661 H   0  0  0  0  0  0  0  0  0  0  0  0
   65.0147   31.7951   49.6661 H   0  0  0  0  0  0  0  0  0  0  0  0
   63.0191   33.5930   47.3759 H   0  0  0  0  0  0  0  0  0  0  0  0
   64.4795   32.5657   47.6521 H   0  0  0  0  0  0  0  0  0  0  0  0
   62.4756   31.7479   46.0730 H   0  0  0  0  0  0  0  0  0  0  0  0
   63.3796   30.6042   47.1473 H   0  0  0  0  0  0  0  0  0  0  0  0
   61.2840   31.7190   48.6270 H   0  0  0  0  0  0  0  0  0  0  0  0
   61.5300   30.1640   48.2340 H   0  0  0  0  0  0  0  0  0  0  0  0
   61.2147   28.6578   47.2203 H   0  0  0  0  0  0  0  0  0  0  0  0
   60.4312   26.6401   46.0091 H   0  0  0  0  0  0  0  0  0  0  0  0
   58.6560   26.8288   44.2825 H   0  0  0  0  0  0  0  0  0  0  0  0
   57.6520   29.0332   43.7618 H   0  0  0  0  0  0  0  0  0  0  0  0
   56.1565   31.4914   44.7616 H   0  0  0  0  0  0  0  0  0  0  0  0
   57.0864   32.3321   43.4750 H   0  0  0  0  0  0  0  0  0  0  0  0
   56.9721   30.5394   43.4750 H   0  0  0  0  0  0  0  0  0  0  0  0
   57.9382   33.8029   43.9286 H   0  0  0  0  0  0  0  0  0  0  0  0
   58.8352   35.9048   44.8868 H   0  0  0  0  0  0  0  0  0  0  0  0
   60.0303   35.8629   47.0566 H   0  0  0  0  0  0  0  0  0  0  0  0
   61.4020   33.3100   48.7990 H   0  0  0  0  0  0  0  0  0  0  0  0
   59.8820   35.3110   49.8336 H   0  0  0  0  0  0  0  0  0  0  0  0
   58.5913   34.1440   49.3643 H   0  0  0  0  0  0  0  0  0  0  0  0
   60.8960   33.7062   51.3250 H   0  0  0  0  0  0  0  0  0  0  0  0
   59.1272   33.6964   51.6669 H   0  0  0  0  0  0  0  0  0  0  0  0
   61.6955   31.6194   51.6536 H   0  0  0  0  0  0  0  0  0  0  0  0
   61.5978   29.1600   51.2370 H   0  0  0  0  0  0  0  0  0  0  0  0
   59.6538   28.1953   49.9904 H   0  0  0  0  0  0  0  0  0  0  0  0
   57.8376   29.7069   49.1701 H   0  0  0  0  0  0  0  0  0  0  0  0
   57.9791   32.1597   49.6157 H   0  0  0  0  0  0  0  0  0  0  0  0
  1  2  1  0
  2  3  1  0
  2  4  1  0
  4  5  1  0
  5  6  1  0
  6  7  1  0
  7  8  2  0
  8  9  1  0
  9 10  2  0
 10 11  1  0
 11 12  2  0
 12 13  1  0
 13 14  2  0
 14 15  1  0
 14 16  1  0
 16 17  2  0
 17 18  1  0
 18 19  2  0
 19 20  1  0
 20 21  1  0
 21 22  1  0
 22 23  1  0
 23 24  1  0
 24 25  2  0
 25 26  1  0
 26 27  2  0
 27 28  1  0
 28 29  2  0
 20 30  2  0
 30  7  1  0
 13  8  1  0
 30 16  1  0
 29 24  1  0
  1 31  1  0
  1 32  1  0
  1 33  1  0
  3 34  1  0
  3 35  1  0
  3 36  1  0
  4 37  1  0
  4 38  1  0
  5 39  1  0
  5 40  1  0
  6 41  1  0
  6 42  1  0
  9 43  1  0
 10 44  1  0
 11 45  1  0
 12 46  1  0
 15 47  1  0
 15 48  1  0
 15 49  1  0
 17 50  1  0
 18 51  1  0
 19 52  1  0
 21 53  1  0
 22 54  1  0
 22 55  1  0
 23 56  1  0
 23 57  1  0
 25 58  1  0
 26 59  1  0
 27 60  1  0
 28 61  1  0
 29 62  1  0
M  CHG  3   6   1  14   1  24   1
M  END
>  <UniqueID>  (5) 
5

>  <SMILES>  (5) 
CN(C)CC[NH2+]c1c2ccccc2[n+](C)c2cccc(NCC[n+]3ccccc3)c12

>  <Energy>  (5) 
104.15388390581376

>  <Genealogy>  (5) 
CN(C)CC[NH2+]c1c2ccccc2[n+](C)c2cccc(NCC[n+]3ccccc3)c12 (protonated)
CN(C)CC[NH2+]c1c2ccccc2[n+](C)c2cccc(NCC[n+]3ccccc3)c12 (3D coordinates assigned)
CN(C)CC[NH2+]c1c2ccccc2[n+](C)c2cccc(NCC[n+]3ccccc3)c12 (optimized conformer: 104.15388390581376 kcal/mol)

>  <smiles>  (5) 
CN(C)CCNc1c2ccccc2[n+](C)c2cccc(NCC[n+]3ccccc3)c12

>  <score_type>  (5) 
oracle

>  <origin>  (5) 
adg

>  <m_score__min__energy>  (5) 
-3.4100000000000001

>  <m_primary>  (5) 
energy

$$$$
5:0
     RDKit          3D

 66 69  0  0  0  0  0  0  0  0999 V2000
   63.2190   33.3660   47.3950 C   0  0  0  0  0  0  0  0  0  0  0  0
   62.9940   33.7500   48.8510 C   0  0  0  0  0  0  0  0  0  0  0  0
   62.4730   32.5940   49.5930 N   0  0  0  0  0  0  0  0  0  0  0  0
   62.6680   31.3220   48.8750 C   0  0  0  0  0  0  0  0  0  0  0  0
   61.7240   30.1910   49.3330 C   0  0  0  0  0  0  0  0  0  0  0  0
   60.6950   29.8000   48.2620 C   0  0  0  0  0  0  0  0  0  0  0  0
   59.6530   30.8190   48.1500 N   0  0  0  0  0  0  0  0  0  0  0  0
   59.0320   31.0860   46.8860 C   0  0  0  0  0  0  0  0  0  0  0  0
   58.3930   30.0330   46.2080 C   0  0  0  0  0  0  0  0  0  0  0  0
   58.2580   28.7620   46.8110 C   0  0  0  0  0  0  0  0  0  0  0  0
   57.5910   27.7300   46.1540 C   0  0  0  0  0  0  0  0  0  0  0  0
   57.0310   27.9520   44.9010 C   0  0  0  0  0  0  0  0  0  0  0  0
   57.1590   29.1960   44.2850 C   0  0  0  0  0  0  0  0  0  0  0  0
   57.8710   30.2530   44.9090 C   0  0  0  0  0  0  0  0  0  0  0  0
   58.0520   31.4730   44.2900 N   0  0  0  0  0  0  0  0  0  0  0  0
   57.7920   31.6060   42.8370 C   0  0  0  0  0  0  0  0  0  0  0  0
   58.4880   32.5640   45.0190 C   0  0  0  0  0  0  0  0  0  0  0  0
   58.4080   33.8750   44.4890 C   0  0  0  0  0  0  0  0  0  0  0  0
   58.8830   34.9700   45.1940 C   0  0  0  0  0  0  0  0  0  0  0  0
   59.4360   34.8030   46.4510 C   0  0  0  0  0  0  0  0  0  0  0  0
   59.5140   33.5360   47.0380 C   0  0  0  0  0  0  0  0  0  0  0  0
   60.0310   33.4530   48.3750 N   0  0  0  0  0  0  0  0  0  0  0  0
   59.7290   34.4670   49.3830 C   0  0  0  0  0  0  0  0  0  0  0  0
   59.6210   33.8380   50.7780 C   0  0  0  0  0  0  0  0  0  0  0  0
   59.4670   32.3730   50.6780 N   0  0  0  0  0  0  0  0  0  0  0  0
   58.0600   31.9480   50.7000 C   0  0  0  0  0  0  0  0  0  0  0  0
   58.0370   30.5620   51.3070 C   0  0  0  0  0  0  0  0  0  0  0  0
   59.1980   30.5630   52.2760 C   0  0  0  0  0  0  0  0  0  0  0  0
   60.1280   31.6740   51.7940 C   0  0  0  0  0  0  0  0  0  0  0  0
   59.0190   32.3930   46.3350 C   0  0  0  0  0  0  0  0  0  0  0  0
   63.7746   32.4178   47.3475 H   0  0  0  0  0  0  0  0  0  0  0  0
   62.2476   33.2473   46.8928 H   0  0  0  0  0  0  0  0  0  0  0  0
   63.7974   34.1554   46.8928 H   0  0  0  0  0  0  0  0  0  0  0  0
   63.9474   34.0707   49.2961 H   0  0  0  0  0  0  0  0  0  0  0  0
   62.2668   34.5737   48.9024 H   0  0  0  0  0  0  0  0  0  0  0  0
   61.4570   32.7380   49.8000 H   0  0  0  0  0  0  0  0  0  0  0  0
   62.4988   31.5007   47.8029 H   0  0  0  0  0  0  0  0  0  0  0  0
   63.6933   30.9880   49.0925 H   0  0  0  0  0  0  0  0  0  0  0  0
   62.3296   29.3059   49.5774 H   0  0  0  0  0  0  0  0  0  0  0  0
   61.1667   30.5601   50.2066 H   0  0  0  0  0  0  0  0  0  0  0  0
   61.2044   29.6964   47.2926 H   0  0  0  0  0  0  0  0  0  0  0  0
   60.2280   28.8471   48.5515 H   0  0  0  0  0  0  0  0  0  0  0  0
   59.2490   31.2680   49.0040 H   0  0  0  0  0  0  0  0  0  0  0  0
   58.6840   28.5855   47.8097 H   0  0  0  0  0  0  0  0  0  0  0  0
   57.5076   26.7402   46.6265 H   0  0  0  0  0  0  0  0  0  0  0  0
   56.4849   27.1430   44.3938 H   0  0  0  0  0  0  0  0  0  0  0  0
   56.7005   29.3610   43.2988 H   0  0  0  0  0  0  0  0  0  0  0  0
   56.8225   32.1020   42.6819 H   0  0  0  0  0  0  0  0  0  0  0  0
   58.5893   32.2070   42.3753 H   0  0  0  0  0  0  0  0  0  0  0  0
   57.7712   30.6078   42.3753 H   0  0  0  0  0  0  0  0  0  0  0  0
   57.9592   34.0276   43.4964 H   0  0  0  0  0  0  0  0  0  0  0  0
   58.8200   35.9754   44.7523 H   0  0  0  0  0  0  0  0  0  0  0  0
   59.8194   35.6782   46.9960 H   0  0  0  0  0  0  0  0  0  0  0  0
   60.4710   32.5580   48.6850 H   0  0  0  0  0  0  0  0  0  0  0  0
   60.5314   35.2194   49.3885 H   0  0  0  0  0  0  0  0  0  0  0  0
   58.7652   34.9345   49.1330 H   0  0  0  0  0  0  0  0  0  0  0  0
   60.5326   34.0673   51.3493 H   0  0  0  0  0  0  0  0  0  0  0  0
   58.7382   34.2531   51.2863 H   0  0  0  0  0  0  0  0  0  0  0  0
   57.4638   32.6405   51.3123 H   0  0  0  0  0  0  0  0  0  0  0  0
   57.6304   31.9450   49.6874 H   0  0  0  0  0  0  0  0  0  0  0  0
   57.0885   30.3827   51.8345 H   0  0  0  0  0  0  0  0  0  0  0  0
   58.1205   29.7686   50.5497 H   0  0  0  0  0  0  0  0  0  0  0  0
   58.8466   30.7714   53.2973 H   0  0  0  0  0  0  0  0  0  0  0  0
   59.7066   29.5881   52.3057 H   0  0  0  0  0  0  0  0  0  0  0  0
   60.3210   32.3808   52.6145 H   0  0  0  0  0  0  0  0  0  0  0  0
   61.0878   31.2505   51.4631 H   0  0  0  0  0  0  0  0  0  0  0  0
  1  2  1  0
  2  3  1  0
  3  4  1  0
  4  5  1  0
  5  6  1  0
  6  7  1  0
  7  8  1  0
  8  9  2  0
  9 10  1  0
 10 11  2  0
 11 12  1  0
 12 13  2  0
 13 14  1  0
 14 15  2  0
 15 16  1  0
 15 17  1  0
 17 18  2  0
 18 19  1  0
 19 20  2  0
 20 21  1  0
 21 22  1  0
 22 23  1  0
 23 24  1  0
 24 25  1  0
 25 26  1  0
 26 27  1  0
 27 28  1  0
 28 29  1  0
 21 30  2  0
 30  8  1  0
 14  9  1  0
 30 17  1  0
 29 25  1  0
  1 31  1  0
  1 32  1  0
  1 33  1  0
  2 34  1  0
  2 35  1  0
  3 36  1  0
  4 37  1  0
  4 38  1  0
  5 39  1  0
  5 40  1  0
  6 41  1  0
  6 42  1  0
  7 43  1  0
 10 44  1  0
 11 45  1  0
 12 46  1  0
 13 47  1  0
 16 48  1  0
 16 49  1  0
 16 50  1  0
 18 51  1  0
 19 52  1  0
 20 53  1  0
 22 54  1  0
 23 55  1  0
 23 56  1  0
 24 57  1  0
 24 58  1  0
 26 59  1  0
 26 60  1  0
 27 61  1  0
 27 62  1  0
 28 63  1  0
 28 64  1  0
 29 65  1  0
 29 66  1  0
M  CHG  1  15   1
M  END
>  <UniqueID>  (6) 
6

>  <SMILES>  (6) 
CCNCCCNc1c2ccccc2[n+](C)c2cccc(NCCN3CCCC3)c12

>  <Energy>  (6) 
98.81674238211896

>  <Genealogy>  (6) 
CCNCCCNc1c2ccccc2[n+](C)c2cccc(NCCN3CCCC3)c12 (3D coordinates assigned)
CCNCCCNc1c2ccccc2[n+](C)c2cccc(NCCN3CCCC3)c12 (nonaromatic ring conformer: 98.81674238211896 kcal/mol)

>  <smiles>  (6) 
CCNCCCNc1c2ccccc2[n+](C)c2cccc(NCCN3CCCC3)c12

>  <score_type>  (6) 
oracle

>  <origin>  (6) 
adg

>  <m_score__min__energy>  (6) 
-6

>  <m_primary>  (6) 
energy

$$$$
6:0
     RDKit          3D

 59 61  0  0  0  0  0  0  0  0999 V2000
   55.7410   29.7710   43.5370 C   0  0  0  0  0  0  0  0  0  0  0  0
   57.0170   29.1210   42.9940 C   0  0  0  0  0  0  0  0  0  0  0  0
   57.4190   27.9330   43.7700 N   0  0  0  0  0  0  0  0  0  0  0  0
   58.8780   27.8510   43.9480 C   0  0  0  0  0  0  0  0  0  0  0  0
   59.3200   28.6190   45.1940 C   0  0  0  0  0  0  0  0  0  0  0  0
   58.1920   29.2320   45.7840 O   0  0  0  0  0  0  0  0  0  0  0  0
   58.1740   30.6080   45.4660 C   0  0  0  0  0  0  0  0  0  0  0  0
   59.5470   31.2740   45.7260 C   0  0  0  0  0  0  0  0  0  0  0  0
   59.7490   32.1010   46.9800 N   0  0  2  0  0  0  0  0  0  0  0  0
   58.3900   32.2740   47.6070 C   0  0  0  0  0  0  0  0  0  0  0  0
   57.5710   33.5010   47.0930 C   0  0  0  0  0  0  0  0  0  0  0  0
   58.0610   34.1240   45.7710 C   0  0  0  0  0  0  0  0  0  0  0  0
   59.5920   34.2960   45.6930 C   0  0  0  0  0  0  0  0  0  0  0  0
   60.3100   33.4840   46.7890 C   0  0  2  0  0  0  0  0  0  0  0  0
   61.8520   33.5170   46.7490 C   0  0  0  0  0  0  0  0  0  0  0  0
   62.4450   33.0580   48.0530 N   0  0  2  0  0  0  0  0  0  0  0  0
   62.8800   34.1960   48.8890 C   0  0  0  0  0  0  0  0  0  0  0  0
   64.0350   33.6750   49.7230 C   0  0  0  0  0  0  0  0  0  0  0  0
   64.5640   32.5080   49.0230 N   0  0  0  0  0  0  0  0  0  0  0  0
   63.7240   32.3410   47.8330 C   0  0  0  0  0  0  0  0  0  0  0  0
   61.5010   32.1890   48.8400 C   0  0  0  0  0  0  0  0  0  0  0  0
   60.6100   31.3120   47.9340 C   0  0  0  0  0  0  0  0  0  0  0  0
   55.7632   29.7597   44.6367 H   0  0  0  0  0  0  0  0  0  0  0  0
   55.6794   30.8104   43.1821 H   0  0  0  0  0  0  0  0  0  0  0  0
   54.8640   29.2098   43.1821 H   0  0  0  0  0  0  0  0  0  0  0  0
   56.8427   28.8187   41.9508 H   0  0  0  0  0  0  0  0  0  0  0  0
   57.8277   29.8605   43.0703 H   0  0  0  0  0  0  0  0  0  0  0  0
   57.0660   27.0650   43.3020 H   0  0  0  0  0  0  0  0  0  0  0  0
   56.9670   28.0020   44.7130 H   0  0  0  0  0  0  0  0  0  0  0  0
   59.1691   26.7955   44.0535 H   0  0  0  0  0  0  0  0  0  0  0  0
   59.3648   28.2980   43.0687 H   0  0  0  0  0  0  0  0  0  0  0  0
   59.7788   27.9233   45.9120 H   0  0  0  0  0  0  0  0  0  0  0  0
   60.0553   29.3877   44.9139 H   0  0  0  0  0  0  0  0  0  0  0  0
   57.9168   30.7248   44.4029 H   0  0  0  0  0  0  0  0  0  0  0  0
   57.4279   31.0986   46.1084 H   0  0  0  0  0  0  0  0  0  0  0  0
   60.2945   30.4674   45.7507 H   0  0  0  0  0  0  0  0  0  0  0  0
   59.6353   32.0103   44.9135 H   0  0  0  0  0  0  0  0  0  0  0  0
   57.8040   31.3652   47.4051 H   0  0  0  0  0  0  0  0  0  0  0  0
   58.5686   32.4533   48.6775 H   0  0  0  0  0  0  0  0  0  0  0  0
   56.5301   33.1761   46.9484 H   0  0  0  0  0  0  0  0  0  0  0  0
   57.6915   34.2836   47.8566 H   0  0  0  0  0  0  0  0  0  0  0  0
   57.7424   33.4743   44.9425 H   0  0  0  0  0  0  0  0  0  0  0  0
   57.6222   35.1308   45.7095 H   0  0  0  0  0  0  0  0  0  0  0  0
   59.9403   33.9522   44.7079 H   0  0  0  0  0  0  0  0  0  0  0  0
   59.8271   35.3601   45.8430 H   0  0  0  0  0  0  0  0  0  0  0  0
   60.0683   34.0416   47.7059 H   0  0  0  0  0  0  0  0  0  0  0  0
   62.2033   32.8553   45.9435 H   0  0  0  0  0  0  0  0  0  0  0  0
   62.1715   34.5542   46.5696 H   0  0  0  0  0  0  0  0  0  0  0  0
   63.2108   35.0325   48.2559 H   0  0  0  0  0  0  0  0  0  0  0  0
   62.0613   34.5726   49.5198 H   0  0  0  0  0  0  0  0  0  0  0  0
   64.8136   34.4464   49.8164 H   0  0  0  0  0  0  0  0  0  0  0  0
   63.7032   33.4112   50.7380 H   0  0  0  0  0  0  0  0  0  0  0  0
   65.5460   32.7060   48.7200 H   0  0  0  0  0  0  0  0  0  0  0  0
   64.2375   32.7599   46.9550 H   0  0  0  0  0  0  0  0  0  0  0  0
   63.5306   31.2727   47.6562 H   0  0  0  0  0  0  0  0  0  0  0  0
   62.0905   31.5325   49.4968 H   0  0  0  0  0  0  0  0  0  0  0  0
   60.8401   32.8516   49.4180 H   0  0  0  0  0  0  0  0  0  0  0  0
   61.2606   30.6480   47.3459 H   0  0  0  0  0  0  0  0  0  0  0  0
   59.9291   30.7563   48.5955 H   0  0  0  0  0  0  0  0  0  0  0  0
  1  2  1  0
  2  3  1  0
  3  4  1  0
  4  5  1  0
  5  6  1  0
  6  7  1  0
  7  8  1  0
  9  8  1  6
  9 10  1  0
 10 11  1  0
 11 12  1  0
 12 13  1  0
 13 14  1  0
 14 15  1  0
 16 15  1  6
 16 17  1  0
 17 18  1  0
 18 19  1  0
 19 20  1  0
 16 21  1  0
 21 22  1  0
 14  9  1  0
 20 16  1  0
 22  9  1  0
  1 23  1  0
  1 24  1  0
  1 25  1  0
  2 26  1  0
  2 27  1  0
  3 28  1  0
  3 29  1  0
  4 30  1  0
  4 31  1  0
  5 32  1  0
  5 33  1  0
  7 34  1  0
  7 35  1  0
  8 36  1  0
  8 37  1  0
 10 38  1  0
 10 39  1  0
 11 40  1  0
 11 41  1  0
 12 42  1  0
 12 43  1  0
 13 44  1  0
 13 45  1  0
 14 46  1  1
 15 47  1  0
 15 48  1  0
 17 49  1  0
 17 50  1  0
 18 51  1  0
 18 52  1  0
 19 53  1  0
 20 54  1  0
 20 55  1  0
 21 56  1  0
 21 57  1  0
 22 58  1  0
 22 59  1  0
M  CHG  3   3   1   9   1  16   1
M  END
>  <UniqueID>  (7) 
7

>  <SMILES>  (7) 
CC[NH2+]CCOCC[N@+]12CCCC[C@@H]1C[N+]1(CCNC1)CC2

>  <Energy>  (7) 
107.6442134249952

>  <Genealogy>  (7) 
CC[NH2+]CCOCC[N+]12CCCCC1C[N+]1(CCNC1)CC2 (protonated)
CC[NH2+]CCOCC[N@+]12CCCC[C@@H]1C[N+]1(CCNC1)CC2 (chirality)
CC[NH2+]CCOCC[N@+]12CCCC[C@@H]1C[N+]1(CCNC1)CC2 (3D coordinates assigned)
CC[NH2+]CCOCC[N@+]12CCCC[C@@H]1C[N+]1(CCNC1)CC2 (nonaromatic ring conformer: 107.6442134249952 kcal/mol)

>  <smiles>  (7) 
CCNCCOCC[N+]12CCCCC1C[N+]1(CCNC1)CC2

>  <score_type>  (7) 
oracle

>  <origin>  (7) 
adg

>  <m_score__min__energy>  (7) 
-3.1499999999999999

>  <m_primary>  (7) 
energy

$$$$
7:0
     RDKit          3D

 49 51  0  0  0  0  0  0  0  0999 V2000
   62.1250   33.8650   46.6090 C   0  0  0  0  0  0  0  0  0  0  0  0
   63.6090   33.5190   46.7140 C   0  0  0  0  0  0  0  0  0  0  0  0
   63.8020   32.2400   47.4150 N   0  0  0  0  0  0  0  0  0  0  0  0
   62.6060   31.8970   48.2010 C   0  0  0  0  0  0  0  0  0  0  0  0
   61.6740   30.9060   47.4710 C   0  0  0  0  0  0  0  0  0  0  0  0
   60.7800   30.0300   48.3700 C   0  0  0  0  0  0  0  0  0  0  0  0
   59.3480   30.2410   48.1290 N   0  0  0  0  0  0  0  0  0  0  0  0
   58.7920   30.5290   46.8320 C   0  0  0  0  0  0  0  0  0  0  0  0
   58.6350   31.8560   46.3940 C   0  0  0  0  0  0  0  0  0  0  0  0
   58.8640   32.9420   47.2650 C   0  0  0  0  0  0  0  0  0  0  0  0
   58.8220   34.2520   46.7960 C   0  0  0  0  0  0  0  0  0  0  0  0
   58.5430   34.5030   45.4590 C   0  0  0  0  0  0  0  0  0  0  0  0
   58.2430   33.4490   44.5960 C   0  0  0  0  0  0  0  0  0  0  0  0
   58.2220   32.1080   45.0580 C   0  0  0  0  0  0  0  0  0  0  0  0
   57.8210   31.0640   44.2460 N   0  0  0  0  0  0  0  0  0  0  0  0
   57.1170   31.3470   42.9750 C   0  0  0  0  0  0  0  0  0  0  0  0
   58.0330   29.7550   44.6420 C   0  0  0  0  0  0  0  0  0  0  0  0
   57.8560   28.6680   43.7470 C   0  0  0  0  0  0  0  0  0  0  0  0
   58.0310   27.3370   44.1620 C   0  0  0  0  0  0  0  0  0  0  0  0
   57.8360   26.2450   43.2420 N   0  0  0  0  0  0  0  0  0  0  0  0
   57.4020   25.1440   43.6390 O   0  0  0  0  0  0  0  0  0  0  0  0
   58.1340   26.3960   41.9060 O   0  0  0  0  0  0  0  0  0  0  0  0
   58.4090   27.0820   45.4830 C   0  0  0  0  0  0  0  0  0  0  0  0
   58.6370   28.1320   46.3670 C   0  0  0  0  0  0  0  0  0  0  0  0
   58.4720   29.4710   45.9610 C   0  0  0  0  0  0  0  0  0  0  0  0
   61.6993   33.9642   47.6184 H   0  0  0  0  0  0  0  0  0  0  0  0
   62.0074   34.8147   46.0665 H   0  0  0  0  0  0  0  0  0  0  0  0
   61.5995   33.0653   46.0665 H   0  0  0  0  0  0  0  0  0  0  0  0
   64.0334   33.4426   45.7020 H   0  0  0  0  0  0  0  0  0  0  0  0
   64.1151   34.3119   47.2842 H   0  0  0  0  0  0  0  0  0  0  0  0
   64.6220   32.3420   48.0540 H   0  0  0  0  0  0  0  0  0  0  0  0
   63.9900   31.4850   46.7140 H   0  0  0  0  0  0  0  0  0  0  0  0
   62.9274   31.4431   49.1500 H   0  0  0  0  0  0  0  0  0  0  0  0
   62.0394   32.8256   48.3640 H   0  0  0  0  0  0  0  0  0  0  0  0
   61.0168   31.4883   46.8084 H   0  0  0  0  0  0  0  0  0  0  0  0
   62.3399   30.2066   46.9444 H   0  0  0  0  0  0  0  0  0  0  0  0
   61.0165   28.9732   48.1773 H   0  0  0  0  0  0  0  0  0  0  0  0
   60.9844   30.3111   49.4136 H   0  0  0  0  0  0  0  0  0  0  0  0
   58.6890   30.1170   48.9300 H   0  0  0  0  0  0  0  0  0  0  0  0
   59.0782   32.7514   48.3270 H   0  0  0  0  0  0  0  0  0  0  0  0
   59.0099   35.0888   47.4848 H   0  0  0  0  0  0  0  0  0  0  0  0
   58.5586   35.5354   45.0796 H   0  0  0  0  0  0  0  0  0  0  0  0
   58.0191   33.6611   43.5401 H   0  0  0  0  0  0  0  0  0  0  0  0
   56.1164   31.7492   43.1918 H   0  0  0  0  0  0  0  0  0  0  0  0
   57.6907   32.0844   42.3944 H   0  0  0  0  0  0  0  0  0  0  0  0
   57.0207   30.4177   42.3944 H   0  0  0  0  0  0  0  0  0  0  0  0
   57.5750   28.8723   42.7033 H   0  0  0  0  0  0  0  0  0  0  0  0
   58.5271   26.0437   45.8264 H   0  0  0  0  0  0  0  0  0  0  0  0
   58.9508   27.9134   47.3984 H   0  0  0  0  0  0  0  0  0  0  0  0
  1  2  1  0
  2  3  1  0
  3  4  1  0
  4  5  1  0
  5  6  1  0
  6  7  1  0
  7  8  1  0
  8  9  2  0
  9 10  1  0
 10 11  2  0
 11 12  1  0
 12 13  2  0
 13 14  1  0
 14 15  2  0
 15 16  1  0
 15 17  1  0
 17 18  2  0
 18 19  1  0
 19 20  1  0
 20 21  2  0
 20 22  1  0
 19 23  2  0
 23 24  1  0
 24 25  2  0
 25  8  1  0
 14  9  1  0
 25 17  1  0
  1 26  1  0
  1 27  1  0
  1 28  1  0
  2 29  1  0
  2 30  1  0
  3 31  1  0
  3 32  1  0
  4 33  1  0
  4 34  1  0
  5 35  1  0
  5 36  1  0
  6 37  1  0
  6 38  1  0
  7 39  1  0
 10 40  1  0
 11 41  1  0
 12 42  1  0
 13 43  1  0
 16 44  1  0
 16 45  1  0
 16 46  1  0
 18 47  1  0
 23 48  1  0
 24 49  1  0
M  CHG  4   3   1  15   1  20   1  22  -1
M  END
>  <UniqueID>  (8) 
8

>  <SMILES>  (8) 
CC[NH2+]CCCNc1c2ccccc2[n+](C)c2cc([N+](=O)[O-])ccc12

>  <Energy>  (8) 
72.24879883354443

>  <Genealogy>  (8) 
CC[NH2+]CCCNc1c2ccccc2[n+](C)c2cc([N+](=O)[O-])ccc12 (protonated)
CC[NH2+]CCCNc1c2ccccc2[n+](C)c2cc([N+](=O)[O-])ccc12 (3D coordinates assigned)
CC[NH2+]CCCNc1c2ccccc2[n+](C)c2cc([N+](=O)[O-])ccc12 (optimized conformer: 72.24879883354443 kcal/mol)

>  <smiles>  (8) 
CCNCCCNc1c2ccccc2[n+](C)c2cc([N+](=O)[O-])ccc12

>  <score_type>  (8) 
oracle

>  <origin>  (8) 
adg

>  <m_score__min__energy>  (8) 
-4.8499999999999996

>  <m_primary>  (8) 
energy

$$$$
8:0
     RDKit          3D

 61 63  0  0  0  0  0  0  0  0999 V2000
   63.6570   33.2850   46.8950 C   0  0  0  0  0  0  0  0  0  0  0  0
   62.3260   33.8450   46.3840 C   0  0  0  0  0  0  0  0  0  0  0  0
   61.1870   33.4770   47.2570 N   0  0  1  0  0  0  0  0  0  0  0  0
   61.4480   33.8260   48.6620 C   0  0  0  0  0  0  0  0  0  0  0  0
   59.7420   34.2990   46.7180 S   0  0  0  0  0  0  0  0  0  0  0  0
   58.9030   34.7040   47.8990 O   0  0  0  0  0  0  0  0  0  0  0  0
   60.1100   35.5360   45.9450 O   0  0  0  0  0  0  0  0  0  0  0  0
   58.7950   33.2130   45.7040 C   0  0  0  0  0  0  0  0  0  0  0  0
   58.4560   33.5760   44.3920 C   0  0  0  0  0  0  0  0  0  0  0  0
   57.7740   32.6780   43.5660 C   0  0  0  0  0  0  0  0  0  0  0  0
   57.4430   31.4030   44.0440 C   0  0  0  0  0  0  0  0  0  0  0  0
   57.7780   31.0370   45.3530 C   0  0  0  0  0  0  0  0  0  0  0  0
   58.4400   31.9470   46.1880 C   0  0  0  0  0  0  0  0  0  0  0  0
   57.3810   29.6670   45.8300 C   0  0  0  0  0  0  0  0  0  0  0  0
   57.6030   28.6360   44.7870 N   0  0  0  0  0  0  0  0  0  0  0  0
   58.7580   27.7380   45.0140 C   0  0  0  0  0  0  0  0  0  0  0  0
   60.1200   28.4500   45.2050 C   0  0  0  0  0  0  0  0  0  0  0  0
   60.3550   28.9500   46.6080 C   0  0  0  0  0  0  0  0  0  0  0  0
   59.8050   28.2710   47.7050 C   0  0  0  0  0  0  0  0  0  0  0  0
   59.9950   28.7490   49.0020 C   0  0  0  0  0  0  0  0  0  0  0  0
   60.7620   29.9060   49.2320 C   0  0  0  0  0  0  0  0  0  0  0  0
   60.9700   30.4370   50.6370 C   0  0  0  0  0  0  0  0  0  0  0  0
   62.3860   31.0020   50.8060 C   0  0  0  0  0  0  0  0  0  0  0  0
   59.9110   31.4860   50.9930 C   0  0  0  0  0  0  0  0  0  0  0  0
   61.3410   30.5650   48.1340 C   0  0  0  0  0  0  0  0  0  0  0  0
   61.1460   30.0880   46.8350 C   0  0  0  0  0  0  0  0  0  0  0  0
   57.3850   29.0200   43.3650 C   0  0  0  0  0  0  0  0  0  0  0  0
   56.7280   30.3990   43.1920 C   0  0  0  0  0  0  0  0  0  0  0  0
   63.6567   33.2851   47.9950 H   0  0  0  0  0  0  0  0  0  0  0  0
   63.7868   32.2560   46.5285 H   0  0  0  0  0  0  0  0  0  0  0  0
   64.4834   33.9117   46.5285 H   0  0  0  0  0  0  0  0  0  0  0  0
   62.3976   34.9418   46.3400 H   0  0  0  0  0  0  0  0  0  0  0  0
   62.1399   33.4135   45.3895 H   0  0  0  0  0  0  0  0  0  0  0  0
   61.0040   32.4490   47.1910 H   0  0  0  0  0  0  0  0  0  0  0  0
   60.9198   33.1197   49.3194 H   0  0  0  0  0  0  0  0  0  0  0  0
   62.5289   33.7717   48.8586 H   0  0  0  0  0  0  0  0  0  0  0  0
   61.0904   34.8475   48.8586 H   0  0  0  0  0  0  0  0  0  0  0  0
   58.7281   34.5716   44.0116 H   0  0  0  0  0  0  0  0  0  0  0  0
   57.4976   32.9716   42.5426 H   0  0  0  0  0  0  0  0  0  0  0  0
   58.6811   31.6672   47.2241 H   0  0  0  0  0  0  0  0  0  0  0  0
   57.9794   29.4112   46.7168 H   0  0  0  0  0  0  0  0  0  0  0  0
   56.3077   29.6857   46.0700 H   0  0  0  0  0  0  0  0  0  0  0  0
   58.5549   27.1442   45.9174 H   0  0  0  0  0  0  0  0  0  0  0  0
   58.8564   27.1311   44.1019 H   0  0  0  0  0  0  0  0  0  0  0  0
   60.9209   27.7399   44.9514 H   0  0  0  0  0  0  0  0  0  0  0  0
   60.1149   29.3320   44.5477 H   0  0  0  0  0  0  0  0  0  0  0  0
   59.2192   27.3544   47.5416 H   0  0  0  0  0  0  0  0  0  0  0  0
   59.5416   28.2171   49.8514 H   0  0  0  0  0  0  0  0  0  0  0  0
   60.8563   29.5956   51.3364 H   0  0  0  0  0  0  0  0  0  0  0  0
   62.6184   31.0947   51.8772 H   0  0  0  0  0  0  0  0  0  0  0  0
   63.1104   30.3240   50.3310 H   0  0  0  0  0  0  0  0  0  0  0  0
   62.4447   31.9924   50.3310 H   0  0  0  0  0  0  0  0  0  0  0  0
   59.8288   31.5674   52.0869 H   0  0  0  0  0  0  0  0  0  0  0  0
   60.2041   32.4598   50.5738 H   0  0  0  0  0  0  0  0  0  0  0  0
   58.9400   31.1837   50.5738 H   0  0  0  0  0  0  0  0  0  0  0  0
   61.9530   31.4641   48.2985 H   0  0  0  0  0  0  0  0  0  0  0  0
   61.6146   30.6067   45.9857 H   0  0  0  0  0  0  0  0  0  0  0  0
   58.3597   29.0331   42.8553 H   0  0  0  0  0  0  0  0  0  0  0  0
   56.6962   28.2789   42.9334 H   0  0  0  0  0  0  0  0  0  0  0  0
   56.7883   30.7042   42.1369 H   0  0  0  0  0  0  0  0  0  0  0  0
   55.6728   30.3435   43.4978 H   0  0  0  0  0  0  0  0  0  0  0  0
  1  2  1  0
  2  3  1  0
  3  4  1  0
  3  5  1  0
  5  6  2  0
  5  7  2  0
  5  8  1  0
  8  9  2  0
  9 10  1  0
 10 11  2  0
 11 12  1  0
 12 13  2  0
 12 14  1  0
 14 15  1  0
 15 16  1  0
 16 17  1  0
 17 18  1  0
 18 19  2  0
 19 20  1  0
 20 21  2  0
 21 22  1  0
 22 23  1  0
 22 24  1  0
 21 25  1  0
 25 26  2  0
 15 27  1  0
 27 28  1  0
 13  8  1  0
 26 18  1  0
 28 11  1  0
  1 29  1  0
  1 30  1  0
  1 31  1  0
  2 32  1  0
  2 33  1  0
  3 34  1  1
  4 35  1  0
  4 36  1  0
  4 37  1  0
  9 38  1  0
 10 39  1  0
 13 40  1  0
 14 41  1  0
 14 42  1  0
 16 43  1  0
 16 44  1  0
 17 45  1  0
 17 46  1  0
 19 47  1  0
 20 48  1  0
 22 49  1  0
 23 50  1  0
 23 51  1  0
 23 52  1  0
 24 53  1  0
 24 54  1  0
 24 55  1  0
 25 56  1  0
 26 57  1  0
 27 58  1  0
 27 59  1  0
 28 60  1  0
 28 61  1  0
M  CHG  1   3   1
M  END
>  <UniqueID>  (9) 
9

>  <SMILES>  (9) 
CC[N@@H+](C)S(=O)(=O)c1ccc2c(c1)CN(CCc1ccc(C(C)C)cc1)CC2

>  <Energy>  (9) 
63.2766147544331

>  <Genealogy>  (9) 
CC[NH+](C)S(=O)(=O)c1ccc2c(c1)CN(CCc1ccc(C(C)C)cc1)CC2 (protonated)
CC[N@@H+](C)S(=O)(=O)c1ccc2c(c1)CN(CCc1ccc(C(C)C)cc1)CC2 (chirality)
CC[N@@H+](C)S(=O)(=O)c1ccc2c(c1)CN(CCc1ccc(C(C)C)cc1)CC2 (3D coordinates assigned)
CC[N@@H+](C)S(=O)(=O)c1ccc2c(c1)CN(CCc1ccc(C(C)C)cc1)CC2 (nonaromatic ring conformer: 63.2766147544331 kcal/mol)

>  <smiles>  (9) 
CCN(C)S(=O)(=O)c1ccc2c(c1)CN(CCc1ccc(C(C)C)cc1)CC2

>  <score_type>  (9) 
oracle

>  <origin>  (9) 
adg

>  <m_score__min__energy>  (9) 
-7.5599999999999996

>  <m_primary>  (9) 
energy

$$$$
9:0
     RDKit          3D

 63 65  0  0  0  0  0  0  0  0999 V2000
   58.5750   33.9670   46.6540 C   0  0  0  0  0  0  0  0  0  0  0  0
   59.7350   34.8600   46.2130 C   0  0  0  0  0  0  0  0  0  0  0  0
   60.9480   34.5930   47.0190 N   0  0  0  0  0  0  0  0  0  0  0  0
   60.5700   34.1670   48.3830 C   0  0  0  0  0  0  0  0  0  0  0  0
   61.7820   33.5570   46.3610 C   0  0  0  0  0  0  0  0  0  0  0  0
   63.2630   33.6330   46.7790 C   0  0  0  0  0  0  0  0  0  0  0  0
   63.7580   32.3900   47.4100 N   0  0  0  0  0  0  0  0  0  0  0  0
   62.9420   31.9910   48.5530 C   0  0  0  0  0  0  0  0  0  0  0  0
   63.2380   32.4990   49.8490 C   0  0  0  0  0  0  0  0  0  0  0  0
   64.2800   33.4360   50.0690 C   0  0  0  0  0  0  0  0  0  0  0  0
   64.5580   33.9200   51.3450 C   0  0  0  0  0  0  0  0  0  0  0  0
   63.8100   33.4950   52.4320 C   0  0  0  0  0  0  0  0  0  0  0  0
   62.7870   32.5690   52.2510 C   0  0  0  0  0  0  0  0  0  0  0  0
   62.4900   32.0430   50.9680 C   0  0  0  0  0  0  0  0  0  0  0  0
   61.4990   31.1050   50.8020 N   0  0  0  0  0  0  0  0  0  0  0  0
   61.0910   30.2850   51.9650 C   0  0  0  0  0  0  0  0  0  0  0  0
   61.0120   30.8260   49.5410 C   0  0  0  0  0  0  0  0  0  0  0  0
   59.7420   30.1990   49.3460 C   0  0  0  0  0  0  0  0  0  0  0  0
   58.7360   30.2220   50.3740 N   0  0  0  0  0  0  0  0  0  0  0  0
   58.1660   31.4710   50.8900 C   0  0  0  0  0  0  0  0  0  0  0  0
   57.0150   31.1990   51.8890 C   0  0  0  0  0  0  0  0  0  0  0  0
   56.6560   29.7710   52.0560 N   0  0  0  0  0  0  0  0  0  0  0  0
   55.2340   29.5710   52.3810 C   0  0  0  0  0  0  0  0  0  0  0  0
   57.5210   29.0580   53.0050 C   0  0  0  0  0  0  0  0  0  0  0  0
   59.3990   29.7000   48.0830 C   0  0  0  0  0  0  0  0  0  0  0  0
   60.2450   29.8790   47.0030 C   0  0  0  0  0  0  0  0  0  0  0  0
   61.4130   30.6170   47.1440 C   0  0  0  0  0  0  0  0  0  0  0  0
   61.8000   31.1500   48.3980 C   0  0  0  0  0  0  0  0  0  0  0  0
   58.5338   33.9353   47.7528 H   0  0  0  0  0  0  0  0  0  0  0  0
   57.6304   34.3733   46.2633 H   0  0  0  0  0  0  0  0  0  0  0  0
   58.7262   32.9499   46.2633 H   0  0  0  0  0  0  0  0  0  0  0  0
   59.9570   34.6639   45.1536 H   0  0  0  0  0  0  0  0  0  0  0  0
   59.4427   35.9105   46.3582 H   0  0  0  0  0  0  0  0  0  0  0  0
   61.1114   34.7772   49.1209 H   0  0  0  0  0  0  0  0  0  0  0  0
   59.4868   34.2995   48.5216 H   0  0  0  0  0  0  0  0  0  0  0  0
   60.8304   33.1073   48.5216 H   0  0  0  0  0  0  0  0  0  0  0  0
   61.3902   32.5654   46.6318 H   0  0  0  0  0  0  0  0  0  0  0  0
   61.7334   33.7308   45.2759 H   0  0  0  0  0  0  0  0  0  0  0  0
   63.8686   33.8348   45.8832 H   0  0  0  0  0  0  0  0  0  0  0  0
   63.3493   34.4347   47.5273 H   0  0  0  0  0  0  0  0  0  0  0  0
   64.7410   32.5390   47.7280 H   0  0  0  0  0  0  0  0  0  0  0  0
   63.8800   31.6360   46.7060 H   0  0  0  0  0  0  0  0  0  0  0  0
   64.8795   33.7868   49.2161 H   0  0  0  0  0  0  0  0  0  0  0  0
   65.3745   34.6425   51.4909 H   0  0  0  0  0  0  0  0  0  0  0  0
   64.0248   33.8891   53.4363 H   0  0  0  0  0  0  0  0  0  0  0  0
   62.1978   32.2390   53.1193 H   0  0  0  0  0  0  0  0  0  0  0  0
   61.3529   30.8114   52.8947 H   0  0  0  0  0  0  0  0  0  0  0  0
   60.0044   30.1173   51.9322 H   0  0  0  0  0  0  0  0  0  0  0  0
   61.6126   29.3171   51.9322 H   0  0  0  0  0  0  0  0  0  0  0  0
   58.3870   29.3080   50.7390 H   0  0  0  0  0  0  0  0  0  0  0  0
   58.9563   32.0401   51.4015 H   0  0  0  0  0  0  0  0  0  0  0  0
   57.7594   32.0413   50.0418 H   0  0  0  0  0  0  0  0  0  0  0  0
   57.3154   31.5926   52.8713 H   0  0  0  0  0  0  0  0  0  0  0  0
   56.1243   31.6938   51.4744 H   0  0  0  0  0  0  0  0  0  0  0  0
   55.1066   29.5531   53.4734 H   0  0  0  0  0  0  0  0  0  0  0  0
   54.6414   30.3946   51.9562 H   0  0  0  0  0  0  0  0  0  0  0  0
   54.8916   28.6159   51.9562 H   0  0  0  0  0  0  0  0  0  0  0  0
   57.2199   29.3062   54.0334 H   0  0  0  0  0  0  0  0  0  0  0  0
   57.4242   27.9738   52.8462 H   0  0  0  0  0  0  0  0  0  0  0  0
   58.5668   29.3599   52.8462 H   0  0  0  0  0  0  0  0  0  0  0  0
   58.4493   29.1614   47.9487 H   0  0  0  0  0  0  0  0  0  0  0  0
   59.9916   29.4351   46.0290 H   0  0  0  0  0  0  0  0  0  0  0  0
   62.0502   30.7911   46.2644 H   0  0  0  0  0  0  0  0  0  0  0  0
  1  2  1  0
  2  3  1  0
  3  4  1  0
  3  5  1  0
  5  6  1  0
  6  7  1  0
  7  8  1  0
  8  9  2  0
  9 10  1  0
 10 11  2  0
 11 12  1  0
 12 13  2  0
 13 14  1  0
 14 15  2  0
 15 16  1  0
 15 17  1  0
 17 18  2  0
 18 19  1  0
 19 20  1  0
 20 21  1  0
 21 22  1  0
 22 23  1  0
 22 24  1  0
 18 25  1  0
 25 26  2  0
 26 27  1  0
 27 28  2  0
 28  8  1  0
 14  9  1  0
 28 17  1  0
  1 29  1  0
  1 30  1  0
  1 31  1  0
  2 32  1  0
  2 33  1  0
  4 34  1  0
  4 35  1  0
  4 36  1  0
  5 37  1  0
  5 38  1  0
  6 39  1  0
  6 40  1  0
  7 41  1  0
  7 42  1  0
 10 43  1  0
 11 44  1  0
 12 45  1  0
 13 46  1  0
 16 47  1  0
 16 48  1  0
 16 49  1  0
 19 50  1  0
 20 51  1  0
 20 52  1  0
 21 53  1  0
 21 54  1  0
 23 55  1  0
 23 56  1  0
 23 57  1  0
 24 58  1  0
 24 59  1  0
 24 60  1  0
 25 61  1  0
 26 62  1  0
 27 63  1  0
M  CHG  2   7   1  15   1
M  END
>  <UniqueID>  (10) 
10

>  <SMILES>  (10) 
CCN(C)CC[NH2+]c1c2ccccc2[n+](C)c2c(NCCN(C)C)cccc12

>  <Energy>  (10) 
104.58556400815675

>  <Genealogy>  (10) 
CCN(C)CC[NH2+]c1c2ccccc2[n+](C)c2c(NCCN(C)C)cccc12 (protonated)
CCN(C)CC[NH2+]c1c2ccccc2[n+](C)c2c(NCCN(C)C)cccc12 (3D coordinates assigned)
CCN(C)CC[NH2+]c1c2ccccc2[n+](C)c2c(NCCN(C)C)cccc12 (optimized conformer: 104.58556400815675 kcal/mol)

>  <smiles>  (10) 
CCN(C)CCNc1c2ccccc2[n+](C)c2c(NCCN(C)C)cccc12

>  <score_type>  (10) 
oracle

>  <origin>  (10) 
adg

>  <m_score__min__energy>  (10) 
-4.2400000000000002

>  <m_primary>  (10) 
energy

$$$$
10:0
     RDKit          3D

 74 77  0  0  0  0  0  0  0  0999 V2000
   59.9930   32.5120   53.2030 C   0  0  0  0  0  0  0  0  0  0  0  0
   60.1520   33.8230   52.4400 C   0  0  0  0  0  0  0  0  0  0  0  0
   59.2140   33.8690   51.3100 N   0  0  0  0  0  0  0  0  0  0  0  0
   58.1810   32.8400   51.4720 C   0  0  0  0  0  0  0  0  0  0  0  0
   58.1080   31.9650   50.2180 C   0  0  0  0  0  0  0  0  0  0  0  0
   59.2650   32.2040   49.3320 N   0  0  0  0  0  0  0  0  0  0  0  0
   59.1140   31.4620   48.0920 C   0  0  0  0  0  0  0  0  0  0  0  0
   58.6420   32.1630   46.9350 C   0  0  0  0  0  0  0  0  0  0  0  0
   58.3530   33.5580   46.9590 C   0  0  0  0  0  0  0  0  0  0  0  0
   57.9350   34.2340   45.8160 C   0  0  0  0  0  0  0  0  0  0  0  0
   57.8000   33.5550   44.6170 C   0  0  0  0  0  0  0  0  0  0  0  0
   58.0510   32.1880   44.5620 C   0  0  0  0  0  0  0  0  0  0  0  0
   58.4340   31.4630   45.7200 C   0  0  0  0  0  0  0  0  0  0  0  0
   58.6080   30.1030   45.6710 N   0  0  0  0  0  0  0  0  0  0  0  0
   58.0400   29.3350   44.5370 C   0  0  0  0  0  0  0  0  0  0  0  0
   59.2720   29.4480   46.6840 C   0  0  0  0  0  0  0  0  0  0  0  0
   59.8030   28.1610   46.4430 C   0  0  0  0  0  0  0  0  0  0  0  0
   60.3780   27.4190   47.4500 C   0  0  0  0  0  0  0  0  0  0  0  0
   60.4260   27.9200   48.7320 C   0  0  0  0  0  0  0  0  0  0  0  0
   59.9810   29.2210   49.0350 C   0  0  0  0  0  0  0  0  0  0  0  0
   59.9940   29.5980   50.4300 N   0  0  0  0  0  0  0  0  0  0  0  0
   61.2060   29.6940   51.2570 C   0  0  0  0  0  0  0  0  0  0  0  0
   62.3940   30.3430   50.5180 C   0  0  0  0  0  0  0  0  0  0  0  0
   62.6380   31.8640   50.7500 C   0  0  0  0  0  0  0  0  0  0  0  0
   63.3290   32.6540   49.6650 N   0  0  0  0  0  0  0  0  0  0  0  0
   64.7780   32.8180   49.9640 C   0  0  0  0  0  0  0  0  0  0  0  0
   63.2130   31.8660   48.3870 C   0  0  0  0  0  0  0  0  0  0  0  0
   63.3110   32.7370   47.1220 C   0  0  0  0  0  0  0  0  0  0  0  0
   62.1660   33.7570   47.0640 C   0  0  0  0  0  0  0  0  0  0  0  0
   61.6040   34.0860   48.4530 C   0  0  0  0  0  0  0  0  0  0  0  0
   62.7040   34.0160   49.5260 C   0  0  0  0  0  0  0  0  0  0  0  0
   59.4480   30.0590   47.9730 C   0  0  0  0  0  0  0  0  0  0  0  0
   60.0172   32.7119   54.2844 H   0  0  0  0  0  0  0  0  0  0  0  0
   59.0319   32.0474   52.9374 H   0  0  0  0  0  0  0  0  0  0  0  0
   60.8152   31.8312   52.9374 H   0  0  0  0  0  0  0  0  0  0  0  0
   59.9465   34.6650   53.1174 H   0  0  0  0  0  0  0  0  0  0  0  0
   61.1805   33.8925   52.0560 H   0  0  0  0  0  0  0  0  0  0  0  0
   58.7380   34.8020   51.3270 H   0  0  0  0  0  0  0  0  0  0  0  0
   58.4270   32.2112   52.3404 H   0  0  0  0  0  0  0  0  0  0  0  0
   57.2077   33.3286   51.6270 H   0  0  0  0  0  0  0  0  0  0  0  0
   58.0989   30.9070   50.5188 H   0  0  0  0  0  0  0  0  0  0  0  0
   57.1899   32.2199   49.6684 H   0  0  0  0  0  0  0  0  0  0  0  0
   59.3690   33.2240   49.1400 H   0  0  0  0  0  0  0  0  0  0  0  0
   60.1610   32.0160   49.8100 H   0  0  0  0  0  0  0  0  0  0  0  0
   58.4627   34.1135   47.9021 H   0  0  0  0  0  0  0  0  0  0  0  0
   57.7115   35.3099   45.8656 H   0  0  0  0  0  0  0  0  0  0  0  0
   57.4947   34.0959   43.7091 H   0  0  0  0  0  0  0  0  0  0  0  0
   57.9507   31.6591   43.6028 H   0  0  0  0  0  0  0  0  0  0  0  0
   57.4279   28.5074   44.9247 H   0  0  0  0  0  0  0  0  0  0  0  0
   57.4133   29.9980   43.9225 H   0  0  0  0  0  0  0  0  0  0  0  0
   58.8575   28.9299   43.9225 H   0  0  0  0  0  0  0  0  0  0  0  0
   59.7559   27.7421   45.4270 H   0  0  0  0  0  0  0  0  0  0  0  0
   60.7988   26.4266   47.2308 H   0  0  0  0  0  0  0  0  0  0  0  0
   60.8222   27.2874   49.5400 H   0  0  0  0  0  0  0  0  0  0  0  0
   59.1000   29.5370   50.9570 H   0  0  0  0  0  0  0  0  0  0  0  0
   60.9754   30.2980   52.1470 H   0  0  0  0  0  0  0  0  0  0  0  0
   61.5048   28.6687   51.5206 H   0  0  0  0  0  0  0  0  0  0  0  0
   63.3057   29.8115   50.8282 H   0  0  0  0  0  0  0  0  0  0  0  0
   62.1417   30.2581   49.4507 H   0  0  0  0  0  0  0  0  0  0  0  0
   61.6552   32.3295   50.9155 H   0  0  0  0  0  0  0  0  0  0  0  0
   63.3381   31.8993   51.5977 H   0  0  0  0  0  0  0  0  0  0  0  0
   64.9279   32.8350   51.0536 H   0  0  0  0  0  0  0  0  0  0  0  0
   65.3394   31.9777   49.5297 H   0  0  0  0  0  0  0  0  0  0  0  0
   65.1374   33.7626   49.5297 H   0  0  0  0  0  0  0  0  0  0  0  0
   64.0224   31.1215   48.3615 H   0  0  0  0  0  0  0  0  0  0  0  0
   62.2177   31.3977   48.3830 H   0  0  0  0  0  0  0  0  0  0  0  0
   64.2708   33.2743   47.1291 H   0  0  0  0  0  0  0  0  0  0  0  0
   63.2411   32.0825   46.2407 H   0  0  0  0  0  0  0  0  0  0  0  0
   62.5418   34.6841   46.6065 H   0  0  0  0  0  0  0  0  0  0  0  0
   61.3529   33.3146   46.4697 H   0  0  0  0  0  0  0  0  0  0  0  0
   61.1807   35.1012   48.4381 H   0  0  0  0  0  0  0  0  0  0  0  0
   60.8275   33.3470   48.6998 H   0  0  0  0  0  0  0  0  0  0  0  0
   63.4934   34.7348   49.2612 H   0  0  0  0  0  0  0  0  0  0  0  0
   62.2280   34.2507   50.4895 H   0  0  0  0  0  0  0  0  0  0  0  0
  1  2  1  0
  2  3  1  0
  3  4  1  0
  4  5  1  0
  5  6  1  0
  6  7  1  0
  7  8  2  0
  8  9  1  0
  9 10  2  0
 10 11  1  0
 11 12  2  0
 12 13  1  0
 13 14  2  0
 14 15  1  0
 14 16  1  0
 16 17  2  0
 17 18  1  0
 18 19  2  0
 19 20  1  0
 20 21  1  0
 21 22  1  0
 22 23  1  0
 23 24  1  0
 24 25  1  0
 25 26  1  0
 25 27  1  0
 27 28  1  0
 28 29  1  0
 29 30  1  0
 30 31  1  0
 20 32  2  0
 32  7  1  0
 13  8  1  0
 32 16  1  0
 31 25  1  0
  1 33  1  0
  1 34  1  0
  1 35  1  0
  2 36  1  0
  2 37  1  0
  3 38  1  0
  4 39  1  0
  4 40  1  0
  5 41  1  0
  5 42  1  0
  6 43  1  0
  6 44  1  0
  9 45  1  0
 10 46  1  0
 11 47  1  0
 12 48  1  0
 15 49  1  0
 15 50  1  0
 15 51  1  0
 17 52  1  0
 18 53  1  0
 19 54  1  0
 21 55  1  0
 22 56  1  0
 22 57  1  0
 23 58  1  0
 23 59  1  0
 24 60  1  0
 24 61  1  0
 26 62  1  0
 26 63  1  0
 26 64  1  0
 27 65  1  0
 27 66  1  0
 28 67  1  0
 28 68  1  0
 29 69  1  0
 29 70  1  0
 30 71  1  0
 30 72  1  0
 31 73  1  0
 31 74  1  0
M  CHG  3   6   1  14   1  25   1
M  END
>  <UniqueID>  (11) 
11

>  <SMILES>  (11) 
CCNCC[NH2+]c1c2ccccc2[n+](C)c2cccc(NCCC[N+]3(C)CCCCC3)c12

>  <Energy>  (11) 
133.55581480957136

>  <Genealogy>  (11) 
CCNCC[NH2+]c1c2ccccc2[n+](C)c2cccc(NCCC[N+]3(C)CCCCC3)c12 (protonated)
CCNCC[NH2+]c1c2ccccc2[n+](C)c2cccc(NCCC[N+]3(C)CCCCC3)c12 (3D coordinates assigned)
CCNCC[NH2+]c1c2ccccc2[n+](C)c2cccc(NCCC[N+]3(C)CCCCC3)c12 (nonaromatic ring conformer: 133.55581480957136 kcal/mol)

>  <smiles>  (11) 
CCNCCNc1c2ccccc2[n+](C)c2cccc(NCCC[N+]3(C)CCCCC3)c12

>  <score_type>  (11) 
oracle

>  <origin>  (11) 
adg

>  <m_score__min__energy>  (11) 
-3.4100000000000001

>  <m_primary>  (11) 
energy

$$$$
11:0
     RDKit          3D

 33 34  0  0  0  0  0  0  0  0999 V2000
   56.4880   30.4780   43.7110 C   0  0  0  0  0  0  0  0  0  0  0  0
   57.0150   31.1840   44.8920 N   0  0  0  0  0  0  0  0  0  0  0  0
   57.9060   30.2860   45.6450 C   0  0  0  0  0  0  0  0  0  0  0  0
   57.7250   32.4190   44.4990 C   0  0  0  0  0  0  0  0  0  0  0  0
   57.0110   33.6610   45.0450 C   0  0  0  0  0  0  0  0  0  0  0  0
   57.9450   34.5700   45.6330 O   0  0  0  0  0  0  0  0  0  0  0  0
   59.0360   34.2270   46.4480 C   0  0  0  0  0  0  0  0  0  0  0  0
   58.7780   33.8950   47.7830 C   0  0  0  0  0  0  0  0  0  0  0  0
   59.8190   33.5560   48.6500 C   0  0  0  0  0  0  0  0  0  0  0  0
   61.1420   33.5370   48.1890 C   0  0  0  0  0  0  0  0  0  0  0  0
   62.1970   33.2030   49.0520 C   0  0  0  0  0  0  0  0  0  0  0  0
   63.5140   33.1860   48.5800 C   0  0  0  0  0  0  0  0  0  0  0  0
   64.9450   32.7310   49.7600 Br  0  0  0  0  0  0  0  0  0  0  0  0
   63.7840   33.5030   47.2450 C   0  0  0  0  0  0  0  0  0  0  0  0
   62.7420   33.8360   46.3760 C   0  0  0  0  0  0  0  0  0  0  0  0
   61.4170   33.8570   46.8380 C   0  0  0  0  0  0  0  0  0  0  0  0
   60.3630   34.1920   45.9740 C   0  0  0  0  0  0  0  0  0  0  0  0
   55.8596   29.6362   44.0372 H   0  0  0  0  0  0  0  0  0  0  0  0
   55.8857   31.1726   43.1070 H   0  0  0  0  0  0  0  0  0  0  0  0
   57.3252   30.0981   43.1070 H   0  0  0  0  0  0  0  0  0  0  0  0
   57.7543   30.4389   46.7237 H   0  0  0  0  0  0  0  0  0  0  0  0
   57.6772   29.2415   45.3870 H   0  0  0  0  0  0  0  0  0  0  0  0
   58.9523   30.5067   45.3870 H   0  0  0  0  0  0  0  0  0  0  0  0
   58.7492   32.3879   44.8991 H   0  0  0  0  0  0  0  0  0  0  0  0
   57.7418   32.4790   43.4008 H   0  0  0  0  0  0  0  0  0  0  0  0
   56.4869   34.1665   44.2206 H   0  0  0  0  0  0  0  0  0  0  0  0
   56.2958   33.3435   45.8180 H   0  0  0  0  0  0  0  0  0  0  0  0
   57.7424   33.9012   48.1539 H   0  0  0  0  0  0  0  0  0  0  0  0
   59.5997   33.3032   49.6978 H   0  0  0  0  0  0  0  0  0  0  0  0
   61.9879   32.9538   50.1028 H   0  0  0  0  0  0  0  0  0  0  0  0
   64.8208   33.4901   46.8777 H   0  0  0  0  0  0  0  0  0  0  0  0
   62.9608   34.0825   45.3265 H   0  0  0  0  0  0  0  0  0  0  0  0
   60.5737   34.4287   44.9206 H   0  0  0  0  0  0  0  0  0  0  0  0
  1  2  1  0
  2  3  1  0
  2  4  1  0
  4  5  1  0
  5  6  1  0
  6  7  1  0
  7  8  2  0
  8  9  1  0
  9 10  2  0
 10 11  1  0
 11 12  2  0
 12 13  1  0
 12 14  1  0
 14 15  2  0
 15 16  1  0
 16 17  2  0
 17  7  1  0
 16 10  1  0
  1 18  1  0
  1 19  1  0
  1 20  1  0
  3 21  1  0
  3 22  1  0
  3 23  1  0
  4 24  1  0
  4 25  1  0
  5 26  1  0
  5 27  1  0
  8 28  1  0
  9 29  1  0
 11 30  1  0
 14 31  1  0
 15 32  1  0
 17 33  1  0
M  END
>  <UniqueID>  (12) 
12

>  <SMILES>  (12) 
CN(C)CCOc1ccc2cc(Br)ccc2c1

>  <Energy>  (12) 
35.681583385419586

>  <Genealogy>  (12) 
CN(C)CCOc1ccc2cc(Br)ccc2c1 (3D coordinates assigned)
CN(C)CCOc1ccc2cc(Br)ccc2c1 (optimized conformer: 35.681583385419586 kcal/mol)

>  <smiles>  (12) 
CN(C)CCOc1ccc2cc(Br)ccc2c1

>  <score_type>  (12) 
oracle

>  <origin>  (12) 
adg

>  <m_score__min__energy>  (12) 
-6.6699999999999999

>  <m_primary>  (12) 
energy

$$$$
12:0
     RDKit          3D

 40 41  0  0  0  0  0  0  0  0999 V2000
   56.6590   30.7390   43.0000 C   0  0  0  0  0  0  0  0  0  0  0  0
   57.8750   31.2980   43.3990 C   0  0  0  0  0  0  0  0  0  0  0  0
   58.5120   30.8400   44.5560 C   0  0  0  0  0  0  0  0  0  0  0  0
   57.9360   29.8090   45.3260 C   0  0  0  0  0  0  0  0  0  0  0  0
   58.5590   29.3110   46.5280 N   0  0  0  0  0  0  0  0  0  0  0  0
   59.2800   30.1360   47.4980 C   0  0  0  0  0  0  0  0  0  0  0  0
   60.7000   30.4470   46.9930 C   0  0  0  0  0  0  0  0  0  0  0  0
   61.5270   31.0990   48.0290 N   0  0  0  0  0  0  0  0  0  0  0  0
   62.5350   32.0220   47.4680 C   0  0  0  0  0  0  0  0  0  0  0  0
   62.0260   33.4700   47.3610 C   0  0  0  0  0  0  0  0  0  0  0  0
   60.5910   33.7880   48.4540 S   0  0  0  0  0  0  0  0  0  0  0  0
   59.3860   33.9190   47.1300 C   0  0  0  0  0  0  0  0  0  0  0  0
   58.1030   33.3790   47.2900 C   0  0  0  0  0  0  0  0  0  0  0  0
   57.1700   33.4710   46.2530 C   0  0  0  0  0  0  0  0  0  0  0  0
   57.5190   34.0930   45.0500 C   0  0  0  0  0  0  0  0  0  0  0  0
   58.8030   34.6210   44.8830 C   0  0  0  0  0  0  0  0  0  0  0  0
   59.7380   34.5300   45.9190 C   0  0  0  0  0  0  0  0  0  0  0  0
   56.7100   29.2610   44.9160 C   0  0  0  0  0  0  0  0  0  0  0  0
   56.0760   29.7230   43.7590 C   0  0  0  0  0  0  0  0  0  0  0  0
   56.1608   31.0993   42.0879 H   0  0  0  0  0  0  0  0  0  0  0  0
   58.3325   32.1004   42.8016 H   0  0  0  0  0  0  0  0  0  0  0  0
   59.4679   31.2865   44.8673 H   0  0  0  0  0  0  0  0  0  0  0  0
   58.4890   28.2880   46.7350 H   0  0  0  0  0  0  0  0  0  0  0  0
   58.7343   31.0794   47.6470 H   0  0  0  0  0  0  0  0  0  0  0  0
   59.3533   29.5856   48.4476 H   0  0  0  0  0  0  0  0  0  0  0  0
   61.1840   29.5059   46.6930 H   0  0  0  0  0  0  0  0  0  0  0  0
   60.6134   31.1395   46.1428 H   0  0  0  0  0  0  0  0  0  0  0  0
   62.0170   30.3690   48.5980 H   0  0  0  0  0  0  0  0  0  0  0  0
   60.8980   31.6130   48.6880 H   0  0  0  0  0  0  0  0  0  0  0  0
   63.4229   32.0090   48.1172 H   0  0  0  0  0  0  0  0  0  0  0  0
   62.7679   31.6775   46.4496 H   0  0  0  0  0  0  0  0  0  0  0  0
   62.8416   34.1528   47.6412 H   0  0  0  0  0  0  0  0  0  0  0  0
   61.7005   33.6354   46.3234 H   0  0  0  0  0  0  0  0  0  0  0  0
   57.8296   32.8822   48.2326 H   0  0  0  0  0  0  0  0  0  0  0  0
   56.1606   33.0538   46.3833 H   0  0  0  0  0  0  0  0  0  0  0  0
   56.7836   34.1669   44.2353 H   0  0  0  0  0  0  0  0  0  0  0  0
   59.0779   35.1083   43.9359 H   0  0  0  0  0  0  0  0  0  0  0  0
   60.7504   34.9383   45.7832 H   0  0  0  0  0  0  0  0  0  0  0  0
   56.2443   28.4611   45.5105 H   0  0  0  0  0  0  0  0  0  0  0  0
   55.1165   29.2853   43.4463 H   0  0  0  0  0  0  0  0  0  0  0  0
  1  2  2  0
  2  3  1  0
  3  4  2  0
  4  5  1  0
  5  6  1  0
  6  7  1  0
  7  8  1  0
  8  9  1  0
  9 10  1  0
 10 11  1  0
 11 12  1  0
 12 13  2  0
 13 14  1  0
 14 15  2  0
 15 16  1  0
 16 17  2  0
  4 18  1  0
 18 19  2  0
 19  1  1  0
 17 12  1  0
  1 20  1  0
  2 21  1  0
  3 22  1  0
  5 23  1  0
  6 24  1  0
  6 25  1  0
  7 26  1  0
  7 27  1  0
  8 28  1  0
  8 29  1  0
  9 30  1  0
  9 31  1  0
 10 32  1  0
 10 33  1  0
 13 34  1  0
 14 35  1  0
 15 36  1  0
 16 37  1  0
 17 38  1  0
 18 39  1  0
 19 40  1  0
M  CHG  1   8   1
M  END
>  <UniqueID>  (13) 
13

>  <SMILES>  (13) 
c1ccc(NCC[NH2+]CCSc2ccccc2)cc1

>  <Energy>  (13) 
36.145390469277906

>  <Genealogy>  (13) 
c1ccc(NCC[NH2+]CCSc2ccccc2)cc1 (protonated)
c1ccc(NCC[NH2+]CCSc2ccccc2)cc1 (3D coordinates assigned)
c1ccc(NCC[NH2+]CCSc2ccccc2)cc1 (optimized conformer: 36.145390469277906 kcal/mol)

>  <smiles>  (13) 
c1ccc(NCCNCCSc2ccccc2)cc1

>  <score_type>  (13) 
oracle

>  <origin>  (13) 
adg

>  <m_score__min__energy>  (13) 
-5.5800000000000001

>  <m_primary>  (13) 
energy

$$$$
13:0
     RDKit          3D

 38 39  0  0  0  0  0  0  0  0999 V2000
   60.0269   30.5548   47.5755 H   0  0  0  0  0  0  0  0  0  0  0  0
   59.2740   30.5280   46.7740 C   0  0  0  0  0  0  0  0  0  0  0  0
   59.0260   31.6680   45.9810 C   0  0  0  0  0  0  0  0  0  0  0  0
   59.8060   32.9290   46.2430 C   0  0  0  0  0  0  0  0  0  0  0  0
   59.9010   33.0826   47.3281 H   0  0  0  0  0  0  0  0  0  0  0  0
   60.8072   32.8403   45.7962 H   0  0  0  0  0  0  0  0  0  0  0  0
   59.2796   33.7853   45.7962 H   0  0  0  0  0  0  0  0  0  0  0  0
   58.0430   31.6110   44.9480 C   0  0  0  0  0  0  0  0  0  0  0  0
   57.7530   32.8100   44.0830 C   0  0  0  0  0  0  0  0  0  0  0  0
   57.5424   33.6805   44.7216 H   0  0  0  0  0  0  0  0  0  0  0  0
   58.6254   33.0236   43.4479 H   0  0  0  0  0  0  0  0  0  0  0  0
   56.8794   32.6013   43.4479 H   0  0  0  0  0  0  0  0  0  0  0  0
   57.3270   30.4130   44.7240 C   0  0  0  0  0  0  0  0  0  0  0  0
   56.5693   30.3577   43.9285 H   0  0  0  0  0  0  0  0  0  0  0  0
   57.5930   29.3020   45.5240 C   0  0  0  0  0  0  0  0  0  0  0  0
   58.5480   29.3710   46.5220 C   0  0  0  0  0  0  0  0  0  0  0  0
   58.6400   27.8870   47.3060 S   0  0  0  0  0  0  0  0  0  0  0  0
   57.4350   27.2070   46.3170 C   0  0  0  0  0  0  0  0  0  0  0  0
   56.9730   25.9910   46.3850 N   0  0  0  0  0  0  0  0  0  0  0  0
   55.6530   25.5370   46.0510 C   0  0  0  0  0  0  0  0  0  0  0  0
   54.7700   26.3370   45.6380 O   0  0  0  0  0  0  0  0  0  0  0  0
   55.3450   24.1490   46.2040 N   0  0  0  0  0  0  0  0  0  0  0  0
   54.8710   23.2970   45.1170 C   0  0  0  0  0  0  0  0  0  0  0  0
   53.8723   23.6351   44.8035 H   0  0  0  0  0  0  0  0  0  0  0  0
   54.8291   22.2583   45.4768 H   0  0  0  0  0  0  0  0  0  0  0  0
   55.8190   23.3620   43.9220 C   0  0  0  0  0  0  0  0  0  0  0  0
   56.8122   23.6931   44.2594 H   0  0  0  0  0  0  0  0  0  0  0  0
   55.4271   24.0746   43.1813 H   0  0  0  0  0  0  0  0  0  0  0  0
   55.9240   22.0810   43.3340 O   0  0  0  0  0  0  0  0  0  0  0  0
   57.2620   21.6250   43.3710 C   0  0  0  0  0  0  0  0  0  0  0  0
   57.7133   21.7418   42.3747 H   0  0  0  0  0  0  0  0  0  0  0  0
   57.2720   20.5653   43.6660 H   0  0  0  0  0  0  0  0  0  0  0  0
   58.0650   22.4310   44.3850 C   0  0  0  0  0  0  0  0  0  0  0  0
   57.7712   22.1361   45.4032 H   0  0  0  0  0  0  0  0  0  0  0  0
   59.1380   22.2354   44.2418 H   0  0  0  0  0  0  0  0  0  0  0  0
   57.8654   23.5032   44.2418 H   0  0  0  0  0  0  0  0  0  0  0  0
   56.9730   28.0990   45.4080 N   0  0  0  0  0  0  0  0  0  0  0  0
   56.2300   27.8870   44.7050 H   0  0  0  0  0  0  0  0  0  0  0  0
  1  2  1  0
  2  3  2  0
  3  4  1  0
  4  5  1  0
  4  6  1  0
  4  7  1  0
  3  8  1  0
  8  9  1  0
  9 10  1  0
  9 11  1  0
  9 12  1  0
  8 13  2  0
 13 14  1  0
 13 15  1  0
 15 16  2  0
 16 17  1  0
 17 18  1  0
 18 19  2  0
 19 20  1  0
 20 21  2  0
 20 22  1  0
 22 23  1  0
 23 24  1  0
 23 25  1  0
 23 26  1  0
 26 27  1  0
 26 28  1  0
 26 29  1  0
 29 30  1  0
 30 31  1  0
 30 32  1  0
 30 33  1  0
 33 34  1  0
 33 35  1  0
 33 36  1  0
 18 37  1  0
 37 38  1  0
 16  2  1  0
 37 15  1  0
M  CHG  1  22  -1
M  END
>  <UniqueID>  (14) 
14

>  <SMILES>  (14) 
CCOCC[N-]C(=O)/N=c1/[nH]c2cc(C)c(C)cc2s1

>  <Energy>  (14) 
70.74370554584782

>  <Genealogy>  (14) 
CCOCC[N-]C(=O)N=c1[nH]c2cc(C)c(C)cc2s1 (protonated)
CCOCC[N-]C(=O)/N=c1/[nH]c2cc(C)c(C)cc2s1 (cis-trans isomerization)
CCOCC[N-]C(=O)/N=c1/[nH]c2cc(C)c(C)cc2s1 (3D coordinates assigned)
CCOCC[N-]C(=O)/N=c1/[nH]c2cc(C)c(C)cc2s1 (optimized conformer: 70.74370554584782 kcal/mol)

>  <smiles>  (14) 
CCOCCNC(=O)N=c1[nH]c2cc(C)c(C)cc2s1

>  <score_type>  (14) 
oracle

>  <origin>  (14) 
adg

>  <m_score__min__energy>  (14) 
-8.7300000000000004

>  <m_primary>  (14) 
energy

$$$$
14:0
     RDKit          3D

 92 95  0  0  0  0  0  0  0  0999 V2000
   59.6450   35.4060   45.6100 C   0  0  0  0  0  0  0  0  0  0  0  0
   59.6810   35.3060   47.1310 C   0  0  0  0  0  0  0  0  0  0  0  0
   60.4930   34.1560   47.5500 N   0  0  0  0  0  0  0  0  0  0  0  0
   61.4200   33.7730   46.4760 C   0  0  0  0  0  0  0  0  0  0  0  0
   62.5220   32.8580   47.0210 C   0  0  0  0  0  0  0  0  0  0  0  0
   62.3100   32.5740   48.4480 N   0  0  0  0  0  0  0  0  0  0  0  0
   63.5580   32.6410   49.2290 C   0  0  0  0  0  0  0  0  0  0  0  0
   63.2450   32.5450   50.7280 C   0  0  0  0  0  0  0  0  0  0  0  0
   62.1500   33.5240   51.1900 C   0  0  0  0  0  0  0  0  0  0  0  0
   60.9590   33.5050   50.3250 N   0  0  0  0  0  0  0  0  0  0  0  0
   59.7230   33.7480   51.0840 C   0  0  0  0  0  0  0  0  0  0  0  0
   58.8290   32.5010   51.0530 C   0  0  0  0  0  0  0  0  0  0  0  0
   58.5100   32.0840   49.6100 C   0  0  0  0  0  0  0  0  0  0  0  0
   59.7320   31.8940   48.7900 N   0  0  0  0  0  0  0  0  0  0  0  0
   59.5380   30.9030   47.7460 C   0  0  0  0  0  0  0  0  0  0  0  0
   58.8340   31.2460   46.5510 C   0  0  0  0  0  0  0  0  0  0  0  0
   58.2160   32.5130   46.3650 C   0  0  0  0  0  0  0  0  0  0  0  0
   57.5140   32.8160   45.2020 C   0  0  0  0  0  0  0  0  0  0  0  0
   57.3960   31.8730   44.1950 C   0  0  0  0  0  0  0  0  0  0  0  0
   57.9940   30.6270   44.3370 C   0  0  0  0  0  0  0  0  0  0  0  0
   58.7420   30.2960   45.4980 C   0  0  0  0  0  0  0  0  0  0  0  0
   59.3470   29.0690   45.6200 N   0  0  0  0  0  0  0  0  0  0  0  0
   59.5440   28.2210   44.4220 C   0  0  0  0  0  0  0  0  0  0  0  0
   59.7770   28.6280   46.8510 C   0  0  0  0  0  0  0  0  0  0  0  0
   59.9950   27.2490   47.0680 C   0  0  0  0  0  0  0  0  0  0  0  0
   60.4710   26.7760   48.2750 C   0  0  0  0  0  0  0  0  0  0  0  0
   60.7830   27.6590   49.2880 C   0  0  0  0  0  0  0  0  0  0  0  0
   60.5900   29.0490   49.1410 C   0  0  0  0  0  0  0  0  0  0  0  0
   61.0120   29.9050   50.1860 O   0  0  0  0  0  0  0  0  0  0  0  0
   62.0340   29.5740   51.1360 C   0  0  0  0  0  0  0  0  0  0  0  0
   61.5050   28.8940   52.4260 C   0  0  0  0  0  0  0  0  0  0  0  0
   62.3390   27.7980   53.0530 N   0  0  0  0  0  0  0  0  0  0  0  0
   62.6180   28.0720   54.4920 C   0  0  0  0  0  0  0  0  0  0  0  0
   63.6620   27.7480   52.3330 C   0  0  0  0  0  0  0  0  0  0  0  0
   64.3380   26.3680   52.3940 C   0  0  0  0  0  0  0  0  0  0  0  0
   63.4720   25.3000   51.7050 C   0  0  0  0  0  0  0  0  0  0  0  0
   61.9850   25.6790   51.6910 C   0  0  0  0  0  0  0  0  0  0  0  0
   61.6140   26.4830   52.9480 C   0  0  0  0  0  0  0  0  0  0  0  0
   59.9820   29.5480   47.9270 C   0  0  0  0  0  0  0  0  0  0  0  0
   59.2859   36.4035   45.3165 H   0  0  0  0  0  0  0  0  0  0  0  0
   60.6566   35.2476   45.2081 H   0  0  0  0  0  0  0  0  0  0  0  0
   58.9665   34.6391   45.2081 H   0  0  0  0  0  0  0  0  0  0  0  0
   60.1171   36.2273   47.5445 H   0  0  0  0  0  0  0  0  0  0  0  0
   58.6548   35.1727   47.5040 H   0  0  0  0  0  0  0  0  0  0  0  0
   61.0710   34.4480   48.3730 H   0  0  0  0  0  0  0  0  0  0  0  0
   60.8638   33.2415   45.6898 H   0  0  0  0  0  0  0  0  0  0  0  0
   61.8828   34.6818   46.0638 H   0  0  0  0  0  0  0  0  0  0  0  0
   62.5143   31.9116   46.4604 H   0  0  0  0  0  0  0  0  0  0  0  0
   63.4906   33.3661   46.9038 H   0  0  0  0  0  0  0  0  0  0  0  0
   61.6550   33.3000   48.8240 H   0  0  0  0  0  0  0  0  0  0  0  0
   64.2139   31.8067   48.9397 H   0  0  0  0  0  0  0  0  0  0  0  0
   64.0602   33.5983   49.0257 H   0  0  0  0  0  0  0  0  0  0  0  0
   62.9120   31.5203   50.9494 H   0  0  0  0  0  0  0  0  0  0  0  0
   64.1655   32.8101   51.2687 H   0  0  0  0  0  0  0  0  0  0  0  0
   61.8456   33.2527   52.2116 H   0  0  0  0  0  0  0  0  0  0  0  0
   62.5742   34.5378   51.1435 H   0  0  0  0  0  0  0  0  0  0  0  0
   61.0760   34.2890   49.6400 H   0  0  0  0  0  0  0  0  0  0  0  0
   59.9780   33.9866   52.1271 H   0  0  0  0  0  0  0  0  0  0  0  0
   59.1812   34.5898   50.6282 H   0  0  0  0  0  0  0  0  0  0  0  0
   59.3485   31.6741   51.5592 H   0  0  0  0  0  0  0  0  0  0  0  0
   57.8843   32.7361   51.5652 H   0  0  0  0  0  0  0  0  0  0  0  0
   57.9493   31.1379   49.6320 H   0  0  0  0  0  0  0  0  0  0  0  0
   57.9218   32.8922   49.1509 H   0  0  0  0  0  0  0  0  0  0  0  0
   60.0990   32.8010   48.4390 H   0  0  0  0  0  0  0  0  0  0  0  0
   60.5410   31.5850   49.3630 H   0  0  0  0  0  0  0  0  0  0  0  0
   58.2945   33.2709   47.1583 H   0  0  0  0  0  0  0  0  0  0  0  0
   57.0518   33.8070   45.0826 H   0  0  0  0  0  0  0  0  0  0  0  0
   56.8289   32.1103   43.2828 H   0  0  0  0  0  0  0  0  0  0  0  0
   57.8860   29.8824   43.5346 H   0  0  0  0  0  0  0  0  0  0  0  0
   59.7826   27.1938   44.7351 H   0  0  0  0  0  0  0  0  0  0  0  0
   58.6230   28.2164   43.8205 H   0  0  0  0  0  0  0  0  0  0  0  0
   60.3727   28.6229   43.8205 H   0  0  0  0  0  0  0  0  0  0  0  0
   59.7809   26.5365   46.2578 H   0  0  0  0  0  0  0  0  0  0  0  0
   60.6014   25.6946   48.4288 H   0  0  0  0  0  0  0  0  0  0  0  0
   61.1918   27.2704   50.2324 H   0  0  0  0  0  0  0  0  0  0  0  0
   62.7464   28.8896   50.6522 H   0  0  0  0  0  0  0  0  0  0  0  0
   62.4980   30.5222   51.4453 H   0  0  0  0  0  0  0  0  0  0  0  0
   61.3816   29.6827   53.1828 H   0  0  0  0  0  0  0  0  0  0  0  0
   60.5838   28.3849   52.1063 H   0  0  0  0  0  0  0  0  0  0  0  0
   61.9726   27.4381   55.1178 H   0  0  0  0  0  0  0  0  0  0  0  0
   63.6729   27.8492   54.7099 H   0  0  0  0  0  0  0  0  0  0  0  0
   62.4143   29.1308   54.7099 H   0  0  0  0  0  0  0  0  0  0  0  0
   63.4947   28.0081   51.2774 H   0  0  0  0  0  0  0  0  0  0  0  0
   64.3325   28.4609   52.8352 H   0  0  0  0  0  0  0  0  0  0  0  0
   65.3130   26.4222   51.8877 H   0  0  0  0  0  0  0  0  0  0  0  0
   64.4674   26.0872   53.4496 H   0  0  0  0  0  0  0  0  0  0  0  0
   63.8166   25.1801   50.6673 H   0  0  0  0  0  0  0  0  0  0  0  0
   63.5762   24.3635   52.2726 H   0  0  0  0  0  0  0  0  0  0  0  0
   61.7765   26.2880   50.7990 H   0  0  0  0  0  0  0  0  0  0  0  0
   61.3864   24.7563   51.6735 H   0  0  0  0  0  0  0  0  0  0  0  0
   60.5323   26.6820   52.9278 H   0  0  0  0  0  0  0  0  0  0  0  0
   61.9099   25.8790   53.8185 H   0  0  0  0  0  0  0  0  0  0  0  0
  1  2  1  0
  2  3  1  0
  3  4  1  0
  4  5  1  0
  5  6  1  0
  6  7  1  0
  7  8  1  0
  8  9  1  0
  9 10  1  0
 10 11  1  0
 11 12  1  0
 12 13  1  0
 13 14  1  0
 14 15  1  0
 15 16  2  0
 16 17  1  0
 17 18  2  0
 18 19  1  0
 19 20  2  0
 20 21  1  0
 21 22  2  0
 22 23  1  0
 22 24  1  0
 24 25  2  0
 25 26  1  0
 26 27  2  0
 27 28  1  0
 28 29  1  0
 29 30  1  0
 30 31  1  0
 31 32  1  0
 32 33  1  0
 32 34  1  0
 34 35  1  0
 35 36  1  0
 36 37  1  0
 37 38  1  0
 28 39  2  0
 39 15  1  0
 21 16  1  0
 39 24  1  0
 38 32  1  0
  1 40  1  0
  1 41  1  0
  1 42  1  0
  2 43  1  0
  2 44  1  0
  3 45  1  0
  4 46  1  0
  4 47  1  0
  5 48  1  0
  5 49  1  0
  6 50  1  0
  7 51  1  0
  7 52  1  0
  8 53  1  0
  8 54  1  0
  9 55  1  0
  9 56  1  0
 10 57  1  0
 11 58  1  0
 11 59  1  0
 12 60  1  0
 12 61  1  0
 13 62  1  0
 13 63  1  0
 14 64  1  0
 14 65  1  0
 17 66  1  0
 18 67  1  0
 19 68  1  0
 20 69  1  0
 23 70  1  0
 23 71  1  0
 23 72  1  0
 25 73  1  0
 26 74  1  0
 27 75  1  0
 30 76  1  0
 30 77  1  0
 31 78  1  0
 31 79  1  0
 33 80  1  0
 33 81  1  0
 33 82  1  0
 34 83  1  0
 34 84  1  0
 35 85  1  0
 35 86  1  0
 36 87  1  0
 36 88  1  0
 37 89  1  0
 37 90  1  0
 38 91  1  0
 38 92  1  0
M  CHG  3  14   1  22   1  32   1
M  END
>  <UniqueID>  (15) 
15

>  <SMILES>  (15) 
CCNCCNCCCNCCC[NH2+]c1c2ccccc2[n+](C)c2cccc(OCC[N+]3(C)CCCCC3)c12

>  <Energy>  (15) 
139.431038533426

>  <Genealogy>  (15) 
CCNCCNCCCNCCC[NH2+]c1c2ccccc2[n+](C)c2cccc(OCC[N+]3(C)CCCCC3)c12 (protonated)
CCNCCNCCCNCCC[NH2+]c1c2ccccc2[n+](C)c2cccc(OCC[N+]3(C)CCCCC3)c12 (3D coordinates assigned)
CCNCCNCCCNCCC[NH2+]c1c2ccccc2[n+](C)c2cccc(OCC[N+]3(C)CCCCC3)c12 (nonaromatic ring conformer: 139.431038533426 kcal/mol)

>  <smiles>  (15) 
CCNCCNCCCNCCCNc1c2ccccc2[n+](C)c2cccc(OCC[N+]3(C)CCCCC3)c12

>  <score_type>  (15) 
oracle

>  <origin>  (15) 
adg

>  <m_score__min__energy>  (15) 
-3.3100000000000001

>  <m_primary>  (15) 
energy

$$$$
15:0
     RDKit          3D

 44 44  0  0  0  0  0  0  0  0999 V2000
   63.3530   33.8100   46.6640 C   0  0  0  0  0  0  0  0  0  0  0  0
   62.1020   33.2330   47.3320 C   0  0  0  0  0  0  0  0  0  0  0  0
   62.0950   31.7620   47.3380 N   0  0  0  0  0  0  0  0  0  0  0  0
   61.1100   31.2100   48.2800 C   0  0  0  0  0  0  0  0  0  0  0  0
   60.1090   30.3210   47.5400 C   0  0  0  0  0  0  0  0  0  0  0  0
   60.3960   30.2970   46.1510 O   0  0  0  0  0  0  0  0  0  0  0  0
   60.0240   29.0550   45.5910 C   0  0  0  0  0  0  0  0  0  0  0  0
   58.8880   29.2650   44.5900 C   0  0  0  0  0  0  0  0  0  0  0  0
   57.5220   29.2880   45.2860 C   0  0  0  0  0  0  0  0  0  0  0  0
   56.7660   30.5000   44.8810 N   0  0  0  0  0  0  0  0  0  0  0  0
   55.5650   30.1390   44.1110 C   0  0  0  0  0  0  0  0  0  0  0  0
   57.6030   31.4550   44.1260 C   0  0  0  0  0  0  0  0  0  0  0  0
   58.0300   32.5810   45.0300 C   0  0  0  0  0  0  0  0  0  0  0  0
   57.7840   32.4980   46.4110 C   0  0  0  0  0  0  0  0  0  0  0  0
   58.2460   33.4990   47.2710 C   0  0  0  0  0  0  0  0  0  0  0  0
   58.9530   34.5900   46.7580 C   0  0  0  0  0  0  0  0  0  0  0  0
   59.1970   34.6820   45.3850 C   0  0  0  0  0  0  0  0  0  0  0  0
   58.7400   33.6820   44.5220 C   0  0  0  0  0  0  0  0  0  0  0  0
   64.0635   34.1377   47.4372 H   0  0  0  0  0  0  0  0  0  0  0  0
   63.8233   33.0379   46.0374 H   0  0  0  0  0  0  0  0  0  0  0  0
   63.0710   34.6690   46.0374 H   0  0  0  0  0  0  0  0  0  0  0  0
   62.0604   33.5903   48.3715 H   0  0  0  0  0  0  0  0  0  0  0  0
   61.2287   33.5693   46.7538 H   0  0  0  0  0  0  0  0  0  0  0  0
   61.8730   31.4190   46.3730 H   0  0  0  0  0  0  0  0  0  0  0  0
   61.6318   30.6127   49.0422 H   0  0  0  0  0  0  0  0  0  0  0  0
   60.5676   32.0392   48.7578 H   0  0  0  0  0  0  0  0  0  0  0  0
   60.1694   29.2979   47.9396 H   0  0  0  0  0  0  0  0  0  0  0  0
   59.0972   30.7270   47.6867 H   0  0  0  0  0  0  0  0  0  0  0  0
   60.8889   28.6117   45.0758 H   0  0  0  0  0  0  0  0  0  0  0  0
   59.6866   28.3794   46.3908 H   0  0  0  0  0  0  0  0  0  0  0  0
   59.0411   30.2230   44.0716 H   0  0  0  0  0  0  0  0  0  0  0  0
   58.8976   28.4276   43.8768 H   0  0  0  0  0  0  0  0  0  0  0  0
   56.9526   28.3912   45.0005 H   0  0  0  0  0  0  0  0  0  0  0  0
   57.6722   29.3035   46.3756 H   0  0  0  0  0  0  0  0  0  0  0  0
   54.7461   29.8928   44.8029 H   0  0  0  0  0  0  0  0  0  0  0  0
   55.2671   30.9873   43.4772 H   0  0  0  0  0  0  0  0  0  0  0  0
   55.7841   29.2670   43.4772 H   0  0  0  0  0  0  0  0  0  0  0  0
   58.4939   30.9363   43.7422 H   0  0  0  0  0  0  0  0  0  0  0  0
   57.0222   31.8630   43.2856 H   0  0  0  0  0  0  0  0  0  0  0  0
   57.2255   31.6418   46.8173 H   0  0  0  0  0  0  0  0  0  0  0  0
   58.0530   33.4278   48.3516 H   0  0  0  0  0  0  0  0  0  0  0  0
   59.3175   35.3765   47.4351 H   0  0  0  0  0  0  0  0  0  0  0  0
   59.7500   35.5435   44.9825 H   0  0  0  0  0  0  0  0  0  0  0  0
   58.9367   33.7571   43.4423 H   0  0  0  0  0  0  0  0  0  0  0  0
  1  2  1  0
  2  3  1  0
  3  4  1  0
  4  5  1  0
  5  6  1  0
  6  7  1  0
  7  8  1  0
  8  9  1  0
  9 10  1  0
 10 11  1  0
 10 12  1  0
 12 13  1  0
 13 14  2  0
 14 15  1  0
 15 16  2  0
 16 17  1  0
 17 18  2  0
 18 13  1  0
  1 19  1  0
  1 20  1  0
  1 21  1  0
  2 22  1  0
  2 23  1  0
  3 24  1  0
  4 25  1  0
  4 26  1  0
  5 27  1  0
  5 28  1  0
  7 29  1  0
  7 30  1  0
  8 31  1  0
  8 32  1  0
  9 33  1  0
  9 34  1  0
 11 35  1  0
 11 36  1  0
 11 37  1  0
 12 38  1  0
 12 39  1  0
 14 40  1  0
 15 41  1  0
 16 42  1  0
 17 43  1  0
 18 44  1  0
M  END
>  <UniqueID>  (16) 
16

>  <SMILES>  (16) 
CCNCCOCCCN(C)Cc1ccccc1

>  <Energy>  (16) 
35.137752638995146

>  <Genealogy>  (16) 
CCNCCOCCCN(C)Cc1ccccc1 (3D coordinates assigned)
CCNCCOCCCN(C)Cc1ccccc1 (optimized conformer: 35.137752638995146 kcal/mol)

>  <smiles>  (16) 
CCNCCOCCCN(C)Cc1ccccc1

>  <score_type>  (16) 
oracle

>  <origin>  (16) 
adg

>  <m_score__min__energy>  (16) 
-6.3200000000000003

>  <m_primary>  (16) 
energy

$$$$
