0:0
     RDKit          3D

 43 45  0  0  0  0  0  0  0  0999 V2000
   65.3540   33.2820   51.0530 C   0  0  0  0  0  0  0  0  0  0  0  0
   64.0570   33.7440   50.6940 O   0  0  0  0  0  0  0  0  0  0  0  0
   63.5460   33.6330   49.3990 C   0  0  0  0  0  0  0  0  0  0  0  0
   62.2150   33.9700   49.1530 C   0  0  0  0  0  0  0  0  0  0  0  0
   61.7130   33.8470   47.8510 C   0  0  0  0  0  0  0  0  0  0  0  0
   60.3460   34.1960   47.5620 N   0  0  0  0  0  0  0  0  0  0  0  0
   60.0050   34.8390   46.2850 C   0  0  0  0  0  0  0  0  0  0  0  0
   58.5370   34.5790   45.9040 C   0  0  0  0  0  0  0  0  0  0  0  0
   58.0990   33.1460   46.2800 C   0  0  0  0  0  0  0  0  0  0  0  0
   58.8490   32.0980   45.4210 C   0  0  0  0  0  0  0  0  0  0  0  0
   57.9080   31.2670   44.5830 C   0  0  0  0  0  0  0  0  0  0  0  0
   57.3170   30.1110   45.1230 C   0  0  0  0  0  0  0  0  0  0  0  0
   56.4520   29.3330   44.3460 C   0  0  0  0  0  0  0  0  0  0  0  0
   56.1690   29.7040   43.0290 C   0  0  0  0  0  0  0  0  0  0  0  0
   56.7510   30.8520   42.4850 C   0  0  0  0  0  0  0  0  0  0  0  0
   57.6160   31.6330   43.2570 C   0  0  0  0  0  0  0  0  0  0  0  0
   58.2700   32.8860   47.8070 C   0  0  0  0  0  0  0  0  0  0  0  0
   59.2660   33.8390   48.4880 C   0  0  0  0  0  0  0  0  0  0  0  0
   62.5410   33.4140   46.8560 N   0  0  0  0  0  0  0  0  0  0  0  0
   63.8360   33.0900   47.1140 C   0  0  0  0  0  0  0  0  0  0  0  0
   64.3280   33.1990   48.3740 N   0  0  0  0  0  0  0  0  0  0  0  0
   65.4417   33.2508   52.1491 H   0  0  0  0  0  0  0  0  0  0  0  0
   65.5101   32.2730   50.6437 H   0  0  0  0  0  0  0  0  0  0  0  0
   66.1129   33.9651   50.6437 H   0  0  0  0  0  0  0  0  0  0  0  0
   61.5694   34.3269   49.9690 H   0  0  0  0  0  0  0  0  0  0  0  0
   60.1652   35.9235   46.3756 H   0  0  0  0  0  0  0  0  0  0  0  0
   60.6483   34.4154   45.4997 H   0  0  0  0  0  0  0  0  0  0  0  0
   57.8971   35.2991   46.4350 H   0  0  0  0  0  0  0  0  0  0  0  0
   58.4377   34.6953   44.8147 H   0  0  0  0  0  0  0  0  0  0  0  0
   57.0266   33.0433   46.0578 H   0  0  0  0  0  0  0  0  0  0  0  0
   59.5483   32.6226   44.7533 H   0  0  0  0  0  0  0  0  0  0  0  0
   59.3801   31.4195   46.1047 H   0  0  0  0  0  0  0  0  0  0  0  0
   57.5356   29.8173   46.1603 H   0  0  0  0  0  0  0  0  0  0  0  0
   55.9942   28.4282   44.7724 H   0  0  0  0  0  0  0  0  0  0  0  0
   55.4875   29.0919   42.4199 H   0  0  0  0  0  0  0  0  0  0  0  0
   56.5281   31.1417   41.4475 H   0  0  0  0  0  0  0  0  0  0  0  0
   58.0700   32.5373   42.8256 H   0  0  0  0  0  0  0  0  0  0  0  0
   57.2895   33.0041   48.2914 H   0  0  0  0  0  0  0  0  0  0  0  0
   58.6722   31.8681   47.9169 H   0  0  0  0  0  0  0  0  0  0  0  0
   58.7385   34.7527   48.7993 H   0  0  0  0  0  0  0  0  0  0  0  0
   59.6993   33.3356   49.3649 H   0  0  0  0  0  0  0  0  0  0  0  0
   62.1960   33.3500   45.8720 H   0  0  0  0  0  0  0  0  0  0  0  0
   64.4865   32.7387   46.2995 H   0  0  0  0  0  0  0  0  0  0  0  0
  1  2  1  0
  2  3  1  0
  3  4  2  0
  4  5  1  0
  5  6  1  0
  6  7  1  0
  7  8  1  0
  8  9  1  0
  9 10  1  0
 10 11  1  0
 11 12  2  0
 12 13  1  0
 13 14  2  0
 14 15  1  0
 15 16  2  0
  9 17  1  0
 17 18  1  0
  5 19  2  0
 19 20  1  0
 20 21  2  0
 21  3  1  0
 18  6  1  0
 16 11  1  0
  1 22  1  0
  1 23  1  0
  1 24  1  0
  4 25  1  0
  7 26  1  0
  7 27  1  0
  8 28  1  0
  8 29  1  0
  9 30  1  0
 10 31  1  0
 10 32  1  0
 12 33  1  0
 13 34  1  0
 14 35  1  0
 15 36  1  0
 16 37  1  0
 17 38  1  0
 17 39  1  0
 18 40  1  0
 18 41  1  0
 19 42  1  0
 20 43  1  0
M  CHG  1  19   1
M  END
>  <UniqueID>  (1) 
1

>  <SMILES>  (1) 
COc1cc(N2CCC(Cc3ccccc3)CC2)[nH+]cn1

>  <Energy>  (1) 
47.45116891943414

>  <Genealogy>  (1) 
COc1cc(N2CCC(Cc3ccccc3)CC2)[nH+]cn1 (protonated)
COc1cc(N2CCC(Cc3ccccc3)CC2)[nH+]cn1 (3D coordinates assigned)
COc1cc(N2CCC(Cc3ccccc3)CC2)[nH+]cn1 (nonaromatic ring conformer: 47.45116891943414 kcal/mol)

>  <smiles>  (1) 
COc1cc(N2CCC(Cc3ccccc3)CC2)ncn1

>  <score_type>  (1) 
oracle

>  <origin>  (1) 
adg

>  <m_score__min__energy>  (1) 
-5.8300000000000001

>  <m_primary>  (1) 
energy

$$$$
1:0
     RDKit          3D

 47 50  0  0  0  0  0  0  0  0999 V2000
   53.7270   24.7820   45.5450 C   0  0  0  0  0  0  0  0  0  0  0  0
   54.7640   25.7390   45.7410 O   0  0  0  0  0  0  0  0  0  0  0  0
   56.1380   25.4560   45.6600 C   0  0  0  0  0  0  0  0  0  0  0  0
   56.6090   24.1540   45.3910 C   0  0  0  0  0  0  0  0  0  0  0  0
   57.9820   23.8850   45.3850 C   0  0  0  0  0  0  0  0  0  0  0  0
   58.8960   24.9050   45.6520 C   0  0  0  0  0  0  0  0  0  0  0  0
   58.4430   26.2010   45.9090 C   0  0  0  0  0  0  0  0  0  0  0  0
   57.0720   26.4940   45.8850 C   0  0  0  0  0  0  0  0  0  0  0  0
   56.6600   27.8420   46.1510 N   0  0  0  0  0  0  0  0  0  0  0  0
   56.7830   28.9430   45.2410 C   0  0  0  0  0  0  0  0  0  0  0  0
   55.7560   29.4980   44.7610 O   0  0  0  0  0  0  0  0  0  0  0  0
   58.1490   29.4420   44.8740 C   0  0  0  0  0  0  0  0  0  0  0  0
   58.5630   30.5340   45.7550 N   0  0  0  0  0  0  0  0  0  0  0  0
   57.8850   31.7630   45.9490 C   0  0  0  0  0  0  0  0  0  0  0  0
   56.9940   32.1960   45.1700 O   0  0  0  0  0  0  0  0  0  0  0  0
   58.2900   32.4580   47.1230 N   0  0  0  0  0  0  0  0  0  0  0  0
   59.2860   31.6240   47.8070 C   0  0  2  0  0  0  0  0  0  0  0  0
   58.7370   31.1820   49.1800 C   0  0  0  0  0  0  0  0  0  0  0  0
   58.8450   32.3130   50.2020 C   0  0  0  0  0  0  0  0  0  0  0  0
   60.3140   32.6670   50.4350 C   0  0  0  0  0  0  0  0  0  0  0  0
   61.0520   32.9260   49.1430 C   0  0  0  0  0  0  0  0  0  0  0  0
   62.2530   33.6530   49.1900 C   0  0  0  0  0  0  0  0  0  0  0  0
   62.9820   33.8940   48.0250 C   0  0  0  0  0  0  0  0  0  0  0  0
   62.5240   33.4100   46.8000 C   0  0  0  0  0  0  0  0  0  0  0  0
   61.3420   32.6690   46.7370 C   0  0  0  0  0  0  0  0  0  0  0  0
   60.6040   32.3880   47.9060 C   0  0  0  0  0  0  0  0  0  0  0  0
   59.3990   30.4220   46.9000 C   0  0  0  0  0  0  0  0  0  0  0  0
   60.1330   29.4220   47.1250 O   0  0  0  0  0  0  0  0  0  0  0  0
   53.3553   24.4389   46.5218 H   0  0  0  0  0  0  0  0  0  0  0  0
   52.9034   25.2441   44.9809 H   0  0  0  0  0  0  0  0  0  0  0  0
   54.1216   23.9240   44.9809 H   0  0  0  0  0  0  0  0  0  0  0  0
   55.8926   23.3452   45.1847 H   0  0  0  0  0  0  0  0  0  0  0  0
   58.3415   22.8680   45.1695 H   0  0  0  0  0  0  0  0  0  0  0  0
   59.9744   24.6882   45.6601 H   0  0  0  0  0  0  0  0  0  0  0  0
   59.1675   26.9981   46.1320 H   0  0  0  0  0  0  0  0  0  0  0  0
   58.8696   28.6156   44.9626 H   0  0  0  0  0  0  0  0  0  0  0  0
   58.1186   29.8180   43.8407 H   0  0  0  0  0  0  0  0  0  0  0  0
   57.6805   30.8960   49.0700 H   0  0  0  0  0  0  0  0  0  0  0  0
   59.3317   30.3284   49.5373 H   0  0  0  0  0  0  0  0  0  0  0  0
   58.3123   33.1980   49.8239 H   0  0  0  0  0  0  0  0  0  0  0  0
   58.3968   31.9861   51.1518 H   0  0  0  0  0  0  0  0  0  0  0  0
   60.3654   33.5712   51.0594 H   0  0  0  0  0  0  0  0  0  0  0  0
   60.7928   31.8095   50.9305 H   0  0  0  0  0  0  0  0  0  0  0  0
   62.6218   34.0355   50.1532 H   0  0  0  0  0  0  0  0  0  0  0  0
   63.9198   34.4669   48.0729 H   0  0  0  0  0  0  0  0  0  0  0  0
   63.0948   33.6123   45.8817 H   0  0  0  0  0  0  0  0  0  0  0  0
   60.9824   32.3003   45.7650 H   0  0  0  0  0  0  0  0  0  0  0  0
  1  2  1  0
  2  3  1  0
  3  4  2  0
  4  5  1  0
  5  6  2  0
  6  7  1  0
  7  8  2  0
  8  9  1  0
  9 10  1  0
 10 11  2  0
 10 12  1  0
 12 13  1  0
 13 14  1  0
 14 15  2  0
 14 16  1  0
 17 16  1  6
 17 18  1  0
 18 19  1  0
 19 20  1  0
 20 21  1  0
 21 22  2  0
 22 23  1  0
 23 24  2  0
 24 25  1  0
 25 26  2  0
 17 27  1  0
 27 28  2  0
  8  3  1  0
 27 13  1  0
 26 17  1  0
 26 21  1  0
  1 29  1  0
  1 30  1  0
  1 31  1  0
  4 32  1  0
  5 33  1  0
  6 34  1  0
  7 35  1  0
 12 36  1  0
 12 37  1  0
 18 38  1  0
 18 39  1  0
 19 40  1  0
 19 41  1  0
 20 42  1  0
 20 43  1  0
 22 44  1  0
 23 45  1  0
 24 46  1  0
 25 47  1  0
M  CHG  2   9  -1  16  -1
M  END
>  <UniqueID>  (2) 
2

>  <SMILES>  (2) 
COc1ccccc1[N-]C(=O)CN1C(=O)[N-][C@@]2(CCCc3ccccc32)C1=O

>  <Energy>  (2) 
74.76395706806528

>  <Genealogy>  (2) 
COc1ccccc1[N-]C(=O)CN1C(=O)[N-]C2(CCCc3ccccc32)C1=O (protonated)
COc1ccccc1[N-]C(=O)CN1C(=O)[N-][C@@]2(CCCc3ccccc32)C1=O (chirality)
COc1ccccc1[N-]C(=O)CN1C(=O)[N-][C@@]2(CCCc3ccccc32)C1=O (3D coordinates assigned)
COc1ccccc1[N-]C(=O)CN1C(=O)[N-][C@@]2(CCCc3ccccc32)C1=O (nonaromatic ring conformer: 74.76395706806528 kcal/mol)

>  <smiles>  (2) 
COc1ccccc1NC(=O)CN1C(=O)NC2(CCCc3ccccc32)C1=O

>  <score_type>  (2) 
oracle

>  <origin>  (2) 
adg

>  <m_score__min__energy>  (2) 
-12.539999999999999

>  <m_primary>  (2) 
energy

$$$$
2:0
     RDKit          3D

 31 33  0  0  0  0  0  0  0  0999 V2000
   58.4950   29.8300   46.6280 C   0  0  0  0  0  0  0  0  0  0  0  0
   57.3990   30.4950   46.0070 O   0  0  0  0  0  0  0  0  0  0  0  0
   57.3960   30.9790   44.6880 C   0  0  0  0  0  0  0  0  0  0  0  0
   56.8350   30.2220   43.6380 C   0  0  0  0  0  0  0  0  0  0  0  0
   56.8350   30.7080   42.3310 C   0  0  0  0  0  0  0  0  0  0  0  0
   57.3910   31.9530   42.0490 C   0  0  0  0  0  0  0  0  0  0  0  0
   57.9510   32.7170   43.0730 C   0  0  0  0  0  0  0  0  0  0  0  0
   57.9640   32.2470   44.4030 C   0  0  0  0  0  0  0  0  0  0  0  0
   58.5730   33.0980   45.4640 C   0  0  0  0  0  0  0  0  0  0  0  0
   57.9500   34.2090   45.9510 N   0  0  0  0  0  0  0  0  0  0  0  0
   58.9860   34.8240   47.0940 S   0  0  0  0  0  0  0  0  0  0  0  0
   60.1840   33.6800   46.9460 C   0  0  0  0  0  0  0  0  0  0  0  0
   61.4560   33.6100   47.6960 C   0  0  0  0  0  0  0  0  0  0  0  0
   62.6220   33.1440   47.0670 C   0  0  0  0  0  0  0  0  0  0  0  0
   63.8180   33.0830   47.7870 C   0  0  0  0  0  0  0  0  0  0  0  0
   63.8550   33.4690   49.0900 N   0  0  0  0  0  0  0  0  0  0  0  0
   62.7410   33.9240   49.7260 C   0  0  0  0  0  0  0  0  0  0  0  0
   61.5240   34.0020   49.0430 C   0  0  0  0  0  0  0  0  0  0  0  0
   59.7990   32.7960   46.0010 N   0  0  0  0  0  0  0  0  0  0  0  0
   58.3906   29.8934   47.7212 H   0  0  0  0  0  0  0  0  0  0  0  0
   58.5045   28.7737   46.3212 H   0  0  0  0  0  0  0  0  0  0  0  0
   59.4363   30.3094   46.3212 H   0  0  0  0  0  0  0  0  0  0  0  0
   56.3929   29.2379   43.8526 H   0  0  0  0  0  0  0  0  0  0  0  0
   56.3951   30.1069   41.5216 H   0  0  0  0  0  0  0  0  0  0  0  0
   57.3887   32.3346   41.0173 H   0  0  0  0  0  0  0  0  0  0  0  0
   58.3883   33.6991   42.8403 H   0  0  0  0  0  0  0  0  0  0  0  0
   62.5939   32.8288   46.0135 H   0  0  0  0  0  0  0  0  0  0  0  0
   64.7339   32.7209   47.2972 H   0  0  0  0  0  0  0  0  0  0  0  0
   64.7560   33.4170   49.6140 H   0  0  0  0  0  0  0  0  0  0  0  0
   62.7986   34.2312   50.7806 H   0  0  0  0  0  0  0  0  0  0  0  0
   60.6238   34.3686   49.5580 H   0  0  0  0  0  0  0  0  0  0  0  0
  1  2  1  0
  2  3  1  0
  3  4  2  0
  4  5  1  0
  5  6  2  0
  6  7  1  0
  7  8  2  0
  8  9  1  0
  9 10  2  0
 10 11  1  0
 11 12  1  0
 12 13  1  0
 13 14  2  0
 14 15  1  0
 15 16  2  0
 16 17  1  0
 17 18  2  0
 12 19  2  0
  8  3  1  0
 19  9  1  0
 18 13  1  0
  1 20  1  0
  1 21  1  0
  1 22  1  0
  4 23  1  0
  5 24  1  0
  6 25  1  0
  7 26  1  0
 14 27  1  0
 15 28  1  0
 16 29  1  0
 17 30  1  0
 18 31  1  0
M  CHG  1  16   1
M  END
>  <UniqueID>  (3) 
3

>  <SMILES>  (3) 
COc1ccccc1-c1nsc(-c2cc[nH+]cc2)n1

>  <Energy>  (3) 
73.50839960626328

>  <Genealogy>  (3) 
COc1ccccc1-c1nsc(-c2cc[nH+]cc2)n1 (protonated)
COc1ccccc1-c1nsc(-c2cc[nH+]cc2)n1 (3D coordinates assigned)
COc1ccccc1-c1nsc(-c2cc[nH+]cc2)n1 (optimized conformer: 73.50839960626328 kcal/mol)

>  <smiles>  (3) 
COc1ccccc1-c1nsc(-c2ccncc2)n1

>  <score_type>  (3) 
oracle

>  <origin>  (3) 
adg

>  <m_score__min__energy>  (3) 
-5.9299999999999997

>  <m_primary>  (3) 
energy

$$$$
3:0
     RDKit          3D

 51 54  0  0  0  0  0  0  0  0999 V2000
   59.9830   25.5210   46.3920 C   0  0  0  0  0  0  0  0  0  0  0  0
   58.8910   26.2280   46.9740 O   0  0  0  0  0  0  0  0  0  0  0  0
   58.4370   27.4910   46.5610 C   0  0  0  0  0  0  0  0  0  0  0  0
   59.2100   28.6460   46.7860 C   0  0  0  0  0  0  0  0  0  0  0  0
   58.7680   29.9050   46.3640 C   0  0  0  0  0  0  0  0  0  0  0  0
   59.5770   31.1180   46.6080 C   0  0  0  0  0  0  0  0  0  0  0  0
   60.6020   31.1370   47.4880 N   0  0  0  0  0  0  0  0  0  0  0  0
   61.0650   32.4050   47.4500 C   0  0  0  0  0  0  0  0  0  0  0  0
   62.1480   32.8920   48.3260 C   0  0  0  0  0  0  0  0  0  0  0  0
   61.8470   33.7710   49.3810 C   0  0  0  0  0  0  0  0  0  0  0  0
   62.8600   34.2290   50.2260 C   0  0  0  0  0  0  0  0  0  0  0  0
   64.1780   33.8050   50.0360 C   0  0  0  0  0  0  0  0  0  0  0  0
   64.4820   32.9130   49.0050 C   0  0  0  0  0  0  0  0  0  0  0  0
   63.4710   32.4510   48.1550 C   0  0  0  0  0  0  0  0  0  0  0  0
   60.3030   33.1430   46.5580 C   0  0  0  0  0  0  0  0  0  0  0  0
   59.3550   32.3320   46.0510 N   0  0  0  0  0  0  0  0  0  0  0  0
   58.2790   32.7530   45.1470 C   0  0  0  0  0  0  0  0  0  0  0  0
   58.0240   34.2610   45.2730 C   0  0  0  0  0  0  0  0  0  0  0  0
   59.3470   35.0380   45.2310 C   0  0  0  0  0  0  0  0  0  0  0  0
   60.2670   34.6380   46.3940 C   0  0  0  0  0  0  0  0  0  0  0  0
   57.5200   30.0190   45.7450 C   0  0  0  0  0  0  0  0  0  0  0  0
   56.7280   28.8820   45.5100 C   0  0  0  0  0  0  0  0  0  0  0  0
   55.4760   28.9690   44.8770 O   0  0  0  0  0  0  0  0  0  0  0  0
   55.2160   29.7180   43.6950 C   0  0  0  0  0  0  0  0  0  0  0  0
   57.1810   27.6140   45.9100 C   0  0  0  0  0  0  0  0  0  0  0  0
   56.3340   26.5240   45.6330 O   0  0  0  0  0  0  0  0  0  0  0  0
   56.7300   25.2350   45.1770 C   0  0  0  0  0  0  0  0  0  0  0  0
   60.6195   25.1089   47.1889 H   0  0  0  0  0  0  0  0  0  0  0  0
   59.5981   24.7003   45.7689 H   0  0  0  0  0  0  0  0  0  0  0  0
   60.5743   26.2081   45.7689 H   0  0  0  0  0  0  0  0  0  0  0  0
   60.1774   28.5574   47.3020 H   0  0  0  0  0  0  0  0  0  0  0  0
   60.8095   34.0993   49.5415 H   0  0  0  0  0  0  0  0  0  0  0  0
   62.6200   34.9252   51.0431 H   0  0  0  0  0  0  0  0  0  0  0  0
   64.9755   34.1735   50.6980 H   0  0  0  0  0  0  0  0  0  0  0  0
   65.5182   32.5730   48.8610 H   0  0  0  0  0  0  0  0  0  0  0  0
   63.7127   31.7406   47.3507 H   0  0  0  0  0  0  0  0  0  0  0  0
   58.5662   32.5206   44.1109 H   0  0  0  0  0  0  0  0  0  0  0  0
   57.3587   32.2147   45.4177 H   0  0  0  0  0  0  0  0  0  0  0  0
   57.3848   34.5903   44.4406 H   0  0  0  0  0  0  0  0  0  0  0  0
   57.5277   34.4576   46.2348 H   0  0  0  0  0  0  0  0  0  0  0  0
   59.8578   34.8245   44.2805 H   0  0  0  0  0  0  0  0  0  0  0  0
   59.1221   36.1111   45.3198 H   0  0  0  0  0  0  0  0  0  0  0  0
   61.2846   35.0029   46.1906 H   0  0  0  0  0  0  0  0  0  0  0  0
   59.8777   35.0847   47.3208 H   0  0  0  0  0  0  0  0  0  0  0  0
   57.1536   31.0098   45.4383 H   0  0  0  0  0  0  0  0  0  0  0  0
   54.8666   30.7246   43.9682 H   0  0  0  0  0  0  0  0  0  0  0  0
   56.1387   29.7987   43.1016 H   0  0  0  0  0  0  0  0  0  0  0  0
   54.4418   29.2096   43.1016 H   0  0  0  0  0  0  0  0  0  0  0  0
   56.9296   24.5854   46.0420 H   0  0  0  0  0  0  0  0  0  0  0  0
   55.9247   24.7980   44.5683 H   0  0  0  0  0  0  0  0  0  0  0  0
   57.6418   25.3255   44.5683 H   0  0  0  0  0  0  0  0  0  0  0  0
  1  2  1  0
  2  3  1  0
  3  4  2  0
  4  5  1  0
  5  6  1  0
  6  7  2  0
  7  8  1  0
  8  9  1  0
  9 10  2  0
 10 11  1  0
 11 12  2  0
 12 13  1  0
 13 14  2  0
  8 15  2  0
 15 16  1  0
 16 17  1  0
 17 18  1  0
 18 19  1  0
 19 20  1  0
  5 21  2  0
 21 22  1  0
 22 23  1  0
 23 24  1  0
 22 25  2  0
 25 26  1  0
 26 27  1  0
 25  3  1  0
 16  6  1  0
 14  9  1  0
 20 15  1  0
  1 28  1  0
  1 29  1  0
  1 30  1  0
  4 31  1  0
 10 32  1  0
 11 33  1  0
 12 34  1  0
 13 35  1  0
 14 36  1  0
 17 37  1  0
 17 38  1  0
 18 39  1  0
 18 40  1  0
 19 41  1  0
 19 42  1  0
 20 43  1  0
 20 44  1  0
 21 45  1  0
 24 46  1  0
 24 47  1  0
 24 48  1  0
 27 49  1  0
 27 50  1  0
 27 51  1  0
M  END
>  <UniqueID>  (4) 
4

>  <SMILES>  (4) 
COc1cc(-c2nc(-c3ccccc3)c3n2CCCC3)cc(OC)c1OC

>  <Energy>  (4) 
93.48709763385524

>  <Genealogy>  (4) 
COc1cc(-c2nc(-c3ccccc3)c3n2CCCC3)cc(OC)c1OC (3D coordinates assigned)
COc1cc(-c2nc(-c3ccccc3)c3n2CCCC3)cc(OC)c1OC (nonaromatic ring conformer: 93.48709763385524 kcal/mol)

>  <smiles>  (4) 
COc1cc(-c2nc(-c3ccccc3)c3n2CCCC3)cc(OC)c1OC

>  <score_type>  (4) 
oracle

>  <origin>  (4) 
adg

>  <m_score__min__energy>  (4) 
-8.0899999999999999

>  <m_primary>  (4) 
energy

$$$$
4:0
     RDKit          3D

 57 59  0  0  0  0  0  0  0  0999 V2000
   65.5010   32.6270   49.8740 C   0  0  0  0  0  0  0  0  0  0  0  0
   64.1460   31.9900   49.5450 C   0  0  0  0  0  0  0  0  0  0  0  0
   63.2840   32.8160   48.6730 N   0  0  0  0  0  0  0  0  0  0  0  0
   63.4320   32.6320   47.2150 C   0  0  0  0  0  0  0  0  0  0  0  0
   63.0900   33.8750   46.3840 C   0  0  0  0  0  0  0  0  0  0  0  0
   63.0320   34.1970   49.1350 C   0  0  0  0  0  0  0  0  0  0  0  0
   62.5570   34.1870   50.5850 C   0  0  0  0  0  0  0  0  0  0  0  0
   61.7340   33.0620   50.8050 O   0  0  0  0  0  0  0  0  0  0  0  0
   60.3790   33.4550   50.8400 C   0  0  0  0  0  0  0  0  0  0  0  0
   59.6940   33.0430   49.5320 C   0  0  0  0  0  0  0  0  0  0  0  0
   60.6250   32.4590   48.5460 N   0  0  0  0  0  0  0  0  0  0  0  0
   59.9410   31.7670   47.4580 C   0  0  0  0  0  0  0  0  0  0  0  0
   59.2620   32.4870   46.4310 C   0  0  0  0  0  0  0  0  0  0  0  0
   59.2830   33.9050   46.3580 C   0  0  0  0  0  0  0  0  0  0  0  0
   58.5490   34.5920   45.3970 C   0  0  0  0  0  0  0  0  0  0  0  0
   57.7550   33.8970   44.4990 C   0  0  0  0  0  0  0  0  0  0  0  0
   57.7320   32.5090   44.5210 C   0  0  0  0  0  0  0  0  0  0  0  0
   58.5250   31.7720   45.4420 C   0  0  0  0  0  0  0  0  0  0  0  0
   58.5690   30.3930   45.3950 N   0  0  0  0  0  0  0  0  0  0  0  0
   58.0690   29.6750   44.1980 C   0  0  0  0  0  0  0  0  0  0  0  0
   59.1100   29.6800   46.4440 C   0  0  0  0  0  0  0  0  0  0  0  0
   58.9290   28.2750   46.5480 C   0  0  0  0  0  0  0  0  0  0  0  0
   59.5290   27.5410   47.5660 C   0  0  0  0  0  0  0  0  0  0  0  0
   60.3090   28.1820   48.5150 C   0  0  0  0  0  0  0  0  0  0  0  0
   60.4650   29.5650   48.4760 C   0  0  0  0  0  0  0  0  0  0  0  0
   59.8500   30.3470   47.4630 C   0  0  0  0  0  0  0  0  0  0  0  0
   65.6237   32.6847   50.9656 H   0  0  0  0  0  0  0  0  0  0  0  0
   66.3079   32.0139   49.4462 H   0  0  0  0  0  0  0  0  0  0  0  0
   65.5437   33.6395   49.4462 H   0  0  0  0  0  0  0  0  0  0  0  0
   64.3295   31.0304   49.0395 H   0  0  0  0  0  0  0  0  0  0  0  0
   63.6114   31.8735   50.4992 H   0  0  0  0  0  0  0  0  0  0  0  0
   64.4760   32.3551   47.0069 H   0  0  0  0  0  0  0  0  0  0  0  0
   62.7158   31.8503   46.9219 H   0  0  0  0  0  0  0  0  0  0  0  0
   62.8592   34.7139   47.0570 H   0  0  0  0  0  0  0  0  0  0  0  0
   63.9487   34.1395   45.7495 H   0  0  0  0  0  0  0  0  0  0  0  0
   62.2168   33.6630   45.7495 H   0  0  0  0  0  0  0  0  0  0  0  0
   63.9614   34.7807   49.0607 H   0  0  0  0  0  0  0  0  0  0  0  0
   62.2533   34.6509   48.5044 H   0  0  0  0  0  0  0  0  0  0  0  0
   63.4279   34.1404   51.2554 H   0  0  0  0  0  0  0  0  0  0  0  0
   61.9848   35.1041   50.7886 H   0  0  0  0  0  0  0  0  0  0  0  0
   59.8768   32.9650   51.6872 H   0  0  0  0  0  0  0  0  0  0  0  0
   60.3166   34.5468   50.9587 H   0  0  0  0  0  0  0  0  0  0  0  0
   58.9179   32.2986   49.7634 H   0  0  0  0  0  0  0  0  0  0  0  0
   59.2722   33.9544   49.0831 H   0  0  0  0  0  0  0  0  0  0  0  0
   61.2170   33.2230   48.1470 H   0  0  0  0  0  0  0  0  0  0  0  0
   61.3410   31.8770   49.0260 H   0  0  0  0  0  0  0  0  0  0  0  0
   59.8927   34.4721   47.0768 H   0  0  0  0  0  0  0  0  0  0  0  0
   58.5989   35.6898   45.3497 H   0  0  0  0  0  0  0  0  0  0  0  0
   57.1425   34.4453   43.7682 H   0  0  0  0  0  0  0  0  0  0  0  0
   57.0874   31.9691   43.8118 H   0  0  0  0  0  0  0  0  0  0  0  0
   57.4669   28.8104   44.5140 H   0  0  0  0  0  0  0  0  0  0  0  0
   57.4475   30.3542   43.5960 H   0  0  0  0  0  0  0  0  0  0  0  0
   58.9216   29.3277   43.5960 H   0  0  0  0  0  0  0  0  0  0  0  0
   58.3014   27.7566   45.8082 H   0  0  0  0  0  0  0  0  0  0  0  0
   59.3842   26.4518   47.6176 H   0  0  0  0  0  0  0  0  0  0  0  0
   60.8067   27.5962   49.3019 H   0  0  0  0  0  0  0  0  0  0  0  0
   61.0762   30.0611   49.2444 H   0  0  0  0  0  0  0  0  0  0  0  0
  1  2  1  0
  2  3  1  0
  3  4  1  0
  4  5  1  0
  3  6  1  0
  6  7  1  0
  7  8  1  0
  8  9  1  0
  9 10  1  0
 10 11  1  0
 11 12  1  0
 12 13  2  0
 13 14  1  0
 14 15  2  0
 15 16  1  0
 16 17  2  0
 17 18  1  0
 18 19  2  0
 19 20  1  0
 19 21  1  0
 21 22  2  0
 22 23  1  0
 23 24  2  0
 24 25  1  0
 25 26  2  0
 26 12  1  0
 18 13  1  0
 26 21  1  0
  1 27  1  0
  1 28  1  0
  1 29  1  0
  2 30  1  0
  2 31  1  0
  4 32  1  0
  4 33  1  0
  5 34  1  0
  5 35  1  0
  5 36  1  0
  6 37  1  0
  6 38  1  0
  7 39  1  0
  7 40  1  0
  9 41  1  0
  9 42  1  0
 10 43  1  0
 10 44  1  0
 11 45  1  0
 11 46  1  0
 14 47  1  0
 15 48  1  0
 16 49  1  0
 17 50  1  0
 20 51  1  0
 20 52  1  0
 20 53  1  0
 22 54  1  0
 23 55  1  0
 24 56  1  0
 25 57  1  0
M  CHG  2  11   1  19   1
M  END
>  <UniqueID>  (5) 
5

>  <SMILES>  (5) 
CCN(CC)CCOCC[NH2+]c1c2ccccc2[n+](C)c2ccccc12

>  <Energy>  (5) 
89.1082354277004

>  <Genealogy>  (5) 
CCN(CC)CCOCC[NH2+]c1c2ccccc2[n+](C)c2ccccc12 (protonated)
CCN(CC)CCOCC[NH2+]c1c2ccccc2[n+](C)c2ccccc12 (3D coordinates assigned)
CCN(CC)CCOCC[NH2+]c1c2ccccc2[n+](C)c2ccccc12 (optimized conformer: 89.1082354277004 kcal/mol)

>  <smiles>  (5) 
CCN(CC)CCOCCNc1c2ccccc2[n+](C)c2ccccc12

>  <score_type>  (5) 
oracle

>  <origin>  (5) 
adg

>  <m_score__min__energy>  (5) 
-3.5699999999999998

>  <m_primary>  (5) 
energy

$$$$
5:0
     RDKit          3D

 68 72  0  0  0  0  0  0  0  0999 V2000
   56.2090   29.7290   44.3940 C   0  0  0  0  0  0  0  0  0  0  0  0
   56.9170   30.6680   43.4210 C   0  0  0  0  0  0  0  0  0  0  0  0
   57.5300   31.8300   44.1530 C   0  0  0  0  0  0  0  0  0  0  0  0
   57.3900   31.9450   45.5450 C   0  0  0  0  0  0  0  0  0  0  0  0
   57.9840   33.0090   46.2300 C   0  0  0  0  0  0  0  0  0  0  0  0
   58.7340   33.9690   45.5320 C   0  0  0  0  0  0  0  0  0  0  0  0
   59.3690   35.1260   46.2600 C   0  0  0  0  0  0  0  0  0  0  0  0
   60.3480   34.6370   47.2520 N   0  0  0  0  0  0  0  0  0  0  0  0
   59.7430   34.4700   48.6020 C   0  0  0  0  0  0  0  0  0  0  0  0
   59.4750   33.0020   48.9640 C   0  0  0  0  0  0  0  0  0  0  0  0
   60.7860   32.1760   48.9340 C   0  0  0  0  0  0  0  0  0  0  0  0
   61.7800   32.6820   47.8550 C   0  0  0  0  0  0  0  0  0  0  0  0
   61.0480   33.4350   46.7380 C   0  0  0  0  0  0  0  0  0  0  0  0
   61.4430   32.1550   50.2970 C   0  0  0  0  0  0  0  0  0  0  0  0
   61.8320   33.1850   50.9120 O   0  0  0  0  0  0  0  0  0  0  0  0
   61.5560   30.8420   50.8430 N   0  0  0  0  0  0  0  0  0  0  0  0
   61.8190   30.5290   52.2470 C   0  0  0  0  0  0  0  0  0  0  0  0
   60.8350   31.2750   53.1500 C   0  0  0  0  0  0  0  0  0  0  0  0
   59.4290   31.1590   52.6150 C   0  0  0  0  0  0  0  0  0  0  0  0
   58.8130   29.8980   52.5550 C   0  0  0  0  0  0  0  0  0  0  0  0
   57.5030   29.7720   52.0900 C   0  0  0  0  0  0  0  0  0  0  0  0
   56.7920   30.9030   51.6890 C   0  0  0  0  0  0  0  0  0  0  0  0
   57.3850   32.1660   51.7580 C   0  0  0  0  0  0  0  0  0  0  0  0
   58.7080   32.3090   52.2270 C   0  0  0  0  0  0  0  0  0  0  0  0
   59.3270   33.5660   52.3210 O   0  0  0  0  0  0  0  0  0  0  0  0
   58.8990   34.6160   53.1800 C   0  0  0  0  0  0  0  0  0  0  0  0
   60.9350   29.9940   49.8880 C   0  0  0  0  0  0  0  0  0  0  0  0
   60.7510   28.6120   49.9890 C   0  0  0  0  0  0  0  0  0  0  0  0
   60.1100   27.9430   48.9350 C   0  0  0  0  0  0  0  0  0  0  0  0
   59.6650   28.6570   47.8070 C   0  0  0  0  0  0  0  0  0  0  0  0
   59.8540   30.0450   47.7260 C   0  0  0  0  0  0  0  0  0  0  0  0
   60.4930   30.7010   48.7840 C   0  0  0  0  0  0  0  0  0  0  0  0
   58.8870   33.8460   44.1430 C   0  0  0  0  0  0  0  0  0  0  0  0
   58.2950   32.7820   43.4580 C   0  0  0  0  0  0  0  0  0  0  0  0
   56.4369   30.0313   45.4268 H   0  0  0  0  0  0  0  0  0  0  0  0
   55.1228   29.7802   44.2282 H   0  0  0  0  0  0  0  0  0  0  0  0
   56.5570   28.6988   44.2282 H   0  0  0  0  0  0  0  0  0  0  0  0
   57.7090   30.1137   42.8962 H   0  0  0  0  0  0  0  0  0  0  0  0
   56.1792   31.0531   42.7017 H   0  0  0  0  0  0  0  0  0  0  0  0
   56.8094   31.1934   46.1001 H   0  0  0  0  0  0  0  0  0  0  0  0
   57.8634   33.0945   47.3200 H   0  0  0  0  0  0  0  0  0  0  0  0
   59.8820   35.7734   45.5336 H   0  0  0  0  0  0  0  0  0  0  0  0
   58.5840   35.6917   46.7832 H   0  0  0  0  0  0  0  0  0  0  0  0
   60.4300   34.8950   49.3486 H   0  0  0  0  0  0  0  0  0  0  0  0
   58.7728   34.9883   48.5933 H   0  0  0  0  0  0  0  0  0  0  0  0
   59.0420   32.9535   49.9740 H   0  0  0  0  0  0  0  0  0  0  0  0
   58.7772   32.5801   48.2258 H   0  0  0  0  0  0  0  0  0  0  0  0
   62.5081   33.3584   48.3266 H   0  0  0  0  0  0  0  0  0  0  0  0
   62.2887   31.8121   47.4140 H   0  0  0  0  0  0  0  0  0  0  0  0
   61.7807   33.7468   45.9792 H   0  0  0  0  0  0  0  0  0  0  0  0
   60.2952   32.7592   46.3061 H   0  0  0  0  0  0  0  0  0  0  0  0
   61.7070   29.4461   52.4046 H   0  0  0  0  0  0  0  0  0  0  0  0
   62.8432   30.8421   52.4979 H   0  0  0  0  0  0  0  0  0  0  0  0
   60.8737   30.8432   54.1610 H   0  0  0  0  0  0  0  0  0  0  0  0
   61.1165   32.3380   53.1787 H   0  0  0  0  0  0  0  0  0  0  0  0
   59.3668   29.0037   52.8767 H   0  0  0  0  0  0  0  0  0  0  0  0
   57.0309   28.7798   52.0397 H   0  0  0  0  0  0  0  0  0  0  0  0
   55.7618   30.8002   51.3175 H   0  0  0  0  0  0  0  0  0  0  0  0
   56.8170   33.0544   51.4448 H   0  0  0  0  0  0  0  0  0  0  0  0
   59.0251   34.3067   54.2281 H   0  0  0  0  0  0  0  0  0  0  0  0
   59.5022   35.5156   52.9881 H   0  0  0  0  0  0  0  0  0  0  0  0
   57.8388   34.8376   52.9881 H   0  0  0  0  0  0  0  0  0  0  0  0
   61.1008   28.0613   50.8747 H   0  0  0  0  0  0  0  0  0  0  0  0
   59.9547   26.8555   48.9908 H   0  0  0  0  0  0  0  0  0  0  0  0
   59.1662   28.1240   46.9841 H   0  0  0  0  0  0  0  0  0  0  0  0
   59.5062   30.6072   46.8468 H   0  0  0  0  0  0  0  0  0  0  0  0
   59.4767   34.5918   43.5898 H   0  0  0  0  0  0  0  0  0  0  0  0
   58.4283   32.6891   42.3701 H   0  0  0  0  0  0  0  0  0  0  0  0
  1  2  1  0
  2  3  1  0
  3  4  2  0
  4  5  1  0
  5  6  2  0
  6  7  1  0
  7  8  1  0
  8  9  1  0
  9 10  1  0
 10 11  1  0
 11 12  1  0
 12 13  1  0
 11 14  1  0
 14 15  2  0
 14 16  1  0
 16 17  1  0
 17 18  1  0
 18 19  1  0
 19 20  2  0
 20 21  1  0
 21 22  2  0
 22 23  1  0
 23 24  2  0
 24 25  1  0
 25 26  1  0
 16 27  1  0
 27 28  2  0
 28 29  1  0
 29 30  2  0
 30 31  1  0
 31 32  2  0
  6 33  1  0
 33 34  2  0
 34  3  1  0
 13  8  1  0
 24 19  1  0
 32 27  1  0
 32 11  1  0
  1 35  1  0
  1 36  1  0
  1 37  1  0
  2 38  1  0
  2 39  1  0
  4 40  1  0
  5 41  1  0
  7 42  1  0
  7 43  1  0
  9 44  1  0
  9 45  1  0
 10 46  1  0
 10 47  1  0
 12 48  1  0
 12 49  1  0
 13 50  1  0
 13 51  1  0
 17 52  1  0
 17 53  1  0
 18 54  1  0
 18 55  1  0
 20 56  1  0
 21 57  1  0
 22 58  1  0
 23 59  1  0
 26 60  1  0
 26 61  1  0
 26 62  1  0
 28 63  1  0
 29 64  1  0
 30 65  1  0
 31 66  1  0
 33 67  1  0
 34 68  1  0
M  END
>  <UniqueID>  (6) 
6

>  <SMILES>  (6) 
CCc1ccc(CN2CCC3(CC2)C(=O)N(CCc2ccccc2OC)c2ccccc23)cc1

>  <Energy>  (6) 
94.27971065706969

>  <Genealogy>  (6) 
CCc1ccc(CN2CCC3(CC2)C(=O)N(CCc2ccccc2OC)c2ccccc23)cc1 (3D coordinates assigned)
CCc1ccc(CN2CCC3(CC2)C(=O)N(CCc2ccccc2OC)c2ccccc23)cc1 (nonaromatic ring conformer: 94.27971065706969 kcal/mol)

>  <smiles>  (6) 
CCc1ccc(CN2CCC3(CC2)C(=O)N(CCc2ccccc2OC)c2ccccc23)cc1

>  <score_type>  (6) 
oracle

>  <origin>  (6) 
adg

>  <m_score__min__energy>  (6) 
-9.3599999999999994

>  <m_primary>  (6) 
energy

$$$$
6:0
     RDKit          3D

 44 47  0  0  0  0  0  0  0  0999 V2000
   59.8760   27.4550   48.2180 C   0  0  0  0  0  0  0  0  0  0  0  0
   60.3280   27.6760   46.8880 O   0  0  0  0  0  0  0  0  0  0  0  0
   59.4580   27.7470   45.7920 C   0  0  0  0  0  0  0  0  0  0  0  0
   59.0920   26.6120   45.1350 N   0  0  0  0  0  0  0  0  0  0  0  0
   58.2530   26.6320   44.0700 C   0  0  0  0  0  0  0  0  0  0  0  0
   57.7320   27.8410   43.6100 C   0  0  0  0  0  0  0  0  0  0  0  0
   58.0820   29.0420   44.2540 C   0  0  0  0  0  0  0  0  0  0  0  0
   57.5860   30.2970   43.8290 C   0  0  0  0  0  0  0  0  0  0  0  0
   56.6450   30.4260   42.6580 C   0  0  0  0  0  0  0  0  0  0  0  0
   57.9750   31.4520   44.5190 C   0  0  0  0  0  0  0  0  0  0  0  0
   58.8470   31.3660   45.6140 C   0  0  0  0  0  0  0  0  0  0  0  0
   59.2510   32.5930   46.3460 C   0  0  0  0  0  0  0  0  0  0  0  0
   58.5650   33.8000   46.1360 C   0  0  0  0  0  0  0  0  0  0  0  0
   58.9450   34.9590   46.8190 C   0  0  0  0  0  0  0  0  0  0  0  0
   60.0080   34.9230   47.7220 C   0  0  0  0  0  0  0  0  0  0  0  0
   60.6980   33.7240   47.9580 C   0  0  0  0  0  0  0  0  0  0  0  0
   61.8360   33.6840   48.9020 C   0  0  0  0  0  0  0  0  0  0  0  0
   61.5900   33.8450   50.2780 C   0  0  0  0  0  0  0  0  0  0  0  0
   62.6400   33.8000   51.1970 C   0  0  0  0  0  0  0  0  0  0  0  0
   63.9490   33.5980   50.7540 C   0  0  0  0  0  0  0  0  0  0  0  0
   64.2110   33.4490   49.3900 C   0  0  0  0  0  0  0  0  0  0  0  0
   63.1650   33.4930   48.4600 C   0  0  0  0  0  0  0  0  0  0  0  0
   63.5680   33.3710   46.7490 Cl  0  0  0  0  0  0  0  0  0  0  0  0
   60.3210   32.5640   47.2590 C   0  0  0  0  0  0  0  0  0  0  0  0
   59.3140   30.1460   46.0080 N   0  0  0  0  0  0  0  0  0  0  0  0
   58.9590   28.9940   45.3660 C   0  0  0  0  0  0  0  0  0  0  0  0
   60.6309   27.8241   48.9279 H   0  0  0  0  0  0  0  0  0  0  0  0
   58.9292   27.9918   48.3775 H   0  0  0  0  0  0  0  0  0  0  0  0
   59.7182   26.3781   48.3775 H   0  0  0  0  0  0  0  0  0  0  0  0
   57.9825   25.6917   43.5673 H   0  0  0  0  0  0  0  0  0  0  0  0
   57.0501   27.8556   42.7470 H   0  0  0  0  0  0  0  0  0  0  0  0
   55.6182   30.5668   43.0265 H   0  0  0  0  0  0  0  0  0  0  0  0
   56.9371   31.2925   42.0466 H   0  0  0  0  0  0  0  0  0  0  0  0
   56.6932   29.5129   42.0466 H   0  0  0  0  0  0  0  0  0  0  0  0
   57.5940   32.4333   44.1999 H   0  0  0  0  0  0  0  0  0  0  0  0
   57.7228   33.8338   45.4292 H   0  0  0  0  0  0  0  0  0  0  0  0
   58.4049   35.9012   46.6442 H   0  0  0  0  0  0  0  0  0  0  0  0
   60.3069   35.8395   48.2519 H   0  0  0  0  0  0  0  0  0  0  0  0
   60.5615   34.0077   50.6327 H   0  0  0  0  0  0  0  0  0  0  0  0
   62.4362   33.9237   52.2708 H   0  0  0  0  0  0  0  0  0  0  0  0
   64.7745   33.5562   51.4799 H   0  0  0  0  0  0  0  0  0  0  0  0
   65.2442   33.2963   49.0447 H   0  0  0  0  0  0  0  0  0  0  0  0
   60.8679   31.6246   47.4275 H   0  0  0  0  0  0  0  0  0  0  0  0
   59.9800   30.1010   46.8120 H   0  0  0  0  0  0  0  0  0  0  0  0
  1  2  1  0
  2  3  1  0
  3  4  2  0
  4  5  1  0
  5  6  2  0
  6  7  1  0
  7  8  2  0
  8  9  1  0
  8 10  1  0
 10 11  2  0
 11 12  1  0
 12 13  2  0
 13 14  1  0
 14 15  2  0
 15 16  1  0
 16 17  1  0
 17 18  2  0
 18 19  1  0
 19 20  2  0
 20 21  1  0
 21 22  2  0
 22 23  1  0
 16 24  2  0
 11 25  1  0
 25 26  2  0
 26  3  1  0
 26  7  1  0
 24 12  1  0
 22 17  1  0
  1 27  1  0
  1 28  1  0
  1 29  1  0
  5 30  1  0
  6 31  1  0
  9 32  1  0
  9 33  1  0
  9 34  1  0
 10 35  1  0
 13 36  1  0
 14 37  1  0
 15 38  1  0
 18 39  1  0
 19 40  1  0
 20 41  1  0
 21 42  1  0
 24 43  1  0
 25 44  1  0
M  CHG  1  25   1
M  END
>  <UniqueID>  (7) 
7

>  <SMILES>  (7) 
COc1nccc2c(C)cc(-c3cccc(-c4ccccc4Cl)c3)[nH+]c12

>  <Energy>  (7) 
65.11191671024169

>  <Genealogy>  (7) 
COc1nccc2c(C)cc(-c3cccc(-c4ccccc4Cl)c3)[nH+]c12 (protonated)
COc1nccc2c(C)cc(-c3cccc(-c4ccccc4Cl)c3)[nH+]c12 (3D coordinates assigned)
COc1nccc2c(C)cc(-c3cccc(-c4ccccc4Cl)c3)[nH+]c12 (optimized conformer: 65.11191671024169 kcal/mol)

>  <smiles>  (7) 
COc1nccc2c(C)cc(-c3cccc(-c4ccccc4Cl)c3)nc12

>  <score_type>  (7) 
oracle

>  <origin>  (7) 
adg

>  <m_score__min__energy>  (7) 
-6.7699999999999996

>  <m_primary>  (7) 
energy

$$$$
7:0
     RDKit          3D

 56 59  0  0  0  0  0  0  0  0999 V2000
   57.5710   22.2260   44.3360 C   0  0  0  0  0  0  0  0  0  0  0  0
   57.9380   22.4320   45.8060 C   0  0  0  0  0  0  0  0  0  0  0  0
   56.7440   22.6930   46.6490 N   0  0  0  0  0  0  0  0  0  0  0  0
   57.0090   23.5670   47.8150 C   0  0  0  0  0  0  0  0  0  0  0  0
   57.4480   24.9750   47.3830 C   0  0  0  0  0  0  0  0  0  0  0  0
   56.7560   25.3830   46.1520 N   0  0  0  0  0  0  0  0  0  0  0  0
   57.2970   26.4230   45.3110 C   0  0  0  0  0  0  0  0  0  0  0  0
   57.5030   27.7200   45.8010 C   0  0  0  0  0  0  0  0  0  0  0  0
   58.0370   28.6980   44.9470 C   0  0  0  0  0  0  0  0  0  0  0  0
   58.2480   30.0850   45.4290 C   0  0  0  0  0  0  0  0  0  0  0  0
   58.9060   30.3310   46.6500 C   0  0  0  0  0  0  0  0  0  0  0  0
   59.0960   31.6400   47.1010 C   0  0  0  0  0  0  0  0  0  0  0  0
   58.6360   32.7200   46.3390 C   0  0  0  0  0  0  0  0  0  0  0  0
   58.8700   34.4000   46.9190 S   0  0  0  0  0  0  0  0  0  0  0  0
   60.5790   34.1070   47.3900 C   0  0  0  0  0  0  0  0  0  0  0  0
   61.5320   33.8610   46.3920 C   0  0  0  0  0  0  0  0  0  0  0  0
   62.8650   33.6300   46.7360 C   0  0  0  0  0  0  0  0  0  0  0  0
   63.2530   33.6410   48.0760 C   0  0  0  0  0  0  0  0  0  0  0  0
   62.3090   33.8850   49.0780 C   0  0  0  0  0  0  0  0  0  0  0  0
   60.9600   34.1220   48.7430 C   0  0  0  0  0  0  0  0  0  0  0  0
   59.9810   34.3670   49.7200 O   0  0  0  0  0  0  0  0  0  0  0  0
   59.6260   33.4550   50.7530 C   0  0  0  0  0  0  0  0  0  0  0  0
   57.9790   32.4860   45.1260 C   0  0  0  0  0  0  0  0  0  0  0  0
   57.7880   31.1770   44.6730 C   0  0  0  0  0  0  0  0  0  0  0  0
   58.3460   28.3600   43.6620 N   0  0  0  0  0  0  0  0  0  0  0  0
   58.1430   27.0970   43.2020 C   0  0  0  0  0  0  0  0  0  0  0  0
   57.6270   26.1470   44.0200 N   0  0  0  0  0  0  0  0  0  0  0  0
   55.4780   24.7400   45.8240 C   0  0  0  0  0  0  0  0  0  0  0  0
   55.6020   23.1970   45.8420 C   0  0  0  0  0  0  0  0  0  0  0  0
   56.6136   21.6886   44.2689 H   0  0  0  0  0  0  0  0  0  0  0  0
   57.4781   23.2038   43.8408 H   0  0  0  0  0  0  0  0  0  0  0  0
   58.3573   21.6374   43.8408 H   0  0  0  0  0  0  0  0  0  0  0  0
   58.4422   21.5270   46.1758 H   0  0  0  0  0  0  0  0  0  0  0  0
   58.5966   23.3107   45.8705 H   0  0  0  0  0  0  0  0  0  0  0  0
   56.0908   23.6485   48.4152 H   0  0  0  0  0  0  0  0  0  0  0  0
   57.8249   23.1185   48.4008 H   0  0  0  0  0  0  0  0  0  0  0  0
   57.2088   25.6891   48.1847 H   0  0  0  0  0  0  0  0  0  0  0  0
   58.5311   24.9632   47.1912 H   0  0  0  0  0  0  0  0  0  0  0  0
   57.2493   27.9685   46.8421 H   0  0  0  0  0  0  0  0  0  0  0  0
   59.2728   29.4870   47.2526 H   0  0  0  0  0  0  0  0  0  0  0  0
   59.6084   31.8219   48.0572 H   0  0  0  0  0  0  0  0  0  0  0  0
   61.2286   33.8499   45.3347 H   0  0  0  0  0  0  0  0  0  0  0  0
   63.6102   33.4391   45.9497 H   0  0  0  0  0  0  0  0  0  0  0  0
   64.3037   33.4573   48.3447 H   0  0  0  0  0  0  0  0  0  0  0  0
   62.6202   33.8921   50.1330 H   0  0  0  0  0  0  0  0  0  0  0  0
   59.8076   33.9216   51.7324 H   0  0  0  0  0  0  0  0  0  0  0  0
   58.5610   33.1950   50.6625 H   0  0  0  0  0  0  0  0  0  0  0  0
   60.2349   32.5434   50.6625 H   0  0  0  0  0  0  0  0  0  0  0  0
   57.6122   33.3331   44.5278 H   0  0  0  0  0  0  0  0  0  0  0  0
   57.2734   31.0004   43.7170 H   0  0  0  0  0  0  0  0  0  0  0  0
   58.7650   29.0640   43.0140 H   0  0  0  0  0  0  0  0  0  0  0  0
   58.3984   26.8449   42.1622 H   0  0  0  0  0  0  0  0  0  0  0  0
   54.7227   25.0471   46.5624 H   0  0  0  0  0  0  0  0  0  0  0  0
   55.1828   25.0522   44.8114 H   0  0  0  0  0  0  0  0  0  0  0  0
   54.6732   22.7799   46.2583 H   0  0  0  0  0  0  0  0  0  0  0  0
   55.7802   22.8793   44.8041 H   0  0  0  0  0  0  0  0  0  0  0  0
  1  2  1  0
  2  3  1  0
  3  4  1  0
  4  5  1  0
  5  6  1  0
  6  7  1  0
  7  8  2  0
  8  9  1  0
  9 10  1  0
 10 11  2  0
 11 12  1  0
 12 13  2  0
 13 14  1  0
 14 15  1  0
 15 16  2  0
 16 17  1  0
 17 18  2  0
 18 19  1  0
 19 20  2  0
 20 21  1  0
 21 22  1  0
 13 23  1  0
 23 24  2  0
  9 25  2  0
 25 26  1  0
 26 27  2  0
  6 28  1  0
 28 29  1  0
 29  3  1  0
 27  7  1  0
 24 10  1  0
 20 15  1  0
  1 30  1  0
  1 31  1  0
  1 32  1  0
  2 33  1  0
  2 34  1  0
  4 35  1  0
  4 36  1  0
  5 37  1  0
  5 38  1  0
  8 39  1  0
 11 40  1  0
 12 41  1  0
 16 42  1  0
 17 43  1  0
 18 44  1  0
 19 45  1  0
 22 46  1  0
 22 47  1  0
 22 48  1  0
 23 49  1  0
 24 50  1  0
 25 51  1  0
 26 52  1  0
 28 53  1  0
 28 54  1  0
 29 55  1  0
 29 56  1  0
M  CHG  1  25   1
M  END
>  <UniqueID>  (8) 
8

>  <SMILES>  (8) 
CCN1CCN(c2cc(-c3ccc(Sc4ccccc4OC)cc3)[nH+]cn2)CC1

>  <Energy>  (8) 
69.57308737778617

>  <Genealogy>  (8) 
CCN1CCN(c2cc(-c3ccc(Sc4ccccc4OC)cc3)[nH+]cn2)CC1 (protonated)
CCN1CCN(c2cc(-c3ccc(Sc4ccccc4OC)cc3)[nH+]cn2)CC1 (3D coordinates assigned)
CCN1CCN(c2cc(-c3ccc(Sc4ccccc4OC)cc3)[nH+]cn2)CC1 (nonaromatic ring conformer: 69.57308737778617 kcal/mol)

>  <smiles>  (8) 
CCN1CCN(c2cc(-c3ccc(Sc4ccccc4OC)cc3)ncn2)CC1

>  <score_type>  (8) 
oracle

>  <origin>  (8) 
adg

>  <m_score__min__energy>  (8) 
-7.3700000000000001

>  <m_primary>  (8) 
energy

$$$$
8:0
     RDKit          3D

 36 37  0  0  0  0  0  0  0  0999 V2000
   60.2540   28.9180   45.8390 C   0  0  0  0  0  0  0  0  0  0  0  0
   58.9260   28.1600   45.9260 C   0  0  0  0  0  0  0  0  0  0  0  0
   57.7590   29.0510   45.8410 N   0  0  0  0  0  0  0  0  0  0  0  0
   56.7490   28.5560   44.8950 C   0  0  0  0  0  0  0  0  0  0  0  0
   56.1290   29.7220   44.1220 C   0  0  0  0  0  0  0  0  0  0  0  0
   56.4500   30.9930   44.7770 N   0  0  0  0  0  0  0  0  0  0  0  0
   57.8230   31.7240   44.0000 S   0  0  0  0  0  0  0  0  0  0  0  0
   58.8690   30.6750   43.7500 O   0  0  0  0  0  0  0  0  0  0  0  0
   57.3970   32.3080   42.6820 O   0  0  0  0  0  0  0  0  0  0  0  0
   58.5110   32.9810   45.0380 C   0  0  0  0  0  0  0  0  0  0  0  0
   58.8410   34.2310   44.4940 C   0  0  0  0  0  0  0  0  0  0  0  0
   59.3760   35.2380   45.3020 C   0  0  0  0  0  0  0  0  0  0  0  0
   59.5880   35.0110   46.6630 C   0  0  0  0  0  0  0  0  0  0  0  0
   59.2680   33.7660   47.2240 C   0  0  0  0  0  0  0  0  0  0  0  0
   59.4730   33.5140   48.5870 C   0  0  0  0  0  0  0  0  0  0  0  0
   59.1450   32.2660   49.1190 C   0  0  0  0  0  0  0  0  0  0  0  0
   58.6160   31.2810   48.2840 C   0  0  0  0  0  0  0  0  0  0  0  0
   58.4220   31.5370   46.9620 N   0  0  0  0  0  0  0  0  0  0  0  0
   58.7280   32.7430   46.4090 C   0  0  0  0  0  0  0  0  0  0  0  0
   60.6231   29.1287   46.8536 H   0  0  0  0  0  0  0  0  0  0  0  0
   60.9916   28.3048   45.3005 H   0  0  0  0  0  0  0  0  0  0  0  0
   60.1011   29.8649   45.3005 H   0  0  0  0  0  0  0  0  0  0  0  0
   58.8782   27.4371   45.0983 H   0  0  0  0  0  0  0  0  0  0  0  0
   58.8920   27.6593   46.9048 H   0  0  0  0  0  0  0  0  0  0  0  0
   58.0720   30.0050   45.5410 H   0  0  0  0  0  0  0  0  0  0  0  0
   57.2249   27.8627   44.1859 H   0  0  0  0  0  0  0  0  0  0  0  0
   55.9575   28.0371   45.4556 H   0  0  0  0  0  0  0  0  0  0  0  0
   56.5278   29.7309   43.0969 H   0  0  0  0  0  0  0  0  0  0  0  0
   55.0364   29.5964   44.0996 H   0  0  0  0  0  0  0  0  0  0  0  0
   56.7380   30.7920   45.7630 H   0  0  0  0  0  0  0  0  0  0  0  0
   58.6774   34.4202   43.4228 H   0  0  0  0  0  0  0  0  0  0  0  0
   59.6312   36.2140   44.8635 H   0  0  0  0  0  0  0  0  0  0  0  0
   60.0059   35.8083   47.2952 H   0  0  0  0  0  0  0  0  0  0  0  0
   59.8913   34.2975   49.2359 H   0  0  0  0  0  0  0  0  0  0  0  0
   59.3023   32.0605   50.1881 H   0  0  0  0  0  0  0  0  0  0  0  0
   58.3552   30.2949   48.6958 H   0  0  0  0  0  0  0  0  0  0  0  0
  1  2  1  0
  2  3  1  0
  3  4  1  0
  4  5  1  0
  5  6  1  0
  6  7  1  0
  7  8  2  0
  7  9  2  0
  7 10  1  0
 10 11  2  0
 11 12  1  0
 12 13  2  0
 13 14  1  0
 14 15  2  0
 15 16  1  0
 16 17  2  0
 17 18  1  0
 18 19  2  0
 19 10  1  0
 19 14  1  0
  1 20  1  0
  1 21  1  0
  1 22  1  0
  2 23  1  0
  2 24  1  0
  3 25  1  0
  4 26  1  0
  4 27  1  0
  5 28  1  0
  5 29  1  0
  6 30  1  0
 11 31  1  0
 12 32  1  0
 13 33  1  0
 15 34  1  0
 16 35  1  0
 17 36  1  0
M  END
>  <UniqueID>  (9) 
9

>  <SMILES>  (9) 
CCNCCNS(=O)(=O)c1cccc2cccnc12

>  <Energy>  (9) 
33.24076533797428

>  <Genealogy>  (9) 
CCNCCNS(=O)(=O)c1cccc2cccnc12 (3D coordinates assigned)
CCNCCNS(=O)(=O)c1cccc2cccnc12 (optimized conformer: 33.24076533797428 kcal/mol)

>  <smiles>  (9) 
CCNCCNS(=O)(=O)c1cccc2cccnc12

>  <score_type>  (9) 
oracle

>  <origin>  (9) 
adg

>  <m_score__min__energy>  (9) 
-6.7999999999999998

>  <m_primary>  (9) 
energy

$$$$
9:0
     RDKit          3D

 50 51  0  0  0  0  0  0  0  0999 V2000
   58.7410   28.5430   44.9970 C   0  0  0  0  0  0  0  0  0  0  0  0
   57.6420   28.9650   45.9650 C   0  0  0  0  0  0  0  0  0  0  0  0
   56.3970   29.2180   45.2270 N   0  0  0  0  0  0  0  0  0  0  0  0
   56.6560   29.4820   43.8050 C   0  0  0  0  0  0  0  0  0  0  0  0
   56.9690   30.9610   43.5550 C   0  0  0  0  0  0  0  0  0  0  0  0
   56.6130   31.7620   44.6850 O   0  0  0  0  0  0  0  0  0  0  0  0
   57.4650   32.6150   45.4060 C   0  0  0  0  0  0  0  0  0  0  0  0
   57.9910   33.7290   44.7430 C   0  0  0  0  0  0  0  0  0  0  0  0
   58.8190   34.6310   45.4150 C   0  0  0  0  0  0  0  0  0  0  0  0
   59.1430   34.4190   46.7570 C   0  0  0  0  0  0  0  0  0  0  0  0
   58.6500   33.2930   47.4370 C   0  0  0  0  0  0  0  0  0  0  0  0
   58.9730   33.0340   48.8160 N   0  0  0  0  0  0  0  0  0  0  0  0
   59.6960   33.9560   49.6950 C   0  0  0  0  0  0  0  0  0  0  0  0
   60.5170   33.1940   50.7440 C   0  0  0  0  0  0  0  0  0  0  0  0
   60.0880   31.7940   50.8070 N   0  0  0  0  0  0  0  0  0  0  0  0
   60.8710   30.8680   49.5650 S   0  0  0  0  0  0  0  0  0  0  0  0
   59.8560   30.3410   48.5880 O   0  0  0  0  0  0  0  0  0  0  0  0
   61.5890   29.7040   50.1870 O   0  0  0  0  0  0  0  0  0  0  0  0
   62.0450   31.8900   48.7440 C   0  0  0  0  0  0  0  0  0  0  0  0
   63.2650   32.2180   49.3560 C   0  0  0  0  0  0  0  0  0  0  0  0
   64.1840   33.0340   48.6900 C   0  0  0  0  0  0  0  0  0  0  0  0
   63.8970   33.5140   47.4090 C   0  0  0  0  0  0  0  0  0  0  0  0
   62.6900   33.1780   46.7910 C   0  0  0  0  0  0  0  0  0  0  0  0
   61.7640   32.3710   47.4590 C   0  0  0  0  0  0  0  0  0  0  0  0
   57.7940   32.4090   46.7600 C   0  0  0  0  0  0  0  0  0  0  0  0
   59.6203   28.2054   45.5652 H   0  0  0  0  0  0  0  0  0  0  0  0
   58.3760   27.7211   44.3636 H   0  0  0  0  0  0  0  0  0  0  0  0
   59.0199   29.3980   44.3636 H   0  0  0  0  0  0  0  0  0  0  0  0
   57.4745   28.1631   46.6991 H   0  0  0  0  0  0  0  0  0  0  0  0
   57.9493   29.8850   46.4838 H   0  0  0  0  0  0  0  0  0  0  0  0
   55.9760   30.0880   45.6300 H   0  0  0  0  0  0  0  0  0  0  0  0
   57.5139   28.8754   43.4796 H   0  0  0  0  0  0  0  0  0  0  0  0
   55.7520   29.2201   43.2357 H   0  0  0  0  0  0  0  0  0  0  0  0
   58.0460   31.0722   43.3611 H   0  0  0  0  0  0  0  0  0  0  0  0
   56.3824   31.3000   42.6884 H   0  0  0  0  0  0  0  0  0  0  0  0
   57.7503   33.8960   43.6827 H   0  0  0  0  0  0  0  0  0  0  0  0
   59.2166   35.5099   44.8864 H   0  0  0  0  0  0  0  0  0  0  0  0
   59.7877   35.1376   47.2842 H   0  0  0  0  0  0  0  0  0  0  0  0
   58.7510   32.0880   49.2050 H   0  0  0  0  0  0  0  0  0  0  0  0
   60.3743   34.5732   49.0876 H   0  0  0  0  0  0  0  0  0  0  0  0
   58.9618   34.5864   50.2180 H   0  0  0  0  0  0  0  0  0  0  0  0
   61.5819   33.2353   50.4714 H   0  0  0  0  0  0  0  0  0  0  0  0
   60.3615   33.6605   51.7280 H   0  0  0  0  0  0  0  0  0  0  0  0
   59.0600   31.7590   50.6200 H   0  0  0  0  0  0  0  0  0  0  0  0
   63.4978   31.8329   50.3597 H   0  0  0  0  0  0  0  0  0  0  0  0
   65.1351   33.2989   49.1751 H   0  0  0  0  0  0  0  0  0  0  0  0
   64.6217   34.1565   46.8874 H   0  0  0  0  0  0  0  0  0  0  0  0
   62.4682   33.5482   45.7792 H   0  0  0  0  0  0  0  0  0  0  0  0
   60.8113   32.1129   46.9735 H   0  0  0  0  0  0  0  0  0  0  0  0
   57.3747   31.5438   47.2945 H   0  0  0  0  0  0  0  0  0  0  0  0
  1  2  1  0
  2  3  1  0
  3  4  1  0
  4  5  1  0
  5  6  1  0
  6  7  1  0
  7  8  2  0
  8  9  1  0
  9 10  2  0
 10 11  1  0
 11 12  1  0
 12 13  1  0
 13 14  1  0
 14 15  1  0
 15 16  1  0
 16 17  2  0
 16 18  2  0
 16 19  1  0
 19 20  2  0
 20 21  1  0
 21 22  2  0
 22 23  1  0
 23 24  2  0
 11 25  2  0
 25  7  1  0
 24 19  1  0
  1 26  1  0
  1 27  1  0
  1 28  1  0
  2 29  1  0
  2 30  1  0
  3 31  1  0
  4 32  1  0
  4 33  1  0
  5 34  1  0
  5 35  1  0
  8 36  1  0
  9 37  1  0
 10 38  1  0
 12 39  1  0
 13 40  1  0
 13 41  1  0
 14 42  1  0
 14 43  1  0
 15 44  1  0
 20 45  1  0
 21 46  1  0
 22 47  1  0
 23 48  1  0
 24 49  1  0
 25 50  1  0
M  END
>  <UniqueID>  (10) 
10

>  <SMILES>  (10) 
CCNCCOc1cccc(NCCNS(=O)(=O)c2ccccc2)c1

>  <Energy>  (10) 
36.654927891251106

>  <Genealogy>  (10) 
CCNCCOc1cccc(NCCNS(=O)(=O)c2ccccc2)c1 (3D coordinates assigned)
CCNCCOc1cccc(NCCNS(=O)(=O)c2ccccc2)c1 (optimized conformer: 36.654927891251106 kcal/mol)

>  <smiles>  (10) 
CCNCCOc1cccc(NCCNS(=O)(=O)c2ccccc2)c1

>  <score_type>  (10) 
oracle

>  <origin>  (10) 
adg

>  <m_score__min__energy>  (10) 
-7.04

>  <m_primary>  (10) 
energy

$$$$
10:0
     RDKit          3D

 45 46  0  0  0  0  0  0  0  0999 V2000
   59.9400   30.1740   49.5230 C   0  0  0  0  0  0  0  0  0  0  0  0
   61.2400   30.4850   48.7890 C   0  0  0  0  0  0  0  0  0  0  0  0
   61.1040   30.2350   47.3890 O   0  0  0  0  0  0  0  0  0  0  0  0
   59.9010   30.2620   46.6640 C   0  0  0  0  0  0  0  0  0  0  0  0
   59.4530   29.0700   46.0940 C   0  0  0  0  0  0  0  0  0  0  0  0
   58.2600   29.0300   45.3730 C   0  0  0  0  0  0  0  0  0  0  0  0
   57.4820   30.1930   45.2100 C   0  0  0  0  0  0  0  0  0  0  0  0
   56.2670   30.1810   44.5010 O   0  0  0  0  0  0  0  0  0  0  0  0
   56.1250   30.1270   43.0820 C   0  0  0  0  0  0  0  0  0  0  0  0
   57.0230   31.1600   42.4090 C   0  0  0  0  0  0  0  0  0  0  0  0
   57.9180   31.4030   45.7870 C   0  0  0  0  0  0  0  0  0  0  0  0
   57.1120   32.5940   45.6460 N   0  0  0  0  0  0  0  0  0  0  0  0
   57.5960   33.8650   45.1030 C   0  0  0  0  0  0  0  0  0  0  0  0
   59.0050   34.1300   45.5430 C   0  0  0  0  0  0  0  0  0  0  0  0
   59.9200   34.2020   44.6780 O   0  0  0  0  0  0  0  0  0  0  0  0
   59.2990   34.3500   46.9300 N   0  0  0  0  0  0  0  0  0  0  0  0
   60.5810   34.0880   47.5240 C   0  0  0  0  0  0  0  0  0  0  0  0
   61.6830   33.6910   46.7430 C   0  0  0  0  0  0  0  0  0  0  0  0
   62.9120   33.4100   47.3490 C   0  0  0  0  0  0  0  0  0  0  0  0
   63.0500   33.5120   48.7370 C   0  0  0  0  0  0  0  0  0  0  0  0
   64.7280   33.1250   49.5630 Br  0  0  0  0  0  0  0  0  0  0  0  0
   61.9540   33.8870   49.5200 C   0  0  0  0  0  0  0  0  0  0  0  0
   60.7240   34.1660   48.9170 C   0  0  0  0  0  0  0  0  0  0  0  0
   59.1340   31.4290   46.5020 C   0  0  0  0  0  0  0  0  0  0  0  0
   60.1129   30.2154   50.6085 H   0  0  0  0  0  0  0  0  0  0  0  0
   59.1757   30.9146   49.2450 H   0  0  0  0  0  0  0  0  0  0  0  0
   59.5936   29.1677   49.2450 H   0  0  0  0  0  0  0  0  0  0  0  0
   61.4969   31.5434   48.9431 H   0  0  0  0  0  0  0  0  0  0  0  0
   62.0340   29.8365   49.1876 H   0  0  0  0  0  0  0  0  0  0  0  0
   60.0471   28.1521   46.2146 H   0  0  0  0  0  0  0  0  0  0  0  0
   57.9236   28.0821   44.9277 H   0  0  0  0  0  0  0  0  0  0  0  0
   56.4032   29.1228   42.7295 H   0  0  0  0  0  0  0  0  0  0  0  0
   55.0787   30.3469   42.8234 H   0  0  0  0  0  0  0  0  0  0  0  0
   57.5391   31.7537   43.1779 H   0  0  0  0  0  0  0  0  0  0  0  0
   57.7666   30.6464   41.7819 H   0  0  0  0  0  0  0  0  0  0  0  0
   56.4109   31.8249   41.7819 H   0  0  0  0  0  0  0  0  0  0  0  0
   56.1250   32.5830   45.9900 H   0  0  0  0  0  0  0  0  0  0  0  0
   57.5630   33.8237   44.0043 H   0  0  0  0  0  0  0  0  0  0  0  0
   56.9521   34.6755   45.4752 H   0  0  0  0  0  0  0  0  0  0  0  0
   58.5340   34.7160   47.5400 H   0  0  0  0  0  0  0  0  0  0  0  0
   61.5771   33.6014   45.6518 H   0  0  0  0  0  0  0  0  0  0  0  0
   63.7717   33.1082   46.7326 H   0  0  0  0  0  0  0  0  0  0  0  0
   62.0597   33.9626   50.6123 H   0  0  0  0  0  0  0  0  0  0  0  0
   59.8623   34.4487   49.5395 H   0  0  0  0  0  0  0  0  0  0  0  0
   59.4867   32.3751   46.9386 H   0  0  0  0  0  0  0  0  0  0  0  0
  1  2  1  0
  2  3  1  0
  3  4  1  0
  4  5  2  0
  5  6  1  0
  6  7  2  0
  7  8  1  0
  8  9  1  0
  9 10  1  0
  7 11  1  0
 11 12  1  0
 12 13  1  0
 13 14  1  0
 14 15  2  0
 14 16  1  0
 16 17  1  0
 17 18  2  0
 18 19  1  0
 19 20  2  0
 20 21  1  0
 20 22  1  0
 22 23  2  0
 11 24  2  0
 24  4  1  0
 23 17  1  0
  1 25  1  0
  1 26  1  0
  1 27  1  0
  2 28  1  0
  2 29  1  0
  5 30  1  0
  6 31  1  0
  9 32  1  0
  9 33  1  0
 10 34  1  0
 10 35  1  0
 10 36  1  0
 12 37  1  0
 13 38  1  0
 13 39  1  0
 16 40  1  0
 18 41  1  0
 19 42  1  0
 22 43  1  0
 23 44  1  0
 24 45  1  0
M  END
>  <UniqueID>  (11) 
11

>  <SMILES>  (11) 
CCOc1ccc(OCC)c(NCC(=O)Nc2ccc(Br)cc2)c1

>  <Energy>  (11) 
42.25470714347835

>  <Genealogy>  (11) 
CCOc1ccc(OCC)c(NCC(=O)Nc2ccc(Br)cc2)c1 (3D coordinates assigned)
CCOc1ccc(OCC)c(NCC(=O)Nc2ccc(Br)cc2)c1 (optimized conformer: 42.25470714347835 kcal/mol)

>  <smiles>  (11) 
CCOc1ccc(OCC)c(NCC(=O)Nc2ccc(Br)cc2)c1

>  <score_type>  (11) 
oracle

>  <origin>  (11) 
adg

>  <m_score__min__energy>  (11) 
-7.2300000000000004

>  <m_primary>  (11) 
energy

$$$$
11:0
     RDKit          3D

 41 42  0  0  0  0  0  0  0  0999 V2000
   56.6400   30.4340   42.6800 C   0  0  0  0  0  0  0  0  0  0  0  0
   56.1310   30.4070   44.1240 C   0  0  0  0  0  0  0  0  0  0  0  0
   57.0440   31.0370   45.1060 N   0  0  0  0  0  0  0  0  0  0  0  0
   57.8530   30.0890   45.9100 C   0  0  0  0  0  0  0  0  0  0  0  0
   59.3740   30.2080   45.7060 C   0  0  0  0  0  0  0  0  0  0  0  0
   57.7530   32.2430   44.6290 C   0  0  0  0  0  0  0  0  0  0  0  0
   57.4540   33.4420   45.5320 C   0  0  0  0  0  0  0  0  0  0  0  0
   58.9280   34.5080   45.7330 S   0  0  0  0  0  0  0  0  0  0  0  0
   59.5940   33.6140   47.1460 C   0  0  0  0  0  0  0  0  0  0  0  0
   58.7240   33.1570   48.0820 N   0  0  0  0  0  0  0  0  0  0  0  0
   59.1430   32.4690   49.1760 C   0  0  0  0  0  0  0  0  0  0  0  0
   58.1400   31.9680   50.1640 C   0  0  0  0  0  0  0  0  0  0  0  0
   60.4680   32.2110   49.3500 N   0  0  0  0  0  0  0  0  0  0  0  0
   61.3910   32.6540   48.4510 C   0  0  0  0  0  0  0  0  0  0  0  0
   62.7560   32.3900   48.6480 C   0  0  0  0  0  0  0  0  0  0  0  0
   63.7020   32.8490   47.7280 C   0  0  0  0  0  0  0  0  0  0  0  0
   63.2950   33.5790   46.6090 C   0  0  0  0  0  0  0  0  0  0  0  0
   61.9410   33.8510   46.4010 C   0  0  0  0  0  0  0  0  0  0  0  0
   60.9750   33.3860   47.3140 C   0  0  0  0  0  0  0  0  0  0  0  0
   57.7385   30.4923   42.6795 H   0  0  0  0  0  0  0  0  0  0  0  0
   56.3212   29.5177   42.1616 H   0  0  0  0  0  0  0  0  0  0  0  0
   56.2260   31.3114   42.1616 H   0  0  0  0  0  0  0  0  0  0  0  0
   55.1682   30.9377   44.1595 H   0  0  0  0  0  0  0  0  0  0  0  0
   56.0470   29.3476   44.4078 H   0  0  0  0  0  0  0  0  0  0  0  0
   57.6348   30.2683   46.9731 H   0  0  0  0  0  0  0  0  0  0  0  0
   57.5726   29.0795   45.5750 H   0  0  0  0  0  0  0  0  0  0  0  0
   59.8734   30.2471   46.6853 H   0  0  0  0  0  0  0  0  0  0  0  0
   59.7379   29.3356   45.1434 H   0  0  0  0  0  0  0  0  0  0  0  0
   59.5978   31.1264   45.1434 H   0  0  0  0  0  0  0  0  0  0  0  0
   58.8359   32.0499   44.6328 H   0  0  0  0  0  0  0  0  0  0  0  0
   57.4089   32.4744   43.6102 H   0  0  0  0  0  0  0  0  0  0  0  0
   56.6422   34.0340   45.0843 H   0  0  0  0  0  0  0  0  0  0  0  0
   57.1605   33.0653   46.5230 H   0  0  0  0  0  0  0  0  0  0  0  0
   58.5073   32.1515   51.1845 H   0  0  0  0  0  0  0  0  0  0  0  0
   57.1859   32.4954   50.0174 H   0  0  0  0  0  0  0  0  0  0  0  0
   57.9885   30.8884   50.0174 H   0  0  0  0  0  0  0  0  0  0  0  0
   60.7760   31.6680   50.1890 H   0  0  0  0  0  0  0  0  0  0  0  0
   63.0818   31.8195   49.5302 H   0  0  0  0  0  0  0  0  0  0  0  0
   64.7695   32.6350   47.8853 H   0  0  0  0  0  0  0  0  0  0  0  0
   64.0436   33.9410   45.8889 H   0  0  0  0  0  0  0  0  0  0  0  0
   61.6279   34.4309   45.5203 H   0  0  0  0  0  0  0  0  0  0  0  0
  1  2  1  0
  2  3  1  0
  3  4  1  0
  4  5  1  0
  3  6  1  0
  6  7  1  0
  7  8  1  0
  8  9  1  0
  9 10  2  0
 10 11  1  0
 11 12  1  0
 11 13  2  0
 13 14  1  0
 14 15  2  0
 15 16  1  0
 16 17  2  0
 17 18  1  0
 18 19  2  0
 19  9  1  0
 19 14  1  0
  1 20  1  0
  1 21  1  0
  1 22  1  0
  2 23  1  0
  2 24  1  0
  4 25  1  0
  4 26  1  0
  5 27  1  0
  5 28  1  0
  5 29  1  0
  6 30  1  0
  6 31  1  0
  7 32  1  0
  7 33  1  0
 12 34  1  0
 12 35  1  0
 12 36  1  0
 13 37  1  0
 15 38  1  0
 16 39  1  0
 17 40  1  0
 18 41  1  0
M  CHG  1  13   1
M  END
>  <UniqueID>  (12) 
12

>  <SMILES>  (12) 
CCN(CC)CCSc1nc(C)[nH+]c2ccccc12

>  <Energy>  (12) 
45.287826845616934

>  <Genealogy>  (12) 
CCN(CC)CCSc1nc(C)[nH+]c2ccccc12 (protonated)
CCN(CC)CCSc1nc(C)[nH+]c2ccccc12 (3D coordinates assigned)
CCN(CC)CCSc1nc(C)[nH+]c2ccccc12 (optimized conformer: 45.287826845616934 kcal/mol)

>  <smiles>  (12) 
CCN(CC)CCSc1nc(C)nc2ccccc12

>  <score_type>  (12) 
oracle

>  <origin>  (12) 
adg

>  <m_score__min__energy>  (12) 
-5.54

>  <m_primary>  (12) 
energy

$$$$
12:0
     RDKit          3D

 43 45  0  0  0  0  0  0  0  0999 V2000
   60.3680   28.8050   45.2530 C   0  0  0  0  0  0  0  0  0  0  0  0
   59.4160   29.4610   46.2410 C   0  0  0  0  0  0  0  0  0  0  0  0
   59.3900   28.7050   47.4350 O   0  0  0  0  0  0  0  0  0  0  0  0
   60.5540   28.9480   48.2010 C   0  0  0  0  0  0  0  0  0  0  0  0
   60.7460   30.4200   48.3990 C   0  0  0  0  0  0  0  0  0  0  0  0
   61.8210   31.1630   47.9270 C   0  0  0  0  0  0  0  0  0  0  0  0
   61.6590   32.5420   48.1050 C   0  0  0  0  0  0  0  0  0  0  0  0
   60.4490   32.8780   48.7040 C   0  0  0  0  0  0  0  0  0  0  0  0
   59.9310   34.2690   48.9100 C   0  0  0  0  0  0  0  0  0  0  0  0
   58.9420   34.6680   47.8890 N   0  0  0  0  0  0  0  0  0  0  0  0
   58.8640   33.8650   46.6440 C   0  0  2  0  0  0  0  0  0  0  0  0
   58.7660   34.7130   45.3510 C   0  0  0  0  0  0  0  0  0  0  0  0
   58.9090   33.8340   44.0980 C   0  0  0  0  0  0  0  0  0  0  0  0
   58.0440   32.6180   44.2170 C   0  0  0  0  0  0  0  0  0  0  0  0
   57.6670   31.8360   43.1870 N   0  0  0  0  0  0  0  0  0  0  0  0
   56.9650   30.8680   43.8230 C   0  0  0  0  0  0  0  0  0  0  0  0
   56.2650   29.7610   43.1100 C   0  0  0  0  0  0  0  0  0  0  0  0
   56.9080   31.0450   45.1600 N   0  0  0  0  0  0  0  0  0  0  0  0
   57.6160   32.1340   45.3930 N   0  0  0  0  0  0  0  0  0  0  0  0
   57.7560   32.7820   46.6940 C   0  0  0  0  0  0  0  0  0  0  0  0
   59.5900   31.4670   49.0270 S   0  0  0  0  0  0  0  0  0  0  0  0
   61.1523   28.2645   45.8032 H   0  0  0  0  0  0  0  0  0  0  0  0
   59.8105   28.0984   44.6206 H   0  0  0  0  0  0  0  0  0  0  0  0
   60.8297   29.5775   44.6206 H   0  0  0  0  0  0  0  0  0  0  0  0
   59.7600   30.4826   46.4601 H   0  0  0  0  0  0  0  0  0  0  0  0
   58.4056   29.5021   45.8082 H   0  0  0  0  0  0  0  0  0  0  0  0
   60.4520   28.4599   49.1815 H   0  0  0  0  0  0  0  0  0  0  0  0
   61.4257   28.5413   47.6674 H   0  0  0  0  0  0  0  0  0  0  0  0
   62.7097   30.7130   47.4605 H   0  0  0  0  0  0  0  0  0  0  0  0
   62.4119   33.2846   47.8021 H   0  0  0  0  0  0  0  0  0  0  0  0
   59.4555   34.3239   49.9004 H   0  0  0  0  0  0  0  0  0  0  0  0
   60.7861   34.9563   48.8294 H   0  0  0  0  0  0  0  0  0  0  0  0
   59.0580   35.6830   47.6580 H   0  0  0  0  0  0  0  0  0  0  0  0
   59.8319   33.3447   46.5947 H   0  0  0  0  0  0  0  0  0  0  0  0
   57.7888   35.2175   45.3259 H   0  0  0  0  0  0  0  0  0  0  0  0
   59.5827   35.4499   45.3548 H   0  0  0  0  0  0  0  0  0  0  0  0
   58.6042   34.4113   43.2127 H   0  0  0  0  0  0  0  0  0  0  0  0
   59.9583   33.5193   43.9987 H   0  0  0  0  0  0  0  0  0  0  0  0
   55.8279   29.0697   43.8456 H   0  0  0  0  0  0  0  0  0  0  0  0
   55.4663   30.1784   42.4793 H   0  0  0  0  0  0  0  0  0  0  0  0
   56.9845   29.2183   42.4793 H   0  0  0  0  0  0  0  0  0  0  0  0
   56.8008   33.2536   46.9683 H   0  0  0  0  0  0  0  0  0  0  0  0
   58.0327   32.0238   47.4414 H   0  0  0  0  0  0  0  0  0  0  0  0
  1  2  1  0
  2  3  1  0
  3  4  1  0
  4  5  1  0
  5  6  2  0
  6  7  1  0
  7  8  2  0
  8  9  1  0
  9 10  1  0
 10 11  1  0
 11 12  1  0
 12 13  1  0
 13 14  1  0
 14 15  2  0
 15 16  1  0
 16 17  1  0
 16 18  2  0
 18 19  1  0
 19 20  1  0
  8 21  1  0
 21  5  1  0
 20 11  1  0
 19 14  1  0
  1 22  1  0
  1 23  1  0
  1 24  1  0
  2 25  1  0
  2 26  1  0
  4 27  1  0
  4 28  1  0
  6 29  1  0
  7 30  1  0
  9 31  1  0
  9 32  1  0
 10 33  1  0
 11 34  1  6
 12 35  1  0
 12 36  1  0
 13 37  1  0
 13 38  1  0
 17 39  1  0
 17 40  1  0
 17 41  1  0
 20 42  1  0
 20 43  1  0
M  END
>  <UniqueID>  (13) 
13

>  <SMILES>  (13) 
CCOCc1ccc(CN[C@@H]2CCc3nc(C)nn3C2)s1

>  <Energy>  (13) 
101.95385218033061

>  <Genealogy>  (13) 
CCOCc1ccc(CN[C@@H]2CCc3nc(C)nn3C2)s1 (chirality)
CCOCc1ccc(CN[C@@H]2CCc3nc(C)nn3C2)s1 (3D coordinates assigned)
CCOCc1ccc(CN[C@@H]2CCc3nc(C)nn3C2)s1 (nonaromatic ring conformer: 101.95385218033061 kcal/mol)

>  <smiles>  (13) 
CCOCc1ccc(CNC2CCc3nc(C)nn3C2)s1

>  <score_type>  (13) 
oracle

>  <origin>  (13) 
adg

>  <m_score__min__energy>  (13) 
-7.5199999999999996

>  <m_primary>  (13) 
energy

$$$$
13:0
     RDKit          3D

 77 80  0  0  0  0  0  0  0  0999 V2000
   58.6500   34.9300   52.4190 N   0  0  0  0  0  0  0  0  0  0  0  0
   59.3170   34.2510   53.4900 C   0  0  0  0  0  0  0  0  0  0  0  0
   59.0780   34.6630   54.8350 N   0  0  0  0  0  0  0  0  0  0  0  0
   60.1360   33.2630   53.2700 N   0  0  0  0  0  0  0  0  0  0  0  0
   61.5290   33.3970   52.8540 C   0  0  0  0  0  0  0  0  0  0  0  0
   61.7470   32.7340   51.4880 C   0  0  0  0  0  0  0  0  0  0  0  0
   61.3390   31.2410   51.4340 C   0  0  0  0  0  0  0  0  0  0  0  0
   59.8540   30.9790   51.0750 C   0  0  2  0  0  0  0  0  0  0  0  0
   59.7280   29.6710   50.4060 N   0  0  0  0  0  0  0  0  0  0  0  0
   60.5480   29.4420   49.1980 C   0  0  1  0  0  0  0  0  0  0  0  0
   60.7580   27.9480   48.8260 C   0  0  0  0  0  0  0  0  0  0  0  0
   59.6080   27.3280   48.1640 N   0  0  0  0  0  0  0  0  0  0  0  0
   59.6670   26.9230   46.7900 C   0  0  0  0  0  0  0  0  0  0  0  0
   60.6040   27.3310   46.0530 O   0  0  0  0  0  0  0  0  0  0  0  0
   58.6210   26.0450   46.2230 C   0  0  0  0  0  0  0  0  0  0  0  0
   57.2680   26.4100   46.3020 C   0  0  0  0  0  0  0  0  0  0  0  0
   56.2750   25.5730   45.7860 C   0  0  0  0  0  0  0  0  0  0  0  0
   56.6220   24.3640   45.1690 C   0  0  0  0  0  0  0  0  0  0  0  0
   55.6320   23.5100   44.6570 C   0  0  0  0  0  0  0  0  0  0  0  0
   55.9920   22.3070   44.0450 C   0  0  0  0  0  0  0  0  0  0  0  0
   57.3390   21.9450   43.9420 C   0  0  0  0  0  0  0  0  0  0  0  0
   58.3330   22.7870   44.4490 C   0  0  0  0  0  0  0  0  0  0  0  0
   57.9850   23.9980   45.0640 C   0  0  0  0  0  0  0  0  0  0  0  0
   58.9740   24.8430   45.5910 C   0  0  0  0  0  0  0  0  0  0  0  0
   60.1520   30.3630   48.0190 C   0  0  0  0  0  0  0  0  0  0  0  0
   60.6450   31.8050   48.1760 C   0  0  0  0  0  0  0  0  0  0  0  0
   59.7080   32.5890   48.9900 N   0  0  0  0  0  0  0  0  0  0  0  0
   59.1300   33.8170   48.4160 C   0  0  0  0  0  0  0  0  0  0  0  0
   58.8820   33.6360   46.9410 C   0  0  0  0  0  0  0  0  0  0  0  0
   59.5620   34.4210   45.9980 C   0  0  0  0  0  0  0  0  0  0  0  0
   59.2800   34.2850   44.6380 C   0  0  0  0  0  0  0  0  0  0  0  0
   58.3000   33.3880   44.2080 C   0  0  0  0  0  0  0  0  0  0  0  0
   57.6060   32.5970   45.1430 C   0  0  0  0  0  0  0  0  0  0  0  0
   56.6070   31.6790   44.7780 O   0  0  0  0  0  0  0  0  0  0  0  0
   56.7850   30.5350   43.9410 C   0  0  0  0  0  0  0  0  0  0  0  0
   56.9070   29.2610   44.7760 C   0  0  0  0  0  0  0  0  0  0  0  0
   55.6910   28.6100   44.8500 F   0  0  0  0  0  0  0  0  0  0  0  0
   57.3300   29.5770   46.0540 F   0  0  0  0  0  0  0  0  0  0  0  0
   57.8320   28.4140   44.1910 F   0  0  0  0  0  0  0  0  0  0  0  0
   57.9220   32.7130   46.5010 C   0  0  0  0  0  0  0  0  0  0  0  0
   59.2900   32.1720   50.3140 C   0  0  0  0  0  0  0  0  0  0  0  0
   58.3920   32.8350   50.9030 O   0  0  0  0  0  0  0  0  0  0  0  0
   57.9970   35.7160   52.6290 H   0  0  0  0  0  0  0  0  0  0  0  0
   58.7920   34.6720   51.4180 H   0  0  0  0  0  0  0  0  0  0  0  0
   59.5550   34.1820   55.6300 H   0  0  0  0  0  0  0  0  0  0  0  0
   58.4170   35.4430   55.0410 H   0  0  0  0  0  0  0  0  0  0  0  0
   61.7848   34.4645   52.7834 H   0  0  0  0  0  0  0  0  0  0  0  0
   62.1717   32.9018   53.5968 H   0  0  0  0  0  0  0  0  0  0  0  0
   61.1535   33.2809   50.7406 H   0  0  0  0  0  0  0  0  0  0  0  0
   62.8277   32.7736   51.2866 H   0  0  0  0  0  0  0  0  0  0  0  0
   61.9653   30.7434   50.6789 H   0  0  0  0  0  0  0  0  0  0  0  0
   61.4831   30.8465   52.4507 H   0  0  0  0  0  0  0  0  0  0  0  0
   59.2273   30.8977   51.9754 H   0  0  0  0  0  0  0  0  0  0  0  0
   58.7250   29.5430   50.1320 H   0  0  0  0  0  0  0  0  0  0  0  0
   61.5641   29.7600   49.4745 H   0  0  0  0  0  0  0  0  0  0  0  0
   61.6236   27.8788   48.1508 H   0  0  0  0  0  0  0  0  0  0  0  0
   60.9104   27.4049   49.7704 H   0  0  0  0  0  0  0  0  0  0  0  0
   58.6990   27.2260   48.6580 H   0  0  0  0  0  0  0  0  0  0  0  0
   56.9869   27.3630   46.7741 H   0  0  0  0  0  0  0  0  0  0  0  0
   55.2172   25.8644   45.8645 H   0  0  0  0  0  0  0  0  0  0  0  0
   54.5710   23.7888   44.7380 H   0  0  0  0  0  0  0  0  0  0  0  0
   55.2134   21.6422   43.6427 H   0  0  0  0  0  0  0  0  0  0  0  0
   57.6169   20.9956   43.4610 H   0  0  0  0  0  0  0  0  0  0  0  0
   59.3912   22.4987   44.3652 H   0  0  0  0  0  0  0  0  0  0  0  0
   60.0339   24.5608   45.5079 H   0  0  0  0  0  0  0  0  0  0  0  0
   60.5795   29.9479   47.0944 H   0  0  0  0  0  0  0  0  0  0  0  0
   59.0529   30.3986   47.9920 H   0  0  0  0  0  0  0  0  0  0  0  0
   61.6301   31.7984   48.6654 H   0  0  0  0  0  0  0  0  0  0  0  0
   60.7167   32.2643   47.1791 H   0  0  0  0  0  0  0  0  0  0  0  0
   58.1779   34.0402   48.9197 H   0  0  0  0  0  0  0  0  0  0  0  0
   59.8361   34.6478   48.5617 H   0  0  0  0  0  0  0  0  0  0  0  0
   60.3195   35.1456   46.3314 H   0  0  0  0  0  0  0  0  0  0  0  0
   59.8322   34.8871   43.9014 H   0  0  0  0  0  0  0  0  0  0  0  0
   58.0698   33.2993   43.1360 H   0  0  0  0  0  0  0  0  0  0  0  0
   55.9196   30.4430   43.2683 H   0  0  0  0  0  0  0  0  0  0  0  0
   57.7108   30.6648   43.3613 H   0  0  0  0  0  0  0  0  0  0  0  0
   57.4105   32.0715   47.2337 H   0  0  0  0  0  0  0  0  0  0  0  0
  1  2  1  0
  2  3  1  0
  2  4  2  3
  4  5  1  0
  5  6  1  0
  6  7  1  0
  7  8  1  0
  8  9  1  0
  9 10  1  0
 10 11  1  0
 11 12  1  0
 12 13  1  0
 13 14  2  0
 13 15  1  0
 15 16  2  0
 16 17  1  0
 17 18  2  0
 18 19  1  0
 19 20  2  0
 20 21  1  0
 21 22  2  0
 22 23  1  0
 23 24  2  0
 10 25  1  0
 25 26  1  0
 26 27  1  0
 27 28  1  0
 28 29  1  0
 29 30  2  0
 30 31  1  0
 31 32  2  0
 32 33  1  0
 33 34  1  0
 34 35  1  0
 35 36  1  0
 36 37  1  0
 36 38  1  0
 36 39  1  0
 33 40  2  0
 27 41  1  0
 41 42  2  0
 41  8  1  0
 24 15  1  0
 40 29  1  0
 23 18  1  0
  1 43  1  0
  1 44  1  0
  3 45  1  0
  3 46  1  0
  5 47  1  0
  5 48  1  0
  6 49  1  0
  6 50  1  0
  7 51  1  0
  7 52  1  0
  8 53  1  1
  9 54  1  0
 10 55  1  1
 11 56  1  0
 11 57  1  0
 12 58  1  0
 16 59  1  0
 17 60  1  0
 19 61  1  0
 20 62  1  0
 21 63  1  0
 22 64  1  0
 24 65  1  0
 25 66  1  0
 25 67  1  0
 26 68  1  0
 26 69  1  0
 28 70  1  0
 28 71  1  0
 30 72  1  0
 31 73  1  0
 32 74  1  0
 35 75  1  0
 35 76  1  0
 40 77  1  0
M  END
>  <UniqueID>  (14) 
14

>  <SMILES>  (14) 
NC(N)=NCCC[C@@H]1N[C@@H](CNC(=O)c2ccc3ccccc3c2)CCN(Cc2cccc(OCC(F)(F)F)c2)C1=O

>  <Energy>  (14) 
82.64041018144809

>  <Genealogy>  (14) 
NC(N)=NCCC[C@@H]1N[C@@H](CNC(=O)c2ccc3ccccc3c2)CCN(Cc2cccc(OCC(F)(F)F)c2)C1=O (chirality)
NC(N)=NCCC[C@@H]1N[C@@H](CNC(=O)c2ccc3ccccc3c2)CCN(Cc2cccc(OCC(F)(F)F)c2)C1=O (3D coordinates assigned)
NC(N)=NCCC[C@@H]1N[C@@H](CNC(=O)c2ccc3ccccc3c2)CCN(Cc2cccc(OCC(F)(F)F)c2)C1=O (nonaromatic ring conformer: 82.64041018144809 kcal/mol)

>  <smiles>  (14) 
NC(N)=NCCCC1NC(CNC(=O)c2ccc3ccccc3c2)CCN(Cc2cccc(OCC(F)(F)F)c2)C1=O

>  <score_type>  (14) 
oracle

>  <origin>  (14) 
adg

>  <m_score__min__energy>  (14) 
-7.6600000000000001

>  <m_primary>  (14) 
energy

$$$$
14:0
     RDKit          3D

 39 42  0  0  0  0  0  0  0  0999 V2000
   56.9930   22.6250   43.7370 C   0  0  0  0  0  0  0  0  0  0  0  0
   57.0310   23.8720   42.9810 N   0  0  0  0  0  0  0  0  0  0  0  0
   57.3400   25.1490   43.5680 C   0  0  0  0  0  0  0  0  0  0  0  0
   57.7710   26.1990   42.7420 C   0  0  0  0  0  0  0  0  0  0  0  0
   58.0780   27.4500   43.2830 C   0  0  0  0  0  0  0  0  0  0  0  0
   57.9610   27.6800   44.6650 C   0  0  0  0  0  0  0  0  0  0  0  0
   58.2870   29.0090   45.2400 C   0  0  0  0  0  0  0  0  0  0  0  0
   59.1340   29.1140   46.3570 C   0  0  0  0  0  0  0  0  0  0  0  0
   59.4360   30.3610   46.9090 C   0  0  0  0  0  0  0  0  0  0  0  0
   58.8950   31.5280   46.3480 C   0  0  0  0  0  0  0  0  0  0  0  0
   58.0590   31.4390   45.2160 C   0  0  0  0  0  0  0  0  0  0  0  0
   57.7460   30.1810   44.6810 C   0  0  0  0  0  0  0  0  0  0  0  0
   57.4050   32.6920   44.6590 C   0  0  0  0  0  0  0  0  0  0  0  0
   58.2600   33.9610   44.8570 C   0  0  0  0  0  0  0  0  0  0  0  0
   58.8790   33.9650   46.2210 C   0  0  0  0  0  0  0  0  0  0  0  0
   59.3360   35.0470   46.9480 C   0  0  0  0  0  0  0  0  0  0  0  0
   59.9210   34.4790   48.0700 C   0  0  0  0  0  0  0  0  0  0  0  0
   59.8240   33.1360   47.9910 N   0  0  0  0  0  0  0  0  0  0  0  0
   59.2000   32.8340   46.8640 N   0  0  0  0  0  0  0  0  0  0  0  0
   57.5290   26.6290   45.4920 C   0  0  0  0  0  0  0  0  0  0  0  0
   57.2220   25.3770   44.9520 C   0  0  0  0  0  0  0  0  0  0  0  0
   56.9998   22.8488   44.8140 H   0  0  0  0  0  0  0  0  0  0  0  0
   56.0775   22.0703   43.4835 H   0  0  0  0  0  0  0  0  0  0  0  0
   57.8730   22.0156   43.4835 H   0  0  0  0  0  0  0  0  0  0  0  0
   56.8200   23.8240   41.9580 H   0  0  0  0  0  0  0  0  0  0  0  0
   57.8679   26.0353   41.6586 H   0  0  0  0  0  0  0  0  0  0  0  0
   58.4142   28.2622   42.6218 H   0  0  0  0  0  0  0  0  0  0  0  0
   59.5637   28.2040   46.8012 H   0  0  0  0  0  0  0  0  0  0  0  0
   60.0986   30.4284   47.7844 H   0  0  0  0  0  0  0  0  0  0  0  0
   57.0707   30.1100   43.8156 H   0  0  0  0  0  0  0  0  0  0  0  0
   57.2354   32.5489   43.5816 H   0  0  0  0  0  0  0  0  0  0  0  0
   56.4637   32.8421   45.2081 H   0  0  0  0  0  0  0  0  0  0  0  0
   59.0556   33.9843   44.0977 H   0  0  0  0  0  0  0  0  0  0  0  0
   57.6147   34.8460   44.7550 H   0  0  0  0  0  0  0  0  0  0  0  0
   59.2546   36.1144   46.6951 H   0  0  0  0  0  0  0  0  0  0  0  0
   60.3902   35.0360   48.8944 H   0  0  0  0  0  0  0  0  0  0  0  0
   60.1790   32.4560   48.6970 H   0  0  0  0  0  0  0  0  0  0  0  0
   57.4315   26.7934   46.5753 H   0  0  0  0  0  0  0  0  0  0  0  0
   56.8859   24.5644   45.6129 H   0  0  0  0  0  0  0  0  0  0  0  0
  1  2  1  0
  2  3  1  0
  3  4  2  0
  4  5  1  0
  5  6  2  0
  6  7  1  0
  7  8  2  0
  8  9  1  0
  9 10  2  0
 10 11  1  0
 11 12  2  0
 11 13  1  0
 13 14  1  0
 14 15  1  0
 15 16  2  0
 16 17  1  0
 17 18  2  0
 18 19  1  0
  6 20  1  0
 20 21  2  0
 21  3  1  0
 12  7  1  0
 19 15  1  0
 19 10  1  0
  1 22  1  0
  1 23  1  0
  1 24  1  0
  2 25  1  0
  4 26  1  0
  5 27  1  0
  8 28  1  0
  9 29  1  0
 12 30  1  0
 13 31  1  0
 13 32  1  0
 14 33  1  0
 14 34  1  0
 16 35  1  0
 17 36  1  0
 18 37  1  0
 20 38  1  0
 21 39  1  0
M  CHG  1  18   1
M  END
>  <UniqueID>  (15) 
15

>  <SMILES>  (15) 
CNc1ccc(-c2ccc3c(c2)CCc2cc[nH+]n2-3)cc1

>  <Energy>  (15) 
82.00864766420348

>  <Genealogy>  (15) 
CNc1ccc(-c2ccc3c(c2)CCc2cc[nH+]n2-3)cc1 (protonated)
CNc1ccc(-c2ccc3c(c2)CCc2cc[nH+]n2-3)cc1 (3D coordinates assigned)
CNc1ccc(-c2ccc3c(c2)CCc2cc[nH+]n2-3)cc1 (nonaromatic ring conformer: 82.00864766420348 kcal/mol)

>  <smiles>  (15) 
CNc1ccc(-c2ccc3c(c2)CCc2ccnn2-3)cc1

>  <score_type>  (15) 
oracle

>  <origin>  (15) 
adg

>  <m_score__min__energy>  (15) 
-6.2300000000000004

>  <m_primary>  (15) 
energy

$$$$
15:0
     RDKit          3D

 47 48  0  0  0  0  0  0  0  0999 V2000
   57.9567   29.6590   44.0634 H   0  0  0  0  0  0  0  0  0  0  0  0
   58.1210   30.6890   44.4130 C   0  0  0  0  0  0  0  0  0  0  0  0
   57.8810   31.7620   43.5500 C   0  0  0  0  0  0  0  0  0  0  0  0
   57.5303   31.5727   42.5247 H   0  0  0  0  0  0  0  0  0  0  0  0
   58.0850   33.0750   43.9850 C   0  0  0  0  0  0  0  0  0  0  0  0
   57.8944   33.9167   43.3030 H   0  0  0  0  0  0  0  0  0  0  0  0
   58.5330   33.3180   45.2920 C   0  0  0  0  0  0  0  0  0  0  0  0
   58.7450   34.6220   45.7570 C   0  0  0  0  0  0  0  0  0  0  0  0
   58.5613   35.4801   45.0937 H   0  0  0  0  0  0  0  0  0  0  0  0
   59.1900   34.8310   47.0640 C   0  0  0  0  0  0  0  0  0  0  0  0
   59.3573   35.8532   47.4344 H   0  0  0  0  0  0  0  0  0  0  0  0
   59.4220   33.7330   47.9000 C   0  0  0  0  0  0  0  0  0  0  0  0
   59.8370   33.9310   49.1180 N   0  0  0  0  0  0  0  0  0  0  0  0
   59.2820   33.2840   50.3060 C   0  0  0  0  0  0  0  0  0  0  0  0
   58.1837   33.3003   50.2464 H   0  0  0  0  0  0  0  0  0  0  0  0
   59.6237   33.8293   51.1981 H   0  0  0  0  0  0  0  0  0  0  0  0
   59.7610   31.8250   50.4040 C   0  0  0  0  0  0  0  0  0  0  0  0
   58.8816   31.1643   50.4127 H   0  0  0  0  0  0  0  0  0  0  0  0
   60.3485   31.7261   51.3287 H   0  0  0  0  0  0  0  0  0  0  0  0
   60.6300   31.4420   49.2760 N   0  0  0  0  0  0  0  0  0  0  0  0
   60.0720   30.8250   48.6390 H   0  0  0  0  0  0  0  0  0  0  0  0
   60.9090   32.2970   48.7370 H   0  0  0  0  0  0  0  0  0  0  0  0
   61.8290   30.7090   49.7150 C   0  0  0  0  0  0  0  0  0  0  0  0
   61.8407   29.7178   49.2381 H   0  0  0  0  0  0  0  0  0  0  0  0
   61.7987   30.6064   50.8098 H   0  0  0  0  0  0  0  0  0  0  0  0
   63.1070   31.4710   49.3260 C   0  0  0  0  0  0  0  0  0  0  0  0
   63.7447   30.8158   48.7145 H   0  0  0  0  0  0  0  0  0  0  0  0
   63.6317   31.7691   50.2457 H   0  0  0  0  0  0  0  0  0  0  0  0
   62.7810   32.6910   48.5510 N   0  0  0  0  0  0  0  0  0  0  0  0
   63.4400   33.8970   49.1150 C   0  0  0  0  0  0  0  0  0  0  0  0
   63.3036   34.7444   48.4271 H   0  0  0  0  0  0  0  0  0  0  0  0
   64.5141   33.6992   49.2463 H   0  0  0  0  0  0  0  0  0  0  0  0
   62.8180   34.2340   50.4650 C   0  0  0  0  0  0  0  0  0  0  0  0
   63.4760   33.8775   51.2711 H   0  0  0  0  0  0  0  0  0  0  0  0
   62.6924   35.3236   50.5491 H   0  0  0  0  0  0  0  0  0  0  0  0
   61.8367   33.7442   50.5491 H   0  0  0  0  0  0  0  0  0  0  0  0
   63.1140   32.5010   47.1210 C   0  0  0  0  0  0  0  0  0  0  0  0
   64.0225   31.8859   47.0420 H   0  0  0  0  0  0  0  0  0  0  0  0
   62.2666   32.0027   46.6274 H   0  0  0  0  0  0  0  0  0  0  0  0
   63.3580   33.8440   46.4310 C   0  0  0  0  0  0  0  0  0  0  0  0
   63.5001   34.6263   47.1911 H   0  0  0  0  0  0  0  0  0  0  0  0
   64.2584   33.7752   45.8028 H   0  0  0  0  0  0  0  0  0  0  0  0
   62.4910   34.0964   45.8028 H   0  0  0  0  0  0  0  0  0  0  0  0
   59.2130   32.4710   47.4300 N   0  0  0  0  0  0  0  0  0  0  0  0
   58.7780   32.2330   46.1640 C   0  0  0  0  0  0  0  0  0  0  0  0
   58.5690   30.9170   45.7190 C   0  0  0  0  0  0  0  0  0  0  0  0
   58.8850   29.4240   46.8750 Br  0  0  0  0  0  0  0  0  0  0  0  0
  1  2  1  0
  2  3  2  0
  3  4  1  0
  3  5  1  0
  5  6  1  0
  5  7  2  0
  7  8  1  0
  8  9  1  0
  8 10  2  0
 10 11  1  0
 10 12  1  0
 12 13  2  0
 13 14  1  0
 14 15  1  0
 14 16  1  0
 14 17  1  0
 17 18  1  0
 17 19  1  0
 17 20  1  0
 20 21  1  0
 20 22  1  0
 20 23  1  0
 23 24  1  0
 23 25  1  0
 23 26  1  0
 26 27  1  0
 26 28  1  0
 26 29  1  0
 29 30  1  0
 30 31  1  0
 30 32  1  0
 30 33  1  0
 33 34  1  0
 33 35  1  0
 33 36  1  0
 29 37  1  0
 37 38  1  0
 37 39  1  0
 37 40  1  0
 40 41  1  0
 40 42  1  0
 40 43  1  0
 12 44  1  0
 44 45  1  0
 45 46  2  0
 46 47  1  0
 46  2  1  0
 45  7  1  0
M  CHG  2  20   1  44  -1
M  END
>  <UniqueID>  (16) 
16

>  <SMILES>  (16) 
CCN(CC)CC[NH2+]CC/N=c1/ccc2cccc(Br)c2[n-]1

>  <Energy>  (16) 
46.421664255430784

>  <Genealogy>  (16) 
CCN(CC)CC[NH2+]CCN=c1ccc2cccc(Br)c2[n-]1 (protonated)
CCN(CC)CC[NH2+]CC/N=c1/ccc2cccc(Br)c2[n-]1 (cis-trans isomerization)
CCN(CC)CC[NH2+]CC/N=c1/ccc2cccc(Br)c2[n-]1 (3D coordinates assigned)
CCN(CC)CC[NH2+]CC/N=c1/ccc2cccc(Br)c2[n-]1 (optimized conformer: 46.421664255430784 kcal/mol)

>  <smiles>  (16) 
CCN(CC)CCNCCN=c1ccc2cccc(Br)c2[nH]1

>  <score_type>  (16) 
oracle

>  <origin>  (16) 
adg

>  <m_score__min__energy>  (16) 
-6.04

>  <m_primary>  (16) 
energy

$$$$
16:0
     RDKit          3D

 41 42  0  0  0  0  0  0  0  0999 V2000
   55.1280   24.9990   54.6130 C   0  0  0  0  0  0  0  0  0  0  0  0
   53.8510   25.4040   53.8870 C   0  0  0  0  0  0  0  0  0  0  0  0
   53.8550   26.8590   53.6140 N   0  0  0  0  0  0  0  0  0  0  0  0
   52.6060   27.5200   54.0640 C   0  0  0  0  0  0  0  0  0  0  0  0
   51.4140   27.3210   53.1180 C   0  0  0  0  0  0  0  0  0  0  0  0
   55.0940   27.5100   54.1030 C   0  0  0  0  0  0  0  0  0  0  0  0
   55.2610   28.9160   53.5210 C   0  0  0  0  0  0  0  0  0  0  0  0
   54.5090   29.0510   52.3200 O   0  0  0  0  0  0  0  0  0  0  0  0
   53.8790   30.2460   51.9600 C   0  0  0  0  0  0  0  0  0  0  0  0
   54.4950   31.3450   52.0330 O   0  0  0  0  0  0  0  0  0  0  0  0
   52.4790   30.2130   51.4410 C   0  0  0  0  0  0  0  0  0  0  0  0
   51.6690   31.2910   52.0950 C   0  0  0  0  0  0  0  0  0  0  0  0
   51.0080   32.3370   51.4660 C   0  0  0  0  0  0  0  0  0  0  0  0
   51.0340   32.5800   50.0980 O   0  0  0  0  0  0  0  0  0  0  0  0
   50.3150   33.1090   52.3360 N   0  0  0  0  0  0  0  0  0  0  0  0
   50.5400   32.5310   53.5320 C   0  0  0  0  0  0  0  0  0  0  0  0
   50.0350   32.9490   54.7630 C   0  0  0  0  0  0  0  0  0  0  0  0
   50.3780   32.2040   55.9050 C   0  0  0  0  0  0  0  0  0  0  0  0
   51.2090   31.0670   55.7960 C   0  0  0  0  0  0  0  0  0  0  0  0
   51.7030   30.6640   54.5430 C   0  0  0  0  0  0  0  0  0  0  0  0
   51.3480   31.4230   53.4280 C   0  0  0  0  0  0  0  0  0  0  0  0
   54.9643   25.0509   55.6995 H   0  0  0  0  0  0  0  0  0  0  0  0
   55.3993   23.9707   54.3318 H   0  0  0  0  0  0  0  0  0  0  0  0
   55.9423   25.6830   54.3318 H   0  0  0  0  0  0  0  0  0  0  0  0
   53.7853   24.8563   52.9353 H   0  0  0  0  0  0  0  0  0  0  0  0
   52.9860   25.1613   54.5217 H   0  0  0  0  0  0  0  0  0  0  0  0
   52.3360   27.1132   55.0497 H   0  0  0  0  0  0  0  0  0  0  0  0
   52.8116   28.6003   54.0911 H   0  0  0  0  0  0  0  0  0  0  0  0
   50.4987   27.1682   53.7086 H   0  0  0  0  0  0  0  0  0  0  0  0
   51.2966   28.2120   52.4837 H   0  0  0  0  0  0  0  0  0  0  0  0
   51.5924   26.4402   52.4837 H   0  0  0  0  0  0  0  0  0  0  0  0
   55.0507   27.5808   55.1999 H   0  0  0  0  0  0  0  0  0  0  0  0
   55.9518   26.9011   53.7814 H   0  0  0  0  0  0  0  0  0  0  0  0
   54.9076   29.6557   54.2544 H   0  0  0  0  0  0  0  0  0  0  0  0
   56.3245   29.0837   53.2956 H   0  0  0  0  0  0  0  0  0  0  0  0
   52.4892   30.3733   50.3528 H   0  0  0  0  0  0  0  0  0  0  0  0
   52.0309   29.2343   51.6676 H   0  0  0  0  0  0  0  0  0  0  0  0
   49.3876   33.8352   54.8382 H   0  0  0  0  0  0  0  0  0  0  0  0
   49.9964   32.5088   56.8906 H   0  0  0  0  0  0  0  0  0  0  0  0
   51.4713   30.4933   56.6972 H   0  0  0  0  0  0  0  0  0  0  0  0
   52.3486   29.7788   54.4451 H   0  0  0  0  0  0  0  0  0  0  0  0
  1  2  1  0
  2  3  1  0
  3  4  1  0
  4  5  1  0
  3  6  1  0
  6  7  1  0
  7  8  1  0
  8  9  1  0
  9 10  2  0
  9 11  1  0
 11 12  1  0
 12 13  2  0
 13 14  1  0
 13 15  1  0
 15 16  1  0
 16 17  2  0
 17 18  1  0
 18 19  2  0
 19 20  1  0
 20 21  2  0
 21 12  1  0
 21 16  1  0
  1 22  1  0
  1 23  1  0
  1 24  1  0
  2 25  1  0
  2 26  1  0
  4 27  1  0
  4 28  1  0
  5 29  1  0
  5 30  1  0
  5 31  1  0
  6 32  1  0
  6 33  1  0
  7 34  1  0
  7 35  1  0
 11 36  1  0
 11 37  1  0
 17 38  1  0
 18 39  1  0
 19 40  1  0
 20 41  1  0
M  CHG  2  14  -1  15  -1
M  END
>  <UniqueID>  (17) 
17

>  <SMILES>  (17) 
CCN(CC)CCOC(=O)Cc1c([O-])[n-]c2ccccc12

>  <Energy>  (17) 
67.40942525965694

>  <Genealogy>  (17) 
CCN(CC)CCOC(=O)Cc1c([O-])[n-]c2ccccc12 (protonated)
CCN(CC)CCOC(=O)Cc1c([O-])[n-]c2ccccc12 (3D coordinates assigned)
CCN(CC)CCOC(=O)Cc1c([O-])[n-]c2ccccc12 (optimized conformer: 67.40942525965694 kcal/mol)

>  <smiles>  (17) 
CCN(CC)CCOC(=O)Cc1c(O)[nH]c2ccccc12

>  <score_type>  (17) 
oracle

>  <origin>  (17) 
adg

>  <m_score__min__energy>  (17) 
-11.710000000000001

>  <m_primary>  (17) 
energy

$$$$
17:0
     RDKit          3D

 42 45  0  0  0  0  0  0  0  0999 V2000
   64.2030   33.4990   50.8880 C   0  0  0  0  0  0  0  0  0  0  0  0
   63.6800   33.2060   49.5160 C   0  0  0  0  0  0  0  0  0  0  0  0
   64.4680   32.9950   48.4480 N   0  0  0  0  0  0  0  0  0  0  0  0
   63.7100   32.5680   47.4510 N   0  0  0  0  0  0  0  0  0  0  0  0
   62.4470   32.5240   47.9250 C   0  0  0  0  0  0  0  0  0  0  0  0
   61.3000   32.0460   47.1210 C   0  0  0  0  0  0  0  0  0  0  0  0
   60.3140   32.9540   46.7050 C   0  0  0  0  0  0  0  0  0  0  0  0
   59.2250   32.5200   45.9440 C   0  0  0  0  0  0  0  0  0  0  0  0
   59.0930   31.1640   45.5940 C   0  0  0  0  0  0  0  0  0  0  0  0
   57.9380   30.7020   44.7830 C   0  0  0  0  0  0  0  0  0  0  0  0
   57.7320   31.2020   43.4830 C   0  0  0  0  0  0  0  0  0  0  0  0
   56.6440   30.7650   42.7200 C   0  0  0  0  0  0  0  0  0  0  0  0
   55.7520   29.8270   43.2450 C   0  0  0  0  0  0  0  0  0  0  0  0
   55.9480   29.3220   44.5320 C   0  0  0  0  0  0  0  0  0  0  0  0
   57.0330   29.7560   45.3000 C   0  0  0  0  0  0  0  0  0  0  0  0
   60.0720   30.2530   46.0300 C   0  0  0  0  0  0  0  0  0  0  0  0
   61.1590   30.6890   46.7910 C   0  0  0  0  0  0  0  0  0  0  0  0
   62.3940   32.9220   49.2200 N   0  0  0  0  0  0  0  0  0  0  0  0
   61.3020   32.7990   50.1440 C   0  0  0  0  0  0  0  0  0  0  0  0
   60.3760   33.8450   50.2670 C   0  0  0  0  0  0  0  0  0  0  0  0
   59.3120   33.7420   51.1660 C   0  0  0  0  0  0  0  0  0  0  0  0
   59.1680   32.5950   51.9510 C   0  0  0  0  0  0  0  0  0  0  0  0
   60.0920   31.5520   51.8420 C   0  0  0  0  0  0  0  0  0  0  0  0
   61.1620   31.6490   50.9430 C   0  0  0  0  0  0  0  0  0  0  0  0
   62.3430   30.3480   50.8770 Cl  0  0  0  0  0  0  0  0  0  0  0  0
   63.5020   33.1063   51.6392 H   0  0  0  0  0  0  0  0  0  0  0  0
   65.1846   33.0194   51.0164 H   0  0  0  0  0  0  0  0  0  0  0  0
   64.3067   34.5866   51.0164 H   0  0  0  0  0  0  0  0  0  0  0  0
   65.5060   33.0960   48.4020 H   0  0  0  0  0  0  0  0  0  0  0  0
   60.3990   34.0157   46.9801 H   0  0  0  0  0  0  0  0  0  0  0  0
   58.4651   33.2446   45.6161 H   0  0  0  0  0  0  0  0  0  0  0  0
   58.4311   31.9410   43.0646 H   0  0  0  0  0  0  0  0  0  0  0  0
   56.4907   31.1606   41.7051 H   0  0  0  0  0  0  0  0  0  0  0  0
   54.8955   29.4863   42.6448 H   0  0  0  0  0  0  0  0  0  0  0  0
   55.2469   28.5806   44.9429 H   0  0  0  0  0  0  0  0  0  0  0  0
   57.1801   29.3558   46.3140 H   0  0  0  0  0  0  0  0  0  0  0  0
   59.9808   29.1882   45.7694 H   0  0  0  0  0  0  0  0  0  0  0  0
   61.9107   29.9631   47.1345 H   0  0  0  0  0  0  0  0  0  0  0  0
   60.4881   34.7506   49.6527 H   0  0  0  0  0  0  0  0  0  0  0  0
   58.5870   34.5643   51.2561 H   0  0  0  0  0  0  0  0  0  0  0  0
   58.3269   32.5129   52.6552 H   0  0  0  0  0  0  0  0  0  0  0  0
   59.9787   30.6520   52.4642 H   0  0  0  0  0  0  0  0  0  0  0  0
  1  2  1  0
  2  3  2  0
  3  4  1  0
  4  5  2  0
  5  6  1  0
  6  7  2  0
  7  8  1  0
  8  9  2  0
  9 10  1  0
 10 11  2  0
 11 12  1  0
 12 13  2  0
 13 14  1  0
 14 15  2  0
  9 16  1  0
 16 17  2  0
  5 18  1  0
 18 19  1  0
 19 20  2  0
 20 21  1  0
 21 22  2  0
 22 23  1  0
 23 24  2  0
 24 25  1  0
 18  2  1  0
 24 19  1  0
 17  6  1  0
 15 10  1  0
  1 26  1  0
  1 27  1  0
  1 28  1  0
  3 29  1  0
  7 30  1  0
  8 31  1  0
 11 32  1  0
 12 33  1  0
 13 34  1  0
 14 35  1  0
 15 36  1  0
 16 37  1  0
 17 38  1  0
 20 39  1  0
 21 40  1  0
 22 41  1  0
 23 42  1  0
M  CHG  1   3   1
M  END
>  <UniqueID>  (18) 
18

>  <SMILES>  (18) 
Cc1[nH+]nc(-c2ccc(-c3ccccc3)cc2)n1-c1ccccc1Cl

>  <Energy>  (18) 
96.56390204166374

>  <Genealogy>  (18) 
Cc1[nH+]nc(-c2ccc(-c3ccccc3)cc2)n1-c1ccccc1Cl (protonated)
Cc1[nH+]nc(-c2ccc(-c3ccccc3)cc2)n1-c1ccccc1Cl (3D coordinates assigned)
Cc1[nH+]nc(-c2ccc(-c3ccccc3)cc2)n1-c1ccccc1Cl (optimized conformer: 96.56390204166374 kcal/mol)

>  <smiles>  (18) 
Cc1nnc(-c2ccc(-c3ccccc3)cc2)n1-c1ccccc1Cl

>  <score_type>  (18) 
oracle

>  <origin>  (18) 
adg

>  <m_score__min__energy>  (18) 
-6.4699999999999998

>  <m_primary>  (18) 
energy

$$$$
18:0
     RDKit          3D

 63 66  0  0  0  0  0  0  0  0999 V2000
   56.4810   22.9720   43.0260 C   0  0  0  0  0  0  0  0  0  0  0  0
   56.9920   24.2000   43.7670 C   0  0  0  0  0  0  0  0  0  0  0  0
   58.0710   23.8260   44.7090 N   0  0  0  0  0  0  0  0  0  0  0  0
   58.4640   22.4210   44.5140 C   0  0  0  0  0  0  0  0  0  0  0  0
   57.6560   24.0490   46.1120 C   0  0  0  0  0  0  0  0  0  0  0  0
   57.3390   25.5340   46.3440 C   0  0  0  0  0  0  0  0  0  0  0  0
   58.6130   26.3800   46.4280 C   0  0  0  0  0  0  0  0  0  0  0  0
   58.2820   27.8050   46.5480 N   0  0  0  0  0  0  0  0  0  0  0  0
   58.9160   28.6700   47.5090 C   0  0  0  0  0  0  0  0  0  0  0  0
   59.5960   28.0990   48.5900 C   0  0  0  0  0  0  0  0  0  0  0  0
   60.3430   28.8840   49.4770 C   0  0  0  0  0  0  0  0  0  0  0  0
   61.0380   28.3120   50.5590 O   0  0  0  0  0  0  0  0  0  0  0  0
   61.1000   26.9190   50.8400 C   0  0  0  0  0  0  0  0  0  0  0  0
   60.4250   30.2790   49.2840 C   0  0  0  0  0  0  0  0  0  0  0  0
   61.4000   31.0350   50.0560 N   0  0  0  0  0  0  0  0  0  0  0  0
   62.2210   31.8510   49.1900 C   0  0  0  0  0  0  0  0  0  0  0  0
   62.7020   31.3340   47.9700 C   0  0  0  0  0  0  0  0  0  0  0  0
   63.4790   32.1280   47.1230 C   0  0  0  0  0  0  0  0  0  0  0  0
   63.7760   33.4460   47.4780 C   0  0  0  0  0  0  0  0  0  0  0  0
   63.2890   33.9750   48.6770 C   0  0  0  0  0  0  0  0  0  0  0  0
   62.5130   33.1860   49.5280 C   0  0  0  0  0  0  0  0  0  0  0  0
   59.6000   30.8910   48.2940 C   0  0  0  0  0  0  0  0  0  0  0  0
   58.9040   30.0810   47.3530 C   0  0  0  0  0  0  0  0  0  0  0  0
   58.1580   30.7470   46.2390 C   0  0  0  0  0  0  0  0  0  0  0  0
   57.3630   30.0960   45.5080 O   0  0  0  0  0  0  0  0  0  0  0  0
   58.3230   32.1980   46.0000 C   0  0  0  0  0  0  0  0  0  0  0  0
   57.8540   32.7960   44.8190 C   0  0  0  0  0  0  0  0  0  0  0  0
   57.9930   34.1720   44.6230 C   0  0  0  0  0  0  0  0  0  0  0  0
   58.6040   34.9620   45.6000 C   0  0  0  0  0  0  0  0  0  0  0  0
   59.0720   34.3780   46.7800 C   0  0  0  0  0  0  0  0  0  0  0  0
   58.9370   32.9940   46.9830 C   0  0  0  0  0  0  0  0  0  0  0  0
   59.3840   32.3660   48.2400 C   0  0  0  0  0  0  0  0  0  0  0  0
   59.4500   33.0700   49.2830 O   0  0  0  0  0  0  0  0  0  0  0  0
   56.1640   22.2103   43.7535 H   0  0  0  0  0  0  0  0  0  0  0  0
   55.6257   23.2543   42.3946 H   0  0  0  0  0  0  0  0  0  0  0  0
   57.2841   22.5642   42.3946 H   0  0  0  0  0  0  0  0  0  0  0  0
   57.3830   24.9256   43.0385 H   0  0  0  0  0  0  0  0  0  0  0  0
   56.1613   24.6433   44.3357 H   0  0  0  0  0  0  0  0  0  0  0  0
   58.5989   21.9387   45.4934 H   0  0  0  0  0  0  0  0  0  0  0  0
   57.6785   21.8952   43.9514 H   0  0  0  0  0  0  0  0  0  0  0  0
   59.4083   22.3791   43.9514 H   0  0  0  0  0  0  0  0  0  0  0  0
   56.7591   23.4488   46.3250 H   0  0  0  0  0  0  0  0  0  0  0  0
   58.4769   23.7495   46.7801 H   0  0  0  0  0  0  0  0  0  0  0  0
   56.7219   25.9010   45.5106 H   0  0  0  0  0  0  0  0  0  0  0  0
   56.8042   25.6245   47.3010 H   0  0  0  0  0  0  0  0  0  0  0  0
   59.1956   26.0692   47.3078 H   0  0  0  0  0  0  0  0  0  0  0  0
   59.1992   26.2290   45.5096 H   0  0  0  0  0  0  0  0  0  0  0  0
   57.7200   28.2410   45.7860 H   0  0  0  0  0  0  0  0  0  0  0  0
   59.5428   27.0115   48.7464 H   0  0  0  0  0  0  0  0  0  0  0  0
   61.1069   26.7646   51.9291 H   0  0  0  0  0  0  0  0  0  0  0  0
   60.2233   26.4176   50.4041 H   0  0  0  0  0  0  0  0  0  0  0  0
   62.0178   26.4975   50.4041 H   0  0  0  0  0  0  0  0  0  0  0  0
   61.9810   30.3650   50.6120 H   0  0  0  0  0  0  0  0  0  0  0  0
   60.9680   31.7000   50.7280 H   0  0  0  0  0  0  0  0  0  0  0  0
   62.4641   30.2991   47.6832 H   0  0  0  0  0  0  0  0  0  0  0  0
   63.8571   31.7152   46.1761 H   0  0  0  0  0  0  0  0  0  0  0  0
   64.3936   34.0682   46.8136 H   0  0  0  0  0  0  0  0  0  0  0  0
   63.5179   35.0156   48.9505 H   0  0  0  0  0  0  0  0  0  0  0  0
   62.1278   33.6096   50.4673 H   0  0  0  0  0  0  0  0  0  0  0  0
   57.3752   32.1782   44.0450 H   0  0  0  0  0  0  0  0  0  0  0  0
   57.6205   34.6347   43.6972 H   0  0  0  0  0  0  0  0  0  0  0  0
   58.7167   36.0445   45.4402 H   0  0  0  0  0  0  0  0  0  0  0  0
   59.5468   35.0025   47.5511 H   0  0  0  0  0  0  0  0  0  0  0  0
  1  2  1  0
  2  3  1  0
  3  4  1  0
  3  5  1  0
  5  6  1  0
  6  7  1  0
  7  8  1  0
  8  9  1  0
  9 10  2  0
 10 11  1  0
 11 12  1  0
 12 13  1  0
 11 14  2  0
 14 15  1  0
 15 16  1  0
 16 17  2  0
 17 18  1  0
 18 19  2  0
 19 20  1  0
 20 21  2  0
 14 22  1  0
 22 23  2  0
 23 24  1  0
 24 25  2  0
 24 26  1  0
 26 27  2  0
 27 28  1  0
 28 29  2  0
 29 30  1  0
 30 31  2  0
 31 32  1  0
 32 33  2  0
 23  9  1  0
 31 26  1  0
 21 16  1  0
 32 22  1  0
  1 34  1  0
  1 35  1  0
  1 36  1  0
  2 37  1  0
  2 38  1  0
  4 39  1  0
  4 40  1  0
  4 41  1  0
  5 42  1  0
  5 43  1  0
  6 44  1  0
  6 45  1  0
  7 46  1  0
  7 47  1  0
  8 48  1  0
 10 49  1  0
 13 50  1  0
 13 51  1  0
 13 52  1  0
 15 53  1  0
 15 54  1  0
 17 55  1  0
 18 56  1  0
 19 57  1  0
 20 58  1  0
 21 59  1  0
 27 60  1  0
 28 61  1  0
 29 62  1  0
 30 63  1  0
M  CHG  1  15   1
M  END
>  <UniqueID>  (19) 
19

>  <SMILES>  (19) 
CCN(C)CCCNc1cc(OC)c([NH2+]c2ccccc2)c2c1C(=O)c1ccccc1C2=O

>  <Energy>  (19) 
87.1629468933486

>  <Genealogy>  (19) 
CCN(C)CCCNc1cc(OC)c([NH2+]c2ccccc2)c2c1C(=O)c1ccccc1C2=O (protonated)
CCN(C)CCCNc1cc(OC)c([NH2+]c2ccccc2)c2c1C(=O)c1ccccc1C2=O (3D coordinates assigned)
CCN(C)CCCNc1cc(OC)c([NH2+]c2ccccc2)c2c1C(=O)c1ccccc1C2=O (nonaromatic ring conformer: 87.1629468933486 kcal/mol)

>  <smiles>  (19) 
CCN(C)CCCNc1cc(OC)c(Nc2ccccc2)c2c1C(=O)c1ccccc1C2=O

>  <score_type>  (19) 
oracle

>  <origin>  (19) 
adg

>  <m_score__min__energy>  (19) 
-6.75

>  <m_primary>  (19) 
energy

$$$$
19:0
     RDKit          3D

 36 38  0  0  0  0  0  0  0  0999 V2000
   53.8850   24.8370   45.6180 C   0  0  0  0  0  0  0  0  0  0  0  0
   54.9820   25.6690   45.9850 O   0  0  0  0  0  0  0  0  0  0  0  0
   56.3280   25.2660   45.9700 C   0  0  0  0  0  0  0  0  0  0  0  0
   56.7010   23.9200   46.1590 C   0  0  0  0  0  0  0  0  0  0  0  0
   58.0470   23.5470   46.1400 C   0  0  0  0  0  0  0  0  0  0  0  0
   59.0400   24.5050   45.9320 C   0  0  0  0  0  0  0  0  0  0  0  0
   58.6930   25.8440   45.7420 C   0  0  0  0  0  0  0  0  0  0  0  0
   59.6460   26.7470   45.5420 O   0  0  0  0  0  0  0  0  0  0  0  0
   59.3930   28.0380   45.3550 C   0  0  0  0  0  0  0  0  0  0  0  0
   60.3610   28.8250   45.1760 O   0  0  0  0  0  0  0  0  0  0  0  0
   58.0650   28.5170   45.3590 C   0  0  0  0  0  0  0  0  0  0  0  0
   57.7630   29.9570   45.1470 C   0  0  0  0  0  0  0  0  0  0  0  0
   58.6680   30.9560   45.1570 N   0  0  0  0  0  0  0  0  0  0  0  0
   57.9120   32.0470   44.9200 C   0  0  0  0  0  0  0  0  0  0  0  0
   58.4440   33.4500   44.8220 C   0  0  0  0  0  0  0  0  0  0  0  0
   57.2970   34.4640   44.8720 C   0  0  0  0  0  0  0  0  0  0  0  0
   59.4620   33.7170   45.9340 C   0  0  0  0  0  0  0  0  0  0  0  0
   56.6120   31.7280   44.7730 N   0  0  0  0  0  0  0  0  0  0  0  0
   56.5610   30.4360   44.9190 O   0  0  0  0  0  0  0  0  0  0  0  0
   57.0340   27.5860   45.5640 C   0  0  0  0  0  0  0  0  0  0  0  0
   57.3360   26.2320   45.7600 C   0  0  0  0  0  0  0  0  0  0  0  0
   53.3899   24.4615   46.5257 H   0  0  0  0  0  0  0  0  0  0  0  0
   53.1664   25.4192   45.0225 H   0  0  0  0  0  0  0  0  0  0  0  0
   54.2519   23.9880   45.0225 H   0  0  0  0  0  0  0  0  0  0  0  0
   55.9258   23.1570   46.3228 H   0  0  0  0  0  0  0  0  0  0  0  0
   58.3254   22.4934   46.2897 H   0  0  0  0  0  0  0  0  0  0  0  0
   60.0981   24.2047   45.9177 H   0  0  0  0  0  0  0  0  0  0  0  0
   59.7010   30.9170   45.2960 H   0  0  0  0  0  0  0  0  0  0  0  0
   58.9572   33.5634   43.8557 H   0  0  0  0  0  0  0  0  0  0  0  0
   57.0478   34.6843   45.9205 H   0  0  0  0  0  0  0  0  0  0  0  0
   57.6046   35.3908   44.3657 H   0  0  0  0  0  0  0  0  0  0  0  0
   56.4149   34.0450   44.3657 H   0  0  0  0  0  0  0  0  0  0  0  0
   58.9772   33.5898   46.9132 H   0  0  0  0  0  0  0  0  0  0  0  0
   60.2979   33.0077   45.8439 H   0  0  0  0  0  0  0  0  0  0  0  0
   59.8422   34.7452   45.8439 H   0  0  0  0  0  0  0  0  0  0  0  0
   55.9862   27.9207   45.5707 H   0  0  0  0  0  0  0  0  0  0  0  0
  1  2  1  0
  2  3  1  0
  3  4  2  0
  4  5  1  0
  5  6  2  0
  6  7  1  0
  7  8  1  0
  8  9  1  0
  9 10  2  0
  9 11  1  0
 11 12  1  0
 12 13  2  0
 13 14  1  0
 14 15  1  0
 15 16  1  0
 15 17  1  0
 14 18  2  0
 18 19  1  0
 11 20  2  0
 20 21  1  0
 21  3  1  0
 21  7  2  0
 19 12  1  0
  1 22  1  0
  1 23  1  0
  1 24  1  0
  4 25  1  0
  5 26  1  0
  6 27  1  0
 13 28  1  0
 15 29  1  0
 16 30  1  0
 16 31  1  0
 16 32  1  0
 17 33  1  0
 17 34  1  0
 17 35  1  0
 20 36  1  0
M  CHG  1  13   1
M  END
>  <UniqueID>  (20) 
20

>  <SMILES>  (20) 
COc1cccc2oc(=O)c(-c3[nH+]c(C(C)C)no3)cc12

>  <Energy>  (20) 
74.22109382958742

>  <Genealogy>  (20) 
COc1cccc2oc(=O)c(-c3[nH+]c(C(C)C)no3)cc12 (protonated)
COc1cccc2oc(=O)c(-c3[nH+]c(C(C)C)no3)cc12 (3D coordinates assigned)
COc1cccc2oc(=O)c(-c3[nH+]c(C(C)C)no3)cc12 (optimized conformer: 74.22109382958742 kcal/mol)

>  <smiles>  (20) 
COc1cccc2oc(=O)c(-c3nc(C(C)C)no3)cc12

>  <score_type>  (20) 
oracle

>  <origin>  (20) 
adg

>  <m_score__min__energy>  (20) 
-5.8499999999999996

>  <m_primary>  (20) 
energy

$$$$
20:0
     RDKit          3D

 61 64  0  0  0  0  0  0  0  0999 V2000
   52.8860   30.3190   50.7510 C   0  0  0  0  0  0  0  0  0  0  0  0
   53.6880   30.6930   51.9930 C   0  0  0  0  0  0  0  0  0  0  0  0
   55.0090   30.1570   51.9230 O   0  0  0  0  0  0  0  0  0  0  0  0
   55.5190   29.1170   52.7190 C   0  0  0  0  0  0  0  0  0  0  0  0
   54.7040   28.0760   53.2110 C   0  0  0  0  0  0  0  0  0  0  0  0
   55.2470   27.0730   54.0170 C   0  0  0  0  0  0  0  0  0  0  0  0
   56.6050   27.0900   54.3380 C   0  0  0  0  0  0  0  0  0  0  0  0
   57.4250   28.1080   53.8510 C   0  0  0  0  0  0  0  0  0  0  0  0
   56.8930   29.1210   53.0370 C   0  0  0  0  0  0  0  0  0  0  0  0
   57.7580   30.1580   52.5380 N   0  0  0  0  0  0  0  0  0  0  0  0
   57.6360   31.5400   53.0160 C   0  0  0  0  0  0  0  0  0  0  0  0
   57.4560   32.4800   51.8230 C   0  0  0  0  0  0  0  0  0  0  0  0
   58.4620   32.1860   50.7930 N   0  0  0  0  0  0  0  0  0  0  0  0
   59.2760   33.2390   50.2410 C   0  0  0  0  0  0  0  0  0  0  0  0
   59.6450   34.1930   50.9780 O   0  0  0  0  0  0  0  0  0  0  0  0
   59.7200   33.2130   48.8320 C   0  0  0  0  0  0  0  0  0  0  0  0
   58.7540   33.1470   47.8140 C   0  0  0  0  0  0  0  0  0  0  0  0
   59.1360   33.1360   46.4660 C   0  0  0  0  0  0  0  0  0  0  0  0
   57.9140   33.0610   45.1940 S   0  0  0  0  0  0  0  0  0  0  0  0
   58.5630   33.3610   43.8710 O   0  0  0  0  0  0  0  0  0  0  0  0
   56.8700   34.1140   45.4460 O   0  0  0  0  0  0  0  0  0  0  0  0
   57.1480   31.4940   45.1190 N   0  0  0  0  0  0  0  0  0  0  0  0
   57.9670   30.4860   45.8140 C   0  0  0  0  0  0  0  0  0  0  0  0
   57.4370   29.0640   45.5330 C   0  0  0  0  0  0  0  0  0  0  0  0
   56.1480   29.1090   44.9540 O   0  0  0  0  0  0  0  0  0  0  0  0
   56.2150   29.7240   43.6780 C   0  0  0  0  0  0  0  0  0  0  0  0
   56.9260   31.0930   43.7220 C   0  0  0  0  0  0  0  0  0  0  0  0
   60.4950   33.1860   46.1330 C   0  0  0  0  0  0  0  0  0  0  0  0
   61.4640   33.2290   47.1370 C   0  0  0  0  0  0  0  0  0  0  0  0
   61.0880   33.2370   48.4840 C   0  0  0  0  0  0  0  0  0  0  0  0
   62.3600   33.1950   49.7020 Cl  0  0  0  0  0  0  0  0  0  0  0  0
   58.5870   30.7980   50.3260 C   0  0  0  0  0  0  0  0  0  0  0  0
   58.7750   29.8670   51.5230 C   0  0  0  0  0  0  0  0  0  0  0  0
   51.9277   29.8721   51.0542 H   0  0  0  0  0  0  0  0  0  0  0  0
   52.6963   31.2216   50.1515 H   0  0  0  0  0  0  0  0  0  0  0  0
   53.4555   29.5936   50.1515 H   0  0  0  0  0  0  0  0  0  0  0  0
   53.7468   31.7889   52.0680 H   0  0  0  0  0  0  0  0  0  0  0  0
   53.1842   30.2755   52.8773 H   0  0  0  0  0  0  0  0  0  0  0  0
   53.6337   28.0541   52.9581 H   0  0  0  0  0  0  0  0  0  0  0  0
   54.6028   26.2677   54.3997 H   0  0  0  0  0  0  0  0  0  0  0  0
   57.0291   26.3002   54.9754 H   0  0  0  0  0  0  0  0  0  0  0  0
   58.4949   28.1173   54.1062 H   0  0  0  0  0  0  0  0  0  0  0  0
   56.7641   31.6218   53.6816 H   0  0  0  0  0  0  0  0  0  0  0  0
   58.5465   31.8183   53.5670 H   0  0  0  0  0  0  0  0  0  0  0  0
   56.4503   32.3419   51.3994 H   0  0  0  0  0  0  0  0  0  0  0  0
   57.5798   33.5193   52.1613 H   0  0  0  0  0  0  0  0  0  0  0  0
   57.6870   33.1035   48.0779 H   0  0  0  0  0  0  0  0  0  0  0  0
   59.0064   30.5600   45.4617 H   0  0  0  0  0  0  0  0  0  0  0  0
   57.9164   30.6746   46.8965 H   0  0  0  0  0  0  0  0  0  0  0  0
   58.1242   28.5540   44.8419 H   0  0  0  0  0  0  0  0  0  0  0  0
   57.3742   28.5187   46.4862 H   0  0  0  0  0  0  0  0  0  0  0  0
   56.7664   29.0613   42.9948 H   0  0  0  0  0  0  0  0  0  0  0  0
   55.1845   29.8920   43.3318 H   0  0  0  0  0  0  0  0  0  0  0  0
   57.8942   31.0185   43.2052 H   0  0  0  0  0  0  0  0  0  0  0  0
   56.2969   31.8453   43.2237 H   0  0  0  0  0  0  0  0  0  0  0  0
   60.8003   33.1914   45.0762 H   0  0  0  0  0  0  0  0  0  0  0  0
   62.5300   33.2568   46.8669 H   0  0  0  0  0  0  0  0  0  0  0  0
   57.6757   30.5124   49.7802 H   0  0  0  0  0  0  0  0  0  0  0  0
   59.4581   30.7149   49.6594 H   0  0  0  0  0  0  0  0  0  0  0  0
   58.6746   28.8224   51.1934 H   0  0  0  0  0  0  0  0  0  0  0  0
   59.7752   30.0233   51.9533 H   0  0  0  0  0  0  0  0  0  0  0  0
  1  2  1  0
  2  3  1  0
  3  4  1  0
  4  5  2  0
  5  6  1  0
  6  7  2  0
  7  8  1  0
  8  9  2  0
  9 10  1  0
 10 11  1  0
 11 12  1  0
 12 13  1  0
 13 14  1  0
 14 15  2  0
 14 16  1  0
 16 17  2  0
 17 18  1  0
 18 19  1  0
 19 20  2  0
 19 21  2  0
 19 22  1  0
 22 23  1  0
 23 24  1  0
 24 25  1  0
 25 26  1  0
 26 27  1  0
 18 28  2  0
 28 29  1  0
 29 30  2  0
 30 31  1  0
 13 32  1  0
 32 33  1  0
  9  4  1  0
 33 10  1  0
 30 16  1  0
 27 22  1  0
  1 34  1  0
  1 35  1  0
  1 36  1  0
  2 37  1  0
  2 38  1  0
  5 39  1  0
  6 40  1  0
  7 41  1  0
  8 42  1  0
 11 43  1  0
 11 44  1  0
 12 45  1  0
 12 46  1  0
 17 47  1  0
 23 48  1  0
 23 49  1  0
 24 50  1  0
 24 51  1  0
 26 52  1  0
 26 53  1  0
 27 54  1  0
 27 55  1  0
 28 56  1  0
 29 57  1  0
 32 58  1  0
 32 59  1  0
 33 60  1  0
 33 61  1  0
M  END
>  <UniqueID>  (21) 
21

>  <SMILES>  (21) 
CCOc1ccccc1N1CCN(C(=O)c2cc(S(=O)(=O)N3CCOCC3)ccc2Cl)CC1

>  <Energy>  (21) 
79.52590779603713

>  <Genealogy>  (21) 
CCOc1ccccc1N1CCN(C(=O)c2cc(S(=O)(=O)N3CCOCC3)ccc2Cl)CC1 (3D coordinates assigned)
CCOc1ccccc1N1CCN(C(=O)c2cc(S(=O)(=O)N3CCOCC3)ccc2Cl)CC1 (nonaromatic ring conformer: 79.52590779603713 kcal/mol)

>  <smiles>  (21) 
CCOc1ccccc1N1CCN(C(=O)c2cc(S(=O)(=O)N3CCOCC3)ccc2Cl)CC1

>  <score_type>  (21) 
oracle

>  <origin>  (21) 
adg

>  <m_score__min__energy>  (21) 
-9.5

>  <m_primary>  (21) 
energy

$$$$
21:0
     RDKit          3D

 31 31  0  0  0  0  0  0  0  0999 V2000
   55.5090   29.0781   45.5234 H   0  0  0  0  0  0  0  0  0  0  0  0
   56.5180   28.9970   45.0930 C   0  0  0  0  0  0  0  0  0  0  0  0
   57.1400   27.7990   45.1790 C   0  0  0  0  0  0  0  0  0  0  0  0
   56.6190   26.7630   46.1050 C   0  0  0  0  0  0  0  0  0  0  0  0
   57.3640   26.2710   46.9990 O   0  0  0  0  0  0  0  0  0  0  0  0
   55.2930   26.3330   45.9890 O   0  0  0  0  0  0  0  0  0  0  0  0
   54.9460   25.0020   45.6240 C   0  0  0  0  0  0  0  0  0  0  0  0
   54.7895   24.4017   46.5324 H   0  0  0  0  0  0  0  0  0  0  0  0
   54.0210   25.0143   45.0288 H   0  0  0  0  0  0  0  0  0  0  0  0
   55.7592   24.5612   45.0288 H   0  0  0  0  0  0  0  0  0  0  0  0
   58.3080   27.4580   44.3350 C   0  0  0  0  0  0  0  0  0  0  0  0
   58.1420   27.1030   43.1350 O   0  0  0  0  0  0  0  0  0  0  0  0
   59.5940   27.5060   44.8850 O   0  0  0  0  0  0  0  0  0  0  0  0
   60.3900   28.6890   44.9130 C   0  0  0  0  0  0  0  0  0  0  0  0
   59.9900   29.4112   44.1861 H   0  0  0  0  0  0  0  0  0  0  0  0
   61.4266   28.4252   44.6562 H   0  0  0  0  0  0  0  0  0  0  0  0
   60.3720   29.3150   46.3030 C   0  0  0  0  0  0  0  0  0  0  0  0
   60.3948   28.5204   47.0633 H   0  0  0  0  0  0  0  0  0  0  0  0
   61.2519   29.9640   46.4243 H   0  0  0  0  0  0  0  0  0  0  0  0
   59.4563   29.9123   46.4243 H   0  0  0  0  0  0  0  0  0  0  0  0
   57.0930   30.2080   44.4630 C   0  0  0  0  0  0  0  0  0  0  0  0
   57.7200   31.2010   45.2390 C   0  0  0  0  0  0  0  0  0  0  0  0
   57.8133   31.0684   46.3270 H   0  0  0  0  0  0  0  0  0  0  0  0
   58.2250   32.3560   44.6320 C   0  0  0  0  0  0  0  0  0  0  0  0
   58.7290   33.1210   45.2409 H   0  0  0  0  0  0  0  0  0  0  0  0
   58.0900   32.5390   43.2540 C   0  0  0  0  0  0  0  0  0  0  0  0
   58.4928   33.4449   42.7775 H   0  0  0  0  0  0  0  0  0  0  0  0
   57.4430   31.5710   42.4800 C   0  0  0  0  0  0  0  0  0  0  0  0
   57.3317   31.7198   41.3958 H   0  0  0  0  0  0  0  0  0  0  0  0
   56.9370   30.4140   43.0810 C   0  0  0  0  0  0  0  0  0  0  0  0
   56.3100   29.4870   42.3130 F   0  0  0  0  0  0  0  0  0  0  0  0
  1  2  1  0
  2  3  2  0
  3  4  1  0
  4  5  2  0
  4  6  1  0
  6  7  1  0
  7  8  1  0
  7  9  1  0
  7 10  1  0
  3 11  1  0
 11 12  2  0
 11 13  1  0
 13 14  1  0
 14 15  1  0
 14 16  1  0
 14 17  1  0
 17 18  1  0
 17 19  1  0
 17 20  1  0
  2 21  1  0
 21 22  2  0
 22 23  1  0
 22 24  1  0
 24 25  1  0
 24 26  2  0
 26 27  1  0
 26 28  1  0
 28 29  1  0
 28 30  2  0
 30 31  1  0
 30 21  1  0
M  END
>  <UniqueID>  (22) 
22

>  <SMILES>  (22) 
CCOC(=O)/C(=C\c1ccccc1F)C(=O)OC

>  <Energy>  (22) 
32.75011441652918

>  <Genealogy>  (22) 
CCOC(=O)/C(=C\c1ccccc1F)C(=O)OC (cis-trans isomerization)
CCOC(=O)/C(=C\c1ccccc1F)C(=O)OC (3D coordinates assigned)
CCOC(=O)/C(=C\c1ccccc1F)C(=O)OC (optimized conformer: 32.75011441652918 kcal/mol)

>  <smiles>  (22) 
CCOC(=O)C(=Cc1ccccc1F)C(=O)OC

>  <score_type>  (22) 
oracle

>  <origin>  (22) 
adg

>  <m_score__min__energy>  (22) 
-5.4800000000000004

>  <m_primary>  (22) 
energy

$$$$
22:0
     RDKit          3D

 55 56  0  0  0  0  0  0  0  0999 V2000
   60.0140   33.8430   49.6240 C   0  0  0  0  0  0  0  0  0  0  0  0
   58.9090   33.0250   48.9570 C   0  0  0  0  0  0  0  0  0  0  0  0
   58.8270   33.3280   47.5100 N   0  0  0  0  0  0  0  0  0  0  0  0
   57.4180   33.4170   47.0910 C   0  0  0  0  0  0  0  0  0  0  0  0
   59.5680   34.5620   47.1430 C   0  0  0  0  0  0  0  0  0  0  0  0
   60.5350   34.2480   45.9990 C   0  0  0  0  0  0  0  0  0  0  0  0
   61.4720   33.2620   46.3970 O   0  0  0  0  0  0  0  0  0  0  0  0
   62.7350   33.8270   46.7040 C   0  0  0  0  0  0  0  0  0  0  0  0
   63.4620   32.9680   47.7380 C   0  0  0  0  0  0  0  0  0  0  0  0
   63.0590   31.6180   47.5990 O   0  0  0  0  0  0  0  0  0  0  0  0
   62.2440   31.2080   48.6850 C   0  0  0  0  0  0  0  0  0  0  0  0
   60.9020   30.5890   48.2330 C   0  0  0  0  0  0  0  0  0  0  0  0
   60.5560   30.9020   46.8330 N   0  0  0  0  0  0  0  0  0  0  0  0
   59.7950   29.8420   46.2060 C   0  0  0  0  0  0  0  0  0  0  0  0
   60.0960   28.4970   46.5000 C   0  0  0  0  0  0  0  0  0  0  0  0
   59.3830   27.4450   45.8960 C   0  0  0  0  0  0  0  0  0  0  0  0
   59.6590   26.0940   46.1700 O   0  0  0  0  0  0  0  0  0  0  0  0
   58.7390   25.0250   45.9530 C   0  0  0  0  0  0  0  0  0  0  0  0
   58.3610   27.7410   44.9890 C   0  0  0  0  0  0  0  0  0  0  0  0
   58.0340   29.0730   44.6900 C   0  0  0  0  0  0  0  0  0  0  0  0
   57.0030   29.3790   43.7920 C   0  0  0  0  0  0  0  0  0  0  0  0
   56.6970   30.7130   43.5110 C   0  0  0  0  0  0  0  0  0  0  0  0
   57.4280   31.7290   44.1300 C   0  0  0  0  0  0  0  0  0  0  0  0
   58.4260   31.4200   44.9980 N   0  0  0  0  0  0  0  0  0  0  0  0
   58.7510   30.1300   45.2980 C   0  0  0  0  0  0  0  0  0  0  0  0
   59.9153   33.7699   50.7171 H   0  0  0  0  0  0  0  0  0  0  0  0
   60.9954   33.4521   49.3175 H   0  0  0  0  0  0  0  0  0  0  0  0
   59.9267   34.8958   49.3175 H   0  0  0  0  0  0  0  0  0  0  0  0
   59.1239   31.9543   49.0891 H   0  0  0  0  0  0  0  0  0  0  0  0
   57.9482   33.2848   49.4253 H   0  0  0  0  0  0  0  0  0  0  0  0
   56.7727   33.4578   47.9809 H   0  0  0  0  0  0  0  0  0  0  0  0
   57.2710   34.3262   46.4896 H   0  0  0  0  0  0  0  0  0  0  0  0
   57.1578   32.5335   46.4896 H   0  0  0  0  0  0  0  0  0  0  0  0
   58.8562   35.3363   46.8208 H   0  0  0  0  0  0  0  0  0  0  0  0
   60.1324   34.9265   48.0140 H   0  0  0  0  0  0  0  0  0  0  0  0
   59.9647   33.8773   45.1345 H   0  0  0  0  0  0  0  0  0  0  0  0
   61.0777   35.1662   45.7300 H   0  0  0  0  0  0  0  0  0  0  0  0
   63.3406   33.8820   45.7874 H   0  0  0  0  0  0  0  0  0  0  0  0
   62.5854   34.8353   47.1174 H   0  0  0  0  0  0  0  0  0  0  0  0
   64.5479   33.0444   47.5796 H   0  0  0  0  0  0  0  0  0  0  0  0
   63.2125   33.3224   48.7490 H   0  0  0  0  0  0  0  0  0  0  0  0
   62.7947   30.4594   49.2735 H   0  0  0  0  0  0  0  0  0  0  0  0
   62.0097   32.1048   49.2774 H   0  0  0  0  0  0  0  0  0  0  0  0
   60.9680   29.4962   48.3402 H   0  0  0  0  0  0  0  0  0  0  0  0
   60.1142   31.0213   48.8674 H   0  0  0  0  0  0  0  0  0  0  0  0
   61.4270   31.1010   46.2870 H   0  0  0  0  0  0  0  0  0  0  0  0
   59.9910   31.7840   46.8170 H   0  0  0  0  0  0  0  0  0  0  0  0
   60.9011   28.2659   47.2130 H   0  0  0  0  0  0  0  0  0  0  0  0
   58.3997   24.6308   46.9223 H   0  0  0  0  0  0  0  0  0  0  0  0
   57.8733   25.3960   45.3847 H   0  0  0  0  0  0  0  0  0  0  0  0
   59.2348   24.2242   45.3847 H   0  0  0  0  0  0  0  0  0  0  0  0
   57.8080   26.9224   44.5052 H   0  0  0  0  0  0  0  0  0  0  0  0
   56.4353   28.5701   43.3089 H   0  0  0  0  0  0  0  0  0  0  0  0
   55.8876   30.9606   42.8085 H   0  0  0  0  0  0  0  0  0  0  0  0
   57.1951   32.7822   43.9142 H   0  0  0  0  0  0  0  0  0  0  0  0
  1  2  1  0
  2  3  1  0
  3  4  1  0
  3  5  1  0
  5  6  1  0
  6  7  1  0
  7  8  1  0
  8  9  1  0
  9 10  1  0
 10 11  1  0
 11 12  1  0
 12 13  1  0
 13 14  1  0
 14 15  2  0
 15 16  1  0
 16 17  1  0
 17 18  1  0
 16 19  2  0
 19 20  1  0
 20 21  2  0
 21 22  1  0
 22 23  2  0
 23 24  1  0
 24 25  2  0
 25 14  1  0
 25 20  1  0
  1 26  1  0
  1 27  1  0
  1 28  1  0
  2 29  1  0
  2 30  1  0
  4 31  1  0
  4 32  1  0
  4 33  1  0
  5 34  1  0
  5 35  1  0
  6 36  1  0
  6 37  1  0
  8 38  1  0
  8 39  1  0
  9 40  1  0
  9 41  1  0
 11 42  1  0
 11 43  1  0
 12 44  1  0
 12 45  1  0
 13 46  1  0
 13 47  1  0
 15 48  1  0
 18 49  1  0
 18 50  1  0
 18 51  1  0
 19 52  1  0
 21 53  1  0
 22 54  1  0
 23 55  1  0
M  CHG  1  13   1
M  END
>  <UniqueID>  (23) 
23

>  <SMILES>  (23) 
CCN(C)CCOCCOCC[NH2+]c1cc(OC)cc2cccnc12

>  <Energy>  (23) 
59.97778222856874

>  <Genealogy>  (23) 
CCN(C)CCOCCOCC[NH2+]c1cc(OC)cc2cccnc12 (protonated)
CCN(C)CCOCCOCC[NH2+]c1cc(OC)cc2cccnc12 (3D coordinates assigned)
CCN(C)CCOCCOCC[NH2+]c1cc(OC)cc2cccnc12 (optimized conformer: 59.97778222856874 kcal/mol)

>  <smiles>  (23) 
CCN(C)CCOCCOCCNc1cc(OC)cc2cccnc12

>  <score_type>  (23) 
oracle

>  <origin>  (23) 
adg

>  <m_score__min__energy>  (23) 
-3.5099999999999998

>  <m_primary>  (23) 
energy

$$$$
23:0
     RDKit          3D

 40 44  0  0  0  0  0  0  0  0999 V2000
   66.4830   33.5200   50.5700 F   0  0  0  0  0  0  0  0  0  0  0  0
   65.1430   33.3990   50.4080 C   0  0  0  0  0  0  0  0  0  0  0  0
   64.6320   32.5950   49.3850 C   0  0  0  0  0  0  0  0  0  0  0  0
   63.2490   32.4680   49.2170 C   0  0  0  0  0  0  0  0  0  0  0  0
   62.3660   33.1520   50.0700 C   0  0  0  0  0  0  0  0  0  0  0  0
   60.9040   33.0100   49.8940 C   0  0  0  0  0  0  0  0  0  0  0  0
   60.1070   32.5000   50.9370 C   0  0  0  0  0  0  0  0  0  0  0  0
   58.7110   32.3360   50.7610 C   0  0  0  0  0  0  0  0  0  0  0  0
   57.8750   31.7970   51.8630 C   0  0  0  0  0  0  0  0  0  0  0  0
   56.6340   31.1670   51.6590 C   0  0  0  0  0  0  0  0  0  0  0  0
   56.0220   30.7420   52.8290 C   0  0  0  0  0  0  0  0  0  0  0  0
   57.0170   31.1480   54.1170 S   0  0  0  0  0  0  0  0  0  0  0  0
   58.2360   31.8630   53.2090 C   0  0  0  0  0  0  0  0  0  0  0  0
   58.1390   32.6660   49.5600 N   0  0  0  0  0  0  0  0  0  0  0  0
   58.9110   33.1540   48.5560 C   0  0  0  0  0  0  0  0  0  0  0  0
   60.2700   33.3400   48.6890 C   0  0  0  0  0  0  0  0  0  0  0  0
   60.8740   33.8190   47.3940 C   0  0  0  0  0  0  0  0  0  0  0  0
   59.6520   33.8780   46.5200 C   0  0  0  0  0  0  0  0  0  0  0  0
   59.5800   34.2570   45.1790 C   0  0  0  0  0  0  0  0  0  0  0  0
   58.3280   34.2390   44.5420 C   0  0  0  0  0  0  0  0  0  0  0  0
   57.1730   33.8440   45.2480 C   0  0  0  0  0  0  0  0  0  0  0  0
   57.2620   33.4660   46.5980 C   0  0  0  0  0  0  0  0  0  0  0  0
   58.5170   33.4950   47.2070 C   0  0  0  0  0  0  0  0  0  0  0  0
   62.8880   33.9480   51.1050 C   0  0  0  0  0  0  0  0  0  0  0  0
   64.2720   34.0720   51.2690 C   0  0  0  0  0  0  0  0  0  0  0  0
   65.3184   32.0614   48.7111 H   0  0  0  0  0  0  0  0  0  0  0  0
   62.8510   31.8302   48.4140 H   0  0  0  0  0  0  0  0  0  0  0  0
   60.5720   32.2269   51.8957 H   0  0  0  0  0  0  0  0  0  0  0  0
   56.1896   31.0244   50.6629 H   0  0  0  0  0  0  0  0  0  0  0  0
   55.0522   30.2278   52.8999 H   0  0  0  0  0  0  0  0  0  0  0  0
   59.1602   32.3070   53.6073 H   0  0  0  0  0  0  0  0  0  0  0  0
   57.1120   32.5600   49.4060 H   0  0  0  0  0  0  0  0  0  0  0  0
   61.3400   34.8091   47.5061 H   0  0  0  0  0  0  0  0  0  0  0  0
   61.6826   33.1828   47.0050 H   0  0  0  0  0  0  0  0  0  0  0  0
   60.4841   34.5633   44.6324 H   0  0  0  0  0  0  0  0  0  0  0  0
   58.2481   34.5350   43.4856 H   0  0  0  0  0  0  0  0  0  0  0  0
   56.1978   33.8318   44.7392 H   0  0  0  0  0  0  0  0  0  0  0  0
   56.3680   33.1560   47.1589 H   0  0  0  0  0  0  0  0  0  0  0  0
   62.2058   34.4751   51.7882 H   0  0  0  0  0  0  0  0  0  0  0  0
   64.6751   34.7002   52.0770 H   0  0  0  0  0  0  0  0  0  0  0  0
  1  2  1  0
  2  3  2  0
  3  4  1  0
  4  5  2  0
  5  6  1  0
  6  7  2  0
  7  8  1  0
  8  9  1  0
  9 10  1  0
 10 11  2  0
 11 12  1  0
 12 13  1  0
  8 14  2  0
 14 15  1  0
 15 16  2  0
 16 17  1  0
 17 18  1  0
 18 19  2  0
 19 20  1  0
 20 21  2  0
 21 22  1  0
 22 23  2  0
  5 24  1  0
 24 25  2  0
 25  2  1  0
 16  6  1  0
 23 18  1  0
 13  9  2  0
 23 15  1  0
  3 26  1  0
  4 27  1  0
  7 28  1  0
 10 29  1  0
 11 30  1  0
 13 31  1  0
 14 32  1  0
 17 33  1  0
 17 34  1  0
 19 35  1  0
 20 36  1  0
 21 37  1  0
 22 38  1  0
 24 39  1  0
 25 40  1  0
M  CHG  1  14   1
M  END
>  <UniqueID>  (24) 
24

>  <SMILES>  (24) 
Fc1ccc(-c2cc(-c3ccsc3)[nH+]c3c2Cc2ccccc2-3)cc1

>  <Energy>  (24) 
104.83305932436734

>  <Genealogy>  (24) 
Fc1ccc(-c2cc(-c3ccsc3)[nH+]c3c2Cc2ccccc2-3)cc1 (protonated)
Fc1ccc(-c2cc(-c3ccsc3)[nH+]c3c2Cc2ccccc2-3)cc1 (3D coordinates assigned)
Fc1ccc(-c2cc(-c3ccsc3)[nH+]c3c2Cc2ccccc2-3)cc1 (nonaromatic ring conformer: 104.83305932436734 kcal/mol)

>  <smiles>  (24) 
Fc1ccc(-c2cc(-c3ccsc3)nc3c2Cc2ccccc2-3)cc1

>  <score_type>  (24) 
oracle

>  <origin>  (24) 
adg

>  <m_score__min__energy>  (24) 
-6.3499999999999996

>  <m_primary>  (24) 
energy

$$$$
24:0
     RDKit          3D

 58 61  0  0  0  0  0  0  0  0999 V2000
   56.3420   21.4020   43.7930 C   0  0  0  0  0  0  0  0  0  0  0  0
   55.6300   22.5000   44.3560 O   0  0  0  0  0  0  0  0  0  0  0  0
   56.1900   23.7620   44.6050 C   0  0  0  0  0  0  0  0  0  0  0  0
   57.1850   24.2310   43.7390 C   0  0  0  0  0  0  0  0  0  0  0  0
   57.7740   25.4810   43.9440 C   0  0  0  0  0  0  0  0  0  0  0  0
   57.3790   26.2810   45.0270 C   0  0  0  0  0  0  0  0  0  0  0  0
   57.9780   27.5730   45.2350 N   0  0  0  0  0  0  0  0  0  0  0  0
   59.2110   27.8520   45.7380 C   0  0  0  0  0  0  0  0  0  0  0  0
   60.1870   26.8160   46.2220 C   0  0  0  0  0  0  0  0  0  0  0  0
   59.4320   29.2350   45.7490 C   0  0  0  0  0  0  0  0  0  0  0  0
   60.6380   29.9470   46.2970 C   0  0  0  0  0  0  0  0  0  0  0  0
   60.6360   29.9140   47.8320 C   0  0  0  0  0  0  0  0  0  0  0  0
   61.2730   31.1280   48.3870 N   0  0  0  0  0  0  0  0  0  0  0  0
   62.3420   31.6180   47.5000 C   0  0  0  0  0  0  0  0  0  0  0  0
   61.8380   30.8370   49.7150 C   0  0  0  0  0  0  0  0  0  0  0  0
   58.2600   29.8000   45.2650 C   0  0  0  0  0  0  0  0  0  0  0  0
   57.8320   31.1150   45.0590 C   0  0  0  0  0  0  0  0  0  0  0  0
   58.6740   32.2400   45.3330 N   0  0  0  0  0  0  0  0  0  0  0  0
   58.9850   32.5830   46.7190 C   0  0  0  0  0  0  0  0  0  0  0  0
   58.1620   33.8140   47.1170 C   0  0  0  0  0  0  0  0  0  0  0  0
   58.3760   34.8800   46.2060 O   0  0  0  0  0  0  0  0  0  0  0  0
   57.9250   34.5170   44.9110 C   0  0  0  0  0  0  0  0  0  0  0  0
   58.7350   33.3350   44.3660 C   0  0  0  0  0  0  0  0  0  0  0  0
   56.5760   31.3070   44.5580 N   0  0  0  0  0  0  0  0  0  0  0  0
   55.7540   30.2540   44.2630 C   0  0  0  0  0  0  0  0  0  0  0  0
   56.1730   28.9720   44.4650 N   0  0  0  0  0  0  0  0  0  0  0  0
   57.4160   28.7670   44.9700 C   0  0  0  0  0  0  0  0  0  0  0  0
   56.3780   25.8180   45.8930 C   0  0  0  0  0  0  0  0  0  0  0  0
   55.7880   24.5660   45.6880 C   0  0  0  0  0  0  0  0  0  0  0  0
   56.7482   20.7755   44.6008 H   0  0  0  0  0  0  0  0  0  0  0  0
   55.6602   20.8027   43.1718 H   0  0  0  0  0  0  0  0  0  0  0  0
   57.1673   21.7800   43.1718 H   0  0  0  0  0  0  0  0  0  0  0  0
   57.5058   23.6098   42.8898 H   0  0  0  0  0  0  0  0  0  0  0  0
   58.5511   25.8399   43.2531 H   0  0  0  0  0  0  0  0  0  0  0  0
   60.1961   26.8064   47.3219 H   0  0  0  0  0  0  0  0  0  0  0  0
   59.8858   25.8259   45.8491 H   0  0  0  0  0  0  0  0  0  0  0  0
   61.1933   27.0577   45.8491 H   0  0  0  0  0  0  0  0  0  0  0  0
   61.5484   29.4532   45.9263 H   0  0  0  0  0  0  0  0  0  0  0  0
   60.6109   30.9955   45.9655 H   0  0  0  0  0  0  0  0  0  0  0  0
   59.5973   29.8568   48.1896 H   0  0  0  0  0  0  0  0  0  0  0  0
   61.2062   29.0343   48.1653 H   0  0  0  0  0  0  0  0  0  0  0  0
   63.1758   32.0002   48.1072 H   0  0  0  0  0  0  0  0  0  0  0  0
   62.6985   30.7934   46.8652 H   0  0  0  0  0  0  0  0  0  0  0  0
   61.9500   32.4263   46.8652 H   0  0  0  0  0  0  0  0  0  0  0  0
   61.1471   31.1929   50.4934 H   0  0  0  0  0  0  0  0  0  0  0  0
   61.9833   29.7519   49.8219 H   0  0  0  0  0  0  0  0  0  0  0  0
   62.8058   31.3488   49.8219 H   0  0  0  0  0  0  0  0  0  0  0  0
   58.7291   31.7385   47.3757 H   0  0  0  0  0  0  0  0  0  0  0  0
   60.0585   32.8012   46.8194 H   0  0  0  0  0  0  0  0  0  0  0  0
   57.0944   33.5491   47.1175 H   0  0  0  0  0  0  0  0  0  0  0  0
   58.4768   34.1390   48.1197 H   0  0  0  0  0  0  0  0  0  0  0  0
   56.8636   34.2330   44.9648 H   0  0  0  0  0  0  0  0  0  0  0  0
   58.0568   35.3764   44.2371 H   0  0  0  0  0  0  0  0  0  0  0  0
   58.3097   33.0057   43.4065 H   0  0  0  0  0  0  0  0  0  0  0  0
   59.7806   33.6380   44.2080 H   0  0  0  0  0  0  0  0  0  0  0  0
   54.7480   30.4427   43.8600 H   0  0  0  0  0  0  0  0  0  0  0  0
   56.0547   26.4429   46.7386 H   0  0  0  0  0  0  0  0  0  0  0  0
   55.0072   24.2088   46.3756 H   0  0  0  0  0  0  0  0  0  0  0  0
  1  2  1  0
  2  3  1  0
  3  4  2  0
  4  5  1  0
  5  6  2  0
  6  7  1  0
  7  8  1  0
  8  9  1  0
  8 10  2  0
 10 11  1  0
 11 12  1  0
 12 13  1  0
 13 14  1  0
 13 15  1  0
 10 16  1  0
 16 17  2  0
 17 18  1  0
 18 19  1  0
 19 20  1  0
 20 21  1  0
 21 22  1  0
 22 23  1  0
 17 24  1  0
 24 25  2  0
 25 26  1  0
 26 27  2  0
  6 28  1  0
 28 29  2  0
 29  3  1  0
 27  7  1  0
 27 16  1  0
 23 18  1  0
  1 30  1  0
  1 31  1  0
  1 32  1  0
  4 33  1  0
  5 34  1  0
  9 35  1  0
  9 36  1  0
  9 37  1  0
 11 38  1  0
 11 39  1  0
 12 40  1  0
 12 41  1  0
 14 42  1  0
 14 43  1  0
 14 44  1  0
 15 45  1  0
 15 46  1  0
 15 47  1  0
 19 48  1  0
 19 49  1  0
 20 50  1  0
 20 51  1  0
 22 52  1  0
 22 53  1  0
 23 54  1  0
 23 55  1  0
 25 56  1  0
 28 57  1  0
 29 58  1  0
M  END
>  <UniqueID>  (25) 
25

>  <SMILES>  (25) 
COc1ccc(-n2c(C)c(CCN(C)C)c3c(N4CCOCC4)ncnc32)cc1

>  <Energy>  (25) 
107.00008263371107

>  <Genealogy>  (25) 
COc1ccc(-n2c(C)c(CCN(C)C)c3c(N4CCOCC4)ncnc32)cc1 (3D coordinates assigned)
COc1ccc(-n2c(C)c(CCN(C)C)c3c(N4CCOCC4)ncnc32)cc1 (nonaromatic ring conformer: 107.00008263371107 kcal/mol)

>  <smiles>  (25) 
COc1ccc(-n2c(C)c(CCN(C)C)c3c(N4CCOCC4)ncnc32)cc1

>  <score_type>  (25) 
oracle

>  <origin>  (25) 
adg

>  <m_score__min__energy>  (25) 
-7.6699999999999999

>  <m_primary>  (25) 
energy

$$$$
25:0
     RDKit          3D

 38 39  0  0  0  0  0  0  0  0999 V2000
   54.8340   30.4605   43.9887 H   0  0  0  0  0  0  0  0  0  0  0  0
   55.6880   29.9350   44.4410 C   0  0  0  0  0  0  0  0  0  0  0  0
   55.5270   28.6790   44.9270 N   0  0  0  0  0  0  0  0  0  0  0  0
   56.5520   27.9940   45.4950 C   0  0  0  0  0  0  0  0  0  0  0  0
   56.3340   26.6990   45.9820 C   0  0  0  0  0  0  0  0  0  0  0  0
   55.3358   26.2438   45.9018 H   0  0  0  0  0  0  0  0  0  0  0  0
   57.3800   25.9840   46.5690 C   0  0  0  0  0  0  0  0  0  0  0  0
   57.2037   24.9677   46.9510 H   0  0  0  0  0  0  0  0  0  0  0  0
   58.6500   26.5570   46.6720 C   0  0  0  0  0  0  0  0  0  0  0  0
   59.4713   25.9896   47.1340 H   0  0  0  0  0  0  0  0  0  0  0  0
   58.8810   27.8490   46.1900 C   0  0  0  0  0  0  0  0  0  0  0  0
   59.8835   28.2935   46.2760 H   0  0  0  0  0  0  0  0  0  0  0  0
   57.8360   28.5860   45.5940 C   0  0  0  0  0  0  0  0  0  0  0  0
   58.0270   29.8950   45.0960 C   0  0  0  0  0  0  0  0  0  0  0  0
   59.2090   30.4500   45.1830 N   0  0  0  0  0  0  0  0  0  0  0  0
   59.9300   30.8430   46.3950 C   0  0  0  0  0  0  0  0  0  0  0  0
   60.9456   31.1667   46.1235 H   0  0  0  0  0  0  0  0  0  0  0  0
   59.9771   29.9812   47.0769 H   0  0  0  0  0  0  0  0  0  0  0  0
   59.2000   32.0020   47.1040 C   0  0  0  0  0  0  0  0  0  0  0  0
   59.8463   32.3737   47.9128 H   0  0  0  0  0  0  0  0  0  0  0  0
   58.2465   31.5968   47.4736 H   0  0  0  0  0  0  0  0  0  0  0  0
   58.8640   33.1420   46.2150 N   0  0  0  0  0  0  0  0  0  0  0  0
   57.4210   33.4750   46.1760 C   0  0  0  0  0  0  0  0  0  0  0  0
   57.1787   34.1079   47.0424 H   0  0  0  0  0  0  0  0  0  0  0  0
   56.8533   32.5332   46.2013 H   0  0  0  0  0  0  0  0  0  0  0  0
   57.0420   34.2220   44.8970 C   0  0  0  0  0  0  0  0  0  0  0  0
   56.5586   35.1748   45.1585 H   0  0  0  0  0  0  0  0  0  0  0  0
   57.9483   34.4207   44.3062 H   0  0  0  0  0  0  0  0  0  0  0  0
   56.3464   33.6079   44.3062 H   0  0  0  0  0  0  0  0  0  0  0  0
   59.6900   34.3370   46.5030 C   0  0  0  0  0  0  0  0  0  0  0  0
   59.6290   35.0334   45.6537 H   0  0  0  0  0  0  0  0  0  0  0  0
   59.3123   34.8212   47.4156 H   0  0  0  0  0  0  0  0  0  0  0  0
   61.1470   33.9350   46.7210 C   0  0  0  0  0  0  0  0  0  0  0  0
   61.3541   33.8779   47.7998 H   0  0  0  0  0  0  0  0  0  0  0  0
   61.3293   32.9530   46.2601 H   0  0  0  0  0  0  0  0  0  0  0  0
   61.8071   34.6846   46.2601 H   0  0  0  0  0  0  0  0  0  0  0  0
   56.9320   30.5640   44.5120 C   0  0  0  0  0  0  0  0  0  0  0  0
   57.0580   31.5811   44.1125 H   0  0  0  0  0  0  0  0  0  0  0  0
  1  2  1  0
  2  3  1  0
  3  4  1  0
  4  5  2  0
  5  6  1  0
  5  7  1  0
  7  8  1  0
  7  9  2  0
  9 10  1  0
  9 11  1  0
 11 12  1  0
 11 13  2  0
 13 14  1  0
 14 15  2  0
 15 16  1  0
 16 17  1  0
 16 18  1  0
 16 19  1  0
 19 20  1  0
 19 21  1  0
 19 22  1  0
 22 23  1  0
 23 24  1  0
 23 25  1  0
 23 26  1  0
 26 27  1  0
 26 28  1  0
 26 29  1  0
 22 30  1  0
 30 31  1  0
 30 32  1  0
 30 33  1  0
 33 34  1  0
 33 35  1  0
 33 36  1  0
 14 37  1  0
 37 38  1  0
 37  2  2  0
 13  4  1  0
M  CHG  1   3  -1
M  END
>  <UniqueID>  (26) 
26

>  <SMILES>  (26) 
CCN(CC)CC/N=c1\cc[n-]c2ccccc12

>  <Energy>  (26) 
45.0504537831488

>  <Genealogy>  (26) 
CCN(CC)CCN=c1cc[n-]c2ccccc12 (protonated)
CCN(CC)CC/N=c1\cc[n-]c2ccccc12 (cis-trans isomerization)
CCN(CC)CC/N=c1\cc[n-]c2ccccc12 (3D coordinates assigned)
CCN(CC)CC/N=c1\cc[n-]c2ccccc12 (optimized conformer: 45.0504537831488 kcal/mol)

>  <smiles>  (26) 
CCN(CC)CCN=c1cc[nH]c2ccccc12

>  <score_type>  (26) 
oracle

>  <origin>  (26) 
adg

>  <m_score__min__energy>  (26) 
-7.8799999999999999

>  <m_primary>  (26) 
energy

$$$$
26:0
     RDKit          3D

 37 38  0  0  0  0  0  0  0  0999 V2000
   56.4040   29.4650   44.3020 C   0  0  0  0  0  0  0  0  0  0  0  0
   57.1090   30.7820   44.3580 C   0  0  0  0  0  0  0  0  0  0  0  0
   57.3950   31.4830   43.1800 C   0  0  0  0  0  0  0  0  0  0  0  0
   58.0570   32.7100   43.2530 C   0  0  0  0  0  0  0  0  0  0  0  0
   58.4340   33.2280   44.4980 C   0  0  0  0  0  0  0  0  0  0  0  0
   59.0910   34.4620   44.5980 C   0  0  0  0  0  0  0  0  0  0  0  0
   59.4450   34.9650   45.8510 C   0  0  0  0  0  0  0  0  0  0  0  0
   59.1520   34.2420   47.0100 C   0  0  0  0  0  0  0  0  0  0  0  0
   58.5080   32.9930   46.9340 C   0  0  0  0  0  0  0  0  0  0  0  0
   58.1910   32.2730   48.1460 N   0  0  0  0  0  0  0  0  0  0  0  0
   59.4020   32.0980   48.9610 C   0  0  0  0  0  0  0  0  0  0  0  0
   60.1720   30.8390   48.5340 C   0  0  0  0  0  0  0  0  0  0  0  0
   59.4170   30.0900   47.5050 N   0  0  0  0  0  0  0  0  0  0  0  0
   58.9220   28.8190   48.0620 C   0  0  0  0  0  0  0  0  0  0  0  0
   60.2580   29.8100   46.3280 C   0  0  0  0  0  0  0  0  0  0  0  0
   58.1360   32.4900   45.6680 C   0  0  0  0  0  0  0  0  0  0  0  0
   57.4870   31.2970   45.5600 N   0  0  0  0  0  0  0  0  0  0  0  0
   56.2127   29.1077   45.3246 H   0  0  0  0  0  0  0  0  0  0  0  0
   55.4484   29.5830   43.7701 H   0  0  0  0  0  0  0  0  0  0  0  0
   57.0321   28.7352   43.7701 H   0  0  0  0  0  0  0  0  0  0  0  0
   57.1002   31.0699   42.2041 H   0  0  0  0  0  0  0  0  0  0  0  0
   58.2823   33.2694   42.3331 H   0  0  0  0  0  0  0  0  0  0  0  0
   59.3277   35.0342   43.6889 H   0  0  0  0  0  0  0  0  0  0  0  0
   59.9572   35.9355   45.9263 H   0  0  0  0  0  0  0  0  0  0  0  0
   59.4276   34.6533   47.9923 H   0  0  0  0  0  0  0  0  0  0  0  0
   57.7910   31.3360   47.9060 H   0  0  0  0  0  0  0  0  0  0  0  0
   57.4640   32.7920   48.6930 H   0  0  0  0  0  0  0  0  0  0  0  0
   60.0510   32.9772   48.8354 H   0  0  0  0  0  0  0  0  0  0  0  0
   59.1044   31.9880   50.0142 H   0  0  0  0  0  0  0  0  0  0  0  0
   61.1482   31.1347   48.1222 H   0  0  0  0  0  0  0  0  0  0  0  0
   60.3096   30.1925   49.4133 H   0  0  0  0  0  0  0  0  0  0  0  0
   58.9411   28.8680   49.1607 H   0  0  0  0  0  0  0  0  0  0  0  0
   57.8908   28.6460   47.7206 H   0  0  0  0  0  0  0  0  0  0  0  0
   59.5646   27.9941   47.7206 H   0  0  0  0  0  0  0  0  0  0  0  0
   61.2533   29.4786   46.6590 H   0  0  0  0  0  0  0  0  0  0  0  0
   59.7906   29.0190   45.7232 H   0  0  0  0  0  0  0  0  0  0  0  0
   60.3580   30.7233   45.7232 H   0  0  0  0  0  0  0  0  0  0  0  0
  1  2  1  0
  2  3  2  0
  3  4  1  0
  4  5  2  0
  5  6  1  0
  6  7  2  0
  7  8  1  0
  8  9  2  0
  9 10  1  0
 10 11  1  0
 11 12  1  0
 12 13  1  0
 13 14  1  0
 13 15  1  0
  9 16  1  0
 16 17  2  0
 17  2  1  0
 16  5  1  0
  1 18  1  0
  1 19  1  0
  1 20  1  0
  3 21  1  0
  4 22  1  0
  6 23  1  0
  7 24  1  0
  8 25  1  0
 10 26  1  0
 10 27  1  0
 11 28  1  0
 11 29  1  0
 12 30  1  0
 12 31  1  0
 14 32  1  0
 14 33  1  0
 14 34  1  0
 15 35  1  0
 15 36  1  0
 15 37  1  0
M  CHG  1  10   1
M  END
>  <UniqueID>  (27) 
27

>  <SMILES>  (27) 
Cc1ccc2cccc([NH2+]CCN(C)C)c2n1

>  <Energy>  (27) 
38.47598263938853

>  <Genealogy>  (27) 
Cc1ccc2cccc([NH2+]CCN(C)C)c2n1 (protonated)
Cc1ccc2cccc([NH2+]CCN(C)C)c2n1 (3D coordinates assigned)
Cc1ccc2cccc([NH2+]CCN(C)C)c2n1 (optimized conformer: 38.47598263938853 kcal/mol)

>  <smiles>  (27) 
Cc1ccc2cccc(NCCN(C)C)c2n1

>  <score_type>  (27) 
oracle

>  <origin>  (27) 
adg

>  <m_score__min__energy>  (27) 
-4.1399999999999997

>  <m_primary>  (27) 
energy

$$$$
27:0
     RDKit          3D

 57 59  0  0  0  0  0  0  0  0999 V2000
   58.1960   32.1500   50.5580 C   0  0  0  0  0  0  0  0  0  0  0  0
   59.3850   32.8770   51.1860 C   0  0  0  0  0  0  0  0  0  0  0  0
   60.3060   33.5290   50.1390 C   0  0  0  0  0  0  0  0  0  0  0  0
   61.3490   32.6020   49.6690 N   0  0  0  0  0  0  0  0  0  0  0  0
   62.7550   32.8270   50.0240 C   0  0  0  0  0  0  0  0  0  0  0  0
   63.4110   33.8160   49.0560 C   0  0  0  0  0  0  0  0  0  0  0  0
   63.8040   33.1290   47.7520 C   0  0  0  0  0  0  0  0  0  0  0  0
   60.9900   31.3800   49.0080 C   0  0  0  0  0  0  0  0  0  0  0  0
   60.9950   30.2270   49.7260 N   0  0  0  0  0  0  0  0  0  0  0  0
   60.6840   29.0380   49.1590 C   0  0  0  0  0  0  0  0  0  0  0  0
   60.3500   28.9780   47.8460 N   0  0  0  0  0  0  0  0  0  0  0  0
   60.3170   30.0950   47.0710 C   0  0  0  0  0  0  0  0  0  0  0  0
   59.9590   29.9520   45.7250 O   0  0  0  0  0  0  0  0  0  0  0  0
   58.6550   30.0130   45.2010 C   0  0  0  0  0  0  0  0  0  0  0  0
   58.4090   30.9720   44.2120 C   0  0  0  0  0  0  0  0  0  0  0  0
   57.1350   31.1180   43.6660 C   0  0  0  0  0  0  0  0  0  0  0  0
   56.1070   30.2870   44.1060 C   0  0  0  0  0  0  0  0  0  0  0  0
   56.3560   29.3360   45.0430 N   0  0  0  0  0  0  0  0  0  0  0  0
   57.5890   29.1600   45.5960 C   0  0  0  0  0  0  0  0  0  0  0  0
   57.7560   28.0440   46.5820 C   0  0  0  0  0  0  0  0  0  0  0  0
   60.6780   31.3470   47.6280 C   0  0  0  0  0  0  0  0  0  0  0  0
   60.8400   32.5850   46.7650 C   0  0  0  0  0  0  0  0  0  0  0  0
   59.5050   33.1580   46.3640 C   0  0  0  0  0  0  0  0  0  0  0  0
   59.3990   33.9900   45.2330 C   0  0  0  0  0  0  0  0  0  0  0  0
   58.1580   34.5210   44.8620 C   0  0  0  0  0  0  0  0  0  0  0  0
   57.0150   34.2160   45.6060 C   0  0  0  0  0  0  0  0  0  0  0  0
   57.1080   33.3740   46.7190 C   0  0  0  0  0  0  0  0  0  0  0  0
   58.3460   32.8400   47.0940 C   0  0  0  0  0  0  0  0  0  0  0  0
   57.5473   31.7534   51.3529 H   0  0  0  0  0  0  0  0  0  0  0  0
   57.6240   32.8530   49.9346 H   0  0  0  0  0  0  0  0  0  0  0  0
   58.5611   31.3205   49.9346 H   0  0  0  0  0  0  0  0  0  0  0  0
   59.0033   33.6617   51.8557 H   0  0  0  0  0  0  0  0  0  0  0  0
   59.9801   32.1295   51.7310 H   0  0  0  0  0  0  0  0  0  0  0  0
   59.6979   33.8452   49.2787 H   0  0  0  0  0  0  0  0  0  0  0  0
   60.8032   34.3887   50.6119 H   0  0  0  0  0  0  0  0  0  0  0  0
   62.8082   33.2331   51.0449 H   0  0  0  0  0  0  0  0  0  0  0  0
   63.2907   31.8681   49.9638 H   0  0  0  0  0  0  0  0  0  0  0  0
   62.7014   34.6270   48.8352 H   0  0  0  0  0  0  0  0  0  0  0  0
   64.3204   34.2161   49.5281 H   0  0  0  0  0  0  0  0  0  0  0  0
   64.3387   32.1943   47.9767 H   0  0  0  0  0  0  0  0  0  0  0  0
   62.8988   32.9027   47.1695 H   0  0  0  0  0  0  0  0  0  0  0  0
   64.4580   33.7946   47.1695 H   0  0  0  0  0  0  0  0  0  0  0  0
   60.7022   28.1194   49.7638 H   0  0  0  0  0  0  0  0  0  0  0  0
   60.1040   28.0530   47.4270 H   0  0  0  0  0  0  0  0  0  0  0  0
   59.2288   31.6166   43.8622 H   0  0  0  0  0  0  0  0  0  0  0  0
   56.9434   31.8805   42.8966 H   0  0  0  0  0  0  0  0  0  0  0  0
   55.0933   30.4012   43.6943 H   0  0  0  0  0  0  0  0  0  0  0  0
   57.6959   28.4458   47.6042 H   0  0  0  0  0  0  0  0  0  0  0  0
   56.9591   27.3006   46.4328 H   0  0  0  0  0  0  0  0  0  0  0  0
   58.7356   27.5664   46.4328 H   0  0  0  0  0  0  0  0  0  0  0  0
   61.3993   33.3444   47.3310 H   0  0  0  0  0  0  0  0  0  0  0  0
   61.3815   32.2998   45.8510 H   0  0  0  0  0  0  0  0  0  0  0  0
   60.2947   34.2236   44.6387 H   0  0  0  0  0  0  0  0  0  0  0  0
   58.0824   35.1791   43.9838 H   0  0  0  0  0  0  0  0  0  0  0  0
   56.0416   34.6384   45.3161 H   0  0  0  0  0  0  0  0  0  0  0  0
   56.2065   33.1311   47.3006 H   0  0  0  0  0  0  0  0  0  0  0  0
   58.4127   32.1690   47.9631 H   0  0  0  0  0  0  0  0  0  0  0  0
  1  2  1  0
  2  3  1  0
  3  4  1  0
  4  5  1  0
  5  6  1  0
  6  7  1  0
  4  8  1  0
  8  9  2  0
  9 10  1  0
 10 11  2  0
 11 12  1  0
 12 13  1  0
 13 14  1  0
 14 15  2  0
 15 16  1  0
 16 17  2  0
 17 18  1  0
 18 19  2  0
 19 20  1  0
 12 21  2  0
 21 22  1  0
 22 23  1  0
 23 24  2  0
 24 25  1  0
 25 26  2  0
 26 27  1  0
 27 28  2  0
 21  8  1  0
 28 23  1  0
 19 14  1  0
  1 29  1  0
  1 30  1  0
  1 31  1  0
  2 32  1  0
  2 33  1  0
  3 34  1  0
  3 35  1  0
  5 36  1  0
  5 37  1  0
  6 38  1  0
  6 39  1  0
  7 40  1  0
  7 41  1  0
  7 42  1  0
 10 43  1  0
 11 44  1  0
 15 45  1  0
 16 46  1  0
 17 47  1  0
 20 48  1  0
 20 49  1  0
 20 50  1  0
 22 51  1  0
 22 52  1  0
 24 53  1  0
 25 54  1  0
 26 55  1  0
 27 56  1  0
 28 57  1  0
M  CHG  1  11   1
M  END
>  <UniqueID>  (28) 
28

>  <SMILES>  (28) 
CCCN(CCC)c1nc[nH+]c(Oc2cccnc2C)c1Cc1ccccc1

>  <Energy>  (28) 
65.9300012371262

>  <Genealogy>  (28) 
CCCN(CCC)c1nc[nH+]c(Oc2cccnc2C)c1Cc1ccccc1 (protonated)
CCCN(CCC)c1nc[nH+]c(Oc2cccnc2C)c1Cc1ccccc1 (3D coordinates assigned)
CCCN(CCC)c1nc[nH+]c(Oc2cccnc2C)c1Cc1ccccc1 (optimized conformer: 65.9300012371262 kcal/mol)

>  <smiles>  (28) 
CCCN(CCC)c1ncnc(Oc2cccnc2C)c1Cc1ccccc1

>  <score_type>  (28) 
oracle

>  <origin>  (28) 
adg

>  <m_score__min__energy>  (28) 
-6.0099999999999998

>  <m_primary>  (28) 
energy

$$$$
28:0
     RDKit          3D

 54 57  0  0  0  0  0  0  0  0999 V2000
   54.9110   24.0420   44.8770 C   0  0  0  0  0  0  0  0  0  0  0  0
   55.0190   24.9160   45.9950 O   0  0  0  0  0  0  0  0  0  0  0  0
   56.1870   25.6050   46.3530 C   0  0  0  0  0  0  0  0  0  0  0  0
   56.4580   26.9140   45.9080 C   0  0  0  0  0  0  0  0  0  0  0  0
   57.6360   27.5590   46.2930 C   0  0  0  0  0  0  0  0  0  0  0  0
   58.5620   26.9110   47.1250 C   0  0  0  0  0  0  0  0  0  0  0  0
   59.8170   27.6150   47.5680 C   0  0  0  0  0  0  0  0  0  0  0  0
   59.5760   29.0960   47.6880 C   0  0  0  0  0  0  0  0  0  0  0  0
   59.6170   30.0480   46.6630 C   0  0  0  0  0  0  0  0  0  0  0  0
   59.8860   29.7490   45.2160 C   0  0  0  0  0  0  0  0  0  0  0  0
   59.2190   31.2590   47.1350 N   0  0  0  0  0  0  0  0  0  0  0  0
   59.0710   32.4750   46.3860 C   0  0  0  0  0  0  0  0  0  0  0  0
   59.9850   33.5210   46.5740 C   0  0  0  0  0  0  0  0  0  0  0  0
   59.8550   34.7080   45.8520 C   0  0  0  0  0  0  0  0  0  0  0  0
   58.8130   34.8570   44.9350 C   0  0  0  0  0  0  0  0  0  0  0  0
   57.9000   33.8170   44.7330 C   0  0  0  0  0  0  0  0  0  0  0  0
   58.0250   32.6130   45.4560 C   0  0  0  0  0  0  0  0  0  0  0  0
   57.1400   31.5380   45.2720 O   0  0  0  0  0  0  0  0  0  0  0  0
   56.9430   30.8580   44.0370 C   0  0  0  0  0  0  0  0  0  0  0  0
   58.9320   31.0820   48.4410 C   0  0  0  0  0  0  0  0  0  0  0  0
   58.4750   32.0350   49.3540 C   0  0  0  0  0  0  0  0  0  0  0  0
   58.2210   31.6210   50.6720 C   0  0  0  0  0  0  0  0  0  0  0  0
   58.4250   30.2690   51.0590 C   0  0  0  0  0  0  0  0  0  0  0  0
   58.1810   29.8190   52.3650 O   0  0  0  0  0  0  0  0  0  0  0  0
   57.3130   30.4670   53.2890 C   0  0  0  0  0  0  0  0  0  0  0  0
   58.8900   29.3370   50.1120 C   0  0  0  0  0  0  0  0  0  0  0  0
   59.1380   29.7780   48.8110 C   0  0  0  0  0  0  0  0  0  0  0  0
   58.2900   25.6080   47.5690 C   0  0  0  0  0  0  0  0  0  0  0  0
   57.1110   24.9620   47.1840 C   0  0  0  0  0  0  0  0  0  0  0  0
   54.7833   23.0083   45.2307 H   0  0  0  0  0  0  0  0  0  0  0  0
   54.0418   24.3312   44.2681 H   0  0  0  0  0  0  0  0  0  0  0  0
   55.8245   24.1109   44.2681 H   0  0  0  0  0  0  0  0  0  0  0  0
   55.7392   27.4303   45.2548 H   0  0  0  0  0  0  0  0  0  0  0  0
   57.8390   28.5814   45.9417 H   0  0  0  0  0  0  0  0  0  0  0  0
   60.1287   27.2185   48.5456 H   0  0  0  0  0  0  0  0  0  0  0  0
   60.6049   27.4421   46.8201 H   0  0  0  0  0  0  0  0  0  0  0  0
   60.6200   28.9332   45.1405 H   0  0  0  0  0  0  0  0  0  0  0  0
   58.9498   29.4467   44.7239 H   0  0  0  0  0  0  0  0  0  0  0  0
   60.2852   30.6481   44.7239 H   0  0  0  0  0  0  0  0  0  0  0  0
   60.8086   33.4056   47.2940 H   0  0  0  0  0  0  0  0  0  0  0  0
   60.5737   35.5265   46.0054 H   0  0  0  0  0  0  0  0  0  0  0  0
   58.7098   35.7950   44.3698 H   0  0  0  0  0  0  0  0  0  0  0  0
   57.0819   33.9387   44.0078 H   0  0  0  0  0  0  0  0  0  0  0  0
   56.6419   29.8186   44.2347 H   0  0  0  0  0  0  0  0  0  0  0  0
   56.1548   31.3649   43.4610 H   0  0  0  0  0  0  0  0  0  0  0  0
   57.8801   30.8650   43.4610 H   0  0  0  0  0  0  0  0  0  0  0  0
   58.3184   33.0804   49.0495 H   0  0  0  0  0  0  0  0  0  0  0  0
   57.8606   32.3507   51.4120 H   0  0  0  0  0  0  0  0  0  0  0  0
   57.6288   30.2312   54.3160 H   0  0  0  0  0  0  0  0  0  0  0  0
   57.3571   31.5549   53.1325 H   0  0  0  0  0  0  0  0  0  0  0  0
   56.2825   30.1155   53.1325 H   0  0  0  0  0  0  0  0  0  0  0  0
   59.0541   28.2856   50.3907 H   0  0  0  0  0  0  0  0  0  0  0  0
   59.0080   25.0919   48.2234 H   0  0  0  0  0  0  0  0  0  0  0  0
   56.9084   23.9402   47.5373 H   0  0  0  0  0  0  0  0  0  0  0  0
  1  2  1  0
  2  3  1  0
  3  4  2  0
  4  5  1  0
  5  6  2  0
  6  7  1  0
  7  8  1  0
  8  9  2  0
  9 10  1  0
  9 11  1  0
 11 12  1  0
 12 13  2  0
 13 14  1  0
 14 15  2  0
 15 16  1  0
 16 17  2  0
 17 18  1  0
 18 19  1  0
 11 20  1  0
 20 21  2  0
 21 22  1  0
 22 23  2  0
 23 24  1  0
 24 25  1  0
 23 26  1  0
 26 27  2  0
  6 28  1  0
 28 29  2  0
 29  3  1  0
 27  8  1  0
 17 12  1  0
 27 20  1  0
  1 30  1  0
  1 31  1  0
  1 32  1  0
  4 33  1  0
  5 34  1  0
  7 35  1  0
  7 36  1  0
 10 37  1  0
 10 38  1  0
 10 39  1  0
 13 40  1  0
 14 41  1  0
 15 42  1  0
 16 43  1  0
 19 44  1  0
 19 45  1  0
 19 46  1  0
 21 47  1  0
 22 48  1  0
 25 49  1  0
 25 50  1  0
 25 51  1  0
 26 52  1  0
 28 53  1  0
 29 54  1  0
M  END
>  <UniqueID>  (29) 
29

>  <SMILES>  (29) 
COc1ccc(Cc2c(C)n(-c3ccccc3OC)c3ccc(OC)cc23)cc1

>  <Energy>  (29) 
93.84600504726019

>  <Genealogy>  (29) 
COc1ccc(Cc2c(C)n(-c3ccccc3OC)c3ccc(OC)cc23)cc1 (3D coordinates assigned)
COc1ccc(Cc2c(C)n(-c3ccccc3OC)c3ccc(OC)cc23)cc1 (optimized conformer: 93.84600504726019 kcal/mol)

>  <smiles>  (29) 
COc1ccc(Cc2c(C)n(-c3ccccc3OC)c3ccc(OC)cc23)cc1

>  <score_type>  (29) 
oracle

>  <origin>  (29) 
adg

>  <m_score__min__energy>  (29) 
-7.8799999999999999

>  <m_primary>  (29) 
energy

$$$$
29:0
     RDKit          3D

 43 44  0  0  0  0  0  0  0  0999 V2000
   68.8780   34.2310   50.1620 C   0  0  0  0  0  0  0  0  0  0  0  0
   67.5990   33.8130   50.8770 C   0  0  0  0  0  0  0  0  0  0  0  0
   66.7670   33.0740   50.0020 O   0  0  0  0  0  0  0  0  0  0  0  0
   65.9620   32.1470   50.7110 C   0  0  0  0  0  0  0  0  0  0  0  0
   64.5930   31.9700   50.0290 C   0  0  0  0  0  0  0  0  0  0  0  0
   64.5800   32.4780   48.6390 N   0  0  0  0  0  0  0  0  0  0  0  0
   63.3460   33.2310   48.3100 C   0  0  0  0  0  0  0  0  0  0  0  0
   63.2600   33.4610   46.7830 C   0  0  0  0  0  0  0  0  0  0  0  0
   61.8640   33.9350   46.3630 C   0  0  0  0  0  0  0  0  0  0  0  0
   60.8280   32.9840   46.7960 N   0  0  0  0  0  0  0  0  0  0  0  0
   59.5300   33.0020   46.1620 C   0  0  0  0  0  0  0  0  0  0  0  0
   58.7840   34.1930   46.0990 C   0  0  0  0  0  0  0  0  0  0  0  0
   57.5290   34.2110   45.4830 C   0  0  0  0  0  0  0  0  0  0  0  0
   57.0070   33.0450   44.9200 C   0  0  0  0  0  0  0  0  0  0  0  0
   57.7390   31.8560   44.9700 C   0  0  0  0  0  0  0  0  0  0  0  0
   57.0290   30.2630   44.1920 Br  0  0  0  0  0  0  0  0  0  0  0  0
   58.9950   31.8340   45.5870 C   0  0  0  0  0  0  0  0  0  0  0  0
   61.1570   31.9500   47.7890 C   0  0  0  0  0  0  0  0  0  0  0  0
   62.0740   32.5250   48.8760 C   0  0  0  0  0  0  0  0  0  0  0  0
   69.6483   34.4828   50.9058 H   0  0  0  0  0  0  0  0  0  0  0  0
   69.2335   33.4023   49.5320 H   0  0  0  0  0  0  0  0  0  0  0  0
   68.6755   35.1097   49.5320 H   0  0  0  0  0  0  0  0  0  0  0  0
   67.8561   33.1898   51.7462 H   0  0  0  0  0  0  0  0  0  0  0  0
   67.0616   34.7146   51.2060 H   0  0  0  0  0  0  0  0  0  0  0  0
   66.4761   31.1751   50.7432 H   0  0  0  0  0  0  0  0  0  0  0  0
   65.7993   32.5310   51.7289 H   0  0  0  0  0  0  0  0  0  0  0  0
   64.3421   30.8991   50.0151 H   0  0  0  0  0  0  0  0  0  0  0  0
   63.8569   32.5516   50.6033 H   0  0  0  0  0  0  0  0  0  0  0  0
   65.4230   33.0790   48.4840 H   0  0  0  0  0  0  0  0  0  0  0  0
   64.6710   31.6670   47.9830 H   0  0  0  0  0  0  0  0  0  0  0  0
   63.3922   34.2154   48.7987 H   0  0  0  0  0  0  0  0  0  0  0  0
   63.9981   34.2238   46.4945 H   0  0  0  0  0  0  0  0  0  0  0  0
   63.4659   32.5055   46.2784 H   0  0  0  0  0  0  0  0  0  0  0  0
   61.6651   34.9155   46.8203 H   0  0  0  0  0  0  0  0  0  0  0  0
   61.8353   34.0066   45.2657 H   0  0  0  0  0  0  0  0  0  0  0  0
   59.1908   35.1163   46.5373 H   0  0  0  0  0  0  0  0  0  0  0  0
   56.9514   35.1463   45.4419 H   0  0  0  0  0  0  0  0  0  0  0  0
   56.0190   33.0624   44.4368 H   0  0  0  0  0  0  0  0  0  0  0  0
   59.5688   30.8962   45.6229 H   0  0  0  0  0  0  0  0  0  0  0  0
   60.2290   31.5851   48.2534 H   0  0  0  0  0  0  0  0  0  0  0  0
   61.6775   31.1230   47.2839 H   0  0  0  0  0  0  0  0  0  0  0  0
   61.5010   33.2583   49.4625 H   0  0  0  0  0  0  0  0  0  0  0  0
   62.4196   31.6788   49.4879 H   0  0  0  0  0  0  0  0  0  0  0  0
  1  2  1  0
  2  3  1  0
  3  4  1  0
  4  5  1  0
  5  6  1  0
  6  7  1  0
  7  8  1  0
  8  9  1  0
  9 10  1  0
 10 11  1  0
 11 12  2  0
 12 13  1  0
 13 14  2  0
 14 15  1  0
 15 16  1  0
 15 17  2  0
 10 18  1  0
 18 19  1  0
 19  7  1  0
 17 11  1  0
  1 20  1  0
  1 21  1  0
  1 22  1  0
  2 23  1  0
  2 24  1  0
  4 25  1  0
  4 26  1  0
  5 27  1  0
  5 28  1  0
  6 29  1  0
  6 30  1  0
  7 31  1  0
  8 32  1  0
  8 33  1  0
  9 34  1  0
  9 35  1  0
 12 36  1  0
 13 37  1  0
 14 38  1  0
 17 39  1  0
 18 40  1  0
 18 41  1  0
 19 42  1  0
 19 43  1  0
M  CHG  1   6   1
M  END
>  <UniqueID>  (30) 
30

>  <SMILES>  (30) 
CCOCC[NH2+]C1CCN(c2cccc(Br)c2)CC1

>  <Energy>  (30) 
49.39974872195309

>  <Genealogy>  (30) 
CCOCC[NH2+]C1CCN(c2cccc(Br)c2)CC1 (protonated)
CCOCC[NH2+]C1CCN(c2cccc(Br)c2)CC1 (3D coordinates assigned)
CCOCC[NH2+]C1CCN(c2cccc(Br)c2)CC1 (nonaromatic ring conformer: 49.39974872195309 kcal/mol)

>  <smiles>  (30) 
CCOCCNC1CCN(c2cccc(Br)c2)CC1

>  <score_type>  (30) 
oracle

>  <origin>  (30) 
adg

>  <m_score__min__energy>  (30) 
-5.6299999999999999

>  <m_primary>  (30) 
energy

$$$$
30:0
     RDKit          3D

 28 29  0  0  0  0  0  0  0  0999 V2000
   59.5100   28.2180   44.4910 C   0  0  0  0  0  0  0  0  0  0  0  0
   59.1960   28.3860   46.2750 S   0  0  0  0  0  0  0  0  0  0  0  0
   59.4050   30.1670   46.2590 C   0  0  0  0  0  0  0  0  0  0  0  0
   60.7140   30.9750   46.9520 S   0  0  0  0  0  0  0  0  0  0  0  0
   60.1860   32.5180   46.5300 C   0  0  0  0  0  0  0  0  0  0  0  0
   60.7850   33.7560   46.8050 C   0  0  0  0  0  0  0  0  0  0  0  0
   62.0380   33.8510   47.5050 N   0  0  0  0  0  0  0  0  0  0  0  0
   63.3070   33.7980   46.7780 C   0  0  0  0  0  0  0  0  0  0  0  0
   62.0440   33.9280   48.9660 C   0  0  0  0  0  0  0  0  0  0  0  0
   60.1110   34.9180   46.3830 C   0  0  0  0  0  0  0  0  0  0  0  0
   58.8880   34.8270   45.6970 C   0  0  0  0  0  0  0  0  0  0  0  0
   58.3120   33.5760   45.4290 C   0  0  0  0  0  0  0  0  0  0  0  0
   58.9720   32.4190   45.8570 C   0  0  0  0  0  0  0  0  0  0  0  0
   58.5290   31.0950   45.6970 C   0  0  0  0  0  0  0  0  0  0  0  0
   57.3030   30.7270   45.0340 C   0  0  0  0  0  0  0  0  0  0  0  0
   56.3190   30.4330   44.5020 N   0  0  0  0  0  0  0  0  0  0  0  0
   60.4700   27.7044   44.3344 H   0  0  0  0  0  0  0  0  0  0  0  0
   58.7012   27.6321   44.0299 H   0  0  0  0  0  0  0  0  0  0  0  0
   59.5486   29.2160   44.0299 H   0  0  0  0  0  0  0  0  0  0  0  0
   64.1397   33.7632   47.4959 H   0  0  0  0  0  0  0  0  0  0  0  0
   63.3301   32.8981   46.1458 H   0  0  0  0  0  0  0  0  0  0  0  0
   63.4051   34.6928   46.1458 H   0  0  0  0  0  0  0  0  0  0  0  0
   61.9650   32.9148   49.3869 H   0  0  0  0  0  0  0  0  0  0  0  0
   62.9812   34.3938   49.3048 H   0  0  0  0  0  0  0  0  0  0  0  0
   61.1903   34.5333   49.3048 H   0  0  0  0  0  0  0  0  0  0  0  0
   60.5460   35.9064   46.5923 H   0  0  0  0  0  0  0  0  0  0  0  0
   58.3780   35.7442   45.3674 H   0  0  0  0  0  0  0  0  0  0  0  0
   57.3555   33.5059   44.8903 H   0  0  0  0  0  0  0  0  0  0  0  0
  1  2  1  0
  2  3  1  0
  3  4  1  0
  4  5  1  0
  5  6  2  0
  6  7  1  0
  7  8  1  0
  7  9  1  0
  6 10  1  0
 10 11  2  0
 11 12  1  0
 12 13  2  0
 13 14  1  0
 14 15  1  0
 15 16  3  0
 14  3  2  0
 13  5  1  0
  1 17  1  0
  1 18  1  0
  1 19  1  0
  8 20  1  0
  8 21  1  0
  8 22  1  0
  9 23  1  0
  9 24  1  0
  9 25  1  0
 10 26  1  0
 11 27  1  0
 12 28  1  0
M  END
>  <UniqueID>  (31) 
31

>  <SMILES>  (31) 
CSc1sc2c(N(C)C)cccc2c1C#N

>  <Energy>  (31) 
57.94599220004492

>  <Genealogy>  (31) 
CSc1sc2c(N(C)C)cccc2c1C#N (3D coordinates assigned)
CSc1sc2c(N(C)C)cccc2c1C#N (optimized conformer: 57.94599220004492 kcal/mol)

>  <smiles>  (31) 
CSc1sc2c(N(C)C)cccc2c1C#N

>  <score_type>  (31) 
oracle

>  <origin>  (31) 
adg

>  <m_score__min__energy>  (31) 
-5.96

>  <m_primary>  (31) 
energy

$$$$
31:0
     RDKit          3D

 43 45  0  0  0  0  0  0  0  0999 V2000
   56.5770   29.9740   44.6580 C   0  0  0  0  0  0  0  0  0  0  0  0
   57.4080   31.0290   45.2600 N   0  0  0  0  0  0  0  0  0  0  0  0
   58.8410   30.7510   45.0780 C   0  0  0  0  0  0  0  0  0  0  0  0
   57.0180   32.3930   44.8320 C   0  0  0  0  0  0  0  0  0  0  0  0
   58.1050   33.4770   45.0480 C   0  0  0  0  0  0  0  0  0  0  0  0
   58.2690   33.8500   46.5280 C   0  0  0  0  0  0  0  0  0  0  0  0
   58.7350   32.6990   47.3010 N   0  0  0  0  0  0  0  0  0  0  0  0
   59.7100   32.8420   48.3470 C   0  0  0  0  0  0  0  0  0  0  0  0
   61.0470   33.1930   48.0530 C   0  0  0  0  0  0  0  0  0  0  0  0
   61.4520   33.4410   46.7260 C   0  0  0  0  0  0  0  0  0  0  0  0
   62.7730   33.7770   46.4380 C   0  0  0  0  0  0  0  0  0  0  0  0
   63.7110   33.8700   47.4610 C   0  0  0  0  0  0  0  0  0  0  0  0
   63.3390   33.6270   48.7830 C   0  0  0  0  0  0  0  0  0  0  0  0
   62.0070   33.2800   49.1140 C   0  0  0  0  0  0  0  0  0  0  0  0
   61.6280   33.0250   50.4210 N   0  0  0  0  0  0  0  0  0  0  0  0
   62.6020   33.1000   51.5250 C   0  0  0  0  0  0  0  0  0  0  0  0
   60.3190   32.7120   50.6730 C   0  0  0  0  0  0  0  0  0  0  0  0
   59.5870   32.4090   52.1630 S   0  0  0  0  0  0  0  0  0  0  0  0
   58.0360   32.1720   51.5480 C   0  0  0  0  0  0  0  0  0  0  0  0
   58.0730   32.3340   50.1670 C   0  0  0  0  0  0  0  0  0  0  0  0
   59.3580   32.6230   49.6790 C   0  0  0  0  0  0  0  0  0  0  0  0
   56.1075   29.3779   45.4544 H   0  0  0  0  0  0  0  0  0  0  0  0
   55.7957   30.4335   44.0348 H   0  0  0  0  0  0  0  0  0  0  0  0
   57.2068   29.3220   44.0348 H   0  0  0  0  0  0  0  0  0  0  0  0
   59.3241   30.6573   46.0618 H   0  0  0  0  0  0  0  0  0  0  0  0
   58.9642   29.8122   44.5181 H   0  0  0  0  0  0  0  0  0  0  0  0
   59.3063   31.5756   44.5181 H   0  0  0  0  0  0  0  0  0  0  0  0
   56.7765   32.3593   43.7594 H   0  0  0  0  0  0  0  0  0  0  0  0
   56.1626   32.6823   45.4602 H   0  0  0  0  0  0  0  0  0  0  0  0
   59.0652   33.0953   44.6708 H   0  0  0  0  0  0  0  0  0  0  0  0
   57.7914   34.3811   44.5056 H   0  0  0  0  0  0  0  0  0  0  0  0
   59.0022   34.6653   46.6161 H   0  0  0  0  0  0  0  0  0  0  0  0
   57.2937   34.1706   46.9228 H   0  0  0  0  0  0  0  0  0  0  0  0
   58.2510   31.7810   47.1820 H   0  0  0  0  0  0  0  0  0  0  0  0
   60.7180   33.3686   45.9099 H   0  0  0  0  0  0  0  0  0  0  0  0
   63.0753   33.9694   45.3980 H   0  0  0  0  0  0  0  0  0  0  0  0
   64.7520   34.1367   47.2260 H   0  0  0  0  0  0  0  0  0  0  0  0
   64.0922   33.7062   49.5808 H   0  0  0  0  0  0  0  0  0  0  0  0
   62.0699   33.0590   52.4869 H   0  0  0  0  0  0  0  0  0  0  0  0
   63.3004   32.2530   51.4560 H   0  0  0  0  0  0  0  0  0  0  0  0
   63.1625   34.0440   51.4560 H   0  0  0  0  0  0  0  0  0  0  0  0
   57.1418   31.9292   52.1409 H   0  0  0  0  0  0  0  0  0  0  0  0
   57.1860   32.2448   49.5225 H   0  0  0  0  0  0  0  0  0  0  0  0
  1  2  1  0
  2  3  1  0
  2  4  1  0
  4  5  1  0
  5  6  1  0
  6  7  1  0
  7  8  1  0
  8  9  2  0
  9 10  1  0
 10 11  2  0
 11 12  1  0
 12 13  2  0
 13 14  1  0
 14 15  2  0
 15 16  1  0
 15 17  1  0
 17 18  1  0
 18 19  1  0
 19 20  2  0
 20 21  1  0
 21  8  1  0
 14  9  1  0
 21 17  2  0
  1 22  1  0
  1 23  1  0
  1 24  1  0
  3 25  1  0
  3 26  1  0
  3 27  1  0
  4 28  1  0
  4 29  1  0
  5 30  1  0
  5 31  1  0
  6 32  1  0
  6 33  1  0
  7 34  1  0
 10 35  1  0
 11 36  1  0
 12 37  1  0
 13 38  1  0
 16 39  1  0
 16 40  1  0
 16 41  1  0
 19 42  1  0
 20 43  1  0
M  CHG  1  15   1
M  END
>  <UniqueID>  (32) 
32

>  <SMILES>  (32) 
CN(C)CCCNc1c2ccccc2[n+](C)c2sccc12

>  <Energy>  (32) 
91.62106213819054

>  <Genealogy>  (32) 
CN(C)CCCNc1c2ccccc2[n+](C)c2sccc12 (3D coordinates assigned)
CN(C)CCCNc1c2ccccc2[n+](C)c2sccc12 (optimized conformer: 91.62106213819054 kcal/mol)

>  <smiles>  (32) 
CN(C)CCCNc1c2ccccc2[n+](C)c2sccc12

>  <score_type>  (32) 
oracle

>  <origin>  (32) 
adg

>  <m_score__min__energy>  (32) 
-5.1900000000000004

>  <m_primary>  (32) 
energy

$$$$
32:0
     RDKit          3D

 38 41  0  0  0  0  0  0  0  0999 V2000
   59.6560   29.2900   47.8670 C   0  0  0  0  0  0  0  0  0  0  0  0
   58.5900   28.8030   46.9300 C   0  0  0  0  0  0  0  0  0  0  0  0
   58.2190   27.4970   46.9920 N   0  0  0  0  0  0  0  0  0  0  0  0
   57.2670   26.9920   46.1670 C   0  0  0  0  0  0  0  0  0  0  0  0
   56.6660   27.7920   45.2520 N   0  0  0  0  0  0  0  0  0  0  0  0
   56.9990   29.1040   45.1380 C   0  0  0  0  0  0  0  0  0  0  0  0
   57.9590   29.6630   46.0050 C   0  0  0  0  0  0  0  0  0  0  0  0
   58.3690   31.1150   45.8570 C   0  0  0  0  0  0  0  0  0  0  0  0
   57.3470   31.9080   45.1430 N   0  0  0  0  0  0  0  0  0  0  0  0
   57.8370   33.2850   44.9240 C   0  0  0  0  0  0  0  0  0  0  0  0
   58.9200   33.6140   45.9030 C   0  0  0  0  0  0  0  0  0  0  0  0
   60.2360   33.4940   45.6250 N   0  0  0  0  0  0  0  0  0  0  0  0
   61.0200   33.8410   46.6820 C   0  0  0  0  0  0  0  0  0  0  0  0
   62.5230   33.7680   46.5610 C   0  0  0  0  0  0  0  0  0  0  0  0
   63.1930   32.5230   47.1250 C   0  0  0  0  0  0  0  0  0  0  0  0
   63.3180   33.8540   47.8560 C   0  0  0  0  0  0  0  0  0  0  0  0
   60.3120   34.2440   47.8210 C   0  0  0  0  0  0  0  0  0  0  0  0
   58.6700   34.1540   47.4730 S   0  0  0  0  0  0  0  0  0  0  0  0
   57.0090   31.2590   43.8610 C   0  0  0  0  0  0  0  0  0  0  0  0
   56.2700   29.9510   44.1340 C   0  0  0  0  0  0  0  0  0  0  0  0
   59.3274   29.1399   48.9060 H   0  0  0  0  0  0  0  0  0  0  0  0
   60.5842   28.7266   47.6910 H   0  0  0  0  0  0  0  0  0  0  0  0
   59.8378   30.3605   47.6910 H   0  0  0  0  0  0  0  0  0  0  0  0
   56.9825   25.9320   46.2408 H   0  0  0  0  0  0  0  0  0  0  0  0
   58.5177   31.5460   46.8581 H   0  0  0  0  0  0  0  0  0  0  0  0
   59.2975   31.1479   45.2681 H   0  0  0  0  0  0  0  0  0  0  0  0
   58.2341   33.3704   43.9017 H   0  0  0  0  0  0  0  0  0  0  0  0
   57.0026   33.9878   45.0647 H   0  0  0  0  0  0  0  0  0  0  0  0
   62.5475   34.2964   45.5965 H   0  0  0  0  0  0  0  0  0  0  0  0
   62.5814   31.7154   47.5535 H   0  0  0  0  0  0  0  0  0  0  0  0
   63.9039   31.7786   46.7371 H   0  0  0  0  0  0  0  0  0  0  0  0
   62.7966   34.0074   48.8124 H   0  0  0  0  0  0  0  0  0  0  0  0
   64.1566   34.4688   48.2147 H   0  0  0  0  0  0  0  0  0  0  0  0
   60.7533   34.5636   48.7765 H   0  0  0  0  0  0  0  0  0  0  0  0
   56.3659   31.9274   43.2697 H   0  0  0  0  0  0  0  0  0  0  0  0
   57.9321   31.0494   43.3007 H   0  0  0  0  0  0  0  0  0  0  0  0
   55.2671   30.1818   44.5225 H   0  0  0  0  0  0  0  0  0  0  0  0
   56.2056   29.3885   43.1909 H   0  0  0  0  0  0  0  0  0  0  0  0
  1  2  1  0
  2  3  2  0
  3  4  1  0
  4  5  2  0
  5  6  1  0
  6  7  2  0
  7  8  1  0
  8  9  1  0
  9 10  1  0
 10 11  1  0
 11 12  2  0
 12 13  1  0
 13 14  1  0
 14 15  1  0
 15 16  1  0
 13 17  2  0
 17 18  1  0
  9 19  1  0
 19 20  1  0
  7  2  1  0
 18 11  1  0
 20  6  1  0
 16 14  1  0
  1 21  1  0
  1 22  1  0
  1 23  1  0
  4 24  1  0
  8 25  1  0
  8 26  1  0
 10 27  1  0
 10 28  1  0
 14 29  1  0
 15 30  1  0
 15 31  1  0
 16 32  1  0
 16 33  1  0
 17 34  1  0
 19 35  1  0
 19 36  1  0
 20 37  1  0
 20 38  1  0
M  END
>  <UniqueID>  (33) 
33

>  <SMILES>  (33) 
Cc1ncnc2c1CN(Cc1nc(C3CC3)cs1)CC2

>  <Energy>  (33) 
338.6349226481016

>  <Genealogy>  (33) 
Cc1ncnc2c1CN(Cc1nc(C3CC3)cs1)CC2 (3D coordinates assigned)
Cc1ncnc2c1CN(Cc1nc(C3CC3)cs1)CC2 (nonaromatic ring conformer: 338.6349226481016 kcal/mol)

>  <smiles>  (33) 
Cc1ncnc2c1CN(Cc1nc(C3CC3)cs1)CC2

>  <score_type>  (33) 
oracle

>  <origin>  (33) 
adg

>  <m_score__min__energy>  (33) 
-7.4100000000000001

>  <m_primary>  (33) 
energy

$$$$
33:0
     RDKit          3D

 58 60  0  0  0  0  0  0  0  0999 V2000
   59.6840   33.8220   50.5330 C   0  0  0  0  0  0  0  0  0  0  0  0
   60.9730   33.0050   50.5470 C   0  0  0  0  0  0  0  0  0  0  0  0
   61.9890   33.4750   49.4820 C   0  0  0  0  0  0  0  0  0  0  0  0
   61.8140   32.8010   48.1730 N   0  0  2  0  0  0  0  0  0  0  0  0
   63.0970   32.2430   47.7200 C   0  0  0  0  0  0  0  0  0  0  0  0
   61.3080   33.7060   47.1590 C   0  0  0  0  0  0  0  0  0  0  0  0
   62.0800   34.2110   46.3500 O   0  0  0  0  0  0  0  0  0  0  0  0
   59.8330   34.0080   47.0490 C   0  0  0  0  0  0  0  0  0  0  0  0
   59.1210   32.9270   46.2670 C   0  0  0  0  0  0  0  0  0  0  0  0
   58.8960   33.1480   44.8970 C   0  0  0  0  0  0  0  0  0  0  0  0
   58.1560   32.2420   44.1320 C   0  0  0  0  0  0  0  0  0  0  0  0
   57.9030   32.4930   42.7750 C   0  0  0  0  0  0  0  0  0  0  0  0
   57.1510   31.5870   42.0220 C   0  0  0  0  0  0  0  0  0  0  0  0
   56.6470   30.4290   42.6180 C   0  0  0  0  0  0  0  0  0  0  0  0
   56.8900   30.1710   43.9700 C   0  0  0  0  0  0  0  0  0  0  0  0
   57.6460   31.0740   44.7350 C   0  0  0  0  0  0  0  0  0  0  0  0
   57.8960   30.8250   46.0890 C   0  0  0  0  0  0  0  0  0  0  0  0
   58.6300   31.7360   46.8660 C   0  0  0  0  0  0  0  0  0  0  0  0
   58.8930   31.3910   48.3190 C   0  0  0  0  0  0  0  0  0  0  0  0
   60.0680   30.6110   48.4550 O   0  0  0  0  0  0  0  0  0  0  0  0
   59.7730   29.2850   48.8540 C   0  0  0  0  0  0  0  0  0  0  0  0
   60.4250   28.2700   47.9050 C   0  0  0  0  0  0  0  0  0  0  0  0
   59.5350   27.9320   46.7920 N   0  0  0  0  0  0  0  0  0  0  0  0
   58.3780   27.2610   46.8820 C   0  0  0  0  0  0  0  0  0  0  0  0
   57.8550   27.1470   45.6150 C   0  0  0  0  0  0  0  0  0  0  0  0
   58.6780   27.7390   44.7250 N   0  0  0  0  0  0  0  0  0  0  0  0
   59.6970   28.2030   45.4760 C   0  0  0  0  0  0  0  0  0  0  0  0
   60.8610   28.9450   44.8970 C   0  0  0  0  0  0  0  0  0  0  0  0
   59.3663   34.0234   51.5667 H   0  0  0  0  0  0  0  0  0  0  0  0
   59.8591   34.7743   50.0111 H   0  0  0  0  0  0  0  0  0  0  0  0
   58.8975   33.2571   50.0111 H   0  0  0  0  0  0  0  0  0  0  0  0
   61.4368   33.0965   51.5402 H   0  0  0  0  0  0  0  0  0  0  0  0
   60.7080   31.9627   50.3160 H   0  0  0  0  0  0  0  0  0  0  0  0
   61.8677   34.5586   49.3367 H   0  0  0  0  0  0  0  0  0  0  0  0
   62.9930   33.2185   49.8511 H   0  0  0  0  0  0  0  0  0  0  0  0
   61.1550   31.9980   48.2970 H   0  0  0  0  0  0  0  0  0  0  0  0
   63.7098   31.9765   48.5937 H   0  0  0  0  0  0  0  0  0  0  0  0
   62.9122   31.3440   47.1137 H   0  0  0  0  0  0  0  0  0  0  0  0
   63.6286   32.9912   47.1137 H   0  0  0  0  0  0  0  0  0  0  0  0
   59.4006   34.0671   48.0587 H   0  0  0  0  0  0  0  0  0  0  0  0
   59.7072   34.9655   46.5223 H   0  0  0  0  0  0  0  0  0  0  0  0
   59.3091   34.0486   44.4193 H   0  0  0  0  0  0  0  0  0  0  0  0
   58.2974   33.4048   42.3027 H   0  0  0  0  0  0  0  0  0  0  0  0
   56.9558   31.7864   40.9580 H   0  0  0  0  0  0  0  0  0  0  0  0
   56.0569   29.7177   42.0215 H   0  0  0  0  0  0  0  0  0  0  0  0
   56.4883   29.2590   44.4357 H   0  0  0  0  0  0  0  0  0  0  0  0
   57.5125   29.9034   46.5511 H   0  0  0  0  0  0  0  0  0  0  0  0
   59.0115   32.3217   48.8932 H   0  0  0  0  0  0  0  0  0  0  0  0
   58.0413   30.8075   48.6985 H   0  0  0  0  0  0  0  0  0  0  0  0
   60.1544   29.1221   49.8728 H   0  0  0  0  0  0  0  0  0  0  0  0
   58.6825   29.1434   48.8249 H   0  0  0  0  0  0  0  0  0  0  0  0
   61.3536   28.7012   47.5027 H   0  0  0  0  0  0  0  0  0  0  0  0
   60.6354   27.3511   48.4719 H   0  0  0  0  0  0  0  0  0  0  0  0
   57.9266   26.8705   47.8060 H   0  0  0  0  0  0  0  0  0  0  0  0
   56.9073   26.6477   45.3648 H   0  0  0  0  0  0  0  0  0  0  0  0
   61.4844   29.3424   45.7115 H   0  0  0  0  0  0  0  0  0  0  0  0
   61.4598   28.2616   44.2770 H   0  0  0  0  0  0  0  0  0  0  0  0
   60.4942   29.7763   44.2770 H   0  0  0  0  0  0  0  0  0  0  0  0
  1  2  1  0
  2  3  1  0
  3  4  1  0
  4  5  1  0
  4  6  1  0
  6  7  2  0
  6  8  1  0
  8  9  1  0
  9 10  2  0
 10 11  1  0
 11 12  2  0
 12 13  1  0
 13 14  2  0
 14 15  1  0
 15 16  2  0
 16 17  1  0
 17 18  2  0
 18 19  1  0
 19 20  1  0
 20 21  1  0
 21 22  1  0
 22 23  1  0
 23 24  1  0
 24 25  2  0
 25 26  1  0
 26 27  2  0
 27 28  1  0
 18  9  1  0
 27 23  1  0
 16 11  1  0
  1 29  1  0
  1 30  1  0
  1 31  1  0
  2 32  1  0
  2 33  1  0
  3 34  1  0
  3 35  1  0
  4 36  1  1
  5 37  1  0
  5 38  1  0
  5 39  1  0
  8 40  1  0
  8 41  1  0
 10 42  1  0
 12 43  1  0
 13 44  1  0
 14 45  1  0
 15 46  1  0
 17 47  1  0
 19 48  1  0
 19 49  1  0
 21 50  1  0
 21 51  1  0
 22 52  1  0
 22 53  1  0
 24 54  1  0
 25 55  1  0
 28 56  1  0
 28 57  1  0
 28 58  1  0
M  CHG  1   4   1
M  END
>  <UniqueID>  (34) 
34

>  <SMILES>  (34) 
CCC[N@H+](C)C(=O)Cc1cc2ccccc2cc1COCCn1ccnc1C

>  <Energy>  (34) 
88.5576641306654

>  <Genealogy>  (34) 
CCC[NH+](C)C(=O)Cc1cc2ccccc2cc1COCCn1ccnc1C (protonated)
CCC[N@H+](C)C(=O)Cc1cc2ccccc2cc1COCCn1ccnc1C (chirality)
CCC[N@H+](C)C(=O)Cc1cc2ccccc2cc1COCCn1ccnc1C (3D coordinates assigned)
CCC[N@H+](C)C(=O)Cc1cc2ccccc2cc1COCCn1ccnc1C (optimized conformer: 88.5576641306654 kcal/mol)

>  <smiles>  (34) 
CCCN(C)C(=O)Cc1cc2ccccc2cc1COCCn1ccnc1C

>  <score_type>  (34) 
oracle

>  <origin>  (34) 
adg

>  <m_score__min__energy>  (34) 
-6.71

>  <m_primary>  (34) 
energy

$$$$
34:0
     RDKit          3D

 54 56  0  0  0  0  0  0  0  0999 V2000
   57.8620   27.8030   44.5960 C   0  0  0  0  0  0  0  0  0  0  0  0
   56.7260   28.4320   45.3930 C   0  0  0  0  0  0  0  0  0  0  0  0
   56.3870   29.7450   44.8310 N   0  0  0  0  0  0  0  0  0  0  0  0
   57.3970   30.1960   43.8590 C   0  0  0  0  0  0  0  0  0  0  0  0
   57.5980   31.7120   43.9670 C   0  0  0  0  0  0  0  0  0  0  0  0
   57.0960   32.2250   45.2600 N   0  0  0  0  0  0  0  0  0  0  0  0
   56.8020   33.6810   45.2190 C   0  0  0  0  0  0  0  0  0  0  0  0
   57.9000   34.5220   45.8910 C   0  0  0  0  0  0  0  0  0  0  0  0
   58.0870   34.1550   47.3200 N   0  0  0  0  0  0  0  0  0  0  0  0
   59.4450   34.5090   47.7940 C   0  0  0  0  0  0  0  0  0  0  0  0
   60.4800   34.3760   46.6730 C   0  0  0  0  0  0  0  0  0  0  0  0
   61.5990   33.5580   47.1170 N   0  0  0  0  0  0  0  0  0  0  0  0
   63.0300   33.4520   46.7530 C   0  0  0  0  0  0  0  0  0  0  0  0
   63.7700   33.9870   45.8870 O   0  0  0  0  0  0  0  0  0  0  0  0
   63.2290   32.4490   47.8460 C   0  0  1  0  0  0  0  0  0  0  0  0
   64.3230   33.0860   49.1060 Cl  0  0  0  0  0  0  0  0  0  0  0  0
   61.8270   32.5940   48.1750 C   0  0  2  0  0  0  0  0  0  0  0  0
   61.0080   31.3310   47.9780 C   0  0  0  0  0  0  0  0  0  0  0  0
   61.0790   30.5870   46.7850 C   0  0  0  0  0  0  0  0  0  0  0  0
   60.3260   29.4200   46.6310 C   0  0  0  0  0  0  0  0  0  0  0  0
   59.4990   28.9800   47.6700 C   0  0  0  0  0  0  0  0  0  0  0  0
   59.4260   29.7070   48.8600 C   0  0  0  0  0  0  0  0  0  0  0  0
   60.1730   30.8790   49.0160 C   0  0  0  0  0  0  0  0  0  0  0  0
   57.7750   32.7290   47.5990 C   0  0  0  0  0  0  0  0  0  0  0  0
   58.0030   31.8420   46.3690 C   0  0  0  0  0  0  0  0  0  0  0  0
   58.6100   27.3888   45.2881 H   0  0  0  0  0  0  0  0  0  0  0  0
   57.4630   26.9973   43.9623 H   0  0  0  0  0  0  0  0  0  0  0  0
   58.3331   28.5688   43.9623 H   0  0  0  0  0  0  0  0  0  0  0  0
   55.8432   27.7773   45.3481 H   0  0  0  0  0  0  0  0  0  0  0  0
   57.0440   28.5573   46.4386 H   0  0  0  0  0  0  0  0  0  0  0  0
   56.3630   30.4300   45.6220 H   0  0  0  0  0  0  0  0  0  0  0  0
   58.3507   29.6878   44.0642 H   0  0  0  0  0  0  0  0  0  0  0  0
   57.0513   29.9518   42.8437 H   0  0  0  0  0  0  0  0  0  0  0  0
   58.6710   31.9390   43.8827 H   0  0  0  0  0  0  0  0  0  0  0  0
   57.0351   32.1976   43.1563 H   0  0  0  0  0  0  0  0  0  0  0  0
   56.7118   33.9933   44.1681 H   0  0  0  0  0  0  0  0  0  0  0  0
   55.8663   33.8490   45.7723 H   0  0  0  0  0  0  0  0  0  0  0  0
   58.8477   34.3613   45.3562 H   0  0  0  0  0  0  0  0  0  0  0  0
   57.5931   35.5775   45.8487 H   0  0  0  0  0  0  0  0  0  0  0  0
   59.4388   35.5484   48.1541 H   0  0  0  0  0  0  0  0  0  0  0  0
   59.7205   33.8173   48.6037 H   0  0  0  0  0  0  0  0  0  0  0  0
   60.0094   33.9039   45.7980 H   0  0  0  0  0  0  0  0  0  0  0  0
   60.8505   35.3767   46.4057 H   0  0  0  0  0  0  0  0  0  0  0  0
   63.6611   31.4534   47.6671 H   0  0  0  0  0  0  0  0  0  0  0  0
   61.5674   32.8490   49.2131 H   0  0  0  0  0  0  0  0  0  0  0  0
   61.7322   30.9269   45.9678 H   0  0  0  0  0  0  0  0  0  0  0  0
   60.3835   28.8477   45.6934 H   0  0  0  0  0  0  0  0  0  0  0  0
   58.9062   28.0613   47.5496 H   0  0  0  0  0  0  0  0  0  0  0  0
   58.7787   29.3567   49.6775 H   0  0  0  0  0  0  0  0  0  0  0  0
   60.1074   31.4497   49.9541 H   0  0  0  0  0  0  0  0  0  0  0  0
   58.4218   32.3768   48.4161 H   0  0  0  0  0  0  0  0  0  0  0  0
   56.7127   32.6606   47.8762 H   0  0  0  0  0  0  0  0  0  0  0  0
   59.0453   31.9517   46.0350 H   0  0  0  0  0  0  0  0  0  0  0  0
   57.7943   30.7984   46.6469 H   0  0  0  0  0  0  0  0  0  0  0  0
  1  2  1  0
  2  3  1  0
  3  4  1  0
  4  5  1  0
  5  6  1  0
  6  7  1  0
  7  8  1  0
  8  9  1  0
  9 10  1  0
 10 11  1  0
 11 12  1  0
 12 13  1  0
 13 14  2  0
 13 15  1  0
 15 16  1  0
 15 17  1  0
 17 18  1  0
 18 19  2  0
 19 20  1  0
 20 21  2  0
 21 22  1  0
 22 23  2  0
  9 24  1  0
 24 25  1  0
 25  6  1  0
 17 12  1  0
 23 18  1  0
  1 26  1  0
  1 27  1  0
  1 28  1  0
  2 29  1  0
  2 30  1  0
  3 31  1  0
  4 32  1  0
  4 33  1  0
  5 34  1  0
  5 35  1  0
  7 36  1  0
  7 37  1  0
  8 38  1  0
  8 39  1  0
 10 40  1  0
 10 41  1  0
 11 42  1  0
 11 43  1  0
 15 44  1  6
 17 45  1  1
 19 46  1  0
 20 47  1  0
 21 48  1  0
 22 49  1  0
 23 50  1  0
 24 51  1  0
 24 52  1  0
 25 53  1  0
 25 54  1  0
M  END
>  <UniqueID>  (35) 
35

>  <SMILES>  (35) 
CCNCCN1CCN(CCN2C(=O)[C@@H](Cl)[C@@H]2c2ccccc2)CC1

>  <Energy>  (35) 
92.49852946300076

>  <Genealogy>  (35) 
CCNCCN1CCN(CCN2C(=O)[C@@H](Cl)[C@@H]2c2ccccc2)CC1 (chirality)
CCNCCN1CCN(CCN2C(=O)[C@@H](Cl)[C@@H]2c2ccccc2)CC1 (3D coordinates assigned)
CCNCCN1CCN(CCN2C(=O)[C@@H](Cl)[C@@H]2c2ccccc2)CC1 (nonaromatic ring conformer: 92.49852946300076 kcal/mol)

>  <smiles>  (35) 
CCNCCN1CCN(CCN2C(=O)C(Cl)C2c2ccccc2)CC1

>  <score_type>  (35) 
oracle

>  <origin>  (35) 
adg

>  <m_score__min__energy>  (35) 
-8.1199999999999992

>  <m_primary>  (35) 
energy

$$$$
35:0
     RDKit          3D

 49 52  0  0  0  0  0  0  0  0999 V2000
   56.9780   21.0340   43.0760 C   0  0  0  0  0  0  0  0  0  0  0  0
   56.1550   21.8520   43.9010 O   0  0  0  0  0  0  0  0  0  0  0  0
   56.4490   23.1810   44.2390 C   0  0  0  0  0  0  0  0  0  0  0  0
   57.1310   24.0500   43.3680 C   0  0  0  0  0  0  0  0  0  0  0  0
   57.4040   25.3650   43.7550 C   0  0  0  0  0  0  0  0  0  0  0  0
   57.0150   25.8290   45.0190 C   0  0  0  0  0  0  0  0  0  0  0  0
   57.2830   27.1890   45.3960 N   0  0  0  0  0  0  0  0  0  0  0  0
   56.6350   28.2280   44.8760 N   0  0  0  0  0  0  0  0  0  0  0  0
   57.1190   29.3500   45.4590 C   0  0  0  0  0  0  0  0  0  0  0  0
   56.6770   30.6480   45.1930 O   0  0  0  0  0  0  0  0  0  0  0  0
   57.0260   31.3580   44.0060 C   0  0  0  0  0  0  0  0  0  0  0  0
   58.2250   32.2780   44.2450 C   0  0  0  0  0  0  0  0  0  0  0  0
   57.7610   33.5880   44.7650 N   0  0  0  0  0  0  0  0  0  0  0  0
   57.0450   33.4640   46.0490 C   0  0  0  0  0  0  0  0  0  0  0  0
   58.0100   33.1360   47.2140 C   0  0  0  0  0  0  0  0  0  0  0  0
   59.3710   33.2310   46.8350 O   0  0  0  0  0  0  0  0  0  0  0  0
   59.6100   34.4760   46.2130 C   0  0  0  0  0  0  0  0  0  0  0  0
   58.8520   34.5820   44.8730 C   0  0  0  0  0  0  0  0  0  0  0  0
   58.1020   29.0090   46.3570 C   0  0  0  0  0  0  0  0  0  0  0  0
   58.9160   29.7710   47.1890 C   0  0  0  0  0  0  0  0  0  0  0  0
   59.8640   29.0870   47.9740 C   0  0  0  0  0  0  0  0  0  0  0  0
   61.0160   30.0660   49.1400 Br  0  0  0  0  0  0  0  0  0  0  0  0
   59.9750   27.6780   47.8950 C   0  0  0  0  0  0  0  0  0  0  0  0
   59.1340   26.9400   47.0410 C   0  0  0  0  0  0  0  0  0  0  0  0
   58.1850   27.6450   46.2940 C   0  0  0  0  0  0  0  0  0  0  0  0
   56.3150   24.9690   45.8790 C   0  0  0  0  0  0  0  0  0  0  0  0
   56.0410   23.6540   45.4920 C   0  0  0  0  0  0  0  0  0  0  0  0
   57.6162   20.3997   43.7088 H   0  0  0  0  0  0  0  0  0  0  0  0
   56.3437   20.3981   42.4409 H   0  0  0  0  0  0  0  0  0  0  0  0
   57.6100   21.6722   42.4409 H   0  0  0  0  0  0  0  0  0  0  0  0
   57.4509   23.6930   42.3779 H   0  0  0  0  0  0  0  0  0  0  0  0
   57.9278   26.0405   43.0627 H   0  0  0  0  0  0  0  0  0  0  0  0
   57.2800   30.6350   43.2168 H   0  0  0  0  0  0  0  0  0  0  0  0
   56.1673   31.9756   43.7039 H   0  0  0  0  0  0  0  0  0  0  0  0
   58.9008   31.8133   44.9780 H   0  0  0  0  0  0  0  0  0  0  0  0
   58.7571   32.4335   43.2949 H   0  0  0  0  0  0  0  0  0  0  0  0
   56.5347   34.4141   46.2657 H   0  0  0  0  0  0  0  0  0  0  0  0
   56.3224   32.6394   45.9601 H   0  0  0  0  0  0  0  0  0  0  0  0
   57.8229   33.8422   48.0363 H   0  0  0  0  0  0  0  0  0  0  0  0
   57.8209   32.0970   47.5217 H   0  0  0  0  0  0  0  0  0  0  0  0
   59.2728   35.2821   46.8812 H   0  0  0  0  0  0  0  0  0  0  0  0
   60.6879   34.5654   46.0128 H   0  0  0  0  0  0  0  0  0  0  0  0
   58.4212   35.5907   44.7890 H   0  0  0  0  0  0  0  0  0  0  0  0
   59.5698   34.3832   44.0636 H   0  0  0  0  0  0  0  0  0  0  0  0
   58.8226   30.8662   47.2320 H   0  0  0  0  0  0  0  0  0  0  0  0
   60.7252   27.1552   48.5065 H   0  0  0  0  0  0  0  0  0  0  0  0
   59.2203   25.8461   46.9638 H   0  0  0  0  0  0  0  0  0  0  0  0
   55.9803   25.3313   46.8622 H   0  0  0  0  0  0  0  0  0  0  0  0
   55.5002   22.9852   46.1777 H   0  0  0  0  0  0  0  0  0  0  0  0
  1  2  1  0
  2  3  1  0
  3  4  2  0
  4  5  1  0
  5  6  2  0
  6  7  1  0
  7  8  1  0
  8  9  2  0
  9 10  1  0
 10 11  1  0
 11 12  1  0
 12 13  1  0
 13 14  1  0
 14 15  1  0
 15 16  1  0
 16 17  1  0
 17 18  1  0
  9 19  1  0
 19 20  2  0
 20 21  1  0
 21 22  1  0
 21 23  2  0
 23 24  1  0
 24 25  2  0
  6 26  1  0
 26 27  2  0
 27  3  1  0
 25  7  1  0
 18 13  1  0
 25 19  1  0
  1 28  1  0
  1 29  1  0
  1 30  1  0
  4 31  1  0
  5 32  1  0
 11 33  1  0
 11 34  1  0
 12 35  1  0
 12 36  1  0
 14 37  1  0
 14 38  1  0
 15 39  1  0
 15 40  1  0
 17 41  1  0
 17 42  1  0
 18 43  1  0
 18 44  1  0
 20 45  1  0
 23 46  1  0
 24 47  1  0
 26 48  1  0
 27 49  1  0
M  END
>  <UniqueID>  (36) 
36

>  <SMILES>  (36) 
COc1ccc(-n2nc(OCCN3CCOCC3)c3cc(Br)ccc32)cc1

>  <Energy>  (36) 
105.45716180367707

>  <Genealogy>  (36) 
COc1ccc(-n2nc(OCCN3CCOCC3)c3cc(Br)ccc32)cc1 (3D coordinates assigned)
COc1ccc(-n2nc(OCCN3CCOCC3)c3cc(Br)ccc32)cc1 (nonaromatic ring conformer: 105.45716180367707 kcal/mol)

>  <smiles>  (36) 
COc1ccc(-n2nc(OCCN3CCOCC3)c3cc(Br)ccc32)cc1

>  <score_type>  (36) 
oracle

>  <origin>  (36) 
adg

>  <m_score__min__energy>  (36) 
-7.9699999999999998

>  <m_primary>  (36) 
energy

$$$$
36:0
     RDKit          3D

 34 34  0  0  0  0  0  0  0  0999 V2000
   61.0850   30.4480   47.1420 C   0  0  0  0  0  0  0  0  0  0  0  0
   61.2760   31.4890   48.2510 C   0  0  0  0  0  0  0  0  0  0  0  0
   61.5170   32.8650   47.7410 N   0  0  0  0  0  0  0  0  0  0  0  0
   62.9790   33.1160   47.6550 C   0  0  0  0  0  0  0  0  0  0  0  0
   63.3880   33.8350   46.3630 C   0  0  0  0  0  0  0  0  0  0  0  0
   60.7860   33.9290   48.4910 C   0  0  0  0  0  0  0  0  0  0  0  0
   59.4430   34.3770   47.8720 C   0  0  0  0  0  0  0  0  0  0  0  0
   59.6540   34.9230   46.1400 S   0  0  0  0  0  0  0  0  0  0  0  0
   58.7950   33.5050   45.4570 C   0  0  0  0  0  0  0  0  0  0  0  0
   58.4550   32.4270   46.2840 C   0  0  0  0  0  0  0  0  0  0  0  0
   57.7850   31.3210   45.7520 C   0  0  0  0  0  0  0  0  0  0  0  0
   57.4510   31.2910   44.3940 C   0  0  0  0  0  0  0  0  0  0  0  0
   56.6120   29.9020   43.7270 Cl  0  0  0  0  0  0  0  0  0  0  0  0
   57.7870   32.3700   43.5670 C   0  0  0  0  0  0  0  0  0  0  0  0
   58.4580   33.4760   44.0990 C   0  0  0  0  0  0  0  0  0  0  0  0
   60.9039   29.4611   47.5928 H   0  0  0  0  0  0  0  0  0  0  0  0
   60.2236   30.7301   46.5187 H   0  0  0  0  0  0  0  0  0  0  0  0
   61.9904   30.4059   46.5187 H   0  0  0  0  0  0  0  0  0  0  0  0
   60.3699   31.5030   48.8746 H   0  0  0  0  0  0  0  0  0  0  0  0
   62.1706   31.1944   48.8193 H   0  0  0  0  0  0  0  0  0  0  0  0
   61.1460   32.8800   46.7610 H   0  0  0  0  0  0  0  0  0  0  0  0
   63.2792   33.7369   48.5119 H   0  0  0  0  0  0  0  0  0  0  0  0
   63.4820   32.1378   47.6609 H   0  0  0  0  0  0  0  0  0  0  0  0
   63.9176   34.7660   46.6134 H   0  0  0  0  0  0  0  0  0  0  0  0
   64.0505   33.1832   45.7746 H   0  0  0  0  0  0  0  0  0  0  0  0
   62.4892   34.0713   45.7746 H   0  0  0  0  0  0  0  0  0  0  0  0
   60.5828   33.5508   49.5038 H   0  0  0  0  0  0  0  0  0  0  0  0
   61.4380   34.8147   48.4705 H   0  0  0  0  0  0  0  0  0  0  0  0
   58.7382   33.5329   47.8975 H   0  0  0  0  0  0  0  0  0  0  0  0
   59.0586   35.2253   48.4574 H   0  0  0  0  0  0  0  0  0  0  0  0
   58.7152   32.4504   47.3525 H   0  0  0  0  0  0  0  0  0  0  0  0
   57.5204   30.4739   46.4019 H   0  0  0  0  0  0  0  0  0  0  0  0
   57.5233   32.3478   42.4993 H   0  0  0  0  0  0  0  0  0  0  0  0
   58.7211   34.3238   43.4494 H   0  0  0  0  0  0  0  0  0  0  0  0
  1  2  1  0
  2  3  1  0
  3  4  1  0
  4  5  1  0
  3  6  1  0
  6  7  1  0
  7  8  1  0
  8  9  1  0
  9 10  2  0
 10 11  1  0
 11 12  2  0
 12 13  1  0
 12 14  1  0
 14 15  2  0
 15  9  1  0
  1 16  1  0
  1 17  1  0
  1 18  1  0
  2 19  1  0
  2 20  1  0
  3 21  1  0
  4 22  1  0
  4 23  1  0
  5 24  1  0
  5 25  1  0
  5 26  1  0
  6 27  1  0
  6 28  1  0
  7 29  1  0
  7 30  1  0
 10 31  1  0
 11 32  1  0
 14 33  1  0
 15 34  1  0
M  CHG  1   3   1
M  END
>  <UniqueID>  (37) 
37

>  <SMILES>  (37) 
CC[NH+](CC)CCSc1ccc(Cl)cc1

>  <Energy>  (37) 
32.311778641775646

>  <Genealogy>  (37) 
CC[NH+](CC)CCSc1ccc(Cl)cc1 (protonated)
CC[NH+](CC)CCSc1ccc(Cl)cc1 (3D coordinates assigned)
CC[NH+](CC)CCSc1ccc(Cl)cc1 (optimized conformer: 32.311778641775646 kcal/mol)

>  <smiles>  (37) 
CCN(CC)CCSc1ccc(Cl)cc1

>  <score_type>  (37) 
oracle

>  <origin>  (37) 
adg

>  <m_score__min__energy>  (37) 
-4.21

>  <m_primary>  (37) 
energy

$$$$
37:0
     RDKit          3D

 40 41  0  0  0  0  0  0  0  0999 V2000
   63.6610   32.0490   47.4580 C   0  0  0  0  0  0  0  0  0  0  0  0
   62.7300   33.1680   47.2420 N   0  0  0  0  0  0  0  0  0  0  0  0
   63.3660   34.1800   46.3810 C   0  0  0  0  0  0  0  0  0  0  0  0
   62.3220   33.7520   48.5380 C   0  0  0  0  0  0  0  0  0  0  0  0
   60.8680   34.2570   48.5050 C   0  0  0  0  0  0  0  0  0  0  0  0
   59.8560   33.2080   48.0090 C   0  0  0  0  0  0  0  0  0  0  0  0
   60.3630   32.4520   46.8520 N   0  0  0  0  0  0  0  0  0  0  0  0
   59.2770   31.7520   46.1900 C   0  0  0  0  0  0  0  0  0  0  0  0
   58.3680   32.4770   45.3850 C   0  0  0  0  0  0  0  0  0  0  0  0
   58.4680   34.2280   45.2000 Cl  0  0  0  0  0  0  0  0  0  0  0  0
   57.3470   31.8210   44.7030 C   0  0  0  0  0  0  0  0  0  0  0  0
   57.1800   30.4380   44.8000 C   0  0  0  0  0  0  0  0  0  0  0  0
   56.1610   29.8060   44.0080 N   0  0  0  0  0  0  0  0  0  0  0  0
   55.1420   29.3400   44.5590 O   0  0  0  0  0  0  0  0  0  0  0  0
   56.1720   29.9460   42.6390 O   0  0  0  0  0  0  0  0  0  0  0  0
   58.0200   29.6930   45.6620 C   0  0  0  0  0  0  0  0  0  0  0  0
   57.8020   28.3160   45.8740 C   0  0  0  0  0  0  0  0  0  0  0  0
   58.6210   27.5870   46.7330 C   0  0  0  0  0  0  0  0  0  0  0  0
   59.6580   28.2180   47.4120 C   0  0  0  0  0  0  0  0  0  0  0  0
   59.8810   29.5840   47.2410 C   0  0  0  0  0  0  0  0  0  0  0  0
   59.0760   30.3500   46.3660 C   0  0  0  0  0  0  0  0  0  0  0  0
   63.7956   31.8872   48.5377 H   0  0  0  0  0  0  0  0  0  0  0  0
   63.2512   31.1372   46.9989 H   0  0  0  0  0  0  0  0  0  0  0  0
   64.6321   32.2861   46.9989 H   0  0  0  0  0  0  0  0  0  0  0  0
   63.8469   34.9451   47.0082 H   0  0  0  0  0  0  0  0  0  0  0  0
   64.1235   33.6974   45.7459 H   0  0  0  0  0  0  0  0  0  0  0  0
   62.6026   34.6532   45.7459 H   0  0  0  0  0  0  0  0  0  0  0  0
   62.4144   32.9836   49.3197 H   0  0  0  0  0  0  0  0  0  0  0  0
   62.9774   34.6102   48.7478 H   0  0  0  0  0  0  0  0  0  0  0  0
   60.5828   34.5593   49.5235 H   0  0  0  0  0  0  0  0  0  0  0  0
   60.8362   35.0943   47.7923 H   0  0  0  0  0  0  0  0  0  0  0  0
   59.6450   32.5041   48.8276 H   0  0  0  0  0  0  0  0  0  0  0  0
   58.9455   33.7387   47.6938 H   0  0  0  0  0  0  0  0  0  0  0  0
   61.1180   31.7880   47.1380 H   0  0  0  0  0  0  0  0  0  0  0  0
   60.8240   33.1060   46.1810 H   0  0  0  0  0  0  0  0  0  0  0  0
   56.6576   32.4041   44.0747 H   0  0  0  0  0  0  0  0  0  0  0  0
   56.9744   27.8111   45.3542 H   0  0  0  0  0  0  0  0  0  0  0  0
   58.4473   26.5101   46.8747 H   0  0  0  0  0  0  0  0  0  0  0  0
   60.3046   27.6374   48.0864 H   0  0  0  0  0  0  0  0  0  0  0  0
   60.6956   30.0732   47.7952 H   0  0  0  0  0  0  0  0  0  0  0  0
  1  2  1  0
  2  3  1  0
  2  4  1  0
  4  5  1  0
  5  6  1  0
  6  7  1  0
  7  8  1  0
  8  9  2  0
  9 10  1  0
  9 11  1  0
 11 12  2  0
 12 13  1  0
 13 14  2  0
 13 15  1  0
 12 16  1  0
 16 17  2  0
 17 18  1  0
 18 19  2  0
 19 20  1  0
 20 21  2  0
 21  8  1  0
 21 16  1  0
  1 22  1  0
  1 23  1  0
  1 24  1  0
  3 25  1  0
  3 26  1  0
  3 27  1  0
  4 28  1  0
  4 29  1  0
  5 30  1  0
  5 31  1  0
  6 32  1  0
  6 33  1  0
  7 34  1  0
  7 35  1  0
 11 36  1  0
 17 37  1  0
 18 38  1  0
 19 39  1  0
 20 40  1  0
M  CHG  3   7   1  13   1  15  -1
M  END
>  <UniqueID>  (38) 
38

>  <SMILES>  (38) 
CN(C)CCC[NH2+]c1c(Cl)cc([N+](=O)[O-])c2ccccc12

>  <Energy>  (38) 
52.954570458149476

>  <Genealogy>  (38) 
CN(C)CCC[NH2+]c1c(Cl)cc([N+](=O)[O-])c2ccccc12 (protonated)
CN(C)CCC[NH2+]c1c(Cl)cc([N+](=O)[O-])c2ccccc12 (3D coordinates assigned)
CN(C)CCC[NH2+]c1c(Cl)cc([N+](=O)[O-])c2ccccc12 (optimized conformer: 52.954570458149476 kcal/mol)

>  <smiles>  (38) 
CN(C)CCCNc1c(Cl)cc([N+](=O)[O-])c2ccccc12

>  <score_type>  (38) 
oracle

>  <origin>  (38) 
adg

>  <m_score__min__energy>  (38) 
-5.7800000000000002

>  <m_primary>  (38) 
energy

$$$$
38:0
     RDKit          3D

 34 36  0  0  0  0  0  0  0  0999 V2000
   59.5730   33.8500   50.1080 C   0  0  0  0  0  0  0  0  0  0  0  0
   60.8620   33.8110   49.4240 N   0  0  0  0  0  0  0  0  0  0  0  0
   62.0110   33.7100   50.0740 N   0  0  0  0  0  0  0  0  0  0  0  0
   63.0040   33.7010   49.1650 C   0  0  0  0  0  0  0  0  0  0  0  0
   62.4660   33.8020   47.9000 C   0  0  0  0  0  0  0  0  0  0  0  0
   63.3930   33.8270   46.4090 Cl  0  0  0  0  0  0  0  0  0  0  0  0
   61.0920   33.8690   48.0890 C   0  0  0  0  0  0  0  0  0  0  0  0
   60.0470   33.9900   47.0430 C   0  0  0  0  0  0  0  0  0  0  0  0
   59.1380   33.0250   46.7800 N   0  0  0  0  0  0  0  0  0  0  0  0
   58.2750   33.3750   45.7880 C   0  0  0  0  0  0  0  0  0  0  0  0
   57.1630   32.4600   45.3570 C   0  0  0  0  0  0  0  0  0  0  0  0
   57.6220   31.3420   44.5010 N   0  0  0  0  0  0  0  0  0  0  0  0
   56.7440   31.0420   43.3470 C   0  0  0  0  0  0  0  0  0  0  0  0
   55.9900   29.7130   43.5060 C   0  0  0  0  0  0  0  0  0  0  0  0
   55.7550   29.4430   44.8670 O   0  0  0  0  0  0  0  0  0  0  0  0
   56.9750   29.1170   45.5020 C   0  0  0  0  0  0  0  0  0  0  0  0
   58.0950   30.1520   45.2380 C   0  0  0  0  0  0  0  0  0  0  0  0
   58.4900   34.6340   45.2360 C   0  0  0  0  0  0  0  0  0  0  0  0
   59.8010   35.3160   46.0340 S   0  0  0  0  0  0  0  0  0  0  0  0
   59.7350   33.8451   51.1960 H   0  0  0  0  0  0  0  0  0  0  0  0
   59.0335   34.7649   49.8217 H   0  0  0  0  0  0  0  0  0  0  0  0
   58.9792   32.9694   49.8217 H   0  0  0  0  0  0  0  0  0  0  0  0
   64.0768   33.6249   49.3957 H   0  0  0  0  0  0  0  0  0  0  0  0
   56.6889   32.0393   46.2560 H   0  0  0  0  0  0  0  0  0  0  0  0
   56.4607   33.0601   44.7598 H   0  0  0  0  0  0  0  0  0  0  0  0
   56.0088   31.8537   43.2437 H   0  0  0  0  0  0  0  0  0  0  0  0
   57.3835   30.9569   42.4560 H   0  0  0  0  0  0  0  0  0  0  0  0
   55.0274   29.7768   42.9775 H   0  0  0  0  0  0  0  0  0  0  0  0
   56.6009   28.9027   43.0814 H   0  0  0  0  0  0  0  0  0  0  0  0
   56.8003   29.0598   46.5865 H   0  0  0  0  0  0  0  0  0  0  0  0
   57.3132   28.1561   45.0868 H   0  0  0  0  0  0  0  0  0  0  0  0
   58.5046   30.4790   46.2051 H   0  0  0  0  0  0  0  0  0  0  0  0
   58.8557   29.6603   44.6138 H   0  0  0  0  0  0  0  0  0  0  0  0
   57.9081   35.0975   44.4257 H   0  0  0  0  0  0  0  0  0  0  0  0
  1  2  1  0
  2  3  1  0
  3  4  2  0
  4  5  1  0
  5  6  1  0
  5  7  2  0
  7  8  1  0
  8  9  2  0
  9 10  1  0
 10 11  1  0
 11 12  1  0
 12 13  1  0
 13 14  1  0
 14 15  1  0
 15 16  1  0
 16 17  1  0
 10 18  2  0
 18 19  1  0
  7  2  1  0
 19  8  1  0
 17 12  1  0
  1 20  1  0
  1 21  1  0
  1 22  1  0
  4 23  1  0
 11 24  1  0
 11 25  1  0
 13 26  1  0
 13 27  1  0
 14 28  1  0
 14 29  1  0
 16 30  1  0
 16 31  1  0
 17 32  1  0
 17 33  1  0
 18 34  1  0
M  END
>  <UniqueID>  (39) 
39

>  <SMILES>  (39) 
Cn1ncc(Cl)c1-c1nc(CN2CCOCC2)cs1

>  <Energy>  (39) 
109.64042620992825

>  <Genealogy>  (39) 
Cn1ncc(Cl)c1-c1nc(CN2CCOCC2)cs1 (3D coordinates assigned)
Cn1ncc(Cl)c1-c1nc(CN2CCOCC2)cs1 (nonaromatic ring conformer: 109.64042620992825 kcal/mol)

>  <smiles>  (39) 
Cn1ncc(Cl)c1-c1nc(CN2CCOCC2)cs1

>  <score_type>  (39) 
oracle

>  <origin>  (39) 
adg

>  <m_score__min__energy>  (39) 
-7.2699999999999996

>  <m_primary>  (39) 
energy

$$$$
39:0
     RDKit          3D

 43 45  0  0  0  0  0  0  0  0999 V2000
   59.8380   35.1510   46.4210 C   0  0  0  0  0  0  0  0  0  0  0  0
   60.1100   33.6800   46.5030 C   0  0  0  0  0  0  0  0  0  0  0  0
   61.2460   33.2700   47.1440 N   0  0  0  0  0  0  0  0  0  0  0  0
   61.5970   31.9540   47.2800 C   0  0  0  0  0  0  0  0  0  0  0  0
   62.8860   31.5980   47.9710 C   0  0  0  0  0  0  0  0  0  0  0  0
   63.8280   32.7300   47.9920 N   0  0  0  0  0  0  0  0  0  0  0  0
   64.3190   33.0130   49.3530 C   0  0  0  0  0  0  0  0  0  0  0  0
   63.3550   33.9520   50.1080 C   0  0  2  0  0  0  0  0  0  0  0  0
   62.5290   33.1800   51.1430 C   0  0  0  0  0  0  0  0  0  0  0  0
   62.5050   34.6300   49.2150 O   0  0  0  0  0  0  0  0  0  0  0  0
   60.7780   30.9500   46.7380 C   0  0  0  0  0  0  0  0  0  0  0  0
   59.6180   31.3580   46.0880 C   0  0  0  0  0  0  0  0  0  0  0  0
   58.6450   30.6230   45.4570 C   0  0  0  0  0  0  0  0  0  0  0  0
   58.5100   29.2480   45.2700 C   0  0  0  0  0  0  0  0  0  0  0  0
   57.3910   28.7920   44.5560 C   0  0  0  0  0  0  0  0  0  0  0  0
   56.4460   29.7060   44.0470 C   0  0  0  0  0  0  0  0  0  0  0  0
   56.6060   31.0900   44.2480 C   0  0  0  0  0  0  0  0  0  0  0  0
   57.7270   31.5300   44.9680 C   0  0  0  0  0  0  0  0  0  0  0  0
   58.0860   32.8060   45.2770 N   0  0  0  0  0  0  0  0  0  0  0  0
   57.3710   34.0310   44.9110 C   0  0  0  0  0  0  0  0  0  0  0  0
   59.2630   32.6870   45.9620 C   0  0  0  0  0  0  0  0  0  0  0  0
   59.7611   35.5668   47.4365 H   0  0  0  0  0  0  0  0  0  0  0  0
   60.6598   35.6464   45.8832 H   0  0  0  0  0  0  0  0  0  0  0  0
   58.8934   35.3198   45.8832 H   0  0  0  0  0  0  0  0  0  0  0  0
   62.6642   31.3006   49.0065 H   0  0  0  0  0  0  0  0  0  0  0  0
   63.3554   30.7738   47.4139 H   0  0  0  0  0  0  0  0  0  0  0  0
   63.3650   33.5800   47.5920 H   0  0  0  0  0  0  0  0  0  0  0  0
   64.6420   32.4820   47.3820 H   0  0  0  0  0  0  0  0  0  0  0  0
   64.4064   32.0669   49.9073 H   0  0  0  0  0  0  0  0  0  0  0  0
   65.2984   33.5076   49.2750 H   0  0  0  0  0  0  0  0  0  0  0  0
   63.9672   34.6965   50.6380 H   0  0  0  0  0  0  0  0  0  0  0  0
   62.8430   33.4735   52.1555 H   0  0  0  0  0  0  0  0  0  0  0  0
   61.4623   33.4124   51.0081 H   0  0  0  0  0  0  0  0  0  0  0  0
   62.6889   32.1001   51.0081 H   0  0  0  0  0  0  0  0  0  0  0  0
   61.6920   34.0720   49.0930 H   0  0  0  0  0  0  0  0  0  0  0  0
   61.0428   29.8858   46.8239 H   0  0  0  0  0  0  0  0  0  0  0  0
   59.2555   28.5442   45.6687 H   0  0  0  0  0  0  0  0  0  0  0  0
   57.2503   27.7134   44.3923 H   0  0  0  0  0  0  0  0  0  0  0  0
   55.5751   29.3340   43.4873 H   0  0  0  0  0  0  0  0  0  0  0  0
   55.8721   31.8071   43.8514 H   0  0  0  0  0  0  0  0  0  0  0  0
   57.0614   34.5614   45.8236 H   0  0  0  0  0  0  0  0  0  0  0  0
   58.0330   34.6785   44.3173 H   0  0  0  0  0  0  0  0  0  0  0  0
   56.4817   33.7730   44.3173 H   0  0  0  0  0  0  0  0  0  0  0  0
  1  2  1  0
  2  3  2  0
  3  4  1  0
  4  5  1  0
  5  6  1  0
  6  7  1  0
  7  8  1  0
  8  9  1  0
  8 10  1  0
  4 11  2  0
 11 12  1  0
 12 13  1  0
 13 14  2  0
 14 15  1  0
 15 16  2  0
 16 17  1  0
 17 18  2  0
 18 19  1  0
 19 20  1  0
 19 21  1  0
 21  2  1  0
 21 12  2  0
 18 13  1  0
  1 22  1  0
  1 23  1  0
  1 24  1  0
  5 25  1  0
  5 26  1  0
  6 27  1  0
  6 28  1  0
  7 29  1  0
  7 30  1  0
  8 31  1  1
  9 32  1  0
  9 33  1  0
  9 34  1  0
 10 35  1  0
 11 36  1  0
 14 37  1  0
 15 38  1  0
 16 39  1  0
 17 40  1  0
 20 41  1  0
 20 42  1  0
 20 43  1  0
M  CHG  1   6   1
M  END
>  <UniqueID>  (40) 
40

>  <SMILES>  (40) 
Cc1nc(C[NH2+]C[C@H](C)O)cc2c3ccccc3n(C)c12

>  <Energy>  (40) 
85.77136146119423

>  <Genealogy>  (40) 
Cc1nc(C[NH2+]CC(C)O)cc2c3ccccc3n(C)c12 (protonated)
Cc1nc(C[NH2+]C[C@H](C)O)cc2c3ccccc3n(C)c12 (chirality)
Cc1nc(C[NH2+]C[C@H](C)O)cc2c3ccccc3n(C)c12 (3D coordinates assigned)
Cc1nc(C[NH2+]C[C@H](C)O)cc2c3ccccc3n(C)c12 (optimized conformer: 85.77136146119423 kcal/mol)

>  <smiles>  (40) 
Cc1nc(CNCC(C)O)cc2c3ccccc3n(C)c12

>  <score_type>  (40) 
oracle

>  <origin>  (40) 
adg

>  <m_score__min__energy>  (40) 
-6.1299999999999999

>  <m_primary>  (40) 
energy

$$$$
40:0
     RDKit          3D

 41 43  0  0  0  0  0  0  0  0999 V2000
   63.3990   33.8330   46.3930 C   0  0  0  0  0  0  0  0  0  0  0  0
   63.0300   32.9110   47.5440 C   0  0  0  0  0  0  0  0  0  0  0  0
   62.1070   31.9300   47.0880 O   0  0  0  0  0  0  0  0  0  0  0  0
   61.1370   31.3780   47.9300 C   0  0  0  0  0  0  0  0  0  0  0  0
   61.5140   30.4410   48.8430 N   0  0  0  0  0  0  0  0  0  0  0  0
   60.6160   29.9070   49.7150 C   0  0  0  0  0  0  0  0  0  0  0  0
   61.0380   28.8590   50.6960 C   0  0  0  0  0  0  0  0  0  0  0  0
   59.3120   30.2810   49.6570 N   0  0  0  0  0  0  0  0  0  0  0  0
   58.8840   31.1960   48.7520 C   0  0  0  0  0  0  0  0  0  0  0  0
   59.7850   31.7650   47.8440 C   0  0  0  0  0  0  0  0  0  0  0  0
   59.2950   32.7110   46.8130 C   0  0  0  0  0  0  0  0  0  0  0  0
   59.8240   34.0110   46.7620 C   0  0  0  0  0  0  0  0  0  0  0  0
   59.3830   34.9170   45.7960 C   0  0  0  0  0  0  0  0  0  0  0  0
   58.4000   34.5400   44.8820 C   0  0  0  0  0  0  0  0  0  0  0  0
   57.8530   33.2560   44.9290 C   0  0  0  0  0  0  0  0  0  0  0  0
   58.3010   32.3270   45.8870 C   0  0  0  0  0  0  0  0  0  0  0  0
   57.7440   31.0410   45.9750 O   0  0  0  0  0  0  0  0  0  0  0  0
   57.2740   30.2810   44.8950 C   0  0  0  0  0  0  0  0  0  0  0  0
   56.0840   30.3860   44.4920 O   0  0  0  0  0  0  0  0  0  0  0  0
   58.2060   29.3630   44.1710 C   0  0  0  0  0  0  0  0  0  0  0  0
   59.5710   29.2450   44.8310 C   0  0  0  0  0  0  0  0  0  0  0  0
   58.5890   28.0890   44.9120 C   0  0  0  0  0  0  0  0  0  0  0  0
   63.7798   34.7844   46.7929 H   0  0  0  0  0  0  0  0  0  0  0  0
   64.1760   33.3572   45.7766 H   0  0  0  0  0  0  0  0  0  0  0  0
   62.5083   34.0246   45.7766 H   0  0  0  0  0  0  0  0  0  0  0  0
   63.9362   32.4146   47.9212 H   0  0  0  0  0  0  0  0  0  0  0  0
   62.5708   33.4991   48.3523 H   0  0  0  0  0  0  0  0  0  0  0  0
   62.5160   30.1440   48.8780 H   0  0  0  0  0  0  0  0  0  0  0  0
   60.8874   29.2329   51.7195 H   0  0  0  0  0  0  0  0  0  0  0  0
   60.4353   27.9513   50.5449 H   0  0  0  0  0  0  0  0  0  0  0  0
   62.1015   28.6223   50.5449 H   0  0  0  0  0  0  0  0  0  0  0  0
   57.8248   31.4922   48.7313 H   0  0  0  0  0  0  0  0  0  0  0  0
   60.5912   34.3174   47.4883 H   0  0  0  0  0  0  0  0  0  0  0  0
   59.8114   35.9293   45.7559 H   0  0  0  0  0  0  0  0  0  0  0  0
   58.0544   35.2559   44.1218 H   0  0  0  0  0  0  0  0  0  0  0  0
   57.0681   32.9691   44.2138 H   0  0  0  0  0  0  0  0  0  0  0  0
   57.8280   29.5789   43.1608 H   0  0  0  0  0  0  0  0  0  0  0  0
   60.4753   29.1556   44.2112 H   0  0  0  0  0  0  0  0  0  0  0  0
   60.1329   29.8402   45.5658 H   0  0  0  0  0  0  0  0  0  0  0  0
   58.7820   27.1630   44.3505 H   0  0  0  0  0  0  0  0  0  0  0  0
   58.1453   27.5011   45.7290 H   0  0  0  0  0  0  0  0  0  0  0  0
  1  2  1  0
  2  3  1  0
  3  4  1  0
  4  5  2  0
  5  6  1  0
  6  7  1  0
  6  8  2  0
  8  9  1  0
  9 10  2  0
 10 11  1  0
 11 12  2  0
 12 13  1  0
 13 14  2  0
 14 15  1  0
 15 16  2  0
 16 17  1  0
 17 18  1  0
 18 19  2  0
 18 20  1  0
 20 21  1  0
 21 22  1  0
 10  4  1  0
 16 11  1  0
 22 20  1  0
  1 23  1  0
  1 24  1  0
  1 25  1  0
  2 26  1  0
  2 27  1  0
  5 28  1  0
  7 29  1  0
  7 30  1  0
  7 31  1  0
  9 32  1  0
 12 33  1  0
 13 34  1  0
 14 35  1  0
 15 36  1  0
 20 37  1  0
 21 38  1  0
 21 39  1  0
 22 40  1  0
 22 41  1  0
M  CHG  1   5   1
M  END
>  <UniqueID>  (41) 
41

>  <SMILES>  (41) 
CCOc1[nH+]c(C)ncc1-c1ccccc1OC(=O)C1CC1

>  <Energy>  (41) 
315.70582762875455

>  <Genealogy>  (41) 
CCOc1[nH+]c(C)ncc1-c1ccccc1OC(=O)C1CC1 (protonated)
CCOc1[nH+]c(C)ncc1-c1ccccc1OC(=O)C1CC1 (3D coordinates assigned)
CCOc1[nH+]c(C)ncc1-c1ccccc1OC(=O)C1CC1 (nonaromatic ring conformer: 315.70582762875455 kcal/mol)

>  <smiles>  (41) 
CCOc1nc(C)ncc1-c1ccccc1OC(=O)C1CC1

>  <score_type>  (41) 
oracle

>  <origin>  (41) 
adg

>  <m_score__min__energy>  (41) 
-5.5300000000000002

>  <m_primary>  (41) 
energy

$$$$
41:0
     RDKit          3D

 65 68  0  0  0  0  0  0  0  0999 V2000
   56.7810   20.7690   43.0490 C   0  0  0  0  0  0  0  0  0  0  0  0
   55.9110   21.7140   43.6670 O   0  0  0  0  0  0  0  0  0  0  0  0
   56.3250   22.9530   44.1790 C   0  0  0  0  0  0  0  0  0  0  0  0
   56.1100   23.3280   45.5190 C   0  0  0  0  0  0  0  0  0  0  0  0
   56.5360   24.5780   45.9800 C   0  0  0  0  0  0  0  0  0  0  0  0
   57.1820   25.4770   45.1130 C   0  0  0  0  0  0  0  0  0  0  0  0
   57.6180   26.8110   45.5990 C   0  0  0  0  0  0  0  0  0  0  0  0
   58.5340   26.9240   46.6610 C   0  0  0  0  0  0  0  0  0  0  0  0
   58.9190   28.1800   47.1320 C   0  0  0  0  0  0  0  0  0  0  0  0
   58.3940   29.3380   46.5580 C   0  0  0  0  0  0  0  0  0  0  0  0
   57.4830   29.2470   45.4900 C   0  0  0  0  0  0  0  0  0  0  0  0
   56.9230   30.3770   44.8820 O   0  0  0  0  0  0  0  0  0  0  0  0
   57.6520   31.3090   44.0840 C   0  0  0  0  0  0  0  0  0  0  0  0
   57.5820   32.7120   44.7060 C   0  0  1  0  0  0  0  0  0  0  0  0
   56.3520   32.8830   45.3670 O   0  0  0  0  0  0  0  0  0  0  0  0
   58.7530   33.0290   45.6750 C   0  0  0  0  0  0  0  0  0  0  0  0
   58.3050   33.4830   47.0270 N   0  0  0  0  0  0  0  0  0  0  0  0
   58.5000   32.4440   48.0580 C   0  0  0  0  0  0  0  0  0  0  0  0
   59.9800   32.1200   48.2890 C   0  0  0  0  0  0  0  0  0  0  0  0
   60.8040   33.3300   48.3990 N   0  0  0  0  0  0  0  0  0  0  0  0
   62.1090   33.1980   48.9830 C   0  0  0  0  0  0  0  0  0  0  0  0
   62.2120   33.0090   50.3680 C   0  0  0  0  0  0  0  0  0  0  0  0
   63.4630   32.8460   50.9690 C   0  0  0  0  0  0  0  0  0  0  0  0
   64.6220   32.8670   50.1880 C   0  0  0  0  0  0  0  0  0  0  0  0
   64.5350   33.0610   48.8080 C   0  0  0  0  0  0  0  0  0  0  0  0
   63.2820   33.2130   48.1870 C   0  0  0  0  0  0  0  0  0  0  0  0
   63.2360   33.4560   46.7030 C   0  0  0  0  0  0  0  0  0  0  0  0
   60.4580   34.5940   47.7340 C   0  0  0  0  0  0  0  0  0  0  0  0
   58.9490   34.7380   47.4790 C   0  0  0  0  0  0  0  0  0  0  0  0
   57.1070   27.9860   45.0150 C   0  0  0  0  0  0  0  0  0  0  0  0
   57.3960   25.0960   43.7760 C   0  0  0  0  0  0  0  0  0  0  0  0
   56.9720   23.8460   43.3170 C   0  0  0  0  0  0  0  0  0  0  0  0
   57.3093   20.1951   43.8246 H   0  0  0  0  0  0  0  0  0  0  0  0
   56.1918   20.0830   42.4228 H   0  0  0  0  0  0  0  0  0  0  0  0
   57.5133   21.2996   42.4228 H   0  0  0  0  0  0  0  0  0  0  0  0
   55.6044   22.6344   46.2069 H   0  0  0  0  0  0  0  0  0  0  0  0
   56.3643   24.8600   47.0293 H   0  0  0  0  0  0  0  0  0  0  0  0
   58.9494   26.0163   47.1231 H   0  0  0  0  0  0  0  0  0  0  0  0
   59.6396   28.2572   47.9595 H   0  0  0  0  0  0  0  0  0  0  0  0
   58.6931   30.3247   46.9415 H   0  0  0  0  0  0  0  0  0  0  0  0
   58.7032   30.9908   44.0235 H   0  0  0  0  0  0  0  0  0  0  0  0
   57.2098   31.3412   43.0773 H   0  0  0  0  0  0  0  0  0  0  0  0
   57.6723   33.4233   43.8718 H   0  0  0  0  0  0  0  0  0  0  0  0
   56.0190   31.9820   45.6210 H   0  0  0  0  0  0  0  0  0  0  0  0
   59.3594   32.1194   45.7969 H   0  0  0  0  0  0  0  0  0  0  0  0
   59.3248   33.8566   45.2300 H   0  0  0  0  0  0  0  0  0  0  0  0
   57.2720   33.6650   46.9980 H   0  0  0  0  0  0  0  0  0  0  0  0
   58.0643   32.7987   49.0037 H   0  0  0  0  0  0  0  0  0  0  0  0
   58.0068   31.5259   47.7061 H   0  0  0  0  0  0  0  0  0  0  0  0
   60.0745   31.5417   49.2199 H   0  0  0  0  0  0  0  0  0  0  0  0
   60.3385   31.5461   47.4218 H   0  0  0  0  0  0  0  0  0  0  0  0
   61.3022   32.9888   50.9859 H   0  0  0  0  0  0  0  0  0  0  0  0
   63.5357   32.7011   52.0570 H   0  0  0  0  0  0  0  0  0  0  0  0
   65.6053   32.7303   50.6618 H   0  0  0  0  0  0  0  0  0  0  0  0
   65.4526   33.0952   48.2023 H   0  0  0  0  0  0  0  0  0  0  0  0
   63.0345   34.5204   46.5118 H   0  0  0  0  0  0  0  0  0  0  0  0
   64.2024   33.1797   46.2561 H   0  0  0  0  0  0  0  0  0  0  0  0
   62.4375   32.8456   46.2561 H   0  0  0  0  0  0  0  0  0  0  0  0
   60.7883   35.4281   48.3705 H   0  0  0  0  0  0  0  0  0  0  0  0
   60.9620   34.6032   46.7563 H   0  0  0  0  0  0  0  0  0  0  0  0
   58.4668   35.0600   48.4138 H   0  0  0  0  0  0  0  0  0  0  0  0
   58.8256   35.4747   46.6715 H   0  0  0  0  0  0  0  0  0  0  0  0
   56.4024   27.9113   44.1736 H   0  0  0  0  0  0  0  0  0  0  0  0
   57.9013   25.7877   43.0860 H   0  0  0  0  0  0  0  0  0  0  0  0
   57.1483   23.5614   42.2692 H   0  0  0  0  0  0  0  0  0  0  0  0
  1  2  1  0
  2  3  1  0
  3  4  2  0
  4  5  1  0
  5  6  2  0
  6  7  1  0
  7  8  2  0
  8  9  1  0
  9 10  2  0
 10 11  1  0
 11 12  1  0
 12 13  1  0
 13 14  1  0
 14 15  1  0
 14 16  1  0
 16 17  1  0
 17 18  1  0
 18 19  1  0
 19 20  1  0
 20 21  1  0
 21 22  2  0
 22 23  1  0
 23 24  2  0
 24 25  1  0
 25 26  2  0
 26 27  1  0
 20 28  1  0
 28 29  1  0
 11 30  2  0
  6 31  1  0
 31 32  2  0
 32  3  1  0
 30  7  1  0
 29 17  1  0
 26 21  1  0
  1 33  1  0
  1 34  1  0
  1 35  1  0
  4 36  1  0
  5 37  1  0
  8 38  1  0
  9 39  1  0
 10 40  1  0
 13 41  1  0
 13 42  1  0
 14 43  1  6
 15 44  1  0
 16 45  1  0
 16 46  1  0
 17 47  1  0
 18 48  1  0
 18 49  1  0
 19 50  1  0
 19 51  1  0
 22 52  1  0
 23 53  1  0
 24 54  1  0
 25 55  1  0
 27 56  1  0
 27 57  1  0
 27 58  1  0
 28 59  1  0
 28 60  1  0
 29 61  1  0
 29 62  1  0
 30 63  1  0
 31 64  1  0
 32 65  1  0
M  CHG  1  17   1
M  END
>  <UniqueID>  (42) 
42

>  <SMILES>  (42) 
COc1ccc(-c2cccc(OC[C@@H](O)C[NH+]3CCN(c4ccccc4C)CC3)c2)cc1

>  <Energy>  (42) 
83.87962921152109

>  <Genealogy>  (42) 
COc1ccc(-c2cccc(OCC(O)C[NH+]3CCN(c4ccccc4C)CC3)c2)cc1 (protonated)
COc1ccc(-c2cccc(OC[C@@H](O)C[NH+]3CCN(c4ccccc4C)CC3)c2)cc1 (chirality)
COc1ccc(-c2cccc(OC[C@@H](O)C[NH+]3CCN(c4ccccc4C)CC3)c2)cc1 (3D coordinates assigned)
COc1ccc(-c2cccc(OC[C@@H](O)C[NH+]3CCN(c4ccccc4C)CC3)c2)cc1 (nonaromatic ring conformer: 83.87962921152109 kcal/mol)

>  <smiles>  (42) 
COc1ccc(-c2cccc(OCC(O)CN3CCN(c4ccccc4C)CC3)c2)cc1

>  <score_type>  (42) 
oracle

>  <origin>  (42) 
adg

>  <m_score__min__energy>  (42) 
-7.5099999999999998

>  <m_primary>  (42) 
energy

$$$$
42:0
     RDKit          3D

 51 52  0  0  0  0  0  0  0  0999 V2000
   60.6240   29.9990   47.2240 C   0  0  0  0  0  0  0  0  0  0  0  0
   59.3480   29.7260   48.0160 C   0  0  0  0  0  0  0  0  0  0  0  0
   58.8520   28.2570   47.9540 C   0  0  0  0  0  0  0  0  0  0  0  0
   58.8590   27.6030   46.6110 N   0  0  1  0  0  0  0  0  0  0  0  0
   59.6010   26.2970   46.6200 C   0  0  0  0  0  0  0  0  0  0  0  0
   58.8950   25.1310   45.9060 C   0  0  0  0  0  0  0  0  0  0  0  0
   57.4790   25.1180   46.2180 N   0  0  0  0  0  0  0  0  0  0  0  0
   56.7630   26.3430   46.1950 C   0  0  0  0  0  0  0  0  0  0  0  0
   55.5170   26.3480   46.3750 O   0  0  0  0  0  0  0  0  0  0  0  0
   57.5130   27.6260   45.9470 C   0  0  2  0  0  0  0  0  0  0  0  0
   57.6250   27.9100   44.4250 C   0  0  0  0  0  0  0  0  0  0  0  0
   58.0710   29.3250   44.1470 C   0  0  0  0  0  0  0  0  0  0  0  0
   59.2870   29.6100   44.3270 O   0  0  0  0  0  0  0  0  0  0  0  0
   57.1680   30.3300   43.6290 N   0  0  0  0  0  0  0  0  0  0  0  0
   55.7270   30.0690   43.5340 C   0  0  0  0  0  0  0  0  0  0  0  0
   57.6890   31.6510   43.2480 C   0  0  0  0  0  0  0  0  0  0  0  0
   58.1420   32.4090   44.4670 C   0  0  0  0  0  0  0  0  0  0  0  0
   57.8320   31.9300   45.7500 C   0  0  0  0  0  0  0  0  0  0  0  0
   58.2680   32.6190   46.8850 C   0  0  0  0  0  0  0  0  0  0  0  0
   59.0180   33.7930   46.7490 C   0  0  0  0  0  0  0  0  0  0  0  0
   59.5820   34.6730   48.2070 S   0  0  0  0  0  0  0  0  0  0  0  0
   61.1980   33.8380   48.2340 C   0  0  0  0  0  0  0  0  0  0  0  0
   59.3360   34.2720   45.4740 C   0  0  0  0  0  0  0  0  0  0  0  0
   58.9000   33.5840   44.3370 C   0  0  0  0  0  0  0  0  0  0  0  0
   61.4567   30.1772   47.9203 H   0  0  0  0  0  0  0  0  0  0  0  0
   60.8553   29.1300   46.5905 H   0  0  0  0  0  0  0  0  0  0  0  0
   60.4795   30.8866   46.5905 H   0  0  0  0  0  0  0  0  0  0  0  0
   59.5368   29.9804   49.0694 H   0  0  0  0  0  0  0  0  0  0  0  0
   58.5592   30.3413   47.5587 H   0  0  0  0  0  0  0  0  0  0  0  0
   59.4937   27.6601   48.6188 H   0  0  0  0  0  0  0  0  0  0  0  0
   57.7936   28.2963   48.2510 H   0  0  0  0  0  0  0  0  0  0  0  0
   59.4700   28.2450   46.0510 H   0  0  0  0  0  0  0  0  0  0  0  0
   60.5732   26.4558   46.1304 H   0  0  0  0  0  0  0  0  0  0  0  0
   59.6807   26.0013   47.6765 H   0  0  0  0  0  0  0  0  0  0  0  0
   59.0239   25.2425   44.8193 H   0  0  0  0  0  0  0  0  0  0  0  0
   59.3405   24.1856   46.2493 H   0  0  0  0  0  0  0  0  0  0  0  0
   56.9439   28.4522   46.3982 H   0  0  0  0  0  0  0  0  0  0  0  0
   58.3556   27.2144   43.9864 H   0  0  0  0  0  0  0  0  0  0  0  0
   56.6289   27.7730   43.9788 H   0  0  0  0  0  0  0  0  0  0  0  0
   55.3009   29.9918   44.5452 H   0  0  0  0  0  0  0  0  0  0  0  0
   55.2399   30.8935   42.9928 H   0  0  0  0  0  0  0  0  0  0  0  0
   55.5601   29.1260   42.9928 H   0  0  0  0  0  0  0  0  0  0  0  0
   58.5412   31.5210   42.5648 H   0  0  0  0  0  0  0  0  0  0  0  0
   56.8892   32.2199   42.7514 H   0  0  0  0  0  0  0  0  0  0  0  0
   57.2430   31.0078   45.8623 H   0  0  0  0  0  0  0  0  0  0  0  0
   58.0214   32.2380   47.8870 H   0  0  0  0  0  0  0  0  0  0  0  0
   61.5100   33.6768   49.2764 H   0  0  0  0  0  0  0  0  0  0  0  0
   61.1183   32.8682   47.7210 H   0  0  0  0  0  0  0  0  0  0  0  0
   61.9428   34.4641   47.7210 H   0  0  0  0  0  0  0  0  0  0  0  0
   59.9300   35.1914   45.3653 H   0  0  0  0  0  0  0  0  0  0  0  0
   59.1520   33.9650   43.3363 H   0  0  0  0  0  0  0  0  0  0  0  0
  1  2  1  0
  2  3  1  0
  3  4  1  0
  4  5  1  0
  5  6  1  0
  6  7  1  0
  7  8  1  0
  8  9  2  0
  8 10  1  0
 10 11  1  0
 11 12  1  0
 12 13  2  0
 12 14  1  0
 14 15  1  0
 14 16  1  0
 16 17  1  0
 17 18  2  0
 18 19  1  0
 19 20  2  0
 20 21  1  0
 21 22  1  0
 20 23  1  0
 23 24  2  0
 10  4  1  0
 24 17  1  0
  1 25  1  0
  1 26  1  0
  1 27  1  0
  2 28  1  0
  2 29  1  0
  3 30  1  0
  3 31  1  0
  4 32  1  6
  5 33  1  0
  5 34  1  0
  6 35  1  0
  6 36  1  0
 10 37  1  1
 11 38  1  0
 11 39  1  0
 15 40  1  0
 15 41  1  0
 15 42  1  0
 16 43  1  0
 16 44  1  0
 18 45  1  0
 19 46  1  0
 22 47  1  0
 22 48  1  0
 22 49  1  0
 23 50  1  0
 24 51  1  0
M  CHG  2   4   1   7  -1
M  END
>  <UniqueID>  (43) 
43

>  <SMILES>  (43) 
CCC[N@H+]1CC[N-]C(=O)[C@@H]1CC(=O)N(C)Cc1ccc(SC)cc1

>  <Energy>  (43) 
57.100802469939424

>  <Genealogy>  (43) 
CCC[NH+]1CC[N-]C(=O)C1CC(=O)N(C)Cc1ccc(SC)cc1 (protonated)
CCC[N@H+]1CC[N-]C(=O)[C@@H]1CC(=O)N(C)Cc1ccc(SC)cc1 (chirality)
CCC[N@H+]1CC[N-]C(=O)[C@@H]1CC(=O)N(C)Cc1ccc(SC)cc1 (3D coordinates assigned)
CCC[N@H+]1CC[N-]C(=O)[C@@H]1CC(=O)N(C)Cc1ccc(SC)cc1 (nonaromatic ring conformer: 57.100802469939424 kcal/mol)

>  <smiles>  (43) 
CCCN1CCNC(=O)C1CC(=O)N(C)Cc1ccc(SC)cc1

>  <score_type>  (43) 
oracle

>  <origin>  (43) 
adg

>  <m_score__min__energy>  (43) 
-7.3600000000000003

>  <m_primary>  (43) 
energy

$$$$
43:0
     RDKit          3D

 46 47  0  0  0  0  0  0  0  0999 V2000
   54.7430   30.5030   52.0190 C   0  0  0  0  0  0  0  0  0  0  0  0
   56.1420   31.0870   52.1410 C   0  0  0  0  0  0  0  0  0  0  0  0
   57.0460   30.2770   51.4180 O   0  0  0  0  0  0  0  0  0  0  0  0
   58.0340   29.7370   52.2770 C   0  0  0  0  0  0  0  0  0  0  0  0
   59.2070   30.7320   52.4130 C   0  0  0  0  0  0  0  0  0  0  0  0
   59.2230   31.8360   51.4220 N   0  0  2  0  0  0  0  0  0  0  0  0
   60.3020   31.7050   50.4190 C   0  0  0  0  0  0  0  0  0  0  0  0
   60.1740   32.7490   49.4010 N   0  0  0  0  0  0  0  0  0  0  0  0
   59.7050   33.9280   49.6800 C   0  0  0  0  0  0  0  0  0  0  0  0
   59.6190   34.9320   48.6620 N   0  0  0  0  0  0  0  0  0  0  0  0
   60.1180   34.6330   47.0290 S   0  0  0  0  0  0  0  0  0  0  0  0
   61.5570   34.2000   47.0240 O   0  0  0  0  0  0  0  0  0  0  0  0
   59.9900   35.8970   46.2260 O   0  0  0  0  0  0  0  0  0  0  0  0
   59.0870   33.3950   46.3180 C   0  0  0  0  0  0  0  0  0  0  0  0
   57.8580   33.7580   45.7560 C   0  0  0  0  0  0  0  0  0  0  0  0
   57.0200   32.7830   45.2070 C   0  0  0  0  0  0  0  0  0  0  0  0
   57.3980   31.4350   45.2130 C   0  0  0  0  0  0  0  0  0  0  0  0
   56.5230   30.4950   44.6490 O   0  0  0  0  0  0  0  0  0  0  0  0
   56.7030   29.8950   43.3700 C   0  0  0  0  0  0  0  0  0  0  0  0
   58.6330   31.0710   45.7830 C   0  0  0  0  0  0  0  0  0  0  0  0
   59.4710   32.0480   46.3310 C   0  0  0  0  0  0  0  0  0  0  0  0
   59.2110   34.2050   50.9980 N   0  0  0  0  0  0  0  0  0  0  0  0
   59.2710   33.1780   52.0380 C   0  0  0  0  0  0  0  0  0  0  0  0
   54.3290   30.3302   53.0233 H   0  0  0  0  0  0  0  0  0  0  0  0
   54.0981   31.2071   51.4727 H   0  0  0  0  0  0  0  0  0  0  0  0
   54.7901   29.5494   51.4727 H   0  0  0  0  0  0  0  0  0  0  0  0
   56.1522   32.1074   51.7303 H   0  0  0  0  0  0  0  0  0  0  0  0
   56.4389   31.1195   53.1997 H   0  0  0  0  0  0  0  0  0  0  0  0
   57.5948   29.5521   53.2684 H   0  0  0  0  0  0  0  0  0  0  0  0
   58.4058   28.7917   51.8550 H   0  0  0  0  0  0  0  0  0  0  0  0
   59.1589   31.1781   53.4173 H   0  0  0  0  0  0  0  0  0  0  0  0
   60.1218   30.1487   52.2318 H   0  0  0  0  0  0  0  0  0  0  0  0
   58.3140   31.7680   50.9030 H   0  0  0  0  0  0  0  0  0  0  0  0
   61.2769   31.8024   50.9190 H   0  0  0  0  0  0  0  0  0  0  0  0
   60.2253   30.7201   49.9353 H   0  0  0  0  0  0  0  0  0  0  0  0
   59.2250   35.8710   48.8970 H   0  0  0  0  0  0  0  0  0  0  0  0
   57.5503   34.8140   45.7462 H   0  0  0  0  0  0  0  0  0  0  0  0
   56.0559   33.0773   44.7668 H   0  0  0  0  0  0  0  0  0  0  0  0
   57.0170   28.8484   43.4969 H   0  0  0  0  0  0  0  0  0  0  0  0
   55.7553   29.9285   42.8126 H   0  0  0  0  0  0  0  0  0  0  0  0
   57.4758   30.4447   42.8126 H   0  0  0  0  0  0  0  0  0  0  0  0
   58.9399   30.0148   45.7975 H   0  0  0  0  0  0  0  0  0  0  0  0
   60.4351   31.7573   46.7738 H   0  0  0  0  0  0  0  0  0  0  0  0
   58.8780   35.1630   51.2420 H   0  0  0  0  0  0  0  0  0  0  0  0
   60.2079   33.2863   52.6041 H   0  0  0  0  0  0  0  0  0  0  0  0
   58.4121   33.2970   52.7148 H   0  0  0  0  0  0  0  0  0  0  0  0
  1  2  1  0
  2  3  1  0
  3  4  1  0
  4  5  1  0
  5  6  1  0
  6  7  1  0
  7  8  1  0
  8  9  2  0
  9 10  1  0
 10 11  1  0
 11 12  2  0
 11 13  2  0
 11 14  1  0
 14 15  2  0
 15 16  1  0
 16 17  2  0
 17 18  1  0
 18 19  1  0
 17 20  1  0
 20 21  2  0
  9 22  1  0
 22 23  1  0
 23  6  1  0
 21 14  1  0
  1 24  1  0
  1 25  1  0
  1 26  1  0
  2 27  1  0
  2 28  1  0
  4 29  1  0
  4 30  1  0
  5 31  1  0
  5 32  1  0
  6 33  1  6
  7 34  1  0
  7 35  1  0
 10 36  1  0
 15 37  1  0
 16 38  1  0
 19 39  1  0
 19 40  1  0
 19 41  1  0
 20 42  1  0
 21 43  1  0
 22 44  1  0
 23 45  1  0
 23 46  1  0
M  CHG  1   6   1
M  END
>  <UniqueID>  (44) 
44

>  <SMILES>  (44) 
CCOCC[N@@H+]1CN=C(NS(=O)(=O)c2ccc(OC)cc2)NC1

>  <Energy>  (44) 
48.6403731843537

>  <Genealogy>  (44) 
CCOCC[NH+]1CN=C(NS(=O)(=O)c2ccc(OC)cc2)NC1 (protonated)
CCOCC[N@@H+]1CN=C(NS(=O)(=O)c2ccc(OC)cc2)NC1 (chirality)
CCOCC[N@@H+]1CN=C(NS(=O)(=O)c2ccc(OC)cc2)NC1 (3D coordinates assigned)
CCOCC[N@@H+]1CN=C(NS(=O)(=O)c2ccc(OC)cc2)NC1 (nonaromatic ring conformer: 48.6403731843537 kcal/mol)

>  <smiles>  (44) 
CCOCCN1CN=C(NS(=O)(=O)c2ccc(OC)cc2)NC1

>  <score_type>  (44) 
oracle

>  <origin>  (44) 
adg

>  <m_score__min__energy>  (44) 
-5.4199999999999999

>  <m_primary>  (44) 
energy

$$$$
44:0
     RDKit          3D

 65 68  0  0  0  0  0  0  0  0999 V2000
   62.9220   33.8540   46.3950 C   0  0  0  0  0  0  0  0  0  0  0  0
   62.5110   32.6730   47.2710 C   0  0  0  0  0  0  0  0  0  0  0  0
   63.4310   32.5230   48.4220 N   0  0  0  0  0  0  0  0  0  0  0  0
   63.0390   31.4390   49.3550 C   0  0  0  0  0  0  0  0  0  0  0  0
   61.7300   30.8090   48.8920 C   0  0  0  0  0  0  0  0  0  0  0  0
   63.7060   33.8090   49.1040 C   0  0  0  0  0  0  0  0  0  0  0  0
   62.9930   33.9640   50.4660 C   0  0  0  0  0  0  0  0  0  0  0  0
   61.6660   34.4190   50.2780 O   0  0  0  0  0  0  0  0  0  0  0  0
   60.7170   33.3960   50.5250 C   0  0  0  0  0  0  0  0  0  0  0  0
   59.5570   33.4620   49.5210 C   0  0  0  0  0  0  0  0  0  0  0  0
   59.6110   34.6940   48.7160 N   0  0  0  0  0  0  0  0  0  0  0  0
   59.3230   34.4060   47.3310 C   0  0  0  0  0  0  0  0  0  0  0  0
   59.6220   35.3510   46.3330 C   0  0  0  0  0  0  0  0  0  0  0  0
   59.3480   35.0710   44.9910 C   0  0  0  0  0  0  0  0  0  0  0  0
   58.7690   33.8510   44.6320 C   0  0  0  0  0  0  0  0  0  0  0  0
   58.4810   32.8860   45.6120 C   0  0  0  0  0  0  0  0  0  0  0  0
   57.8310   31.6050   45.2450 C   0  0  0  0  0  0  0  0  0  0  0  0
   56.6400   31.6530   44.5060 C   0  0  0  0  0  0  0  0  0  0  0  0
   56.0180   30.4720   44.1100 C   0  0  0  0  0  0  0  0  0  0  0  0
   56.5600   29.2740   44.4410 N   0  0  0  0  0  0  0  0  0  0  0  0
   57.7060   29.1730   45.1700 C   0  0  0  0  0  0  0  0  0  0  0  0
   58.3680   30.3430   45.6080 C   0  0  0  0  0  0  0  0  0  0  0  0
   59.6690   30.2100   46.3750 C   0  0  0  0  0  0  0  0  0  0  0  0
   59.7010   28.9510   47.2510 C   0  0  0  0  0  0  0  0  0  0  0  0
   59.2620   27.7290   46.4870 C   0  0  0  0  0  0  0  0  0  0  0  0
   59.7760   26.4660   46.8230 C   0  0  0  0  0  0  0  0  0  0  0  0
   59.3030   25.3200   46.1820 C   0  0  0  0  0  0  0  0  0  0  0  0
   58.3040   25.4230   45.2120 C   0  0  0  0  0  0  0  0  0  0  0  0
   57.7740   26.6730   44.8800 C   0  0  0  0  0  0  0  0  0  0  0  0
   58.2470   27.8370   45.5140 C   0  0  0  0  0  0  0  0  0  0  0  0
   58.7580   33.1700   46.9600 C   0  0  0  0  0  0  0  0  0  0  0  0
   63.2163   34.6996   47.0340 H   0  0  0  0  0  0  0  0  0  0  0  0
   63.7712   33.5614   45.7599 H   0  0  0  0  0  0  0  0  0  0  0  0
   62.0747   34.1518   45.7599 H   0  0  0  0  0  0  0  0  0  0  0  0
   61.4903   32.8403   47.6453 H   0  0  0  0  0  0  0  0  0  0  0  0
   62.5528   31.7554   46.6659 H   0  0  0  0  0  0  0  0  0  0  0  0
   63.8268   30.6716   49.3752 H   0  0  0  0  0  0  0  0  0  0  0  0
   62.9045   31.8578   50.3632 H   0  0  0  0  0  0  0  0  0  0  0  0
   61.1314   30.5209   49.7688 H   0  0  0  0  0  0  0  0  0  0  0  0
   61.1676   31.5351   48.2866 H   0  0  0  0  0  0  0  0  0  0  0  0
   61.9466   29.9165   48.2866 H   0  0  0  0  0  0  0  0  0  0  0  0
   64.7905   33.8870   49.2706 H   0  0  0  0  0  0  0  0  0  0  0  0
   63.3192   34.6046   48.4503 H   0  0  0  0  0  0  0  0  0  0  0  0
   62.9735   32.9906   50.9780 H   0  0  0  0  0  0  0  0  0  0  0  0
   63.5401   34.6994   51.0741 H   0  0  0  0  0  0  0  0  0  0  0  0
   61.2125   32.4178   50.4373 H   0  0  0  0  0  0  0  0  0  0  0  0
   60.3102   33.5347   51.5376 H   0  0  0  0  0  0  0  0  0  0  0  0
   59.6155   32.5929   48.8492 H   0  0  0  0  0  0  0  0  0  0  0  0
   58.6120   33.4580   50.0839 H   0  0  0  0  0  0  0  0  0  0  0  0
   58.9240   35.3910   49.0880 H   0  0  0  0  0  0  0  0  0  0  0  0
   60.5670   35.1160   48.7810 H   0  0  0  0  0  0  0  0  0  0  0  0
   60.0736   36.3151   46.6098 H   0  0  0  0  0  0  0  0  0  0  0  0
   59.5889   35.8131   44.2156 H   0  0  0  0  0  0  0  0  0  0  0  0
   58.5374   33.6449   43.5766 H   0  0  0  0  0  0  0  0  0  0  0  0
   56.1972   32.6239   44.2392 H   0  0  0  0  0  0  0  0  0  0  0  0
   55.0855   30.5109   43.5278 H   0  0  0  0  0  0  0  0  0  0  0  0
   60.5003   30.1623   45.6562 H   0  0  0  0  0  0  0  0  0  0  0  0
   59.7607   31.0836   47.0371 H   0  0  0  0  0  0  0  0  0  0  0  0
   60.7278   28.7950   47.6134 H   0  0  0  0  0  0  0  0  0  0  0  0
   59.0050   29.0992   48.0898 H   0  0  0  0  0  0  0  0  0  0  0  0
   60.5549   26.3796   47.5949 H   0  0  0  0  0  0  0  0  0  0  0  0
   59.7177   24.3347   46.4412 H   0  0  0  0  0  0  0  0  0  0  0  0
   57.9332   24.5183   44.7079 H   0  0  0  0  0  0  0  0  0  0  0  0
   56.9830   26.7473   44.1192 H   0  0  0  0  0  0  0  0  0  0  0  0
   58.5316   32.4204   47.7326 H   0  0  0  0  0  0  0  0  0  0  0  0
  1  2  1  0
  2  3  1  0
  3  4  1  0
  4  5  1  0
  3  6  1  0
  6  7  1  0
  7  8  1  0
  8  9  1  0
  9 10  1  0
 10 11  1  0
 11 12  1  0
 12 13  2  0
 13 14  1  0
 14 15  2  0
 15 16  1  0
 16 17  1  0
 17 18  2  0
 18 19  1  0
 19 20  2  0
 20 21  1  0
 21 22  2  0
 22 23  1  0
 23 24  1  0
 24 25  1  0
 25 26  2  0
 26 27  1  0
 27 28  2  0
 28 29  1  0
 29 30  2  0
 16 31  2  0
 31 12  1  0
 22 17  1  0
 30 25  1  0
 30 21  1  0
  1 32  1  0
  1 33  1  0
  1 34  1  0
  2 35  1  0
  2 36  1  0
  4 37  1  0
  4 38  1  0
  5 39  1  0
  5 40  1  0
  5 41  1  0
  6 42  1  0
  6 43  1  0
  7 44  1  0
  7 45  1  0
  9 46  1  0
  9 47  1  0
 10 48  1  0
 10 49  1  0
 11 50  1  0
 11 51  1  0
 13 52  1  0
 14 53  1  0
 15 54  1  0
 18 55  1  0
 19 56  1  0
 23 57  1  0
 23 58  1  0
 24 59  1  0
 24 60  1  0
 26 61  1  0
 27 62  1  0
 28 63  1  0
 29 64  1  0
 31 65  1  0
M  CHG  1  11   1
M  END
>  <UniqueID>  (45) 
45

>  <SMILES>  (45) 
CCN(CC)CCOCC[NH2+]c1cccc(-c2ccnc3c2CCc2ccccc2-3)c1

>  <Energy>  (45) 
83.70885810407714

>  <Genealogy>  (45) 
CCN(CC)CCOCC[NH2+]c1cccc(-c2ccnc3c2CCc2ccccc2-3)c1 (protonated)
CCN(CC)CCOCC[NH2+]c1cccc(-c2ccnc3c2CCc2ccccc2-3)c1 (3D coordinates assigned)
CCN(CC)CCOCC[NH2+]c1cccc(-c2ccnc3c2CCc2ccccc2-3)c1 (nonaromatic ring conformer: 83.70885810407714 kcal/mol)

>  <smiles>  (45) 
CCN(CC)CCOCCNc1cccc(-c2ccnc3c2CCc2ccccc2-3)c1

>  <score_type>  (45) 
oracle

>  <origin>  (45) 
adg

>  <m_score__min__energy>  (45) 
-6.9800000000000004

>  <m_primary>  (45) 
energy

$$$$
