0:0
     RDKit          3D

 39 41  0  0  0  0  0  0  0  0999 V2000
   55.5530   30.0360   43.7220 C   0  0  0  0  0  0  0  0  0  0  0  0
   56.8090   29.8290   44.5300 C   0  0  0  0  0  0  0  0  0  0  0  0
   57.0050   28.6020   45.1860 C   0  0  0  0  0  0  0  0  0  0  0  0
   58.1570   28.3770   45.9430 C   0  0  0  0  0  0  0  0  0  0  0  0
   59.1270   29.3720   46.0520 C   0  0  0  0  0  0  0  0  0  0  0  0
   58.9530   30.5940   45.3980 C   0  0  0  0  0  0  0  0  0  0  0  0
   57.8090   30.8320   44.6180 C   0  0  0  0  0  0  0  0  0  0  0  0
   57.6500   32.1750   43.9480 C   0  0  0  0  0  0  0  0  0  0  0  0
   57.0460   33.1270   44.8890 N   0  0  0  0  0  0  0  0  0  0  0  0
   57.9620   34.2290   45.2200 C   0  0  0  0  0  0  0  0  0  0  0  0
   59.0460   33.7990   46.1870 C   0  0  0  0  0  0  0  0  0  0  0  0
   60.3910   34.0080   45.8510 C   0  0  0  0  0  0  0  0  0  0  0  0
   61.4050   33.6420   46.7420 C   0  0  0  0  0  0  0  0  0  0  0  0
   62.7570   33.8430   46.4220 C   0  0  0  0  0  0  0  0  0  0  0  0
   63.7530   33.4700   47.3300 C   0  0  0  0  0  0  0  0  0  0  0  0
   63.4060   32.8980   48.5580 C   0  0  0  0  0  0  0  0  0  0  0  0
   62.0630   32.6950   48.8850 C   0  0  0  0  0  0  0  0  0  0  0  0
   61.0530   33.0650   47.9820 C   0  0  0  0  0  0  0  0  0  0  0  0
   59.7390   32.8730   48.2940 N   0  0  0  0  0  0  0  0  0  0  0  0
   58.7400   33.2260   47.4370 C   0  0  0  0  0  0  0  0  0  0  0  0
   57.5400   33.0350   47.7740 O   0  0  0  0  0  0  0  0  0  0  0  0
   54.6992   30.1767   44.4011 H   0  0  0  0  0  0  0  0  0  0  0  0
   55.6678   30.9273   43.0877 H   0  0  0  0  0  0  0  0  0  0  0  0
   55.3757   29.1550   43.0877 H   0  0  0  0  0  0  0  0  0  0  0  0
   56.2445   27.8117   45.1026 H   0  0  0  0  0  0  0  0  0  0  0  0
   58.2990   27.4132   46.4539 H   0  0  0  0  0  0  0  0  0  0  0  0
   60.0306   29.1947   46.6537 H   0  0  0  0  0  0  0  0  0  0  0  0
   59.7191   31.3775   45.4946 H   0  0  0  0  0  0  0  0  0  0  0  0
   58.6366   32.5466   43.6342 H   0  0  0  0  0  0  0  0  0  0  0  0
   56.9991   32.0690   43.0676 H   0  0  0  0  0  0  0  0  0  0  0  0
   56.7860   32.6170   45.7660 H   0  0  0  0  0  0  0  0  0  0  0  0
   58.4349   34.5873   44.2937 H   0  0  0  0  0  0  0  0  0  0  0  0
   57.3745   35.0242   45.7021 H   0  0  0  0  0  0  0  0  0  0  0  0
   60.6498   34.4616   44.8829 H   0  0  0  0  0  0  0  0  0  0  0  0
   63.0329   34.2938   45.4573 H   0  0  0  0  0  0  0  0  0  0  0  0
   64.8121   33.6269   47.0776 H   0  0  0  0  0  0  0  0  0  0  0  0
   64.1932   32.6069   49.2690 H   0  0  0  0  0  0  0  0  0  0  0  0
   61.7960   32.2442   49.8522 H   0  0  0  0  0  0  0  0  0  0  0  0
   59.4830   32.4480   49.2150 H   0  0  0  0  0  0  0  0  0  0  0  0
  1  2  1  0
  2  3  2  0
  3  4  1  0
  4  5  2  0
  5  6  1  0
  6  7  2  0
  7  8  1  0
  8  9  1  0
  9 10  1  0
 10 11  1  0
 11 12  2  0
 12 13  1  0
 13 14  2  0
 14 15  1  0
 15 16  2  0
 16 17  1  0
 17 18  2  0
 18 19  1  0
 19 20  1  0
 20 21  2  0
  7  2  1  0
 20 11  1  0
 18 13  1  0
  1 22  1  0
  1 23  1  0
  1 24  1  0
  3 25  1  0
  4 26  1  0
  5 27  1  0
  6 28  1  0
  8 29  1  0
  8 30  1  0
  9 31  1  0
 10 32  1  0
 10 33  1  0
 12 34  1  0
 14 35  1  0
 15 36  1  0
 16 37  1  0
 17 38  1  0
 19 39  1  0
M  END
>  <UniqueID>  (1) 
1

>  <SMILES>  (1) 
Cc1ccccc1CNCc1cc2ccccc2[nH]c1=O

>  <Energy>  (1) 
45.6337080161195

>  <Genealogy>  (1) 
Cc1ccccc1CNCc1cc2ccccc2[nH]c1=O (3D coordinates assigned)
Cc1ccccc1CNCc1cc2ccccc2[nH]c1=O (optimized conformer: 45.6337080161195 kcal/mol)

>  <smiles>  (1) 
Cc1ccccc1CNCc1cc2ccccc2[nH]c1=O

>  <score_type>  (1) 
oracle

>  <origin>  (1) 
adg

>  <m_score__min__energy>  (1) 
-8.4299999999999997

>  <m_primary>  (1) 
energy

$$$$
1:0
     RDKit          3D

 36 37  0  0  0  0  0  0  0  0999 V2000
   63.3370   33.6450   47.9140 C   0  0  0  0  0  0  0  0  0  0  0  0
   61.9710   33.7610   48.2990 O   0  0  0  0  0  0  0  0  0  0  0  0
   60.8890   33.3180   47.5230 C   0  0  0  0  0  0  0  0  0  0  0  0
   60.6260   31.9540   47.3040 C   0  0  0  0  0  0  0  0  0  0  0  0
   59.5210   31.5610   46.5420 C   0  0  0  0  0  0  0  0  0  0  0  0
   58.6590   32.5270   45.9870 C   0  0  0  0  0  0  0  0  0  0  0  0
   57.5370   32.1980   45.2100 O   0  0  0  0  0  0  0  0  0  0  0  0
   57.3940   32.3910   43.8020 C   0  0  0  0  0  0  0  0  0  0  0  0
   56.8990   31.1140   43.1200 C   0  0  0  0  0  0  0  0  0  0  0  0
   57.6130   29.9380   43.6140 N   0  0  0  0  0  0  0  0  0  0  0  0
   57.0610   29.0410   44.5880 C   0  0  0  0  0  0  0  0  0  0  0  0
   56.0290   29.3590   45.2390 O   0  0  0  0  0  0  0  0  0  0  0  0
   57.7230   27.7240   44.8560 C   0  0  0  0  0  0  0  0  0  0  0  0
   57.6390   27.3130   46.6310 S   0  0  0  0  0  0  0  0  0  0  0  0
   56.3590   26.0770   46.4340 C   0  0  0  0  0  0  0  0  0  0  0  0
   56.5440   24.7660   46.6750 N   0  0  0  0  0  0  0  0  0  0  0  0
   55.3310   24.2590   46.3840 C   0  0  0  0  0  0  0  0  0  0  0  0
   54.4620   25.2070   45.9890 N   0  0  0  0  0  0  0  0  0  0  0  0
   55.1120   26.3570   46.0190 N   0  0  0  0  0  0  0  0  0  0  0  0
   58.9370   33.8820   46.1960 C   0  0  0  0  0  0  0  0  0  0  0  0
   60.0420   34.2750   46.9560 C   0  0  0  0  0  0  0  0  0  0  0  0
   63.9681   33.5914   48.8133 H   0  0  0  0  0  0  0  0  0  0  0  0
   63.4731   32.7321   47.3156 H   0  0  0  0  0  0  0  0  0  0  0  0
   63.6250   34.5219   47.3156 H   0  0  0  0  0  0  0  0  0  0  0  0
   61.2928   31.1922   47.7342 H   0  0  0  0  0  0  0  0  0  0  0  0
   59.3240   30.4917   46.3752 H   0  0  0  0  0  0  0  0  0  0  0  0
   56.6696   33.1989   43.6216 H   0  0  0  0  0  0  0  0  0  0  0  0
   58.3767   32.6532   43.3830 H   0  0  0  0  0  0  0  0  0  0  0  0
   55.8247   30.9926   43.3229 H   0  0  0  0  0  0  0  0  0  0  0  0
   57.0828   31.2036   42.0392 H   0  0  0  0  0  0  0  0  0  0  0  0
   58.5140   29.6810   43.1510 H   0  0  0  0  0  0  0  0  0  0  0  0
   57.2130   26.9389   44.2786 H   0  0  0  0  0  0  0  0  0  0  0  0
   58.7795   27.7907   44.5569 H   0  0  0  0  0  0  0  0  0  0  0  0
   55.0792   23.1909   46.4606 H   0  0  0  0  0  0  0  0  0  0  0  0
   58.2787   34.6464   45.7574 H   0  0  0  0  0  0  0  0  0  0  0  0
   60.2468   35.3449   47.1092 H   0  0  0  0  0  0  0  0  0  0  0  0
  1  2  1  0
  2  3  1  0
  3  4  2  0
  4  5  1  0
  5  6  2  0
  6  7  1  0
  7  8  1  0
  8  9  1  0
  9 10  1  0
 10 11  1  0
 11 12  2  0
 11 13  1  0
 13 14  1  0
 14 15  1  0
 15 16  1  0
 16 17  2  0
 17 18  1  0
 18 19  1  0
  6 20  1  0
 20 21  2  0
 21  3  1  0
 19 15  2  0
  1 22  1  0
  1 23  1  0
  1 24  1  0
  4 25  1  0
  5 26  1  0
  8 27  1  0
  8 28  1  0
  9 29  1  0
  9 30  1  0
 10 31  1  0
 13 32  1  0
 13 33  1  0
 17 34  1  0
 20 35  1  0
 21 36  1  0
M  CHG  1  18  -1
M  END
>  <UniqueID>  (2) 
2

>  <SMILES>  (2) 
COc1ccc(OCCNC(=O)CSc2nc[n-]n2)cc1

>  <Energy>  (2) 
57.22423008959696

>  <Genealogy>  (2) 
COc1ccc(OCCNC(=O)CSc2nc[n-]n2)cc1 (protonated)
COc1ccc(OCCNC(=O)CSc2nc[n-]n2)cc1 (3D coordinates assigned)
COc1ccc(OCCNC(=O)CSc2nc[n-]n2)cc1 (optimized conformer: 57.22423008959696 kcal/mol)

>  <smiles>  (2) 
COc1ccc(OCCNC(=O)CSc2nc[nH]n2)cc1

>  <score_type>  (2) 
oracle

>  <origin>  (2) 
adg

>  <m_score__min__energy>  (2) 
-8.6400000000000006

>  <m_primary>  (2) 
energy

$$$$
2:0
     RDKit          3D

 24 26  0  0  0  0  0  0  0  0999 V2000
   54.4280   29.7880   44.6420 H   0  0  0  0  0  0  0  0  0  0  0  0
   55.3560   29.3390   44.4780 N   0  0  0  0  0  0  0  0  0  0  0  0
   56.4520   29.8700   44.9160 C   0  0  0  0  0  0  0  0  0  0  0  0
   56.6410   31.2120   44.8350 N   0  0  0  0  0  0  0  0  0  0  0  0
   57.7740   31.8140   45.2820 C   0  0  0  0  0  0  0  0  0  0  0  0
   57.8833   32.9052   45.1966 H   0  0  0  0  0  0  0  0  0  0  0  0
   58.8130   31.0470   45.8560 C   0  0  0  0  0  0  0  0  0  0  0  0
   58.6220   29.6460   45.9450 C   0  0  0  0  0  0  0  0  0  0  0  0
   59.5830   28.8540   46.4870 N   0  0  0  0  0  0  0  0  0  0  0  0
   60.7480   29.3560   46.9610 C   0  0  0  0  0  0  0  0  0  0  0  0
   61.4996   28.6784   47.3921 H   0  0  0  0  0  0  0  0  0  0  0  0
   61.0020   30.7310   46.9060 C   0  0  0  0  0  0  0  0  0  0  0  0
   60.0290   31.6000   46.3480 C   0  0  0  0  0  0  0  0  0  0  0  0
   60.3270   32.9780   46.3120 C   0  0  0  0  0  0  0  0  0  0  0  0
   59.5981   33.6832   45.8861 H   0  0  0  0  0  0  0  0  0  0  0  0
   61.5380   33.4530   46.8120 C   0  0  0  0  0  0  0  0  0  0  0  0
   61.7628   34.5294   46.7822 H   0  0  0  0  0  0  0  0  0  0  0  0
   62.4670   32.5570   47.3520 C   0  0  0  0  0  0  0  0  0  0  0  0
   63.5990   32.9830   47.8200 N   0  0  0  0  0  0  0  0  0  0  0  0
   64.5170   32.7160   47.3980 H   0  0  0  0  0  0  0  0  0  0  0  0
   62.1810   31.2260   47.3870 N   0  0  0  0  0  0  0  0  0  0  0  0
   62.8870   30.5710   47.7950 H   0  0  0  0  0  0  0  0  0  0  0  0
   57.4430   29.0620   45.4750 C   0  0  0  0  0  0  0  0  0  0  0  0
   57.2971   27.9740   45.5450 H   0  0  0  0  0  0  0  0  0  0  0  0
  1  2  1  0
  2  3  2  0
  3  4  1  0
  4  5  1  0
  5  6  1  0
  5  7  2  0
  7  8  1  0
  8  9  1  0
  9 10  2  0
 10 11  1  0
 10 12  1  0
 12 13  2  0
 13 14  1  0
 14 15  1  0
 14 16  2  0
 16 17  1  0
 16 18  1  0
 18 19  2  0
 19 20  1  0
 18 21  1  0
 21 22  1  0
  8 23  2  0
 23 24  1  0
 23  3  1  0
 13  7  1  0
 21 12  1  0
M  CHG  1   4  -1
M  END
>  <UniqueID>  (3) 
3

>  <SMILES>  (3) 
[H]/N=c1/cc2ncc3[nH]/c(=N/[H])ccc3c2c[n-]1

>  <Energy>  (3) 
38.759335070056096

>  <Genealogy>  (3) 
N=c1cc2ncc3[nH]c(=N)ccc3c2c[n-]1 (protonated)
[H]/N=c1/cc2ncc3[nH]/c(=N/[H])ccc3c2c[n-]1 (cis-trans isomerization)
[H]/N=c1/cc2ncc3[nH]/c(=N/[H])ccc3c2c[n-]1 (3D coordinates assigned)
[H]/N=c1/cc2ncc3[nH]/c(=N/[H])ccc3c2c[n-]1 (optimized conformer: 38.759335070056096 kcal/mol)

>  <smiles>  (3) 
N=c1cc2ncc3[nH]c(=N)ccc3c2c[nH]1

>  <score_type>  (3) 
oracle

>  <origin>  (3) 
adg

>  <m_score__min__energy>  (3) 
-7.7599999999999998

>  <m_primary>  (3) 
energy

$$$$
3:0
     RDKit          3D

 58 61  0  0  0  0  0  0  0  0999 V2000
   57.0180   21.0860   42.9630 C   0  0  0  0  0  0  0  0  0  0  0  0
   56.2090   22.1580   43.4390 O   0  0  0  0  0  0  0  0  0  0  0  0
   56.5310   22.9860   44.5290 C   0  0  0  0  0  0  0  0  0  0  0  0
   56.6370   24.3820   44.3700 C   0  0  0  0  0  0  0  0  0  0  0  0
   56.9620   25.2130   45.4480 C   0  0  0  0  0  0  0  0  0  0  0  0
   57.0500   26.6340   45.2370 N   0  0  0  0  0  0  0  0  0  0  0  0
   58.2470   27.4090   45.3710 C   0  0  0  0  0  0  0  0  0  0  0  0
   59.3720   26.8500   45.4640 O   0  0  0  0  0  0  0  0  0  0  0  0
   58.1820   28.8710   45.2740 C   0  0  0  0  0  0  0  0  0  0  0  0
   57.8610   29.5170   44.0860 C   0  0  0  0  0  0  0  0  0  0  0  0
   57.8820   30.8550   44.3870 C   0  0  0  0  0  0  0  0  0  0  0  0
   57.6640   31.9610   43.5660 C   0  0  0  0  0  0  0  0  0  0  0  0
   57.7830   33.2380   44.1390 C   0  0  0  0  0  0  0  0  0  0  0  0
   58.1180   33.3800   45.5020 C   0  0  0  0  0  0  0  0  0  0  0  0
   58.3370   32.2440   46.3050 C   0  0  0  0  0  0  0  0  0  0  0  0
   58.2010   30.9800   45.7140 C   0  0  0  0  0  0  0  0  0  0  0  0
   58.3810   29.7660   46.2900 N   0  0  0  0  0  0  0  0  0  0  0  0
   58.8770   29.5680   47.6730 C   0  0  1  0  0  0  0  0  0  0  0  0
   59.1800   28.1120   48.0440 C   0  0  0  0  0  0  0  0  0  0  0  0
   60.0900   30.4380   47.9350 C   0  0  0  0  0  0  0  0  0  0  0  0
   60.1500   31.2250   49.1000 C   0  0  0  0  0  0  0  0  0  0  0  0
   61.2680   32.0250   49.3550 C   0  0  0  0  0  0  0  0  0  0  0  0
   62.3370   32.0440   48.4550 C   0  0  0  0  0  0  0  0  0  0  0  0
   62.2940   31.2570   47.3020 C   0  0  0  0  0  0  0  0  0  0  0  0
   61.1810   30.4510   47.0450 C   0  0  0  0  0  0  0  0  0  0  0  0
   57.1370   24.6460   46.7180 C   0  0  0  0  0  0  0  0  0  0  0  0
   57.0410   23.2550   46.9020 C   0  0  0  0  0  0  0  0  0  0  0  0
   57.2230   22.6610   48.1620 O   0  0  0  0  0  0  0  0  0  0  0  0
   56.1720   22.1780   48.9900 C   0  0  0  0  0  0  0  0  0  0  0  0
   56.7530   22.4180   45.8100 C   0  0  0  0  0  0  0  0  0  0  0  0
   56.6980   21.0360   46.0710 O   0  0  0  0  0  0  0  0  0  0  0  0
   57.7990   20.1850   46.3810 C   0  0  0  0  0  0  0  0  0  0  0  0
   57.4349   20.5336   43.8180 H   0  0  0  0  0  0  0  0  0  0  0  0
   56.4049   20.4074   42.3518 H   0  0  0  0  0  0  0  0  0  0  0  0
   57.8387   21.4894   42.3518 H   0  0  0  0  0  0  0  0  0  0  0  0
   56.4609   24.8271   43.3796 H   0  0  0  0  0  0  0  0  0  0  0  0
   56.2100   27.1220   44.8570 H   0  0  0  0  0  0  0  0  0  0  0  0
   57.6380   29.0545   43.1132 H   0  0  0  0  0  0  0  0  0  0  0  0
   57.4071   31.8373   42.5036 H   0  0  0  0  0  0  0  0  0  0  0  0
   57.6140   34.1324   43.5214 H   0  0  0  0  0  0  0  0  0  0  0  0
   58.2088   34.3847   45.9405 H   0  0  0  0  0  0  0  0  0  0  0  0
   58.6073   32.3456   47.3664 H   0  0  0  0  0  0  0  0  0  0  0  0
   58.0438   29.8723   48.3235 H   0  0  0  0  0  0  0  0  0  0  0  0
   59.2013   28.0095   49.1390 H   0  0  0  0  0  0  0  0  0  0  0  0
   58.3987   27.4578   47.6296 H   0  0  0  0  0  0  0  0  0  0  0  0
   60.1574   27.8238   47.6296 H   0  0  0  0  0  0  0  0  0  0  0  0
   59.3131   31.2107   49.8137 H   0  0  0  0  0  0  0  0  0  0  0  0
   61.3062   32.6406   50.2658 H   0  0  0  0  0  0  0  0  0  0  0  0
   63.2127   32.6791   48.6548 H   0  0  0  0  0  0  0  0  0  0  0  0
   63.1368   31.2714   46.5953 H   0  0  0  0  0  0  0  0  0  0  0  0
   61.1574   29.8232   46.1421 H   0  0  0  0  0  0  0  0  0  0  0  0
   57.3516   25.2956   47.5794 H   0  0  0  0  0  0  0  0  0  0  0  0
   56.4496   22.3056   50.0467 H   0  0  0  0  0  0  0  0  0  0  0  0
   55.2518   22.7436   48.7818 H   0  0  0  0  0  0  0  0  0  0  0  0
   56.0019   21.1114   48.7818 H   0  0  0  0  0  0  0  0  0  0  0  0
   57.9037   20.1040   47.4730 H   0  0  0  0  0  0  0  0  0  0  0  0
   57.6221   19.1866   45.9546 H   0  0  0  0  0  0  0  0  0  0  0  0
   58.7206   20.6078   45.9546 H   0  0  0  0  0  0  0  0  0  0  0  0
  1  2  1  0
  2  3  1  0
  3  4  2  0
  4  5  1  0
  5  6  1  0
  6  7  1  0
  7  8  2  0
  7  9  1  0
  9 10  2  0
 10 11  1  0
 11 12  2  0
 12 13  1  0
 13 14  2  0
 14 15  1  0
 15 16  2  0
 16 17  1  0
 17 18  1  0
 18 19  1  0
 18 20  1  0
 20 21  2  0
 21 22  1  0
 22 23  2  0
 23 24  1  0
 24 25  2  0
  5 26  2  0
 26 27  1  0
 27 28  1  0
 28 29  1  0
 27 30  2  0
 30 31  1  0
 31 32  1  0
 30  3  1  0
 17  9  1  0
 25 20  1  0
 16 11  1  0
  1 33  1  0
  1 34  1  0
  1 35  1  0
  4 36  1  0
  6 37  1  0
 10 38  1  0
 12 39  1  0
 13 40  1  0
 14 41  1  0
 15 42  1  0
 18 43  1  1
 19 44  1  0
 19 45  1  0
 19 46  1  0
 21 47  1  0
 22 48  1  0
 23 49  1  0
 24 50  1  0
 25 51  1  0
 26 52  1  0
 29 53  1  0
 29 54  1  0
 29 55  1  0
 32 56  1  0
 32 57  1  0
 32 58  1  0
M  END
>  <UniqueID>  (4) 
4

>  <SMILES>  (4) 
COc1cc(NC(=O)c2cc3ccccc3n2[C@@H](C)c2ccccc2)cc(OC)c1OC

>  <Energy>  (4) 
110.06421046568032

>  <Genealogy>  (4) 
COc1cc(NC(=O)c2cc3ccccc3n2[C@@H](C)c2ccccc2)cc(OC)c1OC (chirality)
COc1cc(NC(=O)c2cc3ccccc3n2[C@@H](C)c2ccccc2)cc(OC)c1OC (3D coordinates assigned)
COc1cc(NC(=O)c2cc3ccccc3n2[C@@H](C)c2ccccc2)cc(OC)c1OC (optimized conformer: 110.06421046568032 kcal/mol)

>  <smiles>  (4) 
COc1cc(NC(=O)c2cc3ccccc3n2C(C)c2ccccc2)cc(OC)c1OC

>  <score_type>  (4) 
oracle

>  <origin>  (4) 
adg

>  <m_score__min__energy>  (4) 
-8.9199999999999999

>  <m_primary>  (4) 
energy

$$$$
4:0
     RDKit          3D

 14 14  0  0  0  0  0  0  0  0999 V2000
   54.8610   26.3160   45.9570 O   0  0  0  0  0  0  0  0  0  0  0  0
   56.0710   26.3660   46.3030 C   0  0  0  0  0  0  0  0  0  0  0  0
   57.0190   27.3160   45.6800 C   0  0  0  0  0  0  0  0  0  0  0  0
   58.3730   26.9520   45.5940 C   0  0  0  0  0  0  0  0  0  0  0  0
   59.3050   27.8160   45.0130 C   0  0  0  0  0  0  0  0  0  0  0  0
   58.8960   29.0530   44.5130 C   0  0  0  0  0  0  0  0  0  0  0  0
   57.5530   29.4330   44.5900 C   0  0  0  0  0  0  0  0  0  0  0  0
   57.0220   31.1350   43.8950 Br  0  0  0  0  0  0  0  0  0  0  0  0
   56.6100   28.5710   45.1720 C   0  0  0  0  0  0  0  0  0  0  0  0
   55.2780   28.9660   45.2380 O   0  0  0  0  0  0  0  0  0  0  0  0
   56.4323   25.6860   47.0885 H   0  0  0  0  0  0  0  0  0  0  0  0
   58.7023   25.9789   45.9872 H   0  0  0  0  0  0  0  0  0  0  0  0
   60.3627   27.5206   44.9497 H   0  0  0  0  0  0  0  0  0  0  0  0
   59.6325   29.7309   44.0570 H   0  0  0  0  0  0  0  0  0  0  0  0
  1  2  2  0
  2  3  1  0
  3  4  2  0
  4  5  1  0
  5  6  2  0
  6  7  1  0
  7  8  1  0
  7  9  2  0
  9 10  1  0
  9  3  1  0
  2 11  1  0
  4 12  1  0
  5 13  1  0
  6 14  1  0
M  CHG  1  10  -1
M  END
>  <UniqueID>  (5) 
5

>  <SMILES>  (5) 
O=Cc1cccc(Br)c1[O-]

>  <Energy>  (5) 
14.523172841796702

>  <Genealogy>  (5) 
O=Cc1cccc(Br)c1[O-] (protonated)
O=Cc1cccc(Br)c1[O-] (3D coordinates assigned)
O=Cc1cccc(Br)c1[O-] (optimized conformer: 14.523172841796702 kcal/mol)

>  <smiles>  (5) 
O=Cc1cccc(Br)c1O

>  <score_type>  (5) 
oracle

>  <origin>  (5) 
adg

>  <m_score__min__energy>  (5) 
-9.4600000000000009

>  <m_primary>  (5) 
energy

$$$$
5:0
     RDKit          3D

 26 27  0  0  0  0  0  0  0  0999 V2000
   54.0150   25.9630   45.7110 O   0  0  0  0  0  0  0  0  0  0  0  0
   55.2480   26.0970   45.9250 C   0  0  0  0  0  0  0  0  0  0  0  0
   55.8670   27.3540   45.6310 N   0  0  0  0  0  0  0  0  0  0  0  0
   57.2750   27.6310   45.6520 C   0  0  0  0  0  0  0  0  0  0  0  0
   58.0660   27.3820   46.7890 C   0  0  0  0  0  0  0  0  0  0  0  0
   59.4400   27.6440   46.7610 C   0  0  0  0  0  0  0  0  0  0  0  0
   60.0360   28.1380   45.5970 C   0  0  0  0  0  0  0  0  0  0  0  0
   59.2600   28.3620   44.4570 C   0  0  0  0  0  0  0  0  0  0  0  0
   57.8870   28.1020   44.4820 C   0  0  0  0  0  0  0  0  0  0  0  0
   56.0180   25.0120   46.4590 N   0  0  0  0  0  0  0  0  0  0  0  0
   56.7820   24.0510   45.7160 C   0  0  0  0  0  0  0  0  0  0  0  0
   58.1420   23.8070   45.9830 C   0  0  0  0  0  0  0  0  0  0  0  0
   58.8530   22.8760   45.2180 C   0  0  0  0  0  0  0  0  0  0  0  0
   58.2200   22.1950   44.1760 C   0  0  0  0  0  0  0  0  0  0  0  0
   56.8760   22.4500   43.8900 C   0  0  0  0  0  0  0  0  0  0  0  0
   56.2650   21.7980   42.8710 F   0  0  0  0  0  0  0  0  0  0  0  0
   56.1620   23.3800   44.6520 C   0  0  0  0  0  0  0  0  0  0  0  0
   57.6027   26.9803   47.7022 H   0  0  0  0  0  0  0  0  0  0  0  0
   60.0523   27.4610   47.6563 H   0  0  0  0  0  0  0  0  0  0  0  0
   61.1152   28.3502   45.5786 H   0  0  0  0  0  0  0  0  0  0  0  0
   59.7302   28.7435   43.5386 H   0  0  0  0  0  0  0  0  0  0  0  0
   57.2828   28.2680   43.5779 H   0  0  0  0  0  0  0  0  0  0  0  0
   58.6474   24.3497   46.7954 H   0  0  0  0  0  0  0  0  0  0  0  0
   59.9129   22.6800   45.4378 H   0  0  0  0  0  0  0  0  0  0  0  0
   58.7790   21.4582   43.5806 H   0  0  0  0  0  0  0  0  0  0  0  0
   55.1078   23.5865   44.4155 H   0  0  0  0  0  0  0  0  0  0  0  0
  1  2  2  0
  2  3  1  0
  3  4  1  0
  4  5  2  0
  5  6  1  0
  6  7  2  0
  7  8  1  0
  8  9  2  0
  2 10  1  0
 10 11  1  0
 11 12  2  0
 12 13  1  0
 13 14  2  0
 14 15  1  0
 15 16  1  0
 15 17  2  0
  9  4  1  0
 17 11  1  0
  5 18  1  0
  6 19  1  0
  7 20  1  0
  8 21  1  0
  9 22  1  0
 12 23  1  0
 13 24  1  0
 14 25  1  0
 17 26  1  0
M  CHG  2   3  -1  10  -1
M  END
>  <UniqueID>  (6) 
6

>  <SMILES>  (6) 
O=C([N-]c1ccccc1)[N-]c1cccc(F)c1

>  <Energy>  (6) 
33.75229188495856

>  <Genealogy>  (6) 
O=C([N-]c1ccccc1)[N-]c1cccc(F)c1 (protonated)
O=C([N-]c1ccccc1)[N-]c1cccc(F)c1 (3D coordinates assigned)
O=C([N-]c1ccccc1)[N-]c1cccc(F)c1 (optimized conformer: 33.75229188495856 kcal/mol)

>  <smiles>  (6) 
O=C(Nc1ccccc1)Nc1cccc(F)c1

>  <score_type>  (6) 
oracle

>  <origin>  (6) 
adg

>  <m_score__min__energy>  (6) 
-9.9800000000000004

>  <m_primary>  (6) 
energy

$$$$
6:0
     RDKit          3D

 41 43  0  0  1  0  0  0  0  0999 V2000
   55.5180   30.0640   43.6730 C   0  0  0  0  0  0  0  0  0  0  0  0
   56.1810   29.7220   44.8620 O   0  0  0  0  0  0  0  0  0  0  0  0
   57.4130   29.1200   44.9610 C   0  0  0  0  0  0  0  0  0  0  0  0
   57.7460   28.0610   44.1240 C   0  0  0  0  0  0  0  0  0  0  0  0
   59.0060   27.4800   44.2600 C   0  0  0  0  0  0  0  0  0  0  0  0
   59.9110   27.9440   45.2060 C   0  0  0  0  0  0  0  0  0  0  0  0
   59.5360   28.9970   46.0130 C   0  0  0  0  0  0  0  0  0  0  0  0
   60.5230   29.4760   47.0190 C   0  0  0  0  0  0  0  0  0  0  0  0
   58.2970   29.6000   45.9110 C   0  0  0  0  0  0  0  0  0  0  0  0
   57.9090   30.6870   46.7440 N   0  0  0  0  0  0  0  0  0  0  0  0
   58.1120   31.8870   46.3470 C   0  0  0  0  0  0  0  0  0  0  0  0
   59.1690   32.6190   46.8390 C   0  0  0  0  0  0  0  0  0  0  0  0
   59.3900   33.9370   46.4010 C   0  0  0  0  0  0  0  0  0  0  0  0
   60.4750   34.6780   46.9130 N   0  0  0  0  0  0  0  0  0  0  0  0
   61.5690   34.2030   47.6410 C   0  0  0  0  0  0  0  0  0  0  0  0
   61.6980   34.2260   49.0100 C   0  0  0  0  0  0  0  0  0  0  0  0
   62.8190   33.7350   49.6720 C   0  0  0  0  0  0  0  0  0  0  0  0
   63.8530   33.2000   48.9520 C   0  0  0  0  0  0  0  0  0  0  0  0
   65.2440   32.5920   49.8070 Cl  0  0  0  0  0  0  0  0  0  0  0  0
   63.7630   33.1580   47.5810 C   0  0  0  0  0  0  0  0  0  0  0  0
   62.6500   33.6480   46.9490 C   0  0  0  0  0  0  0  0  0  0  0  0
   58.5030   34.3780   45.4980 N   0  0  0  0  0  0  0  0  0  0  0  0
   57.4770   33.6650   45.0190 C   0  0  0  0  0  0  0  0  0  0  0  0
   57.2820   32.4080   45.4490 N   0  0  0  0  0  0  0  0  0  0  0  0
   54.5641   30.5561   43.9136 H   0  0  0  0  0  0  0  0  0  0  0  0
   56.1469   30.7502   43.0868 H   0  0  0  0  0  0  0  0  0  0  0  0
   55.3234   29.1538   43.0868 H   0  0  0  0  0  0  0  0  0  0  0  0
   57.0328   27.6906   43.3729 H   0  0  0  0  0  0  0  0  0  0  0  0
   59.2880   26.6405   43.6075 H   0  0  0  0  0  0  0  0  0  0  0  0
   60.9040   27.4820   45.3089 H   0  0  0  0  0  0  0  0  0  0  0  0
   60.1355   29.2880   48.0312 H   0  0  0  0  0  0  0  0  0  0  0  0
   61.4736   28.9390   46.8846 H   0  0  0  0  0  0  0  0  0  0  0  0
   60.6893   30.5550   46.8846 H   0  0  0  0  0  0  0  0  0  0  0  0
   59.8459   32.1695   47.5804 H   0  0  0  0  0  0  0  0  0  0  0  0
   60.4500   35.7250   46.7140 H   0  0  0  0  0  0  0  0  0  0  0  0
   60.8787   34.6514   49.6081 H   0  0  0  0  0  0  0  0  0  0  0  0
   62.8741   33.7766   50.7698 H   0  0  0  0  0  0  0  0  0  0  0  0
   64.5861   32.7302   46.9898 H   0  0  0  0  0  0  0  0  0  0  0  0
   62.6051   33.6028   45.8508 H   0  0  0  0  0  0  0  0  0  0  0  0
   56.7963   34.1067   44.2763 H   0  0  0  0  0  0  0  0  0  0  0  0
   56.4760   31.8610   45.0700 H   0  0  0  0  0  0  0  0  0  0  0  0
  1  2  1  0
  2  3  1  0
  3  4  2  0
  4  5  1  0
  5  6  2  0
  6  7  1  0
  7  8  1  0
  7  9  2  0
  9 10  1  0
 10 11  2  0
 11 12  1  0
 12 13  2  0
 13 14  1  0
 14 15  1  0
 15 16  2  0
 16 17  1  0
 17 18  2  0
 18 19  1  0
 18 20  1  0
 20 21  2  0
 13 22  1  0
 22 23  2  0
 23 24  1  0
  9  3  1  0
 24 11  1  0
 21 15  1  0
  1 25  1  0
  1 26  1  0
  1 27  1  0
  4 28  1  0
  5 29  1  0
  6 30  1  0
  8 31  1  0
  8 32  1  0
  8 33  1  0
 12 34  1  0
 14 35  1  0
 16 36  1  0
 17 37  1  0
 20 38  1  0
 21 39  1  0
 23 40  1  0
 24 41  1  0
M  END
>  <smiles>  (7) 
COc1cccc(C)c1N=c1cc(Nc2ccc(Cl)cc2)nc[nH]1

>  <score_type>  (7) 
oracle

>  <origin>  (7) 
adg

>  <m_score__min__energy>  (7) 
-7.3499999999999996

>  <m_primary>  (7) 
energy

$$$$
7:0
     RDKit          3D

 54 56  0  0  0  0  0  0  0  0999 V2000
   60.5720   28.6930   45.0900 C   0  0  0  0  0  0  0  0  0  0  0  0
   59.8920   30.0460   45.2780 C   0  0  0  0  0  0  0  0  0  0  0  0
   58.4090   29.9570   44.9900 C   0  0  0  0  0  0  0  0  0  0  0  0
   57.7790   28.7070   45.1050 C   0  0  0  0  0  0  0  0  0  0  0  0
   56.4090   28.5830   44.8790 C   0  0  0  0  0  0  0  0  0  0  0  0
   55.6670   29.7110   44.5420 C   0  0  0  0  0  0  0  0  0  0  0  0
   56.2780   30.9190   44.4360 N   0  0  0  0  0  0  0  0  0  0  0  0
   57.6140   31.0830   44.6460 C   0  0  0  0  0  0  0  0  0  0  0  0
   58.1820   32.4740   44.5160 C   0  0  0  0  0  0  0  0  0  0  0  0
   58.1850   33.1760   45.8190 N   0  0  0  0  0  0  0  0  0  0  0  0
   59.0140   34.4070   45.7640 C   0  0  0  0  0  0  0  0  0  0  0  0
   60.5150   34.1640   45.9830 C   0  0  0  0  0  0  0  0  0  0  0  0
   60.7810   33.4040   47.2920 C   0  0  0  0  0  0  0  0  0  0  0  0
   59.8120   33.7680   48.3440 N   0  0  0  0  0  0  0  0  0  0  0  0
   60.4340   33.8370   49.6890 C   0  0  0  0  0  0  0  0  0  0  0  0
   61.8690   33.3550   49.7240 C   0  0  0  0  0  0  0  0  0  0  0  0
   62.9240   34.1910   49.8190 N   0  0  0  0  0  0  0  0  0  0  0  0
   64.0120   33.4050   49.8820 C   0  0  0  0  0  0  0  0  0  0  0  0
   63.6080   32.0890   49.8400 C   0  0  0  0  0  0  0  0  0  0  0  0
   62.2640   32.0570   49.7380 N   0  0  0  0  0  0  0  0  0  0  0  0
   61.4440   30.8460   49.8360 C   0  0  0  0  0  0  0  0  0  0  0  0
   61.1450   30.2950   48.4460 C   0  0  0  0  0  0  0  0  0  0  0  0
   58.5960   32.9300   48.3130 C   0  0  0  0  0  0  0  0  0  0  0  0
   58.4670   32.2470   46.9390 C   0  0  0  0  0  0  0  0  0  0  0  0
   60.7928   28.2537   46.0740 H   0  0  0  0  0  0  0  0  0  0  0  0
   59.9042   28.0216   44.5302 H   0  0  0  0  0  0  0  0  0  0  0  0
   61.5092   28.8283   44.5302 H   0  0  0  0  0  0  0  0  0  0  0  0
   60.0367   30.3792   46.3163 H   0  0  0  0  0  0  0  0  0  0  0  0
   60.3413   30.7627   44.5749 H   0  0  0  0  0  0  0  0  0  0  0  0
   58.3706   27.8199   45.3752 H   0  0  0  0  0  0  0  0  0  0  0  0
   55.9188   27.6021   44.9663 H   0  0  0  0  0  0  0  0  0  0  0  0
   54.5854   29.6240   44.3615 H   0  0  0  0  0  0  0  0  0  0  0  0
   59.2145   32.4063   44.1428 H   0  0  0  0  0  0  0  0  0  0  0  0
   57.5524   33.0428   43.8159 H   0  0  0  0  0  0  0  0  0  0  0  0
   58.8799   34.8697   44.7751 H   0  0  0  0  0  0  0  0  0  0  0  0
   58.6747   35.0543   46.5861 H   0  0  0  0  0  0  0  0  0  0  0  0
   60.9074   33.5738   45.1417 H   0  0  0  0  0  0  0  0  0  0  0  0
   61.0158   35.1414   46.0453 H   0  0  0  0  0  0  0  0  0  0  0  0
   60.7067   32.3238   47.0979 H   0  0  0  0  0  0  0  0  0  0  0  0
   61.7870   33.6740   47.6457 H   0  0  0  0  0  0  0  0  0  0  0  0
   60.4111   34.8831   50.0285 H   0  0  0  0  0  0  0  0  0  0  0  0
   59.8556   33.1691   50.3442 H   0  0  0  0  0  0  0  0  0  0  0  0
   62.9080   35.2330   49.8840 H   0  0  0  0  0  0  0  0  0  0  0  0
   65.0524   33.7545   49.9550 H   0  0  0  0  0  0  0  0  0  0  0  0
   64.2703   31.2118   49.8825 H   0  0  0  0  0  0  0  0  0  0  0  0
   61.9865   30.0866   50.4183 H   0  0  0  0  0  0  0  0  0  0  0  0
   60.4952   31.0958   50.3334 H   0  0  0  0  0  0  0  0  0  0  0  0
   60.6222   29.3316   48.5381 H   0  0  0  0  0  0  0  0  0  0  0  0
   60.5091   31.0063   47.8986 H   0  0  0  0  0  0  0  0  0  0  0  0
   62.0880   30.1496   47.8986 H   0  0  0  0  0  0  0  0  0  0  0  0
   58.6619   32.1619   49.0977 H   0  0  0  0  0  0  0  0  0  0  0  0
   57.7140   33.5638   48.4873 H   0  0  0  0  0  0  0  0  0  0  0  0
   59.4111   31.7250   46.7240 H   0  0  0  0  0  0  0  0  0  0  0  0
   57.6065   31.5651   47.0063 H   0  0  0  0  0  0  0  0  0  0  0  0
  1  2  1  0
  2  3  1  0
  3  4  2  0
  4  5  1  0
  5  6  2  0
  6  7  1  0
  7  8  2  0
  8  9  1  0
  9 10  1  0
 10 11  1  0
 11 12  1  0
 12 13  1  0
 13 14  1  0
 14 15  1  0
 15 16  1  0
 16 17  2  0
 17 18  1  0
 18 19  2  0
 19 20  1  0
 20 21  1  0
 21 22  1  0
 14 23  1  0
 23 24  1  0
  8  3  1  0
 24 10  1  0
 20 16  1  0
  1 25  1  0
  1 26  1  0
  1 27  1  0
  2 28  1  0
  2 29  1  0
  4 30  1  0
  5 31  1  0
  6 32  1  0
  9 33  1  0
  9 34  1  0
 11 35  1  0
 11 36  1  0
 12 37  1  0
 12 38  1  0
 13 39  1  0
 13 40  1  0
 15 41  1  0
 15 42  1  0
 17 43  1  0
 18 44  1  0
 19 45  1  0
 21 46  1  0
 21 47  1  0
 22 48  1  0
 22 49  1  0
 22 50  1  0
 23 51  1  0
 23 52  1  0
 24 53  1  0
 24 54  1  0
M  CHG  1  17   1
M  END
>  <UniqueID>  (8) 
7

>  <SMILES>  (8) 
CCc1cccnc1CN1CCCN(Cc2[nH+]ccn2CC)CC1

>  <Energy>  (8) 
94.8721250380842

>  <Genealogy>  (8) 
CCc1cccnc1CN1CCCN(Cc2[nH+]ccn2CC)CC1 (protonated)
CCc1cccnc1CN1CCCN(Cc2[nH+]ccn2CC)CC1 (3D coordinates assigned)
CCc1cccnc1CN1CCCN(Cc2[nH+]ccn2CC)CC1 (nonaromatic ring conformer: 94.8721250380842 kcal/mol)

>  <smiles>  (8) 
CCc1cccnc1CN1CCCN(Cc2nccn2CC)CC1

>  <score_type>  (8) 
oracle

>  <origin>  (8) 
adg

>  <m_score__min__energy>  (8) 
-3.46

>  <m_primary>  (8) 
energy

$$$$
8:0
     RDKit          3D

 25 26  0  0  0  0  0  0  0  0999 V2000
   59.9760   27.0930   47.1750 C   0  0  0  0  0  0  0  0  0  0  0  0
   58.5920   27.2150   46.6210 C   0  0  0  0  0  0  0  0  0  0  0  0
   57.6870   26.2190   46.8670 C   0  0  0  0  0  0  0  0  0  0  0  0
   56.4270   26.3590   46.3480 C   0  0  0  0  0  0  0  0  0  0  0  0
   55.5650   25.4670   46.5490 O   0  0  0  0  0  0  0  0  0  0  0  0
   56.1230   27.4650   45.6170 N   0  0  0  0  0  0  0  0  0  0  0  0
   56.9840   28.4470   45.3630 C   0  0  0  0  0  0  0  0  0  0  0  0
   56.7520   29.8860   44.4090 S   0  0  0  0  0  0  0  0  0  0  0  0
   57.5440   31.3680   44.8660 C   0  0  0  0  0  0  0  0  0  0  0  0
   57.6480   32.5360   44.1660 C   0  0  0  0  0  0  0  0  0  0  0  0
   58.2780   33.6760   44.6640 C   0  0  0  0  0  0  0  0  0  0  0  0
   58.8420   33.6740   45.9200 C   0  0  0  0  0  0  0  0  0  0  0  0
   59.6200   35.1190   46.5070 Cl  0  0  0  0  0  0  0  0  0  0  0  0
   58.7510   32.5070   46.6430 C   0  0  0  0  0  0  0  0  0  0  0  0
   58.1310   31.3910   46.1520 C   0  0  0  0  0  0  0  0  0  0  0  0
   58.2410   28.2710   45.9020 N   0  0  0  0  0  0  0  0  0  0  0  0
   59.9326   27.0968   48.2741 H   0  0  0  0  0  0  0  0  0  0  0  0
   60.4277   26.1516   46.8291 H   0  0  0  0  0  0  0  0  0  0  0  0
   60.5855   27.9409   46.8291 H   0  0  0  0  0  0  0  0  0  0  0  0
   57.9619   25.3353   47.4616 H   0  0  0  0  0  0  0  0  0  0  0  0
   55.1490   27.5170   45.2820 H   0  0  0  0  0  0  0  0  0  0  0  0
   57.2122   32.5798   43.1570 H   0  0  0  0  0  0  0  0  0  0  0  0
   58.3248   34.5857   44.0474 H   0  0  0  0  0  0  0  0  0  0  0  0
   59.1918   32.4702   47.6501 H   0  0  0  0  0  0  0  0  0  0  0  0
   58.0879   30.4857   46.7754 H   0  0  0  0  0  0  0  0  0  0  0  0
  1  2  1  0
  2  3  2  0
  3  4  1  0
  4  5  2  0
  4  6  1  0
  6  7  1  0
  7  8  1  0
  8  9  1  0
  9 10  2  0
 10 11  1  0
 11 12  2  0
 12 13  1  0
 12 14  1  0
 14 15  2  0
  7 16  2  0
 16  2  1  0
 15  9  1  0
  1 17  1  0
  1 18  1  0
  1 19  1  0
  3 20  1  0
  6 21  1  0
 10 22  1  0
 11 23  1  0
 14 24  1  0
 15 25  1  0
M  END
>  <smiles>  (9) 
Cc1cc(=O)[nH]c(Sc2ccc(Cl)cc2)n1

>  <score_type>  (9) 
oracle

>  <origin>  (9) 
adg

>  <m_score__min__energy>  (9) 
-7.4800000000000004

>  <m_primary>  (9) 
energy

$$$$
9:0
     RDKit          3D

 36 38  0  0  0  0  0  0  0  0999 V2000
   59.7100   35.4160   46.0430 C   0  0  0  0  0  0  0  0  0  0  0  0
   60.2770   34.2960   46.8460 C   0  0  0  0  0  0  0  0  0  0  0  0
   61.5820   34.2050   47.1830 N   0  0  0  0  0  0  0  0  0  0  0  0
   61.8560   33.0560   47.8560 C   0  0  0  0  0  0  0  0  0  0  0  0
   60.7630   32.2120   48.0470 C   0  0  0  0  0  0  0  0  0  0  0  0
   60.7940   30.9040   48.7330 C   0  0  0  0  0  0  0  0  0  0  0  0
   59.9650   29.8460   48.3250 C   0  0  0  0  0  0  0  0  0  0  0  0
   60.0320   28.6120   48.9950 C   0  0  0  0  0  0  0  0  0  0  0  0
   59.2190   27.5270   48.6360 O   0  0  0  0  0  0  0  0  0  0  0  0
   58.7290   27.2700   47.3460 C   0  0  0  0  0  0  0  0  0  0  0  0
   58.8890   26.0180   46.7260 C   0  0  0  0  0  0  0  0  0  0  0  0
   58.3780   25.7990   45.4430 C   0  0  0  0  0  0  0  0  0  0  0  0
   57.6920   26.8170   44.7780 C   0  0  0  0  0  0  0  0  0  0  0  0
   57.5020   28.0590   45.4000 C   0  0  0  0  0  0  0  0  0  0  0  0
   56.6420   29.3470   44.5600 S   0  0  0  0  0  0  0  0  0  0  0  0
   56.8460   29.1630   42.8540 N   0  0  0  0  0  0  0  0  0  0  0  0
   57.1830   30.6820   44.9890 O   0  0  0  0  0  0  0  0  0  0  0  0
   55.1790   29.2890   44.8990 O   0  0  0  0  0  0  0  0  0  0  0  0
   58.0220   28.2790   46.6820 C   0  0  0  0  0  0  0  0  0  0  0  0
   60.8990   28.4720   50.0800 C   0  0  0  0  0  0  0  0  0  0  0  0
   61.7070   29.5450   50.4610 C   0  0  0  0  0  0  0  0  0  0  0  0
   61.6390   30.7210   49.7860 N   0  0  0  0  0  0  0  0  0  0  0  0
   59.4150   32.9390   47.3410 S   0  0  0  0  0  0  0  0  0  0  0  0
   59.3181   36.1902   46.7191 H   0  0  0  0  0  0  0  0  0  0  0  0
   60.4980   35.8480   45.4086 H   0  0  0  0  0  0  0  0  0  0  0  0
   58.8954   35.0366   45.4086 H   0  0  0  0  0  0  0  0  0  0  0  0
   62.8639   32.8108   48.2221 H   0  0  0  0  0  0  0  0  0  0  0  0
   59.2671   29.9823   47.4857 H   0  0  0  0  0  0  0  0  0  0  0  0
   59.4174   25.2090   47.2516 H   0  0  0  0  0  0  0  0  0  0  0  0
   58.5168   24.8223   44.9565 H   0  0  0  0  0  0  0  0  0  0  0  0
   57.3001   26.6444   43.7648 H   0  0  0  0  0  0  0  0  0  0  0  0
   56.6030   28.1740   42.6220 H   0  0  0  0  0  0  0  0  0  0  0  0
   57.8660   29.2760   42.6540 H   0  0  0  0  0  0  0  0  0  0  0  0
   57.8734   29.2531   47.1710 H   0  0  0  0  0  0  0  0  0  0  0  0
   60.9454   27.5215   50.6318 H   0  0  0  0  0  0  0  0  0  0  0  0
   62.3994   29.4374   51.3089 H   0  0  0  0  0  0  0  0  0  0  0  0
  1  2  1  0
  2  3  2  0
  3  4  1  0
  4  5  2  0
  5  6  1  0
  6  7  2  0
  7  8  1  0
  8  9  1  0
  9 10  1  0
 10 11  2  0
 11 12  1  0
 12 13  2  0
 13 14  1  0
 14 15  1  0
 15 16  1  0
 15 17  2  0
 15 18  2  0
 14 19  2  0
  8 20  2  0
 20 21  1  0
 21 22  2  0
  5 23  1  0
 23  2  1  0
 22  6  1  0
 19 10  1  0
  1 24  1  0
  1 25  1  0
  1 26  1  0
  4 27  1  0
  7 28  1  0
 11 29  1  0
 12 30  1  0
 13 31  1  0
 16 32  1  0
 16 33  1  0
 19 34  1  0
 20 35  1  0
 21 36  1  0
M  END
>  <UniqueID>  (10) 
8

>  <SMILES>  (10) 
Cc1ncc(-c2cc(Oc3cccc(S(N)(=O)=O)c3)ccn2)s1

>  <Energy>  (10) 
72.79886827157192

>  <Genealogy>  (10) 
Cc1ncc(-c2cc(Oc3cccc(S(N)(=O)=O)c3)ccn2)s1 (3D coordinates assigned)
Cc1ncc(-c2cc(Oc3cccc(S(N)(=O)=O)c3)ccn2)s1 (optimized conformer: 72.79886827157192 kcal/mol)

>  <smiles>  (10) 
Cc1ncc(-c2cc(Oc3cccc(S(N)(=O)=O)c3)ccn2)s1

>  <score_type>  (10) 
oracle

>  <origin>  (10) 
adg

>  <m_score__min__energy>  (10) 
-8.75

>  <m_primary>  (10) 
energy

$$$$
10:0
     RDKit          3D

 35 37  0  0  0  0  0  0  0  0999 V2000
   59.6820   35.5680   45.9890 C   0  0  0  0  0  0  0  0  0  0  0  0
   59.1120   34.1960   45.6090 C   0  0  0  0  0  0  0  0  0  0  0  0
   57.5770   34.1920   45.7330 C   0  0  0  0  0  0  0  0  0  0  0  0
   57.0110   32.8510   45.2440 C   0  0  0  0  0  0  0  0  0  0  0  0
   57.8280   31.7200   45.7030 N   0  0  0  0  0  0  0  0  0  0  0  0
   57.5300   30.4080   45.1990 C   0  0  0  0  0  0  0  0  0  0  0  0
   57.4240   29.3400   45.9560 O   0  0  0  0  0  0  0  0  0  0  0  0
   57.1110   28.3390   45.1610 C   0  0  0  0  0  0  0  0  0  0  0  0
   56.9040   26.9650   45.6370 C   0  0  0  0  0  0  0  0  0  0  0  0
   57.8720   25.9880   45.7660 C   0  0  0  0  0  0  0  0  0  0  0  0
   57.2120   24.8760   46.2420 C   0  0  0  0  0  0  0  0  0  0  0  0
   55.8880   25.2400   46.3710 C   0  0  0  0  0  0  0  0  0  0  0  0
   55.7350   26.4910   46.0030 O   0  0  0  0  0  0  0  0  0  0  0  0
   56.9950   28.7280   43.8730 N   0  0  0  0  0  0  0  0  0  0  0  0
   57.2600   30.0450   43.8930 C   0  0  0  0  0  0  0  0  0  0  0  0
   57.1260   30.9100   42.7500 C   0  0  0  0  0  0  0  0  0  0  0  0
   57.0180   31.6060   41.8320 N   0  0  0  0  0  0  0  0  0  0  0  0
   58.7940   31.9210   46.7910 C   0  0  0  0  0  0  0  0  0  0  0  0
   59.7630   33.0670   46.4540 C   0  0  0  0  0  0  0  0  0  0  0  0
   59.7197   35.6587   47.0846 H   0  0  0  0  0  0  0  0  0  0  0  0
   60.6970   35.6701   45.5775 H   0  0  0  0  0  0  0  0  0  0  0  0
   59.0382   36.3593   45.5775 H   0  0  0  0  0  0  0  0  0  0  0  0
   59.3605   33.9966   44.5562 H   0  0  0  0  0  0  0  0  0  0  0  0
   57.2968   34.3428   46.7860 H   0  0  0  0  0  0  0  0  0  0  0  0
   57.1641   35.0034   45.1156 H   0  0  0  0  0  0  0  0  0  0  0  0
   55.9881   32.7328   45.6310 H   0  0  0  0  0  0  0  0  0  0  0  0
   57.0166   32.8556   44.1440 H   0  0  0  0  0  0  0  0  0  0  0  0
   58.9441   26.0786   45.5369 H   0  0  0  0  0  0  0  0  0  0  0  0
   57.6527   23.8949   46.4728 H   0  0  0  0  0  0  0  0  0  0  0  0
   55.0822   24.5819   46.7281 H   0  0  0  0  0  0  0  0  0  0  0  0
   56.7280   28.1480   43.0460 H   0  0  0  0  0  0  0  0  0  0  0  0
   58.2507   32.1677   47.7151 H   0  0  0  0  0  0  0  0  0  0  0  0
   59.3738   30.9957   46.9241 H   0  0  0  0  0  0  0  0  0  0  0  0
   60.1288   33.5027   47.3955 H   0  0  0  0  0  0  0  0  0  0  0  0
   60.5768   32.6378   45.8510 H   0  0  0  0  0  0  0  0  0  0  0  0
  1  2  1  0
  2  3  1  0
  3  4  1  0
  4  5  1  0
  5  6  1  0
  6  7  1  0
  7  8  1  0
  8  9  1  0
  9 10  2  0
 10 11  1  0
 11 12  2  0
 12 13  1  0
  8 14  2  0
 14 15  1  0
 15 16  1  0
 16 17  3  0
  5 18  1  0
 18 19  1  0
 19  2  1  0
 15  6  2  0
 13  9  1  0
  1 20  1  0
  1 21  1  0
  1 22  1  0
  2 23  1  0
  3 24  1  0
  3 25  1  0
  4 26  1  0
  4 27  1  0
 10 28  1  0
 11 29  1  0
 12 30  1  0
 14 31  1  0
 18 32  1  0
 18 33  1  0
 19 34  1  0
 19 35  1  0
M  CHG  1  14   1
M  END
>  <UniqueID>  (11) 
9

>  <SMILES>  (11) 
CC1CCN(c2oc(-c3ccco3)[nH+]c2C#N)CC1

>  <Energy>  (11) 
95.10785404661907

>  <Genealogy>  (11) 
CC1CCN(c2oc(-c3ccco3)[nH+]c2C#N)CC1 (protonated)
CC1CCN(c2oc(-c3ccco3)[nH+]c2C#N)CC1 (3D coordinates assigned)
CC1CCN(c2oc(-c3ccco3)[nH+]c2C#N)CC1 (nonaromatic ring conformer: 95.10785404661907 kcal/mol)

>  <smiles>  (11) 
CC1CCN(c2oc(-c3ccco3)nc2C#N)CC1

>  <score_type>  (11) 
oracle

>  <origin>  (11) 
adg

>  <m_score__min__energy>  (11) 
-5.6299999999999999

>  <m_primary>  (11) 
energy

$$$$
11:0
     RDKit          3D

 56 59  0  0  0  0  0  0  0  0999 V2000
   55.1900   29.2920   44.9250 O   0  0  0  0  0  0  0  0  0  0  0  0
   56.2720   29.8470   44.5930 C   0  0  0  0  0  0  0  0  0  0  0  0
   56.3160   31.2760   44.5030 N   0  0  0  0  0  0  0  0  0  0  0  0
   57.3100   32.1260   45.0910 C   0  0  0  0  0  0  0  0  0  0  0  0
   58.2320   31.5700   45.9860 C   0  0  0  0  0  0  0  0  0  0  0  0
   59.2310   32.3650   46.5590 C   0  0  0  0  0  0  0  0  0  0  0  0
   59.3230   33.7190   46.2250 C   0  0  0  0  0  0  0  0  0  0  0  0
   58.4240   34.2770   45.3120 C   0  0  0  0  0  0  0  0  0  0  0  0
   57.4240   33.4840   44.7390 C   0  0  0  0  0  0  0  0  0  0  0  0
   57.4050   29.0510   44.2130 N   0  0  0  0  0  0  0  0  0  0  0  0
   57.5890   27.6780   44.5980 C   0  0  0  0  0  0  0  0  0  0  0  0
   57.4910   27.3230   45.9510 C   0  0  0  0  0  0  0  0  0  0  0  0
   57.6380   25.9910   46.3480 C   0  0  0  0  0  0  0  0  0  0  0  0
   57.8800   24.9900   45.3950 C   0  0  0  0  0  0  0  0  0  0  0  0
   57.9960   23.5530   45.8240 C   0  0  0  0  0  0  0  0  0  0  0  0
   56.8040   23.1550   46.5800 N   0  0  0  0  0  0  0  0  0  0  0  0
   56.9630   22.7640   47.8490 N   0  0  0  0  0  0  0  0  0  0  0  0
   55.9140   22.4100   48.6340 C   0  0  0  0  0  0  0  0  0  0  0  0
   54.6130   22.4590   48.1210 C   0  0  0  0  0  0  0  0  0  0  0  0
   53.4810   22.0880   48.9370 N   0  0  0  0  0  0  0  0  0  0  0  0
   52.1180   22.4020   48.4800 C   0  0  0  0  0  0  0  0  0  0  0  0
   51.1390   22.3810   49.6560 C   0  0  0  0  0  0  0  0  0  0  0  0
   51.4430   23.4420   50.7350 C   0  0  0  0  0  0  0  0  0  0  0  0
   52.8760   23.7310   50.9000 N   0  0  0  0  0  0  0  0  0  0  0  0
   53.6420   22.5680   51.3690 C   0  0  0  0  0  0  0  0  0  0  0  0
   53.6920   21.5030   50.2700 C   0  0  0  0  0  0  0  0  0  0  0  0
   54.4400   22.8700   46.7950 C   0  0  0  0  0  0  0  0  0  0  0  0
   55.5520   23.2220   46.0290 C   0  0  0  0  0  0  0  0  0  0  0  0
   55.3880   23.5990   44.8370 O   0  0  0  0  0  0  0  0  0  0  0  0
   57.9470   25.3370   44.0370 C   0  0  0  0  0  0  0  0  0  0  0  0
   57.8000   26.6690   43.6400 C   0  0  0  0  0  0  0  0  0  0  0  0
   58.1707   30.5016   46.2404 H   0  0  0  0  0  0  0  0  0  0  0  0
   59.9435   31.9245   47.2719 H   0  0  0  0  0  0  0  0  0  0  0  0
   60.1035   34.3458   46.6810 H   0  0  0  0  0  0  0  0  0  0  0  0
   58.5028   35.3409   45.0436 H   0  0  0  0  0  0  0  0  0  0  0  0
   56.7252   33.9228   44.0116 H   0  0  0  0  0  0  0  0  0  0  0  0
   58.0940   29.4730   43.5500 H   0  0  0  0  0  0  0  0  0  0  0  0
   57.2969   28.0991   46.7060 H   0  0  0  0  0  0  0  0  0  0  0  0
   57.5636   25.7261   47.4130 H   0  0  0  0  0  0  0  0  0  0  0  0
   58.0923   22.9142   44.9337 H   0  0  0  0  0  0  0  0  0  0  0  0
   58.8832   23.4389   46.4643 H   0  0  0  0  0  0  0  0  0  0  0  0
   56.0860   22.0854   49.6708 H   0  0  0  0  0  0  0  0  0  0  0  0
   52.1115   23.4019   48.0216 H   0  0  0  0  0  0  0  0  0  0  0  0
   51.8066   21.6452   47.7449 H   0  0  0  0  0  0  0  0  0  0  0  0
   50.1257   22.5610   49.2676 H   0  0  0  0  0  0  0  0  0  0  0  0
   51.2352   21.3964   50.1370 H   0  0  0  0  0  0  0  0  0  0  0  0
   50.9313   24.3752   50.4570 H   0  0  0  0  0  0  0  0  0  0  0  0
   51.0872   23.0344   51.6927 H   0  0  0  0  0  0  0  0  0  0  0  0
   52.9580   24.4910   51.6170 H   0  0  0  0  0  0  0  0  0  0  0  0
   54.6659   22.8821   51.6201 H   0  0  0  0  0  0  0  0  0  0  0  0
   53.1544   22.1473   52.2608 H   0  0  0  0  0  0  0  0  0  0  0  0
   54.6766   21.0130   50.2927 H   0  0  0  0  0  0  0  0  0  0  0  0
   52.8868   20.7775   50.4580 H   0  0  0  0  0  0  0  0  0  0  0  0
   53.4315   22.9155   46.3580 H   0  0  0  0  0  0  0  0  0  0  0  0
   58.1162   24.5564   43.2807 H   0  0  0  0  0  0  0  0  0  0  0  0
   57.8495   26.9301   42.5726 H   0  0  0  0  0  0  0  0  0  0  0  0
  1  2  2  0
  2  3  1  0
  3  4  1  0
  4  5  2  0
  5  6  1  0
  6  7  2  0
  7  8  1  0
  8  9  2  0
  2 10  1  0
 10 11  1  0
 11 12  2  0
 12 13  1  0
 13 14  2  0
 14 15  1  0
 15 16  1  0
 16 17  1  0
 17 18  2  0
 18 19  1  0
 19 20  1  0
 20 21  1  0
 21 22  1  0
 22 23  1  0
 23 24  1  0
 24 25  1  0
 25 26  1  0
 19 27  2  0
 27 28  1  0
 28 29  2  0
 14 30  1  0
 30 31  2  0
  9  4  1  0
 31 11  1  0
 28 16  1  0
 26 20  1  0
  5 32  1  0
  6 33  1  0
  7 34  1  0
  8 35  1  0
  9 36  1  0
 10 37  1  0
 12 38  1  0
 13 39  1  0
 15 40  1  0
 15 41  1  0
 18 42  1  0
 21 43  1  0
 21 44  1  0
 22 45  1  0
 22 46  1  0
 23 47  1  0
 23 48  1  0
 24 49  1  0
 25 50  1  0
 25 51  1  0
 26 52  1  0
 26 53  1  0
 27 54  1  0
 30 55  1  0
 31 56  1  0
M  CHG  1   3  -1
M  END
>  <UniqueID>  (12) 
10

>  <SMILES>  (12) 
O=C([N-]c1ccccc1)Nc1ccc(Cn2ncc(N3CCCNCC3)cc2=O)cc1

>  <Energy>  (12) 
74.49908117266195

>  <Genealogy>  (12) 
O=C([N-]c1ccccc1)Nc1ccc(Cn2ncc(N3CCCNCC3)cc2=O)cc1 (protonated)
O=C([N-]c1ccccc1)Nc1ccc(Cn2ncc(N3CCCNCC3)cc2=O)cc1 (3D coordinates assigned)
O=C([N-]c1ccccc1)Nc1ccc(Cn2ncc(N3CCCNCC3)cc2=O)cc1 (nonaromatic ring conformer: 74.49908117266195 kcal/mol)

>  <smiles>  (12) 
O=C(Nc1ccccc1)Nc1ccc(Cn2ncc(N3CCCNCC3)cc2=O)cc1

>  <score_type>  (12) 
oracle

>  <origin>  (12) 
adg

>  <m_score__min__energy>  (12) 
-7.9299999999999997

>  <m_primary>  (12) 
energy

$$$$
12:0
     RDKit          3D

 31 33  0  0  0  0  0  0  0  0999 V2000
   60.4050   29.9910   46.4820 Cl  0  0  0  0  0  0  0  0  0  0  0  0
   59.2090   29.5130   45.2820 C   0  0  0  0  0  0  0  0  0  0  0  0
   59.3340   28.2270   44.7360 C   0  0  0  0  0  0  0  0  0  0  0  0
   58.4320   27.7710   43.7760 C   0  0  0  0  0  0  0  0  0  0  0  0
   57.3910   28.5960   43.3510 C   0  0  0  0  0  0  0  0  0  0  0  0
   57.2520   29.8790   43.8840 C   0  0  0  0  0  0  0  0  0  0  0  0
   58.1520   30.3590   44.8550 C   0  0  0  0  0  0  0  0  0  0  0  0
   57.9440   31.7330   45.3820 C   0  0  0  0  0  0  0  0  0  0  0  0
   56.8140   32.4600   45.2460 N   0  0  0  0  0  0  0  0  0  0  0  0
   57.0520   33.6110   45.8500 N   0  0  0  0  0  0  0  0  0  0  0  0
   58.3030   33.5570   46.3350 C   0  0  0  0  0  0  0  0  0  0  0  0
   58.9850   34.6720   47.0600 C   0  0  0  0  0  0  0  0  0  0  0  0
   60.3890   34.2680   47.4140 C   0  0  0  0  0  0  0  0  0  0  0  0
   61.3030   33.9230   46.4040 C   0  0  0  0  0  0  0  0  0  0  0  0
   62.5970   33.5130   46.7370 C   0  0  0  0  0  0  0  0  0  0  0  0
   62.9840   33.4330   48.0770 C   0  0  0  0  0  0  0  0  0  0  0  0
   62.0770   33.7610   49.0880 C   0  0  0  0  0  0  0  0  0  0  0  0
   60.7800   34.1720   48.7600 C   0  0  0  0  0  0  0  0  0  0  0  0
   58.8600   32.4070   46.0470 O   0  0  0  0  0  0  0  0  0  0  0  0
   60.1523   27.5715   45.0688 H   0  0  0  0  0  0  0  0  0  0  0  0
   58.5412   26.7611   43.3539 H   0  0  0  0  0  0  0  0  0  0  0  0
   56.6783   28.2354   42.5947 H   0  0  0  0  0  0  0  0  0  0  0  0
   56.4289   30.5231   43.5411 H   0  0  0  0  0  0  0  0  0  0  0  0
   56.3780   34.4050   45.9180 H   0  0  0  0  0  0  0  0  0  0  0  0
   59.0132   35.5629   46.4154 H   0  0  0  0  0  0  0  0  0  0  0  0
   58.4295   34.8980   47.9821 H   0  0  0  0  0  0  0  0  0  0  0  0
   60.9992   33.9758   45.3481 H   0  0  0  0  0  0  0  0  0  0  0  0
   63.3120   33.2528   45.9426 H   0  0  0  0  0  0  0  0  0  0  0  0
   64.0035   33.1115   48.3364 H   0  0  0  0  0  0  0  0  0  0  0  0
   62.3827   33.6961   50.1427 H   0  0  0  0  0  0  0  0  0  0  0  0
   60.0649   34.4205   49.5581 H   0  0  0  0  0  0  0  0  0  0  0  0
  1  2  1  0
  2  3  2  0
  3  4  1  0
  4  5  2  0
  5  6  1  0
  6  7  2  0
  7  8  1  0
  8  9  2  0
  9 10  1  0
 10 11  2  0
 11 12  1  0
 12 13  1  0
 13 14  2  0
 14 15  1  0
 15 16  2  0
 16 17  1  0
 17 18  2  0
 11 19  1  0
  7  2  1  0
 19  8  1  0
 18 13  1  0
  3 20  1  0
  4 21  1  0
  5 22  1  0
  6 23  1  0
 10 24  1  0
 12 25  1  0
 12 26  1  0
 14 27  1  0
 15 28  1  0
 16 29  1  0
 17 30  1  0
 18 31  1  0
M  CHG  1  10   1
M  END
>  <UniqueID>  (13) 
11

>  <SMILES>  (13) 
Clc1ccccc1-c1n[nH+]c(Cc2ccccc2)o1

>  <Energy>  (13) 
70.46084924522263

>  <Genealogy>  (13) 
Clc1ccccc1-c1n[nH+]c(Cc2ccccc2)o1 (protonated)
Clc1ccccc1-c1n[nH+]c(Cc2ccccc2)o1 (3D coordinates assigned)
Clc1ccccc1-c1n[nH+]c(Cc2ccccc2)o1 (optimized conformer: 70.46084924522263 kcal/mol)

>  <smiles>  (13) 
Clc1ccccc1-c1nnc(Cc2ccccc2)o1

>  <score_type>  (13) 
oracle

>  <origin>  (13) 
adg

>  <m_score__min__energy>  (13) 
-6.1100000000000003

>  <m_primary>  (13) 
energy

$$$$
13:0
     RDKit          3D

 37 39  0  0  0  0  0  0  0  0999 V2000
   56.6650   22.7280   43.1130 C   0  0  0  0  0  0  0  0  0  0  0  0
   56.4180   23.4740   44.3000 O   0  0  0  0  0  0  0  0  0  0  0  0
   56.8160   24.8070   44.4980 C   0  0  0  0  0  0  0  0  0  0  0  0
   57.7630   25.4340   43.6700 C   0  0  0  0  0  0  0  0  0  0  0  0
   58.1360   26.7600   43.8980 C   0  0  0  0  0  0  0  0  0  0  0  0
   57.5750   27.4860   44.9620 C   0  0  0  0  0  0  0  0  0  0  0  0
   57.9570   28.8990   45.2110 C   0  0  0  0  0  0  0  0  0  0  0  0
   57.0340   29.8850   45.0630 N   0  0  0  0  0  0  0  0  0  0  0  0
   57.3520   31.1580   45.2810 N   0  0  0  0  0  0  0  0  0  0  0  0
   58.6080   31.5040   45.6610 C   0  0  0  0  0  0  0  0  0  0  0  0
   58.9650   32.9240   45.9020 C   0  0  0  0  0  0  0  0  0  0  0  0
   59.3720   33.3540   47.1800 C   0  0  0  0  0  0  0  0  0  0  0  0
   59.7070   34.6930   47.4040 C   0  0  0  0  0  0  0  0  0  0  0  0
   59.6410   35.6170   46.3590 C   0  0  0  0  0  0  0  0  0  0  0  0
   59.2380   35.2050   45.0880 C   0  0  0  0  0  0  0  0  0  0  0  0
   58.9020   33.8670   44.8570 C   0  0  0  0  0  0  0  0  0  0  0  0
   59.5300   30.5200   45.8210 N   0  0  0  0  0  0  0  0  0  0  0  0
   59.2170   29.2430   45.6030 N   0  0  0  0  0  0  0  0  0  0  0  0
   56.6200   26.8610   45.7820 C   0  0  0  0  0  0  0  0  0  0  0  0
   56.2400   25.5230   45.5580 C   0  0  0  0  0  0  0  0  0  0  0  0
   55.2940   24.8720   46.3660 O   0  0  0  0  0  0  0  0  0  0  0  0
   55.5420   23.6750   47.0970 C   0  0  0  0  0  0  0  0  0  0  0  0
   57.0004   21.7149   43.3798 H   0  0  0  0  0  0  0  0  0  0  0  0
   55.7401   22.6640   42.5210 H   0  0  0  0  0  0  0  0  0  0  0  0
   57.4453   23.2286   42.5210 H   0  0  0  0  0  0  0  0  0  0  0  0
   58.2136   24.8758   42.8361 H   0  0  0  0  0  0  0  0  0  0  0  0
   58.8749   27.2400   43.2394 H   0  0  0  0  0  0  0  0  0  0  0  0
   59.4267   32.6315   48.0076 H   0  0  0  0  0  0  0  0  0  0  0  0
   60.0233   35.0193   48.4058 H   0  0  0  0  0  0  0  0  0  0  0  0
   59.9066   36.6694   46.5376 H   0  0  0  0  0  0  0  0  0  0  0  0
   59.1845   35.9341   44.2661 H   0  0  0  0  0  0  0  0  0  0  0  0
   58.5864   33.5487   43.8525 H   0  0  0  0  0  0  0  0  0  0  0  0
   59.9490   28.5180   45.7670 H   0  0  0  0  0  0  0  0  0  0  0  0
   56.1633   27.4238   46.6095 H   0  0  0  0  0  0  0  0  0  0  0  0
   55.4979   23.8881   48.1753 H   0  0  0  0  0  0  0  0  0  0  0  0
   54.7804   22.9240   46.8401 H   0  0  0  0  0  0  0  0  0  0  0  0
   56.5393   23.2885   46.8401 H   0  0  0  0  0  0  0  0  0  0  0  0
  1  2  1  0
  2  3  1  0
  3  4  2  0
  4  5  1  0
  5  6  2  0
  6  7  1  0
  7  8  2  0
  8  9  1  0
  9 10  2  0
 10 11  1  0
 11 12  2  0
 12 13  1  0
 13 14  2  0
 14 15  1  0
 15 16  2  0
 10 17  1  0
 17 18  2  0
  6 19  1  0
 19 20  2  0
 20 21  1  0
 21 22  1  0
 20  3  1  0
 18  7  1  0
 16 11  1  0
  1 23  1  0
  1 24  1  0
  1 25  1  0
  4 26  1  0
  5 27  1  0
 12 28  1  0
 13 29  1  0
 14 30  1  0
 15 31  1  0
 16 32  1  0
 18 33  1  0
 19 34  1  0
 22 35  1  0
 22 36  1  0
 22 37  1  0
M  CHG  1  18   1
M  END
>  <UniqueID>  (14) 
12

>  <SMILES>  (14) 
COc1ccc(-c2nnc(-c3ccccc3)n[nH+]2)cc1OC

>  <Energy>  (14) 
45.61314761792299

>  <Genealogy>  (14) 
COc1ccc(-c2nnc(-c3ccccc3)n[nH+]2)cc1OC (protonated)
COc1ccc(-c2nnc(-c3ccccc3)n[nH+]2)cc1OC (3D coordinates assigned)
COc1ccc(-c2nnc(-c3ccccc3)n[nH+]2)cc1OC (optimized conformer: 45.61314761792299 kcal/mol)

>  <smiles>  (14) 
COc1ccc(-c2nnc(-c3ccccc3)nn2)cc1OC

>  <score_type>  (14) 
oracle

>  <origin>  (14) 
adg

>  <m_score__min__energy>  (14) 
-6.04

>  <m_primary>  (14) 
energy

$$$$
14:0
     RDKit          3D

 51 53  0  0  0  0  0  0  0  0999 V2000
   62.3620   32.4000   48.6510 C   0  0  0  0  0  0  0  0  0  0  0  0
   61.4140   31.3350   48.2690 C   0  0  0  0  0  0  0  0  0  0  0  0
   60.3550   31.0770   49.0840 C   0  0  0  0  0  0  0  0  0  0  0  0
   59.4510   30.1100   48.7240 C   0  0  0  0  0  0  0  0  0  0  0  0
   59.5290   29.3560   47.5710 C   0  0  0  0  0  0  0  0  0  0  0  0
   58.7780   28.4310   47.0860 O   0  0  0  0  0  0  0  0  0  0  0  0
   58.0130   27.4900   46.5920 C   0  0  0  0  0  0  0  0  0  0  0  0
   57.0390   27.8980   45.5780 C   0  0  0  0  0  0  0  0  0  0  0  0
   55.8950   27.2850   45.6210 O   0  0  0  0  0  0  0  0  0  0  0  0
   57.1420   28.8490   44.5570 N   0  0  0  0  0  0  0  0  0  0  0  0
   58.3710   29.5010   44.1290 C   0  0  0  0  0  0  0  0  0  0  0  0
   58.2910   30.9740   44.2130 C   0  0  0  0  0  0  0  0  0  0  0  0
   57.0170   31.4410   44.7360 N   0  0  0  0  0  0  0  0  0  0  0  0
   57.0100   32.8600   44.8490 C   0  0  0  0  0  0  0  0  0  0  0  0
   57.9980   33.4490   45.7700 C   0  0  0  0  0  0  0  0  0  0  0  0
   58.9170   34.3400   45.1970 C   0  0  0  0  0  0  0  0  0  0  0  0
   59.8860   34.9700   45.9520 C   0  0  0  0  0  0  0  0  0  0  0  0
   59.9350   34.6980   47.3180 C   0  0  0  0  0  0  0  0  0  0  0  0
   59.0230   33.8180   47.8670 C   0  0  0  0  0  0  0  0  0  0  0  0
   58.0460   33.1790   47.1220 C   0  0  0  0  0  0  0  0  0  0  0  0
   55.8600   30.8350   44.1940 C   0  0  0  0  0  0  0  0  0  0  0  0
   55.9530   29.3770   43.8380 C   0  0  0  0  0  0  0  0  0  0  0  0
   60.6770   29.6880   46.7660 C   0  0  0  0  0  0  0  0  0  0  0  0
   60.8940   28.9510   45.4920 C   0  0  0  0  0  0  0  0  0  0  0  0
   61.5730   30.6410   47.1140 C   0  0  0  0  0  0  0  0  0  0  0  0
   62.4190   32.4641   49.7477 H   0  0  0  0  0  0  0  0  0  0  0  0
   63.3576   32.1676   48.2450 H   0  0  0  0  0  0  0  0  0  0  0  0
   62.0158   33.3620   48.2450 H   0  0  0  0  0  0  0  0  0  0  0  0
   60.2253   31.6379   50.0213 H   0  0  0  0  0  0  0  0  0  0  0  0
   58.6050   29.9226   49.4017 H   0  0  0  0  0  0  0  0  0  0  0  0
   58.6683   26.7318   46.1385 H   0  0  0  0  0  0  0  0  0  0  0  0
   57.4127   27.1307   47.4408 H   0  0  0  0  0  0  0  0  0  0  0  0
   59.1951   29.1556   44.7706 H   0  0  0  0  0  0  0  0  0  0  0  0
   58.5395   29.2358   43.0748 H   0  0  0  0  0  0  0  0  0  0  0  0
   59.0944   31.3324   44.8733 H   0  0  0  0  0  0  0  0  0  0  0  0
   58.3945   31.3697   43.1919 H   0  0  0  0  0  0  0  0  0  0  0  0
   57.1959   33.2763   43.8479 H   0  0  0  0  0  0  0  0  0  0  0  0
   56.0274   33.1144   45.2730 H   0  0  0  0  0  0  0  0  0  0  0  0
   58.8643   34.5423   44.1170 H   0  0  0  0  0  0  0  0  0  0  0  0
   60.5995   35.6672   45.4884 H   0  0  0  0  0  0  0  0  0  0  0  0
   60.6930   35.1797   47.9531 H   0  0  0  0  0  0  0  0  0  0  0  0
   59.0751   33.6151   48.9469 H   0  0  0  0  0  0  0  0  0  0  0  0
   57.3351   32.4825   47.5906 H   0  0  0  0  0  0  0  0  0  0  0  0
   55.0517   30.9450   44.9320 H   0  0  0  0  0  0  0  0  0  0  0  0
   55.6900   31.3511   43.2376 H   0  0  0  0  0  0  0  0  0  0  0  0
   55.0452   28.8469   44.1618 H   0  0  0  0  0  0  0  0  0  0  0  0
   56.0464   29.2352   42.7512 H   0  0  0  0  0  0  0  0  0  0  0  0
   61.1983   27.9174   45.7136 H   0  0  0  0  0  0  0  0  0  0  0  0
   59.9605   28.9416   44.9102 H   0  0  0  0  0  0  0  0  0  0  0  0
   61.6836   29.4490   44.9102 H   0  0  0  0  0  0  0  0  0  0  0  0
   62.4313   30.8531   46.4595 H   0  0  0  0  0  0  0  0  0  0  0  0
  1  2  1  0
  2  3  2  0
  3  4  1  0
  4  5  2  0
  5  6  1  0
  6  7  1  0
  7  8  1  0
  8  9  2  0
  8 10  1  0
 10 11  1  0
 11 12  1  0
 12 13  1  0
 13 14  1  0
 14 15  1  0
 15 16  2  0
 16 17  1  0
 17 18  2  0
 18 19  1  0
 19 20  2  0
 13 21  1  0
 21 22  1  0
  5 23  1  0
 23 24  1  0
 23 25  2  0
 25  2  1  0
 22 10  1  0
 20 15  1  0
  1 26  1  0
  1 27  1  0
  1 28  1  0
  3 29  1  0
  4 30  1  0
  7 31  1  0
  7 32  1  0
 11 33  1  0
 11 34  1  0
 12 35  1  0
 12 36  1  0
 14 37  1  0
 14 38  1  0
 16 39  1  0
 17 40  1  0
 18 41  1  0
 19 42  1  0
 20 43  1  0
 21 44  1  0
 21 45  1  0
 22 46  1  0
 22 47  1  0
 24 48  1  0
 24 49  1  0
 24 50  1  0
 25 51  1  0
M  END
>  <UniqueID>  (15) 
13

>  <SMILES>  (15) 
Cc1ccc(OCC(=O)N2CCN(Cc3ccccc3)CC2)c(C)c1

>  <Energy>  (15) 
189.6107162339552

>  <Genealogy>  (15) 
Cc1ccc(OCC(=O)N2CCN(Cc3ccccc3)CC2)c(C)c1 (3D coordinates assigned)
Cc1ccc(OCC(=O)N2CCN(Cc3ccccc3)CC2)c(C)c1 (nonaromatic ring conformer: 189.6107162339552 kcal/mol)

>  <smiles>  (15) 
Cc1ccc(OCC(=O)N2CCN(Cc3ccccc3)CC2)c(C)c1

>  <score_type>  (15) 
oracle

>  <origin>  (15) 
adg

>  <m_score__min__energy>  (15) 
-7.8200000000000003

>  <m_primary>  (15) 
energy

$$$$
15:0
     RDKit          3D

 36 38  0  0  0  0  0  0  0  0999 V2000
   55.3990   29.7240   44.8590 O   0  0  0  0  0  0  0  0  0  0  0  0
   56.7200   30.2190   44.3410 S   0  0  0  0  0  0  0  0  0  0  0  0
   56.6900   30.2310   42.8370 O   0  0  0  0  0  0  0  0  0  0  0  0
   57.9840   29.1350   44.8920 C   0  0  0  0  0  0  0  0  0  0  0  0
   59.3210   29.2080   44.5330 C   0  0  0  0  0  0  0  0  0  0  0  0
   60.0980   28.2040   45.1220 C   0  0  0  0  0  0  0  0  0  0  0  0
   59.3730   27.3460   45.9400 C   0  0  0  0  0  0  0  0  0  0  0  0
   57.7630   27.8350   45.9320 S   0  0  0  0  0  0  0  0  0  0  0  0
   57.0300   31.8320   44.9390 N   0  0  0  0  0  0  0  0  0  0  0  0
   57.7740   31.7940   46.2200 C   0  0  0  0  0  0  0  0  0  0  0  0
   59.2700   32.1100   46.0460 C   0  0  0  0  0  0  0  0  0  0  0  0
   59.4990   33.4350   45.4150 N   0  0  0  0  0  0  0  0  0  0  0  0
   59.7810   34.4740   46.4270 C   0  0  0  0  0  0  0  0  0  0  0  0
   61.0740   34.1960   47.1320 C   0  0  0  0  0  0  0  0  0  0  0  0
   62.2720   33.8370   46.5280 C   0  0  0  0  0  0  0  0  0  0  0  0
   63.2970   33.5850   47.4460 C   0  0  0  0  0  0  0  0  0  0  0  0
   62.9070   33.7340   48.7720 C   0  0  0  0  0  0  0  0  0  0  0  0
   61.2850   34.1780   48.7990 S   0  0  0  0  0  0  0  0  0  0  0  0
   58.4020   33.8470   44.5020 C   0  0  0  0  0  0  0  0  0  0  0  0
   57.6900   32.6360   43.8910 C   0  0  0  0  0  0  0  0  0  0  0  0
   59.7281   29.9741   43.8567 H   0  0  0  0  0  0  0  0  0  0  0  0
   61.1803   28.1036   44.9533 H   0  0  0  0  0  0  0  0  0  0  0  0
   59.7825   26.4914   46.4985 H   0  0  0  0  0  0  0  0  0  0  0  0
   57.3349   32.5348   46.9044 H   0  0  0  0  0  0  0  0  0  0  0  0
   57.6940   30.7729   46.6212 H   0  0  0  0  0  0  0  0  0  0  0  0
   59.7502   32.1023   47.0356 H   0  0  0  0  0  0  0  0  0  0  0  0
   59.6998   31.3442   45.3836 H   0  0  0  0  0  0  0  0  0  0  0  0
   59.8450   35.4532   45.9299 H   0  0  0  0  0  0  0  0  0  0  0  0
   58.9686   34.4724   47.1686 H   0  0  0  0  0  0  0  0  0  0  0  0
   62.4017   33.7588   45.4385 H   0  0  0  0  0  0  0  0  0  0  0  0
   64.3154   33.2962   47.1469 H   0  0  0  0  0  0  0  0  0  0  0  0
   63.5493   33.5867   49.6528 H   0  0  0  0  0  0  0  0  0  0  0  0
   57.6708   34.4422   45.0687 H   0  0  0  0  0  0  0  0  0  0  0  0
   58.8399   34.4370   43.6834 H   0  0  0  0  0  0  0  0  0  0  0  0
   56.9324   32.9866   43.1747 H   0  0  0  0  0  0  0  0  0  0  0  0
   58.4362   32.0079   43.3823 H   0  0  0  0  0  0  0  0  0  0  0  0
  1  2  2  0
  2  3  2  0
  2  4  1  0
  4  5  2  0
  5  6  1  0
  6  7  2  0
  7  8  1  0
  2  9  1  0
  9 10  1  0
 10 11  1  0
 11 12  1  0
 12 13  1  0
 13 14  1  0
 14 15  2  0
 15 16  1  0
 16 17  2  0
 17 18  1  0
 12 19  1  0
 19 20  1  0
  8  4  1  0
 20  9  1  0
 18 14  1  0
  5 21  1  0
  6 22  1  0
  7 23  1  0
 10 24  1  0
 10 25  1  0
 11 26  1  0
 11 27  1  0
 13 28  1  0
 13 29  1  0
 15 30  1  0
 16 31  1  0
 17 32  1  0
 19 33  1  0
 19 34  1  0
 20 35  1  0
 20 36  1  0
M  END
>  <UniqueID>  (16) 
14

>  <SMILES>  (16) 
O=S(=O)(c1cccs1)N1CCN(Cc2cccs2)CC1

>  <Energy>  (16) 
99.45493302629592

>  <Genealogy>  (16) 
O=S(=O)(c1cccs1)N1CCN(Cc2cccs2)CC1 (3D coordinates assigned)
O=S(=O)(c1cccs1)N1CCN(Cc2cccs2)CC1 (nonaromatic ring conformer: 99.45493302629592 kcal/mol)

>  <smiles>  (16) 
O=S(=O)(c1cccs1)N1CCN(Cc2cccs2)CC1

>  <score_type>  (16) 
oracle

>  <origin>  (16) 
adg

>  <m_score__min__energy>  (16) 
-8.1699999999999999

>  <m_primary>  (16) 
energy

$$$$
16:0
     RDKit          3D

 66 70  0  0  0  0  0  0  0  0999 V2000
   58.5030   33.0950   46.9610 C   0  0  0  0  0  0  0  0  0  0  0  0
   58.4780   31.7690   46.7310 C   0  0  0  0  0  0  0  0  0  0  0  0
   57.8210   31.2770   45.4940 C   0  0  0  0  0  0  0  0  0  0  0  0
   56.9990   32.0200   44.8830 O   0  0  0  0  0  0  0  0  0  0  0  0
   58.0530   29.8960   44.9420 C   0  0  0  0  0  0  0  0  0  0  0  0
   59.0890   29.0190   45.7160 C   0  0  2  0  0  0  0  0  0  0  0  0
   60.5200   29.3420   45.2190 C   0  0  0  0  0  0  0  0  0  0  0  0
   58.7890   27.5270   45.4250 C   0  0  0  0  0  0  0  0  0  0  0  0
   58.9750   26.5910   46.3880 C   0  0  0  0  0  0  0  0  0  0  0  0
   59.9310   26.9490   47.5030 C   0  0  0  0  0  0  0  0  0  0  0  0
   59.5070   28.2330   48.2110 C   0  0  0  0  0  0  0  0  0  0  0  0
   58.8950   29.3080   47.2540 C   0  0  1  0  0  0  0  0  0  0  0  0
   59.1650   30.8000   47.7020 C   0  0  0  0  0  0  0  0  0  0  0  0
   58.5410   30.9860   49.1150 C   0  0  0  0  0  0  0  0  0  0  0  0
   60.6790   31.1710   47.7710 C   0  0  0  0  0  0  0  0  0  0  0  0
   58.4290   25.1460   46.2830 C   0  0  1  0  0  0  0  0  0  0  0  0
   59.6210   24.2100   45.9860 C   0  0  0  0  0  0  0  0  0  0  0  0
   57.7790   24.7370   47.6680 C   0  0  0  0  0  0  0  0  0  0  0  0
   56.2810   24.4420   47.6110 C   0  0  0  0  0  0  0  0  0  0  0  0
   55.9970   23.4790   46.4630 C   0  0  2  0  0  0  0  0  0  0  0  0
   56.3940   24.1270   45.1690 C   0  0  0  0  0  0  0  0  0  0  0  0
   57.4480   24.9830   45.0980 C   0  0  0  0  0  0  0  0  0  0  0  0
   57.7200   25.7980   43.8950 C   0  0  0  0  0  0  0  0  0  0  0  0
   57.4020   25.4140   42.7380 O   0  0  0  0  0  0  0  0  0  0  0  0
   58.3980   27.0760   44.0660 C   0  0  0  0  0  0  0  0  0  0  0  0
   58.6990   27.7550   43.0450 O   0  0  0  0  0  0  0  0  0  0  0  0
   55.3500   23.9210   44.1080 C   0  0  1  0  0  0  0  0  0  0  0  0
   55.7580   22.8200   43.1210 C   0  0  0  0  0  0  0  0  0  0  0  0
   54.1810   23.4670   44.9050 C   0  0  0  0  0  0  0  0  0  0  0  0
   53.0570   23.3870   44.4350 O   0  0  0  0  0  0  0  0  0  0  0  0
   54.4910   23.1630   46.3330 C   0  0  1  0  0  0  0  0  0  0  0  0
   54.1770   21.7020   46.6680 C   0  0  0  0  0  0  0  0  0  0  0  0
   58.9833   33.4866   47.8698 H   0  0  0  0  0  0  0  0  0  0  0  0
   58.0431   33.7870   46.2402 H   0  0  0  0  0  0  0  0  0  0  0  0
   57.0900   29.3643   44.9474 H   0  0  0  0  0  0  0  0  0  0  0  0
   58.4775   30.0432   43.9379 H   0  0  0  0  0  0  0  0  0  0  0  0
   61.1834   29.4917   46.0836 H   0  0  0  0  0  0  0  0  0  0  0  0
   60.8942   28.5057   44.6102 H   0  0  0  0  0  0  0  0  0  0  0  0
   60.4987   30.2579   44.6102 H   0  0  0  0  0  0  0  0  0  0  0  0
   59.9515   26.1274   48.2342 H   0  0  0  0  0  0  0  0  0  0  0  0
   60.9278   27.1083   47.0659 H   0  0  0  0  0  0  0  0  0  0  0  0
   58.7549   27.9775   48.9720 H   0  0  0  0  0  0  0  0  0  0  0  0
   60.4153   28.6730   48.6485 H   0  0  0  0  0  0  0  0  0  0  0  0
   57.8085   29.1921   47.3810 H   0  0  0  0  0  0  0  0  0  0  0  0
   59.2966   30.7608   49.8820 H   0  0  0  0  0  0  0  0  0  0  0  0
   58.1992   32.0251   49.2310 H   0  0  0  0  0  0  0  0  0  0  0  0
   57.6861   30.3036   49.2310 H   0  0  0  0  0  0  0  0  0  0  0  0
   60.9902   31.2473   48.8233 H   0  0  0  0  0  0  0  0  0  0  0  0
   61.2708   30.3913   47.2692 H   0  0  0  0  0  0  0  0  0  0  0  0
   60.8433   32.1360   47.2692 H   0  0  0  0  0  0  0  0  0  0  0  0
   60.0609   23.8646   46.9332 H   0  0  0  0  0  0  0  0  0  0  0  0
   59.2709   23.3430   45.4066 H   0  0  0  0  0  0  0  0  0  0  0  0
   60.3803   24.7558   45.4066 H   0  0  0  0  0  0  0  0  0  0  0  0
   58.2917   23.8350   48.0334 H   0  0  0  0  0  0  0  0  0  0  0  0
   57.8985   25.6043   48.3340 H   0  0  0  0  0  0  0  0  0  0  0  0
   55.9604   23.9867   48.5596 H   0  0  0  0  0  0  0  0  0  0  0  0
   55.7281   25.3791   47.4494 H   0  0  0  0  0  0  0  0  0  0  0  0
   56.5600   22.5572   46.6710 H   0  0  0  0  0  0  0  0  0  0  0  0
   55.1734   24.8205   43.5000 H   0  0  0  0  0  0  0  0  0  0  0  0
   56.0874   21.9311   43.6789 H   0  0  0  0  0  0  0  0  0  0  0  0
   54.8974   22.5576   42.4881 H   0  0  0  0  0  0  0  0  0  0  0  0
   56.5818   23.1818   42.4881 H   0  0  0  0  0  0  0  0  0  0  0  0
   53.8848   23.7511   47.0377 H   0  0  0  0  0  0  0  0  0  0  0  0
   54.1495   21.5740   47.7602 H   0  0  0  0  0  0  0  0  0  0  0  0
   53.1999   21.4300   46.2422 H   0  0  0  0  0  0  0  0  0  0  0  0
   54.9561   21.0526   46.2422 H   0  0  0  0  0  0  0  0  0  0  0  0
  1  2  2  0
  2  3  1  0
  3  4  2  0
  3  5  1  0
  5  6  1  0
  6  7  1  6
  6  8  1  0
  8  9  2  0
  9 10  1  0
 10 11  1  0
 11 12  1  0
 12 13  1  0
 13 14  1  0
 13 15  1  0
  9 16  1  0
 16 17  1  6
 16 18  1  0
 18 19  1  0
 19 20  1  0
 20 21  1  0
 21 22  2  0
 22 23  1  0
 23 24  2  0
 23 25  1  0
 25 26  2  0
 21 27  1  0
 27 28  1  0
 27 29  1  0
 29 30  2  0
 29 31  1  0
 31 32  1  0
 13  2  1  0
 22 16  1  0
 12  6  1  0
 31 20  1  0
 25  8  1  0
  1 33  1  0
  1 34  1  0
  5 35  1  0
  5 36  1  0
  7 37  1  0
  7 38  1  0
  7 39  1  0
 10 40  1  0
 10 41  1  0
 11 42  1  0
 11 43  1  0
 12 44  1  6
 14 45  1  0
 14 46  1  0
 14 47  1  0
 15 48  1  0
 15 49  1  0
 15 50  1  0
 17 51  1  0
 17 52  1  0
 17 53  1  0
 18 54  1  0
 18 55  1  0
 19 56  1  0
 19 57  1  0
 20 58  1  1
 27 59  1  6
 28 60  1  0
 28 61  1  0
 28 62  1  0
 31 63  1  1
 32 64  1  0
 32 65  1  0
 32 66  1  0
M  END
>  <UniqueID>  (17) 
15

>  <SMILES>  (17) 
C=C1C(=O)C[C@]2(C)C3=C(CC[C@H]2C1(C)C)C1(C)CCC2C(=C1C(=O)C3=O)C(C)C(=O)C2C

>  <Energy>  (17) 
111.92764678656229

>  <Genealogy>  (17) 
C=C1C(=O)C[C@]2(C)C3=C(CC[C@H]2C1(C)C)C1(C)CCC2C(=C1C(=O)C3=O)C(C)C(=O)C2C (chirality)
C=C1C(=O)C[C@]2(C)C3=C(CC[C@H]2C1(C)C)C1(C)CCC2C(=C1C(=O)C3=O)C(C)C(=O)C2C (3D coordinates assigned)
C=C1C(=O)C[C@]2(C)C3=C(CC[C@H]2C1(C)C)C1(C)CCC2C(=C1C(=O)C3=O)C(C)C(=O)C2C (nonaromatic ring conformer: 111.92764678656229 kcal/mol)

>  <smiles>  (17) 
C=C1C(=O)CC2(C)C3=C(CCC2C1(C)C)C1(C)CCC2C(=C1C(=O)C3=O)C(C)C(=O)C2C

>  <score_type>  (17) 
oracle

>  <origin>  (17) 
adg

>  <m_score__min__energy>  (17) 
-10.119999999999999

>  <m_primary>  (17) 
energy

$$$$
17:0
     RDKit          3D

 53 56  0  0  0  0  0  0  0  0999 V2000
   56.6370   21.4380   43.2100 C   0  0  0  0  0  0  0  0  0  0  0  0
   55.9530   21.5840   44.5650 C   0  0  0  0  0  0  0  0  0  0  0  0
   55.8320   23.0080   44.9300 N   0  0  0  0  0  0  0  0  0  0  0  0
   54.5940   23.5390   45.2620 C   0  0  0  0  0  0  0  0  0  0  0  0
   53.5590   22.8200   45.2390 O   0  0  0  0  0  0  0  0  0  0  0  0
   54.4740   24.8520   45.6240 N   0  0  0  0  0  0  0  0  0  0  0  0
   55.5870   25.6180   45.6600 C   0  0  0  0  0  0  0  0  0  0  0  0
   55.6560   26.9120   45.9960 N   0  0  0  0  0  0  0  0  0  0  0  0
   56.9910   27.1650   45.8770 C   0  0  0  0  0  0  0  0  0  0  0  0
   57.5830   28.4930   46.1500 C   0  0  0  0  0  0  0  0  0  0  0  0
   57.4290   29.5460   45.2330 C   0  0  0  0  0  0  0  0  0  0  0  0
   57.9910   30.8000   45.4910 C   0  0  0  0  0  0  0  0  0  0  0  0
   58.7090   31.0200   46.6740 C   0  0  0  0  0  0  0  0  0  0  0  0
   59.4450   32.5900   46.9960 S   0  0  0  0  0  0  0  0  0  0  0  0
   58.7170   33.6620   46.2340 O   0  0  0  0  0  0  0  0  0  0  0  0
   59.3300   32.8830   48.4670 O   0  0  0  0  0  0  0  0  0  0  0  0
   61.1290   32.5630   46.5330 N   0  0  0  0  0  0  0  0  0  0  0  0
   61.7750   33.8400   46.9020 C   0  0  0  0  0  0  0  0  0  0  0  0
   63.2970   33.6810   46.9940 C   0  0  0  0  0  0  0  0  0  0  0  0
   63.6970   32.7160   48.0570 N   0  0  0  0  0  0  0  0  0  0  0  0
   64.0890   33.4370   49.2940 C   0  0  0  0  0  0  0  0  0  0  0  0
   65.3320   32.8320   49.9600 C   0  0  0  0  0  0  0  0  0  0  0  0
   62.6460   31.6990   48.3360 C   0  0  0  0  0  0  0  0  0  0  0  0
   61.8150   31.3700   47.0840 C   0  0  0  0  0  0  0  0  0  0  0  0
   58.8720   29.9730   47.5880 C   0  0  0  0  0  0  0  0  0  0  0  0
   58.3110   28.7190   47.3320 C   0  0  0  0  0  0  0  0  0  0  0  0
   57.7320   26.0900   45.4870 N   0  0  0  0  0  0  0  0  0  0  0  0
   56.8040   25.1310   45.3600 C   0  0  0  0  0  0  0  0  0  0  0  0
   56.9570   23.8030   44.9910 C   0  0  0  0  0  0  0  0  0  0  0  0
   58.1030   23.3470   44.7250 O   0  0  0  0  0  0  0  0  0  0  0  0
   57.7027   21.2105   43.3599 H   0  0  0  0  0  0  0  0  0  0  0  0
   56.1634   20.6207   42.6463 H   0  0  0  0  0  0  0  0  0  0  0  0
   56.5383   22.3774   42.6463 H   0  0  0  0  0  0  0  0  0  0  0  0
   54.9494   21.1364   44.5143 H   0  0  0  0  0  0  0  0  0  0  0  0
   56.5581   21.0709   45.3269 H   0  0  0  0  0  0  0  0  0  0  0  0
   56.8618   29.3827   44.3047 H   0  0  0  0  0  0  0  0  0  0  0  0
   57.8692   31.6160   44.7634 H   0  0  0  0  0  0  0  0  0  0  0  0
   61.5381   34.5963   46.1392 H   0  0  0  0  0  0  0  0  0  0  0  0
   61.3958   34.1523   47.8862 H   0  0  0  0  0  0  0  0  0  0  0  0
   63.6749   33.3194   46.0263 H   0  0  0  0  0  0  0  0  0  0  0  0
   63.7251   34.6618   47.2486 H   0  0  0  0  0  0  0  0  0  0  0  0
   64.5460   32.2100   47.7060 H   0  0  0  0  0  0  0  0  0  0  0  0
   64.3012   34.4856   49.0385 H   0  0  0  0  0  0  0  0  0  0  0  0
   63.2552   33.3542   50.0067 H   0  0  0  0  0  0  0  0  0  0  0  0
   65.2243   32.8844   51.0535 H   0  0  0  0  0  0  0  0  0  0  0  0
   65.4383   31.7814   49.6520 H   0  0  0  0  0  0  0  0  0  0  0  0
   66.2244   33.3965   49.6520 H   0  0  0  0  0  0  0  0  0  0  0  0
   63.1293   30.7778   48.6935 H   0  0  0  0  0  0  0  0  0  0  0  0
   61.9664   32.1126   49.0956 H   0  0  0  0  0  0  0  0  0  0  0  0
   62.4841   30.9596   46.3134 H   0  0  0  0  0  0  0  0  0  0  0  0
   61.0426   30.6429   47.3750 H   0  0  0  0  0  0  0  0  0  0  0  0
   59.4446   30.1379   48.5126 H   0  0  0  0  0  0  0  0  0  0  0  0
   58.4395   27.9038   48.0593 H   0  0  0  0  0  0  0  0  0  0  0  0
  1  2  1  0
  2  3  1  0
  3  4  1  0
  4  5  2  0
  4  6  1  0
  6  7  1  0
  7  8  1  0
  8  9  1  0
  9 10  1  0
 10 11  2  0
 11 12  1  0
 12 13  2  0
 13 14  1  0
 14 15  2  0
 14 16  2  0
 14 17  1  0
 17 18  1  0
 18 19  1  0
 19 20  1  0
 20 21  1  0
 21 22  1  0
 20 23  1  0
 23 24  1  0
 13 25  1  0
 25 26  2  0
  9 27  2  0
 27 28  1  0
 28 29  1  0
 29 30  2  0
 29  3  1  0
 28  7  2  0
 26 10  1  0
 24 17  1  0
  1 31  1  0
  1 32  1  0
  1 33  1  0
  2 34  1  0
  2 35  1  0
 11 36  1  0
 12 37  1  0
 18 38  1  0
 18 39  1  0
 19 40  1  0
 19 41  1  0
 20 42  1  0
 21 43  1  0
 21 44  1  0
 22 45  1  0
 22 46  1  0
 22 47  1  0
 23 48  1  0
 23 49  1  0
 24 50  1  0
 24 51  1  0
 25 52  1  0
 26 53  1  0
M  CHG  3   6  -1   8  -1  20   1
M  END
>  <UniqueID>  (18) 
16

>  <SMILES>  (18) 
CCn1c(=O)[n-]c2[n-]c(-c3ccc(S(=O)(=O)N4CC[NH+](CC)CC4)cc3)nc2c1=O

>  <Energy>  (18) 
105.33060776849481

>  <Genealogy>  (18) 
CCn1c(=O)[n-]c2[n-]c(-c3ccc(S(=O)(=O)N4CC[NH+](CC)CC4)cc3)nc2c1=O (protonated)
CCn1c(=O)[n-]c2[n-]c(-c3ccc(S(=O)(=O)N4CC[NH+](CC)CC4)cc3)nc2c1=O (3D coordinates assigned)
CCn1c(=O)[n-]c2[n-]c(-c3ccc(S(=O)(=O)N4CC[NH+](CC)CC4)cc3)nc2c1=O (nonaromatic ring conformer: 105.33060776849481 kcal/mol)

>  <smiles>  (18) 
CCN1CCN(S(=O)(=O)c2ccc(-c3nc4c(=O)n(CC)c(=O)[nH]c4[nH]3)cc2)CC1

>  <score_type>  (18) 
oracle

>  <origin>  (18) 
adg

>  <m_score__min__energy>  (18) 
-11.18

>  <m_primary>  (18) 
energy

$$$$
18:0
     RDKit          3D

 25 26  0  0  0  0  0  0  0  0999 V2000
   59.1800   34.5900   45.8280 C   0  0  0  0  0  0  0  0  0  0  0  0
   58.3540   34.0760   46.8320 C   0  0  0  0  0  0  0  0  0  0  0  0
   57.4230   33.0760   46.5320 C   0  0  0  0  0  0  0  0  0  0  0  0
   57.3110   32.5840   45.2160 C   0  0  0  0  0  0  0  0  0  0  0  0
   56.3920   31.5840   44.8560 O   0  0  0  0  0  0  0  0  0  0  0  0
   56.6360   30.5430   43.9110 C   0  0  0  0  0  0  0  0  0  0  0  0
   57.2740   29.3590   44.5780 C   0  0  0  0  0  0  0  0  0  0  0  0
   58.6600   29.1520   44.5040 C   0  0  0  0  0  0  0  0  0  0  0  0
   59.2180   28.0300   45.1210 C   0  0  0  0  0  0  0  0  0  0  0  0
   58.3950   27.1260   45.7940 C   0  0  0  0  0  0  0  0  0  0  0  0
   57.0180   27.3560   45.8370 C   0  0  0  0  0  0  0  0  0  0  0  0
   56.4920   28.4540   45.2310 N   0  0  0  0  0  0  0  0  0  0  0  0
   58.1470   33.1050   44.2190 C   0  0  0  0  0  0  0  0  0  0  0  0
   59.0770   34.1040   44.5230 C   0  0  0  0  0  0  0  0  0  0  0  0
   59.9108   35.3770   46.0660 H   0  0  0  0  0  0  0  0  0  0  0  0
   58.4364   34.4587   47.8600 H   0  0  0  0  0  0  0  0  0  0  0  0
   56.7766   32.6725   47.3253 H   0  0  0  0  0  0  0  0  0  0  0  0
   55.6814   30.2328   43.4611 H   0  0  0  0  0  0  0  0  0  0  0  0
   57.3182   30.9221   43.1359 H   0  0  0  0  0  0  0  0  0  0  0  0
   59.3005   29.8661   43.9656 H   0  0  0  0  0  0  0  0  0  0  0  0
   60.3038   27.8593   45.0765 H   0  0  0  0  0  0  0  0  0  0  0  0
   58.8263   26.2415   46.2855 H   0  0  0  0  0  0  0  0  0  0  0  0
   56.3586   26.6487   46.3613 H   0  0  0  0  0  0  0  0  0  0  0  0
   58.0710   32.7251   43.1895 H   0  0  0  0  0  0  0  0  0  0  0  0
   59.7280   34.5074   43.7334 H   0  0  0  0  0  0  0  0  0  0  0  0
  1  2  2  0
  2  3  1  0
  3  4  2  0
  4  5  1  0
  5  6  1  0
  6  7  1  0
  7  8  2  0
  8  9  1  0
  9 10  2  0
 10 11  1  0
 11 12  2  0
  4 13  1  0
 13 14  2  0
 14  1  1  0
 12  7  1  0
  1 15  1  0
  2 16  1  0
  3 17  1  0
  6 18  1  0
  6 19  1  0
  8 20  1  0
  9 21  1  0
 10 22  1  0
 11 23  1  0
 13 24  1  0
 14 25  1  0
M  END
>  <UniqueID>  (19) 
17

>  <SMILES>  (19) 
c1ccc(OCc2ccccn2)cc1

>  <Energy>  (19) 
25.92092941585522

>  <Genealogy>  (19) 
c1ccc(OCc2ccccn2)cc1 (3D coordinates assigned)
c1ccc(OCc2ccccn2)cc1 (optimized conformer: 25.92092941585522 kcal/mol)

>  <smiles>  (19) 
c1ccc(OCc2ccccn2)cc1

>  <score_type>  (19) 
oracle

>  <origin>  (19) 
adg

>  <m_score__min__energy>  (19) 
-5.9199999999999999

>  <m_primary>  (19) 
energy

$$$$
19:0
     RDKit          3D

 30 31  0  0  0  0  0  0  0  0999 V2000
   54.5983   24.8149   46.2959 H   0  0  0  0  0  0  0  0  0  0  0  0
   55.5230   25.3480   46.0300 C   0  0  0  0  0  0  0  0  0  0  0  0
   55.5260   26.7060   45.9470 N   0  0  0  0  0  0  0  0  0  0  0  0
   56.6380   27.4170   45.6170 C   0  0  0  0  0  0  0  0  0  0  0  0
   56.5450   28.7170   45.5710 N   0  0  0  0  0  0  0  0  0  0  0  0
   55.9650   29.5520   44.5530 C   0  0  0  0  0  0  0  0  0  0  0  0
   54.7850   29.3510   44.1570 O   0  0  0  0  0  0  0  0  0  0  0  0
   56.7260   30.7140   44.0320 C   0  0  0  0  0  0  0  0  0  0  0  0
   56.9790   30.8390   42.6530 C   0  0  0  0  0  0  0  0  0  0  0  0
   56.6153   30.0676   41.9583 H   0  0  0  0  0  0  0  0  0  0  0  0
   57.6900   31.9380   42.1610 C   0  0  0  0  0  0  0  0  0  0  0  0
   57.8785   32.0301   41.0812 H   0  0  0  0  0  0  0  0  0  0  0  0
   58.1610   32.9180   43.0350 C   0  0  0  0  0  0  0  0  0  0  0  0
   58.7141   33.7834   42.6411 H   0  0  0  0  0  0  0  0  0  0  0  0
   57.9320   32.8040   44.4140 C   0  0  0  0  0  0  0  0  0  0  0  0
   58.4130   33.8790   45.3530 C   0  0  0  0  0  0  0  0  0  0  0  0
   58.1347   34.8632   44.9482 H   0  0  0  0  0  0  0  0  0  0  0  0
   59.5060   33.8017   45.4495 H   0  0  0  0  0  0  0  0  0  0  0  0
   57.7850   33.7090   46.7330 C   0  0  0  0  0  0  0  0  0  0  0  0
   58.5396   33.9133   47.5069 H   0  0  0  0  0  0  0  0  0  0  0  0
   56.9466   34.4125   46.8435 H   0  0  0  0  0  0  0  0  0  0  0  0
   57.4160   32.6786   46.8435 H   0  0  0  0  0  0  0  0  0  0  0  0
   57.2050   31.7080   44.9050 C   0  0  0  0  0  0  0  0  0  0  0  0
   57.0077   31.6254   45.9840 H   0  0  0  0  0  0  0  0  0  0  0  0
   57.8440   26.7210   45.3750 C   0  0  0  0  0  0  0  0  0  0  0  0
   58.7631   27.2724   45.1275 H   0  0  0  0  0  0  0  0  0  0  0  0
   57.8580   25.3260   45.4530 C   0  0  0  0  0  0  0  0  0  0  0  0
   58.7892   24.7739   45.2580 H   0  0  0  0  0  0  0  0  0  0  0  0
   56.6920   24.6330   45.7780 C   0  0  0  0  0  0  0  0  0  0  0  0
   56.6953   23.5345   45.8347 H   0  0  0  0  0  0  0  0  0  0  0  0
  1  2  1  0
  2  3  1  0
  3  4  1  0
  4  5  2  0
  5  6  1  0
  6  7  2  0
  6  8  1  0
  8  9  2  0
  9 10  1  0
  9 11  1  0
 11 12  1  0
 11 13  2  0
 13 14  1  0
 13 15  1  0
 15 16  1  0
 16 17  1  0
 16 18  1  0
 16 19  1  0
 19 20  1  0
 19 21  1  0
 19 22  1  0
 15 23  2  0
 23 24  1  0
  4 25  1  0
 25 26  1  0
 25 27  2  0
 27 28  1  0
 27 29  1  0
 29 30  1  0
 29  2  2  0
 23  8  1  0
M  CHG  1   3  -1
M  END
>  <UniqueID>  (20) 
18

>  <SMILES>  (20) 
CCc1cccc(C(=O)/N=c2\cccc[n-]2)c1

>  <Energy>  (20) 
36.33474227591534

>  <Genealogy>  (20) 
CCc1cccc(C(=O)N=c2cccc[n-]2)c1 (protonated)
CCc1cccc(C(=O)/N=c2\cccc[n-]2)c1 (cis-trans isomerization)
CCc1cccc(C(=O)/N=c2\cccc[n-]2)c1 (3D coordinates assigned)
CCc1cccc(C(=O)/N=c2\cccc[n-]2)c1 (optimized conformer: 36.33474227591534 kcal/mol)

>  <smiles>  (20) 
CCc1cccc(C(=O)N=c2cccc[nH]2)c1

>  <score_type>  (20) 
oracle

>  <origin>  (20) 
adg

>  <m_score__min__energy>  (20) 
-8.9499999999999993

>  <m_primary>  (20) 
energy

$$$$
20:0
     RDKit          3D

 39 41  0  0  0  0  0  0  0  0999 V2000
   57.4210   33.4550   44.6020 C   0  0  0  0  0  0  0  0  0  0  0  0
   58.8860   33.5280   45.0600 C   0  0  1  0  0  0  0  0  0  0  0  0
   59.2050   34.9620   45.5270 C   0  0  0  0  0  0  0  0  0  0  0  0
   60.3430   34.9830   46.3540 O   0  0  0  0  0  0  0  0  0  0  0  0
   60.0160   34.3610   47.5760 C   0  0  0  0  0  0  0  0  0  0  0  0
   59.8110   32.8580   47.3860 C   0  0  0  0  0  0  0  0  0  0  0  0
   59.1600   32.5170   46.1080 N   0  0  0  0  0  0  0  0  0  0  0  0
   58.9170   31.1120   45.8630 C   0  0  0  0  0  0  0  0  0  0  0  0
   58.7390   30.1960   46.9120 C   0  0  0  0  0  0  0  0  0  0  0  0
   58.4970   28.8570   46.6170 C   0  0  0  0  0  0  0  0  0  0  0  0
   58.4260   28.4540   45.2850 C   0  0  0  0  0  0  0  0  0  0  0  0
   58.1750   27.0740   44.9570 C   0  0  0  0  0  0  0  0  0  0  0  0
   57.9640   25.9190   44.6840 C   0  0  0  0  0  0  0  0  0  0  0  0
   57.7110   24.5400   44.3580 C   0  0  0  0  0  0  0  0  0  0  0  0
   58.4790   23.5270   44.9480 C   0  0  0  0  0  0  0  0  0  0  0  0
   58.2320   22.1880   44.6310 C   0  0  0  0  0  0  0  0  0  0  0  0
   57.2210   21.8560   43.7240 C   0  0  0  0  0  0  0  0  0  0  0  0
   56.4520   22.8670   43.1330 C   0  0  0  0  0  0  0  0  0  0  0  0
   55.4720   22.5450   42.2550 F   0  0  0  0  0  0  0  0  0  0  0  0
   56.6960   24.2070   43.4490 C   0  0  0  0  0  0  0  0  0  0  0  0
   58.5910   29.3760   44.2970 N   0  0  0  0  0  0  0  0  0  0  0  0
   58.8250   30.6580   44.5820 N   0  0  0  0  0  0  0  0  0  0  0  0
   56.7627   33.4222   45.4827 H   0  0  0  0  0  0  0  0  0  0  0  0
   57.1811   34.3423   43.9977 H   0  0  0  0  0  0  0  0  0  0  0  0
   57.2705   32.5482   43.9977 H   0  0  0  0  0  0  0  0  0  0  0  0
   59.5510   33.2906   44.2165 H   0  0  0  0  0  0  0  0  0  0  0  0
   59.3892   35.5943   44.6460 H   0  0  0  0  0  0  0  0  0  0  0  0
   58.3476   35.3415   46.1022 H   0  0  0  0  0  0  0  0  0  0  0  0
   60.8334   34.5250   48.2936 H   0  0  0  0  0  0  0  0  0  0  0  0
   59.0798   34.7983   47.9532 H   0  0  0  0  0  0  0  0  0  0  0  0
   60.7933   32.3642   47.4205 H   0  0  0  0  0  0  0  0  0  0  0  0
   59.1468   32.5144   48.1927 H   0  0  0  0  0  0  0  0  0  0  0  0
   58.7903   30.5332   47.9578 H   0  0  0  0  0  0  0  0  0  0  0  0
   58.3633   28.1249   47.4270 H   0  0  0  0  0  0  0  0  0  0  0  0
   59.2762   23.7855   45.6605 H   0  0  0  0  0  0  0  0  0  0  0  0
   58.8344   21.3938   45.0962 H   0  0  0  0  0  0  0  0  0  0  0  0
   57.0296   20.8019   43.4747 H   0  0  0  0  0  0  0  0  0  0  0  0
   56.0918   25.0003   42.9846 H   0  0  0  0  0  0  0  0  0  0  0  0
   58.5340   29.0840   43.2960 H   0  0  0  0  0  0  0  0  0  0  0  0
  1  2  1  0
  2  3  1  0
  3  4  1  0
  4  5  1  0
  5  6  1  0
  6  7  1  0
  7  8  1  0
  8  9  2  0
  9 10  1  0
 10 11  2  0
 11 12  1  0
 12 13  3  0
 13 14  1  0
 14 15  2  0
 15 16  1  0
 16 17  2  0
 17 18  1  0
 18 19  1  0
 18 20  2  0
 11 21  1  0
 21 22  2  0
  7  2  1  0
 22  8  1  0
 20 14  1  0
  1 23  1  0
  1 24  1  0
  1 25  1  0
  2 26  1  6
  3 27  1  0
  3 28  1  0
  5 29  1  0
  5 30  1  0
  6 31  1  0
  6 32  1  0
  9 33  1  0
 10 34  1  0
 15 35  1  0
 16 36  1  0
 17 37  1  0
 20 38  1  0
 21 39  1  0
M  CHG  1  21   1
M  END
>  <UniqueID>  (21) 
19

>  <SMILES>  (21) 
C[C@H]1COCCN1c1ccc(C#Cc2cccc(F)c2)[nH+]n1

>  <Energy>  (21) 
42.80579451359573

>  <Genealogy>  (21) 
CC1COCCN1c1ccc(C#Cc2cccc(F)c2)[nH+]n1 (protonated)
C[C@H]1COCCN1c1ccc(C#Cc2cccc(F)c2)[nH+]n1 (chirality)
C[C@H]1COCCN1c1ccc(C#Cc2cccc(F)c2)[nH+]n1 (3D coordinates assigned)
C[C@H]1COCCN1c1ccc(C#Cc2cccc(F)c2)[nH+]n1 (nonaromatic ring conformer: 42.80579451359573 kcal/mol)

>  <smiles>  (21) 
CC1COCCN1c1ccc(C#Cc2cccc(F)c2)nn1

>  <score_type>  (21) 
oracle

>  <origin>  (21) 
adg

>  <m_score__min__energy>  (21) 
-5.5099999999999998

>  <m_primary>  (21) 
energy

$$$$
21:0
     RDKit          3D

 29 30  0  0  0  0  0  0  0  0999 V2000
   63.0210   33.7250   46.8740 C   0  0  0  0  0  0  0  0  0  0  0  0
   62.3280   33.5330   48.2190 C   0  0  0  0  0  0  0  0  0  0  0  0
   61.0470   34.1570   48.2180 O   0  0  0  0  0  0  0  0  0  0  0  0
   60.0940   33.9730   47.2090 C   0  0  0  0  0  0  0  0  0  0  0  0
   59.2880   34.9650   46.7760 N   0  0  0  0  0  0  0  0  0  0  0  0
   58.4480   34.5930   45.8120 N   0  0  0  0  0  0  0  0  0  0  0  0
   58.5680   33.2880   45.4810 C   0  0  0  0  0  0  0  0  0  0  0  0
   57.7890   32.6390   44.3880 C   0  0  0  0  0  0  0  0  0  0  0  0
   56.6440   31.9430   44.9640 N   0  0  0  0  0  0  0  0  0  0  0  0
   56.5600   30.3260   44.3340 S   0  0  0  0  0  0  0  0  0  0  0  0
   55.3080   29.6630   44.8330 O   0  0  0  0  0  0  0  0  0  0  0  0
   56.5230   30.3670   42.8320 O   0  0  0  0  0  0  0  0  0  0  0  0
   57.9490   29.3950   44.8670 C   0  0  0  0  0  0  0  0  0  0  0  0
   59.2640   29.6290   44.4940 C   0  0  0  0  0  0  0  0  0  0  0  0
   60.1600   28.7070   45.0490 C   0  0  0  0  0  0  0  0  0  0  0  0
   59.5400   27.7560   45.8480 C   0  0  0  0  0  0  0  0  0  0  0  0
   60.4130   26.3350   46.7700 Br  0  0  0  0  0  0  0  0  0  0  0  0
   57.8840   28.0480   45.8720 S   0  0  0  0  0  0  0  0  0  0  0  0
   59.7790   32.5340   46.3820 S   0  0  0  0  0  0  0  0  0  0  0  0
   64.0690   34.0153   47.0396 H   0  0  0  0  0  0  0  0  0  0  0  0
   62.9867   32.7835   46.3062 H   0  0  0  0  0  0  0  0  0  0  0  0
   62.5071   34.5146   46.3062 H   0  0  0  0  0  0  0  0  0  0  0  0
   62.2056   32.4570   48.4120 H   0  0  0  0  0  0  0  0  0  0  0  0
   62.9455   33.9933   49.0044 H   0  0  0  0  0  0  0  0  0  0  0  0
   59.3170   35.9400   47.1480 H   0  0  0  0  0  0  0  0  0  0  0  0
   57.4367   33.4055   43.6820 H   0  0  0  0  0  0  0  0  0  0  0  0
   58.4285   31.9204   43.8545 H   0  0  0  0  0  0  0  0  0  0  0  0
   59.5709   30.4521   43.8319 H   0  0  0  0  0  0  0  0  0  0  0  0
   61.2450   28.7336   44.8700 H   0  0  0  0  0  0  0  0  0  0  0  0
  1  2  1  0
  2  3  1  0
  3  4  1  0
  4  5  2  0
  5  6  1  0
  6  7  2  0
  7  8  1  0
  8  9  1  0
  9 10  1  0
 10 11  2  0
 10 12  2  0
 10 13  1  0
 13 14  2  0
 14 15  1  0
 15 16  2  0
 16 17  1  0
 16 18  1  0
  7 19  1  0
 19  4  1  0
 18 13  1  0
  1 20  1  0
  1 21  1  0
  1 22  1  0
  2 23  1  0
  2 24  1  0
  5 25  1  0
  8 26  1  0
  8 27  1  0
 14 28  1  0
 15 29  1  0
M  CHG  2   5   1   9  -1
M  END
>  <UniqueID>  (22) 
20

>  <SMILES>  (22) 
CCOc1[nH+]nc(C[N-]S(=O)(=O)c2ccc(Br)s2)s1

>  <Energy>  (22) 
81.8025214868996

>  <Genealogy>  (22) 
CCOc1[nH+]nc(C[N-]S(=O)(=O)c2ccc(Br)s2)s1 (protonated)
CCOc1[nH+]nc(C[N-]S(=O)(=O)c2ccc(Br)s2)s1 (3D coordinates assigned)
CCOc1[nH+]nc(C[N-]S(=O)(=O)c2ccc(Br)s2)s1 (optimized conformer: 81.8025214868996 kcal/mol)

>  <smiles>  (22) 
CCOc1nnc(CNS(=O)(=O)c2ccc(Br)s2)s1

>  <score_type>  (22) 
oracle

>  <origin>  (22) 
adg

>  <m_score__min__energy>  (22) 
-7.6699999999999999

>  <m_primary>  (22) 
energy

$$$$
22:0
     RDKit          3D

 44 46  0  0  1  0  0  0  0  0999 V2000
   57.0440   21.0670   42.9240 C   0  0  0  0  0  0  0  0  0  0  0  0
   56.7720   22.2130   43.8320 C   0  0  0  0  0  0  0  0  0  0  0  0
   57.6460   22.5840   44.8470 C   0  0  0  0  0  0  0  0  0  0  0  0
   57.3930   23.6470   45.6890 C   0  0  0  0  0  0  0  0  0  0  0  0
   56.2340   24.3950   45.5450 C   0  0  0  0  0  0  0  0  0  0  0  0
   55.9810   25.4910   46.4210 N   0  0  0  0  0  0  0  0  0  0  0  0
   56.6410   26.5710   46.3160 C   0  0  0  0  0  0  0  0  0  0  0  0
   57.8910   26.7490   46.8720 C   0  0  0  0  0  0  0  0  0  0  0  0
   58.5590   27.9410   46.7260 C   0  0  0  0  0  0  0  0  0  0  0  0
   59.8460   28.1050   47.3070 N   0  0  0  0  0  0  0  0  0  0  0  0
   60.5910   26.8870   47.6000 C   0  0  0  0  0  0  0  0  0  0  0  0
   60.4070   29.4000   47.6010 C   0  0  0  0  0  0  0  0  0  0  0  0
   57.9820   28.9470   46.0300 N   0  0  0  0  0  0  0  0  0  0  0  0
   56.7620   28.7700   45.4870 C   0  0  0  0  0  0  0  0  0  0  0  0
   56.1630   29.6960   44.8120 N   0  0  0  0  0  0  0  0  0  0  0  0
   56.9000   30.8470   44.4150 C   0  0  0  0  0  0  0  0  0  0  0  0
   57.1520   31.1570   43.1020 C   0  0  0  0  0  0  0  0  0  0  0  0
   57.8760   32.2920   42.7700 C   0  0  0  0  0  0  0  0  0  0  0  0
   58.3660   33.1440   43.7400 C   0  0  0  0  0  0  0  0  0  0  0  0
   58.0840   32.7870   45.0600 C   0  0  0  0  0  0  0  0  0  0  0  0
   57.3790   31.6800   45.3580 N   0  0  0  0  0  0  0  0  0  0  0  0
   56.0900   27.6030   45.6210 N   0  0  0  0  0  0  0  0  0  0  0  0
   55.3530   24.0390   44.5410 C   0  0  0  0  0  0  0  0  0  0  0  0
   55.6260   22.9710   43.7090 C   0  0  0  0  0  0  0  0  0  0  0  0
   57.2573   20.1684   43.5215 H   0  0  0  0  0  0  0  0  0  0  0  0
   56.1641   20.8851   42.2895 H   0  0  0  0  0  0  0  0  0  0  0  0
   57.9118   21.2999   42.2895 H   0  0  0  0  0  0  0  0  0  0  0  0
   58.5736   22.0088   44.9839 H   0  0  0  0  0  0  0  0  0  0  0  0
   58.1145   23.9028   46.4790 H   0  0  0  0  0  0  0  0  0  0  0  0
   58.3574   25.9289   47.4376 H   0  0  0  0  0  0  0  0  0  0  0  0
   60.6696   26.7584   48.6896 H   0  0  0  0  0  0  0  0  0  0  0  0
   60.0666   26.0230   47.1657 H   0  0  0  0  0  0  0  0  0  0  0  0
   61.5990   26.9603   47.1657 H   0  0  0  0  0  0  0  0  0  0  0  0
   60.4656   29.5353   48.6911 H   0  0  0  0  0  0  0  0  0  0  0  0
   61.4159   29.4694   47.1681 H   0  0  0  0  0  0  0  0  0  0  0  0
   59.7676   30.1834   47.1681 H   0  0  0  0  0  0  0  0  0  0  0  0
   58.4770   29.8490   45.9130 H   0  0  0  0  0  0  0  0  0  0  0  0
   56.7759   30.4985   42.3051 H   0  0  0  0  0  0  0  0  0  0  0  0
   58.0642   32.5188   41.7102 H   0  0  0  0  0  0  0  0  0  0  0  0
   58.9420   34.0468   43.4886 H   0  0  0  0  0  0  0  0  0  0  0  0
   58.4474   33.4270   45.8775 H   0  0  0  0  0  0  0  0  0  0  0  0
   55.1540   27.4760   45.2030 H   0  0  0  0  0  0  0  0  0  0  0  0
   54.4245   24.6125   44.4033 H   0  0  0  0  0  0  0  0  0  0  0  0
   54.9036   22.7156   42.9198 H   0  0  0  0  0  0  0  0  0  0  0  0
  1  2  1  0
  2  3  2  0
  3  4  1  0
  4  5  2  0
  5  6  1  0
  6  7  2  0
  7  8  1  0
  8  9  2  0
  9 10  1  0
 10 11  1  0
 10 12  1  0
  9 13  1  0
 13 14  1  0
 14 15  2  0
 15 16  1  0
 16 17  2  0
 17 18  1  0
 18 19  2  0
 19 20  1  0
 20 21  2  0
 14 22  1  0
  5 23  1  0
 23 24  2  0
 24  2  1  0
 22  7  1  0
 21 16  1  0
  1 25  1  0
  1 26  1  0
  1 27  1  0
  3 28  1  0
  4 29  1  0
  8 30  1  0
 11 31  1  0
 11 32  1  0
 11 33  1  0
 12 34  1  0
 12 35  1  0
 12 36  1  0
 13 37  1  0
 17 38  1  0
 18 39  1  0
 19 40  1  0
 20 41  1  0
 22 42  1  0
 23 43  1  0
 24 44  1  0
M  END
>  <smiles>  (23) 
Cc1ccc(N=c2cc(N(C)C)[nH]c(=Nc3ccccn3)[nH]2)cc1

>  <score_type>  (23) 
oracle

>  <origin>  (23) 
adg

>  <m_score__min__energy>  (23) 
-8.0500000000000007

>  <m_primary>  (23) 
energy

$$$$
23:0
     RDKit          3D

 25 26  0  0  0  0  0  0  0  0999 V2000
   58.6843   32.2145   43.4888 H   0  0  0  0  0  0  0  0  0  0  0  0
   58.1060   31.3480   43.8420 C   0  0  0  0  0  0  0  0  0  0  0  0
   56.7420   31.2230   43.4900 C   0  0  0  0  0  0  0  0  0  0  0  0
   56.2664   31.9927   42.8644 H   0  0  0  0  0  0  0  0  0  0  0  0
   55.9890   30.1200   43.9350 C   0  0  0  0  0  0  0  0  0  0  0  0
   54.9259   30.0118   43.6741 H   0  0  0  0  0  0  0  0  0  0  0  0
   56.6420   29.1700   44.7190 C   0  0  0  0  0  0  0  0  0  0  0  0
   57.9550   29.2900   45.0620 C   0  0  0  0  0  0  0  0  0  0  0  0
   58.3330   28.2600   45.8390 N   0  0  0  0  0  0  0  0  0  0  0  0
   57.1970   27.5220   45.9320 C   0  0  0  0  0  0  0  0  0  0  0  0
   57.1510   26.4310   46.6430 N   0  0  0  0  0  0  0  0  0  0  0  0
   56.0710   25.4950   46.7410 C   0  0  0  0  0  0  0  0  0  0  0  0
   56.2210   24.4650   47.4490 O   0  0  0  0  0  0  0  0  0  0  0  0
   54.8700   25.6700   45.9790 N   0  0  0  0  0  0  0  0  0  0  0  0
   54.0600   24.5650   45.4800 C   0  0  0  0  0  0  0  0  0  0  0  0
   53.1709   24.9682   44.9731 H   0  0  0  0  0  0  0  0  0  0  0  0
   53.7594   23.9332   46.3288 H   0  0  0  0  0  0  0  0  0  0  0  0
   54.8580   23.7190   44.4950 C   0  0  0  0  0  0  0  0  0  0  0  0
   55.5099   23.0279   45.0494 H   0  0  0  0  0  0  0  0  0  0  0  0
   54.1667   23.1430   43.8623 H   0  0  0  0  0  0  0  0  0  0  0  0
   55.4734   24.3755   43.8623 H   0  0  0  0  0  0  0  0  0  0  0  0
   56.1370   28.0550   45.2650 N   0  0  0  0  0  0  0  0  0  0  0  0
   55.1450   27.7370   45.2130 H   0  0  0  0  0  0  0  0  0  0  0  0
   58.7290   30.3700   44.6420 C   0  0  0  0  0  0  0  0  0  0  0  0
   59.7885   30.4558   44.9250 H   0  0  0  0  0  0  0  0  0  0  0  0
  1  2  1  0
  2  3  2  0
  3  4  1  0
  3  5  1  0
  5  6  1  0
  5  7  2  0
  7  8  1  0
  8  9  1  0
  9 10  1  0
 10 11  2  0
 11 12  1  0
 12 13  2  0
 12 14  1  0
 14 15  1  0
 15 16  1  0
 15 17  1  0
 15 18  1  0
 18 19  1  0
 18 20  1  0
 18 21  1  0
 10 22  1  0
 22 23  1  0
  8 24  2  0
 24 25  1  0
 24  2  1  0
 22  7  1  0
M  CHG  2   9  -1  14  -1
M  END
>  <UniqueID>  (24) 
21

>  <SMILES>  (24) 
CC[N-]C(=O)/N=c1/[n-]c2ccccc2[nH]1

>  <Energy>  (24) 
62.156346350436195

>  <Genealogy>  (24) 
CC[N-]C(=O)N=c1[n-]c2ccccc2[nH]1 (protonated)
CC[N-]C(=O)/N=c1/[n-]c2ccccc2[nH]1 (cis-trans isomerization)
CC[N-]C(=O)/N=c1/[n-]c2ccccc2[nH]1 (3D coordinates assigned)
CC[N-]C(=O)/N=c1/[n-]c2ccccc2[nH]1 (optimized conformer: 62.156346350436195 kcal/mol)

>  <smiles>  (24) 
CCNC(=O)N=c1[nH]c2ccccc2[nH]1

>  <score_type>  (24) 
oracle

>  <origin>  (24) 
adg

>  <m_score__min__energy>  (24) 
-8.4499999999999993

>  <m_primary>  (24) 
energy

$$$$
24:0
     RDKit          3D

 40 42  0  0  0  0  0  0  0  0999 V2000
   56.7570   23.4870   43.6250 C   0  0  0  0  0  0  0  0  0  0  0  0
   57.2840   24.2650   44.6940 O   0  0  0  0  0  0  0  0  0  0  0  0
   57.4060   25.6650   44.6780 C   0  0  0  0  0  0  0  0  0  0  0  0
   58.1320   26.3350   43.6740 C   0  0  0  0  0  0  0  0  0  0  0  0
   58.2360   27.7270   43.6840 C   0  0  0  0  0  0  0  0  0  0  0  0
   57.6180   28.4820   44.6930 C   0  0  0  0  0  0  0  0  0  0  0  0
   57.7290   29.9630   44.7020 C   0  0  0  0  0  0  0  0  0  0  0  0
   58.0950   30.6470   45.8750 C   0  0  0  0  0  0  0  0  0  0  0  0
   58.1990   32.0400   45.8830 C   0  0  0  0  0  0  0  0  0  0  0  0
   57.9350   32.7830   44.7180 C   0  0  0  0  0  0  0  0  0  0  0  0
   58.0280   34.2220   44.6930 N   0  0  0  0  0  0  0  0  0  0  0  0
   59.2620   34.9740   44.9100 C   0  0  0  0  0  0  0  0  0  0  0  0
   59.8720   34.6140   46.2300 C   0  0  0  0  0  0  0  0  0  0  0  0
   59.3060   34.8360   47.4780 C   0  0  0  0  0  0  0  0  0  0  0  0
   60.0970   34.3650   48.5320 C   0  0  0  0  0  0  0  0  0  0  0  0
   61.2800   33.7650   48.1180 C   0  0  0  0  0  0  0  0  0  0  0  0
   61.3400   33.8200   46.4380 S   0  0  0  0  0  0  0  0  0  0  0  0
   57.5740   32.1000   43.5470 C   0  0  0  0  0  0  0  0  0  0  0  0
   57.4700   30.7070   43.5370 C   0  0  0  0  0  0  0  0  0  0  0  0
   56.8930   27.8140   45.6940 C   0  0  0  0  0  0  0  0  0  0  0  0
   56.7840   26.4160   45.6920 C   0  0  0  0  0  0  0  0  0  0  0  0
   56.0420   25.7650   46.7310 N   0  0  0  0  0  0  0  0  0  0  0  0
   56.1844   22.6417   44.0343 H   0  0  0  0  0  0  0  0  0  0  0  0
   56.0961   24.1127   43.0073 H   0  0  0  0  0  0  0  0  0  0  0  0
   57.5833   23.1053   43.0073 H   0  0  0  0  0  0  0  0  0  0  0  0
   58.6208   25.7569   42.8759 H   0  0  0  0  0  0  0  0  0  0  0  0
   58.8073   28.2367   42.8942 H   0  0  0  0  0  0  0  0  0  0  0  0
   58.3013   30.0799   46.7947 H   0  0  0  0  0  0  0  0  0  0  0  0
   58.4897   32.5601   46.8077 H   0  0  0  0  0  0  0  0  0  0  0  0
   57.1540   34.7740   44.5350 H   0  0  0  0  0  0  0  0  0  0  0  0
   59.9749   34.7391   44.1059 H   0  0  0  0  0  0  0  0  0  0  0  0
   59.0280   36.0488   44.9081 H   0  0  0  0  0  0  0  0  0  0  0  0
   58.3348   35.3316   47.6236 H   0  0  0  0  0  0  0  0  0  0  0  0
   59.8092   34.4608   49.5893 H   0  0  0  0  0  0  0  0  0  0  0  0
   62.0459   33.3288   48.7761 H   0  0  0  0  0  0  0  0  0  0  0  0
   57.3707   32.6674   42.6269 H   0  0  0  0  0  0  0  0  0  0  0  0
   57.1833   30.1879   42.6106 H   0  0  0  0  0  0  0  0  0  0  0  0
   56.4044   28.3953   46.4898 H   0  0  0  0  0  0  0  0  0  0  0  0
   55.5360   26.3230   47.4540 H   0  0  0  0  0  0  0  0  0  0  0  0
   55.9860   24.7240   46.7900 H   0  0  0  0  0  0  0  0  0  0  0  0
  1  2  1  0
  2  3  1  0
  3  4  2  0
  4  5  1  0
  5  6  2  0
  6  7  1  0
  7  8  2  0
  8  9  1  0
  9 10  2  0
 10 11  1  0
 11 12  1  0
 12 13  1  0
 13 14  2  0
 14 15  1  0
 15 16  2  0
 16 17  1  0
 10 18  1  0
 18 19  2  0
  6 20  1  0
 20 21  2  0
 21 22  1  0
 21  3  1  0
 19  7  1  0
 17 13  1  0
  1 23  1  0
  1 24  1  0
  1 25  1  0
  4 26  1  0
  5 27  1  0
  8 28  1  0
  9 29  1  0
 11 30  1  0
 12 31  1  0
 12 32  1  0
 14 33  1  0
 15 34  1  0
 16 35  1  0
 18 36  1  0
 19 37  1  0
 20 38  1  0
 22 39  1  0
 22 40  1  0
M  END
>  <UniqueID>  (25) 
22

>  <SMILES>  (25) 
COc1ccc(-c2ccc(NCc3cccs3)cc2)cc1N

>  <Energy>  (25) 
71.02186117740217

>  <Genealogy>  (25) 
COc1ccc(-c2ccc(NCc3cccs3)cc2)cc1N (3D coordinates assigned)
COc1ccc(-c2ccc(NCc3cccs3)cc2)cc1N (optimized conformer: 71.02186117740217 kcal/mol)

>  <smiles>  (25) 
COc1ccc(-c2ccc(NCc3cccs3)cc2)cc1N

>  <score_type>  (25) 
oracle

>  <origin>  (25) 
adg

>  <m_score__min__energy>  (25) 
-6.5899999999999999

>  <m_primary>  (25) 
energy

$$$$
25:0
     RDKit          3D

 34 37  0  0  0  0  0  0  0  0999 V2000
   64.4044   32.3814   46.4107 H   0  0  0  0  0  0  0  0  0  0  0  0
   63.6760   32.4210   47.2340 C   0  0  0  0  0  0  0  0  0  0  0  0
   63.9700   33.1460   48.3920 C   0  0  0  0  0  0  0  0  0  0  0  0
   64.9325   33.6708   48.4822 H   0  0  0  0  0  0  0  0  0  0  0  0
   63.0420   33.2050   49.4360 C   0  0  0  0  0  0  0  0  0  0  0  0
   63.4360   34.2150   51.0090 Br  0  0  0  0  0  0  0  0  0  0  0  0
   61.8210   32.5290   49.3260 C   0  0  0  0  0  0  0  0  0  0  0  0
   61.0831   32.5942   50.1392 H   0  0  0  0  0  0  0  0  0  0  0  0
   61.5360   31.7700   48.1840 C   0  0  0  0  0  0  0  0  0  0  0  0
   60.2570   31.1330   48.0650 N   0  0  0  0  0  0  0  0  0  0  0  0
   59.4100   31.1050   47.0630 C   0  0  0  0  0  0  0  0  0  0  0  0
   58.9860   32.2640   46.3340 C   0  0  0  0  0  0  0  0  0  0  0  0
   59.6820   33.4960   46.3360 C   0  0  0  0  0  0  0  0  0  0  0  0
   60.6260   33.5851   46.8936 H   0  0  0  0  0  0  0  0  0  0  0  0
   59.1860   34.6010   45.6390 C   0  0  0  0  0  0  0  0  0  0  0  0
   59.7187   35.5623   45.6864 H   0  0  0  0  0  0  0  0  0  0  0  0
   58.0210   34.4910   44.8850 C   0  0  0  0  0  0  0  0  0  0  0  0
   57.6120   35.3735   44.3713 H   0  0  0  0  0  0  0  0  0  0  0  0
   57.3740   33.2620   44.7820 C   0  0  0  0  0  0  0  0  0  0  0  0
   56.4714   33.1686   44.1603 H   0  0  0  0  0  0  0  0  0  0  0  0
   57.8680   32.1440   45.4670 C   0  0  0  0  0  0  0  0  0  0  0  0
   57.2950   30.9360   45.2470 N   0  0  0  0  0  0  0  0  0  0  0  0
   57.7610   29.8000   45.8160 C   0  0  0  0  0  0  0  0  0  0  0  0
   57.1510   28.5780   45.5080 C   0  0  0  0  0  0  0  0  0  0  0  0
   56.3062   28.5495   44.8041 H   0  0  0  0  0  0  0  0  0  0  0  0
   57.6110   27.3950   46.0910 C   0  0  0  0  0  0  0  0  0  0  0  0
   56.8450   25.8670   45.6970 Cl  0  0  0  0  0  0  0  0  0  0  0  0
   58.6770   27.4300   46.9920 C   0  0  0  0  0  0  0  0  0  0  0  0
   59.0367   26.4977   47.4518 H   0  0  0  0  0  0  0  0  0  0  0  0
   59.2890   28.6460   47.3120 C   0  0  0  0  0  0  0  0  0  0  0  0
   60.1237   28.6647   48.0282 H   0  0  0  0  0  0  0  0  0  0  0  0
   58.8440   29.8510   46.7230 C   0  0  0  0  0  0  0  0  0  0  0  0
   62.4570   31.7460   47.1210 C   0  0  0  0  0  0  0  0  0  0  0  0
   62.2177   31.1952   46.1994 H   0  0  0  0  0  0  0  0  0  0  0  0
  1  2  1  0
  2  3  2  0
  3  4  1  0
  3  5  1  0
  5  6  1  0
  5  7  2  0
  7  8  1  0
  7  9  1  0
  9 10  1  0
 10 11  2  0
 11 12  1  0
 12 13  2  0
 13 14  1  0
 13 15  1  0
 15 16  1  0
 15 17  2  0
 17 18  1  0
 17 19  1  0
 19 20  1  0
 19 21  2  0
 21 22  1  0
 22 23  1  0
 23 24  2  0
 24 25  1  0
 24 26  1  0
 26 27  1  0
 26 28  2  0
 28 29  1  0
 28 30  1  0
 30 31  1  0
 30 32  2  0
  9 33  2  0
 33 34  1  0
 33  2  1  0
 32 11  1  0
 21 12  1  0
 32 23  1  0
M  CHG  1  22  -1
M  END
>  <UniqueID>  (26) 
23

>  <SMILES>  (26) 
Clc1ccc2/c(=N/c3cccc(Br)c3)c3ccccc3[n-]c2c1

>  <Energy>  (26) 
67.05127825376282

>  <Genealogy>  (26) 
Clc1ccc2c(=Nc3cccc(Br)c3)c3ccccc3[n-]c2c1 (protonated)
Clc1ccc2/c(=N/c3cccc(Br)c3)c3ccccc3[n-]c2c1 (cis-trans isomerization)
Clc1ccc2/c(=N/c3cccc(Br)c3)c3ccccc3[n-]c2c1 (3D coordinates assigned)
Clc1ccc2/c(=N/c3cccc(Br)c3)c3ccccc3[n-]c2c1 (optimized conformer: 67.05127825376282 kcal/mol)

>  <smiles>  (26) 
Clc1ccc2c(=Nc3cccc(Br)c3)c3ccccc3[nH]c2c1

>  <score_type>  (26) 
oracle

>  <origin>  (26) 
adg

>  <m_score__min__energy>  (26) 
-9.5299999999999994

>  <m_primary>  (26) 
energy

$$$$
26:0
     RDKit          3D

 35 37  0  0  0  0  0  0  0  0999 V2000
   55.0536   27.2895   46.2355 H   0  0  0  0  0  0  0  0  0  0  0  0
   55.8830   26.5850   46.0750 C   0  0  0  0  0  0  0  0  0  0  0  0
   55.7150   25.2640   46.3860 N   0  0  0  0  0  0  0  0  0  0  0  0
   56.7460   24.4080   46.1800 C   0  0  0  0  0  0  0  0  0  0  0  0
   56.7530   23.0890   46.4230 N   0  0  0  0  0  0  0  0  0  0  0  0
   57.9590   22.6440   46.0750 N   0  0  0  0  0  0  0  0  0  0  0  0
   58.7060   23.6790   45.6150 C   0  0  0  0  0  0  0  0  0  0  0  0
   59.7434   23.6180   45.2543 H   0  0  0  0  0  0  0  0  0  0  0  0
   57.9390   24.8160   45.6790 C   0  0  0  0  0  0  0  0  0  0  0  0
   58.1730   26.1420   45.3450 C   0  0  0  0  0  0  0  0  0  0  0  0
   59.1428   26.4659   44.9393 H   0  0  0  0  0  0  0  0  0  0  0  0
   57.1170   27.0620   45.5460 C   0  0  0  0  0  0  0  0  0  0  0  0
   57.2930   28.4980   45.2100 C   0  0  0  0  0  0  0  0  0  0  0  0
   56.1950   29.2910   44.8370 C   0  0  0  0  0  0  0  0  0  0  0  0
   55.1893   28.8477   44.7929 H   0  0  0  0  0  0  0  0  0  0  0  0
   56.3700   30.6050   44.5300 N   0  0  0  0  0  0  0  0  0  0  0  0
   57.5920   31.2030   44.5730 C   0  0  0  0  0  0  0  0  0  0  0  0
   57.7420   32.4630   44.2790 N   0  0  0  0  0  0  0  0  0  0  0  0
   57.8740   33.6070   45.1960 C   0  0  0  0  0  0  0  0  0  0  0  0
   56.7370   34.5890   44.8720 C   0  0  0  0  0  0  0  0  0  0  0  0
   56.3003   34.9662   45.8085 H   0  0  0  0  0  0  0  0  0  0  0  0
   57.1355   35.4316   44.2878 H   0  0  0  0  0  0  0  0  0  0  0  0
   55.9614   34.0721   44.2878 H   0  0  0  0  0  0  0  0  0  0  0  0
   57.7290   33.1510   46.6630 C   0  0  0  0  0  0  0  0  0  0  0  0
   57.9933   33.9823   47.3332 H   0  0  0  0  0  0  0  0  0  0  0  0
   56.6892   32.8450   46.8508 H   0  0  0  0  0  0  0  0  0  0  0  0
   58.4011   32.3007   46.8508 H   0  0  0  0  0  0  0  0  0  0  0  0
   59.2220   34.3240   44.9820 C   0  0  0  0  0  0  0  0  0  0  0  0
   59.6697   34.5621   45.9582 H   0  0  0  0  0  0  0  0  0  0  0  0
   59.9008   33.6678   44.4176 H   0  0  0  0  0  0  0  0  0  0  0  0
   59.0573   35.2537   44.4176 H   0  0  0  0  0  0  0  0  0  0  0  0
   58.7110   30.4500   44.9410 C   0  0  0  0  0  0  0  0  0  0  0  0
   59.7048   30.9200   44.9805 H   0  0  0  0  0  0  0  0  0  0  0  0
   58.5610   29.0990   45.2580 C   0  0  0  0  0  0  0  0  0  0  0  0
   59.4394   28.5030   45.5465 H   0  0  0  0  0  0  0  0  0  0  0  0
  1  2  1  0
  2  3  2  0
  3  4  1  0
  4  5  1  0
  5  6  1  0
  6  7  2  0
  7  8  1  0
  7  9  1  0
  9 10  1  0
 10 11  1  0
 10 12  2  0
 12 13  1  0
 13 14  2  0
 14 15  1  0
 14 16  1  0
 16 17  1  0
 17 18  2  0
 18 19  1  0
 19 20  1  0
 20 21  1  0
 20 22  1  0
 20 23  1  0
 19 24  1  0
 24 25  1  0
 24 26  1  0
 24 27  1  0
 19 28  1  0
 28 29  1  0
 28 30  1  0
 28 31  1  0
 17 32  1  0
 32 33  1  0
 32 34  2  0
 34 35  1  0
 12  2  1  0
 34 13  1  0
  9  4  2  0
M  CHG  2   5  -1  16  -1
M  END
>  <UniqueID>  (27) 
24

>  <SMILES>  (27) 
CC(C)(C)/N=c1/ccc(-c2cnc3[n-]ncc3c2)c[n-]1

>  <Energy>  (27) 
80.37718275632629

>  <Genealogy>  (27) 
CC(C)(C)N=c1ccc(-c2cnc3[n-]ncc3c2)c[n-]1 (protonated)
CC(C)(C)/N=c1/ccc(-c2cnc3[n-]ncc3c2)c[n-]1 (cis-trans isomerization)
CC(C)(C)/N=c1/ccc(-c2cnc3[n-]ncc3c2)c[n-]1 (3D coordinates assigned)
CC(C)(C)/N=c1/ccc(-c2cnc3[n-]ncc3c2)c[n-]1 (optimized conformer: 80.37718275632629 kcal/mol)

>  <smiles>  (27) 
CC(C)(C)N=c1ccc(-c2cnc3[nH]ncc3c2)c[nH]1

>  <score_type>  (27) 
oracle

>  <origin>  (27) 
adg

>  <m_score__min__energy>  (27) 
-9.9299999999999997

>  <m_primary>  (27) 
energy

$$$$
27:0
     RDKit          3D

 32 34  0  0  0  0  0  0  0  0999 V2000
   57.0500   21.0740   46.4730 C   0  0  0  0  0  0  0  0  0  0  0  0
   57.1810   22.2340   47.2890 O   0  0  0  0  0  0  0  0  0  0  0  0
   57.3730   23.5320   46.7950 C   0  0  0  0  0  0  0  0  0  0  0  0
   57.5280   23.7020   45.4140 C   0  0  0  0  0  0  0  0  0  0  0  0
   57.7220   24.9750   44.8710 C   0  0  0  0  0  0  0  0  0  0  0  0
   57.7630   26.1040   45.7050 C   0  0  0  0  0  0  0  0  0  0  0  0
   57.9680   27.4510   45.1390 C   0  0  0  0  0  0  0  0  0  0  0  0
   57.8760   27.7500   43.8280 N   0  0  0  0  0  0  0  0  0  0  0  0
   58.1250   29.0460   43.7400 N   0  0  0  0  0  0  0  0  0  0  0  0
   58.3600   29.5000   44.9860 C   0  0  0  0  0  0  0  0  0  0  0  0
   58.6820   30.8980   45.3550 C   0  0  0  0  0  0  0  0  0  0  0  0
   59.5370   31.1970   46.4330 C   0  0  0  0  0  0  0  0  0  0  0  0
   59.8250   32.5260   46.7600 C   0  0  0  0  0  0  0  0  0  0  0  0
   59.2660   33.5690   46.0170 C   0  0  0  0  0  0  0  0  0  0  0  0
   59.6300   35.2350   46.4290 Cl  0  0  0  0  0  0  0  0  0  0  0  0
   58.4170   33.2830   44.9450 C   0  0  0  0  0  0  0  0  0  0  0  0
   58.1260   31.9560   44.6150 C   0  0  0  0  0  0  0  0  0  0  0  0
   58.2630   28.5170   45.8510 O   0  0  0  0  0  0  0  0  0  0  0  0
   57.6070   25.9360   47.0910 C   0  0  0  0  0  0  0  0  0  0  0  0
   57.4140   24.6620   47.6330 C   0  0  0  0  0  0  0  0  0  0  0  0
   56.9496   20.1850   47.1129 H   0  0  0  0  0  0  0  0  0  0  0  0
   56.1571   21.1714   45.8379 H   0  0  0  0  0  0  0  0  0  0  0  0
   57.9421   20.9698   45.8379 H   0  0  0  0  0  0  0  0  0  0  0  0
   57.4968   22.8254   44.7502 H   0  0  0  0  0  0  0  0  0  0  0  0
   57.8433   25.0933   43.7841 H   0  0  0  0  0  0  0  0  0  0  0  0
   58.1280   29.5810   42.8450 H   0  0  0  0  0  0  0  0  0  0  0  0
   59.9810   30.3806   47.0214 H   0  0  0  0  0  0  0  0  0  0  0  0
   60.4933   32.7507   47.6043 H   0  0  0  0  0  0  0  0  0  0  0  0
   57.9766   34.1035   44.3595 H   0  0  0  0  0  0  0  0  0  0  0  0
   57.4567   31.7381   43.7697 H   0  0  0  0  0  0  0  0  0  0  0  0
   57.6369   26.8130   47.7543 H   0  0  0  0  0  0  0  0  0  0  0  0
   57.2936   24.5421   48.7198 H   0  0  0  0  0  0  0  0  0  0  0  0
  1  2  1  0
  2  3  1  0
  3  4  2  0
  4  5  1  0
  5  6  2  0
  6  7  1  0
  7  8  2  0
  8  9  1  0
  9 10  2  0
 10 11  1  0
 11 12  2  0
 12 13  1  0
 13 14  2  0
 14 15  1  0
 14 16  1  0
 16 17  2  0
 10 18  1  0
  6 19  1  0
 19 20  2  0
 20  3  1  0
 18  7  1  0
 17 11  1  0
  1 21  1  0
  1 22  1  0
  1 23  1  0
  4 24  1  0
  5 25  1  0
  9 26  1  0
 12 27  1  0
 13 28  1  0
 16 29  1  0
 17 30  1  0
 19 31  1  0
 20 32  1  0
M  CHG  1   9   1
M  END
>  <UniqueID>  (28) 
25

>  <SMILES>  (28) 
COc1ccc(-c2n[nH+]c(-c3ccc(Cl)cc3)o2)cc1

>  <Energy>  (28) 
70.34602730701323

>  <Genealogy>  (28) 
COc1ccc(-c2n[nH+]c(-c3ccc(Cl)cc3)o2)cc1 (protonated)
COc1ccc(-c2n[nH+]c(-c3ccc(Cl)cc3)o2)cc1 (3D coordinates assigned)
COc1ccc(-c2n[nH+]c(-c3ccc(Cl)cc3)o2)cc1 (optimized conformer: 70.34602730701323 kcal/mol)

>  <smiles>  (28) 
COc1ccc(-c2nnc(-c3ccc(Cl)cc3)o2)cc1

>  <score_type>  (28) 
oracle

>  <origin>  (28) 
adg

>  <m_score__min__energy>  (28) 
-5.3099999999999996

>  <m_primary>  (28) 
energy

$$$$
28:0
     RDKit          3D

 56 59  0  0  1  0  0  0  0  0999 V2000
   59.3870   29.3730   49.1300 C   0  0  0  0  0  0  0  0  0  0  0  0
   60.7670   29.7460   48.6300 C   0  0  0  0  0  0  0  0  0  0  0  0
   61.0840   31.0310   49.1390 O   0  0  0  0  0  0  0  0  0  0  0  0
   61.8040   31.9620   48.3770 C   0  0  0  0  0  0  0  0  0  0  0  0
   63.1870   32.0570   48.4600 C   0  0  0  0  0  0  0  0  0  0  0  0
   63.8890   32.9850   47.6990 C   0  0  0  0  0  0  0  0  0  0  0  0
   63.2010   33.8340   46.8400 C   0  0  0  0  0  0  0  0  0  0  0  0
   61.8440   33.7620   46.7380 C   0  0  0  0  0  0  0  0  0  0  0  0
   61.1010   32.8270   47.5010 C   0  0  0  0  0  0  0  0  0  0  0  0
   59.7630   32.7300   47.2810 N   0  0  0  0  0  0  0  0  0  0  0  0
   59.0220   32.8620   46.2950 C   0  0  0  0  0  0  0  0  0  0  0  0
   58.6600   34.1200   45.9400 N   0  0  0  0  0  0  0  0  0  0  0  0
   57.8630   34.3280   44.8870 C   0  0  0  0  0  0  0  0  0  0  0  0
   57.4050   33.2980   44.1630 N   0  0  0  0  0  0  0  0  0  0  0  0
   57.7620   32.0530   44.5140 C   0  0  0  0  0  0  0  0  0  0  0  0
   57.2810   31.0190   43.7570 C   0  0  0  0  0  0  0  0  0  0  0  0
   57.6380   29.7520   44.1070 C   0  0  0  0  0  0  0  0  0  0  0  0
   58.4420   29.4230   45.1560 C   0  0  0  0  0  0  0  0  0  0  0  0
   58.7730   28.0620   45.4590 C   0  0  0  0  0  0  0  0  0  0  0  0
   59.0670   26.9170   45.7160 C   0  0  0  0  0  0  0  0  0  0  0  0
   59.4360   25.5310   46.0070 C   0  0  0  0  0  0  0  0  0  0  0  0
   58.3780   24.6030   45.6570 N   0  0  0  0  0  0  0  0  0  0  0  0
   58.7460   23.2570   45.4290 C   0  0  0  0  0  0  0  0  0  0  0  0
   59.9960   23.0100   45.5610 O   0  0  0  0  0  0  0  0  0  0  0  0
   57.8540   22.1840   45.0740 C   0  0  0  0  0  0  0  0  0  0  0  0
   57.4000   22.1290   43.7490 C   0  0  0  0  0  0  0  0  0  0  0  0
   56.5710   21.1640   43.3430 N   0  0  0  0  0  0  0  0  0  0  0  0
   56.1440   20.2130   44.1910 C   0  0  0  0  0  0  0  0  0  0  0  0
   56.5480   20.2180   45.4700 N   0  0  0  0  0  0  0  0  0  0  0  0
   56.0730   19.1860   46.3540 C   0  0  0  0  0  0  0  0  0  0  0  0
   57.3940   21.1980   45.8970 C   0  0  0  0  0  0  0  0  0  0  0  0
   57.7340   21.1530   47.0890 O   0  0  0  0  0  0  0  0  0  0  0  0
   58.9300   30.4960   45.9260 C   0  0  0  0  0  0  0  0  0  0  0  0
   58.5880   31.7730   45.5980 C   0  0  0  0  0  0  0  0  0  0  0  0
   59.3834   29.3720   50.2300 H   0  0  0  0  0  0  0  0  0  0  0  0
   58.6533   30.1051   48.7616 H   0  0  0  0  0  0  0  0  0  0  0  0
   59.1220   28.3710   48.7616 H   0  0  0  0  0  0  0  0  0  0  0  0
   61.5043   29.0112   48.9855 H   0  0  0  0  0  0  0  0  0  0  0  0
   60.7859   29.7549   47.5302 H   0  0  0  0  0  0  0  0  0  0  0  0
   63.7358   31.3874   49.1386 H   0  0  0  0  0  0  0  0  0  0  0  0
   64.9845   33.0471   47.7764 H   0  0  0  0  0  0  0  0  0  0  0  0
   63.7557   34.5691   46.2384 H   0  0  0  0  0  0  0  0  0  0  0  0
   61.3165   34.4410   46.0519 H   0  0  0  0  0  0  0  0  0  0  0  0
   57.5805   35.3550   44.6123 H   0  0  0  0  0  0  0  0  0  0  0  0
   56.7770   33.4680   43.3350 H   0  0  0  0  0  0  0  0  0  0  0  0
   56.6265   31.2055   42.8928 H   0  0  0  0  0  0  0  0  0  0  0  0
   57.2453   28.9281   43.4930 H   0  0  0  0  0  0  0  0  0  0  0  0
   60.3378   25.2751   45.4315 H   0  0  0  0  0  0  0  0  0  0  0  0
   59.6177   25.4474   47.0887 H   0  0  0  0  0  0  0  0  0  0  0  0
   57.3940   24.9140   45.5780 H   0  0  0  0  0  0  0  0  0  0  0  0
   57.7322   22.8937   43.0315 H   0  0  0  0  0  0  0  0  0  0  0  0
   55.4608   19.4278   43.8350 H   0  0  0  0  0  0  0  0  0  0  0  0
   56.2183   19.5017   47.3977 H   0  0  0  0  0  0  0  0  0  0  0  0
   55.0030   19.0094   46.1699 H   0  0  0  0  0  0  0  0  0  0  0  0
   56.6347   18.2583   46.1699 H   0  0  0  0  0  0  0  0  0  0  0  0
   59.5847   30.3038   46.7888 H   0  0  0  0  0  0  0  0  0  0  0  0
  1  2  1  0
  2  3  1  0
  3  4  1  0
  4  5  2  0
  5  6  1  0
  6  7  2  0
  7  8  1  0
  8  9  2  0
  9 10  1  0
 10 11  2  0
 11 12  1  0
 12 13  2  0
 13 14  1  0
 14 15  1  0
 15 16  2  0
 16 17  1  0
 17 18  2  0
 18 19  1  0
 19 20  3  0
 20 21  1  0
 21 22  1  0
 22 23  1  0
 23 24  2  0
 23 25  1  0
 25 26  2  0
 26 27  1  0
 27 28  2  0
 28 29  1  0
 29 30  1  0
 29 31  1  0
 31 32  2  0
 18 33  1  0
 33 34  2  0
  9  4  1  0
 34 11  1  0
 34 15  1  0
 31 25  1  0
  1 35  1  0
  1 36  1  0
  1 37  1  0
  2 38  1  0
  2 39  1  0
  5 40  1  0
  6 41  1  0
  7 42  1  0
  8 43  1  0
 13 44  1  0
 14 45  1  0
 16 46  1  0
 17 47  1  0
 21 48  1  0
 21 49  1  0
 22 50  1  0
 26 51  1  0
 28 52  1  0
 30 53  1  0
 30 54  1  0
 30 55  1  0
 33 56  1  0
M  END
>  <smiles>  (29) 
CCOc1ccccc1N=c1nc[nH]c2ccc(C#CCNC(=O)c3cncn(C)c3=O)cc12

>  <score_type>  (29) 
oracle

>  <origin>  (29) 
adg

>  <m_score__min__energy>  (29) 
-9.1799999999999997

>  <m_primary>  (29) 
energy

$$$$
29:0
     RDKit          3D

 40 42  0  0  0  0  0  0  0  0999 V2000
   58.3720   27.2330   43.3460 C   0  0  0  0  0  0  0  0  0  0  0  0
   58.7600   27.8490   44.6660 C   0  0  0  0  0  0  0  0  0  0  0  0
   60.1180   28.1420   44.8890 C   0  0  0  0  0  0  0  0  0  0  0  0
   60.5440   28.6700   46.1070 C   0  0  0  0  0  0  0  0  0  0  0  0
   59.6220   28.9180   47.1200 C   0  0  0  0  0  0  0  0  0  0  0  0
   58.2670   28.6560   46.9130 C   0  0  0  0  0  0  0  0  0  0  0  0
   57.8090   28.1370   45.6870 C   0  0  0  0  0  0  0  0  0  0  0  0
   56.3480   27.9250   45.5140 C   0  0  0  0  0  0  0  0  0  0  0  0
   55.8600   26.7690   45.6510 O   0  0  0  0  0  0  0  0  0  0  0  0
   55.4800   29.0280   45.2430 N   0  0  0  0  0  0  0  0  0  0  0  0
   55.5680   29.8490   44.0420 C   0  0  0  0  0  0  0  0  0  0  0  0
   57.0340   30.1190   43.7010 C   0  0  0  0  0  0  0  0  0  0  0  0
   57.5620   31.2900   44.4770 C   0  0  0  0  0  0  0  0  0  0  0  0
   57.5700   32.6030   44.0660 C   0  0  0  0  0  0  0  0  0  0  0  0
   58.0310   33.3200   45.0590 O   0  0  0  0  0  0  0  0  0  0  0  0
   58.2880   32.4950   46.0520 C   0  0  0  0  0  0  0  0  0  0  0  0
   58.7980   32.9280   47.3680 C   0  0  0  0  0  0  0  0  0  0  0  0
   58.4970   32.1920   48.5290 C   0  0  0  0  0  0  0  0  0  0  0  0
   58.9570   32.6240   49.7770 C   0  0  0  0  0  0  0  0  0  0  0  0
   59.7230   33.7880   49.8760 C   0  0  0  0  0  0  0  0  0  0  0  0
   60.1660   34.2070   51.0880 F   0  0  0  0  0  0  0  0  0  0  0  0
   60.0330   34.5220   48.7260 C   0  0  0  0  0  0  0  0  0  0  0  0
   59.5700   34.0980   47.4770 C   0  0  0  0  0  0  0  0  0  0  0  0
   58.0090   31.2100   45.7440 N   0  0  0  0  0  0  0  0  0  0  0  0
   57.7936   26.3148   43.5258 H   0  0  0  0  0  0  0  0  0  0  0  0
   57.7597   27.9460   42.7745 H   0  0  0  0  0  0  0  0  0  0  0  0
   59.2796   26.9887   42.7745 H   0  0  0  0  0  0  0  0  0  0  0  0
   60.8526   27.9521   44.0926 H   0  0  0  0  0  0  0  0  0  0  0  0
   61.6096   28.8908   46.2676 H   0  0  0  0  0  0  0  0  0  0  0  0
   59.9621   29.3212   48.0853 H   0  0  0  0  0  0  0  0  0  0  0  0
   57.5465   28.8579   47.7193 H   0  0  0  0  0  0  0  0  0  0  0  0
   55.0900   29.3210   43.2037 H   0  0  0  0  0  0  0  0  0  0  0  0
   55.0559   30.8061   44.2199 H   0  0  0  0  0  0  0  0  0  0  0  0
   57.6300   29.2275   43.9459 H   0  0  0  0  0  0  0  0  0  0  0  0
   57.1065   30.3495   42.6279 H   0  0  0  0  0  0  0  0  0  0  0  0
   57.2483   32.9804   43.0841 H   0  0  0  0  0  0  0  0  0  0  0  0
   57.8973   31.2729   48.4546 H   0  0  0  0  0  0  0  0  0  0  0  0
   58.7154   32.0466   50.6816 H   0  0  0  0  0  0  0  0  0  0  0  0
   60.6422   35.4345   48.8048 H   0  0  0  0  0  0  0  0  0  0  0  0
   59.8105   34.6818   46.5763 H   0  0  0  0  0  0  0  0  0  0  0  0
  1  2  1  0
  2  3  2  0
  3  4  1  0
  4  5  2  0
  5  6  1  0
  6  7  2  0
  7  8  1  0
  8  9  2  0
  8 10  1  0
 10 11  1  0
 11 12  1  0
 12 13  1  0
 13 14  2  0
 14 15  1  0
 15 16  1  0
 16 17  1  0
 17 18  2  0
 18 19  1  0
 19 20  2  0
 20 21  1  0
 20 22  1  0
 22 23  2  0
 16 24  2  0
  7  2  1  0
 24 13  1  0
 23 17  1  0
  1 25  1  0
  1 26  1  0
  1 27  1  0
  3 28  1  0
  4 29  1  0
  5 30  1  0
  6 31  1  0
 11 32  1  0
 11 33  1  0
 12 34  1  0
 12 35  1  0
 14 36  1  0
 18 37  1  0
 19 38  1  0
 22 39  1  0
 23 40  1  0
M  CHG  1  10  -1
M  END
>  <UniqueID>  (30) 
26

>  <SMILES>  (30) 
Cc1ccccc1C(=O)[N-]CCc1coc(-c2ccc(F)cc2)n1

>  <Energy>  (30) 
70.57400550684613

>  <Genealogy>  (30) 
Cc1ccccc1C(=O)[N-]CCc1coc(-c2ccc(F)cc2)n1 (protonated)
Cc1ccccc1C(=O)[N-]CCc1coc(-c2ccc(F)cc2)n1 (3D coordinates assigned)
Cc1ccccc1C(=O)[N-]CCc1coc(-c2ccc(F)cc2)n1 (optimized conformer: 70.57400550684613 kcal/mol)

>  <smiles>  (30) 
Cc1ccccc1C(=O)NCCc1coc(-c2ccc(F)cc2)n1

>  <score_type>  (30) 
oracle

>  <origin>  (30) 
adg

>  <m_score__min__energy>  (30) 
-10.41

>  <m_primary>  (30) 
energy

$$$$
30:0
     RDKit          3D

 58 61  0  0  0  0  0  0  0  0999 V2000
   64.2620   31.9410   50.1060 C   0  0  0  0  0  0  0  0  0  0  0  0
   64.3930   32.8370   48.8800 C   0  0  0  0  0  0  0  0  0  0  0  0
   63.0430   33.3000   48.4230 C   0  0  0  0  0  0  0  0  0  0  0  0
   62.7540   33.3490   47.0960 N   0  0  0  0  0  0  0  0  0  0  0  0
   61.5600   33.8200   46.6570 C   0  0  0  0  0  0  0  0  0  0  0  0
   60.6080   34.2820   47.5740 C   0  0  0  0  0  0  0  0  0  0  0  0
   59.3110   34.8960   47.1180 C   0  0  0  0  0  0  0  0  0  0  0  0
   59.1780   34.7700   45.7000 O   0  0  0  0  0  0  0  0  0  0  0  0
   58.4450   33.7640   45.0540 C   0  0  0  0  0  0  0  0  0  0  0  0
   58.7890   33.4280   43.7400 C   0  0  0  0  0  0  0  0  0  0  0  0
   58.1440   32.3720   43.0860 C   0  0  0  0  0  0  0  0  0  0  0  0
   57.1210   31.6590   43.7330 C   0  0  0  0  0  0  0  0  0  0  0  0
   56.5340   30.4270   43.0970 C   0  0  0  0  0  0  0  0  0  0  0  0
   56.2650   29.3790   44.1380 C   0  0  0  0  0  0  0  0  0  0  0  0
   55.1560   29.3670   44.7380 O   0  0  0  0  0  0  0  0  0  0  0  0
   57.2250   28.3350   44.3530 N   0  0  0  0  0  0  0  0  0  0  0  0
   57.9250   28.0270   45.5680 C   0  0  0  0  0  0  0  0  0  0  0  0
   58.9760   28.8430   46.0270 C   0  0  0  0  0  0  0  0  0  0  0  0
   59.7000   28.4910   47.1690 C   0  0  0  0  0  0  0  0  0  0  0  0
   59.3930   27.3150   47.8550 C   0  0  0  0  0  0  0  0  0  0  0  0
   58.3690   26.4830   47.3980 C   0  0  0  0  0  0  0  0  0  0  0  0
   57.6200   26.8300   46.2610 C   0  0  0  0  0  0  0  0  0  0  0  0
   56.5470   25.9140   45.7990 C   0  0  0  0  0  0  0  0  0  0  0  0
   55.3440   26.2340   46.0020 O   0  0  0  0  0  0  0  0  0  0  0  0
   56.8420   24.6390   45.0990 C   0  0  0  0  0  0  0  0  0  0  0  0
   58.0490   23.9590   45.3470 C   0  0  0  0  0  0  0  0  0  0  0  0
   58.3410   22.7690   44.6750 C   0  0  0  0  0  0  0  0  0  0  0  0
   57.4330   22.2410   43.7550 C   0  0  0  0  0  0  0  0  0  0  0  0
   56.2240   22.8970   43.5140 C   0  0  0  0  0  0  0  0  0  0  0  0
   55.9230   24.0850   44.1860 C   0  0  0  0  0  0  0  0  0  0  0  0
   56.7430   32.0230   45.0340 C   0  0  0  0  0  0  0  0  0  0  0  0
   57.3950   33.0730   45.6880 C   0  0  0  0  0  0  0  0  0  0  0  0
   60.9230   34.2160   48.9380 C   0  0  0  0  0  0  0  0  0  0  0  0
   62.1310   33.7380   49.3330 N   0  0  0  0  0  0  0  0  0  0  0  0
   64.3512   32.5509   51.0171 H   0  0  0  0  0  0  0  0  0  0  0  0
   63.2814   31.4427   50.0929 H   0  0  0  0  0  0  0  0  0  0  0  0
   65.0588   31.1828   50.0929 H   0  0  0  0  0  0  0  0  0  0  0  0
   65.0088   33.7121   49.1350 H   0  0  0  0  0  0  0  0  0  0  0  0
   64.8665   32.2641   48.0691 H   0  0  0  0  0  0  0  0  0  0  0  0
   61.3394   33.8390   45.5795 H   0  0  0  0  0  0  0  0  0  0  0  0
   58.4723   34.3807   47.6090 H   0  0  0  0  0  0  0  0  0  0  0  0
   59.3044   35.9628   47.3863 H   0  0  0  0  0  0  0  0  0  0  0  0
   59.5716   33.9976   43.2175 H   0  0  0  0  0  0  0  0  0  0  0  0
   58.4391   32.0994   42.0620 H   0  0  0  0  0  0  0  0  0  0  0  0
   55.5908   30.6916   42.5967 H   0  0  0  0  0  0  0  0  0  0  0  0
   57.2507   30.0272   42.3646 H   0  0  0  0  0  0  0  0  0  0  0  0
   59.2293   29.7647   45.4826 H   0  0  0  0  0  0  0  0  0  0  0  0
   60.5120   29.1408   47.5274 H   0  0  0  0  0  0  0  0  0  0  0  0
   59.9592   27.0429   48.7580 H   0  0  0  0  0  0  0  0  0  0  0  0
   58.1468   25.5478   47.9328 H   0  0  0  0  0  0  0  0  0  0  0  0
   58.7668   24.3666   46.0741 H   0  0  0  0  0  0  0  0  0  0  0  0
   59.2890   22.2467   44.8714 H   0  0  0  0  0  0  0  0  0  0  0  0
   57.6698   21.3092   43.2206 H   0  0  0  0  0  0  0  0  0  0  0  0
   55.5066   22.4776   42.7933 H   0  0  0  0  0  0  0  0  0  0  0  0
   54.9635   24.5901   44.0011 H   0  0  0  0  0  0  0  0  0  0  0  0
   55.9313   31.4808   45.5412 H   0  0  0  0  0  0  0  0  0  0  0  0
   57.0857   33.3607   46.7037 H   0  0  0  0  0  0  0  0  0  0  0  0
   60.1919   34.5513   49.6884 H   0  0  0  0  0  0  0  0  0  0  0  0
  1  2  1  0
  2  3  1  0
  3  4  2  0
  4  5  1  0
  5  6  2  0
  6  7  1  0
  7  8  1  0
  8  9  1  0
  9 10  2  0
 10 11  1  0
 11 12  2  0
 12 13  1  0
 13 14  1  0
 14 15  2  0
 14 16  1  0
 16 17  1  0
 17 18  2  0
 18 19  1  0
 19 20  2  0
 20 21  1  0
 21 22  2  0
 22 23  1  0
 23 24  2  0
 23 25  1  0
 25 26  2  0
 26 27  1  0
 27 28  2  0
 28 29  1  0
 29 30  2  0
 12 31  1  0
 31 32  2  0
  6 33  1  0
 33 34  2  0
 34  3  1  0
 32  9  1  0
 22 17  1  0
 30 25  1  0
  1 35  1  0
  1 36  1  0
  1 37  1  0
  2 38  1  0
  2 39  1  0
  5 40  1  0
  7 41  1  0
  7 42  1  0
 10 43  1  0
 11 44  1  0
 13 45  1  0
 13 46  1  0
 18 47  1  0
 19 48  1  0
 20 49  1  0
 21 50  1  0
 26 51  1  0
 27 52  1  0
 28 53  1  0
 29 54  1  0
 30 55  1  0
 31 56  1  0
 32 57  1  0
 33 58  1  0
M  CHG  1  16  -1
M  END
>  <UniqueID>  (31) 
27

>  <SMILES>  (31) 
CCc1ncc(COc2ccc(CC(=O)[N-]c3ccccc3C(=O)c3ccccc3)cc2)cn1

>  <Energy>  (31) 
64.83070593643025

>  <Genealogy>  (31) 
CCc1ncc(COc2ccc(CC(=O)[N-]c3ccccc3C(=O)c3ccccc3)cc2)cn1 (protonated)
CCc1ncc(COc2ccc(CC(=O)[N-]c3ccccc3C(=O)c3ccccc3)cc2)cn1 (3D coordinates assigned)
CCc1ncc(COc2ccc(CC(=O)[N-]c3ccccc3C(=O)c3ccccc3)cc2)cn1 (optimized conformer: 64.83070593643025 kcal/mol)

>  <smiles>  (31) 
CCc1ncc(COc2ccc(CC(=O)Nc3ccccc3C(=O)c3ccccc3)cc2)cn1

>  <score_type>  (31) 
oracle

>  <origin>  (31) 
adg

>  <m_score__min__energy>  (31) 
-12.630000000000001

>  <m_primary>  (31) 
energy

$$$$
31:0
     RDKit          3D

 33 34  0  0  0  0  0  0  0  0999 V2000
   55.2330   29.7120   44.7910 O   0  0  0  0  0  0  0  0  0  0  0  0
   56.2560   29.3400   43.9060 C   0  0  0  0  0  0  0  0  0  0  0  0
   57.6360   29.4760   44.5210 C   0  0  0  0  0  0  0  0  0  0  0  0
   58.5460   28.4000   44.5070 C   0  0  0  0  0  0  0  0  0  0  0  0
   59.8090   28.5350   45.0810 C   0  0  0  0  0  0  0  0  0  0  0  0
   60.1640   29.7440   45.6720 C   0  0  0  0  0  0  0  0  0  0  0  0
   59.2850   30.7770   45.6830 N   0  0  0  0  0  0  0  0  0  0  0  0
   58.0400   30.6880   45.1340 C   0  0  0  0  0  0  0  0  0  0  0  0
   57.1660   31.8330   45.1880 N   0  0  0  0  0  0  0  0  0  0  0  0
   57.6630   33.2040   45.0790 C   0  0  0  0  0  0  0  0  0  0  0  0
   57.7740   33.8440   46.4660 C   0  0  0  0  0  0  0  0  0  0  0  0
   59.2040   33.8430   46.9360 C   0  0  0  0  0  0  0  0  0  0  0  0
   60.2570   33.8360   46.0060 C   0  0  0  0  0  0  0  0  0  0  0  0
   61.5830   33.8030   46.4470 C   0  0  0  0  0  0  0  0  0  0  0  0
   61.8670   33.7660   47.8150 C   0  0  0  0  0  0  0  0  0  0  0  0
   60.8240   33.7600   48.7450 C   0  0  0  0  0  0  0  0  0  0  0  0
   59.4960   33.7930   48.3100 C   0  0  0  0  0  0  0  0  0  0  0  0
   54.7110   30.4260   44.3420 H   0  0  0  0  0  0  0  0  0  0  0  0
   56.1032   28.2913   43.6114 H   0  0  0  0  0  0  0  0  0  0  0  0
   56.2091   30.0154   43.0390 H   0  0  0  0  0  0  0  0  0  0  0  0
   58.2575   27.4469   44.0398 H   0  0  0  0  0  0  0  0  0  0  0  0
   60.5182   27.6942   45.0670 H   0  0  0  0  0  0  0  0  0  0  0  0
   61.1571   29.8618   46.1301 H   0  0  0  0  0  0  0  0  0  0  0  0
   56.1320   31.7090   45.2550 H   0  0  0  0  0  0  0  0  0  0  0  0
   58.6553   33.1931   44.6045 H   0  0  0  0  0  0  0  0  0  0  0  0
   56.9593   33.7911   44.4706 H   0  0  0  0  0  0  0  0  0  0  0  0
   57.4104   34.8810   46.4160 H   0  0  0  0  0  0  0  0  0  0  0  0
   57.1668   33.2622   47.1751 H   0  0  0  0  0  0  0  0  0  0  0  0
   60.0375   33.8565   44.9283 H   0  0  0  0  0  0  0  0  0  0  0  0
   62.4048   33.8062   45.7158 H   0  0  0  0  0  0  0  0  0  0  0  0
   62.9114   33.7416   48.1595 H   0  0  0  0  0  0  0  0  0  0  0  0
   61.0485   33.7292   49.8214 H   0  0  0  0  0  0  0  0  0  0  0  0
   58.6775   33.7798   49.0448 H   0  0  0  0  0  0  0  0  0  0  0  0
  1  2  1  0
  2  3  1  0
  3  4  2  0
  4  5  1  0
  5  6  2  0
  6  7  1  0
  7  8  2  0
  8  9  1  0
  9 10  1  0
 10 11  1  0
 11 12  1  0
 12 13  2  0
 13 14  1  0
 14 15  2  0
 15 16  1  0
 16 17  2  0
  8  3  1  0
 17 12  1  0
  1 18  1  0
  2 19  1  0
  2 20  1  0
  4 21  1  0
  5 22  1  0
  6 23  1  0
  9 24  1  0
 10 25  1  0
 10 26  1  0
 11 27  1  0
 11 28  1  0
 13 29  1  0
 14 30  1  0
 15 31  1  0
 16 32  1  0
 17 33  1  0
M  END
>  <UniqueID>  (32) 
28

>  <SMILES>  (32) 
OCc1cccnc1NCCc1ccccc1

>  <Energy>  (32) 
32.505506023399825

>  <Genealogy>  (32) 
OCc1cccnc1NCCc1ccccc1 (3D coordinates assigned)
OCc1cccnc1NCCc1ccccc1 (optimized conformer: 32.505506023399825 kcal/mol)

>  <smiles>  (32) 
OCc1cccnc1NCCc1ccccc1

>  <score_type>  (32) 
oracle

>  <origin>  (32) 
adg

>  <m_score__min__energy>  (32) 
-7.4400000000000004

>  <m_primary>  (32) 
energy

$$$$
32:0
     RDKit          3D

 27 28  0  0  0  0  0  0  0  0999 V2000
   58.8620   32.7030   48.3910 C   0  0  0  0  0  0  0  0  0  0  0  0
   58.7510   33.4390   47.1770 O   0  0  0  0  0  0  0  0  0  0  0  0
   58.3700   32.8830   45.9460 C   0  0  0  0  0  0  0  0  0  0  0  0
   58.5530   33.5570   44.7260 C   0  0  0  0  0  0  0  0  0  0  0  0
   58.1550   32.9610   43.5290 C   0  0  0  0  0  0  0  0  0  0  0  0
   57.5800   31.6880   43.5320 C   0  0  0  0  0  0  0  0  0  0  0  0
   57.4000   30.9900   44.7410 C   0  0  0  0  0  0  0  0  0  0  0  0
   56.8200   29.6200   44.7810 C   0  0  0  0  0  0  0  0  0  0  0  0
   55.5720   29.4870   44.9000 O   0  0  0  0  0  0  0  0  0  0  0  0
   57.6650   28.3730   44.7790 C   0  0  0  0  0  0  0  0  0  0  0  0
   57.8890   27.7480   46.4790 S   0  0  0  0  0  0  0  0  0  0  0  0
   56.6070   26.5010   46.3630 C   0  0  0  0  0  0  0  0  0  0  0  0
   56.6990   25.1900   46.7550 C   0  0  0  0  0  0  0  0  0  0  0  0
   55.5120   24.6170   46.4980 N   0  0  0  0  0  0  0  0  0  0  0  0
   54.7350   25.5570   45.9760 N   0  0  0  0  0  0  0  0  0  0  0  0
   55.3720   26.7150   45.8850 N   0  0  0  0  0  0  0  0  0  0  0  0
   57.7920   31.6080   45.9440 C   0  0  0  0  0  0  0  0  0  0  0  0
   58.7587   33.3877   49.2457 H   0  0  0  0  0  0  0  0  0  0  0  0
   58.0684   31.9424   48.4326 H   0  0  0  0  0  0  0  0  0  0  0  0
   59.8446   32.2103   48.4326 H   0  0  0  0  0  0  0  0  0  0  0  0
   59.0112   34.5570   44.7151 H   0  0  0  0  0  0  0  0  0  0  0  0
   58.2947   33.4962   42.5782 H   0  0  0  0  0  0  0  0  0  0  0  0
   57.2658   31.2280   42.5835 H   0  0  0  0  0  0  0  0  0  0  0  0
   57.1692   27.6010   44.1722 H   0  0  0  0  0  0  0  0  0  0  0  0
   58.6516   28.6132   44.3560 H   0  0  0  0  0  0  0  0  0  0  0  0
   57.5793   24.7001   47.1967 H   0  0  0  0  0  0  0  0  0  0  0  0
   57.6416   31.0805   46.8975 H   0  0  0  0  0  0  0  0  0  0  0  0
  1  2  1  0
  2  3  1  0
  3  4  2  0
  4  5  1  0
  5  6  2  0
  6  7  1  0
  7  8  1  0
  8  9  2  0
  8 10  1  0
 10 11  1  0
 11 12  1  0
 12 13  2  0
 13 14  1  0
 14 15  1  0
 15 16  2  0
  7 17  2  0
 17  3  1  0
 16 12  1  0
  1 18  1  0
  1 19  1  0
  1 20  1  0
  4 21  1  0
  5 22  1  0
  6 23  1  0
 10 24  1  0
 10 25  1  0
 13 26  1  0
 17 27  1  0
M  CHG  1  14  -1
M  END
>  <UniqueID>  (33) 
29

>  <SMILES>  (33) 
COc1cccc(C(=O)CSc2c[n-]nn2)c1

>  <Energy>  (33) 
58.89385049129993

>  <Genealogy>  (33) 
COc1cccc(C(=O)CSc2c[n-]nn2)c1 (protonated)
COc1cccc(C(=O)CSc2c[n-]nn2)c1 (3D coordinates assigned)
COc1cccc(C(=O)CSc2c[n-]nn2)c1 (optimized conformer: 58.89385049129993 kcal/mol)

>  <smiles>  (33) 
COc1cccc(C(=O)CSc2c[nH]nn2)c1

>  <score_type>  (33) 
oracle

>  <origin>  (33) 
adg

>  <m_score__min__energy>  (33) 
-9.4900000000000002

>  <m_primary>  (33) 
energy

$$$$
33:0
     RDKit          3D

 34 35  0  0  0  0  0  0  0  0999 V2000
   56.6750   26.2220   46.0600 C   0  0  0  0  0  0  0  0  0  0  0  0
   58.0090   26.2600   46.1210 C   0  0  0  0  0  0  0  0  0  0  0  0
   58.8280   26.8860   45.0280 C   0  0  0  0  0  0  0  0  0  0  0  0
   58.8660   28.3380   45.1910 N   0  0  0  0  0  0  0  0  0  0  0  0
   59.8680   29.0850   45.7150 C   0  0  0  0  0  0  0  0  0  0  0  0
   59.5730   30.4130   45.7730 N   0  0  0  0  0  0  0  0  0  0  0  0
   58.3230   30.4720   45.2720 C   0  0  0  0  0  0  0  0  0  0  0  0
   57.4870   31.5760   45.0670 C   0  0  0  0  0  0  0  0  0  0  0  0
   57.8630   32.9330   45.4060 N   0  0  0  0  0  0  0  0  0  0  0  0
   58.6720   33.7660   44.4980 C   0  0  0  0  0  0  0  0  0  0  0  0
   59.2680   34.9600   45.2380 C   0  0  0  0  0  0  0  0  0  0  0  0
   57.5110   33.4530   46.7380 C   0  0  0  0  0  0  0  0  0  0  0  0
   58.3640   32.7900   47.8130 C   0  0  0  0  0  0  0  0  0  0  0  0
   56.2670   31.3260   44.4990 N   0  0  0  0  0  0  0  0  0  0  0  0
   55.8670   30.0600   44.1570 C   0  0  0  0  0  0  0  0  0  0  0  0
   56.6920   28.9940   44.3690 N   0  0  0  0  0  0  0  0  0  0  0  0
   57.9040   29.2310   44.9230 C   0  0  0  0  0  0  0  0  0  0  0  0
   56.1002   25.7573   46.8746 H   0  0  0  0  0  0  0  0  0  0  0  0
   56.1514   26.6554   45.1951 H   0  0  0  0  0  0  0  0  0  0  0  0
   58.5196   25.8228   46.9917 H   0  0  0  0  0  0  0  0  0  0  0  0
   59.8531   26.4892   45.0700 H   0  0  0  0  0  0  0  0  0  0  0  0
   58.3709   26.6468   44.0565 H   0  0  0  0  0  0  0  0  0  0  0  0
   60.8231   28.6613   46.0587 H   0  0  0  0  0  0  0  0  0  0  0  0
   59.4879   33.1568   44.0818 H   0  0  0  0  0  0  0  0  0  0  0  0
   58.0223   34.1407   43.6933 H   0  0  0  0  0  0  0  0  0  0  0  0
   59.1866   34.7969   46.3228 H   0  0  0  0  0  0  0  0  0  0  0  0
   60.3271   35.0708   44.9623 H   0  0  0  0  0  0  0  0  0  0  0  0
   58.7199   35.8730   44.9623 H   0  0  0  0  0  0  0  0  0  0  0  0
   57.6821   34.5394   46.7592 H   0  0  0  0  0  0  0  0  0  0  0  0
   56.4522   33.2316   46.9376 H   0  0  0  0  0  0  0  0  0  0  0  0
   57.9916   33.0794   48.8068 H   0  0  0  0  0  0  0  0  0  0  0  0
   58.3068   31.6969   47.7041 H   0  0  0  0  0  0  0  0  0  0  0  0
   59.4092   33.1152   47.7041 H   0  0  0  0  0  0  0  0  0  0  0  0
   54.8748   29.9026   43.7089 H   0  0  0  0  0  0  0  0  0  0  0  0
  1  2  2  0
  2  3  1  0
  3  4  1  0
  4  5  1  0
  5  6  2  0
  6  7  1  0
  7  8  2  0
  8  9  1  0
  9 10  1  0
 10 11  1  0
  9 12  1  0
 12 13  1  0
  8 14  1  0
 14 15  2  0
 15 16  1  0
 16 17  2  0
 17  4  1  0
 17  7  1  0
  1 18  1  0
  1 19  1  0
  2 20  1  0
  3 21  1  0
  3 22  1  0
  5 23  1  0
 10 24  1  0
 10 25  1  0
 11 26  1  0
 11 27  1  0
 11 28  1  0
 12 29  1  0
 12 30  1  0
 13 31  1  0
 13 32  1  0
 13 33  1  0
 15 34  1  0
M  END
>  <UniqueID>  (34) 
30

>  <SMILES>  (34) 
C=CCn1cnc2c(N(CC)CC)ncnc21

>  <Energy>  (34) 
67.42906359510924

>  <Genealogy>  (34) 
C=CCn1cnc2c(N(CC)CC)ncnc21 (3D coordinates assigned)
C=CCn1cnc2c(N(CC)CC)ncnc21 (optimized conformer: 67.42906359510924 kcal/mol)

>  <smiles>  (34) 
C=CCn1cnc2c(N(CC)CC)ncnc21

>  <score_type>  (34) 
oracle

>  <origin>  (34) 
adg

>  <m_score__min__energy>  (34) 
-5.1299999999999999

>  <m_primary>  (34) 
energy

$$$$
34:0
     RDKit          3D

 48 50  0  0  0  0  0  0  0  0999 V2000
   63.1920   31.5940   47.6090 C   0  0  0  0  0  0  0  0  0  0  0  0
   61.9740   31.3690   48.5250 C   0  0  1  0  0  0  0  0  0  0  0  0
   61.5380   32.6200   49.1860 N   0  0  0  0  0  0  0  0  0  0  0  0
   61.6630   33.7940   48.3040 C   0  0  0  0  0  0  0  0  0  0  0  0
   60.4280   33.9480   47.4540 C   0  0  0  0  0  0  0  0  0  0  0  0
   60.5360   34.1860   46.0760 C   0  0  0  0  0  0  0  0  0  0  0  0
   59.3840   34.2890   45.2930 C   0  0  0  0  0  0  0  0  0  0  0  0
   58.1330   34.1400   45.8940 C   0  0  0  0  0  0  0  0  0  0  0  0
   58.0440   33.8930   47.2290 N   0  0  0  0  0  0  0  0  0  0  0  0
   59.1500   33.7900   48.0130 C   0  0  0  0  0  0  0  0  0  0  0  0
   60.8330   30.7690   47.7210 C   0  0  0  0  0  0  0  0  0  0  0  0
   59.5760   30.5400   48.3110 C   0  0  0  0  0  0  0  0  0  0  0  0
   58.5330   29.9850   47.5660 C   0  0  0  0  0  0  0  0  0  0  0  0
   58.7250   29.6480   46.2180 C   0  0  0  0  0  0  0  0  0  0  0  0
   57.6090   29.0380   45.4100 C   0  0  0  0  0  0  0  0  0  0  0  0
   56.6030   30.0650   45.0590 N   0  0  0  0  0  0  0  0  0  0  0  0
   55.8840   29.7000   43.8310 C   0  0  0  0  0  0  0  0  0  0  0  0
   56.6320   30.3090   42.6550 C   0  0  0  0  0  0  0  0  0  0  0  0
   57.4700   31.4260   43.2490 C   0  0  0  0  0  0  0  0  0  0  0  0
   57.2350   31.3590   44.7520 C   0  0  0  0  0  0  0  0  0  0  0  0
   59.9760   29.8750   45.6250 C   0  0  0  0  0  0  0  0  0  0  0  0
   61.0210   30.4310   46.3680 C   0  0  0  0  0  0  0  0  0  0  0  0
   64.0883   31.7596   48.2248 H   0  0  0  0  0  0  0  0  0  0  0  0
   63.3419   30.7083   46.9741 H   0  0  0  0  0  0  0  0  0  0  0  0
   63.0156   32.4747   46.9741 H   0  0  0  0  0  0  0  0  0  0  0  0
   62.2730   30.6696   49.3197 H   0  0  0  0  0  0  0  0  0  0  0  0
   60.5440   32.5340   49.5050 H   0  0  0  0  0  0  0  0  0  0  0  0
   62.1400   32.7830   50.0280 H   0  0  0  0  0  0  0  0  0  0  0  0
   61.7944   34.6966   48.9188 H   0  0  0  0  0  0  0  0  0  0  0  0
   62.5333   33.6542   47.6459 H   0  0  0  0  0  0  0  0  0  0  0  0
   61.5278   34.2915   45.6120 H   0  0  0  0  0  0  0  0  0  0  0  0
   59.4618   34.4856   44.2135 H   0  0  0  0  0  0  0  0  0  0  0  0
   57.2187   34.2223   45.2880 H   0  0  0  0  0  0  0  0  0  0  0  0
   59.0432   33.5824   49.0879 H   0  0  0  0  0  0  0  0  0  0  0  0
   59.4136   30.8002   49.3674 H   0  0  0  0  0  0  0  0  0  0  0  0
   57.5553   29.8112   48.0392 H   0  0  0  0  0  0  0  0  0  0  0  0
   58.0239   28.6071   44.4869 H   0  0  0  0  0  0  0  0  0  0  0  0
   57.1232   28.2537   46.0091 H   0  0  0  0  0  0  0  0  0  0  0  0
   55.8520   28.6053   43.7276 H   0  0  0  0  0  0  0  0  0  0  0  0
   54.8507   30.0758   43.8650 H   0  0  0  0  0  0  0  0  0  0  0  0
   57.2762   29.5565   42.1767 H   0  0  0  0  0  0  0  0  0  0  0  0
   55.9454   30.6792   41.8794 H   0  0  0  0  0  0  0  0  0  0  0  0
   58.5346   31.2711   43.0195 H   0  0  0  0  0  0  0  0  0  0  0  0
   57.1917   32.4071   42.8368 H   0  0  0  0  0  0  0  0  0  0  0  0
   58.1947   31.4406   45.2834 H   0  0  0  0  0  0  0  0  0  0  0  0
   56.5851   32.1863   45.0733 H   0  0  0  0  0  0  0  0  0  0  0  0
   60.1354   29.6137   44.5684 H   0  0  0  0  0  0  0  0  0  0  0  0
   61.9971   30.6056   45.8919 H   0  0  0  0  0  0  0  0  0  0  0  0
  1  2  1  0
  2  3  1  0
  3  4  1  0
  4  5  1  0
  5  6  2  0
  6  7  1  0
  7  8  2  0
  8  9  1  0
  9 10  2  0
  2 11  1  0
 11 12  2  0
 12 13  1  0
 13 14  2  0
 14 15  1  0
 15 16  1  0
 16 17  1  0
 17 18  1  0
 18 19  1  0
 19 20  1  0
 14 21  1  0
 21 22  2  0
 10  5  1  0
 22 11  1  0
 20 16  1  0
  1 23  1  0
  1 24  1  0
  1 25  1  0
  2 26  1  1
  3 27  1  0
  3 28  1  0
  4 29  1  0
  4 30  1  0
  6 31  1  0
  7 32  1  0
  8 33  1  0
 10 34  1  0
 12 35  1  0
 13 36  1  0
 15 37  1  0
 15 38  1  0
 17 39  1  0
 17 40  1  0
 18 41  1  0
 18 42  1  0
 19 43  1  0
 19 44  1  0
 20 45  1  0
 20 46  1  0
 21 47  1  0
 22 48  1  0
M  CHG  1   3   1
M  END
>  <UniqueID>  (35) 
31

>  <SMILES>  (35) 
C[C@@H]([NH2+]Cc1cccnc1)c1ccc(CN2CCCC2)cc1

>  <Energy>  (35) 
51.99618336553739

>  <Genealogy>  (35) 
CC([NH2+]Cc1cccnc1)c1ccc(CN2CCCC2)cc1 (protonated)
C[C@@H]([NH2+]Cc1cccnc1)c1ccc(CN2CCCC2)cc1 (chirality)
C[C@@H]([NH2+]Cc1cccnc1)c1ccc(CN2CCCC2)cc1 (3D coordinates assigned)
C[C@@H]([NH2+]Cc1cccnc1)c1ccc(CN2CCCC2)cc1 (nonaromatic ring conformer: 51.99618336553739 kcal/mol)

>  <smiles>  (35) 
CC(NCc1cccnc1)c1ccc(CN2CCCC2)cc1

>  <score_type>  (35) 
oracle

>  <origin>  (35) 
adg

>  <m_score__min__energy>  (35) 
-6.4000000000000004

>  <m_primary>  (35) 
energy

$$$$
35:0
     RDKit          3D

 37 41  0  0  0  0  0  0  0  0999 V2000
   65.6190   33.0830   49.3590 F   0  0  0  0  0  0  0  0  0  0  0  0
   64.3600   33.1660   48.8640 C   0  0  0  0  0  0  0  0  0  0  0  0
   64.1450   33.0920   47.4860 C   0  0  0  0  0  0  0  0  0  0  0  0
   62.8470   33.1770   46.9710 C   0  0  0  0  0  0  0  0  0  0  0  0
   61.7470   33.3380   47.8350 C   0  0  0  0  0  0  0  0  0  0  0  0
   60.3690   33.4360   47.3040 C   0  0  0  0  0  0  0  0  0  0  0  0
   60.0580   33.1700   46.0020 N   0  0  0  0  0  0  0  0  0  0  0  0
   58.7580   33.3330   45.8150 N   0  0  0  0  0  0  0  0  0  0  0  0
   57.8870   32.9720   44.8710 C   0  0  0  0  0  0  0  0  0  0  0  0
   58.2390   32.3400   43.5610 C   0  0  0  0  0  0  0  0  0  0  0  0
   57.9410   30.9100   43.6010 N   0  0  0  0  0  0  0  0  0  0  0  0
   56.9950   30.2650   42.8720 C   0  0  0  0  0  0  0  0  0  0  0  0
   56.8840   28.9570   43.2090 N   0  0  0  0  0  0  0  0  0  0  0  0
   57.7860   28.7880   44.1910 C   0  0  0  0  0  0  0  0  0  0  0  0
   58.0620   27.6310   44.9160 C   0  0  0  0  0  0  0  0  0  0  0  0
   59.0410   27.7120   45.9230 C   0  0  0  0  0  0  0  0  0  0  0  0
   59.7100   28.9320   46.1760 C   0  0  0  0  0  0  0  0  0  0  0  0
   59.4060   30.0830   45.4260 C   0  0  0  0  0  0  0  0  0  0  0  0
   58.4280   29.9690   44.4350 C   0  0  0  0  0  0  0  0  0  0  0  0
   56.6270   33.0700   45.3720 N   0  0  0  0  0  0  0  0  0  0  0  0
   56.7180   33.4850   46.6410 N   0  0  0  0  0  0  0  0  0  0  0  0
   58.0350   33.6390   46.8590 C   0  0  0  0  0  0  0  0  0  0  0  0
   58.9610   33.7980   48.2430 S   0  0  0  0  0  0  0  0  0  0  0  0
   61.9760   33.4070   49.2220 C   0  0  0  0  0  0  0  0  0  0  0  0
   63.2760   33.3230   49.7310 C   0  0  0  0  0  0  0  0  0  0  0  0
   64.9986   32.9665   46.8037 H   0  0  0  0  0  0  0  0  0  0  0  0
   62.6849   33.1177   45.8846 H   0  0  0  0  0  0  0  0  0  0  0  0
   57.6524   32.8122   42.7592 H   0  0  0  0  0  0  0  0  0  0  0  0
   59.3130   32.4802   43.3690 H   0  0  0  0  0  0  0  0  0  0  0  0
   56.3864   30.7498   42.0945 H   0  0  0  0  0  0  0  0  0  0  0  0
   56.2290   28.2500   42.8100 H   0  0  0  0  0  0  0  0  0  0  0  0
   57.5338   26.6886   44.7087 H   0  0  0  0  0  0  0  0  0  0  0  0
   59.2879   26.8202   46.5177 H   0  0  0  0  0  0  0  0  0  0  0  0
   60.4743   28.9815   46.9656 H   0  0  0  0  0  0  0  0  0  0  0  0
   59.9196   31.0376   45.6131 H   0  0  0  0  0  0  0  0  0  0  0  0
   61.1266   33.5278   49.9105 H   0  0  0  0  0  0  0  0  0  0  0  0
   63.4452   33.3807   50.8164 H   0  0  0  0  0  0  0  0  0  0  0  0
  1  2  1  0
  2  3  2  0
  3  4  1  0
  4  5  2  0
  5  6  1  0
  6  7  2  0
  7  8  1  0
  8  9  1  0
  9 10  1  0
 10 11  1  0
 11 12  1  0
 12 13  2  0
 13 14  1  0
 14 15  2  0
 15 16  1  0
 16 17  2  0
 17 18  1  0
 18 19  2  0
  9 20  2  0
 20 21  1  0
 21 22  2  0
 22 23  1  0
  5 24  1  0
 24 25  2  0
 25  2  1  0
 23  6  1  0
 22  8  1  0
 19 11  1  0
 19 14  1  0
  3 26  1  0
  4 27  1  0
 10 28  1  0
 10 29  1  0
 12 30  1  0
 13 31  1  0
 15 32  1  0
 16 33  1  0
 17 34  1  0
 18 35  1  0
 24 36  1  0
 25 37  1  0
M  CHG  1  13   1
M  END
>  <UniqueID>  (36) 
32

>  <SMILES>  (36) 
Fc1ccc(-c2nn3c(Cn4c[nH+]c5ccccc54)nnc3s2)cc1

>  <Energy>  (36) 
173.3450642972893

>  <Genealogy>  (36) 
Fc1ccc(-c2nn3c(Cn4c[nH+]c5ccccc54)nnc3s2)cc1 (protonated)
Fc1ccc(-c2nn3c(Cn4c[nH+]c5ccccc54)nnc3s2)cc1 (3D coordinates assigned)
Fc1ccc(-c2nn3c(Cn4c[nH+]c5ccccc54)nnc3s2)cc1 (optimized conformer: 173.3450642972893 kcal/mol)

>  <smiles>  (36) 
Fc1ccc(-c2nn3c(Cn4cnc5ccccc54)nnc3s2)cc1

>  <score_type>  (36) 
oracle

>  <origin>  (36) 
adg

>  <m_score__min__energy>  (36) 
-7.0099999999999998

>  <m_primary>  (36) 
energy

$$$$
36:0
     RDKit          3D

 27 29  0  0  0  0  0  0  0  0999 V2000
   59.7490   35.8330   46.5030 O   0  0  0  0  0  0  0  0  0  0  0  0
   59.3180   34.6500   46.5940 C   0  0  0  0  0  0  0  0  0  0  0  0
   58.8020   34.0180   45.4600 C   0  0  0  0  0  0  0  0  0  0  0  0
   58.3190   32.6970   45.5610 C   0  0  0  0  0  0  0  0  0  0  0  0
   57.7510   31.9470   44.3990 C   0  0  0  0  0  0  0  0  0  0  0  0
   57.8890   32.3840   43.0610 C   0  0  0  0  0  0  0  0  0  0  0  0
   57.3370   31.6460   42.0090 C   0  0  0  0  0  0  0  0  0  0  0  0
   56.6420   30.4640   42.2670 C   0  0  0  0  0  0  0  0  0  0  0  0
   56.4950   30.0180   43.5800 C   0  0  0  0  0  0  0  0  0  0  0  0
   57.0430   30.7500   44.6370 C   0  0  0  0  0  0  0  0  0  0  0  0
   58.3690   32.0800   46.7430 O   0  0  0  0  0  0  0  0  0  0  0  0
   58.8530   32.6430   47.8460 C   0  0  0  0  0  0  0  0  0  0  0  0
   58.8660   31.9190   49.0440 C   0  0  0  0  0  0  0  0  0  0  0  0
   59.3720   32.5020   50.2090 C   0  0  0  0  0  0  0  0  0  0  0  0
   59.8660   33.8090   50.1840 C   0  0  0  0  0  0  0  0  0  0  0  0
   59.8570   34.5410   48.9920 C   0  0  0  0  0  0  0  0  0  0  0  0
   59.3500   33.9620   47.8140 C   0  0  0  0  0  0  0  0  0  0  0  0
   58.7727   34.5467   44.4958 H   0  0  0  0  0  0  0  0  0  0  0  0
   58.4360   33.3137   42.8456 H   0  0  0  0  0  0  0  0  0  0  0  0
   57.4513   31.9990   40.9735 H   0  0  0  0  0  0  0  0  0  0  0  0
   56.2111   29.8853   41.4367 H   0  0  0  0  0  0  0  0  0  0  0  0
   55.9459   29.0870   43.7845 H   0  0  0  0  0  0  0  0  0  0  0  0
   56.9207   30.3880   45.6685 H   0  0  0  0  0  0  0  0  0  0  0  0
   58.4776   30.8902   49.0685 H   0  0  0  0  0  0  0  0  0  0  0  0
   59.3815   31.9302   51.1487 H   0  0  0  0  0  0  0  0  0  0  0  0
   60.2629   34.2633   51.1039 H   0  0  0  0  0  0  0  0  0  0  0  0
   60.2464   35.5696   48.9755 H   0  0  0  0  0  0  0  0  0  0  0  0
  1  2  2  0
  2  3  1  0
  3  4  2  0
  4  5  1  0
  5  6  2  0
  6  7  1  0
  7  8  2  0
  8  9  1  0
  9 10  2  0
  4 11  1  0
 11 12  1  0
 12 13  2  0
 13 14  1  0
 14 15  2  0
 15 16  1  0
 16 17  2  0
 17  2  1  0
 10  5  1  0
 17 12  1  0
  3 18  1  0
  6 19  1  0
  7 20  1  0
  8 21  1  0
  9 22  1  0
 10 23  1  0
 13 24  1  0
 14 25  1  0
 15 26  1  0
 16 27  1  0
M  END
>  <UniqueID>  (37) 
33

>  <SMILES>  (37) 
O=c1cc(-c2ccccc2)oc2ccccc12

>  <Energy>  (37) 
39.35266291047073

>  <Genealogy>  (37) 
O=c1cc(-c2ccccc2)oc2ccccc12 (3D coordinates assigned)
O=c1cc(-c2ccccc2)oc2ccccc12 (optimized conformer: 39.35266291047073 kcal/mol)

>  <smiles>  (37) 
O=c1cc(-c2ccccc2)oc2ccccc12

>  <score_type>  (37) 
oracle

>  <origin>  (37) 
adg

>  <m_score__min__energy>  (37) 
-6.4500000000000002

>  <m_primary>  (37) 
energy

$$$$
37:0
     RDKit          3D

 34 35  0  0  0  0  0  0  0  0999 V2000
   57.9540   30.0000   44.6190 C   0  0  0  0  0  0  0  0  0  0  0  0
   57.0210   30.8680   43.7730 C   0  0  0  0  0  0  0  0  0  0  0  0
   57.7570   32.0240   43.0790 C   0  0  0  0  0  0  0  0  0  0  0  0
   58.3860   33.0050   44.0820 C   0  0  0  0  0  0  0  0  0  0  0  0
   57.3330   33.8350   44.8380 C   0  0  0  0  0  0  0  0  0  0  0  0
   57.4930   33.8110   46.3670 C   0  0  0  0  0  0  0  0  0  0  0  0
   58.8660   33.4990   46.7600 N   0  0  0  0  0  0  0  0  0  0  0  0
   60.0320   34.2940   46.5300 C   0  0  0  0  0  0  0  0  0  0  0  0
   60.0130   35.4850   46.1230 O   0  0  0  0  0  0  0  0  0  0  0  0
   61.2310   33.5180   46.8290 C   0  0  0  0  0  0  0  0  0  0  0  0
   62.5800   33.8610   46.7480 C   0  0  0  0  0  0  0  0  0  0  0  0
   63.5310   32.8840   47.0950 C   0  0  0  0  0  0  0  0  0  0  0  0
   63.1180   31.5970   47.5040 C   0  0  0  0  0  0  0  0  0  0  0  0
   61.7500   31.2750   47.5730 C   0  0  0  0  0  0  0  0  0  0  0  0
   60.8280   32.2610   47.2290 C   0  0  0  0  0  0  0  0  0  0  0  0
   59.3700   32.2300   47.1860 C   0  0  0  0  0  0  0  0  0  0  0  0
   58.6480   31.2370   47.4680 O   0  0  0  0  0  0  0  0  0  0  0  0
   57.7577   30.1826   45.6858 H   0  0  0  0  0  0  0  0  0  0  0  0
   57.7759   28.9390   44.3898 H   0  0  0  0  0  0  0  0  0  0  0  0
   58.9994   30.2541   44.3898 H   0  0  0  0  0  0  0  0  0  0  0  0
   56.5530   30.2361   43.0038 H   0  0  0  0  0  0  0  0  0  0  0  0
   56.2719   31.3076   44.4480 H   0  0  0  0  0  0  0  0  0  0  0  0
   58.5540   31.6061   42.4465 H   0  0  0  0  0  0  0  0  0  0  0  0
   57.0194   32.5811   42.4828 H   0  0  0  0  0  0  0  0  0  0  0  0
   58.9744   32.4319   44.8136 H   0  0  0  0  0  0  0  0  0  0  0  0
   59.0161   33.7046   43.5132 H   0  0  0  0  0  0  0  0  0  0  0  0
   57.4079   34.8789   44.4993 H   0  0  0  0  0  0  0  0  0  0  0  0
   56.3546   33.3846   44.6147 H   0  0  0  0  0  0  0  0  0  0  0  0
   57.2221   34.7981   46.7697 H   0  0  0  0  0  0  0  0  0  0  0  0
   56.8337   33.0278   46.7695 H   0  0  0  0  0  0  0  0  0  0  0  0
   62.8912   34.8647   46.4228 H   0  0  0  0  0  0  0  0  0  0  0  0
   64.6034   33.1242   47.0474 H   0  0  0  0  0  0  0  0  0  0  0  0
   63.8711   30.8408   47.7705 H   0  0  0  0  0  0  0  0  0  0  0  0
   61.4186   30.2749   47.8890 H   0  0  0  0  0  0  0  0  0  0  0  0
  1  2  1  0
  2  3  1  0
  3  4  1  0
  4  5  1  0
  5  6  1  0
  6  7  1  0
  7  8  1  0
  8  9  2  0
  8 10  1  0
 10 11  2  0
 11 12  1  0
 12 13  2  0
 13 14  1  0
 14 15  2  0
 15 16  1  0
 16 17  2  0
 16  7  1  0
 15 10  1  0
  1 18  1  0
  1 19  1  0
  1 20  1  0
  2 21  1  0
  2 22  1  0
  3 23  1  0
  3 24  1  0
  4 25  1  0
  4 26  1  0
  5 27  1  0
  5 28  1  0
  6 29  1  0
  6 30  1  0
 11 31  1  0
 12 32  1  0
 13 33  1  0
 14 34  1  0
M  END
>  <UniqueID>  (38) 
34

>  <SMILES>  (38) 
CCCCCCN1C(=O)c2ccccc2C1=O

>  <Energy>  (38) 
55.314232225974955

>  <Genealogy>  (38) 
CCCCCCN1C(=O)c2ccccc2C1=O (3D coordinates assigned)
CCCCCCN1C(=O)c2ccccc2C1=O (nonaromatic ring conformer: 55.314232225974955 kcal/mol)

>  <smiles>  (38) 
CCCCCCN1C(=O)c2ccccc2C1=O

>  <score_type>  (38) 
oracle

>  <origin>  (38) 
adg

>  <m_score__min__energy>  (38) 
-6.2400000000000002

>  <m_primary>  (38) 
energy

$$$$
38:0
     RDKit          3D

 28 30  0  0  0  0  0  0  0  0999 V2000
   57.3710   28.7850   43.5160 N   0  0  0  0  0  0  0  0  0  0  0  0
   57.5210   29.8030   44.5160 C   0  0  0  0  0  0  0  0  0  0  0  0
   58.1610   29.4690   45.6730 C   0  0  0  0  0  0  0  0  0  0  0  0
   58.5040   30.3840   46.7970 C   0  0  0  0  0  0  0  0  0  0  0  0
   59.0800   29.9310   47.8220 O   0  0  0  0  0  0  0  0  0  0  0  0
   58.1670   31.8270   46.6960 C   0  0  1  0  0  0  0  0  0  0  0  0
   58.5460   32.8150   47.7710 C   0  0  0  0  0  0  0  0  0  0  0  0
   58.2680   34.1480   47.0580 C   0  0  0  0  0  0  0  0  0  0  0  0
   58.5820   33.8960   45.5680 C   0  0  2  0  0  0  0  0  0  0  0  0
   57.4430   33.7580   44.5310 C   0  0  0  0  0  0  0  0  0  0  0  0
   57.9240   32.3270   44.2190 C   0  0  2  0  0  0  0  0  0  0  0  0
   56.8920   31.1710   44.2260 C   0  0  0  0  0  0  0  0  0  0  0  0
   58.8170   32.4090   45.4430 C   0  0  2  0  0  0  0  0  0  0  0  0
   57.7140   28.9340   42.5420 H   0  0  0  0  0  0  0  0  0  0  0  0
   56.9210   27.8690   43.7360 H   0  0  0  0  0  0  0  0  0  0  0  0
   58.4542   28.4150   45.7880 H   0  0  0  0  0  0  0  0  0  0  0  0
   57.0709   31.7486   46.7445 H   0  0  0  0  0  0  0  0  0  0  0  0
   57.9182   32.6977   48.6666 H   0  0  0  0  0  0  0  0  0  0  0  0
   59.5755   32.7066   48.1430 H   0  0  0  0  0  0  0  0  0  0  0  0
   57.2146   34.4386   47.1845 H   0  0  0  0  0  0  0  0  0  0  0  0
   58.8790   34.9647   47.4699 H   0  0  0  0  0  0  0  0  0  0  0  0
   59.2891   34.7166   45.3768 H   0  0  0  0  0  0  0  0  0  0  0  0
   56.4319   33.8109   44.9610 H   0  0  0  0  0  0  0  0  0  0  0  0
   57.3219   34.4985   43.7267 H   0  0  0  0  0  0  0  0  0  0  0  0
   58.3095   32.0931   43.2157 H   0  0  0  0  0  0  0  0  0  0  0  0
   56.1377   31.3801   44.9989 H   0  0  0  0  0  0  0  0  0  0  0  0
   56.4494   31.1212   43.2202 H   0  0  0  0  0  0  0  0  0  0  0  0
   59.8100   31.9429   45.3609 H   0  0  0  0  0  0  0  0  0  0  0  0
  1  2  1  0
  2  3  2  0
  3  4  1  0
  4  5  2  0
  4  6  1  0
  6  7  1  0
  7  8  1  0
  8  9  1  0
  9 10  1  0
 10 11  1  0
 11 12  1  0
 11 13  1  0
 12  2  1  0
 13  6  1  0
 13  9  1  0
  1 14  1  0
  1 15  1  0
  3 16  1  0
  6 17  1  6
  7 18  1  0
  7 19  1  0
  8 20  1  0
  8 21  1  0
  9 22  1  6
 10 23  1  0
 10 24  1  0
 11 25  1  6
 12 26  1  0
 12 27  1  0
 13 28  1  6
M  END
>  <UniqueID>  (39) 
35

>  <SMILES>  (39) 
NC1=CC(=O)[C@H]2CC[C@@H]3CC(C1)C32

>  <Energy>  (39) 
115.22747753274324

>  <Genealogy>  (39) 
NC1=CC(=O)[C@H]2CC[C@@H]3CC(C1)C32 (chirality)
NC1=CC(=O)[C@H]2CC[C@@H]3CC(C1)C32 (3D coordinates assigned)
NC1=CC(=O)[C@H]2CC[C@@H]3CC(C1)C32 (nonaromatic ring conformer: 115.22747753274324 kcal/mol)

>  <smiles>  (39) 
NC1=CC(=O)C2CCC3CC(C1)C32

>  <score_type>  (39) 
oracle

>  <origin>  (39) 
adg

>  <m_score__min__energy>  (39) 
-4.8499999999999996

>  <m_primary>  (39) 
energy

$$$$
39:0
     RDKit          3D

 35 36  0  0  0  0  0  0  0  0999 V2000
   54.4780   25.1120   45.6070 C   0  0  0  0  0  0  0  0  0  0  0  0
   55.0040   26.3810   45.9810 O   0  0  0  0  0  0  0  0  0  0  0  0
   56.3700   26.7010   46.0020 C   0  0  0  0  0  0  0  0  0  0  0  0
   57.3520   25.7590   46.3690 C   0  0  0  0  0  0  0  0  0  0  0  0
   58.7060   26.0980   46.3280 C   0  0  0  0  0  0  0  0  0  0  0  0
   59.0970   27.3730   45.9140 C   0  0  0  0  0  0  0  0  0  0  0  0
   58.1320   28.3170   45.5540 C   0  0  0  0  0  0  0  0  0  0  0  0
   56.7710   27.9980   45.6230 C   0  0  0  0  0  0  0  0  0  0  0  0
   55.8080   28.9830   45.2340 N   0  0  0  0  0  0  0  0  0  0  0  0
   55.9290   29.8540   44.1020 C   0  0  0  0  0  0  0  0  0  0  0  0
   55.1350   29.6950   43.1360 O   0  0  0  0  0  0  0  0  0  0  0  0
   57.0790   30.8310   43.9780 C   0  0  0  0  0  0  0  0  0  0  0  0
   57.4510   31.4370   45.2760 N   0  0  0  0  0  0  0  0  0  0  0  0
   57.0310   32.8420   45.3580 C   0  0  0  0  0  0  0  0  0  0  0  0
   57.9670   33.5270   46.3440 C   0  0  0  0  0  0  0  0  0  0  0  0
   59.1790   32.6140   46.4550 C   0  0  0  0  0  0  0  0  0  0  0  0
   58.9020   31.4600   45.5040 C   0  0  0  0  0  0  0  0  0  0  0  0
   54.2382   24.5335   46.5113 H   0  0  0  0  0  0  0  0  0  0  0  0
   53.5650   25.2549   45.0103 H   0  0  0  0  0  0  0  0  0  0  0  0
   55.2244   24.5671   45.0103 H   0  0  0  0  0  0  0  0  0  0  0  0
   57.0501   24.7510   46.6896 H   0  0  0  0  0  0  0  0  0  0  0  0
   59.4660   25.3593   46.6224 H   0  0  0  0  0  0  0  0  0  0  0  0
   60.1647   27.6341   45.8713 H   0  0  0  0  0  0  0  0  0  0  0  0
   58.4434   29.3159   45.2146 H   0  0  0  0  0  0  0  0  0  0  0  0
   57.9525   30.2981   43.5743 H   0  0  0  0  0  0  0  0  0  0  0  0
   56.7565   31.6435   43.3103 H   0  0  0  0  0  0  0  0  0  0  0  0
   56.9880   30.9160   46.0590 H   0  0  0  0  0  0  0  0  0  0  0  0
   57.1087   33.3183   44.3695 H   0  0  0  0  0  0  0  0  0  0  0  0
   55.9848   32.9214   45.6884 H   0  0  0  0  0  0  0  0  0  0  0  0
   58.2645   34.5168   45.9675 H   0  0  0  0  0  0  0  0  0  0  0  0
   57.4856   33.6869   47.3201 H   0  0  0  0  0  0  0  0  0  0  0  0
   60.0926   33.1487   46.1559 H   0  0  0  0  0  0  0  0  0  0  0  0
   59.3366   32.2660   47.4865 H   0  0  0  0  0  0  0  0  0  0  0  0
   59.4323   31.6172   44.5532 H   0  0  0  0  0  0  0  0  0  0  0  0
   59.2501   30.5066   45.9282 H   0  0  0  0  0  0  0  0  0  0  0  0
  1  2  1  0
  2  3  1  0
  3  4  2  0
  4  5  1  0
  5  6  2  0
  6  7  1  0
  7  8  2  0
  8  9  1  0
  9 10  1  0
 10 11  2  0
 10 12  1  0
 12 13  1  0
 13 14  1  0
 14 15  1  0
 15 16  1  0
 16 17  1  0
  8  3  1  0
 17 13  1  0
  1 18  1  0
  1 19  1  0
  1 20  1  0
  4 21  1  0
  5 22  1  0
  6 23  1  0
  7 24  1  0
 12 25  1  0
 12 26  1  0
 13 27  1  0
 14 28  1  0
 14 29  1  0
 15 30  1  0
 15 31  1  0
 16 32  1  0
 16 33  1  0
 17 34  1  0
 17 35  1  0
M  CHG  2   9  -1  13   1
M  END
>  <UniqueID>  (40) 
36

>  <SMILES>  (40) 
COc1ccccc1[N-]C(=O)C[NH+]1CCCC1

>  <Energy>  (40) 
42.9360470582594

>  <Genealogy>  (40) 
COc1ccccc1[N-]C(=O)C[NH+]1CCCC1 (protonated)
COc1ccccc1[N-]C(=O)C[NH+]1CCCC1 (3D coordinates assigned)
COc1ccccc1[N-]C(=O)C[NH+]1CCCC1 (nonaromatic ring conformer: 42.9360470582594 kcal/mol)

>  <smiles>  (40) 
COc1ccccc1NC(=O)CN1CCCC1

>  <score_type>  (40) 
oracle

>  <origin>  (40) 
adg

>  <m_score__min__energy>  (40) 
-7.1500000000000004

>  <m_primary>  (40) 
energy

$$$$
40:0
     RDKit          3D

 30 31  0  0  0  0  0  0  0  0999 V2000
   59.1170   30.5910   49.7890 C   0  0  0  0  0  0  0  0  0  0  0  0
   58.9030   31.1610   48.4440 N   0  0  1  0  0  0  0  0  0  0  0  0
   59.1560   32.6220   48.4850 C   0  0  0  0  0  0  0  0  0  0  0  0
   58.7410   33.3080   47.2030 C   0  0  0  0  0  0  0  0  0  0  0  0
   59.6880   33.9840   46.4200 C   0  0  0  0  0  0  0  0  0  0  0  0
   59.2930   34.6240   45.2440 C   0  0  0  0  0  0  0  0  0  0  0  0
   57.9510   34.5840   44.8610 C   0  0  0  0  0  0  0  0  0  0  0  0
   57.0430   33.9250   45.6290 N   0  0  0  0  0  0  0  0  0  0  0  0
   57.4040   33.2930   46.7780 C   0  0  0  0  0  0  0  0  0  0  0  0
   59.7850   30.4990   47.4520 C   0  0  0  0  0  0  0  0  0  0  0  0
   59.0330   30.1110   46.2100 C   0  0  0  0  0  0  0  0  0  0  0  0
   59.5390   29.3830   45.1490 C   0  0  0  0  0  0  0  0  0  0  0  0
   58.4980   29.2560   44.2540 C   0  0  0  0  0  0  0  0  0  0  0  0
   57.4290   29.9130   44.8280 C   0  0  0  0  0  0  0  0  0  0  0  0
   55.8340   30.0690   44.1240 Cl  0  0  0  0  0  0  0  0  0  0  0  0
   57.7730   30.4130   45.9920 O   0  0  0  0  0  0  0  0  0  0  0  0
   58.8381   31.3340   50.5507 H   0  0  0  0  0  0  0  0  0  0  0  0
   58.4954   29.6915   49.9092 H   0  0  0  0  0  0  0  0  0  0  0  0
   60.1770   30.3229   49.9092 H   0  0  0  0  0  0  0  0  0  0  0  0
   57.9010   30.9970   48.1830 H   0  0  0  0  0  0  0  0  0  0  0  0
   58.5873   33.0570   49.3201 H   0  0  0  0  0  0  0  0  0  0  0  0
   60.2375   32.7747   48.6158 H   0  0  0  0  0  0  0  0  0  0  0  0
   60.7423   34.0099   46.7326 H   0  0  0  0  0  0  0  0  0  0  0  0
   60.0317   35.1545   44.6252 H   0  0  0  0  0  0  0  0  0  0  0  0
   57.6280   35.0861   43.9371 H   0  0  0  0  0  0  0  0  0  0  0  0
   56.6448   32.7681   47.3764 H   0  0  0  0  0  0  0  0  0  0  0  0
   60.5944   31.1912   47.1769 H   0  0  0  0  0  0  0  0  0  0  0  0
   60.1875   29.5829   47.9090 H   0  0  0  0  0  0  0  0  0  0  0  0
   60.5598   28.9874   45.0414 H   0  0  0  0  0  0  0  0  0  0  0  0
   58.5159   28.7383   43.2836 H   0  0  0  0  0  0  0  0  0  0  0  0
  1  2  1  0
  2  3  1  0
  3  4  1  0
  4  5  2  0
  5  6  1  0
  6  7  2  0
  7  8  1  0
  8  9  2  0
  2 10  1  0
 10 11  1  0
 11 12  2  0
 12 13  1  0
 13 14  2  0
 14 15  1  0
 14 16  1  0
  9  4  1  0
 16 11  1  0
  1 17  1  0
  1 18  1  0
  1 19  1  0
  2 20  1  6
  3 21  1  0
  3 22  1  0
  5 23  1  0
  6 24  1  0
  7 25  1  0
  9 26  1  0
 10 27  1  0
 10 28  1  0
 12 29  1  0
 13 30  1  0
M  CHG  1   2   1
M  END
>  <UniqueID>  (41) 
37

>  <SMILES>  (41) 
C[N@@H+](Cc1cccnc1)Cc1ccc(Cl)o1

>  <Energy>  (41) 
58.31456528510765

>  <Genealogy>  (41) 
C[NH+](Cc1cccnc1)Cc1ccc(Cl)o1 (protonated)
C[N@@H+](Cc1cccnc1)Cc1ccc(Cl)o1 (chirality)
C[N@@H+](Cc1cccnc1)Cc1ccc(Cl)o1 (3D coordinates assigned)
C[N@@H+](Cc1cccnc1)Cc1ccc(Cl)o1 (optimized conformer: 58.31456528510765 kcal/mol)

>  <smiles>  (41) 
CN(Cc1cccnc1)Cc1ccc(Cl)o1

>  <score_type>  (41) 
oracle

>  <origin>  (41) 
adg

>  <m_score__min__energy>  (41) 
-3.46

>  <m_primary>  (41) 
energy

$$$$
41:0
     RDKit          3D

 30 32  0  0  0  0  0  0  0  0999 V2000
   57.8260   26.7700   44.8130 O   0  0  0  0  0  0  0  0  0  0  0  0
   56.9120   27.5090   45.2640 C   0  0  0  0  0  0  0  0  0  0  0  0
   55.7550   26.8930   45.8470 N   0  0  0  0  0  0  0  0  0  0  0  0
   55.5280   25.4830   45.9960 C   0  0  0  0  0  0  0  0  0  0  0  0
   54.4250   24.8430   45.4000 C   0  0  0  0  0  0  0  0  0  0  0  0
   54.2440   23.4660   45.5570 C   0  0  0  0  0  0  0  0  0  0  0  0
   55.1660   22.7160   46.2940 C   0  0  0  0  0  0  0  0  0  0  0  0
   54.9160   20.8340   46.5050 Br  0  0  0  0  0  0  0  0  0  0  0  0
   56.2770   23.3440   46.8670 C   0  0  0  0  0  0  0  0  0  0  0  0
   56.4600   24.7210   46.7120 C   0  0  0  0  0  0  0  0  0  0  0  0
   57.0790   28.9810   45.2130 C   0  0  0  0  0  0  0  0  0  0  0  0
   58.1980   29.5730   45.8150 C   0  0  0  0  0  0  0  0  0  0  0  0
   58.3690   30.9580   45.7530 C   0  0  0  0  0  0  0  0  0  0  0  0
   59.4840   31.5860   46.3260 C   0  0  0  0  0  0  0  0  0  0  0  0
   59.6220   32.9760   46.2400 C   0  0  0  0  0  0  0  0  0  0  0  0
   61.1400   33.8340   47.0180 Br  0  0  0  0  0  0  0  0  0  0  0  0
   58.6480   33.7400   45.5840 C   0  0  0  0  0  0  0  0  0  0  0  0
   57.5350   33.1170   45.0120 C   0  0  0  0  0  0  0  0  0  0  0  0
   57.3890   31.7280   45.0930 C   0  0  0  0  0  0  0  0  0  0  0  0
   56.3260   31.1390   44.5520 O   0  0  0  0  0  0  0  0  0  0  0  0
   56.1330   29.8240   44.5910 C   0  0  0  0  0  0  0  0  0  0  0  0
   55.0840   29.3470   44.0820 O   0  0  0  0  0  0  0  0  0  0  0  0
   53.7042   25.4277   44.8096 H   0  0  0  0  0  0  0  0  0  0  0  0
   53.3744   22.9711   45.0999 H   0  0  0  0  0  0  0  0  0  0  0  0
   57.0072   22.7536   47.4400 H   0  0  0  0  0  0  0  0  0  0  0  0
   57.3408   25.2090   47.1548 H   0  0  0  0  0  0  0  0  0  0  0  0
   58.9395   28.9485   46.3349 H   0  0  0  0  0  0  0  0  0  0  0  0
   60.2489   30.9872   46.8422 H   0  0  0  0  0  0  0  0  0  0  0  0
   58.7593   34.8324   45.5189 H   0  0  0  0  0  0  0  0  0  0  0  0
   56.7725   33.7200   44.4972 H   0  0  0  0  0  0  0  0  0  0  0  0
  1  2  2  0
  2  3  1  0
  3  4  1  0
  4  5  2  0
  5  6  1  0
  6  7  2  0
  7  8  1  0
  7  9  1  0
  9 10  2  0
  2 11  1  0
 11 12  2  0
 12 13  1  0
 13 14  2  0
 14 15  1  0
 15 16  1  0
 15 17  2  0
 17 18  1  0
 18 19  2  0
 19 20  1  0
 20 21  1  0
 21 22  2  0
 10  4  1  0
 21 11  1  0
 19 13  1  0
  5 23  1  0
  6 24  1  0
  9 25  1  0
 10 26  1  0
 12 27  1  0
 14 28  1  0
 17 29  1  0
 18 30  1  0
M  CHG  1   3  -1
M  END
>  <UniqueID>  (42) 
38

>  <SMILES>  (42) 
O=C([N-]c1ccc(Br)cc1)c1cc2cc(Br)ccc2oc1=O

>  <Energy>  (42) 
45.3098420287145

>  <Genealogy>  (42) 
O=C([N-]c1ccc(Br)cc1)c1cc2cc(Br)ccc2oc1=O (protonated)
O=C([N-]c1ccc(Br)cc1)c1cc2cc(Br)ccc2oc1=O (3D coordinates assigned)
O=C([N-]c1ccc(Br)cc1)c1cc2cc(Br)ccc2oc1=O (optimized conformer: 45.3098420287145 kcal/mol)

>  <smiles>  (42) 
O=C(Nc1ccc(Br)cc1)c1cc2cc(Br)ccc2oc1=O

>  <score_type>  (42) 
oracle

>  <origin>  (42) 
adg

>  <m_score__min__energy>  (42) 
-9.6099999999999994

>  <m_primary>  (42) 
energy

$$$$
42:0
     RDKit          3D

 38 40  0  0  0  0  0  0  0  0999 V2000
   55.1590   26.7000   45.9880 O   0  0  0  0  0  0  0  0  0  0  0  0
   56.1750   26.0860   46.4090 C   0  0  0  0  0  0  0  0  0  0  0  0
   56.0010   24.7820   46.9800 N   0  0  0  0  0  0  0  0  0  0  0  0
   55.0640   23.7860   46.5430 C   0  0  0  0  0  0  0  0  0  0  0  0
   55.2300   22.4640   46.9700 C   0  0  0  0  0  0  0  0  0  0  0  0
   54.3310   21.4850   46.5440 C   0  0  0  0  0  0  0  0  0  0  0  0
   53.3100   21.8110   45.7090 N   0  0  0  0  0  0  0  0  0  0  0  0
   53.1360   23.0830   45.2610 C   0  0  0  0  0  0  0  0  0  0  0  0
   52.1840   23.3450   44.4790 O   0  0  0  0  0  0  0  0  0  0  0  0
   54.0150   24.0940   45.6610 C   0  0  0  0  0  0  0  0  0  0  0  0
   57.5170   26.6930   46.2430 C   0  0  0  0  0  0  0  0  0  0  0  0
   58.0990   27.3990   47.3100 C   0  0  0  0  0  0  0  0  0  0  0  0
   59.3680   27.9850   47.1810 C   0  0  0  0  0  0  0  0  0  0  0  0
   59.9500   28.7920   48.3150 C   0  0  0  0  0  0  0  0  0  0  0  0
   58.9530   29.1930   49.1850 F   0  0  0  0  0  0  0  0  0  0  0  0
   60.8740   28.0480   49.0280 F   0  0  0  0  0  0  0  0  0  0  0  0
   60.5760   29.9130   47.7990 F   0  0  0  0  0  0  0  0  0  0  0  0
   60.0460   27.8810   45.9560 C   0  0  0  0  0  0  0  0  0  0  0  0
   59.4810   27.1720   44.8940 C   0  0  0  0  0  0  0  0  0  0  0  0
   58.2110   26.5870   45.0210 C   0  0  0  0  0  0  0  0  0  0  0  0
   57.6340   25.8810   43.9540 O   0  0  0  0  0  0  0  0  0  0  0  0
   57.4650   24.4890   43.9010 C   0  0  0  0  0  0  0  0  0  0  0  0
   56.5600   23.8810   43.0120 C   0  0  0  0  0  0  0  0  0  0  0  0
   56.4090   22.4910   43.0030 C   0  0  0  0  0  0  0  0  0  0  0  0
   57.1500   21.7010   43.8870 C   0  0  0  0  0  0  0  0  0  0  0  0
   58.0370   22.3000   44.7850 C   0  0  0  0  0  0  0  0  0  0  0  0
   58.1890   23.6900   44.7970 C   0  0  0  0  0  0  0  0  0  0  0  0
   56.0634   22.1980   47.6369 H   0  0  0  0  0  0  0  0  0  0  0  0
   54.4495   20.4461   46.8854 H   0  0  0  0  0  0  0  0  0  0  0  0
   53.8863   25.1210   45.2885 H   0  0  0  0  0  0  0  0  0  0  0  0
   57.5522   27.4937   48.2598 H   0  0  0  0  0  0  0  0  0  0  0  0
   61.0280   28.3609   45.8321 H   0  0  0  0  0  0  0  0  0  0  0  0
   60.0358   27.0709   43.9496 H   0  0  0  0  0  0  0  0  0  0  0  0
   55.9693   24.5011   42.3217 H   0  0  0  0  0  0  0  0  0  0  0  0
   55.7069   22.0188   42.3001 H   0  0  0  0  0  0  0  0  0  0  0  0
   57.0346   20.6071   43.8755 H   0  0  0  0  0  0  0  0  0  0  0  0
   58.6162   21.6777   45.4831 H   0  0  0  0  0  0  0  0  0  0  0  0
   58.8800   24.1588   45.5130 H   0  0  0  0  0  0  0  0  0  0  0  0
  1  2  2  0
  2  3  1  0
  3  4  1  0
  4  5  1  0
  5  6  2  0
  6  7  1  0
  7  8  1  0
  8  9  2  0
  8 10  1  0
  2 11  1  0
 11 12  2  0
 12 13  1  0
 13 14  1  0
 14 15  1  0
 14 16  1  0
 14 17  1  0
 13 18  2  0
 18 19  1  0
 19 20  2  0
 20 21  1  0
 21 22  1  0
 22 23  2  0
 23 24  1  0
 24 25  2  0
 25 26  1  0
 26 27  2  0
 10  4  2  0
 20 11  1  0
 27 22  1  0
  5 28  1  0
  6 29  1  0
 10 30  1  0
 12 31  1  0
 18 32  1  0
 19 33  1  0
 23 34  1  0
 24 35  1  0
 25 36  1  0
 26 37  1  0
 27 38  1  0
M  CHG  2   3  -1   7  -1
M  END
>  <UniqueID>  (43) 
39

>  <SMILES>  (43) 
O=C([N-]c1cc[n-]c(=O)c1)c1cc(C(F)(F)F)ccc1Oc1ccccc1

>  <Energy>  (43) 
56.353323587146136

>  <Genealogy>  (43) 
O=C([N-]c1cc[n-]c(=O)c1)c1cc(C(F)(F)F)ccc1Oc1ccccc1 (protonated)
O=C([N-]c1cc[n-]c(=O)c1)c1cc(C(F)(F)F)ccc1Oc1ccccc1 (3D coordinates assigned)
O=C([N-]c1cc[n-]c(=O)c1)c1cc(C(F)(F)F)ccc1Oc1ccccc1 (optimized conformer: 56.353323587146136 kcal/mol)

>  <smiles>  (43) 
O=C(Nc1cc[nH]c(=O)c1)c1cc(C(F)(F)F)ccc1Oc1ccccc1

>  <score_type>  (43) 
oracle

>  <origin>  (43) 
adg

>  <m_score__min__energy>  (43) 
-10.85

>  <m_primary>  (43) 
energy

$$$$
43:0
     RDKit          3D

 35 36  0  0  1  0  0  0  0  0999 V2000
   56.2520   29.7100   42.6280 C   0  0  0  0  0  0  0  0  0  0  0  0
   56.1120   30.0340   44.0820 C   0  0  0  0  0  0  0  0  0  0  0  0
   55.4360   29.2930   44.8450 O   0  0  0  0  0  0  0  0  0  0  0  0
   56.7500   31.2040   44.6320 N   0  0  0  0  0  0  0  0  0  0  0  0
   57.7650   31.0830   45.4010 C   0  0  0  0  0  0  0  0  0  0  0  0
   58.1000   29.8670   45.8840 N   0  0  0  0  0  0  0  0  0  0  0  0
   59.1680   29.7390   46.6930 C   0  0  0  0  0  0  0  0  0  0  0  0
   59.5440   28.3980   47.2300 C   0  0  0  0  0  0  0  0  0  0  0  0
   60.4030   27.6680   46.2030 C   0  0  0  0  0  0  0  0  0  0  0  0
   58.2510   27.5970   47.4100 C   0  0  0  0  0  0  0  0  0  0  0  0
   60.3080   28.4720   48.5200 C   0  0  0  0  0  0  0  0  0  0  0  0
   59.8850   30.8550   47.0040 N   0  0  0  0  0  0  0  0  0  0  0  0
   59.5750   32.0620   46.5410 C   0  0  0  0  0  0  0  0  0  0  0  0
   60.2930   33.1890   46.8490 C   0  0  0  0  0  0  0  0  0  0  0  0
   59.9620   34.4400   46.3620 C   0  0  0  0  0  0  0  0  0  0  0  0
   58.8690   34.6060   45.5280 C   0  0  0  0  0  0  0  0  0  0  0  0
   58.1460   33.4720   45.2160 C   0  0  0  0  0  0  0  0  0  0  0  0
   58.4810   32.2230   45.7060 C   0  0  0  0  0  0  0  0  0  0  0  0
   56.6861   28.7054   42.5163 H   0  0  0  0  0  0  0  0  0  0  0  0
   55.2620   29.7369   42.1494 H   0  0  0  0  0  0  0  0  0  0  0  0
   56.9109   30.4494   42.1494 H   0  0  0  0  0  0  0  0  0  0  0  0
   57.5270   29.0410   45.6230 H   0  0  0  0  0  0  0  0  0  0  0  0
   61.1418   27.0402   46.7227 H   0  0  0  0  0  0  0  0  0  0  0  0
   59.7618   27.0342   45.5727 H   0  0  0  0  0  0  0  0  0  0  0  0
   60.9250   28.4030   45.5727 H   0  0  0  0  0  0  0  0  0  0  0  0
   58.0451   27.4694   48.4830 H   0  0  0  0  0  0  0  0  0  0  0  0
   57.4167   28.1367   46.9381 H   0  0  0  0  0  0  0  0  0  0  0  0
   58.3626   26.6096   46.9381 H   0  0  0  0  0  0  0  0  0  0  0  0
   59.6075   28.4042   49.3654 H   0  0  0  0  0  0  0  0  0  0  0  0
   61.0248   27.6391   48.5700 H   0  0  0  0  0  0  0  0  0  0  0  0
   60.8516   29.4270   48.5700 H   0  0  0  0  0  0  0  0  0  0  0  0
   61.1672   33.0940   47.5099 H   0  0  0  0  0  0  0  0  0  0  0  0
   60.5727   35.3117   46.6397 H   0  0  0  0  0  0  0  0  0  0  0  0
   58.5902   35.5941   45.1330 H   0  0  0  0  0  0  0  0  0  0  0  0
   57.2724   33.5653   44.5541 H   0  0  0  0  0  0  0  0  0  0  0  0
  1  2  1  0
  2  3  2  0
  2  4  1  0
  4  5  2  0
  5  6  1  0
  6  7  1  0
  7  8  1  0
  8  9  1  0
  8 10  1  0
  8 11  1  0
  7 12  2  0
 12 13  1  0
 13 14  2  0
 14 15  1  0
 15 16  2  0
 16 17  1  0
 17 18  2  0
 18  5  1  0
 18 13  1  0
  1 19  1  0
  1 20  1  0
  1 21  1  0
  6 22  1  0
  9 23  1  0
  9 24  1  0
  9 25  1  0
 10 26  1  0
 10 27  1  0
 10 28  1  0
 11 29  1  0
 11 30  1  0
 11 31  1  0
 14 32  1  0
 15 33  1  0
 16 34  1  0
 17 35  1  0
M  END
>  <smiles>  (44) 
CC(=O)N=c1[nH]c(C(C)(C)C)nc2ccccc12

>  <score_type>  (44) 
oracle

>  <origin>  (44) 
adg

>  <m_score__min__energy>  (44) 
-7.0899999999999999

>  <m_primary>  (44) 
energy

$$$$
44:0
     RDKit          3D

 37 39  0  0  0  0  0  0  0  0999 V2000
   56.0260   28.5960   45.2380 O   0  0  0  0  0  0  0  0  0  0  0  0
   56.9300   29.4520   45.0400 C   0  0  0  0  0  0  0  0  0  0  0  0
   56.6400   30.6150   44.1300 C   0  0  0  0  0  0  0  0  0  0  0  0
   56.4100   31.8150   44.8710 O   0  0  0  0  0  0  0  0  0  0  0  0
   57.4010   32.7120   45.2980 C   0  0  0  0  0  0  0  0  0  0  0  0
   57.5340   33.1160   46.6410 C   0  0  0  0  0  0  0  0  0  0  0  0
   58.5150   34.0440   47.0040 C   0  0  0  0  0  0  0  0  0  0  0  0
   59.3760   34.5680   46.0360 C   0  0  0  0  0  0  0  0  0  0  0  0
   59.2610   34.1600   44.7050 C   0  0  0  0  0  0  0  0  0  0  0  0
   58.2820   33.2300   44.3400 C   0  0  0  0  0  0  0  0  0  0  0  0
   58.2200   29.2760   45.6540 N   0  0  0  0  0  0  0  0  0  0  0  0
   59.4060   29.2400   44.7770 C   0  0  0  0  0  0  0  0  0  0  0  0
   60.7320   29.2920   45.5610 C   0  0  0  0  0  0  0  0  0  0  0  0
   60.6220   30.2050   46.7520 C   0  0  0  0  0  0  0  0  0  0  0  0
   61.6670   31.0670   47.1160 C   0  0  0  0  0  0  0  0  0  0  0  0
   61.5470   31.8710   48.2540 C   0  0  0  0  0  0  0  0  0  0  0  0
   60.3930   31.8050   49.0420 C   0  0  0  0  0  0  0  0  0  0  0  0
   59.3530   30.9380   48.6920 C   0  0  0  0  0  0  0  0  0  0  0  0
   59.4630   30.1430   47.5420 C   0  0  0  0  0  0  0  0  0  0  0  0
   58.3650   29.2130   47.1180 C   0  0  0  0  0  0  0  0  0  0  0  0
   57.4991   30.7676   43.4602 H   0  0  0  0  0  0  0  0  0  0  0  0
   55.7310   30.3849   43.5548 H   0  0  0  0  0  0  0  0  0  0  0  0
   56.8634   32.6998   47.4072 H   0  0  0  0  0  0  0  0  0  0  0  0
   58.6091   34.3620   48.0528 H   0  0  0  0  0  0  0  0  0  0  0  0
   60.1441   35.3016   46.3221 H   0  0  0  0  0  0  0  0  0  0  0  0
   59.9406   34.5703   43.9436 H   0  0  0  0  0  0  0  0  0  0  0  0
   58.2033   32.9029   43.2927 H   0  0  0  0  0  0  0  0  0  0  0  0
   59.3810   28.3097   44.1905 H   0  0  0  0  0  0  0  0  0  0  0  0
   59.3678   30.1306   44.1326 H   0  0  0  0  0  0  0  0  0  0  0  0
   60.9846   28.2789   45.9071 H   0  0  0  0  0  0  0  0  0  0  0  0
   61.5166   29.6800   44.8948 H   0  0  0  0  0  0  0  0  0  0  0  0
   62.5814   31.1106   46.5060 H   0  0  0  0  0  0  0  0  0  0  0  0
   62.3617   32.5567   48.5300 H   0  0  0  0  0  0  0  0  0  0  0  0
   60.3035   32.4361   49.9385 H   0  0  0  0  0  0  0  0  0  0  0  0
   58.4502   30.8797   49.3177 H   0  0  0  0  0  0  0  0  0  0  0  0
   58.6155   28.1853   47.4196 H   0  0  0  0  0  0  0  0  0  0  0  0
   57.4208   29.5107   47.5975 H   0  0  0  0  0  0  0  0  0  0  0  0
  1  2  2  0
  2  3  1  0
  3  4  1  0
  4  5  1  0
  5  6  2  0
  6  7  1  0
  7  8  2  0
  8  9  1  0
  9 10  2  0
  2 11  1  0
 11 12  1  0
 12 13  1  0
 13 14  1  0
 14 15  2  0
 15 16  1  0
 16 17  2  0
 17 18  1  0
 18 19  2  0
 19 20  1  0
 10  5  1  0
 20 11  1  0
 19 14  1  0
  3 21  1  0
  3 22  1  0
  6 23  1  0
  7 24  1  0
  8 25  1  0
  9 26  1  0
 10 27  1  0
 12 28  1  0
 12 29  1  0
 13 30  1  0
 13 31  1  0
 15 32  1  0
 16 33  1  0
 17 34  1  0
 18 35  1  0
 20 36  1  0
 20 37  1  0
M  END
>  <UniqueID>  (45) 
40

>  <SMILES>  (45) 
O=C(COc1ccccc1)N1CCc2ccccc2C1

>  <Energy>  (45) 
40.98334299418377

>  <Genealogy>  (45) 
O=C(COc1ccccc1)N1CCc2ccccc2C1 (3D coordinates assigned)
O=C(COc1ccccc1)N1CCc2ccccc2C1 (nonaromatic ring conformer: 40.98334299418377 kcal/mol)

>  <smiles>  (45) 
O=C(COc1ccccc1)N1CCc2ccccc2C1

>  <score_type>  (45) 
oracle

>  <origin>  (45) 
adg

>  <m_score__min__energy>  (45) 
-6.79

>  <m_primary>  (45) 
energy

$$$$
45:0
     RDKit          3D

 48 50  0  0  0  0  0  0  0  0999 V2000
   63.2005   32.2420   49.7476 H   0  0  0  0  0  0  0  0  0  0  0  0
   62.6370   32.7370   48.9430 C   0  0  0  0  0  0  0  0  0  0  0  0
   62.8410   32.3250   47.6790 C   0  0  0  0  0  0  0  0  0  0  0  0
   62.1510   31.1770   47.1510 N   0  0  0  0  0  0  0  0  0  0  0  0
   62.4200   30.7990   46.2160 H   0  0  0  0  0  0  0  0  0  0  0  0
   61.1740   30.4220   47.9320 C   0  0  0  0  0  0  0  0  0  0  0  0
   61.5852   29.4294   48.1681 H   0  0  0  0  0  0  0  0  0  0  0  0
   60.9569   30.9671   48.8624 H   0  0  0  0  0  0  0  0  0  0  0  0
   59.9020   30.2600   47.1470 C   0  0  0  0  0  0  0  0  0  0  0  0
   59.5920   31.1650   46.1200 C   0  0  0  0  0  0  0  0  0  0  0  0
   60.2684   32.0071   45.9117 H   0  0  0  0  0  0  0  0  0  0  0  0
   58.4300   31.0040   45.3600 C   0  0  0  0  0  0  0  0  0  0  0  0
   58.1950   31.7199   44.5586 H   0  0  0  0  0  0  0  0  0  0  0  0
   57.5590   29.9270   45.6180 C   0  0  0  0  0  0  0  0  0  0  0  0
   56.3810   29.7210   44.8830 O   0  0  0  0  0  0  0  0  0  0  0  0
   56.2530   29.9580   43.4860 C   0  0  0  0  0  0  0  0  0  0  0  0
   55.7361   30.9151   43.3223 H   0  0  0  0  0  0  0  0  0  0  0  0
   57.2522   29.9979   43.0278 H   0  0  0  0  0  0  0  0  0  0  0  0
   55.6717   29.1443   43.0278 H   0  0  0  0  0  0  0  0  0  0  0  0
   57.8720   29.0240   46.6410 C   0  0  0  0  0  0  0  0  0  0  0  0
   57.1979   28.1799   46.8485 H   0  0  0  0  0  0  0  0  0  0  0  0
   59.0340   29.1860   47.4010 C   0  0  0  0  0  0  0  0  0  0  0  0
   59.2693   28.4691   48.2014 H   0  0  0  0  0  0  0  0  0  0  0  0
   63.7470   33.1270   46.7870 C   0  0  0  0  0  0  0  0  0  0  0  0
   64.4288   33.7305   47.4042 H   0  0  0  0  0  0  0  0  0  0  0  0
   64.3329   32.4462   46.1520 H   0  0  0  0  0  0  0  0  0  0  0  0
   63.1423   33.7912   46.1520 H   0  0  0  0  0  0  0  0  0  0  0  0
   61.6770   33.8420   49.3200 C   0  0  1  0  0  0  0  0  0  0  0  0
   62.3121   34.7048   49.5692 H   0  0  0  0  0  0  0  0  0  0  0  0
   60.7150   34.0750   48.2240 C   0  0  0  0  0  0  0  0  0  0  0  0
   60.8370   34.5660   46.6220 S   0  0  0  0  0  0  0  0  0  0  0  0
   59.1750   34.3550   46.3240 C   0  0  0  0  0  0  0  0  0  0  0  0
   58.5190   34.5470   44.9920 C   0  0  0  0  0  0  0  0  0  0  0  0
   59.0187   33.9098   44.2475 H   0  0  0  0  0  0  0  0  0  0  0  0
   58.6031   35.6053   44.7040 H   0  0  0  0  0  0  0  0  0  0  0  0
   57.0430   34.1720   45.0630 C   0  0  0  0  0  0  0  0  0  0  0  0
   56.7348   34.0937   46.1160 H   0  0  0  0  0  0  0  0  0  0  0  0
   56.4434   34.9464   44.5621 H   0  0  0  0  0  0  0  0  0  0  0  0
   56.8858   33.2054   44.5621 H   0  0  0  0  0  0  0  0  0  0  0  0
   58.5420   33.8690   47.4730 C   0  0  0  0  0  0  0  0  0  0  0  0
   57.4717   33.6239   47.5389 H   0  0  0  0  0  0  0  0  0  0  0  0
   59.4480   33.7370   48.5220 C   0  0  0  0  0  0  0  0  0  0  0  0
   59.3110   33.2170   49.8970 C   0  0  0  0  0  0  0  0  0  0  0  0
   59.0311   32.1532   49.8922 H   0  0  0  0  0  0  0  0  0  0  0  0
   58.5250   33.7223   50.4773 H   0  0  0  0  0  0  0  0  0  0  0  0
   60.7330   33.4180   50.4840 C   0  0  0  0  0  0  0  0  0  0  0  0
   61.0892   32.4778   50.9303 H   0  0  0  0  0  0  0  0  0  0  0  0
   60.7184   34.1914   51.2661 H   0  0  0  0  0  0  0  0  0  0  0  0
  1  2  1  0
  2  3  2  0
  3  4  1  0
  4  5  1  0
  4  6  1  0
  6  7  1  0
  6  8  1  0
  6  9  1  0
  9 10  2  0
 10 11  1  0
 10 12  1  0
 12 13  1  0
 12 14  2  0
 14 15  1  0
 15 16  1  0
 16 17  1  0
 16 18  1  0
 16 19  1  0
 14 20  1  0
 20 21  1  0
 20 22  2  0
 22 23  1  0
  3 24  1  0
 24 25  1  0
 24 26  1  0
 24 27  1  0
  2 28  1  0
 28 29  1  1
 28 30  1  0
 30 31  1  0
 31 32  1  0
 32 33  1  0
 33 34  1  0
 33 35  1  0
 33 36  1  0
 36 37  1  0
 36 38  1  0
 36 39  1  0
 32 40  2  0
 40 41  1  0
 40 42  1  0
 42 43  1  0
 43 44  1  0
 43 45  1  0
 43 46  1  0
 46 47  1  0
 46 48  1  0
 22  9  1  0
 46 28  1  0
 42 30  2  0
M  END
>  <UniqueID>  (46) 
41

>  <SMILES>  (46) 
CCc1cc2c(s1)[C@H](/C=C(/C)NCc1ccc(OC)cc1)CC2

>  <Energy>  (46) 
85.031137832818

>  <Genealogy>  (46) 
CCc1cc2c(s1)[C@H](C=C(C)NCc1ccc(OC)cc1)CC2 (chirality)
CCc1cc2c(s1)[C@H](/C=C(/C)NCc1ccc(OC)cc1)CC2 (cis-trans isomerization)
CCc1cc2c(s1)[C@H](/C=C(/C)NCc1ccc(OC)cc1)CC2 (3D coordinates assigned)
CCc1cc2c(s1)[C@H](/C=C(/C)NCc1ccc(OC)cc1)CC2 (nonaromatic ring conformer: 85.031137832818 kcal/mol)

>  <smiles>  (46) 
CCc1cc2c(s1)C(C=C(C)NCc1ccc(OC)cc1)CC2

>  <score_type>  (46) 
oracle

>  <origin>  (46) 
adg

>  <m_score__min__energy>  (46) 
-8.8599999999999994

>  <m_primary>  (46) 
energy

$$$$
46:0
     RDKit          3D

 41 44  0  0  0  0  0  0  0  0999 V2000
   56.8740   23.4530   43.7260 C   0  0  0  0  0  0  0  0  0  0  0  0
   57.2940   23.5900   45.4910 S   0  0  0  0  0  0  0  0  0  0  0  0
   57.4020   25.3800   45.4480 C   0  0  0  0  0  0  0  0  0  0  0  0
   56.2720   26.1690   45.6620 C   0  0  0  0  0  0  0  0  0  0  0  0
   56.3750   27.5220   45.6200 N   0  0  0  0  0  0  0  0  0  0  0  0
   57.5680   28.1340   45.3780 C   0  0  0  0  0  0  0  0  0  0  0  0
   57.6610   29.6140   45.3100 C   0  0  0  0  0  0  0  0  0  0  0  0
   58.2440   30.2970   46.3940 C   0  0  0  0  0  0  0  0  0  0  0  0
   58.3840   31.6850   46.3740 C   0  0  0  0  0  0  0  0  0  0  0  0
   57.9400   32.4170   45.2730 C   0  0  0  0  0  0  0  0  0  0  0  0
   58.1180   34.2020   45.2530 S   0  0  0  0  0  0  0  0  0  0  0  0
   59.4860   34.1690   46.4090 C   0  0  0  0  0  0  0  0  0  0  0  0
   59.2690   34.4970   47.7690 C   0  0  0  0  0  0  0  0  0  0  0  0
   60.3370   34.4840   48.6860 C   0  0  0  0  0  0  0  0  0  0  0  0
   61.5990   34.1380   48.2080 C   0  0  0  0  0  0  0  0  0  0  0  0
   62.7200   34.0670   48.8810 O   0  0  0  0  0  0  0  0  0  0  0  0
   63.6700   33.7040   48.0370 C   0  0  0  0  0  0  0  0  0  0  0  0
   63.1460   33.5320   46.7600 C   0  0  0  0  0  0  0  0  0  0  0  0
   61.8080   33.8190   46.8950 C   0  0  0  0  0  0  0  0  0  0  0  0
   60.7750   33.8200   45.9610 C   0  0  0  0  0  0  0  0  0  0  0  0
   57.3490   31.7620   44.1910 C   0  0  0  0  0  0  0  0  0  0  0  0
   57.1840   30.3650   44.2010 C   0  0  0  0  0  0  0  0  0  0  0  0
   56.4930   29.7170   43.0290 C   0  0  0  0  0  0  0  0  0  0  0  0
   58.6740   27.3730   45.1520 N   0  0  0  0  0  0  0  0  0  0  0  0
   58.6150   26.0170   45.1840 C   0  0  0  0  0  0  0  0  0  0  0  0
   55.8329   23.1134   43.6221 H   0  0  0  0  0  0  0  0  0  0  0  0
   56.9891   24.4353   43.2444 H   0  0  0  0  0  0  0  0  0  0  0  0
   57.5461   22.7275   43.2444 H   0  0  0  0  0  0  0  0  0  0  0  0
   55.2997   25.6961   45.8643 H   0  0  0  0  0  0  0  0  0  0  0  0
   58.5939   29.7288   47.2685 H   0  0  0  0  0  0  0  0  0  0  0  0
   58.8453   32.2028   47.2279 H   0  0  0  0  0  0  0  0  0  0  0  0
   58.2584   34.7640   48.1117 H   0  0  0  0  0  0  0  0  0  0  0  0
   60.1803   34.7385   49.7446 H   0  0  0  0  0  0  0  0  0  0  0  0
   64.7265   33.5584   48.3065 H   0  0  0  0  0  0  0  0  0  0  0  0
   63.6818   33.2334   45.8469 H   0  0  0  0  0  0  0  0  0  0  0  0
   60.9595   33.5571   44.9089 H   0  0  0  0  0  0  0  0  0  0  0  0
   57.0089   32.3442   43.3219 H   0  0  0  0  0  0  0  0  0  0  0  0
   55.7365   29.0076   43.3958 H   0  0  0  0  0  0  0  0  0  0  0  0
   56.0047   30.4903   42.4179 H   0  0  0  0  0  0  0  0  0  0  0  0
   57.2334   29.1801   42.4179 H   0  0  0  0  0  0  0  0  0  0  0  0
   59.5219   25.4216   45.0021 H   0  0  0  0  0  0  0  0  0  0  0  0
  1  2  1  0
  2  3  1  0
  3  4  2  0
  4  5  1  0
  5  6  2  0
  6  7  1  0
  7  8  2  0
  8  9  1  0
  9 10  2  0
 10 11  1  0
 11 12  1  0
 12 13  2  0
 13 14  1  0
 14 15  2  0
 15 16  1  0
 16 17  1  0
 17 18  2  0
 18 19  1  0
 19 20  2  0
 10 21  1  0
 21 22  2  0
 22 23  1  0
  6 24  1  0
 24 25  2  0
 25  3  1  0
 22  7  1  0
 20 12  1  0
 19 15  1  0
  1 26  1  0
  1 27  1  0
  1 28  1  0
  4 29  1  0
  8 30  1  0
  9 31  1  0
 13 32  1  0
 14 33  1  0
 17 34  1  0
 18 35  1  0
 20 36  1  0
 21 37  1  0
 23 38  1  0
 23 39  1  0
 23 40  1  0
 25 41  1  0
M  END
>  <UniqueID>  (47) 
42

>  <SMILES>  (47) 
CSc1cnc(-c2ccc(Sc3ccc4occc4c3)cc2C)nc1

>  <Energy>  (47) 
76.43956525114002

>  <Genealogy>  (47) 
CSc1cnc(-c2ccc(Sc3ccc4occc4c3)cc2C)nc1 (3D coordinates assigned)
CSc1cnc(-c2ccc(Sc3ccc4occc4c3)cc2C)nc1 (optimized conformer: 76.43956525114002 kcal/mol)

>  <smiles>  (47) 
CSc1cnc(-c2ccc(Sc3ccc4occc4c3)cc2C)nc1

>  <score_type>  (47) 
oracle

>  <origin>  (47) 
adg

>  <m_score__min__energy>  (47) 
-8.7300000000000004

>  <m_primary>  (47) 
energy

$$$$
47:0
     RDKit          3D

 29 31  0  0  0  0  0  0  0  0999 V2000
   63.6850   33.7770   49.2630 C   0  0  0  0  0  0  0  0  0  0  0  0
   62.4530   34.1640   49.7940 C   0  0  0  0  0  0  0  0  0  0  0  0
   61.3060   34.1480   48.9940 C   0  0  0  0  0  0  0  0  0  0  0  0
   61.3810   33.7430   47.6470 C   0  0  0  0  0  0  0  0  0  0  0  0
   60.1770   33.7180   46.7790 C   0  0  0  0  0  0  0  0  0  0  0  0
   59.8510   32.6740   45.9890 N   0  0  0  0  0  0  0  0  0  0  0  0
   58.7290   33.0070   45.3710 N   0  0  0  0  0  0  0  0  0  0  0  0
   58.0400   32.1530   44.4340 C   0  0  0  0  0  0  0  0  0  0  0  0
   58.0240   32.4390   43.0530 C   0  0  0  0  0  0  0  0  0  0  0  0
   57.3520   31.5960   42.1630 C   0  0  0  0  0  0  0  0  0  0  0  0
   56.6870   30.4630   42.6340 C   0  0  0  0  0  0  0  0  0  0  0  0
   56.6970   30.1660   43.9980 C   0  0  0  0  0  0  0  0  0  0  0  0
   57.3680   31.0040   44.8930 C   0  0  0  0  0  0  0  0  0  0  0  0
   58.3790   34.2420   45.7860 C   0  0  0  0  0  0  0  0  0  0  0  0
   59.2730   34.7150   46.6710 N   0  0  0  0  0  0  0  0  0  0  0  0
   62.6300   33.3570   47.1240 C   0  0  0  0  0  0  0  0  0  0  0  0
   63.7730   33.3740   47.9290 C   0  0  0  0  0  0  0  0  0  0  0  0
   64.5853   33.7896   49.8949 H   0  0  0  0  0  0  0  0  0  0  0  0
   62.3844   34.4824   50.8447 H   0  0  0  0  0  0  0  0  0  0  0  0
   60.3388   34.4537   49.4195 H   0  0  0  0  0  0  0  0  0  0  0  0
   58.5437   33.3312   42.6737 H   0  0  0  0  0  0  0  0  0  0  0  0
   57.3474   31.8266   41.0874 H   0  0  0  0  0  0  0  0  0  0  0  0
   56.1555   29.8046   41.9311 H   0  0  0  0  0  0  0  0  0  0  0  0
   56.1760   29.2711   44.3690 H   0  0  0  0  0  0  0  0  0  0  0  0
   57.3711   30.7635   45.9664 H   0  0  0  0  0  0  0  0  0  0  0  0
   57.4854   34.7866   45.4469 H   0  0  0  0  0  0  0  0  0  0  0  0
   59.2440   35.6400   47.1520 H   0  0  0  0  0  0  0  0  0  0  0  0
   62.7071   33.0395   46.0736 H   0  0  0  0  0  0  0  0  0  0  0  0
   64.7436   33.0693   47.5106 H   0  0  0  0  0  0  0  0  0  0  0  0
  1  2  2  0
  2  3  1  0
  3  4  2  0
  4  5  1  0
  5  6  2  0
  6  7  1  0
  7  8  1  0
  8  9  2  0
  9 10  1  0
 10 11  2  0
 11 12  1  0
 12 13  2  0
  7 14  1  0
 14 15  2  0
  4 16  1  0
 16 17  2  0
 17  1  1  0
 15  5  1  0
 13  8  1  0
  1 18  1  0
  2 19  1  0
  3 20  1  0
  9 21  1  0
 10 22  1  0
 11 23  1  0
 12 24  1  0
 13 25  1  0
 14 26  1  0
 15 27  1  0
 16 28  1  0
 17 29  1  0
M  CHG  1  15   1
M  END
>  <UniqueID>  (48) 
43

>  <SMILES>  (48) 
c1ccc(-c2nn(-c3ccccc3)c[nH+]2)cc1

>  <Energy>  (48) 
69.94202820873497

>  <Genealogy>  (48) 
c1ccc(-c2nn(-c3ccccc3)c[nH+]2)cc1 (protonated)
c1ccc(-c2nn(-c3ccccc3)c[nH+]2)cc1 (3D coordinates assigned)
c1ccc(-c2nn(-c3ccccc3)c[nH+]2)cc1 (optimized conformer: 69.94202820873497 kcal/mol)

>  <smiles>  (48) 
c1ccc(-c2ncn(-c3ccccc3)n2)cc1

>  <score_type>  (48) 
oracle

>  <origin>  (48) 
adg

>  <m_score__min__energy>  (48) 
-5.4800000000000004

>  <m_primary>  (48) 
energy

$$$$
