0:0
     RDKit          3D

 44 46  0  0  0  0  0  0  0  0999 V2000
   56.2830   29.7420   42.6100 C   0  0  0  0  0  0  0  0  0  0  0  0
   55.7740   30.0820   44.3240 S   0  0  0  0  0  0  0  0  0  0  0  0
   57.3370   29.5340   45.0310 C   0  0  0  0  0  0  0  0  0  0  0  0
   57.3860   28.2790   45.6520 C   0  0  0  0  0  0  0  0  0  0  0  0
   58.5760   27.8150   46.2150 C   0  0  0  0  0  0  0  0  0  0  0  0
   59.7260   28.6010   46.1660 C   0  0  0  0  0  0  0  0  0  0  0  0
   59.6890   29.8590   45.5570 C   0  0  0  0  0  0  0  0  0  0  0  0
   58.4990   30.3410   44.9850 C   0  0  0  0  0  0  0  0  0  0  0  0
   58.4790   31.7170   44.3620 C   0  0  0  0  0  0  0  0  0  0  0  0
   57.9140   32.7020   45.3080 N   0  0  0  0  0  0  0  0  0  0  0  0
   57.9020   32.2200   46.7170 C   0  0  0  0  0  0  0  0  0  0  0  0
   58.8300   33.0070   47.6640 C   0  0  0  0  0  0  0  0  0  0  0  0
   60.1760   33.3270   46.9900 C   0  0  0  0  0  0  0  0  0  0  0  0
   59.9680   34.0970   45.6530 C   0  0  0  0  0  0  0  0  0  0  0  0
   58.5150   34.0420   45.1460 C   0  0  0  0  0  0  0  0  0  0  0  0
   61.1360   34.0880   47.9600 C   0  0  0  0  0  0  0  0  0  0  0  0
   62.4550   33.4230   47.8830 N   0  0  2  0  0  0  0  0  0  0  0  0
   63.4160   34.2020   47.0850 C   0  0  0  0  0  0  0  0  0  0  0  0
   62.1480   32.1980   47.2240 C   0  0  0  0  0  0  0  0  0  0  0  0
   62.9740   31.2520   47.1160 O   0  0  0  0  0  0  0  0  0  0  0  0
   60.8690   32.1200   46.7290 O   0  0  0  0  0  0  0  0  0  0  0  0
   57.1977   29.1310   42.6135 H   0  0  0  0  0  0  0  0  0  0  0  0
   55.4806   29.1979   42.0903 H   0  0  0  0  0  0  0  0  0  0  0  0
   56.4783   30.6916   42.0903 H   0  0  0  0  0  0  0  0  0  0  0  0
   56.4809   27.6554   45.6962 H   0  0  0  0  0  0  0  0  0  0  0  0
   58.6063   26.8273   46.6982 H   0  0  0  0  0  0  0  0  0  0  0  0
   60.6635   28.2313   46.6068 H   0  0  0  0  0  0  0  0  0  0  0  0
   60.5987   30.4766   45.5253 H   0  0  0  0  0  0  0  0  0  0  0  0
   59.5062   32.0121   44.1018 H   0  0  0  0  0  0  0  0  0  0  0  0
   57.8531   31.6906   43.4578 H   0  0  0  0  0  0  0  0  0  0  0  0
   56.8734   32.2978   47.0991 H   0  0  0  0  0  0  0  0  0  0  0  0
   58.2739   31.1849   46.6993 H   0  0  0  0  0  0  0  0  0  0  0  0
   58.3378   33.9493   47.9465 H   0  0  0  0  0  0  0  0  0  0  0  0
   59.0251   32.3881   48.5522 H   0  0  0  0  0  0  0  0  0  0  0  0
   60.2453   35.1501   45.8083 H   0  0  0  0  0  0  0  0  0  0  0  0
   60.5998   33.6134   44.8934 H   0  0  0  0  0  0  0  0  0  0  0  0
   57.9151   34.7694   45.7125 H   0  0  0  0  0  0  0  0  0  0  0  0
   58.5247   34.2784   44.0717 H   0  0  0  0  0  0  0  0  0  0  0  0
   61.2261   35.1402   47.6521 H   0  0  0  0  0  0  0  0  0  0  0  0
   60.7480   34.0665   48.9891 H   0  0  0  0  0  0  0  0  0  0  0  0
   62.8410   33.2330   48.8380 H   0  0  0  0  0  0  0  0  0  0  0  0
   64.0921   34.7500   47.7577 H   0  0  0  0  0  0  0  0  0  0  0  0
   64.0026   33.5213   46.4505 H   0  0  0  0  0  0  0  0  0  0  0  0
   62.8714   34.9167   46.4505 H   0  0  0  0  0  0  0  0  0  0  0  0
  1  2  1  0
  2  3  1  0
  3  4  2  0
  4  5  1  0
  5  6  2  0
  6  7  1  0
  7  8  2  0
  8  9  1  0
  9 10  1  0
 10 11  1  0
 11 12  1  0
 12 13  1  0
 13 14  1  0
 14 15  1  0
 13 16  1  0
 16 17  1  0
 17 18  1  0
 17 19  1  0
 19 20  2  0
 19 21  1  0
  8  3  1  0
 15 10  1  0
 21 13  1  0
  1 22  1  0
  1 23  1  0
  1 24  1  0
  4 25  1  0
  5 26  1  0
  6 27  1  0
  7 28  1  0
  9 29  1  0
  9 30  1  0
 11 31  1  0
 11 32  1  0
 12 33  1  0
 12 34  1  0
 14 35  1  0
 14 36  1  0
 15 37  1  0
 15 38  1  0
 16 39  1  0
 16 40  1  0
 17 41  1  1
 18 42  1  0
 18 43  1  0
 18 44  1  0
M  CHG  1  17   1
M  END
>  <UniqueID>  (1) 
1

>  <SMILES>  (1) 
CSc1ccccc1CN1CCC2(CC1)C[N@H+](C)C(=O)O2

>  <Energy>  (1) 
62.11205778970744

>  <Genealogy>  (1) 
CSc1ccccc1CN1CCC2(CC1)C[NH+](C)C(=O)O2 (protonated)
CSc1ccccc1CN1CCC2(CC1)C[N@H+](C)C(=O)O2 (chirality)
CSc1ccccc1CN1CCC2(CC1)C[N@H+](C)C(=O)O2 (3D coordinates assigned)
CSc1ccccc1CN1CCC2(CC1)C[N@H+](C)C(=O)O2 (nonaromatic ring conformer: 62.11205778970744 kcal/mol)

>  <smiles>  (1) 
CSc1ccccc1CN1CCC2(CC1)CN(C)C(=O)O2

>  <score_type>  (1) 
oracle

>  <origin>  (1) 
adg

>  <m_score__min__energy>  (1) 
-5.9800000000000004

>  <m_primary>  (1) 
energy

$$$$
1:0
     RDKit          3D

 39 41  0  0  0  0  0  0  0  0999 V2000
   56.6000   29.4460   42.6380 C   0  0  0  0  0  0  0  0  0  0  0  0
   56.3350   30.7240   43.2040 O   0  0  0  0  0  0  0  0  0  0  0  0
   57.1180   31.3340   44.1970 C   0  0  0  0  0  0  0  0  0  0  0  0
   57.6260   32.6390   44.0520 C   0  0  0  0  0  0  0  0  0  0  0  0
   58.4070   33.2210   45.0590 C   0  0  0  0  0  0  0  0  0  0  0  0
   58.7100   32.4820   46.2170 C   0  0  0  0  0  0  0  0  0  0  0  0
   58.1860   31.1910   46.3730 C   0  0  0  0  0  0  0  0  0  0  0  0
   57.3970   30.6090   45.3640 C   0  0  0  0  0  0  0  0  0  0  0  0
   56.8720   29.3120   45.4820 O   0  0  0  0  0  0  0  0  0  0  0  0
   57.6590   28.1350   45.6450 C   0  0  0  0  0  0  0  0  0  0  0  0
   59.5410   33.0760   47.3270 C   0  0  0  0  0  0  0  0  0  0  0  0
   60.3820   34.1960   46.8700 N   0  0  0  0  0  0  0  0  0  0  0  0
   61.7390   33.8400   46.3940 C   0  0  0  0  0  0  0  0  0  0  0  0
   62.6710   33.3640   47.4750 C   0  0  0  0  0  0  0  0  0  0  0  0
   63.0100   34.0660   48.6270 C   0  0  0  0  0  0  0  0  0  0  0  0
   63.8520   33.3500   49.4850 C   0  0  0  0  0  0  0  0  0  0  0  0
   64.1570   32.0740   49.0310 C   0  0  0  0  0  0  0  0  0  0  0  0
   63.3770   31.8380   47.5610 S   0  0  0  0  0  0  0  0  0  0  0  0
   59.6530   35.1960   46.0710 C   0  0  0  0  0  0  0  0  0  0  0  0
   58.9710   34.6000   44.8320 C   0  0  0  0  0  0  0  0  0  0  0  0
   56.7521   28.7126   43.4436 H   0  0  0  0  0  0  0  0  0  0  0  0
   55.7470   29.1363   42.0164 H   0  0  0  0  0  0  0  0  0  0  0  0
   57.5059   29.5010   42.0164 H   0  0  0  0  0  0  0  0  0  0  0  0
   57.4070   33.2086   43.1368 H   0  0  0  0  0  0  0  0  0  0  0  0
   58.3940   30.6270   47.2942 H   0  0  0  0  0  0  0  0  0  0  0  0
   57.7955   27.9308   46.7172 H   0  0  0  0  0  0  0  0  0  0  0  0
   57.1478   27.2837   45.1718 H   0  0  0  0  0  0  0  0  0  0  0  0
   58.6411   28.2821   45.1718 H   0  0  0  0  0  0  0  0  0  0  0  0
   58.8662   33.4413   48.1151 H   0  0  0  0  0  0  0  0  0  0  0  0
   60.2113   32.2872   47.6992 H   0  0  0  0  0  0  0  0  0  0  0  0
   61.6423   33.0395   45.6458 H   0  0  0  0  0  0  0  0  0  0  0  0
   62.1791   34.7602   45.9823 H   0  0  0  0  0  0  0  0  0  0  0  0
   62.6516   35.0835   48.8422 H   0  0  0  0  0  0  0  0  0  0  0  0
   64.2363   33.7598   50.4307 H   0  0  0  0  0  0  0  0  0  0  0  0
   64.7987   31.3432   49.5449 H   0  0  0  0  0  0  0  0  0  0  0  0
   58.8824   35.6568   46.7065 H   0  0  0  0  0  0  0  0  0  0  0  0
   60.3902   35.9312   45.7162 H   0  0  0  0  0  0  0  0  0  0  0  0
   58.1491   35.2670   44.5327 H   0  0  0  0  0  0  0  0  0  0  0  0
   59.7412   34.5093   44.0519 H   0  0  0  0  0  0  0  0  0  0  0  0
  1  2  1  0
  2  3  1  0
  3  4  2  0
  4  5  1  0
  5  6  2  0
  6  7  1  0
  7  8  2  0
  8  9  1  0
  9 10  1  0
  6 11  1  0
 11 12  1  0
 12 13  1  0
 13 14  1  0
 14 15  2  0
 15 16  1  0
 16 17  2  0
 17 18  1  0
 12 19  1  0
 19 20  1  0
  8  3  1  0
 18 14  1  0
 20  5  1  0
  1 21  1  0
  1 22  1  0
  1 23  1  0
  4 24  1  0
  7 25  1  0
 10 26  1  0
 10 27  1  0
 10 28  1  0
 11 29  1  0
 11 30  1  0
 13 31  1  0
 13 32  1  0
 15 33  1  0
 16 34  1  0
 17 35  1  0
 19 36  1  0
 19 37  1  0
 20 38  1  0
 20 39  1  0
M  END
>  <UniqueID>  (2) 
2

>  <SMILES>  (2) 
COc1cc2c(cc1OC)CN(Cc1cccs1)CC2

>  <Energy>  (2) 
73.76784526744892

>  <Genealogy>  (2) 
COc1cc2c(cc1OC)CN(Cc1cccs1)CC2 (3D coordinates assigned)
COc1cc2c(cc1OC)CN(Cc1cccs1)CC2 (nonaromatic ring conformer: 73.76784526744892 kcal/mol)

>  <smiles>  (2) 
COc1cc2c(cc1OC)CN(Cc1cccs1)CC2

>  <score_type>  (2) 
oracle

>  <origin>  (2) 
adg

>  <m_score__min__energy>  (2) 
-6.8499999999999996

>  <m_primary>  (2) 
energy

$$$$
2:0
     RDKit          3D

 59 60  0  0  0  0  0  0  0  0999 V2000
   56.1769   29.9269   43.4296 H   0  0  0  0  0  0  0  0  0  0  0  0
   56.9520   30.4070   44.0450 C   0  0  0  0  0  0  0  0  0  0  0  0
   56.7060   31.5860   44.5410 N   0  0  0  0  0  0  0  0  0  0  0  0
   57.5420   32.3200   45.4480 C   0  0  0  0  0  0  0  0  0  0  0  0
   58.1010   31.7120   46.5820 C   0  0  0  0  0  0  0  0  0  0  0  0
   57.8806   30.6569   46.8015 H   0  0  0  0  0  0  0  0  0  0  0  0
   58.9360   32.4390   47.4340 C   0  0  0  0  0  0  0  0  0  0  0  0
   59.3509   31.9595   48.3328 H   0  0  0  0  0  0  0  0  0  0  0  0
   59.2500   33.7830   47.1490 C   0  0  0  0  0  0  0  0  0  0  0  0
   60.1010   34.5700   48.0060 N   0  0  0  0  0  0  0  0  0  0  0  0
   60.4870   35.4670   47.6330 H   0  0  0  0  0  0  0  0  0  0  0  0
   60.4760   34.2060   49.3730 C   0  0  0  0  0  0  0  0  0  0  0  0
   59.8115   33.4054   49.7301 H   0  0  0  0  0  0  0  0  0  0  0  0
   60.3801   35.0925   50.0171 H   0  0  0  0  0  0  0  0  0  0  0  0
   61.9410   33.7100   49.4170 C   0  0  0  0  0  0  0  0  0  0  0  0
   62.1115   33.2420   50.3978 H   0  0  0  0  0  0  0  0  0  0  0  0
   62.5667   34.5963   49.2353 H   0  0  0  0  0  0  0  0  0  0  0  0
   62.3140   32.7200   48.3630 N   0  0  0  0  0  0  0  0  0  0  0  0
   61.5710   32.8230   47.6300 H   0  0  0  0  0  0  0  0  0  0  0  0
   62.2290   31.3080   48.8190 C   0  0  0  0  0  0  0  0  0  0  0  0
   61.8393   31.2958   49.8476 H   0  0  0  0  0  0  0  0  0  0  0  0
   63.2415   30.8828   48.7551 H   0  0  0  0  0  0  0  0  0  0  0  0
   61.3160   30.4430   47.9420 C   0  0  0  0  0  0  0  0  0  0  0  0
   60.6671   29.8282   48.5830 H   0  0  0  0  0  0  0  0  0  0  0  0
   60.6953   31.0921   47.3069 H   0  0  0  0  0  0  0  0  0  0  0  0
   61.9307   29.7881   47.3069 H   0  0  0  0  0  0  0  0  0  0  0  0
   63.5770   33.0680   47.6560 C   0  0  0  0  0  0  0  0  0  0  0  0
   64.1865   33.6857   48.3320 H   0  0  0  0  0  0  0  0  0  0  0  0
   64.0507   32.1120   47.3882 H   0  0  0  0  0  0  0  0  0  0  0  0
   63.3980   33.8370   46.3430 C   0  0  0  0  0  0  0  0  0  0  0  0
   63.1537   34.8867   46.5632 H   0  0  0  0  0  0  0  0  0  0  0  0
   64.3307   33.7918   45.7615 H   0  0  0  0  0  0  0  0  0  0  0  0
   62.5811   33.3846   45.7615 H   0  0  0  0  0  0  0  0  0  0  0  0
   58.7080   34.3750   45.9970 C   0  0  0  0  0  0  0  0  0  0  0  0
   58.9426   35.4235   45.7612 H   0  0  0  0  0  0  0  0  0  0  0  0
   57.8730   33.6440   45.1470 C   0  0  0  0  0  0  0  0  0  0  0  0
   57.4741   34.1137   44.2358 H   0  0  0  0  0  0  0  0  0  0  0  0
   58.2450   29.6680   44.2720 C   0  0  0  0  0  0  0  0  0  0  0  0
   58.6191   29.2902   43.3090 H   0  0  0  0  0  0  0  0  0  0  0  0
   58.9742   30.3595   44.7194 H   0  0  0  0  0  0  0  0  0  0  0  0
   58.0370   28.5100   45.2100 C   0  0  0  0  0  0  0  0  0  0  0  0
   59.0950   28.0450   46.0050 C   0  0  0  0  0  0  0  0  0  0  0  0
   60.0731   28.5463   45.9608 H   0  0  0  0  0  0  0  0  0  0  0  0
   58.9130   26.9410   46.8590 C   0  0  0  0  0  0  0  0  0  0  0  0
   59.9400   26.4460   47.6780 O   0  0  0  0  0  0  0  0  0  0  0  0
   60.4190   27.0970   48.8500 C   0  0  0  0  0  0  0  0  0  0  0  0
   60.0364   26.5770   49.7406 H   0  0  0  0  0  0  0  0  0  0  0  0
   61.5188   27.0762   48.8575 H   0  0  0  0  0  0  0  0  0  0  0  0
   60.0719   28.1408   48.8575 H   0  0  0  0  0  0  0  0  0  0  0  0
   57.6670   26.3060   46.9020 C   0  0  0  0  0  0  0  0  0  0  0  0
   57.5173   25.4469   47.5725 H   0  0  0  0  0  0  0  0  0  0  0  0
   56.6030   26.7540   46.0970 C   0  0  0  0  0  0  0  0  0  0  0  0
   55.3420   26.1390   46.1070 O   0  0  0  0  0  0  0  0  0  0  0  0
   55.0760   24.8390   45.5900 C   0  0  0  0  0  0  0  0  0  0  0  0
   54.9320   24.1354   46.4232 H   0  0  0  0  0  0  0  0  0  0  0  0
   54.1653   24.8688   44.9737 H   0  0  0  0  0  0  0  0  0  0  0  0
   55.9252   24.5087   44.9737 H   0  0  0  0  0  0  0  0  0  0  0  0
   56.7990   27.8510   45.2530 C   0  0  0  0  0  0  0  0  0  0  0  0
   55.9737   28.2014   44.6157 H   0  0  0  0  0  0  0  0  0  0  0  0
  1  2  1  0
  2  3  2  0
  3  4  1  0
  4  5  2  0
  5  6  1  0
  5  7  1  0
  7  8  1  0
  7  9  2  0
  9 10  1  0
 10 11  1  0
 10 12  1  0
 12 13  1  0
 12 14  1  0
 12 15  1  0
 15 16  1  0
 15 17  1  0
 15 18  1  0
 18 19  1  0
 18 20  1  0
 20 21  1  0
 20 22  1  0
 20 23  1  0
 23 24  1  0
 23 25  1  0
 23 26  1  0
 18 27  1  0
 27 28  1  0
 27 29  1  0
 27 30  1  0
 30 31  1  0
 30 32  1  0
 30 33  1  0
  9 34  1  0
 34 35  1  0
 34 36  2  0
 36 37  1  0
  2 38  1  0
 38 39  1  0
 38 40  1  0
 38 41  1  0
 41 42  2  0
 42 43  1  0
 42 44  1  0
 44 45  1  0
 45 46  1  0
 46 47  1  0
 46 48  1  0
 46 49  1  0
 44 50  2  0
 50 51  1  0
 50 52  1  0
 52 53  1  0
 53 54  1  0
 54 55  1  0
 54 56  1  0
 54 57  1  0
 52 58  2  0
 58 59  1  0
 36  4  1  0
 58 41  1  0
M  CHG  1  18   1
M  END
>  <UniqueID>  (3) 
3

>  <SMILES>  (3) 
CC[NH+](CC)CCNc1ccc(/N=C\Cc2cc(OC)cc(OC)c2)cc1

>  <Energy>  (3) 
69.90396313540744

>  <Genealogy>  (3) 
CC[NH+](CC)CCNc1ccc(N=CCc2cc(OC)cc(OC)c2)cc1 (protonated)
CC[NH+](CC)CCNc1ccc(/N=C\Cc2cc(OC)cc(OC)c2)cc1 (cis-trans isomerization)
CC[NH+](CC)CCNc1ccc(/N=C\Cc2cc(OC)cc(OC)c2)cc1 (3D coordinates assigned)
CC[NH+](CC)CCNc1ccc(/N=C\Cc2cc(OC)cc(OC)c2)cc1 (optimized conformer: 69.90396313540744 kcal/mol)

>  <smiles>  (3) 
CCN(CC)CCNc1ccc(N=CCc2cc(OC)cc(OC)c2)cc1

>  <score_type>  (3) 
oracle

>  <origin>  (3) 
adg

>  <m_score__min__energy>  (3) 
-5.8899999999999997

>  <m_primary>  (3) 
energy

$$$$
3:0
     RDKit          3D

 34 36  0  0  0  0  0  0  0  0999 V2000
   53.8530   23.7000   45.9120 C   0  0  0  0  0  0  0  0  0  0  0  0
   54.8660   24.1360   46.7610 O   0  0  0  0  0  0  0  0  0  0  0  0
   56.1220   24.5780   46.3750 C   0  0  0  0  0  0  0  0  0  0  0  0
   57.2170   23.7390   46.3690 C   0  0  0  0  0  0  0  0  0  0  0  0
   58.4160   24.2770   45.9690 C   0  0  0  0  0  0  0  0  0  0  0  0
   58.5230   25.6060   45.5860 C   0  0  0  0  0  0  0  0  0  0  0  0
   57.4160   26.4590   45.5910 C   0  0  0  0  0  0  0  0  0  0  0  0
   57.6040   27.8320   45.1790 C   0  0  0  0  0  0  0  0  0  0  0  0
   57.6200   28.9960   45.8800 C   0  0  0  0  0  0  0  0  0  0  0  0
   57.8390   30.0430   45.0090 C   0  0  0  0  0  0  0  0  0  0  0  0
   57.9270   31.4490   45.3460 C   0  0  0  0  0  0  0  0  0  0  0  0
   58.4720   31.8160   46.5580 C   0  0  0  0  0  0  0  0  0  0  0  0
   58.5590   33.1590   46.8880 C   0  0  0  0  0  0  0  0  0  0  0  0
   58.0950   34.1120   45.9910 C   0  0  0  0  0  0  0  0  0  0  0  0
   57.5420   33.7440   44.7620 C   0  0  0  0  0  0  0  0  0  0  0  0
   57.4620   32.4000   44.4480 C   0  0  0  0  0  0  0  0  0  0  0  0
   57.9530   29.4950   43.8020 N   0  0  0  0  0  0  0  0  0  0  0  0
   57.8160   28.1840   43.8840 N   0  0  0  0  0  0  0  0  0  0  0  0
   56.2300   25.9130   45.9910 C   0  0  0  0  0  0  0  0  0  0  0  0
   55.1010   26.7180   46.0120 O   0  0  0  0  0  0  0  0  0  0  0  0
   53.0050   23.3350   46.5101 H   0  0  0  0  0  0  0  0  0  0  0  0
   53.5216   24.5352   45.2774 H   0  0  0  0  0  0  0  0  0  0  0  0
   54.2317   22.8852   45.2774 H   0  0  0  0  0  0  0  0  0  0  0  0
   57.1336   22.6847   46.6715 H   0  0  0  0  0  0  0  0  0  0  0  0
   59.3120   23.6392   45.9520 H   0  0  0  0  0  0  0  0  0  0  0  0
   59.5016   25.9974   45.2711 H   0  0  0  0  0  0  0  0  0  0  0  0
   57.4807   29.0885   46.9672 H   0  0  0  0  0  0  0  0  0  0  0  0
   58.8350   31.0487   47.2576 H   0  0  0  0  0  0  0  0  0  0  0  0
   58.9915   33.4672   47.8513 H   0  0  0  0  0  0  0  0  0  0  0  0
   58.1642   35.1780   46.2534 H   0  0  0  0  0  0  0  0  0  0  0  0
   57.1779   34.5076   44.0589 H   0  0  0  0  0  0  0  0  0  0  0  0
   57.0300   32.0843   43.4869 H   0  0  0  0  0  0  0  0  0  0  0  0
   58.1250   30.0530   42.9330 H   0  0  0  0  0  0  0  0  0  0  0  0
   54.4090   26.6980   46.7470 H   0  0  0  0  0  0  0  0  0  0  0  0
  1  2  1  0
  2  3  1  0
  3  4  2  0
  4  5  1  0
  5  6  2  0
  6  7  1  0
  7  8  1  0
  8  9  1  0
  9 10  2  0
 10 11  1  0
 11 12  2  0
 12 13  1  0
 13 14  2  0
 14 15  1  0
 15 16  2  0
 10 17  1  0
 17 18  1  0
  7 19  2  0
 19 20  1  0
 19  3  1  0
 18  8  2  0
 16 11  1  0
  1 21  1  0
  1 22  1  0
  1 23  1  0
  4 24  1  0
  5 25  1  0
  6 26  1  0
  9 27  1  0
 12 28  1  0
 13 29  1  0
 14 30  1  0
 15 31  1  0
 16 32  1  0
 17 33  1  0
 20 34  1  0
M  END
>  <smiles>  (4) 
COc1cccc(-c2cc(-c3ccccc3)[nH]n2)c1O

>  <score_type>  (4) 
oracle

>  <origin>  (4) 
adg

>  <m_score__min__energy>  (4) 
-8.6600000000000001

>  <m_primary>  (4) 
energy

$$$$
4:0
     RDKit          3D

 43 45  0  0  0  0  0  0  0  0999 V2000
   58.1290   27.0340   42.6260 C   0  0  0  0  0  0  0  0  0  0  0  0
   57.8780   27.4620   43.9600 O   0  0  0  0  0  0  0  0  0  0  0  0
   58.6530   28.4340   44.6040 C   0  0  0  0  0  0  0  0  0  0  0  0
   59.9770   28.2200   44.8280 N   0  0  0  0  0  0  0  0  0  0  0  0
   60.7450   29.1540   45.4410 C   0  0  0  0  0  0  0  0  0  0  0  0
   60.1960   30.3240   45.8500 N   0  0  0  0  0  0  0  0  0  0  0  0
   58.8740   30.5930   45.6650 C   0  0  0  0  0  0  0  0  0  0  0  0
   58.3420   31.8450   46.1400 N   0  0  0  0  0  0  0  0  0  0  0  0
   57.8140   32.8160   45.1780 C   0  0  0  0  0  0  0  0  0  0  0  0
   58.8110   33.9700   44.9810 C   0  0  0  0  0  0  0  0  0  0  0  0
   59.6040   34.3320   46.2720 C   0  0  0  0  0  0  0  0  0  0  0  0
   61.0620   33.8080   46.2350 C   0  0  0  0  0  0  0  0  0  0  0  0
   61.5480   33.3690   47.5940 C   0  0  0  0  0  0  0  0  0  0  0  0
   61.6290   34.2890   48.6540 C   0  0  0  0  0  0  0  0  0  0  0  0
   62.0730   33.8750   49.9140 C   0  0  0  0  0  0  0  0  0  0  0  0
   62.4380   32.5420   50.1260 C   0  0  0  0  0  0  0  0  0  0  0  0
   62.3620   31.6220   49.0770 C   0  0  0  0  0  0  0  0  0  0  0  0
   61.9200   32.0320   47.8150 C   0  0  0  0  0  0  0  0  0  0  0  0
   58.8760   33.8300   47.5400 C   0  0  0  0  0  0  0  0  0  0  0  0
   58.6540   32.3070   47.5020 C   0  0  0  0  0  0  0  0  0  0  0  0
   58.0640   29.6380   45.0180 C   0  0  0  0  0  0  0  0  0  0  0  0
   56.6720   29.8930   44.7310 C   0  0  0  0  0  0  0  0  0  0  0  0
   55.5580   30.0960   44.4960 N   0  0  0  0  0  0  0  0  0  0  0  0
   58.6854   26.0853   42.6439 H   0  0  0  0  0  0  0  0  0  0  0  0
   57.1731   26.8886   42.1016 H   0  0  0  0  0  0  0  0  0  0  0  0
   58.7225   27.7973   42.1016 H   0  0  0  0  0  0  0  0  0  0  0  0
   61.8154   28.9621   45.6068 H   0  0  0  0  0  0  0  0  0  0  0  0
   57.6437   32.3152   44.2135 H   0  0  0  0  0  0  0  0  0  0  0  0
   56.8678   33.2232   45.5640 H   0  0  0  0  0  0  0  0  0  0  0  0
   59.5298   33.6799   44.2005 H   0  0  0  0  0  0  0  0  0  0  0  0
   58.2266   34.8585   44.6999 H   0  0  0  0  0  0  0  0  0  0  0  0
   59.6521   35.4302   46.3117 H   0  0  0  0  0  0  0  0  0  0  0  0
   61.1123   32.9507   45.5476 H   0  0  0  0  0  0  0  0  0  0  0  0
   61.7071   34.6325   45.8974 H   0  0  0  0  0  0  0  0  0  0  0  0
   61.3421   35.3385   48.4918 H   0  0  0  0  0  0  0  0  0  0  0  0
   62.1352   34.5993   50.7396 H   0  0  0  0  0  0  0  0  0  0  0  0
   62.7849   32.2177   51.1182 H   0  0  0  0  0  0  0  0  0  0  0  0
   62.6503   30.5737   49.2440 H   0  0  0  0  0  0  0  0  0  0  0  0
   61.8633   31.3047   46.9917 H   0  0  0  0  0  0  0  0  0  0  0  0
   59.4831   34.0801   48.4225 H   0  0  0  0  0  0  0  0  0  0  0  0
   57.8921   34.3195   47.5877 H   0  0  0  0  0  0  0  0  0  0  0  0
   59.5675   31.8031   47.8506 H   0  0  0  0  0  0  0  0  0  0  0  0
   57.8021   32.0644   48.1542 H   0  0  0  0  0  0  0  0  0  0  0  0
  1  2  1  0
  2  3  1  0
  3  4  2  0
  4  5  1  0
  5  6  2  0
  6  7  1  0
  7  8  1  0
  8  9  1  0
  9 10  1  0
 10 11  1  0
 11 12  1  0
 12 13  1  0
 13 14  2  0
 14 15  1  0
 15 16  2  0
 16 17  1  0
 17 18  2  0
 11 19  1  0
 19 20  1  0
  7 21  2  0
 21 22  1  0
 22 23  3  0
 21  3  1  0
 20  8  1  0
 18 13  1  0
  1 24  1  0
  1 25  1  0
  1 26  1  0
  5 27  1  0
  9 28  1  0
  9 29  1  0
 10 30  1  0
 10 31  1  0
 11 32  1  0
 12 33  1  0
 12 34  1  0
 14 35  1  0
 15 36  1  0
 16 37  1  0
 17 38  1  0
 18 39  1  0
 19 40  1  0
 19 41  1  0
 20 42  1  0
 20 43  1  0
M  END
>  <UniqueID>  (5) 
4

>  <SMILES>  (5) 
COc1ncnc(N2CCC(Cc3ccccc3)CC2)c1C#N

>  <Energy>  (5) 
49.943035012800834

>  <Genealogy>  (5) 
COc1ncnc(N2CCC(Cc3ccccc3)CC2)c1C#N (3D coordinates assigned)
COc1ncnc(N2CCC(Cc3ccccc3)CC2)c1C#N (nonaromatic ring conformer: 49.943035012800834 kcal/mol)

>  <smiles>  (5) 
COc1ncnc(N2CCC(Cc3ccccc3)CC2)c1C#N

>  <score_type>  (5) 
oracle

>  <origin>  (5) 
adg

>  <m_score__min__energy>  (5) 
-7.1100000000000003

>  <m_primary>  (5) 
energy

$$$$
5:0
     RDKit          3D

 62 66  0  0  0  0  0  0  0  0999 V2000
   67.3260   32.6570   50.4520 C   0  0  0  0  0  0  0  0  0  0  0  0
   67.3490   33.9580   51.2770 C   0  0  0  0  0  0  0  0  0  0  0  0
   66.3680   34.0250   52.4010 N   0  0  0  0  0  0  0  0  0  0  0  0
   67.0040   33.8800   53.7420 C   0  0  0  0  0  0  0  0  0  0  0  0
   67.5730   35.1730   54.3430 C   0  0  0  0  0  0  0  0  0  0  0  0
   65.4160   35.1680   52.3020 C   0  0  0  0  0  0  0  0  0  0  0  0
   64.0720   34.7910   51.6410 C   0  0  0  0  0  0  0  0  0  0  0  0
   64.2760   33.8300   50.5560 N   0  0  0  0  0  0  0  0  0  0  0  0
   63.5650   32.5830   50.4970 C   0  0  0  0  0  0  0  0  0  0  0  0
   63.9160   31.5440   51.3800 C   0  0  0  0  0  0  0  0  0  0  0  0
   64.9480   31.7650   52.3080 O   0  0  0  0  0  0  0  0  0  0  0  0
   65.5560   30.7480   53.0980 C   0  0  0  0  0  0  0  0  0  0  0  0
   63.2180   30.3240   51.3290 C   0  0  0  0  0  0  0  0  0  0  0  0
   62.1770   30.1410   50.4210 C   0  0  0  0  0  0  0  0  0  0  0  0
   61.8140   31.1690   49.5420 C   0  0  0  0  0  0  0  0  0  0  0  0
   60.7830   30.9730   48.6180 C   0  0  0  0  0  0  0  0  0  0  0  0
   60.4490   31.9930   47.7090 C   0  0  0  0  0  0  0  0  0  0  0  0
   61.1060   33.1990   47.7740 N   0  0  0  0  0  0  0  0  0  0  0  0
   62.1210   33.4020   48.6680 C   0  0  0  0  0  0  0  0  0  0  0  0
   62.5000   32.4000   49.5790 C   0  0  0  0  0  0  0  0  0  0  0  0
   60.7960   34.2690   46.8080 C   0  0  0  0  0  0  0  0  0  0  0  0
   59.2960   34.3270   46.5120 C   0  0  0  0  0  0  0  0  0  0  0  0
   58.8010   32.9710   46.0980 C   0  0  0  0  0  0  0  0  0  0  0  0
   57.7580   32.8560   45.1550 C   0  0  0  0  0  0  0  0  0  0  0  0
   57.3270   31.5810   44.8130 C   0  0  0  0  0  0  0  0  0  0  0  0
   57.8710   30.4680   45.3610 C   0  0  0  0  0  0  0  0  0  0  0  0
   58.8910   30.5290   46.3060 C   0  0  0  0  0  0  0  0  0  0  0  0
   59.3580   31.8090   46.7040 C   0  0  0  0  0  0  0  0  0  0  0  0
   57.2600   29.3470   44.8300 O   0  0  0  0  0  0  0  0  0  0  0  0
   56.2660   29.7870   43.8930 C   0  0  0  0  0  0  0  0  0  0  0  0
   56.3430   31.2190   43.9130 O   0  0  0  0  0  0  0  0  0  0  0  0
   67.3107   31.7921   51.1315 H   0  0  0  0  0  0  0  0  0  0  0  0
   66.4274   32.6409   49.8177 H   0  0  0  0  0  0  0  0  0  0  0  0
   68.2234   32.6091   49.8177 H   0  0  0  0  0  0  0  0  0  0  0  0
   68.3577   34.0727   51.7005 H   0  0  0  0  0  0  0  0  0  0  0  0
   67.0657   34.7614   50.5811 H   0  0  0  0  0  0  0  0  0  0  0  0
   65.7990   33.1540   52.2960 H   0  0  0  0  0  0  0  0  0  0  0  0
   66.2466   33.4874   54.4364 H   0  0  0  0  0  0  0  0  0  0  0  0
   67.8630   33.2078   53.5995 H   0  0  0  0  0  0  0  0  0  0  0  0
   67.5454   35.1102   55.4409 H   0  0  0  0  0  0  0  0  0  0  0  0
   68.6127   35.3059   54.0094 H   0  0  0  0  0  0  0  0  0  0  0  0
   66.9686   36.0294   54.0094 H   0  0  0  0  0  0  0  0  0  0  0  0
   65.2130   35.5416   53.3165 H   0  0  0  0  0  0  0  0  0  0  0  0
   65.8887   35.9302   51.6652 H   0  0  0  0  0  0  0  0  0  0  0  0
   63.4108   34.3445   52.3982 H   0  0  0  0  0  0  0  0  0  0  0  0
   63.6175   35.7016   51.2236 H   0  0  0  0  0  0  0  0  0  0  0  0
   65.1130   33.9610   49.9450 H   0  0  0  0  0  0  0  0  0  0  0  0
   65.4173   30.9799   54.1643 H   0  0  0  0  0  0  0  0  0  0  0  0
   65.0893   29.7784   52.8700 H   0  0  0  0  0  0  0  0  0  0  0  0
   66.6310   30.7001   52.8700 H   0  0  0  0  0  0  0  0  0  0  0  0
   63.4962   29.5075   52.0116 H   0  0  0  0  0  0  0  0  0  0  0  0
   61.6369   29.1831   50.3945 H   0  0  0  0  0  0  0  0  0  0  0  0
   60.2329   30.0206   48.6020 H   0  0  0  0  0  0  0  0  0  0  0  0
   62.6503   34.3663   48.6745 H   0  0  0  0  0  0  0  0  0  0  0  0
   61.1172   35.2344   47.2261 H   0  0  0  0  0  0  0  0  0  0  0  0
   61.3292   34.0573   45.8694 H   0  0  0  0  0  0  0  0  0  0  0  0
   58.7587   34.6506   47.4157 H   0  0  0  0  0  0  0  0  0  0  0  0
   59.1167   35.0416   45.6951 H   0  0  0  0  0  0  0  0  0  0  0  0
   57.3002   33.7490   44.7044 H   0  0  0  0  0  0  0  0  0  0  0  0
   59.3229   29.6115   46.7323 H   0  0  0  0  0  0  0  0  0  0  0  0
   56.4867   29.4022   42.8864 H   0  0  0  0  0  0  0  0  0  0  0  0
   55.2615   29.4241   44.1563 H   0  0  0  0  0  0  0  0  0  0  0  0
  1  2  1  0
  2  3  1  0
  3  4  1  0
  4  5  1  0
  3  6  1  0
  6  7  1  0
  7  8  1  0
  8  9  1  0
  9 10  2  0
 10 11  1  0
 11 12  1  0
 10 13  1  0
 13 14  2  0
 14 15  1  0
 15 16  2  0
 16 17  1  0
 17 18  2  0
 18 19  1  0
 19 20  2  0
 18 21  1  0
 21 22  1  0
 22 23  1  0
 23 24  2  0
 24 25  1  0
 25 26  2  0
 26 27  1  0
 27 28  2  0
 26 29  1  0
 29 30  1  0
 30 31  1  0
 20  9  1  0
 28 23  1  0
 20 15  1  0
 31 25  1  0
 28 17  1  0
  1 32  1  0
  1 33  1  0
  1 34  1  0
  2 35  1  0
  2 36  1  0
  3 37  1  0
  4 38  1  0
  4 39  1  0
  5 40  1  0
  5 41  1  0
  5 42  1  0
  6 43  1  0
  6 44  1  0
  7 45  1  0
  7 46  1  0
  8 47  1  0
 12 48  1  0
 12 49  1  0
 12 50  1  0
 13 51  1  0
 14 52  1  0
 16 53  1  0
 19 54  1  0
 21 55  1  0
 21 56  1  0
 22 57  1  0
 22 58  1  0
 24 59  1  0
 27 60  1  0
 30 61  1  0
 30 62  1  0
M  CHG  2   3   1  18   1
M  END
>  <UniqueID>  (6) 
5

>  <SMILES>  (6) 
CC[NH+](CC)CCNc1c(OC)ccc2cc3[n+](cc12)CCc1cc2c(cc1-3)OCO2

>  <Energy>  (6) 
115.42830922461651

>  <Genealogy>  (6) 
CC[NH+](CC)CCNc1c(OC)ccc2cc3[n+](cc12)CCc1cc2c(cc1-3)OCO2 (protonated)
CC[NH+](CC)CCNc1c(OC)ccc2cc3[n+](cc12)CCc1cc2c(cc1-3)OCO2 (3D coordinates assigned)
CC[NH+](CC)CCNc1c(OC)ccc2cc3[n+](cc12)CCc1cc2c(cc1-3)OCO2 (nonaromatic ring conformer: 115.42830922461651 kcal/mol)

>  <smiles>  (6) 
CCN(CC)CCNc1c(OC)ccc2cc3[n+](cc12)CCc1cc2c(cc1-3)OCO2

>  <score_type>  (6) 
oracle

>  <origin>  (6) 
adg

>  <m_score__min__energy>  (6) 
-5.2199999999999998

>  <m_primary>  (6) 
energy

$$$$
6:0
     RDKit          3D

 45 47  0  0  0  0  0  0  0  0999 V2000
   62.0308   33.8270   47.9679 H   0  0  0  0  0  0  0  0  0  0  0  0
   61.3210   33.0790   47.5850 C   0  0  0  0  0  0  0  0  0  0  0  0
   59.9790   33.4200   47.3980 C   0  0  0  0  0  0  0  0  0  0  0  0
   59.6338   34.4380   47.6313 H   0  0  0  0  0  0  0  0  0  0  0  0
   59.0740   32.4700   46.9150 C   0  0  0  0  0  0  0  0  0  0  0  0
   58.0199   32.7448   46.7623 H   0  0  0  0  0  0  0  0  0  0  0  0
   59.5070   31.1650   46.6240 C   0  0  0  0  0  0  0  0  0  0  0  0
   58.5580   30.1620   46.0900 C   0  0  0  0  0  0  0  0  0  0  0  0
   58.3010   29.0200   46.8570 C   0  0  0  0  0  0  0  0  0  0  0  0
   58.7732   28.9088   47.8442 H   0  0  0  0  0  0  0  0  0  0  0  0
   57.4500   28.0200   46.3800 C   0  0  0  0  0  0  0  0  0  0  0  0
   57.2480   26.9710   47.1250 N   0  0  0  0  0  0  0  0  0  0  0  0
   57.5900   25.5920   46.7860 C   0  0  0  0  0  0  0  0  0  0  0  0
   57.8076   25.0342   47.7088 H   0  0  0  0  0  0  0  0  0  0  0  0
   58.4731   25.5921   46.1301 H   0  0  0  0  0  0  0  0  0  0  0  0
   56.4260   24.9240   46.0550 C   0  0  0  0  0  0  0  0  0  0  0  0
   56.1068   24.0343   46.6177 H   0  0  0  0  0  0  0  0  0  0  0  0
   56.7561   24.6338   45.0466 H   0  0  0  0  0  0  0  0  0  0  0  0
   55.2930   25.8570   45.9380 N   0  0  0  0  0  0  0  0  0  0  0  0
   55.1610   26.3270   46.8650 H   0  0  0  0  0  0  0  0  0  0  0  0
   54.0440   25.1530   45.6170 C   0  0  0  0  0  0  0  0  0  0  0  0
   53.6385   25.5430   44.6717 H   0  0  0  0  0  0  0  0  0  0  0  0
   53.3193   25.3148   46.4286 H   0  0  0  0  0  0  0  0  0  0  0  0
   54.3100   23.6590   45.4740 C   0  0  0  0  0  0  0  0  0  0  0  0
   54.3910   23.2038   46.4721 H   0  0  0  0  0  0  0  0  0  0  0  0
   53.4812   23.1901   44.9233 H   0  0  0  0  0  0  0  0  0  0  0  0
   55.2497   23.5049   44.9233 H   0  0  0  0  0  0  0  0  0  0  0  0
   56.8600   28.1620   45.1550 N   0  0  0  0  0  0  0  0  0  0  0  0
   56.2240   27.4170   44.7890 H   0  0  0  0  0  0  0  0  0  0  0  0
   57.0700   29.2670   44.3810 C   0  0  0  0  0  0  0  0  0  0  0  0
   56.4330   29.3830   43.1350 C   0  0  0  0  0  0  0  0  0  0  0  0
   55.7800   28.5728   42.7783 H   0  0  0  0  0  0  0  0  0  0  0  0
   56.6220   30.5180   42.3460 C   0  0  0  0  0  0  0  0  0  0  0  0
   56.1231   30.5946   41.3687 H   0  0  0  0  0  0  0  0  0  0  0  0
   57.4430   31.5590   42.7920 C   0  0  0  0  0  0  0  0  0  0  0  0
   57.6210   32.7270   41.9860 N   0  0  0  0  0  0  0  0  0  0  0  0
   56.8190   33.1420   41.4610 H   0  0  0  0  0  0  0  0  0  0  0  0
   58.5560   33.1860   41.9070 H   0  0  0  0  0  0  0  0  0  0  0  0
   58.0860   31.4550   44.0320 C   0  0  0  0  0  0  0  0  0  0  0  0
   58.7247   32.2782   44.3845 H   0  0  0  0  0  0  0  0  0  0  0  0
   57.9230   30.3050   44.8340 C   0  0  0  0  0  0  0  0  0  0  0  0
   60.8600   30.8320   46.8010 C   0  0  0  0  0  0  0  0  0  0  0  0
   61.2118   29.8184   46.5584 H   0  0  0  0  0  0  0  0  0  0  0  0
   61.7610   31.7860   47.2850 C   0  0  0  0  0  0  0  0  0  0  0  0
   62.8181   31.5186   47.4300 H   0  0  0  0  0  0  0  0  0  0  0  0
  1  2  1  0
  2  3  2  0
  3  4  1  0
  3  5  1  0
  5  6  1  0
  5  7  2  0
  7  8  1  0
  8  9  2  0
  9 10  1  0
  9 11  1  0
 11 12  2  0
 12 13  1  0
 13 14  1  0
 13 15  1  0
 13 16  1  0
 16 17  1  0
 16 18  1  0
 16 19  1  0
 19 20  1  0
 19 21  1  0
 21 22  1  0
 21 23  1  0
 21 24  1  0
 24 25  1  0
 24 26  1  0
 24 27  1  0
 11 28  1  0
 28 29  1  0
 28 30  1  0
 30 31  2  0
 31 32  1  0
 31 33  1  0
 33 34  1  0
 33 35  2  0
 35 36  1  0
 36 37  1  0
 36 38  1  0
 35 39  1  0
 39 40  1  0
 39 41  2  0
  7 42  1  0
 42 43  1  0
 42 44  2  0
 44 45  1  0
 44  2  1  0
 41  8  1  0
 41 30  1  0
M  END
>  <UniqueID>  (7) 
6

>  <SMILES>  (7) 
CCNCC/N=c1/cc(-c2ccccc2)c2cc(N)ccc2[nH]1

>  <Energy>  (7) 
54.16709400323127

>  <Genealogy>  (7) 
CCNCC/N=c1/cc(-c2ccccc2)c2cc(N)ccc2[nH]1 (cis-trans isomerization)
CCNCC/N=c1/cc(-c2ccccc2)c2cc(N)ccc2[nH]1 (3D coordinates assigned)
CCNCC/N=c1/cc(-c2ccccc2)c2cc(N)ccc2[nH]1 (optimized conformer: 54.16709400323127 kcal/mol)

>  <smiles>  (7) 
CCNCCN=c1cc(-c2ccccc2)c2cc(N)ccc2[nH]1

>  <score_type>  (7) 
oracle

>  <origin>  (7) 
adg

>  <m_score__min__energy>  (7) 
-7.3600000000000003

>  <m_primary>  (7) 
energy

$$$$
7:0
     RDKit          3D

 48 49  0  0  0  0  0  0  0  0999 V2000
   59.5880   35.3190   45.6990 C   0  0  0  0  0  0  0  0  0  0  0  0
   59.1680   33.9460   45.1730 C   0  0  0  0  0  0  0  0  0  0  0  0
   57.8870   33.4250   45.8400 C   0  0  0  0  0  0  0  0  0  0  0  0
   58.1220   32.9530   47.2800 C   0  0  0  0  0  0  0  0  0  0  0  0
   59.5500   32.7690   47.5340 N   0  0  0  0  0  0  0  0  0  0  0  0
   60.2640   33.5000   48.5430 C   0  0  0  0  0  0  0  0  0  0  0  0
   59.6490   34.2670   49.3320 O   0  0  0  0  0  0  0  0  0  0  0  0
   61.7520   33.3480   48.6700 C   0  0  0  0  0  0  0  0  0  0  0  0
   62.2150   31.7130   49.3450 S   0  0  0  0  0  0  0  0  0  0  0  0
   61.3940   30.7740   48.0560 C   0  0  0  0  0  0  0  0  0  0  0  0
   61.6490   30.9190   46.7420 N   0  0  0  0  0  0  0  0  0  0  0  0
   60.7730   30.1650   46.0910 N   0  0  0  0  0  0  0  0  0  0  0  0
   60.0010   29.5590   47.0170 C   0  0  0  0  0  0  0  0  0  0  0  0
   58.8560   28.6940   46.6830 C   0  0  0  0  0  0  0  0  0  0  0  0
   58.8030   27.3680   47.1310 C   0  0  0  0  0  0  0  0  0  0  0  0
   57.7050   26.5640   46.8240 C   0  0  0  0  0  0  0  0  0  0  0  0
   56.6380   27.0750   46.0610 C   0  0  0  0  0  0  0  0  0  0  0  0
   55.5120   26.2990   45.7410 O   0  0  0  0  0  0  0  0  0  0  0  0
   55.5390   24.8940   45.5130 C   0  0  0  0  0  0  0  0  0  0  0  0
   56.6890   28.3990   45.5990 C   0  0  0  0  0  0  0  0  0  0  0  0
   55.6060   28.8860   44.8490 O   0  0  0  0  0  0  0  0  0  0  0  0
   55.7280   29.7330   43.7110 C   0  0  0  0  0  0  0  0  0  0  0  0
   57.8070   29.2000   45.9020 C   0  0  0  0  0  0  0  0  0  0  0  0
   60.3750   29.9220   48.2590 N   0  0  0  0  0  0  0  0  0  0  0  0
   59.7550   29.6200   49.4830 N   0  0  0  0  0  0  0  0  0  0  0  0
   59.5844   35.3071   46.7989 H   0  0  0  0  0  0  0  0  0  0  0  0
   60.5998   35.5561   45.3382 H   0  0  0  0  0  0  0  0  0  0  0  0
   58.8820   36.0815   45.3382 H   0  0  0  0  0  0  0  0  0  0  0  0
   58.9953   34.0216   44.0893 H   0  0  0  0  0  0  0  0  0  0  0  0
   59.9769   33.2380   45.4064 H   0  0  0  0  0  0  0  0  0  0  0  0
   57.1418   34.2340   45.8516 H   0  0  0  0  0  0  0  0  0  0  0  0
   57.5370   32.5593   45.2586 H   0  0  0  0  0  0  0  0  0  0  0  0
   57.7248   33.7059   47.9767 H   0  0  0  0  0  0  0  0  0  0  0  0
   57.6087   31.9912   47.4265 H   0  0  0  0  0  0  0  0  0  0  0  0
   60.0840   32.1380   46.8960 H   0  0  0  0  0  0  0  0  0  0  0  0
   62.2075   33.4642   47.6755 H   0  0  0  0  0  0  0  0  0  0  0  0
   62.1154   34.1192   49.3651 H   0  0  0  0  0  0  0  0  0  0  0  0
   59.6313   26.9585   47.7279 H   0  0  0  0  0  0  0  0  0  0  0  0
   57.6728   25.5239   47.1805 H   0  0  0  0  0  0  0  0  0  0  0  0
   55.5491   24.3661   46.4780 H   0  0  0  0  0  0  0  0  0  0  0  0
   54.6464   24.5979   44.9424 H   0  0  0  0  0  0  0  0  0  0  0  0
   56.4423   24.6324   44.9424 H   0  0  0  0  0  0  0  0  0  0  0  0
   55.8776   30.7715   44.0412 H   0  0  0  0  0  0  0  0  0  0  0  0
   56.5893   29.4129   43.1063 H   0  0  0  0  0  0  0  0  0  0  0  0
   54.8114   29.6690   43.1063 H   0  0  0  0  0  0  0  0  0  0  0  0
   57.8578   30.2313   45.5228 H   0  0  0  0  0  0  0  0  0  0  0  0
   58.9770   28.9280   49.5390 H   0  0  0  0  0  0  0  0  0  0  0  0
   60.0280   30.1230   50.3550 H   0  0  0  0  0  0  0  0  0  0  0  0
  1  2  1  0
  2  3  1  0
  3  4  1  0
  4  5  1  0
  5  6  1  0
  6  7  2  0
  6  8  1  0
  8  9  1  0
  9 10  1  0
 10 11  2  0
 11 12  1  0
 12 13  2  0
 13 14  1  0
 14 15  2  0
 15 16  1  0
 16 17  2  0
 17 18  1  0
 18 19  1  0
 17 20  1  0
 20 21  1  0
 21 22  1  0
 20 23  2  0
 13 24  1  0
 24 25  1  0
 24 10  1  0
 23 14  1  0
  1 26  1  0
  1 27  1  0
  1 28  1  0
  2 29  1  0
  2 30  1  0
  3 31  1  0
  3 32  1  0
  4 33  1  0
  4 34  1  0
  5 35  1  0
  8 36  1  0
  8 37  1  0
 15 38  1  0
 16 39  1  0
 19 40  1  0
 19 41  1  0
 19 42  1  0
 22 43  1  0
 22 44  1  0
 22 45  1  0
 23 46  1  0
 25 47  1  0
 25 48  1  0
M  END
>  <UniqueID>  (8) 
7

>  <SMILES>  (8) 
CCCCNC(=O)CSc1nnc(-c2ccc(OC)c(OC)c2)n1N

>  <Energy>  (8) 
70.11375444436953

>  <Genealogy>  (8) 
CCCCNC(=O)CSc1nnc(-c2ccc(OC)c(OC)c2)n1N (3D coordinates assigned)
CCCCNC(=O)CSc1nnc(-c2ccc(OC)c(OC)c2)n1N (optimized conformer: 70.11375444436953 kcal/mol)

>  <smiles>  (8) 
CCCCNC(=O)CSc1nnc(-c2ccc(OC)c(OC)c2)n1N

>  <score_type>  (8) 
oracle

>  <origin>  (8) 
adg

>  <m_score__min__energy>  (8) 
-6.9500000000000002

>  <m_primary>  (8) 
energy

$$$$
8:0
     RDKit          3D

 66 69  0  0  0  0  0  0  0  0999 V2000
   62.6570   33.8470   46.4110 C   0  0  0  0  0  0  0  0  0  0  0  0
   62.8300   33.1030   47.6710 N   0  0  0  0  0  0  0  0  0  0  0  0
   62.5600   31.6680   47.4850 C   0  0  0  0  0  0  0  0  0  0  0  0
   64.1320   33.3680   48.3270 C   0  0  0  0  0  0  0  0  0  0  0  0
   64.1310   33.1550   49.8540 C   0  0  0  0  0  0  0  0  0  0  0  0
   64.4320   31.7360   50.1610 N   0  0  0  0  0  0  0  0  0  0  0  0
   65.8420   31.5820   50.5590 C   0  0  0  0  0  0  0  0  0  0  0  0
   63.5430   31.2040   51.2160 C   0  0  0  0  0  0  0  0  0  0  0  0
   62.1380   31.0600   50.6850 C   0  0  0  0  0  0  0  0  0  0  0  0
   61.6090   29.7840   50.4310 C   0  0  0  0  0  0  0  0  0  0  0  0
   60.3240   29.6510   49.8930 C   0  0  0  0  0  0  0  0  0  0  0  0
   59.5660   30.7860   49.5880 C   0  0  0  0  0  0  0  0  0  0  0  0
   60.0930   32.0660   49.8140 C   0  0  0  0  0  0  0  0  0  0  0  0
   59.2840   33.3000   49.5130 C   0  0  0  0  0  0  0  0  0  0  0  0
   60.0310   34.2070   48.6230 N   0  0  0  0  0  0  0  0  0  0  0  0
   59.5830   34.0490   47.2600 C   0  0  0  0  0  0  0  0  0  0  0  0
   59.6190   35.1300   46.3640 C   0  0  0  0  0  0  0  0  0  0  0  0
   59.1260   34.9830   45.0630 C   0  0  0  0  0  0  0  0  0  0  0  0
   58.5830   33.7610   44.6510 C   0  0  0  0  0  0  0  0  0  0  0  0
   58.5240   32.6840   45.5430 C   0  0  0  0  0  0  0  0  0  0  0  0
   57.9130   31.4050   45.1340 C   0  0  0  0  0  0  0  0  0  0  0  0
   56.6770   31.4380   44.4620 C   0  0  0  0  0  0  0  0  0  0  0  0
   56.0950   30.2600   43.9940 C   0  0  0  0  0  0  0  0  0  0  0  0
   56.7320   29.0330   44.1870 C   0  0  0  0  0  0  0  0  0  0  0  0
   57.9650   28.9730   44.8530 C   0  0  0  0  0  0  0  0  0  0  0  0
   58.6070   27.7380   45.0370 C   0  0  0  0  0  0  0  0  0  0  0  0
   59.8350   27.6760   45.7010 C   0  0  0  0  0  0  0  0  0  0  0  0
   60.4300   28.8410   46.1870 C   0  0  0  0  0  0  0  0  0  0  0  0
   59.8050   30.0790   46.0110 C   0  0  0  0  0  0  0  0  0  0  0  0
   58.5670   30.1640   45.3380 C   0  0  0  0  0  0  0  0  0  0  0  0
   59.0220   32.8300   46.8440 C   0  0  0  0  0  0  0  0  0  0  0  0
   61.3710   32.1960   50.3840 C   0  0  0  0  0  0  0  0  0  0  0  0
   62.4131   34.8959   46.6351 H   0  0  0  0  0  0  0  0  0  0  0  0
   63.5892   33.8037   45.8286 H   0  0  0  0  0  0  0  0  0  0  0  0
   61.8396   33.3968   45.8286 H   0  0  0  0  0  0  0  0  0  0  0  0
   62.4685   31.1818   48.4674 H   0  0  0  0  0  0  0  0  0  0  0  0
   61.6222   31.5410   46.9243 H   0  0  0  0  0  0  0  0  0  0  0  0
   63.3875   31.2089   46.9243 H   0  0  0  0  0  0  0  0  0  0  0  0
   64.8825   32.6953   47.8863 H   0  0  0  0  0  0  0  0  0  0  0  0
   64.3577   34.4313   48.1586 H   0  0  0  0  0  0  0  0  0  0  0  0
   64.8956   33.7986   50.3134 H   0  0  0  0  0  0  0  0  0  0  0  0
   63.1404   33.4126   50.2570 H   0  0  0  0  0  0  0  0  0  0  0  0
   65.9144   31.5741   51.6566 H   0  0  0  0  0  0  0  0  0  0  0  0
   66.2347   30.6356   50.1588 H   0  0  0  0  0  0  0  0  0  0  0  0
   66.4297   32.4213   50.1588 H   0  0  0  0  0  0  0  0  0  0  0  0
   63.9120   30.2200   51.5408 H   0  0  0  0  0  0  0  0  0  0  0  0
   63.5369   31.9006   52.0673 H   0  0  0  0  0  0  0  0  0  0  0  0
   62.2058   28.8876   50.6553 H   0  0  0  0  0  0  0  0  0  0  0  0
   59.9083   28.6493   49.7092 H   0  0  0  0  0  0  0  0  0  0  0  0
   58.5546   30.6747   49.1701 H   0  0  0  0  0  0  0  0  0  0  0  0
   58.3445   33.0054   49.0226 H   0  0  0  0  0  0  0  0  0  0  0  0
   59.0731   33.8242   50.4568 H   0  0  0  0  0  0  0  0  0  0  0  0
   59.8980   35.1960   48.9410 H   0  0  0  0  0  0  0  0  0  0  0  0
   61.0600   34.0050   48.6640 H   0  0  0  0  0  0  0  0  0  0  0  0
   60.0362   36.0954   46.6863 H   0  0  0  0  0  0  0  0  0  0  0  0
   59.1653   35.8301   44.3623 H   0  0  0  0  0  0  0  0  0  0  0  0
   58.2022   33.6467   43.6254 H   0  0  0  0  0  0  0  0  0  0  0  0
   56.1663   32.3995   44.3047 H   0  0  0  0  0  0  0  0  0  0  0  0
   55.1286   30.2981   43.4699 H   0  0  0  0  0  0  0  0  0  0  0  0
   56.2650   28.1091   43.8152 H   0  0  0  0  0  0  0  0  0  0  0  0
   58.1419   26.8163   44.6573 H   0  0  0  0  0  0  0  0  0  0  0  0
   60.3342   26.7059   45.8410 H   0  0  0  0  0  0  0  0  0  0  0  0
   61.3955   28.7849   46.7111 H   0  0  0  0  0  0  0  0  0  0  0  0
   60.2805   30.9919   46.3990 H   0  0  0  0  0  0  0  0  0  0  0  0
   58.9735   31.9839   47.5452 H   0  0  0  0  0  0  0  0  0  0  0  0
   61.7738   33.1974   50.5962 H   0  0  0  0  0  0  0  0  0  0  0  0
  1  2  1  0
  2  3  1  0
  2  4  1  0
  4  5  1  0
  5  6  1  0
  6  7  1  0
  6  8  1  0
  8  9  1  0
  9 10  2  0
 10 11  1  0
 11 12  2  0
 12 13  1  0
 13 14  1  0
 14 15  1  0
 15 16  1  0
 16 17  2  0
 17 18  1  0
 18 19  2  0
 19 20  1  0
 20 21  1  0
 21 22  2  0
 22 23  1  0
 23 24  2  0
 24 25  1  0
 25 26  2  0
 26 27  1  0
 27 28  2  0
 28 29  1  0
 29 30  2  0
 20 31  2  0
 13 32  2  0
 32  9  1  0
 31 16  1  0
 30 21  1  0
 30 25  1  0
  1 33  1  0
  1 34  1  0
  1 35  1  0
  3 36  1  0
  3 37  1  0
  3 38  1  0
  4 39  1  0
  4 40  1  0
  5 41  1  0
  5 42  1  0
  7 43  1  0
  7 44  1  0
  7 45  1  0
  8 46  1  0
  8 47  1  0
 10 48  1  0
 11 49  1  0
 12 50  1  0
 14 51  1  0
 14 52  1  0
 15 53  1  0
 15 54  1  0
 17 55  1  0
 18 56  1  0
 19 57  1  0
 22 58  1  0
 23 59  1  0
 24 60  1  0
 26 61  1  0
 27 62  1  0
 28 63  1  0
 29 64  1  0
 31 65  1  0
 32 66  1  0
M  CHG  1  15   1
M  END
>  <UniqueID>  (9) 
8

>  <SMILES>  (9) 
CN(C)CCN(C)Cc1cccc(C[NH2+]c2cccc(-c3cccc4ccccc34)c2)c1

>  <Energy>  (9) 
85.3828819012887

>  <Genealogy>  (9) 
CN(C)CCN(C)Cc1cccc(C[NH2+]c2cccc(-c3cccc4ccccc34)c2)c1 (protonated)
CN(C)CCN(C)Cc1cccc(C[NH2+]c2cccc(-c3cccc4ccccc34)c2)c1 (3D coordinates assigned)
CN(C)CCN(C)Cc1cccc(C[NH2+]c2cccc(-c3cccc4ccccc34)c2)c1 (optimized conformer: 85.3828819012887 kcal/mol)

>  <smiles>  (9) 
CN(C)CCN(C)Cc1cccc(CNc2cccc(-c3cccc4ccccc34)c2)c1

>  <score_type>  (9) 
oracle

>  <origin>  (9) 
adg

>  <m_score__min__energy>  (9) 
-8.5500000000000007

>  <m_primary>  (9) 
energy

$$$$
9:0
     RDKit          3D

 31 33  0  0  0  0  0  0  0  0999 V2000
   61.0060   33.8420   49.7090 C   0  0  0  0  0  0  0  0  0  0  0  0
   59.6710   33.9480   49.2270 O   0  0  0  0  0  0  0  0  0  0  0  0
   59.2990   33.8070   47.8810 C   0  0  0  0  0  0  0  0  0  0  0  0
   59.2850   34.8890   46.9910 C   0  0  0  0  0  0  0  0  0  0  0  0
   58.9080   34.7010   45.6650 C   0  0  0  0  0  0  0  0  0  0  0  0
   58.5370   33.4300   45.2010 C   0  0  0  0  0  0  0  0  0  0  0  0
   58.1640   33.2770   43.8640 C   0  0  0  0  0  0  0  0  0  0  0  0
   57.7870   32.0330   43.3530 C   0  0  0  0  0  0  0  0  0  0  0  0
   57.3950   31.9440   41.8960 C   0  0  0  0  0  0  0  0  0  0  0  0
   57.7800   30.9000   44.2030 C   0  0  0  0  0  0  0  0  0  0  0  0
   57.4020   29.6300   43.7100 C   0  0  0  0  0  0  0  0  0  0  0  0
   57.3930   28.5130   44.5400 C   0  0  0  0  0  0  0  0  0  0  0  0
   57.7580   28.6340   45.8730 C   0  0  0  0  0  0  0  0  0  0  0  0
   58.1360   29.8720   46.3910 C   0  0  0  0  0  0  0  0  0  0  0  0
   58.1580   31.0320   45.5760 C   0  0  0  0  0  0  0  0  0  0  0  0
   58.5410   32.3150   46.0790 C   0  0  0  0  0  0  0  0  0  0  0  0
   58.9300   32.5360   47.4240 C   0  0  0  0  0  0  0  0  0  0  0  0
   60.9998   33.8425   50.8090 H   0  0  0  0  0  0  0  0  0  0  0  0
   61.4539   32.9055   49.3453 H   0  0  0  0  0  0  0  0  0  0  0  0
   61.5961   34.6961   49.3453 H   0  0  0  0  0  0  0  0  0  0  0  0
   59.5732   35.8909   47.3419 H   0  0  0  0  0  0  0  0  0  0  0  0
   58.9008   35.5568   44.9740 H   0  0  0  0  0  0  0  0  0  0  0  0
   58.1672   34.1539   43.1999 H   0  0  0  0  0  0  0  0  0  0  0  0
   56.3250   31.7011   41.8184 H   0  0  0  0  0  0  0  0  0  0  0  0
   57.5885   32.9089   41.4046 H   0  0  0  0  0  0  0  0  0  0  0  0
   57.9862   31.1572   41.4046 H   0  0  0  0  0  0  0  0  0  0  0  0
   57.1107   29.5232   42.6547 H   0  0  0  0  0  0  0  0  0  0  0  0
   57.0961   27.5328   44.1386 H   0  0  0  0  0  0  0  0  0  0  0  0
   57.7491   27.7481   46.5250 H   0  0  0  0  0  0  0  0  0  0  0  0
   58.4221   29.9501   47.4503 H   0  0  0  0  0  0  0  0  0  0  0  0
   58.9423   31.6888   48.1255 H   0  0  0  0  0  0  0  0  0  0  0  0
  1  2  1  0
  2  3  1  0
  3  4  2  0
  4  5  1  0
  5  6  2  0
  6  7  1  0
  7  8  2  0
  8  9  1  0
  8 10  1  0
 10 11  2  0
 11 12  1  0
 12 13  2  0
 13 14  1  0
 14 15  2  0
 15 16  1  0
 16 17  2  0
 17  3  1  0
 16  6  1  0
 15 10  1  0
  1 18  1  0
  1 19  1  0
  1 20  1  0
  4 21  1  0
  5 22  1  0
  7 23  1  0
  9 24  1  0
  9 25  1  0
  9 26  1  0
 11 27  1  0
 12 28  1  0
 13 29  1  0
 14 30  1  0
 17 31  1  0
M  END
>  <UniqueID>  (10) 
9

>  <SMILES>  (10) 
COc1ccc2cc(C)c3ccccc3c2c1

>  <Energy>  (10) 
46.58197590848655

>  <Genealogy>  (10) 
COc1ccc2cc(C)c3ccccc3c2c1 (3D coordinates assigned)
COc1ccc2cc(C)c3ccccc3c2c1 (optimized conformer: 46.58197590848655 kcal/mol)

>  <smiles>  (10) 
COc1ccc2cc(C)c3ccccc3c2c1

>  <score_type>  (10) 
oracle

>  <origin>  (10) 
adg

>  <m_score__min__energy>  (10) 
-6.7400000000000002

>  <m_primary>  (10) 
energy

$$$$
10:0
     RDKit          3D

 48 50  0  0  0  0  0  0  0  0999 V2000
   58.2390   27.3240   43.7220 C   0  0  0  0  0  0  0  0  0  0  0  0
   57.4170   28.5930   43.4410 C   0  0  0  0  0  0  0  0  0  0  0  0
   58.0860   29.8680   43.8090 N   0  0  0  0  0  0  0  0  0  0  0  0
   58.6530   29.8290   45.1800 C   0  0  0  0  0  0  0  0  0  0  0  0
   58.9330   31.2430   45.6980 C   0  0  0  0  0  0  0  0  0  0  0  0
   57.6660   32.0080   45.8470 N   0  0  0  0  0  0  0  0  0  0  0  0
   57.7730   33.4720   46.1270 C   0  0  2  0  0  0  0  0  0  0  0  0
   57.7650   34.3490   44.8790 C   0  0  0  0  0  0  0  0  0  0  0  0
   59.2430   34.6520   44.5970 C   0  0  0  0  0  0  0  0  0  0  0  0
   60.0460   34.2230   45.7510 N   0  0  0  0  0  0  0  0  0  0  0  0
   59.0820   33.9000   46.8030 C   0  0  2  0  0  0  0  0  0  0  0  0
   59.6300   33.0450   47.9760 C   0  0  0  0  0  0  0  0  0  0  0  0
   61.1260   33.0180   48.1690 C   0  0  0  0  0  0  0  0  0  0  0  0
   61.9380   32.2150   47.3470 C   0  0  0  0  0  0  0  0  0  0  0  0
   63.3270   32.2200   47.5050 C   0  0  0  0  0  0  0  0  0  0  0  0
   63.9210   33.0440   48.4640 C   0  0  0  0  0  0  0  0  0  0  0  0
   63.1270   33.8720   49.2610 C   0  0  0  0  0  0  0  0  0  0  0  0
   61.7360   33.8630   49.1130 C   0  0  0  0  0  0  0  0  0  0  0  0
   56.6460   31.6830   44.8120 C   0  0  0  0  0  0  0  0  0  0  0  0
   57.2590   31.0750   43.5350 C   0  0  0  0  0  0  0  0  0  0  0  0
   58.3320   27.1805   44.8086 H   0  0  0  0  0  0  0  0  0  0  0  0
   57.7327   26.4536   43.2792 H   0  0  0  0  0  0  0  0  0  0  0  0
   59.2403   27.4302   43.2792 H   0  0  0  0  0  0  0  0  0  0  0  0
   57.1931   28.6233   42.3645 H   0  0  0  0  0  0  0  0  0  0  0  0
   56.5185   28.5236   44.0718 H   0  0  0  0  0  0  0  0  0  0  0  0
   58.9110   29.9350   43.1650 H   0  0  0  0  0  0  0  0  0  0  0  0
   57.9358   29.3350   45.8521 H   0  0  0  0  0  0  0  0  0  0  0  0
   59.6010   29.2717   45.1517 H   0  0  0  0  0  0  0  0  0  0  0  0
   59.4324   31.1772   46.6759 H   0  0  0  0  0  0  0  0  0  0  0  0
   59.5779   31.7637   44.9749 H   0  0  0  0  0  0  0  0  0  0  0  0
   56.8911   33.6148   46.7687 H   0  0  0  0  0  0  0  0  0  0  0  0
   57.3119   33.8125   44.0323 H   0  0  0  0  0  0  0  0  0  0  0  0
   57.1752   35.2664   45.0224 H   0  0  0  0  0  0  0  0  0  0  0  0
   59.5668   34.1062   43.6985 H   0  0  0  0  0  0  0  0  0  0  0  0
   59.3769   35.7311   44.4305 H   0  0  0  0  0  0  0  0  0  0  0  0
   60.5790   33.3700   45.4770 H   0  0  0  0  0  0  0  0  0  0  0  0
   58.8483   34.7961   47.3967 H   0  0  0  0  0  0  0  0  0  0  0  0
   59.1835   33.4314   48.9041 H   0  0  0  0  0  0  0  0  0  0  0  0
   59.3578   32.0095   47.7236 H   0  0  0  0  0  0  0  0  0  0  0  0
   61.4774   31.5799   46.5760 H   0  0  0  0  0  0  0  0  0  0  0  0
   63.9536   31.5737   46.8728 H   0  0  0  0  0  0  0  0  0  0  0  0
   65.0136   33.0408   48.5915 H   0  0  0  0  0  0  0  0  0  0  0  0
   63.5960   34.5318   50.0058 H   0  0  0  0  0  0  0  0  0  0  0  0
   61.1155   34.5211   49.7390 H   0  0  0  0  0  0  0  0  0  0  0  0
   55.9327   30.9613   45.2368 H   0  0  0  0  0  0  0  0  0  0  0  0
   56.1547   32.6247   44.5260 H   0  0  0  0  0  0  0  0  0  0  0  0
   56.4429   30.7942   42.8530 H   0  0  0  0  0  0  0  0  0  0  0  0
   57.9194   31.8346   43.0912 H   0  0  0  0  0  0  0  0  0  0  0  0
  1  2  1  0
  2  3  1  0
  3  4  1  0
  4  5  1  0
  5  6  1  0
  6  7  1  0
  7  8  1  0
  8  9  1  0
  9 10  1  0
 10 11  1  0
 11 12  1  0
 12 13  1  0
 13 14  2  0
 14 15  1  0
 15 16  2  0
 16 17  1  0
 17 18  2  0
  6 19  1  0
 19 20  1  0
 20  3  1  0
 11  7  1  0
 18 13  1  0
  1 21  1  0
  1 22  1  0
  1 23  1  0
  2 24  1  0
  2 25  1  0
  3 26  1  0
  4 27  1  0
  4 28  1  0
  5 29  1  0
  5 30  1  0
  7 31  1  1
  8 32  1  0
  8 33  1  0
  9 34  1  0
  9 35  1  0
 10 36  1  0
 11 37  1  1
 12 38  1  0
 12 39  1  0
 14 40  1  0
 15 41  1  0
 16 42  1  0
 17 43  1  0
 18 44  1  0
 19 45  1  0
 19 46  1  0
 20 47  1  0
 20 48  1  0
M  CHG  1   3   1
M  END
>  <UniqueID>  (11) 
10

>  <SMILES>  (11) 
CC[NH+]1CCN([C@@H]2CCN[C@@H]2Cc2ccccc2)CC1

>  <Energy>  (11) 
76.52721466704656

>  <Genealogy>  (11) 
CC[NH+]1CCN(C2CCNC2Cc2ccccc2)CC1 (protonated)
CC[NH+]1CCN([C@@H]2CCN[C@@H]2Cc2ccccc2)CC1 (chirality)
CC[NH+]1CCN([C@@H]2CCN[C@@H]2Cc2ccccc2)CC1 (3D coordinates assigned)
CC[NH+]1CCN([C@@H]2CCN[C@@H]2Cc2ccccc2)CC1 (nonaromatic ring conformer: 76.52721466704656 kcal/mol)

>  <smiles>  (11) 
CCN1CCN(C2CCNC2Cc2ccccc2)CC1

>  <score_type>  (11) 
oracle

>  <origin>  (11) 
adg

>  <m_score__min__energy>  (11) 
-5.8600000000000003

>  <m_primary>  (11) 
energy

$$$$
11:0
     RDKit          3D

 38 41  0  0  0  0  0  0  0  0999 V2000
   57.3900   21.7430   43.7790 C   0  0  0  0  0  0  0  0  0  0  0  0
   57.2530   23.1720   44.1980 C   0  0  0  0  0  0  0  0  0  0  0  0
   56.5890   23.4970   45.4000 C   0  0  0  0  0  0  0  0  0  0  0  0
   56.4790   24.8470   45.7170 C   0  0  0  0  0  0  0  0  0  0  0  0
   55.8680   25.3960   46.7810 N   0  0  0  0  0  0  0  0  0  0  0  0
   55.9840   26.7150   46.6640 N   0  0  0  0  0  0  0  0  0  0  0  0
   56.6660   27.0060   45.5300 C   0  0  0  0  0  0  0  0  0  0  0  0
   56.9900   28.3820   45.0900 C   0  0  0  0  0  0  0  0  0  0  0  0
   55.9640   29.3190   44.8860 C   0  0  0  0  0  0  0  0  0  0  0  0
   56.2550   30.5730   44.4540 N   0  0  0  0  0  0  0  0  0  0  0  0
   57.5310   30.9640   44.2070 C   0  0  0  0  0  0  0  0  0  0  0  0
   58.5850   30.0680   44.3810 C   0  0  0  0  0  0  0  0  0  0  0  0
   58.3200   28.7570   44.8150 C   0  0  0  0  0  0  0  0  0  0  0  0
   59.3490   27.8230   45.0250 O   0  0  0  0  0  0  0  0  0  0  0  0
   60.4870   28.0080   45.8670 C   0  0  0  0  0  0  0  0  0  0  0  0
   60.4920   26.9590   46.9890 C   0  0  0  0  0  0  0  0  0  0  0  0
   59.6890   25.7100   46.6610 C   0  0  0  0  0  0  0  0  0  0  0  0
   58.7180   25.9540   47.7290 N   0  0  0  0  0  0  0  0  0  0  0  0
   59.4540   27.1700   48.0810 C   0  0  0  0  0  0  0  0  0  0  0  0
   56.9900   25.8170   44.9080 C   0  0  0  0  0  0  0  0  0  0  0  0
   57.6170   25.4910   43.7080 C   0  0  0  0  0  0  0  0  0  0  0  0
   57.7330   24.1680   43.3860 N   0  0  0  0  0  0  0  0  0  0  0  0
   57.4513   21.1034   44.6718 H   0  0  0  0  0  0  0  0  0  0  0  0
   56.5157   21.4515   43.1785 H   0  0  0  0  0  0  0  0  0  0  0  0
   58.3038   21.6230   43.1785 H   0  0  0  0  0  0  0  0  0  0  0  0
   56.1766   22.7173   46.0573 H   0  0  0  0  0  0  0  0  0  0  0  0
   54.9185   29.0354   45.0773 H   0  0  0  0  0  0  0  0  0  0  0  0
   57.7342   31.9907   43.8686 H   0  0  0  0  0  0  0  0  0  0  0  0
   59.6189   30.3851   44.1797 H   0  0  0  0  0  0  0  0  0  0  0  0
   61.4034   27.9035   45.2676 H   0  0  0  0  0  0  0  0  0  0  0  0
   60.4435   29.0121   46.3142 H   0  0  0  0  0  0  0  0  0  0  0  0
   61.5730   26.9588   47.1924 H   0  0  0  0  0  0  0  0  0  0  0  0
   59.2448   25.7286   45.6548 H   0  0  0  0  0  0  0  0  0  0  0  0
   60.2088   24.7410   46.6315 H   0  0  0  0  0  0  0  0  0  0  0  0
   57.8080   26.2330   47.2900 H   0  0  0  0  0  0  0  0  0  0  0  0
   58.8648   28.0898   47.9513 H   0  0  0  0  0  0  0  0  0  0  0  0
   59.7971   27.2981   49.1182 H   0  0  0  0  0  0  0  0  0  0  0  0
   58.0066   26.2737   43.0404 H   0  0  0  0  0  0  0  0  0  0  0  0
  1  2  1  0
  2  3  2  0
  3  4  1  0
  4  5  2  0
  5  6  1  0
  6  7  1  0
  7  8  1  0
  8  9  2  0
  9 10  1  0
 10 11  2  0
 11 12  1  0
 12 13  2  0
 13 14  1  0
 14 15  1  0
 15 16  1  0
 16 17  1  0
 17 18  1  0
 18 19  1  0
  7 20  2  0
 20 21  1  0
 21 22  2  0
 22  2  1  0
 20  4  1  0
 13  8  1  0
 19 16  1  0
  1 23  1  0
  1 24  1  0
  1 25  1  0
  3 26  1  0
  9 27  1  0
 11 28  1  0
 12 29  1  0
 15 30  1  0
 15 31  1  0
 16 32  1  0
 17 33  1  0
 17 34  1  0
 18 35  1  0
 19 36  1  0
 19 37  1  0
 21 38  1  0
M  CHG  1   6  -1
M  END
>  <UniqueID>  (12) 
11

>  <SMILES>  (12) 
Cc1cc2n[n-]c(-c3cnccc3OCC3CNC3)c2cn1

>  <Energy>  (12) 
152.94540927295253

>  <Genealogy>  (12) 
Cc1cc2n[n-]c(-c3cnccc3OCC3CNC3)c2cn1 (protonated)
Cc1cc2n[n-]c(-c3cnccc3OCC3CNC3)c2cn1 (3D coordinates assigned)
Cc1cc2n[n-]c(-c3cnccc3OCC3CNC3)c2cn1 (nonaromatic ring conformer: 152.94540927295253 kcal/mol)

>  <smiles>  (12) 
Cc1cc2n[nH]c(-c3cnccc3OCC3CNC3)c2cn1

>  <score_type>  (12) 
oracle

>  <origin>  (12) 
adg

>  <m_score__min__energy>  (12) 
-10.06

>  <m_primary>  (12) 
energy

$$$$
12:0
     RDKit          3D

 60 63  0  0  0  0  0  0  0  0999 V2000
   59.6300   35.3970   45.5770 C   0  0  0  0  0  0  0  0  0  0  0  0
   58.9650   34.4340   44.5950 C   0  0  0  0  0  0  0  0  0  0  0  0
   57.4700   34.2220   44.8850 C   0  0  0  0  0  0  0  0  0  0  0  0
   57.1860   33.4150   46.1670 C   0  0  0  0  0  0  0  0  0  0  0  0
   58.0560   32.2190   46.2680 N   0  0  0  0  0  0  0  0  0  0  0  0
   59.1680   32.2000   47.0940 C   0  0  0  0  0  0  0  0  0  0  0  0
   59.5450   33.3510   48.0120 C   0  0  0  0  0  0  0  0  0  0  0  0
   60.9820   33.2890   48.3430 N   0  0  0  0  0  0  0  0  0  0  0  0
   61.7990   33.5760   47.1430 C   0  0  0  0  0  0  0  0  0  0  0  0
   63.2980   33.6880   47.4870 C   0  0  0  0  0  0  0  0  0  0  0  0
   63.5370   33.2430   48.8710 N   0  0  0  0  0  0  0  0  0  0  0  0
   64.9710   33.0850   49.2010 C   0  0  0  0  0  0  0  0  0  0  0  0
   65.2610   31.9570   50.1690 C   0  0  0  0  0  0  0  0  0  0  0  0
   66.5840   31.6640   50.5430 C   0  0  0  0  0  0  0  0  0  0  0  0
   66.8500   30.6220   51.4380 C   0  0  0  0  0  0  0  0  0  0  0  0
   65.8000   29.8720   51.9700 C   0  0  0  0  0  0  0  0  0  0  0  0
   64.4810   30.1630   51.6130 C   0  0  0  0  0  0  0  0  0  0  0  0
   64.2100   31.2030   50.7200 C   0  0  0  0  0  0  0  0  0  0  0  0
   62.8050   34.0900   49.8320 C   0  0  0  0  0  0  0  0  0  0  0  0
   61.3230   34.2290   49.4300 C   0  0  0  0  0  0  0  0  0  0  0  0
   59.9630   31.0920   47.1420 N   0  0  0  0  0  0  0  0  0  0  0  0
   59.6990   29.9890   46.3970 C   0  0  0  0  0  0  0  0  0  0  0  0
   60.5390   28.8650   46.4690 C   0  0  0  0  0  0  0  0  0  0  0  0
   60.2620   27.7300   45.7030 C   0  0  0  0  0  0  0  0  0  0  0  0
   59.1470   27.7090   44.8630 C   0  0  0  0  0  0  0  0  0  0  0  0
   58.3060   28.8210   44.7850 C   0  0  0  0  0  0  0  0  0  0  0  0
   58.5770   29.9710   45.5540 C   0  0  0  0  0  0  0  0  0  0  0  0
   57.7590   31.1100   45.5080 C   0  0  0  0  0  0  0  0  0  0  0  0
   56.7440   31.1060   44.7550 O   0  0  0  0  0  0  0  0  0  0  0  0
   59.4108   35.0796   46.6071 H   0  0  0  0  0  0  0  0  0  0  0  0
   60.7181   35.3920   45.4155 H   0  0  0  0  0  0  0  0  0  0  0  0
   59.2400   36.4128   45.4155 H   0  0  0  0  0  0  0  0  0  0  0  0
   59.0712   34.8404   43.5784 H   0  0  0  0  0  0  0  0  0  0  0  0
   59.4633   33.4590   44.7000 H   0  0  0  0  0  0  0  0  0  0  0  0
   56.9943   35.2087   44.9854 H   0  0  0  0  0  0  0  0  0  0  0  0
   57.0638   33.6380   44.0460 H   0  0  0  0  0  0  0  0  0  0  0  0
   57.3639   34.0596   47.0404 H   0  0  0  0  0  0  0  0  0  0  0  0
   56.1402   33.0755   46.1330 H   0  0  0  0  0  0  0  0  0  0  0  0
   59.3292   34.3042   47.5071 H   0  0  0  0  0  0  0  0  0  0  0  0
   58.9593   33.2767   48.9401 H   0  0  0  0  0  0  0  0  0  0  0  0
   61.6602   32.7635   46.4146 H   0  0  0  0  0  0  0  0  0  0  0  0
   61.4699   34.5394   46.7265 H   0  0  0  0  0  0  0  0  0  0  0  0
   63.8773   33.0567   46.7972 H   0  0  0  0  0  0  0  0  0  0  0  0
   63.6115   34.7378   47.3883 H   0  0  0  0  0  0  0  0  0  0  0  0
   65.5209   32.8901   48.2684 H   0  0  0  0  0  0  0  0  0  0  0  0
   65.2880   34.0159   49.6938 H   0  0  0  0  0  0  0  0  0  0  0  0
   67.4138   32.2565   50.1302 H   0  0  0  0  0  0  0  0  0  0  0  0
   67.8877   30.3936   51.7227 H   0  0  0  0  0  0  0  0  0  0  0  0
   66.0112   29.0510   52.6710 H   0  0  0  0  0  0  0  0  0  0  0  0
   63.6546   29.5726   52.0355 H   0  0  0  0  0  0  0  0  0  0  0  0
   63.1695   31.4329   50.4468 H   0  0  0  0  0  0  0  0  0  0  0  0
   62.8653   33.6345   50.8314 H   0  0  0  0  0  0  0  0  0  0  0  0
   63.2621   35.0905   49.8359 H   0  0  0  0  0  0  0  0  0  0  0  0
   60.6909   34.0136   50.3041 H   0  0  0  0  0  0  0  0  0  0  0  0
   61.1498   35.2555   49.0746 H   0  0  0  0  0  0  0  0  0  0  0  0
   60.7960   31.0930   47.7750 H   0  0  0  0  0  0  0  0  0  0  0  0
   61.4176   28.8788   47.1307 H   0  0  0  0  0  0  0  0  0  0  0  0
   60.9227   26.8525   45.7617 H   0  0  0  0  0  0  0  0  0  0  0  0
   58.9304   26.8141   44.2611 H   0  0  0  0  0  0  0  0  0  0  0  0
   57.4291   28.7996   44.1213 H   0  0  0  0  0  0  0  0  0  0  0  0
  1  2  1  0
  2  3  1  0
  3  4  1  0
  4  5  1  0
  5  6  1  0
  6  7  1  0
  7  8  1  0
  8  9  1  0
  9 10  1  0
 10 11  1  0
 11 12  1  0
 12 13  1  0
 13 14  2  0
 14 15  1  0
 15 16  2  0
 16 17  1  0
 17 18  2  0
 11 19  1  0
 19 20  1  0
  6 21  2  0
 21 22  1  0
 22 23  2  0
 23 24  1  0
 24 25  2  0
 25 26  1  0
 26 27  2  0
 27 28  1  0
 28 29  2  0
 28  5  1  0
 20  8  1  0
 27 22  1  0
 18 13  1  0
  1 30  1  0
  1 31  1  0
  1 32  1  0
  2 33  1  0
  2 34  1  0
  3 35  1  0
  3 36  1  0
  4 37  1  0
  4 38  1  0
  7 39  1  0
  7 40  1  0
  9 41  1  0
  9 42  1  0
 10 43  1  0
 10 44  1  0
 12 45  1  0
 12 46  1  0
 14 47  1  0
 15 48  1  0
 16 49  1  0
 17 50  1  0
 18 51  1  0
 19 52  1  0
 19 53  1  0
 20 54  1  0
 20 55  1  0
 21 56  1  0
 23 57  1  0
 24 58  1  0
 25 59  1  0
 26 60  1  0
M  CHG  1  21   1
M  END
>  <UniqueID>  (13) 
12

>  <SMILES>  (13) 
CCCCn1c(CN2CCN(Cc3ccccc3)CC2)[nH+]c2ccccc2c1=O

>  <Energy>  (13) 
79.32747644906466

>  <Genealogy>  (13) 
CCCCn1c(CN2CCN(Cc3ccccc3)CC2)[nH+]c2ccccc2c1=O (protonated)
CCCCn1c(CN2CCN(Cc3ccccc3)CC2)[nH+]c2ccccc2c1=O (3D coordinates assigned)
CCCCn1c(CN2CCN(Cc3ccccc3)CC2)[nH+]c2ccccc2c1=O (nonaromatic ring conformer: 79.32747644906466 kcal/mol)

>  <smiles>  (13) 
CCCCn1c(CN2CCN(Cc3ccccc3)CC2)nc2ccccc2c1=O

>  <score_type>  (13) 
oracle

>  <origin>  (13) 
adg

>  <m_score__min__energy>  (13) 
-6.9699999999999998

>  <m_primary>  (13) 
energy

$$$$
13:0
     RDKit          3D

 41 43  0  0  0  0  0  0  0  0999 V2000
   65.2230   32.0060   50.1040 C   0  0  0  0  0  0  0  0  0  0  0  0
   64.7590   33.4450   49.9040 C   0  0  0  0  0  0  0  0  0  0  0  0
   63.5800   33.4870   49.0240 N   0  0  0  0  0  0  0  0  0  0  0  0
   63.7410   33.2360   47.6890 C   0  0  0  0  0  0  0  0  0  0  0  0
   62.6470   33.2420   46.8220 C   0  0  0  0  0  0  0  0  0  0  0  0
   61.3620   33.4960   47.3190 C   0  0  0  0  0  0  0  0  0  0  0  0
   60.1860   33.5050   46.4130 C   0  0  0  0  0  0  0  0  0  0  0  0
   59.6480   34.7160   45.9510 C   0  0  0  0  0  0  0  0  0  0  0  0
   58.5360   34.7020   45.1090 C   0  0  0  0  0  0  0  0  0  0  0  0
   57.9730   33.5230   44.7310 N   0  0  0  0  0  0  0  0  0  0  0  0
   58.4740   32.3240   45.1500 C   0  0  0  0  0  0  0  0  0  0  0  0
   57.8490   31.0930   44.7420 N   0  0  0  0  0  0  0  0  0  0  0  0
   56.9140   31.0910   43.6120 C   0  0  0  0  0  0  0  0  0  0  0  0
   56.1510   29.7660   43.5570 C   0  0  0  0  0  0  0  0  0  0  0  0
   55.8550   29.3410   44.8700 O   0  0  0  0  0  0  0  0  0  0  0  0
   57.0320   28.8710   45.5080 C   0  0  0  0  0  0  0  0  0  0  0  0
   58.2460   29.8160   45.3500 C   0  0  0  0  0  0  0  0  0  0  0  0
   59.5850   32.3020   46.0070 C   0  0  0  0  0  0  0  0  0  0  0  0
   61.2100   33.7350   48.6920 C   0  0  0  0  0  0  0  0  0  0  0  0
   62.3270   33.7230   49.5350 C   0  0  0  0  0  0  0  0  0  0  0  0
   62.1640   33.9320   50.7680 O   0  0  0  0  0  0  0  0  0  0  0  0
   65.2928   31.7895   51.1802 H   0  0  0  0  0  0  0  0  0  0  0  0
   64.5006   31.3197   49.6380 H   0  0  0  0  0  0  0  0  0  0  0  0
   66.2102   31.8709   49.6380 H   0  0  0  0  0  0  0  0  0  0  0  0
   64.4984   33.8806   50.8799 H   0  0  0  0  0  0  0  0  0  0  0  0
   65.5725   34.0204   49.4379 H   0  0  0  0  0  0  0  0  0  0  0  0
   64.7458   33.0267   47.2934 H   0  0  0  0  0  0  0  0  0  0  0  0
   62.7937   33.0474   45.7493 H   0  0  0  0  0  0  0  0  0  0  0  0
   60.1013   35.6721   46.2516 H   0  0  0  0  0  0  0  0  0  0  0  0
   58.1117   35.6506   44.7484 H   0  0  0  0  0  0  0  0  0  0  0  0
   57.1500   33.5520   44.0890 H   0  0  0  0  0  0  0  0  0  0  0  0
   56.1980   31.9174   43.7319 H   0  0  0  0  0  0  0  0  0  0  0  0
   57.4811   31.2166   42.6779 H   0  0  0  0  0  0  0  0  0  0  0  0
   55.2149   29.9045   42.9962 H   0  0  0  0  0  0  0  0  0  0  0  0
   56.7688   29.0066   43.0553 H   0  0  0  0  0  0  0  0  0  0  0  0
   56.8215   28.7529   46.5812 H   0  0  0  0  0  0  0  0  0  0  0  0
   57.3008   27.9199   45.0252 H   0  0  0  0  0  0  0  0  0  0  0  0
   58.6809   30.0104   46.3415 H   0  0  0  0  0  0  0  0  0  0  0  0
   58.9821   29.3307   44.6922 H   0  0  0  0  0  0  0  0  0  0  0  0
   59.9860   31.3410   46.3615 H   0  0  0  0  0  0  0  0  0  0  0  0
   60.2108   33.9324   49.1075 H   0  0  0  0  0  0  0  0  0  0  0  0
  1  2  1  0
  2  3  1  0
  3  4  1  0
  4  5  2  0
  5  6  1  0
  6  7  1  0
  7  8  2  0
  8  9  1  0
  9 10  2  0
 10 11  1  0
 11 12  1  0
 12 13  1  0
 13 14  1  0
 14 15  1  0
 15 16  1  0
 16 17  1  0
 11 18  2  0
  6 19  2  0
 19 20  1  0
 20 21  2  0
 20  3  1  0
 18  7  1  0
 17 12  1  0
  1 22  1  0
  1 23  1  0
  1 24  1  0
  2 25  1  0
  2 26  1  0
  4 27  1  0
  5 28  1  0
  8 29  1  0
  9 30  1  0
 10 31  1  0
 13 32  1  0
 13 33  1  0
 14 34  1  0
 14 35  1  0
 16 36  1  0
 16 37  1  0
 17 38  1  0
 17 39  1  0
 18 40  1  0
 19 41  1  0
M  CHG  1  10   1
M  END
>  <UniqueID>  (14) 
13

>  <SMILES>  (14) 
CCn1ccc(-c2cc[nH+]c(N3CCOCC3)c2)cc1=O

>  <Energy>  (14) 
57.407087958113955

>  <Genealogy>  (14) 
CCn1ccc(-c2cc[nH+]c(N3CCOCC3)c2)cc1=O (protonated)
CCn1ccc(-c2cc[nH+]c(N3CCOCC3)c2)cc1=O (3D coordinates assigned)
CCn1ccc(-c2cc[nH+]c(N3CCOCC3)c2)cc1=O (nonaromatic ring conformer: 57.407087958113955 kcal/mol)

>  <smiles>  (14) 
CCn1ccc(-c2ccnc(N3CCOCC3)c2)cc1=O

>  <score_type>  (14) 
oracle

>  <origin>  (14) 
adg

>  <m_score__min__energy>  (14) 
-5.8200000000000003

>  <m_primary>  (14) 
energy

$$$$
14:0
     RDKit          3D

 42 43  0  0  0  0  0  0  0  0999 V2000
   61.0120   34.2210   47.7960 C   0  0  0  0  0  0  0  0  0  0  0  0
   59.5450   34.4550   48.1460 C   0  0  0  0  0  0  0  0  0  0  0  0
   58.9070   35.3020   47.1280 N   0  0  0  0  0  0  0  0  0  0  0  0
   59.6670   35.3010   45.8700 C   0  0  0  0  0  0  0  0  0  0  0  0
   59.2810   34.0840   45.0260 C   0  0  0  0  0  0  0  0  0  0  0  0
   58.1000   33.4150   45.5770 N   0  0  0  0  0  0  0  0  0  0  0  0
   57.8560   31.9970   45.4990 C   0  0  0  0  0  0  0  0  0  0  0  0
   58.3810   31.1000   46.4450 C   0  0  0  0  0  0  0  0  0  0  0  0
   58.1160   29.7300   46.3490 C   0  0  0  0  0  0  0  0  0  0  0  0
   57.3200   29.2290   45.3030 C   0  0  0  0  0  0  0  0  0  0  0  0
   57.0260   27.7810   45.1800 C   0  0  0  0  0  0  0  0  0  0  0  0
   55.9390   27.3390   45.6420 O   0  0  0  0  0  0  0  0  0  0  0  0
   57.9540   26.8830   44.5400 N   0  0  0  0  0  0  0  0  0  0  0  0
   57.7760   25.4570   44.4820 C   0  0  0  0  0  0  0  0  0  0  0  0
   57.0560   24.8470   43.4380 C   0  0  0  0  0  0  0  0  0  0  0  0
   56.8750   23.4610   43.4220 C   0  0  0  0  0  0  0  0  0  0  0  0
   57.3960   22.6730   44.4520 C   0  0  0  0  0  0  0  0  0  0  0  0
   58.0910   23.2730   45.5050 C   0  0  0  0  0  0  0  0  0  0  0  0
   58.2730   24.6590   45.5260 C   0  0  0  0  0  0  0  0  0  0  0  0
   56.8210   30.1250   44.3430 C   0  0  0  0  0  0  0  0  0  0  0  0
   57.0860   31.4930   44.4410 C   0  0  0  0  0  0  0  0  0  0  0  0
   61.5993   34.1273   48.7214 H   0  0  0  0  0  0  0  0  0  0  0  0
   61.1055   33.2966   47.2072 H   0  0  0  0  0  0  0  0  0  0  0  0
   61.3885   35.0704   47.2072 H   0  0  0  0  0  0  0  0  0  0  0  0
   59.0239   33.4873   48.1916 H   0  0  0  0  0  0  0  0  0  0  0  0
   59.4858   34.9609   49.1210 H   0  0  0  0  0  0  0  0  0  0  0  0
   58.8900   36.2860   47.4870 H   0  0  0  0  0  0  0  0  0  0  0  0
   59.4428   36.2198   45.3082 H   0  0  0  0  0  0  0  0  0  0  0  0
   60.7422   35.2560   46.0978 H   0  0  0  0  0  0  0  0  0  0  0  0
   59.0616   34.4133   43.9996 H   0  0  0  0  0  0  0  0  0  0  0  0
   60.1206   33.3733   45.0321 H   0  0  0  0  0  0  0  0  0  0  0  0
   57.4320   34.0030   46.1260 H   0  0  0  0  0  0  0  0  0  0  0  0
   59.0055   31.4785   47.2677 H   0  0  0  0  0  0  0  0  0  0  0  0
   58.5330   29.0394   47.0968 H   0  0  0  0  0  0  0  0  0  0  0  0
   58.7840   27.2740   44.0450 H   0  0  0  0  0  0  0  0  0  0  0  0
   56.6337   25.4637   42.6309 H   0  0  0  0  0  0  0  0  0  0  0  0
   56.3212   22.9894   42.5968 H   0  0  0  0  0  0  0  0  0  0  0  0
   57.2590   21.5817   44.4336 H   0  0  0  0  0  0  0  0  0  0  0  0
   58.4958   22.6538   46.3191 H   0  0  0  0  0  0  0  0  0  0  0  0
   58.8085   25.1275   46.3649 H   0  0  0  0  0  0  0  0  0  0  0  0
   56.2159   29.7458   43.5063 H   0  0  0  0  0  0  0  0  0  0  0  0
   56.6870   32.1812   43.6813 H   0  0  0  0  0  0  0  0  0  0  0  0
  1  2  1  0
  2  3  1  0
  3  4  1  0
  4  5  1  0
  5  6  1  0
  6  7  1  0
  7  8  2  0
  8  9  1  0
  9 10  2  0
 10 11  1  0
 11 12  2  0
 11 13  1  0
 13 14  1  0
 14 15  2  0
 15 16  1  0
 16 17  2  0
 17 18  1  0
 18 19  2  0
 10 20  1  0
 20 21  2  0
 21  7  1  0
 19 14  1  0
  1 22  1  0
  1 23  1  0
  1 24  1  0
  2 25  1  0
  2 26  1  0
  3 27  1  0
  4 28  1  0
  4 29  1  0
  5 30  1  0
  5 31  1  0
  6 32  1  0
  8 33  1  0
  9 34  1  0
 13 35  1  0
 15 36  1  0
 16 37  1  0
 17 38  1  0
 18 39  1  0
 19 40  1  0
 20 41  1  0
 21 42  1  0
M  END
>  <UniqueID>  (15) 
14

>  <SMILES>  (15) 
CCNCCNc1ccc(C(=O)Nc2ccccc2)cc1

>  <Energy>  (15) 
43.089897133676345

>  <Genealogy>  (15) 
CCNCCNc1ccc(C(=O)Nc2ccccc2)cc1 (3D coordinates assigned)
CCNCCNc1ccc(C(=O)Nc2ccccc2)cc1 (optimized conformer: 43.089897133676345 kcal/mol)

>  <smiles>  (15) 
CCNCCNc1ccc(C(=O)Nc2ccccc2)cc1

>  <score_type>  (15) 
oracle

>  <origin>  (15) 
adg

>  <m_score__min__energy>  (15) 
-6.7599999999999998

>  <m_primary>  (15) 
energy

$$$$
15:0
     RDKit          3D

 70 74  0  0  0  0  0  0  0  0999 V2000
   59.4990   33.4640   50.8240 C   0  0  0  0  0  0  0  0  0  0  0  0
   60.0780   32.4490   50.5320 C   0  0  0  0  0  0  0  0  0  0  0  0
   60.7920   31.2080   50.1750 C   0  0  0  0  0  0  0  0  0  0  0  0
   59.8510   30.1400   49.7600 N   0  0  2  0  0  0  0  0  0  0  0  0
   59.1660   29.6080   50.9560 C   0  0  0  0  0  0  0  0  0  0  0  0
   60.5590   29.0480   49.0290 C   0  0  0  0  0  0  0  0  0  0  0  0
   59.6420   27.8540   48.7140 C   0  0  0  0  0  0  0  0  0  0  0  0
   59.1100   27.9320   47.3530 N   0  0  0  0  0  0  0  0  0  0  0  0
   58.6060   29.1040   46.7150 C   0  0  0  0  0  0  0  0  0  0  0  0
   58.6580   30.2470   47.2480 O   0  0  0  0  0  0  0  0  0  0  0  0
   57.9800   28.8190   45.3670 C   0  0  0  0  0  0  0  0  0  0  0  0
   56.4810   29.2340   45.3470 C   0  0  0  0  0  0  0  0  0  0  0  0
   56.1290   30.1060   44.1300 C   0  0  0  0  0  0  0  0  0  0  0  0
   57.0300   31.2750   43.9790 N   0  0  0  0  0  0  0  0  0  0  0  0
   56.6410   32.4140   44.8410 C   0  0  0  0  0  0  0  0  0  0  0  0
   57.8370   33.0500   45.5030 C   0  0  0  0  0  0  0  0  0  0  0  0
   58.7640   33.7890   44.7510 C   0  0  0  0  0  0  0  0  0  0  0  0
   59.9100   34.3120   45.3570 C   0  0  0  0  0  0  0  0  0  0  0  0
   60.1620   34.0850   46.7140 C   0  0  0  0  0  0  0  0  0  0  0  0
   61.3490   34.5880   47.2680 O   0  0  0  0  0  0  0  0  0  0  0  0
   62.2820   33.8570   48.0200 C   0  0  0  0  0  0  0  0  0  0  0  0
   62.8230   32.6410   47.5620 C   0  0  0  0  0  0  0  0  0  0  0  0
   63.7480   31.9440   48.3450 C   0  0  0  0  0  0  0  0  0  0  0  0
   64.1220   32.4390   49.5960 C   0  0  0  0  0  0  0  0  0  0  0  0
   65.0170   31.7580   50.3540 F   0  0  0  0  0  0  0  0  0  0  0  0
   63.5670   33.6300   50.0690 C   0  0  0  0  0  0  0  0  0  0  0  0
   62.6470   34.3340   49.2870 C   0  0  0  0  0  0  0  0  0  0  0  0
   59.2580   33.3040   47.4590 C   0  0  0  0  0  0  0  0  0  0  0  0
   58.1030   32.7980   46.8570 C   0  0  0  0  0  0  0  0  0  0  0  0
   58.4810   30.9680   44.1080 C   0  0  0  0  0  0  0  0  0  0  0  0
   58.7950   29.4700   44.2260 C   0  0  0  0  0  0  0  0  0  0  0  0
   58.1540   27.3190   45.3330 C   0  0  0  0  0  0  0  0  0  0  0  0
   57.7620   26.4300   44.3260 C   0  0  0  0  0  0  0  0  0  0  0  0
   58.0520   25.0650   44.4830 C   0  0  0  0  0  0  0  0  0  0  0  0
   58.7310   24.6090   45.6270 C   0  0  0  0  0  0  0  0  0  0  0  0
   59.1160   25.5110   46.6320 C   0  0  0  0  0  0  0  0  0  0  0  0
   58.8080   26.8650   46.4640 C   0  0  0  0  0  0  0  0  0  0  0  0
   58.9702   34.3910   51.0907 H   0  0  0  0  0  0  0  0  0  0  0  0
   61.4821   31.4189   49.3447 H   0  0  0  0  0  0  0  0  0  0  0  0
   61.3414   30.8586   51.0616 H   0  0  0  0  0  0  0  0  0  0  0  0
   59.1160   30.5730   49.1510 H   0  0  0  0  0  0  0  0  0  0  0  0
   59.6591   29.9909   51.8617 H   0  0  0  0  0  0  0  0  0  0  0  0
   58.1135   29.9278   50.9484 H   0  0  0  0  0  0  0  0  0  0  0  0
   59.2154   28.5091   50.9484 H   0  0  0  0  0  0  0  0  0  0  0  0
   60.9480   29.4523   48.0829 H   0  0  0  0  0  0  0  0  0  0  0  0
   61.3685   28.6834   49.6785 H   0  0  0  0  0  0  0  0  0  0  0  0
   60.2181   26.9229   48.8200 H   0  0  0  0  0  0  0  0  0  0  0  0
   58.7963   27.8728   49.4172 H   0  0  0  0  0  0  0  0  0  0  0  0
   55.8632   28.3243   45.3200 H   0  0  0  0  0  0  0  0  0  0  0  0
   56.2858   29.8278   46.2521 H   0  0  0  0  0  0  0  0  0  0  0  0
   56.2003   29.4881   43.2228 H   0  0  0  0  0  0  0  0  0  0  0  0
   55.1101   30.4914   44.2829 H   0  0  0  0  0  0  0  0  0  0  0  0
   56.1319   33.1694   44.2244 H   0  0  0  0  0  0  0  0  0  0  0  0
   55.9758   32.0336   45.6302 H   0  0  0  0  0  0  0  0  0  0  0  0
   58.5875   33.9575   43.6784 H   0  0  0  0  0  0  0  0  0  0  0  0
   60.6190   34.9066   44.7622 H   0  0  0  0  0  0  0  0  0  0  0  0
   62.5171   32.2380   46.5853 H   0  0  0  0  0  0  0  0  0  0  0  0
   64.1822   31.0036   47.9748 H   0  0  0  0  0  0  0  0  0  0  0  0
   63.8544   34.0147   51.0587 H   0  0  0  0  0  0  0  0  0  0  0  0
   62.2068   35.2675   49.6676 H   0  0  0  0  0  0  0  0  0  0  0  0
   59.4617   33.0914   48.5189 H   0  0  0  0  0  0  0  0  0  0  0  0
   57.3970   32.1975   47.4494 H   0  0  0  0  0  0  0  0  0  0  0  0
   58.9978   31.3607   43.2199 H   0  0  0  0  0  0  0  0  0  0  0  0
   58.8239   31.4391   45.0410 H   0  0  0  0  0  0  0  0  0  0  0  0
   58.5435   28.9743   43.2768 H   0  0  0  0  0  0  0  0  0  0  0  0
   59.8655   29.3540   44.4509 H   0  0  0  0  0  0  0  0  0  0  0  0
   57.2375   26.7929   43.4298 H   0  0  0  0  0  0  0  0  0  0  0  0
   57.7463   24.3482   43.7066 H   0  0  0  0  0  0  0  0  0  0  0  0
   58.9620   23.5390   45.7352 H   0  0  0  0  0  0  0  0  0  0  0  0
   59.6470   25.1612   47.5296 H   0  0  0  0  0  0  0  0  0  0  0  0
  1  2  3  0
  2  3  1  0
  3  4  1  0
  4  5  1  0
  4  6  1  0
  6  7  1  0
  7  8  1  0
  8  9  1  0
  9 10  2  0
  9 11  1  0
 11 12  1  0
 12 13  1  0
 13 14  1  0
 14 15  1  0
 15 16  1  0
 16 17  2  0
 17 18  1  0
 18 19  2  0
 19 20  1  0
 20 21  1  0
 21 22  2  0
 22 23  1  0
 23 24  2  0
 24 25  1  0
 24 26  1  0
 26 27  2  0
 19 28  1  0
 28 29  2  0
 14 30  1  0
 30 31  1  0
 11 32  1  0
 32 33  2  0
 33 34  1  0
 34 35  2  0
 35 36  1  0
 36 37  2  0
 37  8  1  0
 31 11  1  0
 37 32  1  0
 29 16  1  0
 27 21  1  0
  1 38  1  0
  3 39  1  0
  3 40  1  0
  4 41  1  6
  5 42  1  0
  5 43  1  0
  5 44  1  0
  6 45  1  0
  6 46  1  0
  7 47  1  0
  7 48  1  0
 12 49  1  0
 12 50  1  0
 13 51  1  0
 13 52  1  0
 15 53  1  0
 15 54  1  0
 17 55  1  0
 18 56  1  0
 22 57  1  0
 23 58  1  0
 26 59  1  0
 27 60  1  0
 28 61  1  0
 29 62  1  0
 30 63  1  0
 30 64  1  0
 31 65  1  0
 31 66  1  0
 33 67  1  0
 34 68  1  0
 35 69  1  0
 36 70  1  0
M  CHG  1   4   1
M  END
>  <UniqueID>  (16) 
15

>  <SMILES>  (16) 
C#CC[N@H+](C)CCN1C(=O)C2(CCN(Cc3ccc(Oc4ccc(F)cc4)cc3)CC2)c2ccccc21

>  <Energy>  (16) 
113.30303277873391

>  <Genealogy>  (16) 
C#CC[NH+](C)CCN1C(=O)C2(CCN(Cc3ccc(Oc4ccc(F)cc4)cc3)CC2)c2ccccc21 (protonated)
C#CC[N@H+](C)CCN1C(=O)C2(CCN(Cc3ccc(Oc4ccc(F)cc4)cc3)CC2)c2ccccc21 (chirality)
C#CC[N@H+](C)CCN1C(=O)C2(CCN(Cc3ccc(Oc4ccc(F)cc4)cc3)CC2)c2ccccc21 (3D coordinates assigned)
C#CC[N@H+](C)CCN1C(=O)C2(CCN(Cc3ccc(Oc4ccc(F)cc4)cc3)CC2)c2ccccc21 (nonaromatic ring conformer: 113.30303277873391 kcal/mol)

>  <smiles>  (16) 
C#CCN(C)CCN1C(=O)C2(CCN(Cc3ccc(Oc4ccc(F)cc4)cc3)CC2)c2ccccc21

>  <score_type>  (16) 
oracle

>  <origin>  (16) 
adg

>  <m_score__min__energy>  (16) 
-8.0099999999999998

>  <m_primary>  (16) 
energy

$$$$
16:0
     RDKit          3D

 44 45  0  0  0  0  0  0  0  0999 V2000
   58.1310   32.5790   43.2740 C   0  0  0  0  0  0  0  0  0  0  0  0
   57.4460   32.7590   44.6250 C   0  0  0  0  0  0  0  0  0  0  0  0
   57.2250   31.4960   45.2530 O   0  0  0  0  0  0  0  0  0  0  0  0
   57.8060   30.2750   44.8670 C   0  0  0  0  0  0  0  0  0  0  0  0
   57.1460   29.3570   44.0240 C   0  0  0  0  0  0  0  0  0  0  0  0
   57.7610   28.1560   43.6730 C   0  0  0  0  0  0  0  0  0  0  0  0
   59.0350   27.8560   44.1490 C   0  0  0  0  0  0  0  0  0  0  0  0
   59.6990   28.7540   44.9860 C   0  0  0  0  0  0  0  0  0  0  0  0
   59.0850   29.9660   45.3620 C   0  0  0  0  0  0  0  0  0  0  0  0
   59.7040   30.9020   46.2090 O   0  0  0  0  0  0  0  0  0  0  0  0
   60.1720   30.6690   47.5400 C   0  0  0  0  0  0  0  0  0  0  0  0
   59.0400   30.8390   48.5630 C   0  0  0  0  0  0  0  0  0  0  0  0
   58.6420   32.3010   48.8150 C   0  0  0  0  0  0  0  0  0  0  0  0
   58.2570   32.9810   47.5700 N   0  0  0  0  0  0  0  0  0  0  0  0
   58.9730   34.2500   47.3960 C   0  0  0  0  0  0  0  0  0  0  0  0
   60.4450   34.0220   47.5920 C   0  0  0  0  0  0  0  0  0  0  0  0
   61.0260   34.2280   48.8540 C   0  0  0  0  0  0  0  0  0  0  0  0
   62.4020   34.0570   49.0330 C   0  0  0  0  0  0  0  0  0  0  0  0
   63.2070   33.6890   47.9510 C   0  0  0  0  0  0  0  0  0  0  0  0
   62.6390   33.4970   46.6880 C   0  0  0  0  0  0  0  0  0  0  0  0
   61.2630   33.6690   46.5060 C   0  0  0  0  0  0  0  0  0  0  0  0
   59.1840   32.3023   43.4308 H   0  0  0  0  0  0  0  0  0  0  0  0
   57.6232   31.7838   42.7085 H   0  0  0  0  0  0  0  0  0  0  0  0
   58.0797   33.5211   42.7085 H   0  0  0  0  0  0  0  0  0  0  0  0
   58.0840   33.3775   45.2734 H   0  0  0  0  0  0  0  0  0  0  0  0
   56.4740   33.2486   44.4653 H   0  0  0  0  0  0  0  0  0  0  0  0
   56.1412   29.5897   43.6416 H   0  0  0  0  0  0  0  0  0  0  0  0
   57.2384   27.4432   43.0181 H   0  0  0  0  0  0  0  0  0  0  0  0
   59.5187   26.9098   43.8648 H   0  0  0  0  0  0  0  0  0  0  0  0
   60.7074   28.5146   45.3545 H   0  0  0  0  0  0  0  0  0  0  0  0
   60.5662   29.6443   47.6077 H   0  0  0  0  0  0  0  0  0  0  0  0
   60.9597   31.4027   47.7662 H   0  0  0  0  0  0  0  0  0  0  0  0
   58.1560   30.2982   48.1941 H   0  0  0  0  0  0  0  0  0  0  0  0
   59.4113   30.4403   49.5186 H   0  0  0  0  0  0  0  0  0  0  0  0
   57.7911   32.3240   49.5118 H   0  0  0  0  0  0  0  0  0  0  0  0
   59.5115   32.8255   49.2379 H   0  0  0  0  0  0  0  0  0  0  0  0
   58.5230   32.3570   46.7710 H   0  0  0  0  0  0  0  0  0  0  0  0
   58.7932   34.6371   46.3822 H   0  0  0  0  0  0  0  0  0  0  0  0
   58.6122   34.9804   48.1351 H   0  0  0  0  0  0  0  0  0  0  0  0
   60.3957   34.5251   49.7052 H   0  0  0  0  0  0  0  0  0  0  0  0
   62.8511   34.2120   50.0251 H   0  0  0  0  0  0  0  0  0  0  0  0
   64.2889   33.5503   48.0935 H   0  0  0  0  0  0  0  0  0  0  0  0
   63.2746   33.2106   45.8371 H   0  0  0  0  0  0  0  0  0  0  0  0
   60.8199   33.5274   45.5092 H   0  0  0  0  0  0  0  0  0  0  0  0
  1  2  1  0
  2  3  1  0
  3  4  1  0
  4  5  2  0
  5  6  1  0
  6  7  2  0
  7  8  1  0
  8  9  2  0
  9 10  1  0
 10 11  1  0
 11 12  1  0
 12 13  1  0
 13 14  1  0
 14 15  1  0
 15 16  1  0
 16 17  2  0
 17 18  1  0
 18 19  2  0
 19 20  1  0
 20 21  2  0
  9  4  1  0
 21 16  1  0
  1 22  1  0
  1 23  1  0
  1 24  1  0
  2 25  1  0
  2 26  1  0
  5 27  1  0
  6 28  1  0
  7 29  1  0
  8 30  1  0
 11 31  1  0
 11 32  1  0
 12 33  1  0
 12 34  1  0
 13 35  1  0
 13 36  1  0
 14 37  1  0
 15 38  1  0
 15 39  1  0
 17 40  1  0
 18 41  1  0
 19 42  1  0
 20 43  1  0
 21 44  1  0
M  END
>  <UniqueID>  (17) 
16

>  <SMILES>  (17) 
CCOc1ccccc1OCCCNCc1ccccc1

>  <Energy>  (17) 
39.57407184512802

>  <Genealogy>  (17) 
CCOc1ccccc1OCCCNCc1ccccc1 (3D coordinates assigned)
CCOc1ccccc1OCCCNCc1ccccc1 (optimized conformer: 39.57407184512802 kcal/mol)

>  <smiles>  (17) 
CCOc1ccccc1OCCCNCc1ccccc1

>  <score_type>  (17) 
oracle

>  <origin>  (17) 
adg

>  <m_score__min__energy>  (17) 
-7.25

>  <m_primary>  (17) 
energy

$$$$
17:0
     RDKit          3D

 31 33  0  0  0  0  0  0  0  0999 V2000
   60.8150   30.5360   46.7260 C   0  0  0  0  0  0  0  0  0  0  0  0
   59.4410   30.2530   46.2560 N   0  0  0  0  0  0  0  0  0  0  0  0
   58.6260   31.2870   45.8390 C   0  0  0  0  0  0  0  0  0  0  0  0
   58.9920   32.7130   46.0240 C   0  0  0  0  0  0  0  0  0  0  0  0
   59.3650   33.1890   47.2920 C   0  0  0  0  0  0  0  0  0  0  0  0
   59.6940   34.5360   47.4700 C   0  0  0  0  0  0  0  0  0  0  0  0
   59.6460   35.4180   46.3860 C   0  0  0  0  0  0  0  0  0  0  0  0
   59.2660   34.9530   45.1230 C   0  0  0  0  0  0  0  0  0  0  0  0
   58.9360   33.6060   44.9420 C   0  0  0  0  0  0  0  0  0  0  0  0
   57.3850   31.0170   45.2520 C   0  0  0  0  0  0  0  0  0  0  0  0
   56.9360   29.7100   45.1300 C   0  0  0  0  0  0  0  0  0  0  0  0
   55.8160   29.4920   44.5900 O   0  0  0  0  0  0  0  0  0  0  0  0
   57.7180   28.6570   45.6230 C   0  0  0  0  0  0  0  0  0  0  0  0
   57.2630   27.3260   45.5500 C   0  0  0  0  0  0  0  0  0  0  0  0
   58.0300   26.2850   46.0700 C   0  0  0  0  0  0  0  0  0  0  0  0
   57.4480   24.6330   45.9780 Cl  0  0  0  0  0  0  0  0  0  0  0  0
   59.2550   26.5590   46.6760 C   0  0  0  0  0  0  0  0  0  0  0  0
   59.7260   27.8690   46.7520 C   0  0  0  0  0  0  0  0  0  0  0  0
   58.9800   28.9470   46.2140 C   0  0  0  0  0  0  0  0  0  0  0  0
   60.8328   30.5397   47.8259 H   0  0  0  0  0  0  0  0  0  0  0  0
   61.4981   29.7597   46.3508 H   0  0  0  0  0  0  0  0  0  0  0  0
   61.1357   31.5190   46.3508 H   0  0  0  0  0  0  0  0  0  0  0  0
   59.3983   32.4991   48.1481 H   0  0  0  0  0  0  0  0  0  0  0  0
   59.9909   34.9024   48.4638 H   0  0  0  0  0  0  0  0  0  0  0  0
   59.9071   36.4773   46.5266 H   0  0  0  0  0  0  0  0  0  0  0  0
   59.2266   35.6475   44.2709 H   0  0  0  0  0  0  0  0  0  0  0  0
   58.6315   33.2450   43.9485 H   0  0  0  0  0  0  0  0  0  0  0  0
   56.7617   31.8458   44.8851 H   0  0  0  0  0  0  0  0  0  0  0  0
   56.2938   27.1062   45.0784 H   0  0  0  0  0  0  0  0  0  0  0  0
   59.8533   25.7373   47.0965 H   0  0  0  0  0  0  0  0  0  0  0  0
   60.6926   28.0691   47.2375 H   0  0  0  0  0  0  0  0  0  0  0  0
  1  2  1  0
  2  3  1  0
  3  4  1  0
  4  5  2  0
  5  6  1  0
  6  7  2  0
  7  8  1  0
  8  9  2  0
  3 10  2  0
 10 11  1  0
 11 12  2  0
 11 13  1  0
 13 14  2  0
 14 15  1  0
 15 16  1  0
 15 17  2  0
 17 18  1  0
 18 19  2  0
 19  2  1  0
  9  4  1  0
 19 13  1  0
  1 20  1  0
  1 21  1  0
  1 22  1  0
  5 23  1  0
  6 24  1  0
  7 25  1  0
  8 26  1  0
  9 27  1  0
 10 28  1  0
 14 29  1  0
 17 30  1  0
 18 31  1  0
M  END
>  <UniqueID>  (18) 
17

>  <SMILES>  (18) 
Cn1c(-c2ccccc2)cc(=O)c2cc(Cl)ccc21

>  <Energy>  (18) 
53.31783101899762

>  <Genealogy>  (18) 
Cn1c(-c2ccccc2)cc(=O)c2cc(Cl)ccc21 (3D coordinates assigned)
Cn1c(-c2ccccc2)cc(=O)c2cc(Cl)ccc21 (optimized conformer: 53.31783101899762 kcal/mol)

>  <smiles>  (18) 
Cn1c(-c2ccccc2)cc(=O)c2cc(Cl)ccc21

>  <score_type>  (18) 
oracle

>  <origin>  (18) 
adg

>  <m_score__min__energy>  (18) 
-7.2300000000000004

>  <m_primary>  (18) 
energy

$$$$
18:0
     RDKit          3D

 63 65  0  0  0  0  0  0  0  0999 V2000
   59.4810   30.8130   47.9210 C   0  0  0  0  0  0  0  0  0  0  0  0
   59.0470   29.8890   46.7890 C   0  0  0  0  0  0  0  0  0  0  0  0
   57.7550   30.2560   46.3060 O   0  0  0  0  0  0  0  0  0  0  0  0
   57.4010   30.4320   44.9560 C   0  0  0  0  0  0  0  0  0  0  0  0
   56.5820   29.5120   44.2670 C   0  0  0  0  0  0  0  0  0  0  0  0
   56.2560   29.7230   42.9260 C   0  0  0  0  0  0  0  0  0  0  0  0
   56.7400   30.8480   42.2550 C   0  0  0  0  0  0  0  0  0  0  0  0
   57.5490   31.7680   42.9240 C   0  0  0  0  0  0  0  0  0  0  0  0
   57.8800   31.5720   44.2750 C   0  0  0  0  0  0  0  0  0  0  0  0
   58.7730   32.5630   44.9800 C   0  0  0  0  0  0  0  0  0  0  0  0
   58.3380   33.9460   44.6990 N   0  0  0  0  0  0  0  0  0  0  0  0
   56.9700   34.1980   45.1850 C   0  0  0  0  0  0  0  0  0  0  0  0
   59.3030   34.9550   45.1970 C   0  0  0  0  0  0  0  0  0  0  0  0
   60.0280   34.5330   46.4600 C   0  0  0  0  0  0  0  0  0  0  0  0
   59.4070   34.6550   47.7070 C   0  0  0  0  0  0  0  0  0  0  0  0
   60.0600   34.2420   48.8700 C   0  0  0  0  0  0  0  0  0  0  0  0
   61.3620   33.7020   48.8140 C   0  0  0  0  0  0  0  0  0  0  0  0
   62.0030   33.6110   47.5540 C   0  0  0  0  0  0  0  0  0  0  0  0
   61.3290   34.0140   46.3910 C   0  0  0  0  0  0  0  0  0  0  0  0
   63.3790   33.0090   47.4240 C   0  0  0  0  0  0  0  0  0  0  0  0
   64.1580   33.0900   48.7360 C   0  0  0  0  0  0  0  0  0  0  0  0
   63.3210   32.5170   49.8750 C   0  0  0  0  0  0  0  0  0  0  0  0
   62.0620   33.2640   50.0120 N   0  0  0  0  0  0  0  0  0  0  0  0
   61.5250   33.4790   51.3670 C   0  0  0  0  0  0  0  0  0  0  0  0
   60.4180   32.4620   51.6780 C   0  0  0  0  0  0  0  0  0  0  0  0
   59.0840   33.0370   51.3940 N   0  0  0  0  0  0  0  0  0  0  0  0
   58.0990   31.9770   51.1050 C   0  0  0  0  0  0  0  0  0  0  0  0
   58.6230   33.8350   52.5410 C   0  0  0  0  0  0  0  0  0  0  0  0
   59.2580   30.3382   48.8878 H   0  0  0  0  0  0  0  0  0  0  0  0
   60.5620   31.0020   47.8460 H   0  0  0  0  0  0  0  0  0  0  0  0
   58.9362   31.7656   47.8460 H   0  0  0  0  0  0  0  0  0  0  0  0
   59.7737   29.9598   45.9663 H   0  0  0  0  0  0  0  0  0  0  0  0
   59.0024   28.8584   47.1709 H   0  0  0  0  0  0  0  0  0  0  0  0
   56.1983   28.6234   44.7897 H   0  0  0  0  0  0  0  0  0  0  0  0
   55.6164   29.0014   42.3967 H   0  0  0  0  0  0  0  0  0  0  0  0
   56.4833   31.0094   41.1976 H   0  0  0  0  0  0  0  0  0  0  0  0
   57.9294   32.6514   42.3903 H   0  0  0  0  0  0  0  0  0  0  0  0
   58.7277   32.3830   46.0642 H   0  0  0  0  0  0  0  0  0  0  0  0
   59.8029   32.4342   44.6157 H   0  0  0  0  0  0  0  0  0  0  0  0
   56.9660   34.1987   46.2850 H   0  0  0  0  0  0  0  0  0  0  0  0
   56.6241   35.1750   44.8164 H   0  0  0  0  0  0  0  0  0  0  0  0
   56.2987   33.4084   44.8164 H   0  0  0  0  0  0  0  0  0  0  0  0
   60.0511   35.1375   44.4115 H   0  0  0  0  0  0  0  0  0  0  0  0
   58.7254   35.8580   45.4441 H   0  0  0  0  0  0  0  0  0  0  0  0
   58.3946   35.0803   47.7723 H   0  0  0  0  0  0  0  0  0  0  0  0
   59.5531   34.3389   49.8414 H   0  0  0  0  0  0  0  0  0  0  0  0
   61.8267   33.9218   45.4144 H   0  0  0  0  0  0  0  0  0  0  0  0
   63.2799   31.9528   47.1330 H   0  0  0  0  0  0  0  0  0  0  0  0
   63.9314   33.5780   46.6617 H   0  0  0  0  0  0  0  0  0  0  0  0
   65.0899   32.5131   48.6427 H   0  0  0  0  0  0  0  0  0  0  0  0
   64.3915   34.1428   48.9533 H   0  0  0  0  0  0  0  0  0  0  0  0
   63.0950   31.4615   49.6632 H   0  0  0  0  0  0  0  0  0  0  0  0
   63.8896   32.6010   50.8129 H   0  0  0  0  0  0  0  0  0  0  0  0
   62.3372   33.3645   52.1000 H   0  0  0  0  0  0  0  0  0  0  0  0
   61.1011   34.4925   51.4234 H   0  0  0  0  0  0  0  0  0  0  0  0
   60.5651   31.5667   51.0560 H   0  0  0  0  0  0  0  0  0  0  0  0
   60.4696   32.1985   52.7447 H   0  0  0  0  0  0  0  0  0  0  0  0
   57.7160   31.5648   52.0502 H   0  0  0  0  0  0  0  0  0  0  0  0
   57.2654   32.3994   50.5247 H   0  0  0  0  0  0  0  0  0  0  0  0
   58.5813   31.1766   50.5247 H   0  0  0  0  0  0  0  0  0  0  0  0
   58.9125   33.3338   53.4764 H   0  0  0  0  0  0  0  0  0  0  0  0
   59.0836   34.8332   52.5020 H   0  0  0  0  0  0  0  0  0  0  0  0
   57.5282   33.9346   52.5020 H   0  0  0  0  0  0  0  0  0  0  0  0
  1  2  1  0
  2  3  1  0
  3  4  1  0
  4  5  2  0
  5  6  1  0
  6  7  2  0
  7  8  1  0
  8  9  2  0
  9 10  1  0
 10 11  1  0
 11 12  1  0
 11 13  1  0
 13 14  1  0
 14 15  2  0
 15 16  1  0
 16 17  2  0
 17 18  1  0
 18 19  2  0
 18 20  1  0
 20 21  1  0
 21 22  1  0
 22 23  1  0
 23 24  1  0
 24 25  1  0
 25 26  1  0
 26 27  1  0
 26 28  1  0
  9  4  1  0
 19 14  1  0
 23 17  1  0
  1 29  1  0
  1 30  1  0
  1 31  1  0
  2 32  1  0
  2 33  1  0
  5 34  1  0
  6 35  1  0
  7 36  1  0
  8 37  1  0
 10 38  1  0
 10 39  1  0
 12 40  1  0
 12 41  1  0
 12 42  1  0
 13 43  1  0
 13 44  1  0
 15 45  1  0
 16 46  1  0
 19 47  1  0
 20 48  1  0
 20 49  1  0
 21 50  1  0
 21 51  1  0
 22 52  1  0
 22 53  1  0
 24 54  1  0
 24 55  1  0
 25 56  1  0
 25 57  1  0
 27 58  1  0
 27 59  1  0
 27 60  1  0
 28 61  1  0
 28 62  1  0
 28 63  1  0
M  END
>  <UniqueID>  (19) 
18

>  <SMILES>  (19) 
CCOc1ccccc1CN(C)Cc1ccc2c(c1)CCCN2CCN(C)C

>  <Energy>  (19) 
63.244360258821615

>  <Genealogy>  (19) 
CCOc1ccccc1CN(C)Cc1ccc2c(c1)CCCN2CCN(C)C (3D coordinates assigned)
CCOc1ccccc1CN(C)Cc1ccc2c(c1)CCCN2CCN(C)C (nonaromatic ring conformer: 63.244360258821615 kcal/mol)

>  <smiles>  (19) 
CCOc1ccccc1CN(C)Cc1ccc2c(c1)CCCN2CCN(C)C

>  <score_type>  (19) 
oracle

>  <origin>  (19) 
adg

>  <m_score__min__energy>  (19) 
-7.9900000000000002

>  <m_primary>  (19) 
energy

$$$$
19:0
     RDKit          3D

 47 48  0  0  0  0  0  0  0  0999 V2000
   58.6090   34.5800   45.2530 C   0  0  0  0  0  0  0  0  0  0  0  0
   57.2910   33.9090   45.6040 C   0  0  0  0  0  0  0  0  0  0  0  0
   57.4860   32.5020   45.6990 O   0  0  0  0  0  0  0  0  0  0  0  0
   57.8920   31.7200   44.6140 C   0  0  0  0  0  0  0  0  0  0  0  0
   58.2410   32.2710   43.5350 O   0  0  0  0  0  0  0  0  0  0  0  0
   57.8920   30.2450   44.7310 C   0  0  0  0  0  0  0  0  0  0  0  0
   57.0720   29.3620   44.0350 C   0  0  0  0  0  0  0  0  0  0  0  0
   55.9960   29.7230   43.0590 C   0  0  0  0  0  0  0  0  0  0  0  0
   57.3890   28.0910   44.3430 N   0  0  0  0  0  0  0  0  0  0  0  0
   58.3990   28.1340   45.2300 C   0  0  0  0  0  0  0  0  0  0  0  0
   59.0010   26.9080   45.8420 C   0  0  0  0  0  0  0  0  0  0  0  0
   58.7490   29.4540   45.4950 C   0  0  0  0  0  0  0  0  0  0  0  0
   59.7800   29.9260   46.4470 C   0  0  0  0  0  0  0  0  0  0  0  0
   60.6810   30.7090   46.0440 O   0  0  0  0  0  0  0  0  0  0  0  0
   59.7580   29.5280   47.8920 C   0  0  0  0  0  0  0  0  0  0  0  0
   58.7920   30.3020   48.5940 O   0  0  0  0  0  0  0  0  0  0  0  0
   59.1160   31.4760   49.2780 C   0  0  0  0  0  0  0  0  0  0  0  0
   59.7720   31.4250   50.3540 O   0  0  0  0  0  0  0  0  0  0  0  0
   58.7350   32.7700   48.6780 C   0  0  0  0  0  0  0  0  0  0  0  0
   59.5740   33.7750   48.3820 C   0  0  0  0  0  0  0  0  0  0  0  0
   61.0000   33.6220   48.0230 C   0  0  0  0  0  0  0  0  0  0  0  0
   61.4470   33.8210   46.7060 C   0  0  0  0  0  0  0  0  0  0  0  0
   62.7910   33.6200   46.3800 C   0  0  0  0  0  0  0  0  0  0  0  0
   63.6940   33.2000   47.3590 C   0  0  0  0  0  0  0  0  0  0  0  0
   63.2520   32.9670   48.6660 C   0  0  0  0  0  0  0  0  0  0  0  0
   64.4820   32.3700   49.9990 Br  0  0  0  0  0  0  0  0  0  0  0  0
   61.9060   33.1680   48.9950 C   0  0  0  0  0  0  0  0  0  0  0  0
   59.1403   34.8505   46.1774 H   0  0  0  0  0  0  0  0  0  0  0  0
   59.2277   33.8871   44.6638 H   0  0  0  0  0  0  0  0  0  0  0  0
   58.4127   35.4879   44.6638 H   0  0  0  0  0  0  0  0  0  0  0  0
   56.9283   34.2949   46.5681 H   0  0  0  0  0  0  0  0  0  0  0  0
   56.5494   34.1246   44.8207 H   0  0  0  0  0  0  0  0  0  0  0  0
   55.0913   30.0265   43.6063 H   0  0  0  0  0  0  0  0  0  0  0  0
   56.3387   30.5554   42.4268 H   0  0  0  0  0  0  0  0  0  0  0  0
   55.7673   28.8524   42.4268 H   0  0  0  0  0  0  0  0  0  0  0  0
   56.9290   27.2290   43.9680 H   0  0  0  0  0  0  0  0  0  0  0  0
   58.9616   26.9883   46.9384 H   0  0  0  0  0  0  0  0  0  0  0  0
   58.4357   26.0214   45.5187 H   0  0  0  0  0  0  0  0  0  0  0  0
   60.0481   26.8132   45.5187 H   0  0  0  0  0  0  0  0  0  0  0  0
   59.4993   28.4619   47.9726 H   0  0  0  0  0  0  0  0  0  0  0  0
   60.7511   29.7044   48.3309 H   0  0  0  0  0  0  0  0  0  0  0  0
   57.6692   32.9241   48.4537 H   0  0  0  0  0  0  0  0  0  0  0  0
   59.1671   34.7966   48.4087 H   0  0  0  0  0  0  0  0  0  0  0  0
   60.7360   34.1364   45.9281 H   0  0  0  0  0  0  0  0  0  0  0  0
   63.1382   33.7929   45.3506 H   0  0  0  0  0  0  0  0  0  0  0  0
   64.7534   33.0523   47.1025 H   0  0  0  0  0  0  0  0  0  0  0  0
   61.5568   32.9695   50.0190 H   0  0  0  0  0  0  0  0  0  0  0  0
  1  2  1  0
  2  3  1  0
  3  4  1  0
  4  5  2  0
  4  6  1  0
  6  7  2  0
  7  8  1  0
  7  9  1  0
  9 10  1  0
 10 11  1  0
 10 12  2  0
 12 13  1  0
 13 14  2  0
 13 15  1  0
 15 16  1  0
 16 17  1  0
 17 18  2  0
 17 19  1  0
 19 20  2  3
 20 21  1  0
 21 22  2  0
 22 23  1  0
 23 24  2  0
 24 25  1  0
 25 26  1  0
 25 27  2  0
 12  6  1  0
 27 21  1  0
  1 28  1  0
  1 29  1  0
  1 30  1  0
  2 31  1  0
  2 32  1  0
  8 33  1  0
  8 34  1  0
  8 35  1  0
  9 36  1  0
 11 37  1  0
 11 38  1  0
 11 39  1  0
 15 40  1  0
 15 41  1  0
 19 42  1  0
 20 43  1  0
 22 44  1  0
 23 45  1  0
 24 46  1  0
 27 47  1  0
M  END
>  <UniqueID>  (20) 
19

>  <SMILES>  (20) 
CCOC(=O)c1c(C)[nH]c(C)c1C(=O)COC(=O)C=Cc1cccc(Br)c1

>  <Energy>  (20) 
75.32276955259469

>  <Genealogy>  (20) 
CCOC(=O)c1c(C)[nH]c(C)c1C(=O)COC(=O)C=Cc1cccc(Br)c1 (3D coordinates assigned)
CCOC(=O)c1c(C)[nH]c(C)c1C(=O)COC(=O)C=Cc1cccc(Br)c1 (optimized conformer: 75.32276955259469 kcal/mol)

>  <smiles>  (20) 
CCOC(=O)c1c(C)[nH]c(C)c1C(=O)COC(=O)C=Cc1cccc(Br)c1

>  <score_type>  (20) 
oracle

>  <origin>  (20) 
adg

>  <m_score__min__energy>  (20) 
-8.4499999999999993

>  <m_primary>  (20) 
energy

$$$$
20:0
     RDKit          3D

 48 50  0  0  0  0  0  0  0  0999 V2000
   57.8010   32.3390   41.1490 C   0  0  0  0  0  0  0  0  0  0  0  0
   57.3670   31.5820   42.2730 O   0  0  0  0  0  0  0  0  0  0  0  0
   57.7730   31.8220   43.5950 C   0  0  0  0  0  0  0  0  0  0  0  0
   57.8300   30.8030   44.5650 C   0  0  0  0  0  0  0  0  0  0  0  0
   58.2400   31.0940   45.8690 C   0  0  0  0  0  0  0  0  0  0  0  0
   58.6020   32.4040   46.2300 C   0  0  0  0  0  0  0  0  0  0  0  0
   59.0390   32.7130   47.6150 C   0  0  0  0  0  0  0  0  0  0  0  0
   59.6140   33.9600   47.9230 C   0  0  0  0  0  0  0  0  0  0  0  0
   60.0280   34.2480   49.2270 C   0  0  0  0  0  0  0  0  0  0  0  0
   59.8640   33.3020   50.2490 C   0  0  0  0  0  0  0  0  0  0  0  0
   60.3450   33.5990   51.6440 C   0  0  0  0  0  0  0  0  0  0  0  0
   61.2050   32.4450   52.1740 C   0  0  0  0  0  0  0  0  0  0  0  0
   62.6240   32.6530   51.8340 N   0  0  0  0  0  0  0  0  0  0  0  0
   63.1160   31.6420   50.8830 C   0  0  0  0  0  0  0  0  0  0  0  0
   63.1170   32.1550   49.4620 C   0  0  0  0  0  0  0  0  0  0  0  0
   63.7830   33.3490   49.1370 C   0  0  0  0  0  0  0  0  0  0  0  0
   63.7590   33.8320   47.8250 C   0  0  0  0  0  0  0  0  0  0  0  0
   63.0700   33.1310   46.8320 C   0  0  0  0  0  0  0  0  0  0  0  0
   62.4010   31.9460   47.1490 C   0  0  0  0  0  0  0  0  0  0  0  0
   62.4210   31.4600   48.4600 C   0  0  0  0  0  0  0  0  0  0  0  0
   59.3040   32.0520   49.9440 C   0  0  0  0  0  0  0  0  0  0  0  0
   58.8910   31.7610   48.6410 C   0  0  0  0  0  0  0  0  0  0  0  0
   58.5440   33.4160   45.2560 C   0  0  0  0  0  0  0  0  0  0  0  0
   58.1320   33.1250   43.9530 C   0  0  0  0  0  0  0  0  0  0  0  0
   58.3203   33.2448   41.4953 H   0  0  0  0  0  0  0  0  0  0  0  0
   58.4883   31.7320   40.5414 H   0  0  0  0  0  0  0  0  0  0  0  0
   56.9299   32.6254   40.5414 H   0  0  0  0  0  0  0  0  0  0  0  0
   57.5507   29.7738   44.2954 H   0  0  0  0  0  0  0  0  0  0  0  0
   58.2799   30.2910   46.6198 H   0  0  0  0  0  0  0  0  0  0  0  0
   59.7387   34.7139   47.1317 H   0  0  0  0  0  0  0  0  0  0  0  0
   60.4852   35.2227   49.4526 H   0  0  0  0  0  0  0  0  0  0  0  0
   60.9448   34.5210   51.6312 H   0  0  0  0  0  0  0  0  0  0  0  0
   59.4722   33.7228   52.3019 H   0  0  0  0  0  0  0  0  0  0  0  0
   61.1002   32.3895   53.2676 H   0  0  0  0  0  0  0  0  0  0  0  0
   60.8640   31.5080   51.7095 H   0  0  0  0  0  0  0  0  0  0  0  0
   62.7290   33.5940   51.3870 H   0  0  0  0  0  0  0  0  0  0  0  0
   63.2050   32.6350   52.7050 H   0  0  0  0  0  0  0  0  0  0  0  0
   64.1432   31.3633   51.1607 H   0  0  0  0  0  0  0  0  0  0  0  0
   62.4417   30.7742   50.9305 H   0  0  0  0  0  0  0  0  0  0  0  0
   64.3245   33.9050   49.9166 H   0  0  0  0  0  0  0  0  0  0  0  0
   64.2836   34.7657   47.5742 H   0  0  0  0  0  0  0  0  0  0  0  0
   63.0542   33.5122   45.8003 H   0  0  0  0  0  0  0  0  0  0  0  0
   61.8582   31.3951   46.3668 H   0  0  0  0  0  0  0  0  0  0  0  0
   61.8893   30.5294   48.7073 H   0  0  0  0  0  0  0  0  0  0  0  0
   59.1894   31.2966   50.7353 H   0  0  0  0  0  0  0  0  0  0  0  0
   58.4468   30.7803   48.4155 H   0  0  0  0  0  0  0  0  0  0  0  0
   58.8253   34.4456   45.5219 H   0  0  0  0  0  0  0  0  0  0  0  0
   58.0897   33.9280   43.2024 H   0  0  0  0  0  0  0  0  0  0  0  0
  1  2  1  0
  2  3  1  0
  3  4  2  0
  4  5  1  0
  5  6  2  0
  6  7  1  0
  7  8  2  0
  8  9  1  0
  9 10  2  0
 10 11  1  0
 11 12  1  0
 12 13  1  0
 13 14  1  0
 14 15  1  0
 15 16  2  0
 16 17  1  0
 17 18  2  0
 18 19  1  0
 19 20  2  0
 10 21  1  0
 21 22  2  0
  6 23  1  0
 23 24  2  0
 24  3  1  0
 22  7  1  0
 20 15  1  0
  1 25  1  0
  1 26  1  0
  1 27  1  0
  4 28  1  0
  5 29  1  0
  8 30  1  0
  9 31  1  0
 11 32  1  0
 11 33  1  0
 12 34  1  0
 12 35  1  0
 13 36  1  0
 13 37  1  0
 14 38  1  0
 14 39  1  0
 16 40  1  0
 17 41  1  0
 18 42  1  0
 19 43  1  0
 20 44  1  0
 21 45  1  0
 22 46  1  0
 23 47  1  0
 24 48  1  0
M  CHG  1  13   1
M  END
>  <UniqueID>  (21) 
20

>  <SMILES>  (21) 
COc1ccc(-c2ccc(CC[NH2+]Cc3ccccc3)cc2)cc1

>  <Energy>  (21) 
51.54762333722463

>  <Genealogy>  (21) 
COc1ccc(-c2ccc(CC[NH2+]Cc3ccccc3)cc2)cc1 (protonated)
COc1ccc(-c2ccc(CC[NH2+]Cc3ccccc3)cc2)cc1 (3D coordinates assigned)
COc1ccc(-c2ccc(CC[NH2+]Cc3ccccc3)cc2)cc1 (optimized conformer: 51.54762333722463 kcal/mol)

>  <smiles>  (21) 
COc1ccc(-c2ccc(CCNCc3ccccc3)cc2)cc1

>  <score_type>  (21) 
oracle

>  <origin>  (21) 
adg

>  <m_score__min__energy>  (21) 
-6.04

>  <m_primary>  (21) 
energy

$$$$
21:0
     RDKit          3D

 54 57  0  0  0  0  0  0  0  0999 V2000
   63.5690   33.9190   48.4100 C   0  0  0  0  0  0  0  0  0  0  0  0
   63.5200   32.4580   48.2150 N   0  0  0  0  0  0  0  0  0  0  0  0
   63.0480   31.7780   49.4520 C   0  0  0  0  0  0  0  0  0  0  0  0
   61.5240   31.5950   49.4910 C   0  0  0  0  0  0  0  0  0  0  0  0
   61.0470   30.9110   48.2810 N   0  0  0  0  0  0  0  0  0  0  0  0
   59.7920   30.2010   48.3090 C   0  0  0  0  0  0  0  0  0  0  0  0
   59.3650   29.7260   49.3970 O   0  0  0  0  0  0  0  0  0  0  0  0
   58.9790   30.0020   47.0870 C   0  0  0  0  0  0  0  0  0  0  0  0
   58.5490   28.7010   46.7820 C   0  0  0  0  0  0  0  0  0  0  0  0
   57.8110   28.4350   45.6160 C   0  0  0  0  0  0  0  0  0  0  0  0
   57.3750   27.0520   45.2970 C   0  0  0  0  0  0  0  0  0  0  0  0
   56.5100   26.3560   46.1630 C   0  0  0  0  0  0  0  0  0  0  0  0
   56.1000   25.0540   45.8600 C   0  0  0  0  0  0  0  0  0  0  0  0
   56.5480   24.4330   44.6920 C   0  0  0  0  0  0  0  0  0  0  0  0
   57.4050   25.1130   43.8240 C   0  0  0  0  0  0  0  0  0  0  0  0
   57.8190   26.4150   44.1230 C   0  0  0  0  0  0  0  0  0  0  0  0
   57.4950   29.4970   44.7560 C   0  0  0  0  0  0  0  0  0  0  0  0
   57.8980   30.7990   45.0580 C   0  0  0  0  0  0  0  0  0  0  0  0
   58.6310   31.0740   46.2250 C   0  0  0  0  0  0  0  0  0  0  0  0
   58.9820   32.4840   46.5270 C   0  0  0  0  0  0  0  0  0  0  0  0
   59.2680   33.3900   45.4910 C   0  0  0  0  0  0  0  0  0  0  0  0
   59.5870   34.7180   45.7830 C   0  0  0  0  0  0  0  0  0  0  0  0
   59.6420   35.1520   47.1080 C   0  0  0  0  0  0  0  0  0  0  0  0
   59.3860   34.2550   48.1540 C   0  0  0  0  0  0  0  0  0  0  0  0
   59.4400   34.7000   49.5120 N   0  0  0  0  0  0  0  0  0  0  0  0
   59.0640   32.9220   47.8610 C   0  0  0  0  0  0  0  0  0  0  0  0
   61.9410   30.8220   47.1200 C   0  0  0  0  0  0  0  0  0  0  0  0
   62.7410   32.1240   46.9910 C   0  0  0  0  0  0  0  0  0  0  0  0
   63.5766   34.1452   49.4865 H   0  0  0  0  0  0  0  0  0  0  0  0
   64.4811   34.3207   47.9445 H   0  0  0  0  0  0  0  0  0  0  0  0
   62.6858   34.3809   47.9445 H   0  0  0  0  0  0  0  0  0  0  0  0
   64.5080   32.1460   48.0560 H   0  0  0  0  0  0  0  0  0  0  0  0
   63.5218   30.7869   49.5099 H   0  0  0  0  0  0  0  0  0  0  0  0
   63.3250   32.4156   50.3045 H   0  0  0  0  0  0  0  0  0  0  0  0
   61.2557   30.9952   50.3732 H   0  0  0  0  0  0  0  0  0  0  0  0
   61.0520   32.5872   49.5431 H   0  0  0  0  0  0  0  0  0  0  0  0
   58.7938   27.8760   47.4671 H   0  0  0  0  0  0  0  0  0  0  0  0
   56.1542   26.8400   47.0845 H   0  0  0  0  0  0  0  0  0  0  0  0
   55.4238   24.5182   46.5424 H   0  0  0  0  0  0  0  0  0  0  0  0
   56.2258   23.4081   44.4557 H   0  0  0  0  0  0  0  0  0  0  0  0
   57.7551   24.6236   42.9032 H   0  0  0  0  0  0  0  0  0  0  0  0
   58.4959   26.9445   43.4364 H   0  0  0  0  0  0  0  0  0  0  0  0
   56.9248   29.3023   43.8357 H   0  0  0  0  0  0  0  0  0  0  0  0
   57.6385   31.6202   44.3737 H   0  0  0  0  0  0  0  0  0  0  0  0
   59.2404   33.0513   44.4448 H   0  0  0  0  0  0  0  0  0  0  0  0
   59.7956   35.4241   44.9658 H   0  0  0  0  0  0  0  0  0  0  0  0
   59.8869   36.2007   47.3321 H   0  0  0  0  0  0  0  0  0  0  0  0
   59.6790   34.0370   50.2820 H   0  0  0  0  0  0  0  0  0  0  0  0
   59.2470   35.6960   49.7560 H   0  0  0  0  0  0  0  0  0  0  0  0
   58.8741   32.2135   48.6807 H   0  0  0  0  0  0  0  0  0  0  0  0
   62.6334   29.9778   47.2540 H   0  0  0  0  0  0  0  0  0  0  0  0
   61.3449   30.6657   46.2088 H   0  0  0  0  0  0  0  0  0  0  0  0
   63.4407   32.0223   46.1483 H   0  0  0  0  0  0  0  0  0  0  0  0
   62.0178   32.9374   46.8320 H   0  0  0  0  0  0  0  0  0  0  0  0
  1  2  1  0
  2  3  1  0
  3  4  1  0
  4  5  1  0
  5  6  1  0
  6  7  2  0
  6  8  1  0
  8  9  2  0
  9 10  1  0
 10 11  1  0
 11 12  2  0
 12 13  1  0
 13 14  2  0
 14 15  1  0
 15 16  2  0
 10 17  2  0
 17 18  1  0
 18 19  2  0
 19 20  1  0
 20 21  2  0
 21 22  1  0
 22 23  2  0
 23 24  1  0
 24 25  1  0
 24 26  2  0
  5 27  1  0
 27 28  1  0
 28  2  1  0
 19  8  1  0
 26 20  1  0
 16 11  1  0
  1 29  1  0
  1 30  1  0
  1 31  1  0
  2 32  1  0
  3 33  1  0
  3 34  1  0
  4 35  1  0
  4 36  1  0
  9 37  1  0
 12 38  1  0
 13 39  1  0
 14 40  1  0
 15 41  1  0
 16 42  1  0
 17 43  1  0
 18 44  1  0
 21 45  1  0
 22 46  1  0
 23 47  1  0
 25 48  1  0
 25 49  1  0
 26 50  1  0
 27 51  1  0
 27 52  1  0
 28 53  1  0
 28 54  1  0
M  CHG  1   2   1
M  END
>  <UniqueID>  (22) 
21

>  <SMILES>  (22) 
C[NH+]1CCN(C(=O)c2cc(-c3ccccc3)ccc2-c2cccc(N)c2)CC1

>  <Energy>  (22) 
79.52006702327562

>  <Genealogy>  (22) 
C[NH+]1CCN(C(=O)c2cc(-c3ccccc3)ccc2-c2cccc(N)c2)CC1 (protonated)
C[NH+]1CCN(C(=O)c2cc(-c3ccccc3)ccc2-c2cccc(N)c2)CC1 (3D coordinates assigned)
C[NH+]1CCN(C(=O)c2cc(-c3ccccc3)ccc2-c2cccc(N)c2)CC1 (nonaromatic ring conformer: 79.52006702327562 kcal/mol)

>  <smiles>  (22) 
CN1CCN(C(=O)c2cc(-c3ccccc3)ccc2-c2cccc(N)c2)CC1

>  <score_type>  (22) 
oracle

>  <origin>  (22) 
adg

>  <m_score__min__energy>  (22) 
-6.9800000000000004

>  <m_primary>  (22) 
energy

$$$$
22:0
     RDKit          3D

 39 42  0  0  0  0  0  0  0  0999 V2000
   58.0730   26.0970   42.6220 O   0  0  0  0  0  0  0  0  0  0  0  0
   57.7700   26.4740   43.7880 C   0  0  0  0  0  0  0  0  0  0  0  0
   57.9350   27.9010   44.1570 C   0  0  0  0  0  0  0  0  0  0  0  0
   57.3270   28.9010   43.3930 C   0  0  0  0  0  0  0  0  0  0  0  0
   57.4690   30.2450   43.7360 C   0  0  0  0  0  0  0  0  0  0  0  0
   58.2250   30.6350   44.8680 C   0  0  0  0  0  0  0  0  0  0  0  0
   58.8310   29.6170   45.6550 C   0  0  0  0  0  0  0  0  0  0  0  0
   58.6710   28.2640   45.2930 C   0  0  0  0  0  0  0  0  0  0  0  0
   59.5870   29.9770   46.7890 C   0  0  0  0  0  0  0  0  0  0  0  0
   60.3780   28.7720   47.8100 Cl  0  0  0  0  0  0  0  0  0  0  0  0
   59.7320   31.2840   47.1260 N   0  0  0  0  0  0  0  0  0  0  0  0
   59.1680   32.2890   46.4030 C   0  0  0  0  0  0  0  0  0  0  0  0
   59.3580   33.6210   46.8080 C   0  0  0  0  0  0  0  0  0  0  0  0
   58.7950   34.6690   46.0850 C   0  0  0  0  0  0  0  0  0  0  0  0
   58.0350   34.4010   44.9510 C   0  0  0  0  0  0  0  0  0  0  0  0
   57.8340   33.0850   44.5290 C   0  0  0  0  0  0  0  0  0  0  0  0
   58.3950   31.9980   45.2470 C   0  0  0  0  0  0  0  0  0  0  0  0
   57.2420   25.5180   44.7220 N   0  0  0  0  0  0  0  0  0  0  0  0
   57.8260   25.3850   46.0630 C   0  0  0  0  0  0  0  0  0  0  0  0
   56.7550   24.9640   47.0960 C   0  0  0  0  0  0  0  0  0  0  0  0
   55.5230   24.5630   46.5180 O   0  0  0  0  0  0  0  0  0  0  0  0
   55.7530   23.6950   45.4280 C   0  0  0  0  0  0  0  0  0  0  0  0
   56.3020   24.4980   44.2470 C   0  0  0  0  0  0  0  0  0  0  0  0
   56.7299   28.6247   42.5114 H   0  0  0  0  0  0  0  0  0  0  0  0
   56.9857   31.0152   43.1169 H   0  0  0  0  0  0  0  0  0  0  0  0
   59.1315   27.4802   45.9124 H   0  0  0  0  0  0  0  0  0  0  0  0
   60.2990   31.5150   47.9740 H   0  0  0  0  0  0  0  0  0  0  0  0
   59.9572   33.8377   47.7047 H   0  0  0  0  0  0  0  0  0  0  0  0
   58.9509   35.7082   46.4101 H   0  0  0  0  0  0  0  0  0  0  0  0
   57.5895   35.2310   44.3831 H   0  0  0  0  0  0  0  0  0  0  0  0
   57.2332   32.8890   43.6287 H   0  0  0  0  0  0  0  0  0  0  0  0
   58.6186   24.6227   46.0359 H   0  0  0  0  0  0  0  0  0  0  0  0
   58.2379   26.3597   46.3635 H   0  0  0  0  0  0  0  0  0  0  0  0
   57.1521   24.1226   47.6828 H   0  0  0  0  0  0  0  0  0  0  0  0
   56.5437   25.8488   47.7145 H   0  0  0  0  0  0  0  0  0  0  0  0
   56.4827   22.9251   45.7194 H   0  0  0  0  0  0  0  0  0  0  0  0
   54.8086   23.2119   45.1370 H   0  0  0  0  0  0  0  0  0  0  0  0
   56.8219   23.8184   43.5558 H   0  0  0  0  0  0  0  0  0  0  0  0
   55.4666   24.9926   43.7297 H   0  0  0  0  0  0  0  0  0  0  0  0
  1  2  2  0
  2  3  1  0
  3  4  2  0
  4  5  1  0
  5  6  2  0
  6  7  1  0
  7  8  2  0
  7  9  1  0
  9 10  1  0
  9 11  2  0
 11 12  1  0
 12 13  2  0
 13 14  1  0
 14 15  2  0
 15 16  1  0
 16 17  2  0
  2 18  1  0
 18 19  1  0
 19 20  1  0
 20 21  1  0
 21 22  1  0
 22 23  1  0
  8  3  1  0
 17 12  1  0
 23 18  1  0
 17  6  1  0
  4 24  1  0
  5 25  1  0
  8 26  1  0
 11 27  1  0
 13 28  1  0
 14 29  1  0
 15 30  1  0
 16 31  1  0
 19 32  1  0
 19 33  1  0
 20 34  1  0
 20 35  1  0
 22 36  1  0
 22 37  1  0
 23 38  1  0
 23 39  1  0
M  CHG  1  11   1
M  END
>  <UniqueID>  (23) 
22

>  <SMILES>  (23) 
O=C(c1ccc2c(c1)c(Cl)[nH+]c1ccccc12)N1CCOCC1

>  <Energy>  (23) 
66.54686635783682

>  <Genealogy>  (23) 
O=C(c1ccc2c(c1)c(Cl)[nH+]c1ccccc12)N1CCOCC1 (protonated)
O=C(c1ccc2c(c1)c(Cl)[nH+]c1ccccc12)N1CCOCC1 (3D coordinates assigned)
O=C(c1ccc2c(c1)c(Cl)[nH+]c1ccccc12)N1CCOCC1 (nonaromatic ring conformer: 66.54686635783682 kcal/mol)

>  <smiles>  (23) 
O=C(c1ccc2c(c1)c(Cl)nc1ccccc12)N1CCOCC1

>  <score_type>  (23) 
oracle

>  <origin>  (23) 
adg

>  <m_score__min__energy>  (23) 
-6.7599999999999998

>  <m_primary>  (23) 
energy

$$$$
23:0
     RDKit          3D

 49 51  0  0  0  0  0  0  0  0999 V2000
   60.9830   28.9120   52.3820 C   0  0  0  0  0  0  0  0  0  0  0  0
   60.5120   28.5390   51.0080 C   0  0  0  0  0  0  0  0  0  0  0  0
   59.5280   29.3050   50.3660 C   0  0  0  0  0  0  0  0  0  0  0  0
   59.1080   28.9750   49.0750 C   0  0  0  0  0  0  0  0  0  0  0  0
   59.6650   27.8710   48.4070 C   0  0  0  0  0  0  0  0  0  0  0  0
   59.2000   27.4920   47.0550 C   0  0  0  0  0  0  0  0  0  0  0  0
   59.6440   26.4370   46.5270 O   0  0  0  0  0  0  0  0  0  0  0  0
   58.2290   28.3160   46.3030 C   0  0  0  0  0  0  0  0  0  0  0  0
   57.0080   27.8890   45.8210 C   0  0  0  0  0  0  0  0  0  0  0  0
   56.4830   26.6050   45.9300 O   0  0  0  0  0  0  0  0  0  0  0  0
   56.4080   28.9700   45.2200 C   0  0  0  0  0  0  0  0  0  0  0  0
   55.1470   28.9610   44.6350 O   0  0  0  0  0  0  0  0  0  0  0  0
   57.2020   30.0580   45.3000 N   0  0  0  0  0  0  0  0  0  0  0  0
   56.8410   31.4080   44.8510 C   0  0  0  0  0  0  0  0  0  0  0  0
   57.9680   32.0550   44.0350 C   0  0  0  0  0  0  0  0  0  0  0  0
   57.9510   33.5260   44.2000 N   0  0  0  0  0  0  0  0  0  0  0  0
   59.2930   34.0400   44.5220 C   0  0  0  0  0  0  0  0  0  0  0  0
   57.0000   33.9400   45.2460 C   0  0  0  0  0  0  0  0  0  0  0  0
   58.3160   29.6730   45.9760 C   0  0  0  0  0  0  0  0  0  0  0  0
   59.3760   30.5940   46.4420 C   0  0  0  0  0  0  0  0  0  0  0  0
   59.0360   31.8000   47.0710 C   0  0  0  0  0  0  0  0  0  0  0  0
   60.0390   32.6410   47.5540 C   0  0  0  0  0  0  0  0  0  0  0  0
   61.3750   32.2660   47.4060 C   0  0  0  0  0  0  0  0  0  0  0  0
   61.6890   31.0910   46.8000 N   0  0  0  0  0  0  0  0  0  0  0  0
   60.7310   30.2570   46.3180 C   0  0  0  0  0  0  0  0  0  0  0  0
   60.6810   27.1330   49.0350 C   0  0  0  0  0  0  0  0  0  0  0  0
   61.1010   27.4640   50.3260 C   0  0  0  0  0  0  0  0  0  0  0  0
   60.3532   28.4133   53.1335 H   0  0  0  0  0  0  0  0  0  0  0  0
   62.0282   28.5941   52.5102 H   0  0  0  0  0  0  0  0  0  0  0  0
   60.9130   30.0023   52.5102 H   0  0  0  0  0  0  0  0  0  0  0  0
   59.0848   30.1698   50.8814 H   0  0  0  0  0  0  0  0  0  0  0  0
   58.3371   29.5827   48.5786 H   0  0  0  0  0  0  0  0  0  0  0  0
   55.9410   26.1970   45.1780 H   0  0  0  0  0  0  0  0  0  0  0  0
   55.9382   31.3462   44.2255 H   0  0  0  0  0  0  0  0  0  0  0  0
   56.6621   32.0290   45.7411 H   0  0  0  0  0  0  0  0  0  0  0  0
   58.9359   31.6634   44.3811 H   0  0  0  0  0  0  0  0  0  0  0  0
   57.8193   31.8152   42.9718 H   0  0  0  0  0  0  0  0  0  0  0  0
   59.4154   34.0869   45.6142 H   0  0  0  0  0  0  0  0  0  0  0  0
   60.0542   33.3698   44.0962 H   0  0  0  0  0  0  0  0  0  0  0  0
   59.4118   35.0473   44.0962 H   0  0  0  0  0  0  0  0  0  0  0  0
   57.4385   33.7491   46.2366 H   0  0  0  0  0  0  0  0  0  0  0  0
   56.7842   35.0135   45.1412 H   0  0  0  0  0  0  0  0  0  0  0  0
   56.0672   33.3665   45.1412 H   0  0  0  0  0  0  0  0  0  0  0  0
   57.9790   32.0830   47.1836 H   0  0  0  0  0  0  0  0  0  0  0  0
   59.7794   33.5898   48.0464 H   0  0  0  0  0  0  0  0  0  0  0  0
   62.1746   32.9222   47.7802 H   0  0  0  0  0  0  0  0  0  0  0  0
   61.0194   29.3148   45.8291 H   0  0  0  0  0  0  0  0  0  0  0  0
   61.1493   26.2890   48.5075 H   0  0  0  0  0  0  0  0  0  0  0  0
   61.8971   26.8789   50.8096 H   0  0  0  0  0  0  0  0  0  0  0  0
  1  2  1  0
  2  3  2  0
  3  4  1  0
  4  5  2  0
  5  6  1  0
  6  7  2  0
  6  8  1  0
  8  9  1  0
  9 10  1  0
  9 11  2  0
 11 12  1  0
 11 13  1  0
 13 14  1  0
 14 15  1  0
 15 16  1  0
 16 17  1  0
 16 18  1  0
 13 19  1  0
 19 20  1  0
 20 21  2  0
 21 22  1  0
 22 23  2  0
 23 24  1  0
 24 25  2  0
  5 26  1  0
 26 27  2  0
 27  2  1  0
 19  8  2  0
 25 20  1  0
  1 28  1  0
  1 29  1  0
  1 30  1  0
  3 31  1  0
  4 32  1  0
 10 33  1  0
 14 34  1  0
 14 35  1  0
 15 36  1  0
 15 37  1  0
 17 38  1  0
 17 39  1  0
 17 40  1  0
 18 41  1  0
 18 42  1  0
 18 43  1  0
 21 44  1  0
 22 45  1  0
 23 46  1  0
 25 47  1  0
 26 48  1  0
 27 49  1  0
M  CHG  1  12  -1
M  END
>  <UniqueID>  (24) 
23

>  <SMILES>  (24) 
Cc1ccc(C(=O)c2c(O)c([O-])n(CCN(C)C)c2-c2cccnc2)cc1

>  <Energy>  (24) 
88.34361065482908

>  <Genealogy>  (24) 
Cc1ccc(C(=O)c2c(O)c([O-])n(CCN(C)C)c2-c2cccnc2)cc1 (protonated)
Cc1ccc(C(=O)c2c(O)c([O-])n(CCN(C)C)c2-c2cccnc2)cc1 (3D coordinates assigned)
Cc1ccc(C(=O)c2c(O)c([O-])n(CCN(C)C)c2-c2cccnc2)cc1 (optimized conformer: 88.34361065482908 kcal/mol)

>  <smiles>  (24) 
Cc1ccc(C(=O)c2c(O)c(O)n(CCN(C)C)c2-c2cccnc2)cc1

>  <score_type>  (24) 
oracle

>  <origin>  (24) 
adg

>  <m_score__min__energy>  (24) 
-9.75

>  <m_primary>  (24) 
energy

$$$$
24:0
     RDKit          3D

 36 38  0  0  0  0  0  0  0  0999 V2000
   59.0600   31.7620   49.0730 C   0  0  0  0  0  0  0  0  0  0  0  0
   58.1800   32.4320   48.1770 O   0  0  0  0  0  0  0  0  0  0  0  0
   58.5870   33.2910   47.1450 C   0  0  0  0  0  0  0  0  0  0  0  0
   59.2840   34.4860   47.4180 C   0  0  0  0  0  0  0  0  0  0  0  0
   59.6420   35.3520   46.3840 C   0  0  0  0  0  0  0  0  0  0  0  0
   59.3090   35.0430   45.0670 C   0  0  0  0  0  0  0  0  0  0  0  0
   58.6290   33.8600   44.7780 C   0  0  0  0  0  0  0  0  0  0  0  0
   58.2750   32.9650   45.8030 C   0  0  0  0  0  0  0  0  0  0  0  0
   57.5820   31.7050   45.4270 C   0  0  0  0  0  0  0  0  0  0  0  0
   56.6730   31.7530   44.5560 O   0  0  0  0  0  0  0  0  0  0  0  0
   57.9700   30.3550   45.9850 C   0  0  0  0  0  0  0  0  0  0  0  0
   57.6170   29.1850   45.0400 C   0  0  2  0  0  0  0  0  0  0  0  0
   58.0100   29.4600   43.7170 O   0  0  0  0  0  0  0  0  0  0  0  0
   56.1560   28.8020   45.1230 C   0  0  0  0  0  0  0  0  0  0  0  0
   55.2090   29.5520   44.7690 O   0  0  0  0  0  0  0  0  0  0  0  0
   55.9370   27.4800   45.6140 N   0  0  0  0  0  0  0  0  0  0  0  0
   57.2470   26.9870   45.8370 C   0  0  0  0  0  0  0  0  0  0  0  0
   57.5650   25.7120   46.3020 C   0  0  0  0  0  0  0  0  0  0  0  0
   58.9210   25.3710   46.4460 C   0  0  0  0  0  0  0  0  0  0  0  0
   59.9260   26.3030   46.1230 C   0  0  0  0  0  0  0  0  0  0  0  0
   59.5830   27.5830   45.6560 C   0  0  0  0  0  0  0  0  0  0  0  0
   58.2310   27.9050   45.5250 C   0  0  0  0  0  0  0  0  0  0  0  0
   58.7673   31.9849   50.1096 H   0  0  0  0  0  0  0  0  0  0  0  0
   59.0023   30.6771   48.9009 H   0  0  0  0  0  0  0  0  0  0  0  0
   60.0905   32.1063   48.9009 H   0  0  0  0  0  0  0  0  0  0  0  0
   59.5480   34.7379   48.4557 H   0  0  0  0  0  0  0  0  0  0  0  0
   60.1880   36.2800   46.6091 H   0  0  0  0  0  0  0  0  0  0  0  0
   59.5825   35.7324   44.2546 H   0  0  0  0  0  0  0  0  0  0  0  0
   58.3666   33.6245   43.7360 H   0  0  0  0  0  0  0  0  0  0  0  0
   59.0558   30.3477   46.1609 H   0  0  0  0  0  0  0  0  0  0  0  0
   57.4014   30.2086   46.9152 H   0  0  0  0  0  0  0  0  0  0  0  0
   57.3420   30.0760   43.3170 H   0  0  0  0  0  0  0  0  0  0  0  0
   56.7734   24.9897   46.5504 H   0  0  0  0  0  0  0  0  0  0  0  0
   59.1984   24.3717   46.8126 H   0  0  0  0  0  0  0  0  0  0  0  0
   60.9848   26.0276   46.2369 H   0  0  0  0  0  0  0  0  0  0  0  0
   60.3627   28.3153   45.3993 H   0  0  0  0  0  0  0  0  0  0  0  0
  1  2  1  0
  2  3  1  0
  3  4  2  0
  4  5  1  0
  5  6  2  0
  6  7  1  0
  7  8  2  0
  8  9  1  0
  9 10  2  0
  9 11  1  0
 11 12  1  0
 12 13  1  6
 12 14  1  0
 14 15  2  0
 14 16  1  0
 16 17  1  0
 17 18  2  0
 18 19  1  0
 19 20  2  0
 20 21  1  0
 21 22  2  0
  8  3  1  0
 22 12  1  0
 22 17  1  0
  1 23  1  0
  1 24  1  0
  1 25  1  0
  4 26  1  0
  5 27  1  0
  6 28  1  0
  7 29  1  0
 11 30  1  0
 11 31  1  0
 13 32  1  0
 18 33  1  0
 19 34  1  0
 20 35  1  0
 21 36  1  0
M  CHG  1  16  -1
M  END
>  <UniqueID>  (25) 
24

>  <SMILES>  (25) 
COc1ccccc1C(=O)C[C@]1(O)C(=O)[N-]c2ccccc21

>  <Energy>  (25) 
62.313034881179576

>  <Genealogy>  (25) 
COc1ccccc1C(=O)CC1(O)C(=O)[N-]c2ccccc21 (protonated)
COc1ccccc1C(=O)C[C@]1(O)C(=O)[N-]c2ccccc21 (chirality)
COc1ccccc1C(=O)C[C@]1(O)C(=O)[N-]c2ccccc21 (3D coordinates assigned)
COc1ccccc1C(=O)C[C@]1(O)C(=O)[N-]c2ccccc21 (nonaromatic ring conformer: 62.313034881179576 kcal/mol)

>  <smiles>  (25) 
COc1ccccc1C(=O)CC1(O)C(=O)Nc2ccccc21

>  <score_type>  (25) 
oracle

>  <origin>  (25) 
adg

>  <m_score__min__energy>  (25) 
-9.4600000000000009

>  <m_primary>  (25) 
energy

$$$$
25:0
     RDKit          3D

 54 57  0  0  0  0  0  0  0  0999 V2000
   60.7710   28.6290   44.9260 C   0  0  0  0  0  0  0  0  0  0  0  0
   59.9970   29.0260   46.1140 N   0  0  0  0  0  0  0  0  0  0  0  0
   60.7710   30.0150   46.8890 C   0  0  0  0  0  0  0  0  0  0  0  0
   59.6780   27.8390   46.9370 C   0  0  0  0  0  0  0  0  0  0  0  0
   58.9020   26.8010   46.1130 C   0  0  0  0  0  0  0  0  0  0  0  0
   57.4230   27.1830   45.9680 C   0  0  0  0  0  0  0  0  0  0  0  0
   57.2550   28.5980   45.9940 O   0  0  0  0  0  0  0  0  0  0  0  0
   57.2560   29.4010   44.8490 C   0  0  0  0  0  0  0  0  0  0  0  0
   56.9410   29.0020   43.5990 N   0  0  0  0  0  0  0  0  0  0  0  0
   57.0640   30.0310   42.8080 O   0  0  0  0  0  0  0  0  0  0  0  0
   57.4440   31.0850   43.4960 C   0  0  0  0  0  0  0  0  0  0  0  0
   57.5880   30.7330   44.8120 C   0  0  0  0  0  0  0  0  0  0  0  0
   58.0150   31.6670   45.8950 C   0  0  0  0  0  0  0  0  0  0  0  0
   58.4380   32.9540   45.3050 N   0  0  0  0  0  0  0  0  0  0  0  0
   59.4740   33.7390   45.9320 C   0  0  0  0  0  0  0  0  0  0  0  0
   60.0090   34.6940   45.3050 O   0  0  0  0  0  0  0  0  0  0  0  0
   59.9180   33.4560   47.3150 C   0  0  0  0  0  0  0  0  0  0  0  0
   58.9360   33.3010   48.3070 C   0  0  0  0  0  0  0  0  0  0  0  0
   59.2940   33.0600   49.6320 C   0  0  0  0  0  0  0  0  0  0  0  0
   60.6380   32.9680   49.9920 C   0  0  0  0  0  0  0  0  0  0  0  0
   61.6400   33.1080   49.0220 C   0  0  0  0  0  0  0  0  0  0  0  0
   62.9910   32.9980   49.3880 C   0  0  0  0  0  0  0  0  0  0  0  0
   63.9930   33.1130   48.4230 C   0  0  0  0  0  0  0  0  0  0  0  0
   63.6570   33.3340   47.0880 C   0  0  0  0  0  0  0  0  0  0  0  0
   62.3170   33.4480   46.7060 C   0  0  0  0  0  0  0  0  0  0  0  0
   61.2880   33.3510   47.6670 C   0  0  0  0  0  0  0  0  0  0  0  0
   57.7170   33.4720   44.1210 C   0  0  0  0  0  0  0  0  0  0  0  0
   57.7430   32.4500   42.9680 C   0  0  0  0  0  0  0  0  0  0  0  0
   61.7083   28.1483   45.2429 H   0  0  0  0  0  0  0  0  0  0  0  0
   60.1816   27.9219   44.3238 H   0  0  0  0  0  0  0  0  0  0  0  0
   61.0014   29.5202   44.3238 H   0  0  0  0  0  0  0  0  0  0  0  0
   60.6276   29.8318   47.9641 H   0  0  0  0  0  0  0  0  0  0  0  0
   61.8384   29.9216   46.6403 H   0  0  0  0  0  0  0  0  0  0  0  0
   60.4238   31.0287   46.6403 H   0  0  0  0  0  0  0  0  0  0  0  0
   60.6139   27.3874   47.2978 H   0  0  0  0  0  0  0  0  0  0  0  0
   59.0546   28.1544   47.7867 H   0  0  0  0  0  0  0  0  0  0  0  0
   59.3522   26.7317   45.1117 H   0  0  0  0  0  0  0  0  0  0  0  0
   58.9573   25.8356   46.6374 H   0  0  0  0  0  0  0  0  0  0  0  0
   57.0431   26.7934   45.0120 H   0  0  0  0  0  0  0  0  0  0  0  0
   56.8651   26.7488   46.8108 H   0  0  0  0  0  0  0  0  0  0  0  0
   56.6440   28.0500   43.2900 H   0  0  0  0  0  0  0  0  0  0  0  0
   57.1736   31.8389   46.5823 H   0  0  0  0  0  0  0  0  0  0  0  0
   58.8579   31.2245   46.4461 H   0  0  0  0  0  0  0  0  0  0  0  0
   57.8724   33.3706   48.0350 H   0  0  0  0  0  0  0  0  0  0  0  0
   58.5128   32.9418   50.3974 H   0  0  0  0  0  0  0  0  0  0  0  0
   60.9129   32.7849   51.0412 H   0  0  0  0  0  0  0  0  0  0  0  0
   63.2609   32.8205   50.4395 H   0  0  0  0  0  0  0  0  0  0  0  0
   65.0498   33.0291   48.7164 H   0  0  0  0  0  0  0  0  0  0  0  0
   64.4507   33.4191   46.3311 H   0  0  0  0  0  0  0  0  0  0  0  0
   62.0629   33.6145   45.6488 H   0  0  0  0  0  0  0  0  0  0  0  0
   56.6720   33.6763   44.3971 H   0  0  0  0  0  0  0  0  0  0  0  0
   58.2137   34.3937   43.7837 H   0  0  0  0  0  0  0  0  0  0  0  0
   56.9865   32.7256   42.2184 H   0  0  0  0  0  0  0  0  0  0  0  0
   58.7406   32.4501   42.5046 H   0  0  0  0  0  0  0  0  0  0  0  0
  1  2  1  0
  2  3  1  0
  2  4  1  0
  4  5  1  0
  5  6  1  0
  6  7  1  0
  7  8  1  0
  8  9  2  0
  9 10  1  0
 10 11  1  0
 11 12  2  0
 12 13  1  0
 13 14  1  0
 14 15  1  0
 15 16  2  0
 15 17  1  0
 17 18  2  0
 18 19  1  0
 19 20  2  0
 20 21  1  0
 21 22  2  0
 22 23  1  0
 23 24  2  0
 24 25  1  0
 25 26  2  0
 14 27  1  0
 27 28  1  0
 12  8  1  0
 26 17  1  0
 28 11  1  0
 26 21  1  0
  1 29  1  0
  1 30  1  0
  1 31  1  0
  3 32  1  0
  3 33  1  0
  3 34  1  0
  4 35  1  0
  4 36  1  0
  5 37  1  0
  5 38  1  0
  6 39  1  0
  6 40  1  0
  9 41  1  0
 13 42  1  0
 13 43  1  0
 18 44  1  0
 19 45  1  0
 20 46  1  0
 22 47  1  0
 23 48  1  0
 24 49  1  0
 25 50  1  0
 27 51  1  0
 27 52  1  0
 28 53  1  0
 28 54  1  0
M  CHG  1   9   1
M  END
>  <UniqueID>  (26) 
25

>  <SMILES>  (26) 
CN(C)CCCOc1[nH+]oc2c1CN(C(=O)c1cccc3ccccc13)CC2

>  <Energy>  (26) 
99.46079315099492

>  <Genealogy>  (26) 
CN(C)CCCOc1[nH+]oc2c1CN(C(=O)c1cccc3ccccc13)CC2 (protonated)
CN(C)CCCOc1[nH+]oc2c1CN(C(=O)c1cccc3ccccc13)CC2 (3D coordinates assigned)
CN(C)CCCOc1[nH+]oc2c1CN(C(=O)c1cccc3ccccc13)CC2 (nonaromatic ring conformer: 99.46079315099492 kcal/mol)

>  <smiles>  (26) 
CN(C)CCCOc1noc2c1CN(C(=O)c1cccc3ccccc13)CC2

>  <score_type>  (26) 
oracle

>  <origin>  (26) 
adg

>  <m_score__min__energy>  (26) 
-7.0800000000000001

>  <m_primary>  (26) 
energy

$$$$
26:0
     RDKit          3D

 54 56  0  0  0  0  0  0  0  0999 V2000
   57.7646   35.1643   44.7521 H   0  0  0  0  0  0  0  0  0  0  0  0
   58.2050   34.3050   45.2790 C   0  0  0  0  0  0  0  0  0  0  0  0
   58.9540   34.5460   46.3630 C   0  0  0  0  0  0  0  0  0  0  0  0
   58.4740   34.9332   47.2739 H   0  0  0  0  0  0  0  0  0  0  0  0
   60.4400   34.2980   46.3610 C   0  0  0  0  0  0  0  0  0  0  0  0
   60.9609   35.2668   46.3538 H   0  0  0  0  0  0  0  0  0  0  0  0
   60.6826   33.7065   45.4658 H   0  0  0  0  0  0  0  0  0  0  0  0
   60.8810   33.5270   47.5500 N   0  0  0  0  0  0  0  0  0  0  0  0
   61.4480   34.1640   48.1610 H   0  0  0  0  0  0  0  0  0  0  0  0
   61.7510   32.3760   47.1750 C   0  0  0  0  0  0  0  0  0  0  0  0
   62.5580   32.2866   47.9171 H   0  0  0  0  0  0  0  0  0  0  0  0
   62.1492   32.5704   46.1682 H   0  0  0  0  0  0  0  0  0  0  0  0
   60.9770   31.0490   47.1250 C   0  0  0  0  0  0  0  0  0  0  0  0
   61.6667   30.2453   46.8279 H   0  0  0  0  0  0  0  0  0  0  0  0
   60.1594   31.1568   46.3971 H   0  0  0  0  0  0  0  0  0  0  0  0
   60.3810   30.7090   48.4430 N   0  0  0  0  0  0  0  0  0  0  0  0
   59.2340   29.7850   48.2990 C   0  0  0  0  0  0  0  0  0  0  0  0
   58.5844   30.1455   47.4877 H   0  0  0  0  0  0  0  0  0  0  0  0
   58.6899   29.7592   49.2546 H   0  0  0  0  0  0  0  0  0  0  0  0
   59.6980   28.3570   47.9700 C   0  0  0  0  0  0  0  0  0  0  0  0
   59.5378   27.7134   48.8476 H   0  0  0  0  0  0  0  0  0  0  0  0
   60.7659   28.3822   47.7072 H   0  0  0  0  0  0  0  0  0  0  0  0
   58.9230   27.8050   46.8030 C   0  0  0  0  0  0  0  0  0  0  0  0
   59.4870   27.8030   45.5180 C   0  0  0  0  0  0  0  0  0  0  0  0
   60.5080   28.1837   45.3675 H   0  0  0  0  0  0  0  0  0  0  0  0
   58.7580   27.3200   44.4300 C   0  0  0  0  0  0  0  0  0  0  0  0
   59.2090   27.3127   43.4267 H   0  0  0  0  0  0  0  0  0  0  0  0
   57.4570   26.8460   44.6130 C   0  0  0  0  0  0  0  0  0  0  0  0
   56.8896   26.4633   43.7518 H   0  0  0  0  0  0  0  0  0  0  0  0
   56.8690   26.8540   45.8840 C   0  0  0  0  0  0  0  0  0  0  0  0
   55.5570   26.3740   46.0130 O   0  0  0  0  0  0  0  0  0  0  0  0
   55.1340   25.0740   45.6200 C   0  0  0  0  0  0  0  0  0  0  0  0
   54.9363   24.4664   46.5154 H   0  0  0  0  0  0  0  0  0  0  0  0
   54.2152   25.1530   45.0203 H   0  0  0  0  0  0  0  0  0  0  0  0
   55.9234   24.5972   45.0203 H   0  0  0  0  0  0  0  0  0  0  0  0
   57.6080   27.3400   46.9800 C   0  0  0  0  0  0  0  0  0  0  0  0
   57.1532   27.3559   47.9815 H   0  0  0  0  0  0  0  0  0  0  0  0
   60.0120   31.9070   49.2400 C   0  0  0  0  0  0  0  0  0  0  0  0
   60.8509   32.1646   49.9032 H   0  0  0  0  0  0  0  0  0  0  0  0
   59.1077   31.6654   49.8179 H   0  0  0  0  0  0  0  0  0  0  0  0
   59.6960   33.1160   48.3480 C   0  0  0  0  0  0  0  0  0  0  0  0
   59.3834   33.9576   48.9837 H   0  0  0  0  0  0  0  0  0  0  0  0
   58.8924   32.8320   47.6526 H   0  0  0  0  0  0  0  0  0  0  0  0
   57.9350   32.9470   44.7480 C   0  0  0  0  0  0  0  0  0  0  0  0
   57.7750   31.8880   45.6580 C   0  0  0  0  0  0  0  0  0  0  0  0
   57.8596   32.0790   46.7380 H   0  0  0  0  0  0  0  0  0  0  0  0
   57.5090   30.5930   45.2010 C   0  0  0  0  0  0  0  0  0  0  0  0
   57.3941   29.7697   45.9213 H   0  0  0  0  0  0  0  0  0  0  0  0
   57.3890   30.3430   43.8320 C   0  0  0  0  0  0  0  0  0  0  0  0
   57.1837   29.3232   43.4744 H   0  0  0  0  0  0  0  0  0  0  0  0
   57.5300   31.3890   42.9180 C   0  0  0  0  0  0  0  0  0  0  0  0
   57.4309   31.1927   41.8402 H   0  0  0  0  0  0  0  0  0  0  0  0
   57.7970   32.6860   43.3690 C   0  0  0  0  0  0  0  0  0  0  0  0
   57.8999   33.5068   42.6440 H   0  0  0  0  0  0  0  0  0  0  0  0
  1  2  1  0
  2  3  2  0
  3  4  1  0
  3  5  1  0
  5  6  1  0
  5  7  1  0
  5  8  1  0
  8  9  1  0
  8 10  1  0
 10 11  1  0
 10 12  1  0
 10 13  1  0
 13 14  1  0
 13 15  1  0
 13 16  1  0
 16 17  1  0
 17 18  1  0
 17 19  1  0
 17 20  1  0
 20 21  1  0
 20 22  1  0
 20 23  1  0
 23 24  2  0
 24 25  1  0
 24 26  1  0
 26 27  1  0
 26 28  2  0
 28 29  1  0
 28 30  1  0
 30 31  1  0
 31 32  1  0
 32 33  1  0
 32 34  1  0
 32 35  1  0
 30 36  2  0
 36 37  1  0
 16 38  1  0
 38 39  1  0
 38 40  1  0
 38 41  1  0
 41 42  1  0
 41 43  1  0
  2 44  1  0
 44 45  2  0
 45 46  1  0
 45 47  1  0
 47 48  1  0
 47 49  2  0
 49 50  1  0
 49 51  1  0
 51 52  1  0
 51 53  2  0
 53 54  1  0
 41  8  1  0
 53 44  1  0
 36 23  1  0
M  CHG  1   8   1
M  END
>  <UniqueID>  (27) 
26

>  <SMILES>  (27) 
COc1cccc(CCN2CC[NH+](C/C=C/c3ccccc3)CC2)c1

>  <Energy>  (27) 
67.26340703088273

>  <Genealogy>  (27) 
COc1cccc(CCN2CC[NH+](CC=Cc3ccccc3)CC2)c1 (protonated)
COc1cccc(CCN2CC[NH+](C/C=C/c3ccccc3)CC2)c1 (cis-trans isomerization)
COc1cccc(CCN2CC[NH+](C/C=C/c3ccccc3)CC2)c1 (3D coordinates assigned)
COc1cccc(CCN2CC[NH+](C/C=C/c3ccccc3)CC2)c1 (nonaromatic ring conformer: 67.26340703088273 kcal/mol)

>  <smiles>  (27) 
COc1cccc(CCN2CCN(CC=Cc3ccccc3)CC2)c1

>  <score_type>  (27) 
oracle

>  <origin>  (27) 
adg

>  <m_score__min__energy>  (27) 
-6.9000000000000004

>  <m_primary>  (27) 
energy

$$$$
27:0
     RDKit          3D

 45 47  0  0  0  0  0  0  0  0999 V2000
   58.1630   27.6100   43.6700 C   0  0  0  0  0  0  0  0  0  0  0  0
   59.0600   27.9630   44.8440 C   0  0  0  0  0  0  0  0  0  0  0  0
   58.3370   28.7680   45.7690 O   0  0  0  0  0  0  0  0  0  0  0  0
   58.1050   30.1310   45.5670 C   0  0  0  0  0  0  0  0  0  0  0  0
   57.0160   30.5670   44.8700 N   0  0  0  0  0  0  0  0  0  0  0  0
   56.7790   31.8680   44.6620 N   0  0  0  0  0  0  0  0  0  0  0  0
   57.6180   32.8430   45.1370 C   0  0  0  0  0  0  0  0  0  0  0  0
   57.3030   34.2880   44.8750 C   0  0  0  0  0  0  0  0  0  0  0  0
   58.7570   32.4280   45.8470 C   0  0  0  0  0  0  0  0  0  0  0  0
   59.8190   33.1100   46.4420 C   0  0  0  0  0  0  0  0  0  0  0  0
   60.0450   34.5970   46.4400 C   0  0  0  0  0  0  0  0  0  0  0  0
   60.6550   32.2090   47.0240 N   0  0  0  0  0  0  0  0  0  0  0  0
   61.8610   32.5100   47.7470 C   0  0  0  0  0  0  0  0  0  0  0  0
   62.9510   33.0950   47.0900 C   0  0  0  0  0  0  0  0  0  0  0  0
   64.1230   33.3860   47.7940 C   0  0  0  0  0  0  0  0  0  0  0  0
   64.2230   33.0960   49.1600 C   0  0  0  0  0  0  0  0  0  0  0  0
   65.4200   33.4070   49.8210 O   0  0  0  0  0  0  0  0  0  0  0  0
   66.3520   32.4400   50.2960 C   0  0  0  0  0  0  0  0  0  0  0  0
   63.1270   32.5070   49.8200 C   0  0  0  0  0  0  0  0  0  0  0  0
   61.9550   32.2160   49.1150 C   0  0  0  0  0  0  0  0  0  0  0  0
   60.1470   30.9700   46.8000 C   0  0  0  0  0  0  0  0  0  0  0  0
   60.7540   29.6840   47.2820 C   0  0  0  0  0  0  0  0  0  0  0  0
   58.9810   31.0910   46.0640 C   0  0  0  0  0  0  0  0  0  0  0  0
   57.2006   27.2313   44.0447 H   0  0  0  0  0  0  0  0  0  0  0  0
   57.9905   28.5073   43.0576 H   0  0  0  0  0  0  0  0  0  0  0  0
   58.6483   26.8358   43.0576 H   0  0  0  0  0  0  0  0  0  0  0  0
   59.3918   27.0402   45.3423 H   0  0  0  0  0  0  0  0  0  0  0  0
   59.9367   28.5195   44.4810 H   0  0  0  0  0  0  0  0  0  0  0  0
   55.9270   32.1330   44.1190 H   0  0  0  0  0  0  0  0  0  0  0  0
   57.1876   34.8175   45.8322 H   0  0  0  0  0  0  0  0  0  0  0  0
   58.1229   34.7437   44.3004 H   0  0  0  0  0  0  0  0  0  0  0  0
   56.3678   34.3611   44.3004 H   0  0  0  0  0  0  0  0  0  0  0  0
   60.1003   34.9609   47.4766 H   0  0  0  0  0  0  0  0  0  0  0  0
   60.9879   34.8239   45.9210 H   0  0  0  0  0  0  0  0  0  0  0  0
   59.2120   35.0938   45.9210 H   0  0  0  0  0  0  0  0  0  0  0  0
   62.8845   33.3261   46.0166 H   0  0  0  0  0  0  0  0  0  0  0  0
   64.9737   33.8466   47.2704 H   0  0  0  0  0  0  0  0  0  0  0  0
   66.3519   32.4401   51.3960 H   0  0  0  0  0  0  0  0  0  0  0  0
   66.0652   31.4433   49.9294 H   0  0  0  0  0  0  0  0  0  0  0  0
   67.3586   32.6899   49.9294 H   0  0  0  0  0  0  0  0  0  0  0  0
   63.1932   32.2752   50.8933 H   0  0  0  0  0  0  0  0  0  0  0  0
   61.1030   31.7545   49.6357 H   0  0  0  0  0  0  0  0  0  0  0  0
   60.7601   29.6710   48.3819 H   0  0  0  0  0  0  0  0  0  0  0  0
   60.1611   28.8361   46.9086 H   0  0  0  0  0  0  0  0  0  0  0  0
   61.7855   29.6028   46.9086 H   0  0  0  0  0  0  0  0  0  0  0  0
  1  2  1  0
  2  3  1  0
  3  4  1  0
  4  5  2  0
  5  6  1  0
  6  7  2  0
  7  8  1  0
  7  9  1  0
  9 10  2  0
 10 11  1  0
 10 12  1  0
 12 13  1  0
 13 14  2  0
 14 15  1  0
 15 16  2  0
 16 17  1  0
 17 18  1  0
 16 19  1  0
 19 20  2  0
 12 21  1  0
 21 22  1  0
 21 23  2  0
 23  4  1  0
 23  9  1  0
 20 13  1  0
  1 24  1  0
  1 25  1  0
  1 26  1  0
  2 27  1  0
  2 28  1  0
  6 29  1  0
  8 30  1  0
  8 31  1  0
  8 32  1  0
 11 33  1  0
 11 34  1  0
 11 35  1  0
 14 36  1  0
 15 37  1  0
 18 38  1  0
 18 39  1  0
 18 40  1  0
 19 41  1  0
 20 42  1  0
 22 43  1  0
 22 44  1  0
 22 45  1  0
M  CHG  1   6   1
M  END
>  <UniqueID>  (28) 
27

>  <SMILES>  (28) 
CCOc1n[nH+]c(C)c2c(C)n(-c3ccc(OC)cc3)c(C)c12

>  <Energy>  (28) 
84.02006354987475

>  <Genealogy>  (28) 
CCOc1n[nH+]c(C)c2c(C)n(-c3ccc(OC)cc3)c(C)c12 (protonated)
CCOc1n[nH+]c(C)c2c(C)n(-c3ccc(OC)cc3)c(C)c12 (3D coordinates assigned)
CCOc1n[nH+]c(C)c2c(C)n(-c3ccc(OC)cc3)c(C)c12 (optimized conformer: 84.02006354987475 kcal/mol)

>  <smiles>  (28) 
CCOc1nnc(C)c2c(C)n(-c3ccc(OC)cc3)c(C)c12

>  <score_type>  (28) 
oracle

>  <origin>  (28) 
adg

>  <m_score__min__energy>  (28) 
-5.9699999999999998

>  <m_primary>  (28) 
energy

$$$$
28:0
     RDKit          3D

 39 39  0  0  0  0  0  0  0  0999 V2000
   59.9546   32.3518   48.8177 H   0  0  0  0  0  0  0  0  0  0  0  0
   59.3600   32.5420   47.9120 C   0  0  0  0  0  0  0  0  0  0  0  0
   58.7300   31.4240   47.3570 C   0  0  0  0  0  0  0  0  0  0  0  0
   58.9120   30.1520   48.0140 N   0  0  0  0  0  0  0  0  0  0  0  0
   59.1920   30.3190   49.0080 H   0  0  0  0  0  0  0  0  0  0  0  0
   58.0140   29.6120   48.0200 H   0  0  0  0  0  0  0  0  0  0  0  0
   59.9610   29.3790   47.3300 C   0  0  0  0  0  0  0  0  0  0  0  0
   60.3551   28.6204   48.0222 H   0  0  0  0  0  0  0  0  0  0  0  0
   60.7548   30.0738   47.0183 H   0  0  0  0  0  0  0  0  0  0  0  0
   59.4150   28.6770   46.0780 C   0  0  0  0  0  0  0  0  0  0  0  0
   59.7862   27.6418   46.0549 H   0  0  0  0  0  0  0  0  0  0  0  0
   59.7567   29.2279   45.1893 H   0  0  0  0  0  0  0  0  0  0  0  0
   57.9440   28.6610   46.0840 N   0  0  0  0  0  0  0  0  0  0  0  0
   57.5890   29.4580   45.5030 H   0  0  0  0  0  0  0  0  0  0  0  0
   57.3840   27.3940   45.5830 C   0  0  0  0  0  0  0  0  0  0  0  0
   56.3211   27.5466   45.3444 H   0  0  0  0  0  0  0  0  0  0  0  0
   57.5138   26.6344   46.3679 H   0  0  0  0  0  0  0  0  0  0  0  0
   58.1050   26.8980   44.3260 C   0  0  0  0  0  0  0  0  0  0  0  0
   58.9788   26.2969   44.6176 H   0  0  0  0  0  0  0  0  0  0  0  0
   57.4179   26.2805   43.7288 H   0  0  0  0  0  0  0  0  0  0  0  0
   58.4360   27.7604   43.7288 H   0  0  0  0  0  0  0  0  0  0  0  0
   57.9140   31.4480   46.2730 N   0  0  0  0  0  0  0  0  0  0  0  0
   57.4800   32.3950   45.4080 C   0  0  0  0  0  0  0  0  0  0  0  0
   56.6700   31.9720   44.4740 N   0  0  0  0  0  0  0  0  0  0  0  0
   56.9280   31.0360   43.3770 C   0  0  0  0  0  0  0  0  0  0  0  0
   56.6018   31.4913   42.4303 H   0  0  0  0  0  0  0  0  0  0  0  0
   58.0057   30.8179   43.3459 H   0  0  0  0  0  0  0  0  0  0  0  0
   56.1680   29.7240   43.5910 C   0  0  0  0  0  0  0  0  0  0  0  0
   55.3805   29.6315   42.8286 H   0  0  0  0  0  0  0  0  0  0  0  0
   56.8719   28.8829   43.5068 H   0  0  0  0  0  0  0  0  0  0  0  0
   55.5600   29.7060   44.9170 N   0  0  0  0  0  0  0  0  0  0  0  0
   54.7640   30.3850   44.9200 H   0  0  0  0  0  0  0  0  0  0  0  0
   56.2660   30.0730   45.5960 H   0  0  0  0  0  0  0  0  0  0  0  0
   57.8570   33.7490   45.4640 C   0  0  0  0  0  0  0  0  0  0  0  0
   57.4430   34.3893   44.6712 H   0  0  0  0  0  0  0  0  0  0  0  0
   58.6790   34.3890   46.3810 C   0  0  0  0  0  0  0  0  0  0  0  0
   58.8278   35.4661   46.2147 H   0  0  0  0  0  0  0  0  0  0  0  0
   59.3370   33.8570   47.4760 C   0  0  0  0  0  0  0  0  0  0  0  0
   59.9173   34.5711   48.0788 H   0  0  0  0  0  0  0  0  0  0  0  0
  1  2  1  0
  2  3  1  0
  3  4  1  0
  4  5  1  0
  4  6  1  0
  4  7  1  0
  7  8  1  0
  7  9  1  0
  7 10  1  0
 10 11  1  0
 10 12  1  0
 10 13  1  0
 13 14  1  0
 13 15  1  0
 15 16  1  0
 15 17  1  0
 15 18  1  0
 18 19  1  0
 18 20  1  0
 18 21  1  0
  3 22  2  0
 22 23  1  0
 23 24  2  0
 24 25  1  0
 25 26  1  0
 25 27  1  0
 25 28  1  0
 28 29  1  0
 28 30  1  0
 28 31  1  0
 31 32  1  0
 31 33  1  0
 23 34  1  0
 34 35  1  0
 34 36  2  0
 36 37  1  0
 36 38  1  0
 38 39  1  0
 38  2  2  0
M  CHG  1   4   1
M  END
>  <UniqueID>  (29) 
28

>  <SMILES>  (29) 
CCNCC[NH2+]c1cccc/c(=N\CCN)n1

>  <Energy>  (29) 
53.07063983454582

>  <Genealogy>  (29) 
CCNCC[NH2+]c1ccccc(=NCCN)n1 (protonated)
CCNCC[NH2+]c1cccc/c(=N\CCN)n1 (cis-trans isomerization)
CCNCC[NH2+]c1cccc/c(=N\CCN)n1 (3D coordinates assigned)
CCNCC[NH2+]c1cccc/c(=N\CCN)n1 (optimized conformer: 53.07063983454582 kcal/mol)

>  <smiles>  (29) 
CCNCCNc1ccccc(=NCCN)n1

>  <score_type>  (29) 
oracle

>  <origin>  (29) 
adg

>  <m_score__min__energy>  (29) 
-3.73

>  <m_primary>  (29) 
energy

$$$$
29:0
     RDKit          3D

 61 64  0  0  0  0  0  0  0  0999 V2000
   61.1840   31.0490   46.9960 C   0  0  0  0  0  0  0  0  0  0  0  0
   60.6130   30.2070   48.0600 N   0  0  0  0  0  0  0  0  0  0  0  0
   60.0670   28.9150   47.5660 C   0  0  0  0  0  0  0  0  0  0  0  0
   58.5290   28.7470   47.6370 C   0  0  0  0  0  0  0  0  0  0  0  0
   57.9300   28.0590   46.4070 C   0  0  0  0  0  0  0  0  0  0  0  0
   57.5660   29.0770   45.3590 C   0  0  0  0  0  0  0  0  0  0  0  0
   56.2560   29.1480   44.8580 C   0  0  0  0  0  0  0  0  0  0  0  0
   55.9300   30.0840   43.8710 C   0  0  0  0  0  0  0  0  0  0  0  0
   56.9110   30.9430   43.3690 C   0  0  0  0  0  0  0  0  0  0  0  0
   58.2220   30.8640   43.8470 C   0  0  0  0  0  0  0  0  0  0  0  0
   58.5510   29.9320   44.8350 C   0  0  0  0  0  0  0  0  0  0  0  0
   61.5240   30.1350   49.2240 C   0  0  0  0  0  0  0  0  0  0  0  0
   60.9780   30.9190   50.4370 C   0  0  0  0  0  0  0  0  0  0  0  0
   61.8860   31.9980   50.9100 N   0  0  1  0  0  0  0  0  0  0  0  0
   62.5150   32.7060   49.7600 C   0  0  0  0  0  0  0  0  0  0  0  0
   61.8530   34.0610   49.3820 C   0  0  0  0  0  0  0  0  0  0  0  0
   60.3590   34.2020   49.7640 C   0  0  1  0  0  0  0  0  0  0  0  0
   59.4050   33.6230   48.7850 N   0  0  0  0  0  0  0  0  0  0  0  0
   58.5160   32.5880   48.8860 C   0  0  0  0  0  0  0  0  0  0  0  0
   58.3620   31.8920   49.9200 O   0  0  0  0  0  0  0  0  0  0  0  0
   57.7940   32.3560   47.7610 N   0  0  0  0  0  0  0  0  0  0  0  0
   58.2660   33.2810   46.9130 C   0  0  0  0  0  0  0  0  0  0  0  0
   57.8770   33.4900   45.5920 C   0  0  0  0  0  0  0  0  0  0  0  0
   58.5280   34.5070   44.8690 C   0  0  0  0  0  0  0  0  0  0  0  0
   59.5390   35.2800   45.4790 C   0  0  0  0  0  0  0  0  0  0  0  0
   59.9050   35.0480   46.8170 C   0  0  0  0  0  0  0  0  0  0  0  0
   59.2360   34.0340   47.5100 C   0  0  0  0  0  0  0  0  0  0  0  0
   60.0690   33.6950   51.2030 C   0  0  0  0  0  0  0  0  0  0  0  0
   61.2550   32.9580   51.8420 C   0  0  0  0  0  0  0  0  0  0  0  0
   61.7469   31.8791   47.4477 H   0  0  0  0  0  0  0  0  0  0  0  0
   61.8592   30.4444   46.3726 H   0  0  0  0  0  0  0  0  0  0  0  0
   60.3725   31.4526   46.3726 H   0  0  0  0  0  0  0  0  0  0  0  0
   60.3678   28.8047   46.5137 H   0  0  0  0  0  0  0  0  0  0  0  0
   60.4769   28.1474   48.2389 H   0  0  0  0  0  0  0  0  0  0  0  0
   58.2855   28.1453   48.5251 H   0  0  0  0  0  0  0  0  0  0  0  0
   58.0960   29.7571   47.6845 H   0  0  0  0  0  0  0  0  0  0  0  0
   58.6672   27.3574   45.9896 H   0  0  0  0  0  0  0  0  0  0  0  0
   57.0209   27.5183   46.7090 H   0  0  0  0  0  0  0  0  0  0  0  0
   55.4840   28.4655   45.2429 H   0  0  0  0  0  0  0  0  0  0  0  0
   54.9000   30.1439   43.4895 H   0  0  0  0  0  0  0  0  0  0  0  0
   56.6513   31.6821   42.5969 H   0  0  0  0  0  0  0  0  0  0  0  0
   58.9951   31.5356   43.4454 H   0  0  0  0  0  0  0  0  0  0  0  0
   59.5852   29.8672   45.2042 H   0  0  0  0  0  0  0  0  0  0  0  0
   61.6507   29.0806   49.5108 H   0  0  0  0  0  0  0  0  0  0  0  0
   62.4835   30.5868   48.9322 H   0  0  0  0  0  0  0  0  0  0  0  0
   60.0174   31.3733   50.1529 H   0  0  0  0  0  0  0  0  0  0  0  0
   60.8747   30.2007   51.2637 H   0  0  0  0  0  0  0  0  0  0  0  0
   62.6590   31.5270   51.4400 H   0  0  0  0  0  0  0  0  0  0  0  0
   62.4639   32.0446   48.8826 H   0  0  0  0  0  0  0  0  0  0  0  0
   63.5439   32.9418   50.0693 H   0  0  0  0  0  0  0  0  0  0  0  0
   61.9377   34.1874   48.2926 H   0  0  0  0  0  0  0  0  0  0  0  0
   62.3866   34.8297   49.9602 H   0  0  0  0  0  0  0  0  0  0  0  0
   60.1771   35.2865   49.7366 H   0  0  0  0  0  0  0  0  0  0  0  0
   57.0871   32.8803   45.1291 H   0  0  0  0  0  0  0  0  0  0  0  0
   58.2474   34.7004   43.8231 H   0  0  0  0  0  0  0  0  0  0  0  0
   60.0444   36.0697   44.9038 H   0  0  0  0  0  0  0  0  0  0  0  0
   60.6915   35.6444   47.3024 H   0  0  0  0  0  0  0  0  0  0  0  0
   59.2115   33.0071   51.1639 H   0  0  0  0  0  0  0  0  0  0  0  0
   59.8650   34.5801   51.8235 H   0  0  0  0  0  0  0  0  0  0  0  0
   60.8965   32.4098   52.7257 H   0  0  0  0  0  0  0  0  0  0  0  0
   62.0109   33.7090   52.1152 H   0  0  0  0  0  0  0  0  0  0  0  0
  1  2  1  0
  2  3  1  0
  3  4  1  0
  4  5  1  0
  5  6  1  0
  6  7  2  0
  7  8  1  0
  8  9  2  0
  9 10  1  0
 10 11  2  0
  2 12  1  0
 12 13  1  0
 13 14  1  0
 14 15  1  0
 15 16  1  0
 16 17  1  0
 17 18  1  0
 18 19  1  0
 19 20  2  0
 19 21  1  0
 21 22  1  0
 22 23  2  0
 23 24  1  0
 24 25  2  0
 25 26  1  0
 26 27  2  0
 17 28  1  0
 28 29  1  0
 11  6  1  0
 29 14  1  0
 27 18  1  0
 27 22  1  0
  1 30  1  0
  1 31  1  0
  1 32  1  0
  3 33  1  0
  3 34  1  0
  4 35  1  0
  4 36  1  0
  5 37  1  0
  5 38  1  0
  7 39  1  0
  8 40  1  0
  9 41  1  0
 10 42  1  0
 11 43  1  0
 12 44  1  0
 12 45  1  0
 13 46  1  0
 13 47  1  0
 14 48  1  1
 15 49  1  0
 15 50  1  0
 16 51  1  0
 16 52  1  0
 17 53  1  1
 23 54  1  0
 24 55  1  0
 25 56  1  0
 26 57  1  0
 28 58  1  0
 28 59  1  0
 29 60  1  0
 29 61  1  0
M  CHG  2  14   1  21  -1
M  END
>  <UniqueID>  (30) 
29

>  <SMILES>  (30) 
CN(CCCc1ccccc1)CC[NH+]1CCC(n2c(=O)[n-]c3ccccc32)CC1

>  <Energy>  (30) 
118.62213641663382

>  <Genealogy>  (30) 
CN(CCCc1ccccc1)CC[NH+]1CCC(n2c(=O)[n-]c3ccccc32)CC1 (protonated)
CN(CCCc1ccccc1)CC[NH+]1CCC(n2c(=O)[n-]c3ccccc32)CC1 (3D coordinates assigned)
CN(CCCc1ccccc1)CC[NH+]1CCC(n2c(=O)[n-]c3ccccc32)CC1 (nonaromatic ring conformer: 118.62213641663382 kcal/mol)

>  <smiles>  (30) 
CN(CCCc1ccccc1)CCN1CCC(n2c(=O)[nH]c3ccccc32)CC1

>  <score_type>  (30) 
oracle

>  <origin>  (30) 
adg

>  <m_score__min__energy>  (30) 
-8.6600000000000001

>  <m_primary>  (30) 
energy

$$$$
30:0
     RDKit          3D

 56 58  0  0  0  0  0  0  0  0999 V2000
   62.2480   30.6570   50.5520 C   0  0  0  0  0  0  0  0  0  0  0  0
   63.3760   31.2260   51.4240 C   0  0  0  0  0  0  0  0  0  0  0  0
   64.2580   32.2130   50.7400 N   0  0  0  0  0  0  0  0  0  0  0  0
   65.6150   31.6840   50.4470 C   0  0  0  0  0  0  0  0  0  0  0  0
   66.6380   32.7800   50.1240 C   0  0  0  0  0  0  0  0  0  0  0  0
   64.3820   33.5050   51.4650 C   0  0  0  0  0  0  0  0  0  0  0  0
   63.3830   34.5800   51.0100 C   0  0  0  0  0  0  0  0  0  0  0  0
   62.3190   33.9940   50.2650 O   0  0  0  0  0  0  0  0  0  0  0  0
   62.4070   33.7460   48.8920 C   0  0  0  0  0  0  0  0  0  0  0  0
   63.4940   33.9630   48.2890 O   0  0  0  0  0  0  0  0  0  0  0  0
   61.2520   33.1880   48.1360 C   0  0  0  0  0  0  0  0  0  0  0  0
   61.3530   32.1090   47.3180 C   0  0  0  0  0  0  0  0  0  0  0  0
   62.6280   31.3410   47.1310 C   0  0  0  0  0  0  0  0  0  0  0  0
   60.2240   31.6820   46.5390 N   0  0  0  0  0  0  0  0  0  0  0  0
   59.0770   32.2960   46.5180 C   0  0  0  0  0  0  0  0  0  0  0  0
   58.1100   31.9970   45.4110 C   0  0  0  0  0  0  0  0  0  0  0  0
   58.2600   33.0820   44.3280 C   0  0  0  0  0  0  0  0  0  0  0  0
   58.1420   34.5100   44.9050 C   0  0  0  0  0  0  0  0  0  0  0  0
   58.9990   34.6730   46.1410 C   0  0  0  0  0  0  0  0  0  0  0  0
   59.7170   35.6520   46.2700 O   0  0  0  0  0  0  0  0  0  0  0  0
   58.8980   33.6130   47.2160 C   0  0  2  0  0  0  0  0  0  0  0  0
   59.8800   33.7800   48.4080 C   0  0  1  0  0  0  0  0  0  0  0  0
   59.2980   33.1630   49.6570 C   0  0  0  0  0  0  0  0  0  0  0  0
   58.5220   32.0100   49.7360 C   0  0  0  0  0  0  0  0  0  0  0  0
   58.0930   31.7200   51.0370 C   0  0  0  0  0  0  0  0  0  0  0  0
   58.5130   32.6430   51.9830 C   0  0  0  0  0  0  0  0  0  0  0  0
   59.4200   33.8230   51.2000 S   0  0  0  0  0  0  0  0  0  0  0  0
   61.4526   30.2558   51.1972 H   0  0  0  0  0  0  0  0  0  0  0  0
   61.8371   31.4556   49.9170 H   0  0  0  0  0  0  0  0  0  0  0  0
   62.6461   29.8519   49.9170 H   0  0  0  0  0  0  0  0  0  0  0  0
   62.9195   31.7205   52.2941 H   0  0  0  0  0  0  0  0  0  0  0  0
   64.0170   30.3742   51.6953 H   0  0  0  0  0  0  0  0  0  0  0  0
   63.8150   32.4240   49.8150 H   0  0  0  0  0  0  0  0  0  0  0  0
   65.9686   31.1246   51.3257 H   0  0  0  0  0  0  0  0  0  0  0  0
   65.5297   31.0457   49.5552 H   0  0  0  0  0  0  0  0  0  0  0  0
   67.0316   33.2017   51.0606 H   0  0  0  0  0  0  0  0  0  0  0  0
   67.4646   32.3494   49.5399 H   0  0  0  0  0  0  0  0  0  0  0  0
   66.1515   33.5750   49.5399 H   0  0  0  0  0  0  0  0  0  0  0  0
   64.2215   33.3162   52.5367 H   0  0  0  0  0  0  0  0  0  0  0  0
   65.3873   33.8948   51.2473 H   0  0  0  0  0  0  0  0  0  0  0  0
   62.9689   35.0860   51.8946 H   0  0  0  0  0  0  0  0  0  0  0  0
   63.9083   35.3030   50.3686 H   0  0  0  0  0  0  0  0  0  0  0  0
   63.0504   31.0866   48.1143 H   0  0  0  0  0  0  0  0  0  0  0  0
   62.4208   30.4173   46.5708 H   0  0  0  0  0  0  0  0  0  0  0  0
   63.3477   31.9560   46.5708 H   0  0  0  0  0  0  0  0  0  0  0  0
   58.3319   31.0093   44.9806 H   0  0  0  0  0  0  0  0  0  0  0  0
   57.0809   31.9906   45.7996 H   0  0  0  0  0  0  0  0  0  0  0  0
   59.2462   32.9732   43.8531 H   0  0  0  0  0  0  0  0  0  0  0  0
   57.4456   32.9455   43.6013 H   0  0  0  0  0  0  0  0  0  0  0  0
   58.4695   35.2330   44.1434 H   0  0  0  0  0  0  0  0  0  0  0  0
   57.0926   34.6879   45.1827 H   0  0  0  0  0  0  0  0  0  0  0  0
   57.9165   33.6960   47.7056 H   0  0  0  0  0  0  0  0  0  0  0  0
   60.0166   34.8622   48.5503 H   0  0  0  0  0  0  0  0  0  0  0  0
   58.2709   31.3888   48.8636 H   0  0  0  0  0  0  0  0  0  0  0  0
   57.4796   30.8414   51.2857 H   0  0  0  0  0  0  0  0  0  0  0  0
   58.2911   32.6091   53.0599 H   0  0  0  0  0  0  0  0  0  0  0  0
  1  2  1  0
  2  3  1  0
  3  4  1  0
  4  5  1  0
  3  6  1  0
  6  7  1  0
  7  8  1  0
  8  9  1  0
  9 10  2  0
  9 11  1  0
 11 12  2  0
 12 13  1  0
 12 14  1  0
 14 15  2  0
 15 16  1  0
 16 17  1  0
 17 18  1  0
 18 19  1  0
 19 20  2  0
 19 21  1  0
 21 22  1  0
 22 23  1  0
 23 24  2  0
 24 25  1  0
 25 26  2  0
 26 27  1  0
 22 11  1  0
 27 23  1  0
 21 15  1  0
  1 28  1  0
  1 29  1  0
  1 30  1  0
  2 31  1  0
  2 32  1  0
  3 33  1  0
  4 34  1  0
  4 35  1  0
  5 36  1  0
  5 37  1  0
  5 38  1  0
  6 39  1  0
  6 40  1  0
  7 41  1  0
  7 42  1  0
 13 43  1  0
 13 44  1  0
 13 45  1  0
 16 46  1  0
 16 47  1  0
 17 48  1  0
 17 49  1  0
 18 50  1  0
 18 51  1  0
 21 52  1  1
 22 53  1  1
 24 54  1  0
 25 55  1  0
 26 56  1  0
M  CHG  1   3   1
M  END
>  <UniqueID>  (31) 
30

>  <SMILES>  (31) 
CC[NH+](CC)CCOC(=O)C1=C(C)N=C2CCCC(=O)[C@@H]2[C@H]1c1cccs1

>  <Energy>  (31) 
90.08582827358036

>  <Genealogy>  (31) 
CC[NH+](CC)CCOC(=O)C1=C(C)N=C2CCCC(=O)C2C1c1cccs1 (protonated)
CC[NH+](CC)CCOC(=O)C1=C(C)N=C2CCCC(=O)[C@@H]2[C@H]1c1cccs1 (chirality)
CC[NH+](CC)CCOC(=O)C1=C(C)N=C2CCCC(=O)[C@@H]2[C@H]1c1cccs1 (3D coordinates assigned)
CC[NH+](CC)CCOC(=O)C1=C(C)N=C2CCCC(=O)[C@@H]2[C@H]1c1cccs1 (nonaromatic ring conformer: 90.08582827358036 kcal/mol)

>  <smiles>  (31) 
CCN(CC)CCOC(=O)C1=C(C)N=C2CCCC(=O)C2C1c1cccs1

>  <score_type>  (31) 
oracle

>  <origin>  (31) 
adg

>  <m_score__min__energy>  (31) 
-5.7000000000000002

>  <m_primary>  (31) 
energy

$$$$
31:0
     RDKit          3D

 41 43  0  0  0  0  0  0  0  0999 V2000
   57.0110   30.8060   44.0460 C   0  0  0  0  0  0  0  0  0  0  0  0
   57.0900   31.5800   45.2380 O   0  0  0  0  0  0  0  0  0  0  0  0
   58.0430   32.5820   45.4710 C   0  0  0  0  0  0  0  0  0  0  0  0
   57.8550   33.9140   45.0540 C   0  0  0  0  0  0  0  0  0  0  0  0
   58.8390   34.8740   45.3040 C   0  0  0  0  0  0  0  0  0  0  0  0
   60.0110   34.5200   45.9740 C   0  0  0  0  0  0  0  0  0  0  0  0
   60.2030   33.2020   46.4170 C   0  0  0  0  0  0  0  0  0  0  0  0
   61.4370   32.8120   47.1310 C   0  0  0  0  0  0  0  0  0  0  0  0
   62.6710   33.0770   46.6540 N   0  0  0  0  0  0  0  0  0  0  0  0
   63.5230   32.6480   47.5710 N   0  0  0  0  0  0  0  0  0  0  0  0
   62.8210   32.1260   48.5900 C   0  0  0  0  0  0  0  0  0  0  0  0
   61.5010   32.2070   48.3450 N   0  0  0  0  0  0  0  0  0  0  0  0
   60.4490   31.6430   49.1480 C   0  0  0  0  0  0  0  0  0  0  0  0
   60.2370   30.2580   49.1560 C   0  0  0  0  0  0  0  0  0  0  0  0
   59.2190   29.7030   49.9330 C   0  0  0  0  0  0  0  0  0  0  0  0
   58.3880   30.5280   50.7150 C   0  0  0  0  0  0  0  0  0  0  0  0
   57.3610   30.0060   51.5160 O   0  0  0  0  0  0  0  0  0  0  0  0
   57.3540   30.0340   52.9390 C   0  0  0  0  0  0  0  0  0  0  0  0
   58.5840   31.9180   50.7040 C   0  0  0  0  0  0  0  0  0  0  0  0
   57.7460   32.7180   51.4970 O   0  0  0  0  0  0  0  0  0  0  0  0
   58.2020   33.5880   52.5280 C   0  0  0  0  0  0  0  0  0  0  0  0
   59.6060   32.4700   49.9070 C   0  0  0  0  0  0  0  0  0  0  0  0
   59.2210   32.2360   46.1430 C   0  0  0  0  0  0  0  0  0  0  0  0
   56.9025   29.7426   44.3058 H   0  0  0  0  0  0  0  0  0  0  0  0
   56.1412   31.1298   43.4555 H   0  0  0  0  0  0  0  0  0  0  0  0
   57.9282   30.9474   43.4555 H   0  0  0  0  0  0  0  0  0  0  0  0
   56.9309   34.1994   44.5300 H   0  0  0  0  0  0  0  0  0  0  0  0
   58.6895   35.9119   44.9717 H   0  0  0  0  0  0  0  0  0  0  0  0
   60.7878   35.2773   46.1557 H   0  0  0  0  0  0  0  0  0  0  0  0
   64.5620   32.7040   47.4920 H   0  0  0  0  0  0  0  0  0  0  0  0
   63.2640   31.6925   49.4987 H   0  0  0  0  0  0  0  0  0  0  0  0
   60.8771   29.6038   48.5459 H   0  0  0  0  0  0  0  0  0  0  0  0
   59.0649   28.6139   49.9345 H   0  0  0  0  0  0  0  0  0  0  0  0
   57.6037   29.0353   53.3266 H   0  0  0  0  0  0  0  0  0  0  0  0
   58.0978   30.7620   53.2951 H   0  0  0  0  0  0  0  0  0  0  0  0
   56.3551   30.3263   53.2951 H   0  0  0  0  0  0  0  0  0  0  0  0
   57.9708   33.1470   53.5088 H   0  0  0  0  0  0  0  0  0  0  0  0
   59.2892   33.7276   52.4358 H   0  0  0  0  0  0  0  0  0  0  0  0
   57.6982   34.5615   52.4358 H   0  0  0  0  0  0  0  0  0  0  0  0
   59.7450   33.5608   49.8791 H   0  0  0  0  0  0  0  0  0  0  0  0
   59.3796   31.1948   46.4604 H   0  0  0  0  0  0  0  0  0  0  0  0
  1  2  1  0
  2  3  1  0
  3  4  2  0
  4  5  1  0
  5  6  2  0
  6  7  1  0
  7  8  1  0
  8  9  2  0
  9 10  1  0
 10 11  2  0
 11 12  1  0
 12 13  1  0
 13 14  2  0
 14 15  1  0
 15 16  2  0
 16 17  1  0
 17 18  1  0
 16 19  1  0
 19 20  1  0
 20 21  1  0
 19 22  2  0
  7 23  2  0
 23  3  1  0
 12  8  1  0
 22 13  1  0
  1 24  1  0
  1 25  1  0
  1 26  1  0
  4 27  1  0
  5 28  1  0
  6 29  1  0
 10 30  1  0
 11 31  1  0
 14 32  1  0
 15 33  1  0
 18 34  1  0
 18 35  1  0
 18 36  1  0
 21 37  1  0
 21 38  1  0
 21 39  1  0
 22 40  1  0
 23 41  1  0
M  CHG  1  10   1
M  END
>  <UniqueID>  (32) 
31

>  <SMILES>  (32) 
COc1cccc(-c2n[nH+]cn2-c2ccc(OC)c(OC)c2)c1

>  <Energy>  (32) 
84.68825699481438

>  <Genealogy>  (32) 
COc1cccc(-c2n[nH+]cn2-c2ccc(OC)c(OC)c2)c1 (protonated)
COc1cccc(-c2n[nH+]cn2-c2ccc(OC)c(OC)c2)c1 (3D coordinates assigned)
COc1cccc(-c2n[nH+]cn2-c2ccc(OC)c(OC)c2)c1 (optimized conformer: 84.68825699481438 kcal/mol)

>  <smiles>  (32) 
COc1cccc(-c2nncn2-c2ccc(OC)c(OC)c2)c1

>  <score_type>  (32) 
oracle

>  <origin>  (32) 
adg

>  <m_score__min__energy>  (32) 
-5.8700000000000001

>  <m_primary>  (32) 
energy

$$$$
32:0
     RDKit          3D

 45 48  0  0  0  0  0  0  0  0999 V2000
   59.2720   33.4760   48.9740 C   0  0  0  0  0  0  0  0  0  0  0  0
   60.6150   33.4400   48.2930 C   0  0  0  0  0  0  0  0  0  0  0  0
   61.7270   32.9470   49.0000 C   0  0  0  0  0  0  0  0  0  0  0  0
   62.9840   32.8880   48.3960 C   0  0  0  0  0  0  0  0  0  0  0  0
   63.1470   33.3180   47.0800 C   0  0  0  0  0  0  0  0  0  0  0  0
   62.0570   33.8120   46.3640 C   0  0  0  0  0  0  0  0  0  0  0  0
   60.7840   33.8910   46.9590 C   0  0  0  0  0  0  0  0  0  0  0  0
   59.6250   34.3960   46.1310 C   0  0  0  0  0  0  0  0  0  0  0  0
   58.7230   33.2990   45.7950 N   0  0  0  0  0  0  0  0  0  0  0  0
   58.9160   31.9910   46.0370 C   0  0  0  0  0  0  0  0  0  0  0  0
   57.8100   31.3280   45.5290 C   0  0  0  0  0  0  0  0  0  0  0  0
   57.5960   29.8240   45.4390 C   0  0  2  0  0  0  0  0  0  0  0  0
   56.2190   29.5920   45.2450 O   0  0  0  0  0  0  0  0  0  0  0  0
   58.0360   29.1170   46.7690 C   0  0  0  0  0  0  0  0  0  0  0  0
   59.0240   28.0390   46.5200 N   0  0  0  0  0  0  0  0  0  0  0  0
   60.2450   28.6250   45.9140 C   0  0  0  0  0  0  0  0  0  0  0  0
   59.9240   29.3160   44.5670 C   0  0  0  0  0  0  0  0  0  0  0  0
   58.4150   29.1770   44.2720 C   0  0  0  0  0  0  0  0  0  0  0  0
   58.0980   27.6680   44.2260 C   0  0  0  0  0  0  0  0  0  0  0  0
   58.4430   27.0350   45.5970 C   0  0  0  0  0  0  0  0  0  0  0  0
   57.0060   32.2480   44.9480 N   0  0  0  0  0  0  0  0  0  0  0  0
   57.5800   33.4240   45.1390 N   0  0  0  0  0  0  0  0  0  0  0  0
   59.4138   33.4722   50.0648 H   0  0  0  0  0  0  0  0  0  0  0  0
   58.7348   34.3889   48.6773 H   0  0  0  0  0  0  0  0  0  0  0  0
   58.6866   32.5932   48.6773 H   0  0  0  0  0  0  0  0  0  0  0  0
   61.6047   32.6049   50.0383 H   0  0  0  0  0  0  0  0  0  0  0  0
   63.8466   32.5019   48.9589 H   0  0  0  0  0  0  0  0  0  0  0  0
   64.1379   33.2675   46.6051 H   0  0  0  0  0  0  0  0  0  0  0  0
   62.1935   34.1432   45.3240 H   0  0  0  0  0  0  0  0  0  0  0  0
   59.0737   35.1556   46.7046 H   0  0  0  0  0  0  0  0  0  0  0  0
   60.0156   34.8342   45.2007 H   0  0  0  0  0  0  0  0  0  0  0  0
   59.7821   31.5359   46.5398 H   0  0  0  0  0  0  0  0  0  0  0  0
   55.7620   30.4740   45.2320 H   0  0  0  0  0  0  0  0  0  0  0  0
   58.4866   29.8653   47.4376 H   0  0  0  0  0  0  0  0  0  0  0  0
   57.1440   28.6638   47.2262 H   0  0  0  0  0  0  0  0  0  0  0  0
   60.6684   29.3675   46.6064 H   0  0  0  0  0  0  0  0  0  0  0  0
   60.9649   27.8145   45.7272 H   0  0  0  0  0  0  0  0  0  0  0  0
   60.1904   30.3815   44.6275 H   0  0  0  0  0  0  0  0  0  0  0  0
   60.5033   28.8417   43.7611 H   0  0  0  0  0  0  0  0  0  0  0  0
   58.1551   29.6730   43.3252 H   0  0  0  0  0  0  0  0  0  0  0  0
   57.0289   27.5227   44.0119 H   0  0  0  0  0  0  0  0  0  0  0  0
   58.6944   27.1882   43.4360 H   0  0  0  0  0  0  0  0  0  0  0  0
   57.5253   26.6252   46.0441 H   0  0  0  0  0  0  0  0  0  0  0  0
   59.1850   26.2390   45.4363 H   0  0  0  0  0  0  0  0  0  0  0  0
   57.1860   34.3300   44.7990 H   0  0  0  0  0  0  0  0  0  0  0  0
  1  2  1  0
  2  3  2  0
  3  4  1  0
  4  5  2  0
  5  6  1  0
  6  7  2  0
  7  8  1  0
  8  9  1  0
  9 10  1  0
 10 11  2  0
 11 12  1  0
 12 13  1  6
 12 14  1  0
 14 15  1  0
 15 16  1  0
 16 17  1  0
 17 18  1  0
 18 19  1  0
 19 20  1  0
 11 21  1  0
 21 22  2  0
  7  2  1  0
 22  9  1  0
 18 12  1  0
 20 15  1  0
  1 23  1  0
  1 24  1  0
  1 25  1  0
  3 26  1  0
  4 27  1  0
  5 28  1  0
  6 29  1  0
  8 30  1  0
  8 31  1  0
 10 32  1  0
 13 33  1  0
 14 34  1  0
 14 35  1  0
 16 36  1  0
 16 37  1  0
 17 38  1  0
 17 39  1  0
 18 40  1  0
 19 41  1  0
 19 42  1  0
 20 43  1  0
 20 44  1  0
 22 45  1  0
M  CHG  1  22   1
M  END
>  <UniqueID>  (33) 
32

>  <SMILES>  (33) 
Cc1ccccc1Cn1cc([C@]2(O)CN3CCC2CC3)n[nH+]1

>  <Energy>  (33) 
99.89417925418482

>  <Genealogy>  (33) 
Cc1ccccc1Cn1cc(C2(O)CN3CCC2CC3)n[nH+]1 (protonated)
Cc1ccccc1Cn1cc([C@]2(O)CN3CCC2CC3)n[nH+]1 (chirality)
Cc1ccccc1Cn1cc([C@]2(O)CN3CCC2CC3)n[nH+]1 (3D coordinates assigned)
Cc1ccccc1Cn1cc([C@]2(O)CN3CCC2CC3)n[nH+]1 (nonaromatic ring conformer: 99.89417925418482 kcal/mol)

>  <smiles>  (33) 
Cc1ccccc1Cn1cc(C2(O)CN3CCC2CC3)nn1

>  <score_type>  (33) 
oracle

>  <origin>  (33) 
adg

>  <m_score__min__energy>  (33) 
-7.0700000000000003

>  <m_primary>  (33) 
energy

$$$$
33:0
     RDKit          3D

 33 34  0  0  0  0  0  0  0  0999 V2000
   58.8400   31.9540   49.3390 C   0  0  0  0  0  0  0  0  0  0  0  0
   59.1880   32.9920   48.7870 C   0  0  0  0  0  0  0  0  0  0  0  0
   59.6320   34.2360   48.1210 C   0  0  0  0  0  0  0  0  0  0  0  0
   59.7030   34.0630   46.7350 N   0  0  0  0  0  0  0  0  0  0  0  0
   60.9380   34.1370   46.0730 C   0  0  0  0  0  0  0  0  0  0  0  0
   62.0440   33.5210   46.8470 C   0  0  0  0  0  0  0  0  0  0  0  0
   62.9730   33.0210   47.4750 C   0  0  0  0  0  0  0  0  0  0  0  0
   58.5930   34.2590   45.9100 C   0  0  0  0  0  0  0  0  0  0  0  0
   58.1910   33.0730   45.1100 C   0  0  0  0  0  0  0  0  0  0  0  0
   58.1510   33.2110   43.7400 C   0  0  0  0  0  0  0  0  0  0  0  0
   57.7650   32.1590   42.9080 C   0  0  0  0  0  0  0  0  0  0  0  0
   57.7280   32.3400   41.4370 C   0  0  0  0  0  0  0  0  0  0  0  0
   57.4270   30.9730   43.5260 C   0  0  0  0  0  0  0  0  0  0  0  0
   57.0210   29.7960   43.0460 N   0  0  0  0  0  0  0  0  0  0  0  0
   56.8170   28.9690   44.0460 N   0  0  0  0  0  0  0  0  0  0  0  0
   57.0810   29.5650   45.2250 C   0  0  0  0  0  0  0  0  0  0  0  0
   57.4710   30.8430   44.9020 C   0  0  0  0  0  0  0  0  0  0  0  0
   57.8520   31.8790   45.7420 C   0  0  0  0  0  0  0  0  0  0  0  0
   58.5278   31.0227   49.8342 H   0  0  0  0  0  0  0  0  0  0  0  0
   58.9167   35.0405   48.3472 H   0  0  0  0  0  0  0  0  0  0  0  0
   60.6336   34.4958   48.4942 H   0  0  0  0  0  0  0  0  0  0  0  0
   60.8513   33.6155   45.1084 H   0  0  0  0  0  0  0  0  0  0  0  0
   61.1795   35.2021   45.9413 H   0  0  0  0  0  0  0  0  0  0  0  0
   63.8053   32.5730   48.0376 H   0  0  0  0  0  0  0  0  0  0  0  0
   57.7421   34.5474   46.5447 H   0  0  0  0  0  0  0  0  0  0  0  0
   58.8797   35.0364   45.1865 H   0  0  0  0  0  0  0  0  0  0  0  0
   58.4305   34.1751   43.2902 H   0  0  0  0  0  0  0  0  0  0  0  0
   57.5128   33.3929   41.2024 H   0  0  0  0  0  0  0  0  0  0  0  0
   58.7018   32.0606   41.0086 H   0  0  0  0  0  0  0  0  0  0  0  0
   56.9419   31.7008   41.0086 H   0  0  0  0  0  0  0  0  0  0  0  0
   56.4880   27.9770   43.8810 H   0  0  0  0  0  0  0  0  0  0  0  0
   57.0016   29.1240   46.2296 H   0  0  0  0  0  0  0  0  0  0  0  0
   57.8843   31.7651   46.8356 H   0  0  0  0  0  0  0  0  0  0  0  0
  1  2  3  0
  2  3  1  0
  3  4  1  0
  4  5  1  0
  5  6  1  0
  6  7  3  0
  4  8  1  0
  8  9  1  0
  9 10  1  0
 10 11  2  0
 11 12  1  0
 11 13  1  0
 13 14  2  0
 14 15  1  0
 15 16  1  0
 16 17  2  0
 17 18  1  0
 18  9  2  0
 17 13  1  0
  1 19  1  0
  3 20  1  0
  3 21  1  0
  5 22  1  0
  5 23  1  0
  7 24  1  0
  8 25  1  0
  8 26  1  0
 10 27  1  0
 12 28  1  0
 12 29  1  0
 12 30  1  0
 15 31  1  0
 16 32  1  0
 18 33  1  0
M  END
>  <smiles>  (34) 
C#CCN(CC#C)Cc1cc(C)c2n[nH]cc2c1

>  <score_type>  (34) 
oracle

>  <origin>  (34) 
adg

>  <m_score__min__energy>  (34) 
-6.3399999999999999

>  <m_primary>  (34) 
energy

$$$$
34:0
     RDKit          3D

 41 42  0  0  0  0  0  0  0  0999 V2000
   59.8930   28.9640   44.8590 C   0  0  0  0  0  0  0  0  0  0  0  0
   58.5650   29.4540   45.2650 N   0  0  0  0  0  0  0  0  0  0  0  0
   58.0590   28.6280   46.3740 C   0  0  0  0  0  0  0  0  0  0  0  0
   57.6360   29.4280   44.1140 C   0  0  0  0  0  0  0  0  0  0  0  0
   57.2020   30.8500   43.7380 C   0  0  0  0  0  0  0  0  0  0  0  0
   56.7670   31.5810   44.9230 N   0  0  0  0  0  0  0  0  0  0  0  0
   57.2600   32.8750   45.2880 C   0  0  0  0  0  0  0  0  0  0  0  0
   56.6640   33.9100   44.8820 O   0  0  0  0  0  0  0  0  0  0  0  0
   58.4720   32.9960   46.1320 C   0  0  0  0  0  0  0  0  0  0  0  0
   58.8540   34.2460   46.6500 C   0  0  0  0  0  0  0  0  0  0  0  0
   59.9970   34.3450   47.4440 C   0  0  0  0  0  0  0  0  0  0  0  0
   60.7510   33.2030   47.7210 C   0  0  0  0  0  0  0  0  0  0  0  0
   61.9310   33.2910   48.5400 C   0  0  0  0  0  0  0  0  0  0  0  0
   62.9210   33.3630   49.2260 C   0  0  0  0  0  0  0  0  0  0  0  0
   64.1010   33.4510   50.0450 C   0  0  0  0  0  0  0  0  0  0  0  0
   64.0980   34.2480   51.1980 C   0  0  0  0  0  0  0  0  0  0  0  0
   65.2450   34.3310   51.9940 C   0  0  0  0  0  0  0  0  0  0  0  0
   66.3960   33.6200   51.6400 C   0  0  0  0  0  0  0  0  0  0  0  0
   66.4010   32.8230   50.4900 C   0  0  0  0  0  0  0  0  0  0  0  0
   67.5180   32.1340   50.1490 F   0  0  0  0  0  0  0  0  0  0  0  0
   65.2550   32.7380   49.6920 C   0  0  0  0  0  0  0  0  0  0  0  0
   60.3460   31.9740   47.1940 C   0  0  0  0  0  0  0  0  0  0  0  0
   59.2290   31.8940   46.4190 N   0  0  0  0  0  0  0  0  0  0  0  0
   60.4919   28.7430   45.7548 H   0  0  0  0  0  0  0  0  0  0  0  0
   59.7786   28.0489   44.2595 H   0  0  0  0  0  0  0  0  0  0  0  0
   60.4004   29.7341   44.2595 H   0  0  0  0  0  0  0  0  0  0  0  0
   58.3410   29.0884   47.3324 H   0  0  0  0  0  0  0  0  0  0  0  0
   56.9631   28.5585   46.3090 H   0  0  0  0  0  0  0  0  0  0  0  0
   58.4949   27.6201   46.3090 H   0  0  0  0  0  0  0  0  0  0  0  0
   58.1400   28.9644   43.2531 H   0  0  0  0  0  0  0  0  0  0  0  0
   56.7442   28.8468   44.3913 H   0  0  0  0  0  0  0  0  0  0  0  0
   58.0505   31.3779   43.2781 H   0  0  0  0  0  0  0  0  0  0  0  0
   56.3633   30.7904   43.0287 H   0  0  0  0  0  0  0  0  0  0  0  0
   58.2545   35.1417   46.4303 H   0  0  0  0  0  0  0  0  0  0  0  0
   60.3033   35.3201   47.8506 H   0  0  0  0  0  0  0  0  0  0  0  0
   63.1934   34.8083   51.4769 H   0  0  0  0  0  0  0  0  0  0  0  0
   65.2417   34.9560   52.8992 H   0  0  0  0  0  0  0  0  0  0  0  0
   67.2980   33.6873   52.2660 H   0  0  0  0  0  0  0  0  0  0  0  0
   65.2596   32.1117   48.7877 H   0  0  0  0  0  0  0  0  0  0  0  0
   60.9317   31.0674   47.4059 H   0  0  0  0  0  0  0  0  0  0  0  0
   58.9620   30.9560   46.0450 H   0  0  0  0  0  0  0  0  0  0  0  0
  1  2  1  0
  2  3  1  0
  2  4  1  0
  4  5  1  0
  5  6  1  0
  6  7  1  0
  7  8  2  0
  7  9  1  0
  9 10  2  0
 10 11  1  0
 11 12  2  0
 12 13  1  0
 13 14  3  0
 14 15  1  0
 15 16  2  0
 16 17  1  0
 17 18  2  0
 18 19  1  0
 19 20  1  0
 19 21  2  0
 12 22  1  0
 22 23  2  0
 23  9  1  0
 21 15  1  0
  1 24  1  0
  1 25  1  0
  1 26  1  0
  3 27  1  0
  3 28  1  0
  3 29  1  0
  4 30  1  0
  4 31  1  0
  5 32  1  0
  5 33  1  0
 10 34  1  0
 11 35  1  0
 16 36  1  0
 17 37  1  0
 18 38  1  0
 21 39  1  0
 22 40  1  0
 23 41  1  0
M  CHG  2   6  -1  23   1
M  END
>  <UniqueID>  (35) 
33

>  <SMILES>  (35) 
CN(C)CC[N-]C(=O)c1ccc(C#Cc2cccc(F)c2)c[nH+]1

>  <Energy>  (35) 
35.2565749764211

>  <Genealogy>  (35) 
CN(C)CC[N-]C(=O)c1ccc(C#Cc2cccc(F)c2)c[nH+]1 (protonated)
CN(C)CC[N-]C(=O)c1ccc(C#Cc2cccc(F)c2)c[nH+]1 (3D coordinates assigned)
CN(C)CC[N-]C(=O)c1ccc(C#Cc2cccc(F)c2)c[nH+]1 (optimized conformer: 35.2565749764211 kcal/mol)

>  <smiles>  (35) 
CN(C)CCNC(=O)c1ccc(C#Cc2cccc(F)c2)cn1

>  <score_type>  (35) 
oracle

>  <origin>  (35) 
adg

>  <m_score__min__energy>  (35) 
-6.0300000000000002

>  <m_primary>  (35) 
energy

$$$$
35:0
     RDKit          3D

 29 31  0  0  0  0  0  0  0  0999 V2000
   63.8740   33.0860   49.3020 C   0  0  0  0  0  0  0  0  0  0  0  0
   62.8730   33.4090   48.2940 N   0  0  0  0  0  0  0  0  0  0  0  0
   63.0470   33.4200   46.9570 C   0  0  0  0  0  0  0  0  0  0  0  0
   61.8730   33.8530   46.3740 C   0  0  0  0  0  0  0  0  0  0  0  0
   60.9910   34.1300   47.3560 N   0  0  0  0  0  0  0  0  0  0  0  0
   59.6050   34.5550   47.1920 C   0  0  0  0  0  0  0  0  0  0  0  0
   58.9160   33.6660   46.2060 C   0  0  0  0  0  0  0  0  0  0  0  0
   58.8990   33.8560   44.8250 C   0  0  0  0  0  0  0  0  0  0  0  0
   58.2500   32.8140   44.1550 C   0  0  0  0  0  0  0  0  0  0  0  0
   58.0650   32.7110   42.7740 C   0  0  0  0  0  0  0  0  0  0  0  0
   57.3930   31.5850   42.2640 C   0  0  0  0  0  0  0  0  0  0  0  0
   56.9230   30.5810   43.1330 C   0  0  0  0  0  0  0  0  0  0  0  0
   57.1170   30.6930   44.5180 C   0  0  0  0  0  0  0  0  0  0  0  0
   57.7830   31.8180   45.0000 C   0  0  0  0  0  0  0  0  0  0  0  0
   58.1610   32.2010   46.5900 S   0  0  0  0  0  0  0  0  0  0  0  0
   61.6200   33.8510   48.5140 C   0  0  0  0  0  0  0  0  0  0  0  0
   63.4430   33.2251   50.3045 H   0  0  0  0  0  0  0  0  0  0  0  0
   64.1916   32.0398   49.1813 H   0  0  0  0  0  0  0  0  0  0  0  0
   64.7432   33.7493   49.1813 H   0  0  0  0  0  0  0  0  0  0  0  0
   63.9652   33.1336   46.4233 H   0  0  0  0  0  0  0  0  0  0  0  0
   61.6886   33.9546   45.2943 H   0  0  0  0  0  0  0  0  0  0  0  0
   59.0877   34.4957   48.1610 H   0  0  0  0  0  0  0  0  0  0  0  0
   59.5839   35.5912   46.8235 H   0  0  0  0  0  0  0  0  0  0  0  0
   59.3449   34.7257   44.3202 H   0  0  0  0  0  0  0  0  0  0  0  0
   58.4375   33.4951   42.0985 H   0  0  0  0  0  0  0  0  0  0  0  0
   57.2337   31.4881   41.1799 H   0  0  0  0  0  0  0  0  0  0  0  0
   56.4007   29.7039   42.7233 H   0  0  0  0  0  0  0  0  0  0  0  0
   56.7534   29.9142   45.2044 H   0  0  0  0  0  0  0  0  0  0  0  0
   61.1687   33.9689   49.5102 H   0  0  0  0  0  0  0  0  0  0  0  0
  1  2  1  0
  2  3  1  0
  3  4  2  0
  4  5  1  0
  5  6  1  0
  6  7  1  0
  7  8  2  0
  8  9  1  0
  9 10  2  0
 10 11  1  0
 11 12  2  0
 12 13  1  0
 13 14  2  0
 14 15  1  0
  5 16  1  0
 16  2  2  0
 15  7  1  0
 14  9  1  0
  1 17  1  0
  1 18  1  0
  1 19  1  0
  3 20  1  0
  4 21  1  0
  6 22  1  0
  6 23  1  0
  8 24  1  0
 10 25  1  0
 11 26  1  0
 12 27  1  0
 13 28  1  0
 16 29  1  0
M  CHG  1   2   1
M  END
>  <UniqueID>  (36) 
34

>  <SMILES>  (36) 
C[n+]1ccn(Cc2cc3ccccc3s2)c1

>  <Energy>  (36) 
89.17793527410959

>  <Genealogy>  (36) 
C[n+]1ccn(Cc2cc3ccccc3s2)c1 (3D coordinates assigned)
C[n+]1ccn(Cc2cc3ccccc3s2)c1 (optimized conformer: 89.17793527410959 kcal/mol)

>  <smiles>  (36) 
C[n+]1ccn(Cc2cc3ccccc3s2)c1

>  <score_type>  (36) 
oracle

>  <origin>  (36) 
adg

>  <m_score__min__energy>  (36) 
-5.0599999999999996

>  <m_primary>  (36) 
energy

$$$$
36:0
     RDKit          3D

 37 40  0  0  0  0  0  0  0  0999 V2000
   63.8410   33.0640   47.5510 C   0  0  0  0  0  0  0  0  0  0  0  0
   63.3830   33.8780   48.5900 C   0  0  0  0  0  0  0  0  0  0  0  0
   62.1790   33.5800   49.2330 C   0  0  0  0  0  0  0  0  0  0  0  0
   61.4280   32.4560   48.8510 C   0  0  0  0  0  0  0  0  0  0  0  0
   60.1470   32.1600   49.5320 C   0  0  0  0  0  0  0  0  0  0  0  0
   60.1900   31.4720   50.7040 N   0  0  0  0  0  0  0  0  0  0  0  0
   59.0690   31.2060   51.4210 C   0  0  0  0  0  0  0  0  0  0  0  0
   59.1490   30.4980   52.6240 C   0  0  0  0  0  0  0  0  0  0  0  0
   57.9870   30.2390   53.3580 C   0  0  0  0  0  0  0  0  0  0  0  0
   56.7470   30.6860   52.8910 C   0  0  0  0  0  0  0  0  0  0  0  0
   56.6610   31.3940   51.6880 C   0  0  0  0  0  0  0  0  0  0  0  0
   57.8240   31.6590   50.9460 C   0  0  0  0  0  0  0  0  0  0  0  0
   57.7650   32.3380   49.7670 N   0  0  0  0  0  0  0  0  0  0  0  0
   58.8890   32.5890   49.0320 C   0  0  0  0  0  0  0  0  0  0  0  0
   58.7490   33.2540   47.7150 C   0  0  0  0  0  0  0  0  0  0  0  0
   59.4730   34.4260   47.4390 C   0  0  0  0  0  0  0  0  0  0  0  0
   59.3420   35.0610   46.2000 C   0  0  0  0  0  0  0  0  0  0  0  0
   58.4810   34.5370   45.2320 C   0  0  0  0  0  0  0  0  0  0  0  0
   57.7450   33.3790   45.5030 C   0  0  0  0  0  0  0  0  0  0  0  0
   57.8730   32.7430   46.7410 C   0  0  0  0  0  0  0  0  0  0  0  0
   61.8860   31.6560   47.7880 C   0  0  0  0  0  0  0  0  0  0  0  0
   63.0910   31.9560   47.1470 C   0  0  0  0  0  0  0  0  0  0  0  0
   64.7928   33.2954   47.0504 H   0  0  0  0  0  0  0  0  0  0  0  0
   63.9707   34.7540   48.9019 H   0  0  0  0  0  0  0  0  0  0  0  0
   61.8168   34.2296   50.0435 H   0  0  0  0  0  0  0  0  0  0  0  0
   60.1237   30.1455   52.9923 H   0  0  0  0  0  0  0  0  0  0  0  0
   58.0486   29.6824   54.3048 H   0  0  0  0  0  0  0  0  0  0  0  0
   55.8359   30.4800   53.4720 H   0  0  0  0  0  0  0  0  0  0  0  0
   55.6837   31.7430   51.3232 H   0  0  0  0  0  0  0  0  0  0  0  0
   56.8350   32.6490   49.4020 H   0  0  0  0  0  0  0  0  0  0  0  0
   60.1460   34.8460   48.2010 H   0  0  0  0  0  0  0  0  0  0  0  0
   59.9174   35.9740   45.9871 H   0  0  0  0  0  0  0  0  0  0  0  0
   58.3821   35.0355   44.2565 H   0  0  0  0  0  0  0  0  0  0  0  0
   57.0653   32.9687   44.7417 H   0  0  0  0  0  0  0  0  0  0  0  0
   57.2854   31.8380   46.9545 H   0  0  0  0  0  0  0  0  0  0  0  0
   61.2925   30.7900   47.4598 H   0  0  0  0  0  0  0  0  0  0  0  0
   63.4493   31.3199   46.3242 H   0  0  0  0  0  0  0  0  0  0  0  0
  1  2  2  0
  2  3  1  0
  3  4  2  0
  4  5  1  0
  5  6  2  0
  6  7  1  0
  7  8  2  0
  8  9  1  0
  9 10  2  0
 10 11  1  0
 11 12  2  0
 12 13  1  0
 13 14  2  0
 14 15  1  0
 15 16  2  0
 16 17  1  0
 17 18  2  0
 18 19  1  0
 19 20  2  0
  4 21  1  0
 21 22  2  0
 22  1  1  0
 14  5  1  0
 20 15  1  0
 12  7  1  0
  1 23  1  0
  2 24  1  0
  3 25  1  0
  8 26  1  0
  9 27  1  0
 10 28  1  0
 11 29  1  0
 13 30  1  0
 16 31  1  0
 17 32  1  0
 18 33  1  0
 19 34  1  0
 20 35  1  0
 21 36  1  0
 22 37  1  0
M  CHG  1  13   1
M  END
>  <UniqueID>  (37) 
35

>  <SMILES>  (37) 
c1ccc(-c2nc3ccccc3[nH+]c2-c2ccccc2)cc1

>  <Energy>  (37) 
57.44769447276805

>  <Genealogy>  (37) 
c1ccc(-c2nc3ccccc3[nH+]c2-c2ccccc2)cc1 (protonated)
c1ccc(-c2nc3ccccc3[nH+]c2-c2ccccc2)cc1 (3D coordinates assigned)
c1ccc(-c2nc3ccccc3[nH+]c2-c2ccccc2)cc1 (optimized conformer: 57.44769447276805 kcal/mol)

>  <smiles>  (37) 
c1ccc(-c2nc3ccccc3nc2-c2ccccc2)cc1

>  <score_type>  (37) 
oracle

>  <origin>  (37) 
adg

>  <m_score__min__energy>  (37) 
-5.8700000000000001

>  <m_primary>  (37) 
energy

$$$$
37:0
     RDKit          3D

 39 39  0  0  0  0  0  0  0  0999 V2000
   61.7860   34.1270   49.0950 C   0  0  0  0  0  0  0  0  0  0  0  0
   60.4670   34.5910   48.8270 O   0  0  0  0  0  0  0  0  0  0  0  0
   59.7420   34.2880   47.6650 C   0  0  0  0  0  0  0  0  0  0  0  0
   59.9590   34.9560   46.4440 C   0  0  0  0  0  0  0  0  0  0  0  0
   59.2100   34.6160   45.3120 C   0  0  0  0  0  0  0  0  0  0  0  0
   58.2350   33.6090   45.3830 C   0  0  0  0  0  0  0  0  0  0  0  0
   57.4450   33.2210   44.1610 C   0  0  0  0  0  0  0  0  0  0  0  0
   58.1490   32.1800   43.4010 N   0  0  0  0  0  0  0  0  0  0  0  0
   57.2710   31.5700   42.3950 C   0  0  0  0  0  0  0  0  0  0  0  0
   56.4340   30.4610   43.0360 C   0  0  0  0  0  0  0  0  0  0  0  0
   56.6340   30.4460   44.4940 N   0  0  0  0  0  0  0  0  0  0  0  0
   57.0080   29.1070   44.9710 C   0  0  0  0  0  0  0  0  0  0  0  0
   58.5320   29.0050   45.1120 C   0  0  2  0  0  0  0  0  0  0  0  0
   58.9630   29.3390   46.5440 C   0  0  0  0  0  0  0  0  0  0  0  0
   59.1430   29.8950   44.2140 O   0  0  0  0  0  0  0  0  0  0  0  0
   58.0240   32.9410   46.5980 C   0  0  0  0  0  0  0  0  0  0  0  0
   58.7720   33.2810   47.7300 C   0  0  0  0  0  0  0  0  0  0  0  0
   61.9415   34.0723   50.1826 H   0  0  0  0  0  0  0  0  0  0  0  0
   61.9197   33.1279   48.6547 H   0  0  0  0  0  0  0  0  0  0  0  0
   62.5158   34.8224   48.6547 H   0  0  0  0  0  0  0  0  0  0  0  0
   60.7200   35.7477   46.3802 H   0  0  0  0  0  0  0  0  0  0  0  0
   59.3863   35.1408   44.3615 H   0  0  0  0  0  0  0  0  0  0  0  0
   56.4615   32.8390   44.4723 H   0  0  0  0  0  0  0  0  0  0  0  0
   57.3231   34.1071   43.5207 H   0  0  0  0  0  0  0  0  0  0  0  0
   58.4260   31.4310   44.0780 H   0  0  0  0  0  0  0  0  0  0  0  0
   56.6018   32.3387   41.9811 H   0  0  0  0  0  0  0  0  0  0  0  0
   57.8864   31.1398   41.5911 H   0  0  0  0  0  0  0  0  0  0  0  0
   55.3704   30.6373   42.8177 H   0  0  0  0  0  0  0  0  0  0  0  0
   56.7487   29.4916   42.6223 H   0  0  0  0  0  0  0  0  0  0  0  0
   57.4290   31.0920   44.7130 H   0  0  0  0  0  0  0  0  0  0  0  0
   56.5390   28.9250   45.9492 H   0  0  0  0  0  0  0  0  0  0  0  0
   56.6623   28.3563   44.2451 H   0  0  0  0  0  0  0  0  0  0  0  0
   58.8429   27.9748   44.8841 H   0  0  0  0  0  0  0  0  0  0  0  0
   58.3000   28.8252   47.2557 H   0  0  0  0  0  0  0  0  0  0  0  0
   59.9993   29.0058   46.7021 H   0  0  0  0  0  0  0  0  0  0  0  0
   58.8990   30.4257   46.7021 H   0  0  0  0  0  0  0  0  0  0  0  0
   58.5190   30.0040   43.4500 H   0  0  0  0  0  0  0  0  0  0  0  0
   57.2666   32.1458   46.6610 H   0  0  0  0  0  0  0  0  0  0  0  0
   58.5965   32.7528   48.6788 H   0  0  0  0  0  0  0  0  0  0  0  0
  1  2  1  0
  2  3  1  0
  3  4  2  0
  4  5  1  0
  5  6  2  0
  6  7  1  0
  7  8  1  0
  8  9  1  0
  9 10  1  0
 10 11  1  0
 11 12  1  0
 12 13  1  0
 13 14  1  0
 13 15  1  0
  6 16  1  0
 16 17  2  0
 17  3  1  0
  1 18  1  0
  1 19  1  0
  1 20  1  0
  4 21  1  0
  5 22  1  0
  7 23  1  0
  7 24  1  0
  8 25  1  0
  9 26  1  0
  9 27  1  0
 10 28  1  0
 10 29  1  0
 11 30  1  0
 12 31  1  0
 12 32  1  0
 13 33  1  6
 14 34  1  0
 14 35  1  0
 14 36  1  0
 15 37  1  0
 16 38  1  0
 17 39  1  0
M  END
>  <UniqueID>  (38) 
36

>  <SMILES>  (38) 
COc1ccc(CNCCNC[C@H](C)O)cc1

>  <Energy>  (38) 
27.594767329927542

>  <Genealogy>  (38) 
COc1ccc(CNCCNC[C@H](C)O)cc1 (chirality)
COc1ccc(CNCCNC[C@H](C)O)cc1 (3D coordinates assigned)
COc1ccc(CNCCNC[C@H](C)O)cc1 (optimized conformer: 27.594767329927542 kcal/mol)

>  <smiles>  (38) 
COc1ccc(CNCCNCC(C)O)cc1

>  <score_type>  (38) 
oracle

>  <origin>  (38) 
adg

>  <m_score__min__energy>  (38) 
-5.6900000000000004

>  <m_primary>  (38) 
energy

$$$$
38:0
     RDKit          3D

 59 62  0  0  0  0  0  0  0  0999 V2000
   57.0460   22.7400   45.0760 C   0  0  0  0  0  0  0  0  0  0  0  0
   57.3150   24.1390   45.5500 C   0  0  0  0  0  0  0  0  0  0  0  0
   56.2780   25.0870   45.5810 C   0  0  0  0  0  0  0  0  0  0  0  0
   56.5320   26.3990   45.9940 C   0  0  0  0  0  0  0  0  0  0  0  0
   57.8270   26.7780   46.3620 C   0  0  0  0  0  0  0  0  0  0  0  0
   58.0790   28.0570   46.7450 N   0  0  0  0  0  0  0  0  0  0  0  0
   59.3230   28.4900   47.0950 C   0  0  0  0  0  0  0  0  0  0  0  0
   59.5180   29.8780   47.4580 N   0  0  0  0  0  0  0  0  0  0  0  0
   59.1250   30.3150   48.8190 C   0  0  0  0  0  0  0  0  0  0  0  0
   59.3360   31.8100   49.0960 C   0  0  0  0  0  0  0  0  0  0  0  0
   60.5420   32.3280   48.4270 N   0  0  2  0  0  0  0  0  0  0  0  0
   60.9640   33.6730   48.9040 C   0  0  0  0  0  0  0  0  0  0  0  0
   62.4990   33.9260   48.9930 C   0  0  0  0  0  0  0  0  0  0  0  0
   63.3290   32.7980   48.5140 N   0  0  0  0  0  0  0  0  0  0  0  0
   63.7480   32.9480   47.1130 C   0  0  0  0  0  0  0  0  0  0  0  0
   64.4720   32.5070   49.3940 C   0  0  0  0  0  0  0  0  0  0  0  0
   60.4870   32.1670   46.9520 C   0  0  2  0  0  0  0  0  0  0  0  0
   59.4090   32.9920   46.2440 C   0  0  0  0  0  0  0  0  0  0  0  0
   58.0680   32.5610   46.1550 C   0  0  0  0  0  0  0  0  0  0  0  0
   57.1130   33.3400   45.4920 C   0  0  0  0  0  0  0  0  0  0  0  0
   57.4870   34.5480   44.8960 C   0  0  0  0  0  0  0  0  0  0  0  0
   58.8210   34.9620   44.9300 C   0  0  0  0  0  0  0  0  0  0  0  0
   59.7770   34.1790   45.5820 C   0  0  0  0  0  0  0  0  0  0  0  0
   60.3970   30.6740   46.5790 C   0  0  0  0  0  0  0  0  0  0  0  0
   60.3900   27.5720   47.0760 C   0  0  0  0  0  0  0  0  0  0  0  0
   60.1630   26.2500   46.6860 C   0  0  0  0  0  0  0  0  0  0  0  0
   58.8770   25.8390   46.3170 C   0  0  0  0  0  0  0  0  0  0  0  0
   58.6190   24.5230   45.9060 C   0  0  0  0  0  0  0  0  0  0  0  0
   56.9185   22.0768   45.9443 H   0  0  0  0  0  0  0  0  0  0  0  0
   56.1292   22.7287   44.4682 H   0  0  0  0  0  0  0  0  0  0  0  0
   57.8932   22.3895   44.4682 H   0  0  0  0  0  0  0  0  0  0  0  0
   55.2612   24.7957   45.2789 H   0  0  0  0  0  0  0  0  0  0  0  0
   55.7132   27.1327   46.0294 H   0  0  0  0  0  0  0  0  0  0  0  0
   58.0577   30.0877   48.9575 H   0  0  0  0  0  0  0  0  0  0  0  0
   59.7762   29.7730   49.5206 H   0  0  0  0  0  0  0  0  0  0  0  0
   58.4601   32.3664   48.7309 H   0  0  0  0  0  0  0  0  0  0  0  0
   59.4651   31.9408   50.1805 H   0  0  0  0  0  0  0  0  0  0  0  0
   61.3230   31.7030   48.7490 H   0  0  0  0  0  0  0  0  0  0  0  0
   60.5409   34.4200   48.2163 H   0  0  0  0  0  0  0  0  0  0  0  0
   60.5953   33.7455   49.9378 H   0  0  0  0  0  0  0  0  0  0  0  0
   62.7382   34.8121   48.3866 H   0  0  0  0  0  0  0  0  0  0  0  0
   62.7355   34.0620   50.0586 H   0  0  0  0  0  0  0  0  0  0  0  0
   64.7831   33.3186   47.0775 H   0  0  0  0  0  0  0  0  0  0  0  0
   63.6899   31.9733   46.6065 H   0  0  0  0  0  0  0  0  0  0  0  0
   63.0845   33.6644   46.6065 H   0  0  0  0  0  0  0  0  0  0  0  0
   64.1558   32.5875   50.4445 H   0  0  0  0  0  0  0  0  0  0  0  0
   64.8357   31.4876   49.1977 H   0  0  0  0  0  0  0  0  0  0  0  0
   65.2789   33.2284   49.1977 H   0  0  0  0  0  0  0  0  0  0  0  0
   61.4321   32.5855   46.5755 H   0  0  0  0  0  0  0  0  0  0  0  0
   57.7710   31.6048   46.6106 H   0  0  0  0  0  0  0  0  0  0  0  0
   56.0676   33.0017   45.4398 H   0  0  0  0  0  0  0  0  0  0  0  0
   56.7302   35.1733   44.3997 H   0  0  0  0  0  0  0  0  0  0  0  0
   59.1182   35.9031   44.4441 H   0  0  0  0  0  0  0  0  0  0  0  0
   60.8309   34.4940   45.5781 H   0  0  0  0  0  0  0  0  0  0  0  0
   60.0144   30.5988   45.5504 H   0  0  0  0  0  0  0  0  0  0  0  0
   61.4103   30.2608   46.6907 H   0  0  0  0  0  0  0  0  0  0  0  0
   61.4003   27.8950   47.3676 H   0  0  0  0  0  0  0  0  0  0  0  0
   60.9957   25.5314   46.6689 H   0  0  0  0  0  0  0  0  0  0  0  0
   59.4385   23.7906   45.8623 H   0  0  0  0  0  0  0  0  0  0  0  0
  1  2  1  0
  2  3  2  0
  3  4  1  0
  4  5  2  0
  5  6  1  0
  6  7  2  0
  7  8  1  0
  8  9  1  0
  9 10  1  0
 10 11  1  0
 11 12  1  0
 12 13  1  0
 13 14  1  0
 14 15  1  0
 14 16  1  0
 11 17  1  0
 17 18  1  0
 18 19  2  0
 19 20  1  0
 20 21  2  0
 21 22  1  0
 22 23  2  0
 17 24  1  0
  7 25  1  0
 25 26  2  0
 26 27  1  0
 27 28  2  0
 28  2  1  0
 27  5  1  0
 24  8  1  0
 23 18  1  0
  1 29  1  0
  1 30  1  0
  1 31  1  0
  3 32  1  0
  4 33  1  0
  9 34  1  0
  9 35  1  0
 10 36  1  0
 10 37  1  0
 11 38  1  1
 12 39  1  0
 12 40  1  0
 13 41  1  0
 13 42  1  0
 15 43  1  0
 15 44  1  0
 15 45  1  0
 16 46  1  0
 16 47  1  0
 16 48  1  0
 17 49  1  6
 19 50  1  0
 20 51  1  0
 21 52  1  0
 22 53  1  0
 23 54  1  0
 24 55  1  0
 24 56  1  0
 25 57  1  0
 26 58  1  0
 28 59  1  0
M  CHG  1  11   1
M  END
>  <UniqueID>  (39) 
37

>  <SMILES>  (39) 
Cc1ccc2nc(N3CC[N@H+](CCN(C)C)[C@H](c4ccccc4)C3)ccc2c1

>  <Energy>  (39) 
88.65720546375775

>  <Genealogy>  (39) 
Cc1ccc2nc(N3CC[NH+](CCN(C)C)C(c4ccccc4)C3)ccc2c1 (protonated)
Cc1ccc2nc(N3CC[N@H+](CCN(C)C)[C@H](c4ccccc4)C3)ccc2c1 (chirality)
Cc1ccc2nc(N3CC[N@H+](CCN(C)C)[C@H](c4ccccc4)C3)ccc2c1 (3D coordinates assigned)
Cc1ccc2nc(N3CC[N@H+](CCN(C)C)[C@H](c4ccccc4)C3)ccc2c1 (nonaromatic ring conformer: 88.65720546375775 kcal/mol)

>  <smiles>  (39) 
Cc1ccc2nc(N3CCN(CCN(C)C)C(c4ccccc4)C3)ccc2c1

>  <score_type>  (39) 
oracle

>  <origin>  (39) 
adg

>  <m_score__min__energy>  (39) 
-6.4900000000000002

>  <m_primary>  (39) 
energy

$$$$
39:0
     RDKit          3D

 32 34  0  0  0  0  0  0  0  0999 V2000
   58.1210   26.9560   42.8480 C   0  0  0  0  0  0  0  0  0  0  0  0
   57.7750   27.4360   44.1430 O   0  0  0  0  0  0  0  0  0  0  0  0
   58.2680   28.6230   44.7060 C   0  0  0  0  0  0  0  0  0  0  0  0
   59.5360   28.7010   45.3100 C   0  0  0  0  0  0  0  0  0  0  0  0
   59.9890   29.9050   45.8560 C   0  0  0  0  0  0  0  0  0  0  0  0
   59.1860   31.0610   45.7980 C   0  0  0  0  0  0  0  0  0  0  0  0
   59.5920   32.3070   46.3310 C   0  0  0  0  0  0  0  0  0  0  0  0
   60.9310   32.5250   46.9250 C   0  0  0  0  0  0  0  0  0  0  0  0
   61.7740   33.5340   46.4320 C   0  0  0  0  0  0  0  0  0  0  0  0
   63.0270   33.7510   47.0090 C   0  0  0  0  0  0  0  0  0  0  0  0
   63.4470   32.9680   48.0940 C   0  0  0  0  0  0  0  0  0  0  0  0
   64.6950   33.1740   48.6780 O   0  0  0  0  0  0  0  0  0  0  0  0
   62.6050   31.9700   48.5970 C   0  0  0  0  0  0  0  0  0  0  0  0
   61.3500   31.7520   48.0200 C   0  0  0  0  0  0  0  0  0  0  0  0
   58.6990   33.3850   46.2780 C   0  0  0  0  0  0  0  0  0  0  0  0
   57.4490   33.2110   45.6820 C   0  0  0  0  0  0  0  0  0  0  0  0
   56.6430   34.1770   45.6210 O   0  0  0  0  0  0  0  0  0  0  0  0
   57.1010   32.0340   45.1750 O   0  0  0  0  0  0  0  0  0  0  0  0
   57.9020   30.9730   45.2090 C   0  0  0  0  0  0  0  0  0  0  0  0
   57.4600   29.7640   44.6640 C   0  0  0  0  0  0  0  0  0  0  0  0
   58.7617   26.0672   42.9455 H   0  0  0  0  0  0  0  0  0  0  0  0
   57.2057   26.6898   42.2990 H   0  0  0  0  0  0  0  0  0  0  0  0
   58.6629   27.7402   42.2990 H   0  0  0  0  0  0  0  0  0  0  0  0
   60.1760   27.8073   45.3529 H   0  0  0  0  0  0  0  0  0  0  0  0
   60.9787   29.9503   46.3340 H   0  0  0  0  0  0  0  0  0  0  0  0
   61.4456   34.1568   45.5868 H   0  0  0  0  0  0  0  0  0  0  0  0
   63.6857   34.5374   46.6118 H   0  0  0  0  0  0  0  0  0  0  0  0
   65.5510   33.0910   48.1410 H   0  0  0  0  0  0  0  0  0  0  0  0
   62.9312   31.3551   49.4488 H   0  0  0  0  0  0  0  0  0  0  0  0
   60.6885   30.9721   48.4253 H   0  0  0  0  0  0  0  0  0  0  0  0
   58.9805   34.3600   46.7024 H   0  0  0  0  0  0  0  0  0  0  0  0
   56.4656   29.7093   44.1969 H   0  0  0  0  0  0  0  0  0  0  0  0
  1  2  1  0
  2  3  1  0
  3  4  2  0
  4  5  1  0
  5  6  2  0
  6  7  1  0
  7  8  1  0
  8  9  2  0
  9 10  1  0
 10 11  2  0
 11 12  1  0
 11 13  1  0
 13 14  2  0
  7 15  2  0
 15 16  1  0
 16 17  2  0
 16 18  1  0
 18 19  1  0
 19 20  2  0
 20  3  1  0
 19  6  1  0
 14  8  1  0
  1 21  1  0
  1 22  1  0
  1 23  1  0
  4 24  1  0
  5 25  1  0
  9 26  1  0
 10 27  1  0
 12 28  1  0
 13 29  1  0
 14 30  1  0
 15 31  1  0
 20 32  1  0
M  END
>  <UniqueID>  (40) 
38

>  <SMILES>  (40) 
COc1ccc2c(-c3ccc(O)cc3)cc(=O)oc2c1

>  <Energy>  (40) 
46.351220248832625

>  <Genealogy>  (40) 
COc1ccc2c(-c3ccc(O)cc3)cc(=O)oc2c1 (3D coordinates assigned)
COc1ccc2c(-c3ccc(O)cc3)cc(=O)oc2c1 (optimized conformer: 46.351220248832625 kcal/mol)

>  <smiles>  (40) 
COc1ccc2c(-c3ccc(O)cc3)cc(=O)oc2c1

>  <score_type>  (40) 
oracle

>  <origin>  (40) 
adg

>  <m_score__min__energy>  (40) 
-6.3700000000000001

>  <m_primary>  (40) 
energy

$$$$
40:0
     RDKit          3D

 47 48  0  0  0  0  0  0  0  0999 V2000
   57.4170   32.0180   41.6800 C   0  0  0  0  0  0  0  0  0  0  0  0
   58.2170   32.0880   42.9750 C   0  0  0  0  0  0  0  0  0  0  0  0
   57.3940   31.6500   44.1120 N   0  0  0  0  0  0  0  0  0  0  0  0
   57.0190   32.6280   45.1430 C   0  0  0  0  0  0  0  0  0  0  0  0
   58.1030   33.6890   45.2870 C   0  0  0  0  0  0  0  0  0  0  0  0
   56.8820   30.2990   44.1980 C   0  0  0  0  0  0  0  0  0  0  0  0
   55.8630   30.0620   44.9010 O   0  0  0  0  0  0  0  0  0  0  0  0
   57.5660   29.1390   43.5170 C   0  0  0  0  0  0  0  0  0  0  0  0
   57.1880   27.8470   44.1220 N   0  0  0  0  0  0  0  0  0  0  0  0
   58.1700   27.3490   45.1040 C   0  0  0  0  0  0  0  0  0  0  0  0
   59.0250   28.4580   45.6680 C   0  0  0  0  0  0  0  0  0  0  0  0
   58.5550   29.2550   46.7230 C   0  0  0  0  0  0  0  0  0  0  0  0
   59.3620   30.2580   47.2640 C   0  0  0  0  0  0  0  0  0  0  0  0
   60.6560   30.4860   46.7620 C   0  0  0  0  0  0  0  0  0  0  0  0
   61.5180   31.5460   47.3440 C   0  0  0  0  0  0  0  0  0  0  0  0
   61.5700   32.8260   46.7600 C   0  0  0  0  0  0  0  0  0  0  0  0
   62.3800   33.8240   47.3110 C   0  0  0  0  0  0  0  0  0  0  0  0
   63.1460   33.5570   48.4480 C   0  0  0  0  0  0  0  0  0  0  0  0
   63.1020   32.2910   49.0380 C   0  0  0  0  0  0  0  0  0  0  0  0
   62.2940   31.2900   48.4910 C   0  0  0  0  0  0  0  0  0  0  0  0
   61.1220   29.6870   45.7020 C   0  0  0  0  0  0  0  0  0  0  0  0
   60.3130   28.6840   45.1610 C   0  0  0  0  0  0  0  0  0  0  0  0
   56.3465   31.9243   41.9150 H   0  0  0  0  0  0  0  0  0  0  0  0
   57.5852   32.9343   41.0951 H   0  0  0  0  0  0  0  0  0  0  0  0
   57.7418   31.1448   41.0951 H   0  0  0  0  0  0  0  0  0  0  0  0
   59.0978   31.4343   42.8924 H   0  0  0  0  0  0  0  0  0  0  0  0
   58.5320   33.1284   43.1432 H   0  0  0  0  0  0  0  0  0  0  0  0
   56.0736   33.1121   44.8568 H   0  0  0  0  0  0  0  0  0  0  0  0
   56.9003   32.1061   46.1040 H   0  0  0  0  0  0  0  0  0  0  0  0
   58.2938   33.8758   46.3541 H   0  0  0  0  0  0  0  0  0  0  0  0
   59.0271   33.3368   44.8054 H   0  0  0  0  0  0  0  0  0  0  0  0
   57.7707   34.6205   44.8054 H   0  0  0  0  0  0  0  0  0  0  0  0
   57.2808   29.1315   42.4546 H   0  0  0  0  0  0  0  0  0  0  0  0
   58.6523   29.2663   43.6343 H   0  0  0  0  0  0  0  0  0  0  0  0
   57.0800   27.1280   43.3700 H   0  0  0  0  0  0  0  0  0  0  0  0
   56.2560   27.9520   44.5860 H   0  0  0  0  0  0  0  0  0  0  0  0
   57.6299   26.8631   45.9300 H   0  0  0  0  0  0  0  0  0  0  0  0
   58.8339   26.6399   44.5879 H   0  0  0  0  0  0  0  0  0  0  0  0
   57.5451   29.0887   47.1261 H   0  0  0  0  0  0  0  0  0  0  0  0
   58.9820   30.8759   48.0909 H   0  0  0  0  0  0  0  0  0  0  0  0
   60.9694   33.0425   45.8642 H   0  0  0  0  0  0  0  0  0  0  0  0
   62.4139   34.8213   46.8480 H   0  0  0  0  0  0  0  0  0  0  0  0
   63.7837   34.3430   48.8789 H   0  0  0  0  0  0  0  0  0  0  0  0
   63.7042   32.0818   49.9344 H   0  0  0  0  0  0  0  0  0  0  0  0
   62.2641   30.2953   48.9598 H   0  0  0  0  0  0  0  0  0  0  0  0
   62.1307   29.8530   45.2959 H   0  0  0  0  0  0  0  0  0  0  0  0
   60.6892   28.0673   44.3315 H   0  0  0  0  0  0  0  0  0  0  0  0
  1  2  1  0
  2  3  1  0
  3  4  1  0
  4  5  1  0
  3  6  1  0
  6  7  2  0
  6  8  1  0
  8  9  1  0
  9 10  1  0
 10 11  1  0
 11 12  2  0
 12 13  1  0
 13 14  2  0
 14 15  1  0
 15 16  2  0
 16 17  1  0
 17 18  2  0
 18 19  1  0
 19 20  2  0
 14 21  1  0
 21 22  2  0
 22 11  1  0
 20 15  1  0
  1 23  1  0
  1 24  1  0
  1 25  1  0
  2 26  1  0
  2 27  1  0
  4 28  1  0
  4 29  1  0
  5 30  1  0
  5 31  1  0
  5 32  1  0
  8 33  1  0
  8 34  1  0
  9 35  1  0
  9 36  1  0
 10 37  1  0
 10 38  1  0
 12 39  1  0
 13 40  1  0
 16 41  1  0
 17 42  1  0
 18 43  1  0
 19 44  1  0
 20 45  1  0
 21 46  1  0
 22 47  1  0
M  CHG  1   9   1
M  END
>  <UniqueID>  (41) 
39

>  <SMILES>  (41) 
CCN(CC)C(=O)C[NH2+]Cc1ccc(-c2ccccc2)cc1

>  <Energy>  (41) 
45.54714958322581

>  <Genealogy>  (41) 
CCN(CC)C(=O)C[NH2+]Cc1ccc(-c2ccccc2)cc1 (protonated)
CCN(CC)C(=O)C[NH2+]Cc1ccc(-c2ccccc2)cc1 (3D coordinates assigned)
CCN(CC)C(=O)C[NH2+]Cc1ccc(-c2ccccc2)cc1 (optimized conformer: 45.54714958322581 kcal/mol)

>  <smiles>  (41) 
CCN(CC)C(=O)CNCc1ccc(-c2ccccc2)cc1

>  <score_type>  (41) 
oracle

>  <origin>  (41) 
adg

>  <m_score__min__energy>  (41) 
-5.7300000000000004

>  <m_primary>  (41) 
energy

$$$$
41:0
     RDKit          3D

 56 58  0  0  0  0  0  0  0  0999 V2000
   59.5540   27.9380   44.9140 C   0  0  0  0  0  0  0  0  0  0  0  0
   60.5770   28.9720   45.3730 C   0  0  0  0  0  0  0  0  0  0  0  0
   60.3230   29.3950   46.8250 C   0  0  0  0  0  0  0  0  0  0  0  0
   58.9070   29.9560   46.9930 C   0  0  0  0  0  0  0  0  0  0  0  0
   58.6460   31.0510   45.9900 C   0  0  0  0  0  0  0  0  0  0  0  0
   58.0290   30.7110   44.8300 N   0  0  0  0  0  0  0  0  0  0  0  0
   57.7570   31.6200   43.8570 C   0  0  0  0  0  0  0  0  0  0  0  0
   57.1000   31.1860   42.6430 N   0  0  0  0  0  0  0  0  0  0  0  0
   56.2730   29.9730   42.6180 C   0  0  0  0  0  0  0  0  0  0  0  0
   57.2510   31.9890   41.4250 C   0  0  0  0  0  0  0  0  0  0  0  0
   58.1070   32.9250   44.0510 N   0  0  0  0  0  0  0  0  0  0  0  0
   58.7270   33.3300   45.1950 C   0  0  0  0  0  0  0  0  0  0  0  0
   59.0540   32.3880   46.1910 C   0  0  0  0  0  0  0  0  0  0  0  0
   59.7150   32.8360   47.4810 C   0  0  0  0  0  0  0  0  0  0  0  0
   60.3920   34.1420   47.3350 N   0  0  0  0  0  0  0  0  0  0  0  0
   60.9240   34.5830   48.6410 C   0  0  0  0  0  0  0  0  0  0  0  0
   62.0450   33.6720   49.0950 C   0  0  0  0  0  0  0  0  0  0  0  0
   61.9830   33.1500   50.3990 C   0  0  0  0  0  0  0  0  0  0  0  0
   62.9830   32.3030   50.8770 C   0  0  0  0  0  0  0  0  0  0  0  0
   64.0610   31.9660   50.0610 C   0  0  0  0  0  0  0  0  0  0  0  0
   64.1430   32.4730   48.7630 C   0  0  0  0  0  0  0  0  0  0  0  0
   63.1420   33.3240   48.2610 C   0  0  0  0  0  0  0  0  0  0  0  0
   63.2740   33.8560   46.8580 C   0  0  0  0  0  0  0  0  0  0  0  0
   59.4530   35.1350   46.7850 C   0  0  0  0  0  0  0  0  0  0  0  0
   59.1270   34.7760   45.3380 C   0  0  0  0  0  0  0  0  0  0  0  0
   59.0886   27.4676   45.7927 H   0  0  0  0  0  0  0  0  0  0  0  0
   58.7794   28.4320   44.3091 H   0  0  0  0  0  0  0  0  0  0  0  0
   60.0563   27.1687   44.3091 H   0  0  0  0  0  0  0  0  0  0  0  0
   61.5850   28.5383   45.2965 H   0  0  0  0  0  0  0  0  0  0  0  0
   60.4878   29.8602   44.7302 H   0  0  0  0  0  0  0  0  0  0  0  0
   60.4437   28.5203   47.4810 H   0  0  0  0  0  0  0  0  0  0  0  0
   61.0454   30.1800   47.0932 H   0  0  0  0  0  0  0  0  0  0  0  0
   58.1775   29.1466   46.8422 H   0  0  0  0  0  0  0  0  0  0  0  0
   58.8094   30.3733   48.0061 H   0  0  0  0  0  0  0  0  0  0  0  0
   56.0565   29.6555   43.6487 H   0  0  0  0  0  0  0  0  0  0  0  0
   55.3294   30.1833   42.0933 H   0  0  0  0  0  0  0  0  0  0  0  0
   56.8135   29.1714   42.0933 H   0  0  0  0  0  0  0  0  0  0  0  0
   57.4479   33.0362   41.6983 H   0  0  0  0  0  0  0  0  0  0  0  0
   58.0918   31.6006   40.8316 H   0  0  0  0  0  0  0  0  0  0  0  0
   56.3265   31.9325   40.8316 H   0  0  0  0  0  0  0  0  0  0  0  0
   57.9030   33.6440   43.3210 H   0  0  0  0  0  0  0  0  0  0  0  0
   58.9458   32.9207   48.2628 H   0  0  0  0  0  0  0  0  0  0  0  0
   60.4760   32.0883   47.7489 H   0  0  0  0  0  0  0  0  0  0  0  0
   61.3080   35.6095   48.5469 H   0  0  0  0  0  0  0  0  0  0  0  0
   60.1141   34.5463   49.3845 H   0  0  0  0  0  0  0  0  0  0  0  0
   61.1360   33.4126   51.0499 H   0  0  0  0  0  0  0  0  0  0  0  0
   62.9205   31.9008   51.8989 H   0  0  0  0  0  0  0  0  0  0  0  0
   64.8491   31.2990   50.4405 H   0  0  0  0  0  0  0  0  0  0  0  0
   64.9989   32.2043   48.1265 H   0  0  0  0  0  0  0  0  0  0  0  0
   63.5388   34.9231   46.8939 H   0  0  0  0  0  0  0  0  0  0  0  0
   64.0615   33.3004   46.3278 H   0  0  0  0  0  0  0  0  0  0  0  0
   62.3181   33.7330   46.3278 H   0  0  0  0  0  0  0  0  0  0  0  0
   58.5282   35.1350   47.3806 H   0  0  0  0  0  0  0  0  0  0  0  0
   59.9113   36.1343   46.8217 H   0  0  0  0  0  0  0  0  0  0  0  0
   58.2976   35.4104   44.9922 H   0  0  0  0  0  0  0  0  0  0  0  0
   60.0309   34.9414   44.7334 H   0  0  0  0  0  0  0  0  0  0  0  0
  1  2  1  0
  2  3  1  0
  3  4  1  0
  4  5  1  0
  5  6  2  0
  6  7  1  0
  7  8  1  0
  8  9  1  0
  8 10  1  0
  7 11  2  0
 11 12  1  0
 12 13  2  0
 13 14  1  0
 14 15  1  0
 15 16  1  0
 16 17  1  0
 17 18  2  0
 18 19  1  0
 19 20  2  0
 20 21  1  0
 21 22  2  0
 22 23  1  0
 15 24  1  0
 24 25  1  0
 13  5  1  0
 22 17  1  0
 25 12  1  0
  1 26  1  0
  1 27  1  0
  1 28  1  0
  2 29  1  0
  2 30  1  0
  3 31  1  0
  3 32  1  0
  4 33  1  0
  4 34  1  0
  9 35  1  0
  9 36  1  0
  9 37  1  0
 10 38  1  0
 10 39  1  0
 10 40  1  0
 11 41  1  0
 14 42  1  0
 14 43  1  0
 16 44  1  0
 16 45  1  0
 18 46  1  0
 19 47  1  0
 20 48  1  0
 21 49  1  0
 23 50  1  0
 23 51  1  0
 23 52  1  0
 24 53  1  0
 24 54  1  0
 25 55  1  0
 25 56  1  0
M  CHG  1  11   1
M  END
>  <UniqueID>  (42) 
40

>  <SMILES>  (42) 
CCCCc1nc(N(C)C)[nH+]c2c1CN(Cc1ccccc1C)CC2

>  <Energy>  (42) 
53.12797451278888

>  <Genealogy>  (42) 
CCCCc1nc(N(C)C)[nH+]c2c1CN(Cc1ccccc1C)CC2 (protonated)
CCCCc1nc(N(C)C)[nH+]c2c1CN(Cc1ccccc1C)CC2 (3D coordinates assigned)
CCCCc1nc(N(C)C)[nH+]c2c1CN(Cc1ccccc1C)CC2 (nonaromatic ring conformer: 53.12797451278888 kcal/mol)

>  <smiles>  (42) 
CCCCc1nc(N(C)C)nc2c1CN(Cc1ccccc1C)CC2

>  <score_type>  (42) 
oracle

>  <origin>  (42) 
adg

>  <m_score__min__energy>  (42) 
-6.5899999999999999

>  <m_primary>  (42) 
energy

$$$$
