0:0
     RDKit          3D

 75 78  0  0  0  0  0  0  0  0999 V2000
   63.3940   33.9050   46.4050 C   0  0  0  0  0  0  0  0  0  0  0  0
   61.9800   33.8080   46.9680 C   0  0  0  0  0  0  0  0  0  0  0  0
   62.0350   33.3370   48.3770 N   0  0  0  0  0  0  0  0  0  0  0  0
   62.9870   34.1630   49.1700 C   0  0  0  0  0  0  0  0  0  0  0  0
   62.6820   34.1900   50.6770 C   0  0  0  0  0  0  0  0  0  0  0  0
   62.2270   31.8600   48.5240 C   0  0  2  0  0  0  0  0  0  0  0  0
   62.0010   31.0900   47.1830 C   0  0  0  0  0  0  0  0  0  0  0  0
   60.5420   30.6360   47.0210 C   0  0  0  0  0  0  0  0  0  0  0  0
   60.1010   29.7020   48.1000 N   0  0  1  0  0  0  0  0  0  0  0  0
   60.0860   28.2910   47.6390 C   0  0  0  0  0  0  0  0  0  0  0  0
   60.2030   28.1470   46.0940 C   0  0  0  0  0  0  0  0  0  0  0  0
   58.8560   28.3140   45.3200 C   0  0  1  0  0  0  0  0  0  0  0  0
   58.3270   26.9570   44.7960 C   0  0  0  0  0  0  0  0  0  0  0  0
   58.0950   26.6920   43.4260 C   0  0  0  0  0  0  0  0  0  0  0  0
   57.5960   25.4550   43.0090 C   0  0  0  0  0  0  0  0  0  0  0  0
   57.2900   24.4610   43.9410 C   0  0  0  0  0  0  0  0  0  0  0  0
   56.6710   22.9170   43.3720 Cl  0  0  0  0  0  0  0  0  0  0  0  0
   57.4630   24.7180   45.3070 C   0  0  0  0  0  0  0  0  0  0  0  0
   57.0690   23.5040   46.5180 Cl  0  0  0  0  0  0  0  0  0  0  0  0
   57.9580   25.9580   45.7260 C   0  0  0  0  0  0  0  0  0  0  0  0
   57.7660   28.9270   46.2320 C   0  0  0  0  0  0  0  0  0  0  0  0
   56.8630   29.7240   45.2950 C   0  0  0  0  0  0  0  0  0  0  0  0
   57.6950   30.0380   44.1450 N   0  0  0  0  0  0  0  0  0  0  0  0
   57.3350   30.9650   43.1040 C   0  0  0  0  0  0  0  0  0  0  0  0
   56.4420   30.6450   42.2720 O   0  0  0  0  0  0  0  0  0  0  0  0
   58.0580   32.2780   42.9510 C   0  0  0  0  0  0  0  0  0  0  0  0
   58.1570   33.0140   44.2620 C   0  0  0  0  0  0  0  0  0  0  0  0
   57.2310   32.7650   45.2900 C   0  0  0  0  0  0  0  0  0  0  0  0
   57.3440   33.4320   46.5150 C   0  0  0  0  0  0  0  0  0  0  0  0
   58.3850   34.3410   46.7250 C   0  0  0  0  0  0  0  0  0  0  0  0
   59.3170   34.5820   45.7130 C   0  0  0  0  0  0  0  0  0  0  0  0
   59.2070   33.9190   44.4860 C   0  0  0  0  0  0  0  0  0  0  0  0
   59.0010   29.4100   44.2330 C   0  0  0  0  0  0  0  0  0  0  0  0
   60.9120   29.8170   49.3400 C   0  0  0  0  0  0  0  0  0  0  0  0
   61.2890   31.2760   49.6230 C   0  0  0  0  0  0  0  0  0  0  0  0
   64.1159   33.9545   47.2335 H   0  0  0  0  0  0  0  0  0  0  0  0
   63.6045   33.0192   45.7877 H   0  0  0  0  0  0  0  0  0  0  0  0
   63.4815   34.8113   45.7877 H   0  0  0  0  0  0  0  0  0  0  0  0
   61.5028   34.7984   46.9315 H   0  0  0  0  0  0  0  0  0  0  0  0
   61.3959   33.0953   46.3673 H   0  0  0  0  0  0  0  0  0  0  0  0
   63.9993   33.7565   49.0286 H   0  0  0  0  0  0  0  0  0  0  0  0
   62.8928   35.1969   48.8063 H   0  0  0  0  0  0  0  0  0  0  0  0
   63.6216   34.1068   51.2428 H   0  0  0  0  0  0  0  0  0  0  0  0
   62.1823   35.1359   50.9331 H   0  0  0  0  0  0  0  0  0  0  0  0
   62.0239   33.3466   50.9331 H   0  0  0  0  0  0  0  0  0  0  0  0
   63.2753   31.7169   48.8249 H   0  0  0  0  0  0  0  0  0  0  0  0
   62.2624   31.7522   46.3444 H   0  0  0  0  0  0  0  0  0  0  0  0
   62.6376   30.1930   47.1938 H   0  0  0  0  0  0  0  0  0  0  0  0
   59.8938   31.5245   47.0392 H   0  0  0  0  0  0  0  0  0  0  0  0
   60.4685   30.0954   46.0658 H   0  0  0  0  0  0  0  0  0  0  0  0
   59.1280   29.9700   48.3670 H   0  0  0  0  0  0  0  0  0  0  0  0
   60.9315   27.7628   48.1039 H   0  0  0  0  0  0  0  0  0  0  0  0
   59.1168   27.8622   47.9337 H   0  0  0  0  0  0  0  0  0  0  0  0
   60.9045   28.9124   45.7305 H   0  0  0  0  0  0  0  0  0  0  0  0
   60.5467   27.1198   45.9024 H   0  0  0  0  0  0  0  0  0  0  0  0
   58.3103   27.4701   42.6788 H   0  0  0  0  0  0  0  0  0  0  0  0
   57.4429   25.2625   41.9369 H   0  0  0  0  0  0  0  0  0  0  0  0
   58.0623   26.1599   46.8023 H   0  0  0  0  0  0  0  0  0  0  0  0
   57.1945   28.1341   46.7367 H   0  0  0  0  0  0  0  0  0  0  0  0
   58.1982   29.5583   47.0224 H   0  0  0  0  0  0  0  0  0  0  0  0
   55.9944   29.1216   44.9905 H   0  0  0  0  0  0  0  0  0  0  0  0
   56.4658   30.6298   45.7764 H   0  0  0  0  0  0  0  0  0  0  0  0
   59.0727   32.0846   42.5729 H   0  0  0  0  0  0  0  0  0  0  0  0
   57.4888   32.9037   42.2478 H   0  0  0  0  0  0  0  0  0  0  0  0
   56.4155   32.0440   45.1311 H   0  0  0  0  0  0  0  0  0  0  0  0
   56.6125   33.2407   47.3139 H   0  0  0  0  0  0  0  0  0  0  0  0
   58.4702   34.8666   47.6875 H   0  0  0  0  0  0  0  0  0  0  0  0
   60.1385   35.2940   45.8810 H   0  0  0  0  0  0  0  0  0  0  0  0
   59.9461   34.1074   43.6934 H   0  0  0  0  0  0  0  0  0  0  0  0
   59.2784   28.9610   43.2679 H   0  0  0  0  0  0  0  0  0  0  0  0
   59.7886   30.1355   44.4848 H   0  0  0  0  0  0  0  0  0  0  0  0
   60.3294   29.4262   50.1872 H   0  0  0  0  0  0  0  0  0  0  0  0
   61.8376   29.2380   49.2056 H   0  0  0  0  0  0  0  0  0  0  0  0
   60.3699   31.8791   49.6627 H   0  0  0  0  0  0  0  0  0  0  0  0
   61.8275   31.3081   50.5816 H   0  0  0  0  0  0  0  0  0  0  0  0
  1  2  1  0
  2  3  1  0
  3  4  1  0
  4  5  1  0
  3  6  1  0
  6  7  1  0
  7  8  1  0
  8  9  1  0
  9 10  1  0
 10 11  1  0
 12 11  1  1
 12 13  1  0
 13 14  2  0
 14 15  1  0
 15 16  2  0
 16 17  1  0
 16 18  1  0
 18 19  1  0
 18 20  2  0
 12 21  1  0
 21 22  1  0
 22 23  1  0
 23 24  1  0
 24 25  2  0
 24 26  1  0
 26 27  1  0
 27 28  2  0
 28 29  1  0
 29 30  2  0
 30 31  1  0
 31 32  2  0
 23 33  1  0
  9 34  1  0
 34 35  1  0
 35  6  1  0
 33 12  1  0
 20 13  1  0
 32 27  1  0
  1 36  1  0
  1 37  1  0
  1 38  1  0
  2 39  1  0
  2 40  1  0
  4 41  1  0
  4 42  1  0
  5 43  1  0
  5 44  1  0
  5 45  1  0
  6 46  1  1
  7 47  1  0
  7 48  1  0
  8 49  1  0
  8 50  1  0
  9 51  1  1
 10 52  1  0
 10 53  1  0
 11 54  1  0
 11 55  1  0
 14 56  1  0
 15 57  1  0
 20 58  1  0
 21 59  1  0
 21 60  1  0
 22 61  1  0
 22 62  1  0
 26 63  1  0
 26 64  1  0
 28 65  1  0
 29 66  1  0
 30 67  1  0
 31 68  1  0
 32 69  1  0
 33 70  1  0
 33 71  1  0
 34 72  1  0
 34 73  1  0
 35 74  1  0
 35 75  1  0
M  CHG  1   9   1
M  END
>  <UniqueID>  (1) 
1

>  <SMILES>  (1) 
CCN(CC)C1CC[NH+](CC[C@@]2(c3ccc(Cl)c(Cl)c3)CCN(C(=O)Cc3ccccc3)C2)CC1

>  <Energy>  (1) 
104.69101532899397

>  <Genealogy>  (1) 
CCN(CC)C1CC[NH+](CCC2(c3ccc(Cl)c(Cl)c3)CCN(C(=O)Cc3ccccc3)C2)CC1 (protonated)
CCN(CC)C1CC[NH+](CC[C@@]2(c3ccc(Cl)c(Cl)c3)CCN(C(=O)Cc3ccccc3)C2)CC1 (chirality)
CCN(CC)C1CC[NH+](CC[C@@]2(c3ccc(Cl)c(Cl)c3)CCN(C(=O)Cc3ccccc3)C2)CC1 (3D coordinates assigned)
CCN(CC)C1CC[NH+](CC[C@@]2(c3ccc(Cl)c(Cl)c3)CCN(C(=O)Cc3ccccc3)C2)CC1 (nonaromatic ring conformer: 104.69101532899397 kcal/mol)

>  <smiles>  (1) 
CCN(CC)C1CCN(CCC2(c3ccc(Cl)c(Cl)c3)CCN(C(=O)Cc3ccccc3)C2)CC1

>  <score_type>  (1) 
oracle

>  <origin>  (1) 
adg

>  <m_score__min__energy>  (1) 
-8.7899999999999991

>  <m_primary>  (1) 
energy

$$$$
1:0
     RDKit          3D

 31 32  0  0  0  0  0  0  0  0999 V2000
   56.9590   30.8040   43.0500 C   0  0  0  0  0  0  0  0  0  0  0  0
   55.8510   29.8610   43.4930 C   0  0  0  0  0  0  0  0  0  0  0  0
   55.9630   29.6330   44.8820 O   0  0  0  0  0  0  0  0  0  0  0  0
   57.2670   29.1880   45.2140 C   0  0  0  0  0  0  0  0  0  0  0  0
   57.2520   27.6850   45.4930 C   0  0  0  0  0  0  0  0  0  0  0  0
   55.9000   27.2350   45.8180 N   0  0  0  0  0  0  0  0  0  0  0  0
   55.5690   25.8590   46.0450 C   0  0  0  0  0  0  0  0  0  0  0  0
   56.4500   25.0280   46.6970 N   0  0  0  0  0  0  0  0  0  0  0  0
   56.1520   23.7170   46.9360 C   0  0  0  0  0  0  0  0  0  0  0  0
   56.9700   22.9700   47.5340 O   0  0  0  0  0  0  0  0  0  0  0  0
   54.9240   23.2460   46.5010 C   0  0  0  0  0  0  0  0  0  0  0  0
   54.2870   22.0210   46.5430 C   0  0  0  0  0  0  0  0  0  0  0  0
   53.0820   22.1500   45.9300 N   0  0  0  0  0  0  0  0  0  0  0  0
   52.9530   23.4100   45.5260 N   0  0  0  0  0  0  0  0  0  0  0  0
   51.8160   23.9240   44.7730 C   0  0  0  0  0  0  0  0  0  0  0  0
   54.0690   24.0770   45.8600 C   0  0  0  0  0  0  0  0  0  0  0  0
   54.3610   25.3770   45.6160 N   0  0  0  0  0  0  0  0  0  0  0  0
   57.4562   31.2271   43.9353 H   0  0  0  0  0  0  0  0  0  0  0  0
   57.6932   30.2495   42.4471 H   0  0  0  0  0  0  0  0  0  0  0  0
   56.5290   31.6174   42.4471 H   0  0  0  0  0  0  0  0  0  0  0  0
   54.8729   30.3131   43.2721 H   0  0  0  0  0  0  0  0  0  0  0  0
   55.9403   28.9066   42.9535 H   0  0  0  0  0  0  0  0  0  0  0  0
   57.9473   29.3959   44.3750 H   0  0  0  0  0  0  0  0  0  0  0  0
   57.6111   29.7186   46.1140 H   0  0  0  0  0  0  0  0  0  0  0  0
   57.6068   27.1483   44.6008 H   0  0  0  0  0  0  0  0  0  0  0  0
   57.9102   27.4770   46.3495 H   0  0  0  0  0  0  0  0  0  0  0  0
   55.1500   27.9550   45.9260 H   0  0  0  0  0  0  0  0  0  0  0  0
   54.6864   21.1009   46.9945 H   0  0  0  0  0  0  0  0  0  0  0  0
   51.0417   24.2740   45.4715 H   0  0  0  0  0  0  0  0  0  0  0  0
   52.1440   24.7614   44.1396 H   0  0  0  0  0  0  0  0  0  0  0  0
   51.4041   23.1246   44.1396 H   0  0  0  0  0  0  0  0  0  0  0  0
  1  2  1  0
  2  3  1  0
  3  4  1  0
  4  5  1  0
  5  6  1  0
  6  7  1  0
  7  8  2  0
  8  9  1  0
  9 10  2  0
  9 11  1  0
 11 12  1  0
 12 13  2  0
 13 14  1  0
 14 15  1  0
 14 16  1  0
 16 17  1  0
 17  7  1  0
 16 11  2  0
  1 18  1  0
  1 19  1  0
  1 20  1  0
  2 21  1  0
  2 22  1  0
  4 23  1  0
  4 24  1  0
  5 25  1  0
  5 26  1  0
  6 27  1  0
 12 28  1  0
 15 29  1  0
 15 30  1  0
 15 31  1  0
M  CHG  1  17  -1
M  END
>  <UniqueID>  (2) 
2

>  <SMILES>  (2) 
CCOCCNc1nc(=O)c2cnn(C)c2[n-]1

>  <Energy>  (2) 
67.17037627171919

>  <Genealogy>  (2) 
CCOCCNc1nc(=O)c2cnn(C)c2[n-]1 (protonated)
CCOCCNc1nc(=O)c2cnn(C)c2[n-]1 (3D coordinates assigned)
CCOCCNc1nc(=O)c2cnn(C)c2[n-]1 (optimized conformer: 67.17037627171919 kcal/mol)

>  <smiles>  (2) 
CCOCCNc1nc(=O)c2cnn(C)c2[nH]1

>  <score_type>  (2) 
oracle

>  <origin>  (2) 
adg

>  <m_score__min__energy>  (2) 
-8.0299999999999994

>  <m_primary>  (2) 
energy

$$$$
2:0
     RDKit          3D

 66 68  0  0  0  0  0  0  0  0999 V2000
   60.7830   27.7130   49.7290 C   0  0  0  0  0  0  0  0  0  0  0  0
   61.4980   28.7310   50.6020 C   0  0  0  0  0  0  0  0  0  0  0  0
   61.3780   30.0040   50.0170 O   0  0  0  0  0  0  0  0  0  0  0  0
   60.2740   30.5810   50.5610 N   0  0  0  0  0  0  0  0  0  0  0  0
   59.0670   30.7320   49.8130 C   0  0  0  0  0  0  0  0  0  0  0  0
   58.8040   29.9430   48.8680 O   0  0  0  0  0  0  0  0  0  0  0  0
   58.1240   31.8470   50.1380 C   0  0  0  0  0  0  0  0  0  0  0  0
   58.3220   32.3830   51.5660 C   0  0  0  0  0  0  0  0  0  0  0  0
   59.2710   33.5940   51.6490 C   0  0  0  0  0  0  0  0  0  0  0  0
   59.8700   33.9710   50.2840 C   0  0  0  0  0  0  0  0  0  0  0  0
   61.4030   33.8490   50.3070 C   0  0  0  0  0  0  0  0  0  0  0  0
   61.8740   32.4780   50.0260 N   0  0  0  0  0  0  0  0  0  0  0  0
   63.2240   32.3650   49.4260 C   0  0  0  0  0  0  0  0  0  0  0  0
   63.2870   31.5910   48.0930 C   0  0  0  0  0  0  0  0  0  0  0  0
   62.1400   31.9430   47.1280 C   0  0  0  0  0  0  0  0  0  0  0  0
   60.9230   31.2070   47.4750 N   0  0  0  0  0  0  0  0  0  0  0  0
   59.8400   31.0690   46.5380 C   0  0  0  0  0  0  0  0  0  0  0  0
   59.0910   32.1890   46.1390 C   0  0  0  0  0  0  0  0  0  0  0  0
   59.2080   33.4180   46.8210 C   0  0  0  0  0  0  0  0  0  0  0  0
   58.4620   34.5250   46.4260 C   0  0  0  0  0  0  0  0  0  0  0  0
   57.5660   34.4190   45.3690 C   0  0  0  0  0  0  0  0  0  0  0  0
   57.4160   33.2080   44.6960 C   0  0  0  0  0  0  0  0  0  0  0  0
   58.1860   32.0710   45.0510 C   0  0  0  0  0  0  0  0  0  0  0  0
   58.0600   30.8690   44.3800 N   0  0  0  0  0  0  0  0  0  0  0  0
   57.3500   30.8160   43.0850 C   0  0  0  0  0  0  0  0  0  0  0  0
   58.6150   29.7220   44.9150 C   0  0  0  0  0  0  0  0  0  0  0  0
   58.2780   28.4320   44.4300 C   0  0  0  0  0  0  0  0  0  0  0  0
   58.8940   27.2890   44.9370 C   0  0  0  0  0  0  0  0  0  0  0  0
   59.8580   27.3970   45.9330 C   0  0  0  0  0  0  0  0  0  0  0  0
   60.1880   28.6460   46.4510 C   0  0  0  0  0  0  0  0  0  0  0  0
   59.5490   29.8130   45.9800 C   0  0  0  0  0  0  0  0  0  0  0  0
   60.2681   26.9799   50.3673 H   0  0  0  0  0  0  0  0  0  0  0  0
   60.0467   28.2274   49.0939 H   0  0  0  0  0  0  0  0  0  0  0  0
   61.5167   27.1949   49.0939 H   0  0  0  0  0  0  0  0  0  0  0  0
   61.0431   28.7415   51.6035 H   0  0  0  0  0  0  0  0  0  0  0  0
   62.5611   28.4623   50.6898 H   0  0  0  0  0  0  0  0  0  0  0  0
   58.2894   32.6688   49.4258 H   0  0  0  0  0  0  0  0  0  0  0  0
   57.0997   31.4525   50.0662 H   0  0  0  0  0  0  0  0  0  0  0  0
   57.3410   32.6831   51.9630 H   0  0  0  0  0  0  0  0  0  0  0  0
   58.7830   31.5737   52.1512 H   0  0  0  0  0  0  0  0  0  0  0  0
   58.7088   34.4561   52.0371 H   0  0  0  0  0  0  0  0  0  0  0  0
   60.1035   33.3197   52.3136 H   0  0  0  0  0  0  0  0  0  0  0  0
   59.4662   33.2966   49.5145 H   0  0  0  0  0  0  0  0  0  0  0  0
   59.6030   35.0139   50.0580 H   0  0  0  0  0  0  0  0  0  0  0  0
   61.8205   34.5263   49.5474 H   0  0  0  0  0  0  0  0  0  0  0  0
   61.7403   34.1130   51.3202 H   0  0  0  0  0  0  0  0  0  0  0  0
   61.8670   31.9370   50.9230 H   0  0  0  0  0  0  0  0  0  0  0  0
   61.1800   32.0120   49.3960 H   0  0  0  0  0  0  0  0  0  0  0  0
   63.6034   33.3820   49.2474 H   0  0  0  0  0  0  0  0  0  0  0  0
   63.8294   31.7900   50.1421 H   0  0  0  0  0  0  0  0  0  0  0  0
   64.2421   31.8236   47.5993 H   0  0  0  0  0  0  0  0  0  0  0  0
   63.1934   30.5216   48.3331 H   0  0  0  0  0  0  0  0  0  0  0  0
   61.9376   33.0226   47.1873 H   0  0  0  0  0  0  0  0  0  0  0  0
   62.4408   31.6648   46.1072 H   0  0  0  0  0  0  0  0  0  0  0  0
   60.8900   30.6800   48.3770 H   0  0  0  0  0  0  0  0  0  0  0  0
   59.8965   33.5028   47.6747 H   0  0  0  0  0  0  0  0  0  0  0  0
   58.5818   35.4842   46.9509 H   0  0  0  0  0  0  0  0  0  0  0  0
   56.9734   35.2936   45.0627 H   0  0  0  0  0  0  0  0  0  0  0  0
   56.6877   33.1326   43.8751 H   0  0  0  0  0  0  0  0  0  0  0  0
   56.2676   30.7352   43.2633 H   0  0  0  0  0  0  0  0  0  0  0  0
   57.5601   31.7323   42.5139 H   0  0  0  0  0  0  0  0  0  0  0  0
   57.6938   29.9410   42.5139 H   0  0  0  0  0  0  0  0  0  0  0  0
   57.5181   28.3322   43.6409 H   0  0  0  0  0  0  0  0  0  0  0  0
   58.6165   26.2983   44.5478 H   0  0  0  0  0  0  0  0  0  0  0  0
   60.3603   26.4947   46.3119 H   0  0  0  0  0  0  0  0  0  0  0  0
   60.9549   28.7244   47.2357 H   0  0  0  0  0  0  0  0  0  0  0  0
  1  2  1  0
  2  3  1  0
  3  4  1  0
  4  5  1  0
  5  6  2  0
  5  7  1  0
  7  8  1  0
  8  9  1  0
  9 10  1  0
 10 11  1  0
 11 12  1  0
 12 13  1  0
 13 14  1  0
 14 15  1  0
 15 16  1  0
 16 17  1  0
 17 18  2  0
 18 19  1  0
 19 20  2  0
 20 21  1  0
 21 22  2  0
 22 23  1  0
 23 24  2  0
 24 25  1  0
 24 26  1  0
 26 27  2  0
 27 28  1  0
 28 29  2  0
 29 30  1  0
 30 31  2  0
 31 17  1  0
 23 18  1  0
 31 26  1  0
  1 32  1  0
  1 33  1  0
  1 34  1  0
  2 35  1  0
  2 36  1  0
  7 37  1  0
  7 38  1  0
  8 39  1  0
  8 40  1  0
  9 41  1  0
  9 42  1  0
 10 43  1  0
 10 44  1  0
 11 45  1  0
 11 46  1  0
 12 47  1  0
 12 48  1  0
 13 49  1  0
 13 50  1  0
 14 51  1  0
 14 52  1  0
 15 53  1  0
 15 54  1  0
 16 55  1  0
 19 56  1  0
 20 57  1  0
 21 58  1  0
 22 59  1  0
 25 60  1  0
 25 61  1  0
 25 62  1  0
 27 63  1  0
 28 64  1  0
 29 65  1  0
 30 66  1  0
M  CHG  3   4  -1  12   1  24   1
M  END
>  <UniqueID>  (3) 
3

>  <SMILES>  (3) 
CCO[N-]C(=O)CCCCC[NH2+]CCCNc1c2ccccc2[n+](C)c2ccccc12

>  <Energy>  (3) 
74.770575712554

>  <Genealogy>  (3) 
CCO[N-]C(=O)CCCCC[NH2+]CCCNc1c2ccccc2[n+](C)c2ccccc12 (protonated)
CCO[N-]C(=O)CCCCC[NH2+]CCCNc1c2ccccc2[n+](C)c2ccccc12 (3D coordinates assigned)
CCO[N-]C(=O)CCCCC[NH2+]CCCNc1c2ccccc2[n+](C)c2ccccc12 (optimized conformer: 74.770575712554 kcal/mol)

>  <smiles>  (3) 
CCONC(=O)CCCCCNCCCNc1c2ccccc2[n+](C)c2ccccc12

>  <score_type>  (3) 
oracle

>  <origin>  (3) 
adg

>  <m_score__min__energy>  (3) 
-7.75

>  <m_primary>  (3) 
energy

$$$$
3:0
     RDKit          3D

 50 54  0  0  0  0  0  0  0  0999 V2000
   55.8780   29.9370   43.6980 C   0  0  0  0  0  0  0  0  0  0  0  0
   57.0820   30.0920   44.5150 N   0  0  0  0  0  0  0  0  0  0  0  0
   57.5860   31.2390   45.0520 C   0  0  0  0  0  0  0  0  0  0  0  0
   56.9800   32.6070   44.8970 C   0  0  0  0  0  0  0  0  0  0  0  0
   57.7750   33.6080   45.6320 N   0  0  0  0  0  0  0  0  0  0  0  0
   59.0130   33.9550   44.8870 C   0  0  0  0  0  0  0  0  0  0  0  0
   60.0200   34.7750   45.7490 C   0  0  1  0  0  0  0  0  0  0  0  0
   59.3080   35.3460   46.9520 C   0  0  0  0  0  0  0  0  0  0  0  0
   59.1080   34.0590   47.7360 C   0  0  1  0  0  0  0  0  0  0  0  0
   58.0200   33.1930   47.0410 C   0  0  0  0  0  0  0  0  0  0  0  0
   60.3930   33.3330   47.6490 N   0  0  0  0  0  0  0  0  0  0  0  0
   61.2350   33.4980   48.8620 C   0  0  0  0  0  0  0  0  0  0  0  0
   62.7200   33.7840   48.5440 C   0  0  0  0  0  0  0  0  0  0  0  0
   63.5110   32.6000   48.0050 C   0  0  0  0  0  0  0  0  0  0  0  0
   63.8170   33.1450   49.3900 C   0  0  0  0  0  0  0  0  0  0  0  0
   61.0380   33.8490   46.4210 C   0  0  0  0  0  0  0  0  0  0  0  0
   58.7730   31.0420   45.6780 N   0  0  0  0  0  0  0  0  0  0  0  0
   59.0230   29.7340   45.5160 C   0  0  0  0  0  0  0  0  0  0  0  0
   60.1380   29.0140   45.9400 C   0  0  0  0  0  0  0  0  0  0  0  0
   60.1930   27.6460   45.6150 C   0  0  0  0  0  0  0  0  0  0  0  0
   59.1500   27.0430   44.8770 C   0  0  0  0  0  0  0  0  0  0  0  0
   58.0400   27.8000   44.4580 C   0  0  0  0  0  0  0  0  0  0  0  0
   58.0080   29.1540   44.8060 C   0  0  0  0  0  0  0  0  0  0  0  0
   55.0020   29.8242   44.3537 H   0  0  0  0  0  0  0  0  0  0  0  0
   55.7488   30.8259   43.0631 H   0  0  0  0  0  0  0  0  0  0  0  0
   55.9781   29.0443   43.0631 H   0  0  0  0  0  0  0  0  0  0  0  0
   56.9572   32.8745   43.8303 H   0  0  0  0  0  0  0  0  0  0  0  0
   55.9587   32.5930   45.3052 H   0  0  0  0  0  0  0  0  0  0  0  0
   59.5022   33.0244   44.5634 H   0  0  0  0  0  0  0  0  0  0  0  0
   58.7223   34.5794   44.0293 H   0  0  0  0  0  0  0  0  0  0  0  0
   60.4678   35.5193   45.0741 H   0  0  0  0  0  0  0  0  0  0  0  0
   59.9323   36.0693   47.4971 H   0  0  0  0  0  0  0  0  0  0  0  0
   58.3934   35.9176   46.7358 H   0  0  0  0  0  0  0  0  0  0  0  0
   58.8027   34.2635   48.7728 H   0  0  0  0  0  0  0  0  0  0  0  0
   58.3475   32.1429   47.0476 H   0  0  0  0  0  0  0  0  0  0  0  0
   57.0805   33.3271   47.5971 H   0  0  0  0  0  0  0  0  0  0  0  0
   60.8368   34.3371   49.4514 H   0  0  0  0  0  0  0  0  0  0  0  0
   61.1984   32.5475   49.4145 H   0  0  0  0  0  0  0  0  0  0  0  0
   62.5117   34.8202   48.2393 H   0  0  0  0  0  0  0  0  0  0  0  0
   63.0256   31.6190   47.8955 H   0  0  0  0  0  0  0  0  0  0  0  0
   64.1023   32.4096   47.0972 H   0  0  0  0  0  0  0  0  0  0  0  0
   63.5523   32.5590   50.2825 H   0  0  0  0  0  0  0  0  0  0  0  0
   64.7201   33.5125   49.8992 H   0  0  0  0  0  0  0  0  0  0  0  0
   61.9493   34.4091   46.6775 H   0  0  0  0  0  0  0  0  0  0  0  0
   61.3302   33.0272   45.7507 H   0  0  0  0  0  0  0  0  0  0  0  0
   59.3770   31.7550   46.1460 H   0  0  0  0  0  0  0  0  0  0  0  0
   60.9462   29.4976   46.5083 H   0  0  0  0  0  0  0  0  0  0  0  0
   61.0539   27.0420   45.9377 H   0  0  0  0  0  0  0  0  0  0  0  0
   59.2060   25.9731   44.6278 H   0  0  0  0  0  0  0  0  0  0  0  0
   57.2258   27.3424   43.8769 H   0  0  0  0  0  0  0  0  0  0  0  0
  1  2  1  0
  2  3  1  0
  3  4  1  0
  4  5  1  0
  5  6  1  0
  6  7  1  0
  7  8  1  0
  8  9  1  0
  9 10  1  0
  9 11  1  0
 11 12  1  0
 12 13  1  0
 13 14  1  0
 14 15  1  0
 11 16  1  0
  3 17  2  0
 17 18  1  0
 18 19  2  0
 19 20  1  0
 20 21  2  0
 21 22  1  0
 22 23  2  0
 23  2  1  0
 10  5  1  0
 15 13  1  0
 23 18  1  0
 16  7  1  0
  1 24  1  0
  1 25  1  0
  1 26  1  0
  4 27  1  0
  4 28  1  0
  6 29  1  0
  6 30  1  0
  7 31  1  6
  8 32  1  0
  8 33  1  0
  9 34  1  1
 10 35  1  0
 10 36  1  0
 12 37  1  0
 12 38  1  0
 13 39  1  0
 14 40  1  0
 14 41  1  0
 15 42  1  0
 15 43  1  0
 16 44  1  0
 16 45  1  0
 17 46  1  0
 19 47  1  0
 20 48  1  0
 21 49  1  0
 22 50  1  0
M  CHG  1  17   1
M  END
>  <UniqueID>  (4) 
4

>  <SMILES>  (4) 
Cn1c(CN2C[C@H]3C[C@@H](C2)N(CC2CC2)C3)[nH+]c2ccccc21

>  <Energy>  (4) 
382.2437952291487

>  <Genealogy>  (4) 
Cn1c(CN2CC3CC(C2)N(CC2CC2)C3)[nH+]c2ccccc21 (protonated)
Cn1c(CN2C[C@H]3C[C@@H](C2)N(CC2CC2)C3)[nH+]c2ccccc21 (chirality)
Cn1c(CN2C[C@H]3C[C@@H](C2)N(CC2CC2)C3)[nH+]c2ccccc21 (3D coordinates assigned)
Cn1c(CN2C[C@H]3C[C@@H](C2)N(CC2CC2)C3)[nH+]c2ccccc21 (nonaromatic ring conformer: 382.2437952291487 kcal/mol)

>  <smiles>  (4) 
Cn1c(CN2CC3CC(C2)N(CC2CC2)C3)nc2ccccc21

>  <score_type>  (4) 
oracle

>  <origin>  (4) 
adg

>  <m_score__min__energy>  (4) 
-6.7699999999999996

>  <m_primary>  (4) 
energy

$$$$
4:0
     RDKit          3D

 83 86  0  0  0  0  0  0  0  0999 V2000
   62.9370   33.8500   46.3640 C   0  0  0  0  0  0  0  0  0  0  0  0
   63.7690   32.7940   47.0840 C   0  0  0  0  0  0  0  0  0  0  0  0
   62.8930   31.6260   47.5560 C   0  0  0  0  0  0  0  0  0  0  0  0
   62.3690   31.8830   48.9140 N   0  0  0  0  0  0  0  0  0  0  0  0
   63.0910   32.9790   49.6070 C   0  0  0  0  0  0  0  0  0  0  0  0
   64.1690   32.5060   50.6120 C   0  0  0  0  0  0  0  0  0  0  0  0
   65.5690   32.7050   50.0370 C   0  0  0  0  0  0  0  0  0  0  0  0
   62.2620   30.6510   49.7360 C   0  0  0  0  0  0  0  0  0  0  0  0
   60.9870   30.6570   50.5950 C   0  0  0  0  0  0  0  0  0  0  0  0
   59.9780   29.5540   50.2020 C   0  0  0  0  0  0  0  0  0  0  0  0
   59.2170   29.8260   48.8880 C   0  0  0  0  0  0  0  0  0  0  0  0
   60.0960   30.3660   47.8310 N   0  0  0  0  0  0  0  0  0  0  0  0
   59.3330   30.6080   46.6160 C   0  0  0  0  0  0  0  0  0  0  0  0
   58.9710   29.4950   45.7930 C   0  0  0  0  0  0  0  0  0  0  0  0
   59.3530   28.1640   46.1170 C   0  0  0  0  0  0  0  0  0  0  0  0
   58.9350   27.0800   45.3490 C   0  0  0  0  0  0  0  0  0  0  0  0
   58.1290   27.2820   44.2390 C   0  0  0  0  0  0  0  0  0  0  0  0
   57.7640   28.5740   43.8760 C   0  0  0  0  0  0  0  0  0  0  0  0
   58.2030   29.7050   44.6180 C   0  0  0  0  0  0  0  0  0  0  0  0
   57.8730   30.9800   44.2260 N   0  0  0  0  0  0  0  0  0  0  0  0
   57.3760   31.2210   42.8520 C   0  0  0  0  0  0  0  0  0  0  0  0
   58.0430   32.0420   45.0890 C   0  0  0  0  0  0  0  0  0  0  0  0
   57.3660   33.2600   44.8430 C   0  0  0  0  0  0  0  0  0  0  0  0
   57.5960   34.3830   45.6160 C   0  0  0  0  0  0  0  0  0  0  0  0
   58.5120   34.3350   46.6430 C   0  0  0  0  0  0  0  0  0  0  0  0
   59.1740   33.1420   46.9790 C   0  0  0  0  0  0  0  0  0  0  0  0
   60.1970   33.2490   47.9850 N   0  0  0  0  0  0  0  0  0  0  0  0
   59.9150   33.8550   49.2940 C   0  0  0  0  0  0  0  0  0  0  0  0
   58.8930   33.0490   50.1010 C   0  0  0  0  0  0  0  0  0  0  0  0
   58.9570   33.3370   51.6090 C   0  0  0  0  0  0  0  0  0  0  0  0
   58.0940   32.3990   52.3380 N   0  0  0  0  0  0  0  0  0  0  0  0
   57.0580   31.7890   51.6860 C   0  0  0  0  0  0  0  0  0  0  0  0
   56.2700   30.8380   52.3420 C   0  0  0  0  0  0  0  0  0  0  0  0
   56.5590   30.4990   53.6640 C   0  0  0  0  0  0  0  0  0  0  0  0
   57.6130   31.1270   54.3220 C   0  0  0  0  0  0  0  0  0  0  0  0
   58.3770   32.0790   53.6400 C   0  0  0  0  0  0  0  0  0  0  0  0
   58.8830   31.9270   46.2450 C   0  0  0  0  0  0  0  0  0  0  0  0
   62.4339   34.4885   47.1051 H   0  0  0  0  0  0  0  0  0  0  0  0
   63.5940   34.4674   45.7338 H   0  0  0  0  0  0  0  0  0  0  0  0
   62.1830   33.3558   45.7338 H   0  0  0  0  0  0  0  0  0  0  0  0
   64.5371   32.4114   46.3958 H   0  0  0  0  0  0  0  0  0  0  0  0
   64.2354   33.2586   47.9653 H   0  0  0  0  0  0  0  0  0  0  0  0
   62.0496   31.5029   46.8606 H   0  0  0  0  0  0  0  0  0  0  0  0
   63.5042   30.7117   47.5794 H   0  0  0  0  0  0  0  0  0  0  0  0
   63.5822   33.6019   48.8449 H   0  0  0  0  0  0  0  0  0  0  0  0
   62.3380   33.5270   50.1924 H   0  0  0  0  0  0  0  0  0  0  0  0
   64.0749   33.0863   51.5418 H   0  0  0  0  0  0  0  0  0  0  0  0
   64.0188   31.4350   50.8129 H   0  0  0  0  0  0  0  0  0  0  0  0
   66.2920   32.8078   50.8596 H   0  0  0  0  0  0  0  0  0  0  0  0
   65.8383   31.8361   49.4185 H   0  0  0  0  0  0  0  0  0  0  0  0
   65.5855   33.6145   49.4185 H   0  0  0  0  0  0  0  0  0  0  0  0
   62.2396   29.7767   49.0688 H   0  0  0  0  0  0  0  0  0  0  0  0
   63.1315   30.6076   50.4084 H   0  0  0  0  0  0  0  0  0  0  0  0
   61.2741   30.5086   51.6465 H   0  0  0  0  0  0  0  0  0  0  0  0
   60.4902   31.6249   50.4328 H   0  0  0  0  0  0  0  0  0  0  0  0
   60.5281   28.6079   50.0915 H   0  0  0  0  0  0  0  0  0  0  0  0
   59.2228   29.5199   51.0011 H   0  0  0  0  0  0  0  0  0  0  0  0
   58.7759   28.8828   48.5333 H   0  0  0  0  0  0  0  0  0  0  0  0
   58.4427   30.5786   49.0979 H   0  0  0  0  0  0  0  0  0  0  0  0
   60.9250   29.7670   47.6540 H   0  0  0  0  0  0  0  0  0  0  0  0
   60.5530   31.2440   48.1560 H   0  0  0  0  0  0  0  0  0  0  0  0
   59.9930   27.9867   46.9939 H   0  0  0  0  0  0  0  0  0  0  0  0
   59.2451   26.0610   45.6237 H   0  0  0  0  0  0  0  0  0  0  0  0
   57.7794   26.4231   43.6474 H   0  0  0  0  0  0  0  0  0  0  0  0
   57.1217   28.7243   42.9957 H   0  0  0  0  0  0  0  0  0  0  0  0
   56.3871   31.7005   42.8986 H   0  0  0  0  0  0  0  0  0  0  0  0
   58.0777   31.8789   42.3184 H   0  0  0  0  0  0  0  0  0  0  0  0
   57.2940   30.2626   42.3184 H   0  0  0  0  0  0  0  0  0  0  0  0
   56.6403   33.3146   44.0181 H   0  0  0  0  0  0  0  0  0  0  0  0
   57.0476   35.3142   45.4107 H   0  0  0  0  0  0  0  0  0  0  0  0
   58.7302   35.2503   47.2127 H   0  0  0  0  0  0  0  0  0  0  0  0
   61.1880   33.2280   47.6630 H   0  0  0  0  0  0  0  0  0  0  0  0
   60.8524   33.9115   49.8667 H   0  0  0  0  0  0  0  0  0  0  0  0
   59.4907   34.8543   49.1172 H   0  0  0  0  0  0  0  0  0  0  0  0
   57.8848   33.2988   49.7389 H   0  0  0  0  0  0  0  0  0  0  0  0
   59.1280   31.9838   49.9592 H   0  0  0  0  0  0  0  0  0  0  0  0
   59.9941   33.2235   51.9576 H   0  0  0  0  0  0  0  0  0  0  0  0
   58.6105   34.3644   51.7948 H   0  0  0  0  0  0  0  0  0  0  0  0
   56.8432   32.0481   50.6388 H   0  0  0  0  0  0  0  0  0  0  0  0
   55.4281   30.3606   51.8192 H   0  0  0  0  0  0  0  0  0  0  0  0
   55.9570   29.7392   54.1840 H   0  0  0  0  0  0  0  0  0  0  0  0
   57.8425   30.8767   55.3683 H   0  0  0  0  0  0  0  0  0  0  0  0
   59.2133   32.5758   54.1536 H   0  0  0  0  0  0  0  0  0  0  0  0
  1  2  1  0
  2  3  1  0
  3  4  1  0
  4  5  1  0
  5  6  1  0
  6  7  1  0
  4  8  1  0
  8  9  1  0
  9 10  1  0
 10 11  1  0
 11 12  1  0
 12 13  1  0
 13 14  2  0
 14 15  1  0
 15 16  2  0
 16 17  1  0
 17 18  2  0
 18 19  1  0
 19 20  2  0
 20 21  1  0
 20 22  1  0
 22 23  2  0
 23 24  1  0
 24 25  2  0
 25 26  1  0
 26 27  1  0
 27 28  1  0
 28 29  1  0
 29 30  1  0
 30 31  1  0
 31 32  2  0
 32 33  1  0
 33 34  2  0
 34 35  1  0
 35 36  2  0
 26 37  2  0
 37 13  1  0
 19 14  1  0
 37 22  1  0
 36 31  1  0
  1 38  1  0
  1 39  1  0
  1 40  1  0
  2 41  1  0
  2 42  1  0
  3 43  1  0
  3 44  1  0
  5 45  1  0
  5 46  1  0
  6 47  1  0
  6 48  1  0
  7 49  1  0
  7 50  1  0
  7 51  1  0
  8 52  1  0
  8 53  1  0
  9 54  1  0
  9 55  1  0
 10 56  1  0
 10 57  1  0
 11 58  1  0
 11 59  1  0
 12 60  1  0
 12 61  1  0
 15 62  1  0
 16 63  1  0
 17 64  1  0
 18 65  1  0
 21 66  1  0
 21 67  1  0
 21 68  1  0
 23 69  1  0
 24 70  1  0
 25 71  1  0
 27 72  1  0
 28 73  1  0
 28 74  1  0
 29 75  1  0
 29 76  1  0
 30 77  1  0
 30 78  1  0
 32 79  1  0
 33 80  1  0
 34 81  1  0
 35 82  1  0
 36 83  1  0
M  CHG  3  12   1  20   1  31   1
M  END
>  <UniqueID>  (5) 
5

>  <SMILES>  (5) 
CCCN(CCC)CCCC[NH2+]c1c2ccccc2[n+](C)c2cccc(NCCC[n+]3ccccc3)c12

>  <Energy>  (5) 
118.57634549955856

>  <Genealogy>  (5) 
CCCN(CCC)CCCC[NH2+]c1c2ccccc2[n+](C)c2cccc(NCCC[n+]3ccccc3)c12 (protonated)
CCCN(CCC)CCCC[NH2+]c1c2ccccc2[n+](C)c2cccc(NCCC[n+]3ccccc3)c12 (3D coordinates assigned)
CCCN(CCC)CCCC[NH2+]c1c2ccccc2[n+](C)c2cccc(NCCC[n+]3ccccc3)c12 (optimized conformer: 118.57634549955856 kcal/mol)

>  <smiles>  (5) 
CCCN(CCC)CCCCNc1c2ccccc2[n+](C)c2cccc(NCCC[n+]3ccccc3)c12

>  <score_type>  (5) 
oracle

>  <origin>  (5) 
adg

>  <m_score__min__energy>  (5) 
-4.3099999999999996

>  <m_primary>  (5) 
energy

$$$$
5:0
     RDKit          3D

 78 77  0  0  0  0  0  0  0  0999 V2000
   63.6590   33.5120   46.6160 C   0  0  0  0  0  0  0  0  0  0  0  0
   63.2500   32.1260   47.1220 C   0  0  0  0  0  0  0  0  0  0  0  0
   62.8920   32.1250   48.5530 N   0  0  0  0  0  0  0  0  0  0  0  0
   63.5650   33.1910   49.3090 C   0  0  0  0  0  0  0  0  0  0  0  0
   64.6780   32.6150   50.1520 C   0  0  0  0  0  0  0  0  0  0  0  0
   64.4930   31.8680   51.2560 C   0  0  0  0  0  0  0  0  0  0  0  0
   63.7010   30.5840   51.2940 C   0  0  0  0  0  0  0  0  0  0  0  0
   62.3000   30.8160   50.8980 N   0  0  0  0  0  0  0  0  0  0  0  0
   61.5050   29.5740   50.8850 C   0  0  0  0  0  0  0  0  0  0  0  0
   61.1380   29.0930   49.4680 C   0  0  0  0  0  0  0  0  0  0  0  0
   61.2310   30.1740   48.4750 N   0  0  0  0  0  0  0  0  0  0  0  0
   60.2670   29.9900   47.3800 C   0  0  0  0  0  0  0  0  0  0  0  0
   58.8760   30.2630   47.8630 C   0  0  0  0  0  0  0  0  0  0  0  0
   58.6540   30.6300   49.0950 C   0  0  0  0  0  0  0  0  0  0  0  0
   58.4070   30.9850   50.3260 C   0  0  0  0  0  0  0  0  0  0  0  0
   59.1410   32.1410   50.9270 C   0  0  0  0  0  0  0  0  0  0  0  0
   60.3890   32.3890   50.1940 N   0  0  0  0  0  0  0  0  0  0  0  0
   60.7090   33.8240   50.1520 C   0  0  0  0  0  0  0  0  0  0  0  0
   59.6580   34.5880   49.3370 C   0  0  0  0  0  0  0  0  0  0  0  0
   59.0960   33.7200   48.2020 C   0  0  0  0  0  0  0  0  0  0  0  0
   60.1580   32.9610   47.5260 N   0  0  0  0  0  0  0  0  0  0  0  0
   60.4700   33.5170   46.2020 C   0  0  0  0  0  0  0  0  0  0  0  0
   59.4180   34.5580   45.8000 C   0  0  0  0  0  0  0  0  0  0  0  0
   58.3290   33.9270   44.9270 C   0  0  0  0  0  0  0  0  0  0  0  0
   58.4470   32.3970   44.9070 C   0  0  0  0  0  0  0  0  0  0  0  0
   57.2750   31.7570   44.1570 C   0  0  0  0  0  0  0  0  0  0  0  0
   56.6910   30.6750   44.9610 N   0  0  0  0  0  0  0  0  0  0  0  0
   55.8770   29.7690   44.1370 C   0  0  0  0  0  0  0  0  0  0  0  0
   56.3670   29.7890   42.6940 C   0  0  0  0  0  0  0  0  0  0  0  0
   63.8539   34.1726   47.4736 H   0  0  0  0  0  0  0  0  0  0  0  0
   64.5699   33.4254   46.0054 H   0  0  0  0  0  0  0  0  0  0  0  0
   62.8470   33.9338   46.0054 H   0  0  0  0  0  0  0  0  0  0  0  0
   62.3812   31.7818   46.5417 H   0  0  0  0  0  0  0  0  0  0  0  0
   64.1145   31.4577   46.9954 H   0  0  0  0  0  0  0  0  0  0  0  0
   61.8570   32.2410   48.6540 H   0  0  0  0  0  0  0  0  0  0  0  0
   63.9854   33.9246   48.6054 H   0  0  0  0  0  0  0  0  0  0  0  0
   62.8323   33.6781   49.9691 H   0  0  0  0  0  0  0  0  0  0  0  0
   65.7131   32.8206   49.8416 H   0  0  0  0  0  0  0  0  0  0  0  0
   64.9498   32.2168   52.1939 H   0  0  0  0  0  0  0  0  0  0  0  0
   64.1555   29.8603   50.6014 H   0  0  0  0  0  0  0  0  0  0  0  0
   63.7147   30.1939   52.3224 H   0  0  0  0  0  0  0  0  0  0  0  0
   62.2650   31.2240   49.9340 H   0  0  0  0  0  0  0  0  0  0  0  0
   61.8660   31.5110   51.5470 H   0  0  0  0  0  0  0  0  0  0  0  0
   62.0868   28.7832   51.3812 H   0  0  0  0  0  0  0  0  0  0  0  0
   60.5614   29.7888   51.4079 H   0  0  0  0  0  0  0  0  0  0  0  0
   61.8262   28.2852   49.1784 H   0  0  0  0  0  0  0  0  0  0  0  0
   60.0959   28.7414   49.4891 H   0  0  0  0  0  0  0  0  0  0  0  0
   60.9920   31.0700   48.9650 H   0  0  0  0  0  0  0  0  0  0  0  0
   60.5100   30.6838   46.5617 H   0  0  0  0  0  0  0  0  0  0  0  0
   60.3249   28.9515   47.0221 H   0  0  0  0  0  0  0  0  0  0  0  0
   58.0296   30.1525   47.1692 H   0  0  0  0  0  0  0  0  0  0  0  0
   57.6614   30.4358   50.9197 H   0  0  0  0  0  0  0  0  0  0  0  0
   58.5069   33.0385   50.8780 H   0  0  0  0  0  0  0  0  0  0  0  0
   59.3818   31.9064   51.9744 H   0  0  0  0  0  0  0  0  0  0  0  0
   60.2410   32.0680   49.2070 H   0  0  0  0  0  0  0  0  0  0  0  0
   60.7289   34.2201   51.1780 H   0  0  0  0  0  0  0  0  0  0  0  0
   61.6914   33.9544   49.6746 H   0  0  0  0  0  0  0  0  0  0  0  0
   58.8343   34.8852   50.0028 H   0  0  0  0  0  0  0  0  0  0  0  0
   60.1374   35.4732   48.8935 H   0  0  0  0  0  0  0  0  0  0  0  0
   58.3639   33.0141   48.6212 H   0  0  0  0  0  0  0  0  0  0  0  0
   58.6228   34.3833   47.4630 H   0  0  0  0  0  0  0  0  0  0  0  0
   61.0170   33.0480   48.1190 H   0  0  0  0  0  0  0  0  0  0  0  0
   61.4601   33.9952   46.2335 H   0  0  0  0  0  0  0  0  0  0  0  0
   60.4680   32.7026   45.4626 H   0  0  0  0  0  0  0  0  0  0  0  0
   58.9561   34.9723   46.7083 H   0  0  0  0  0  0  0  0  0  0  0  0
   59.9133   35.3531   45.2234 H   0  0  0  0  0  0  0  0  0  0  0  0
   57.3429   34.2051   45.3274 H   0  0  0  0  0  0  0  0  0  0  0  0
   58.4503   34.2980   43.8986 H   0  0  0  0  0  0  0  0  0  0  0  0
   59.3868   32.1168   44.4088 H   0  0  0  0  0  0  0  0  0  0  0  0
   58.4333   32.0346   45.9455 H   0  0  0  0  0  0  0  0  0  0  0  0
   56.5074   32.5205   43.9623 H   0  0  0  0  0  0  0  0  0  0  0  0
   57.6401   31.3418   43.2060 H   0  0  0  0  0  0  0  0  0  0  0  0
   57.4820   30.1180   45.3670 H   0  0  0  0  0  0  0  0  0  0  0  0
   55.9568   28.7462   44.5339 H   0  0  0  0  0  0  0  0  0  0  0  0
   54.8288   30.1015   44.1654 H   0  0  0  0  0  0  0  0  0  0  0  0
   57.4660   29.8339   42.6806 H   0  0  0  0  0  0  0  0  0  0  0  0
   56.0310   28.8764   42.1800 H   0  0  0  0  0  0  0  0  0  0  0  0
   55.9577   30.6712   42.1800 H   0  0  0  0  0  0  0  0  0  0  0  0
  1  2  1  0
  2  3  1  0
  3  4  1  0
  4  5  1  0
  5  6  2  3
  6  7  1  0
  7  8  1  0
  8  9  1  0
  9 10  1  0
 10 11  1  0
 11 12  1  0
 12 13  1  0
 13 14  2  0
 14 15  2  0
 15 16  1  0
 16 17  1  0
 17 18  1  0
 18 19  1  0
 19 20  1  0
 20 21  1  0
 21 22  1  0
 22 23  1  0
 23 24  1  0
 24 25  1  0
 25 26  1  0
 26 27  1  0
 27 28  1  0
 28 29  1  0
  1 30  1  0
  1 31  1  0
  1 32  1  0
  2 33  1  0
  2 34  1  0
  3 35  1  0
  4 36  1  0
  4 37  1  0
  5 38  1  0
  6 39  1  0
  7 40  1  0
  7 41  1  0
  8 42  1  0
  8 43  1  0
  9 44  1  0
  9 45  1  0
 10 46  1  0
 10 47  1  0
 11 48  1  0
 12 49  1  0
 12 50  1  0
 13 51  1  0
 15 52  1  0
 16 53  1  0
 16 54  1  0
 17 55  1  0
 18 56  1  0
 18 57  1  0
 19 58  1  0
 19 59  1  0
 20 60  1  0
 20 61  1  0
 21 62  1  0
 22 63  1  0
 22 64  1  0
 23 65  1  0
 23 66  1  0
 24 67  1  0
 24 68  1  0
 25 69  1  0
 25 70  1  0
 26 71  1  0
 26 72  1  0
 27 73  1  0
 28 74  1  0
 28 75  1  0
 29 76  1  0
 29 77  1  0
 29 78  1  0
M  CHG  1   8   1
M  END
>  <UniqueID>  (6) 
6

>  <SMILES>  (6) 
CCNCC=CC[NH2+]CCNCC=C=CCNCCCNCCCCCNCC

>  <Energy>  (6) 
38.244422037685595

>  <Genealogy>  (6) 
CCNCC=CC[NH2+]CCNCC=C=CCNCCCNCCCCCNCC (protonated)
CCNCC=CC[NH2+]CCNCC=C=CCNCCCNCCCCCNCC (3D coordinates assigned)
CCNCC=CC[NH2+]CCNCC=C=CCNCCCNCCCCCNCC (optimized conformer: 38.244422037685595 kcal/mol)

>  <smiles>  (6) 
CCNCC=CCNCCNCC=C=CCNCCCNCCCCCNCC

>  <score_type>  (6) 
oracle

>  <origin>  (6) 
adg

>  <m_score__min__energy>  (6) 
-2.1600000000000001

>  <m_primary>  (6) 
energy

$$$$
6:0
     RDKit          3D

 35 37  0  0  0  0  0  0  0  0999 V2000
   58.4100   31.5690   46.8820 C   0  0  0  0  0  0  0  0  0  0  0  0
   58.1070   31.5130   45.4520 N   0  0  0  0  0  0  0  0  0  0  0  0
   58.1740   30.4560   44.6050 C   0  0  0  0  0  0  0  0  0  0  0  0
   58.6630   29.1030   44.9460 C   0  0  0  0  0  0  0  0  0  0  0  0
   59.9390   28.9450   45.5060 C   0  0  0  0  0  0  0  0  0  0  0  0
   60.3890   27.6670   45.8450 C   0  0  0  0  0  0  0  0  0  0  0  0
   59.5880   26.5870   45.6490 N   0  0  0  0  0  0  0  0  0  0  0  0
   58.3390   26.7120   45.1270 C   0  0  0  0  0  0  0  0  0  0  0  0
   57.8520   27.9720   44.7720 C   0  0  0  0  0  0  0  0  0  0  0  0
   57.7340   30.7850   43.3720 N   0  0  0  0  0  0  0  0  0  0  0  0
   57.4050   32.0660   43.4240 N   0  0  0  0  0  0  0  0  0  0  0  0
   57.6400   32.5060   44.6710 C   0  0  0  0  0  0  0  0  0  0  0  0
   57.3960   34.2070   45.1940 S   0  0  0  0  0  0  0  0  0  0  0  0
   59.1640   34.6580   45.0730 C   0  0  0  0  0  0  0  0  0  0  0  0
   59.8820   34.4100   46.3700 C   0  0  0  0  0  0  0  0  0  0  0  0
   59.2580   34.6970   47.5960 C   0  0  0  0  0  0  0  0  0  0  0  0
   59.9430   34.5040   48.7990 C   0  0  0  0  0  0  0  0  0  0  0  0
   61.2560   34.0230   48.7870 C   0  0  0  0  0  0  0  0  0  0  0  0
   61.8860   33.7370   47.5710 C   0  0  0  0  0  0  0  0  0  0  0  0
   63.6840   33.0940   47.5560 Br  0  0  0  0  0  0  0  0  0  0  0  0
   61.2020   33.9310   46.3660 C   0  0  0  0  0  0  0  0  0  0  0  0
   57.4890   31.3988   47.4589 H   0  0  0  0  0  0  0  0  0  0  0  0
   59.1476   30.7920   47.1312 H   0  0  0  0  0  0  0  0  0  0  0  0
   58.8212   32.5584   47.1312 H   0  0  0  0  0  0  0  0  0  0  0  0
   60.5811   29.8216   45.6771 H   0  0  0  0  0  0  0  0  0  0  0  0
   61.3942   27.5344   46.2717 H   0  0  0  0  0  0  0  0  0  0  0  0
   57.7114   25.8200   44.9841 H   0  0  0  0  0  0  0  0  0  0  0  0
   56.8382   28.0767   44.3583 H   0  0  0  0  0  0  0  0  0  0  0  0
   57.0430   32.6230   42.6180 H   0  0  0  0  0  0  0  0  0  0  0  0
   59.6342   34.0548   44.2824 H   0  0  0  0  0  0  0  0  0  0  0  0
   59.2330   35.7304   44.8381 H   0  0  0  0  0  0  0  0  0  0  0  0
   58.2252   35.0755   47.6090 H   0  0  0  0  0  0  0  0  0  0  0  0
   59.4491   34.7305   49.7554 H   0  0  0  0  0  0  0  0  0  0  0  0
   61.7938   33.8694   49.7342 H   0  0  0  0  0  0  0  0  0  0  0  0
   61.7004   33.7073   45.4113 H   0  0  0  0  0  0  0  0  0  0  0  0
  1  2  1  0
  2  3  1  0
  3  4  1  0
  4  5  2  0
  5  6  1  0
  6  7  2  0
  7  8  1  0
  8  9  2  0
  3 10  2  0
 10 11  1  0
 11 12  2  0
 12 13  1  0
 13 14  1  0
 14 15  1  0
 15 16  2  0
 16 17  1  0
 17 18  2  0
 18 19  1  0
 19 20  1  0
 19 21  2  0
 12  2  1  0
 21 15  1  0
  9  4  1  0
  1 22  1  0
  1 23  1  0
  1 24  1  0
  5 25  1  0
  6 26  1  0
  8 27  1  0
  9 28  1  0
 11 29  1  0
 14 30  1  0
 14 31  1  0
 16 32  1  0
 17 33  1  0
 18 34  1  0
 21 35  1  0
M  CHG  1  11   1
M  END
>  <UniqueID>  (7) 
7

>  <SMILES>  (7) 
Cn1c(-c2ccncc2)n[nH+]c1SCc1cccc(Br)c1

>  <Energy>  (7) 
71.15768195001458

>  <Genealogy>  (7) 
Cn1c(-c2ccncc2)n[nH+]c1SCc1cccc(Br)c1 (protonated)
Cn1c(-c2ccncc2)n[nH+]c1SCc1cccc(Br)c1 (3D coordinates assigned)
Cn1c(-c2ccncc2)n[nH+]c1SCc1cccc(Br)c1 (optimized conformer: 71.15768195001458 kcal/mol)

>  <smiles>  (7) 
Cn1c(SCc2cccc(Br)c2)nnc1-c1ccncc1

>  <score_type>  (7) 
oracle

>  <origin>  (7) 
adg

>  <m_score__min__energy>  (7) 
-6.2699999999999996

>  <m_primary>  (7) 
energy

$$$$
7:0
     RDKit          3D

 41 42  0  0  0  0  0  0  0  0999 V2000
   54.9590   23.9170   46.3610 C   0  0  0  0  0  0  0  0  0  0  0  0
   54.4420   25.0930   45.5400 C   0  0  0  0  0  0  0  0  0  0  0  0
   55.0110   26.3190   45.9970 O   0  0  0  0  0  0  0  0  0  0  0  0
   56.3680   26.6790   45.9160 C   0  0  0  0  0  0  0  0  0  0  0  0
   57.4060   25.8070   46.3020 C   0  0  0  0  0  0  0  0  0  0  0  0
   58.7390   26.2130   46.2040 C   0  0  0  0  0  0  0  0  0  0  0  0
   59.0510   27.4770   45.7060 C   0  0  0  0  0  0  0  0  0  0  0  0
   58.0320   28.3450   45.3100 C   0  0  0  0  0  0  0  0  0  0  0  0
   56.6830   27.9580   45.4300 C   0  0  0  0  0  0  0  0  0  0  0  0
   55.6240   28.8140   45.0810 O   0  0  0  0  0  0  0  0  0  0  0  0
   55.4240   29.4120   43.7980 C   0  0  0  0  0  0  0  0  0  0  0  0
   56.3600   30.6110   43.5810 C   0  0  0  0  0  0  0  0  0  0  0  0
   56.8480   31.1630   44.8580 N   0  0  0  0  0  0  0  0  0  0  0  0
   58.2970   31.4180   44.8210 C   0  0  0  0  0  0  0  0  0  0  0  0
   58.6700   32.6570   45.6060 C   0  0  0  0  0  0  0  0  0  0  0  0
   58.9980   33.8480   44.9370 C   0  0  0  0  0  0  0  0  0  0  0  0
   59.2980   35.0050   45.6620 C   0  0  0  0  0  0  0  0  0  0  0  0
   59.2640   34.9850   47.0580 C   0  0  0  0  0  0  0  0  0  0  0  0
   58.9390   33.8060   47.7330 C   0  0  0  0  0  0  0  0  0  0  0  0
   58.6470   32.6440   47.0120 C   0  0  0  0  0  0  0  0  0  0  0  0
   54.8586   24.1454   47.4323 H   0  0  0  0  0  0  0  0  0  0  0  0
   54.3735   23.0171   46.1215 H   0  0  0  0  0  0  0  0  0  0  0  0
   56.0179   23.7400   46.1215 H   0  0  0  0  0  0  0  0  0  0  0  0
   54.7113   24.9419   44.4842 H   0  0  0  0  0  0  0  0  0  0  0  0
   53.3491   25.1480   45.6523 H   0  0  0  0  0  0  0  0  0  0  0  0
   57.1655   24.8031   46.6818 H   0  0  0  0  0  0  0  0  0  0  0  0
   59.5442   25.5337   46.5205 H   0  0  0  0  0  0  0  0  0  0  0  0
   60.1021   27.7910   45.6249 H   0  0  0  0  0  0  0  0  0  0  0  0
   58.2836   29.3353   44.9026 H   0  0  0  0  0  0  0  0  0  0  0  0
   55.6203   28.6603   43.0192 H   0  0  0  0  0  0  0  0  0  0  0  0
   54.3859   29.7716   43.7440 H   0  0  0  0  0  0  0  0  0  0  0  0
   57.2226   30.2853   42.9811 H   0  0  0  0  0  0  0  0  0  0  0  0
   55.7926   31.3982   43.0629 H   0  0  0  0  0  0  0  0  0  0  0  0
   56.6460   30.5110   45.6520 H   0  0  0  0  0  0  0  0  0  0  0  0
   58.8219   30.5524   45.2514 H   0  0  0  0  0  0  0  0  0  0  0  0
   58.5895   31.5766   43.7725 H   0  0  0  0  0  0  0  0  0  0  0  0
   59.0189   33.8703   43.8374 H   0  0  0  0  0  0  0  0  0  0  0  0
   59.5612   35.9324   45.1322 H   0  0  0  0  0  0  0  0  0  0  0  0
   59.4933   35.8984   47.6265 H   0  0  0  0  0  0  0  0  0  0  0  0
   58.9128   33.7917   48.8326 H   0  0  0  0  0  0  0  0  0  0  0  0
   58.3982   31.7156   47.5470 H   0  0  0  0  0  0  0  0  0  0  0  0
  1  2  1  0
  2  3  1  0
  3  4  1  0
  4  5  2  0
  5  6  1  0
  6  7  2  0
  7  8  1  0
  8  9  2  0
  9 10  1  0
 10 11  1  0
 11 12  1  0
 12 13  1  0
 13 14  1  0
 14 15  1  0
 15 16  2  0
 16 17  1  0
 17 18  2  0
 18 19  1  0
 19 20  2  0
  9  4  1  0
 20 15  1  0
  1 21  1  0
  1 22  1  0
  1 23  1  0
  2 24  1  0
  2 25  1  0
  5 26  1  0
  6 27  1  0
  7 28  1  0
  8 29  1  0
 11 30  1  0
 11 31  1  0
 12 32  1  0
 12 33  1  0
 13 34  1  0
 14 35  1  0
 14 36  1  0
 16 37  1  0
 17 38  1  0
 18 39  1  0
 19 40  1  0
 20 41  1  0
M  END
>  <UniqueID>  (8) 
8

>  <SMILES>  (8) 
CCOc1ccccc1OCCNCc1ccccc1

>  <Energy>  (8) 
34.712748699839516

>  <Genealogy>  (8) 
CCOc1ccccc1OCCNCc1ccccc1 (3D coordinates assigned)
CCOc1ccccc1OCCNCc1ccccc1 (optimized conformer: 34.712748699839516 kcal/mol)

>  <smiles>  (8) 
CCOc1ccccc1OCCNCc1ccccc1

>  <score_type>  (8) 
oracle

>  <origin>  (8) 
adg

>  <m_score__min__energy>  (8) 
-7.8899999999999997

>  <m_primary>  (8) 
energy

$$$$
8:0
     RDKit          3D

 36 36  0  0  0  0  0  0  0  0999 V2000
   63.7690   33.2480   47.4060 C   0  0  0  0  0  0  0  0  0  0  0  0
   62.3920   33.4130   46.7650 C   0  0  0  0  0  0  0  0  0  0  0  0
   61.3120   32.5700   47.4580 C   0  0  0  0  0  0  0  0  0  0  0  0
   59.9850   32.6340   46.7380 C   0  0  0  0  0  0  0  0  0  0  0  0
   59.3170   33.8030   46.3780 C   0  0  0  0  0  0  0  0  0  0  0  0
   59.7330   35.2160   46.6610 C   0  0  0  0  0  0  0  0  0  0  0  0
   58.1320   33.4070   45.7830 C   0  0  0  0  0  0  0  0  0  0  0  0
   57.1000   34.2590   45.2520 C   0  0  0  0  0  0  0  0  0  0  0  0
   56.2700   34.9420   44.8240 N   0  0  0  0  0  0  0  0  0  0  0  0
   58.1390   32.0310   45.7680 C   0  0  0  0  0  0  0  0  0  0  0  0
   57.1260   31.2420   45.2130 O   0  0  0  0  0  0  0  0  0  0  0  0
   57.2520   30.6130   43.9390 C   0  0  0  0  0  0  0  0  0  0  0  0
   55.9150   29.9810   43.5630 C   0  0  0  0  0  0  0  0  0  0  0  0
   57.6780   31.6420   42.8880 C   0  0  0  0  0  0  0  0  0  0  0  0
   59.2500   31.5540   46.3700 N   0  0  0  0  0  0  0  0  0  0  0  0
   59.5890   30.1450   46.5700 C   0  0  0  0  0  0  0  0  0  0  0  0
   63.6674   33.2602   48.5012 H   0  0  0  0  0  0  0  0  0  0  0  0
   64.2086   32.2908   47.0891 H   0  0  0  0  0  0  0  0  0  0  0  0
   64.4223   34.0743   47.0891 H   0  0  0  0  0  0  0  0  0  0  0  0
   62.1019   34.4725   46.8217 H   0  0  0  0  0  0  0  0  0  0  0  0
   62.4664   33.0673   45.7234 H   0  0  0  0  0  0  0  0  0  0  0  0
   61.6470   31.5227   47.4899 H   0  0  0  0  0  0  0  0  0  0  0  0
   61.1659   32.9760   48.4698 H   0  0  0  0  0  0  0  0  0  0  0  0
   59.7794   35.3737   47.7486 H   0  0  0  0  0  0  0  0  0  0  0  0
   60.7239   35.4016   46.2210 H   0  0  0  0  0  0  0  0  0  0  0  0
   59.0007   35.9089   46.2210 H   0  0  0  0  0  0  0  0  0  0  0  0
   58.0222   29.8289   43.9834 H   0  0  0  0  0  0  0  0  0  0  0  0
   55.3627   29.7199   44.4778 H   0  0  0  0  0  0  0  0  0  0  0  0
   55.3254   30.6957   42.9701 H   0  0  0  0  0  0  0  0  0  0  0  0
   56.0931   29.0717   42.9701 H   0  0  0  0  0  0  0  0  0  0  0  0
   58.0523   32.5461   43.3906 H   0  0  0  0  0  0  0  0  0  0  0  0
   58.4737   31.2160   42.2592 H   0  0  0  0  0  0  0  0  0  0  0  0
   56.8140   31.9031   42.2592 H   0  0  0  0  0  0  0  0  0  0  0  0
   59.6408   29.9297   47.6475 H   0  0  0  0  0  0  0  0  0  0  0  0
   58.8173   29.5128   46.1065 H   0  0  0  0  0  0  0  0  0  0  0  0
   60.5638   29.9330   46.1065 H   0  0  0  0  0  0  0  0  0  0  0  0
  1  2  1  0
  2  3  1  0
  3  4  1  0
  4  5  2  0
  5  6  1  0
  5  7  1  0
  7  8  1  0
  8  9  3  0
  7 10  2  0
 10 11  1  0
 11 12  1  0
 12 13  1  0
 12 14  1  0
 10 15  1  0
 15 16  1  0
 15  4  1  0
  1 17  1  0
  1 18  1  0
  1 19  1  0
  2 20  1  0
  2 21  1  0
  3 22  1  0
  3 23  1  0
  6 24  1  0
  6 25  1  0
  6 26  1  0
 12 27  1  0
 13 28  1  0
 13 29  1  0
 13 30  1  0
 14 31  1  0
 14 32  1  0
 14 33  1  0
 16 34  1  0
 16 35  1  0
 16 36  1  0
M  END
>  <UniqueID>  (9) 
9

>  <SMILES>  (9) 
CCCc1c(C)c(C#N)c(OC(C)C)n1C

>  <Energy>  (9) 
54.515624194025825

>  <Genealogy>  (9) 
CCCc1c(C)c(C#N)c(OC(C)C)n1C (3D coordinates assigned)
CCCc1c(C)c(C#N)c(OC(C)C)n1C (optimized conformer: 54.515624194025825 kcal/mol)

>  <smiles>  (9) 
CCCc1c(C)c(C#N)c(OC(C)C)n1C

>  <score_type>  (9) 
oracle

>  <origin>  (9) 
adg

>  <m_score__min__energy>  (9) 
-5.8600000000000003

>  <m_primary>  (9) 
energy

$$$$
9:0
     RDKit          3D

 50 52  0  0  0  0  0  0  0  0999 V2000
   57.0760   28.5210   45.5700 C   0  0  0  0  0  0  0  0  0  0  0  0
   56.6600   29.8730   45.4060 O   0  0  0  0  0  0  0  0  0  0  0  0
   57.0280   30.6950   44.3290 C   0  0  0  0  0  0  0  0  0  0  0  0
   56.6620   30.3910   43.0020 C   0  0  0  0  0  0  0  0  0  0  0  0
   57.0250   31.2440   41.9560 C   0  0  0  0  0  0  0  0  0  0  0  0
   57.7530   32.4040   42.2180 C   0  0  0  0  0  0  0  0  0  0  0  0
   58.1240   32.7150   43.5280 C   0  0  0  0  0  0  0  0  0  0  0  0
   57.7700   31.8660   44.5880 C   0  0  0  0  0  0  0  0  0  0  0  0
   58.1730   32.2010   45.9270 N   0  0  0  0  0  0  0  0  0  0  0  0
   58.7810   31.1830   46.7910 C   0  0  0  0  0  0  0  0  0  0  0  0
   59.9190   31.7700   47.6590 C   0  0  0  0  0  0  0  0  0  0  0  0
   59.9070   33.2550   47.7330 N   0  0  0  0  0  0  0  0  0  0  0  0
   60.6930   33.7400   48.8920 C   0  0  0  0  0  0  0  0  0  0  0  0
   62.1490   33.3520   48.7910 C   0  0  0  0  0  0  0  0  0  0  0  0
   62.9710   33.4060   47.6720 C   0  0  0  0  0  0  0  0  0  0  0  0
   62.5860   33.8450   46.2970 C   0  0  0  0  0  0  0  0  0  0  0  0
   64.2250   33.0480   48.0120 N   0  0  0  0  0  0  0  0  0  0  0  0
   64.2250   32.7590   49.3040 N   0  0  0  0  0  0  0  0  0  0  0  0
   65.4150   32.3360   50.0320 C   0  0  0  0  0  0  0  0  0  0  0  0
   62.9820   32.9160   49.8100 C   0  0  0  0  0  0  0  0  0  0  0  0
   62.6200   32.7430   51.2560 C   0  0  0  0  0  0  0  0  0  0  0  0
   58.5230   33.7640   47.8080 C   0  0  0  0  0  0  0  0  0  0  0  0
   57.7990   33.5070   46.4810 C   0  0  0  0  0  0  0  0  0  0  0  0
   57.1480   28.2870   46.6424 H   0  0  0  0  0  0  0  0  0  0  0  0
   56.3422   27.8517   45.0971 H   0  0  0  0  0  0  0  0  0  0  0  0
   58.0591   28.3799   45.0971 H   0  0  0  0  0  0  0  0  0  0  0  0
   56.0876   29.4775   42.7886 H   0  0  0  0  0  0  0  0  0  0  0  0
   56.7356   30.9995   40.9233 H   0  0  0  0  0  0  0  0  0  0  0  0
   58.0352   33.0743   41.3927 H   0  0  0  0  0  0  0  0  0  0  0  0
   58.6975   33.6316   43.7304 H   0  0  0  0  0  0  0  0  0  0  0  0
   58.0060   30.7690   47.4528 H   0  0  0  0  0  0  0  0  0  0  0  0
   59.2109   30.4014   46.1474 H   0  0  0  0  0  0  0  0  0  0  0  0
   59.8196   31.3704   48.6790 H   0  0  0  0  0  0  0  0  0  0  0  0
   60.8682   31.4787   47.1856 H   0  0  0  0  0  0  0  0  0  0  0  0
   60.3450   33.6350   46.8590 H   0  0  0  0  0  0  0  0  0  0  0  0
   60.6201   34.8367   48.9365 H   0  0  0  0  0  0  0  0  0  0  0  0
   60.2803   33.2763   49.8001 H   0  0  0  0  0  0  0  0  0  0  0  0
   61.8621   34.6704   46.3649 H   0  0  0  0  0  0  0  0  0  0  0  0
   63.4815   34.1861   45.7568 H   0  0  0  0  0  0  0  0  0  0  0  0
   62.1309   33.0017   45.7568 H   0  0  0  0  0  0  0  0  0  0  0  0
   65.2263   32.4031   51.1136 H   0  0  0  0  0  0  0  0  0  0  0  0
   65.6575   31.2966   49.7659 H   0  0  0  0  0  0  0  0  0  0  0  0
   66.2591   32.9891   49.7659 H   0  0  0  0  0  0  0  0  0  0  0  0
   63.4332   33.1316   51.8866 H   0  0  0  0  0  0  0  0  0  0  0  0
   61.6934   33.2956   51.4707 H   0  0  0  0  0  0  0  0  0  0  0  0
   62.4680   31.6749   51.4707 H   0  0  0  0  0  0  0  0  0  0  0  0
   57.9888   33.2495   48.6204 H   0  0  0  0  0  0  0  0  0  0  0  0
   58.5456   34.8461   48.0042 H   0  0  0  0  0  0  0  0  0  0  0  0
   56.7127   33.5279   46.6531 H   0  0  0  0  0  0  0  0  0  0  0  0
   58.0887   34.2896   45.7644 H   0  0  0  0  0  0  0  0  0  0  0  0
  1  2  1  0
  2  3  1  0
  3  4  2  0
  4  5  1  0
  5  6  2  0
  6  7  1  0
  7  8  2  0
  8  9  1  0
  9 10  1  0
 10 11  1  0
 11 12  1  0
 12 13  1  0
 13 14  1  0
 14 15  1  0
 15 16  1  0
 15 17  2  0
 17 18  1  0
 18 19  1  0
 18 20  1  0
 20 21  1  0
 12 22  1  0
 22 23  1  0
  8  3  1  0
 23  9  1  0
 20 14  2  0
  1 24  1  0
  1 25  1  0
  1 26  1  0
  4 27  1  0
  5 28  1  0
  6 29  1  0
  7 30  1  0
 10 31  1  0
 10 32  1  0
 11 33  1  0
 11 34  1  0
 12 35  1  0
 13 36  1  0
 13 37  1  0
 16 38  1  0
 16 39  1  0
 16 40  1  0
 19 41  1  0
 19 42  1  0
 19 43  1  0
 21 44  1  0
 21 45  1  0
 21 46  1  0
 22 47  1  0
 22 48  1  0
 23 49  1  0
 23 50  1  0
M  CHG  1  12   1
M  END
>  <UniqueID>  (10) 
10

>  <SMILES>  (10) 
COc1ccccc1N1CC[NH+](Cc2c(C)nn(C)c2C)CC1

>  <Energy>  (10) 
88.37728726335263

>  <Genealogy>  (10) 
COc1ccccc1N1CC[NH+](Cc2c(C)nn(C)c2C)CC1 (protonated)
COc1ccccc1N1CC[NH+](Cc2c(C)nn(C)c2C)CC1 (3D coordinates assigned)
COc1ccccc1N1CC[NH+](Cc2c(C)nn(C)c2C)CC1 (nonaromatic ring conformer: 88.37728726335263 kcal/mol)

>  <smiles>  (10) 
COc1ccccc1N1CCN(Cc2c(C)nn(C)c2C)CC1

>  <score_type>  (10) 
oracle

>  <origin>  (10) 
adg

>  <m_score__min__energy>  (10) 
-5.79

>  <m_primary>  (10) 
energy

$$$$
10:0
     RDKit          3D

 57 60  0  0  0  0  0  0  0  0999 V2000
   63.1090   33.8020   46.3960 C   0  0  0  0  0  0  0  0  0  0  0  0
   63.9030   33.4280   47.6440 C   0  0  0  0  0  0  0  0  0  0  0  0
   63.6820   32.0180   47.9920 N   0  0  0  0  0  0  0  0  0  0  0  0
   63.4780   31.8490   49.4380 C   0  0  0  0  0  0  0  0  0  0  0  0
   62.7170   33.0440   50.0340 C   0  0  0  0  0  0  0  0  0  0  0  0
   61.2140   32.8110   50.3030 C   0  0  0  0  0  0  0  0  0  0  0  0
   60.5240   31.7670   49.3950 C   0  0  0  0  0  0  0  0  0  0  0  0
   61.0580   31.7170   48.0200 N   0  0  0  0  0  0  0  0  0  0  0  0
   60.0270   31.4750   47.0260 C   0  0  0  0  0  0  0  0  0  0  0  0
   59.6560   30.1600   46.7140 C   0  0  0  0  0  0  0  0  0  0  0  0
   58.6550   29.8740   45.7940 C   0  0  0  0  0  0  0  0  0  0  0  0
   57.9290   30.8730   45.1900 N   0  0  0  0  0  0  0  0  0  0  0  0
   56.7150   30.5400   44.4160 C   0  0  0  0  0  0  0  0  0  0  0  0
   57.0040   30.5400   42.9130 C   0  0  0  0  0  0  0  0  0  0  0  0
   58.3250   32.1920   45.3750 C   0  0  0  0  0  0  0  0  0  0  0  0
   57.7130   33.2540   44.6570 C   0  0  0  0  0  0  0  0  0  0  0  0
   58.0750   34.5790   44.8710 C   0  0  0  0  0  0  0  0  0  0  0  0
   59.0530   34.8940   45.8000 C   0  0  0  0  0  0  0  0  0  0  0  0
   59.6950   33.8860   46.5110 C   0  0  0  0  0  0  0  0  0  0  0  0
   59.3700   32.5210   46.3090 C   0  0  0  0  0  0  0  0  0  0  0  0
   58.5420   28.3850   45.6860 C   0  0  0  0  0  0  0  0  0  0  0  0
   57.8100   27.5370   44.8330 C   0  0  0  0  0  0  0  0  0  0  0  0
   57.9660   26.1450   44.9550 C   0  0  0  0  0  0  0  0  0  0  0  0
   58.8630   25.6050   45.8900 C   0  0  0  0  0  0  0  0  0  0  0  0
   59.6260   26.4510   46.7030 C   0  0  0  0  0  0  0  0  0  0  0  0
   59.4490   27.8290   46.5750 C   0  0  0  0  0  0  0  0  0  0  0  0
   60.1760   28.8910   47.2350 C   0  0  0  0  0  0  0  0  0  0  0  0
   61.1060   28.7290   48.0680 O   0  0  0  0  0  0  0  0  0  0  0  0
   62.1507   34.2534   46.6927 H   0  0  0  0  0  0  0  0  0  0  0  0
   63.6846   34.5237   45.7978 H   0  0  0  0  0  0  0  0  0  0  0  0
   62.9192   32.8986   45.7978 H   0  0  0  0  0  0  0  0  0  0  0  0
   64.9742   33.5901   47.4534 H   0  0  0  0  0  0  0  0  0  0  0  0
   63.5668   34.0576   48.4810 H   0  0  0  0  0  0  0  0  0  0  0  0
   64.5530   31.4960   47.7340 H   0  0  0  0  0  0  0  0  0  0  0  0
   62.8988   30.9306   49.6140 H   0  0  0  0  0  0  0  0  0  0  0  0
   64.4627   31.7849   49.9241 H   0  0  0  0  0  0  0  0  0  0  0  0
   63.1949   33.3073   50.9891 H   0  0  0  0  0  0  0  0  0  0  0  0
   62.7673   33.8406   49.2771 H   0  0  0  0  0  0  0  0  0  0  0  0
   61.1051   32.4768   51.3453 H   0  0  0  0  0  0  0  0  0  0  0  0
   60.7189   33.7694   50.0876 H   0  0  0  0  0  0  0  0  0  0  0  0
   60.6516   30.7743   49.8514 H   0  0  0  0  0  0  0  0  0  0  0  0
   59.4683   32.0653   49.3144 H   0  0  0  0  0  0  0  0  0  0  0  0
   61.7520   30.9380   47.9670 H   0  0  0  0  0  0  0  0  0  0  0  0
   61.6400   32.5580   47.8300 H   0  0  0  0  0  0  0  0  0  0  0  0
   56.3612   29.5420   44.7140 H   0  0  0  0  0  0  0  0  0  0  0  0
   55.9476   31.2999   44.6247 H   0  0  0  0  0  0  0  0  0  0  0  0
   57.0732   29.5029   42.5529 H   0  0  0  0  0  0  0  0  0  0  0  0
   56.1912   31.0585   42.3833 H   0  0  0  0  0  0  0  0  0  0  0  0
   57.9552   31.0585   42.7225 H   0  0  0  0  0  0  0  0  0  0  0  0
   56.9349   33.0226   43.9147 H   0  0  0  0  0  0  0  0  0  0  0  0
   57.5829   35.3804   44.3004 H   0  0  0  0  0  0  0  0  0  0  0  0
   59.3229   35.9457   45.9760 H   0  0  0  0  0  0  0  0  0  0  0  0
   60.4701   34.1530   47.2444 H   0  0  0  0  0  0  0  0  0  0  0  0
   57.1256   27.9577   44.0816 H   0  0  0  0  0  0  0  0  0  0  0  0
   57.3795   25.4727   44.3116 H   0  0  0  0  0  0  0  0  0  0  0  0
   58.9665   24.5139   45.9840 H   0  0  0  0  0  0  0  0  0  0  0  0
   60.3471   26.0398   47.4248 H   0  0  0  0  0  0  0  0  0  0  0  0
  1  2  1  0
  2  3  1  0
  3  4  1  0
  4  5  1  0
  5  6  1  0
  6  7  1  0
  7  8  1  0
  8  9  1  0
  9 10  2  0
 10 11  1  0
 11 12  2  0
 12 13  1  0
 13 14  1  0
 12 15  1  0
 15 16  2  0
 16 17  1  0
 17 18  2  0
 18 19  1  0
 19 20  2  0
 11 21  1  0
 21 22  2  0
 22 23  1  0
 23 24  2  0
 24 25  1  0
 25 26  2  0
 26 27  1  0
 27 28  2  0
 20  9  1  0
 26 21  1  0
 27 10  1  0
 20 15  1  0
  1 29  1  0
  1 30  1  0
  1 31  1  0
  2 32  1  0
  2 33  1  0
  3 34  1  0
  4 35  1  0
  4 36  1  0
  5 37  1  0
  5 38  1  0
  6 39  1  0
  6 40  1  0
  7 41  1  0
  7 42  1  0
  8 43  1  0
  8 44  1  0
 13 45  1  0
 13 46  1  0
 14 47  1  0
 14 48  1  0
 14 49  1  0
 16 50  1  0
 17 51  1  0
 18 52  1  0
 19 53  1  0
 22 54  1  0
 23 55  1  0
 24 56  1  0
 25 57  1  0
M  CHG  2   8   1  12   1
M  END
>  <UniqueID>  (11) 
11

>  <SMILES>  (11) 
CCNCCCC[NH2+]c1c2c([n+](CC)c3ccccc13)-c1ccccc1C2=O

>  <Energy>  (11) 
110.41969840323894

>  <Genealogy>  (11) 
CCNCCCC[NH2+]c1c2c([n+](CC)c3ccccc13)-c1ccccc1C2=O (protonated)
CCNCCCC[NH2+]c1c2c([n+](CC)c3ccccc13)-c1ccccc1C2=O (3D coordinates assigned)
CCNCCCC[NH2+]c1c2c([n+](CC)c3ccccc13)-c1ccccc1C2=O (nonaromatic ring conformer: 110.41969840323894 kcal/mol)

>  <smiles>  (11) 
CCNCCCCNc1c2c([n+](CC)c3ccccc13)-c1ccccc1C2=O

>  <score_type>  (11) 
oracle

>  <origin>  (11) 
adg

>  <m_score__min__energy>  (11) 
-5.0599999999999996

>  <m_primary>  (11) 
energy

$$$$
11:0
     RDKit          3D

 46 48  0  0  0  0  0  0  0  0999 V2000
   60.4610   30.8720   46.9770 C   0  0  0  0  0  0  0  0  0  0  0  0
   59.2880   31.7940   47.2980 C   0  0  0  0  0  0  0  0  0  0  0  0
   59.4510   33.0930   46.6390 N   0  0  0  0  0  0  0  0  0  0  0  0
   58.5470   33.7370   45.8640 C   0  0  0  0  0  0  0  0  0  0  0  0
   56.9400   33.0840   45.3980 S   0  0  0  0  0  0  0  0  0  0  0  0
   57.5660   32.0270   44.0410 C   0  0  0  0  0  0  0  0  0  0  0  0
   56.6350   30.8460   43.7590 C   0  0  0  0  0  0  0  0  0  0  0  0
   56.5630   29.9630   44.8800 O   0  0  0  0  0  0  0  0  0  0  0  0
   57.4690   28.9380   45.1990 C   0  0  0  0  0  0  0  0  0  0  0  0
   58.7860   29.0650   44.7370 C   0  0  0  0  0  0  0  0  0  0  0  0
   59.7430   28.0950   45.0440 C   0  0  0  0  0  0  0  0  0  0  0  0
   59.3910   26.9780   45.8040 C   0  0  0  0  0  0  0  0  0  0  0  0
   58.0700   26.8160   46.2470 C   0  0  0  0  0  0  0  0  0  0  0  0
   57.6990   25.6360   47.0970 C   0  0  0  0  0  0  0  0  0  0  0  0
   57.1140   27.8000   45.9500 C   0  0  0  0  0  0  0  0  0  0  0  0
   58.9760   34.9610   45.5050 N   0  0  0  0  0  0  0  0  0  0  0  0
   60.1660   35.1120   46.0620 N   0  0  0  0  0  0  0  0  0  0  0  0
   60.4600   33.9900   46.7450 C   0  0  0  0  0  0  0  0  0  0  0  0
   61.6920   33.8290   47.5480 C   0  0  0  0  0  0  0  0  0  0  0  0
   61.6880   34.0470   48.9350 C   0  0  0  0  0  0  0  0  0  0  0  0
   62.8570   33.8700   49.6810 C   0  0  0  0  0  0  0  0  0  0  0  0
   64.0350   33.4610   49.0500 C   0  0  0  0  0  0  0  0  0  0  0  0
   64.0440   33.2240   47.6730 C   0  0  0  0  0  0  0  0  0  0  0  0
   62.8760   33.4000   46.9250 C   0  0  0  0  0  0  0  0  0  0  0  0
   60.9143   30.5157   47.9138 H   0  0  0  0  0  0  0  0  0  0  0  0
   60.1020   30.0118   46.3929 H   0  0  0  0  0  0  0  0  0  0  0  0
   61.2121   31.4240   46.3929 H   0  0  0  0  0  0  0  0  0  0  0  0
   58.3558   31.3266   46.9480 H   0  0  0  0  0  0  0  0  0  0  0  0
   59.2520   31.9528   48.3859 H   0  0  0  0  0  0  0  0  0  0  0  0
   57.6545   32.6353   43.1288 H   0  0  0  0  0  0  0  0  0  0  0  0
   58.5429   31.6243   44.3467 H   0  0  0  0  0  0  0  0  0  0  0  0
   55.6274   31.2285   43.5388 H   0  0  0  0  0  0  0  0  0  0  0  0
   57.0346   30.2859   42.9007 H   0  0  0  0  0  0  0  0  0  0  0  0
   59.0685   29.9360   44.1274 H   0  0  0  0  0  0  0  0  0  0  0  0
   60.7766   28.2115   44.6861 H   0  0  0  0  0  0  0  0  0  0  0  0
   60.1509   26.2236   46.0558 H   0  0  0  0  0  0  0  0  0  0  0  0
   57.7845   25.9080   48.1594 H   0  0  0  0  0  0  0  0  0  0  0  0
   56.6635   25.3369   46.8773 H   0  0  0  0  0  0  0  0  0  0  0  0
   58.3771   24.7982   46.8773 H   0  0  0  0  0  0  0  0  0  0  0  0
   56.0800   27.6817   46.3062 H   0  0  0  0  0  0  0  0  0  0  0  0
   60.7550   35.9710   45.9740 H   0  0  0  0  0  0  0  0  0  0  0  0
   60.7603   34.3587   49.4372 H   0  0  0  0  0  0  0  0  0  0  0  0
   62.8496   34.0528   50.7657 H   0  0  0  0  0  0  0  0  0  0  0  0
   64.9551   33.3257   49.6374 H   0  0  0  0  0  0  0  0  0  0  0  0
   64.9705   32.8988   47.1772 H   0  0  0  0  0  0  0  0  0  0  0  0
   62.8841   33.2016   45.8431 H   0  0  0  0  0  0  0  0  0  0  0  0
  1  2  1  0
  2  3  1  0
  3  4  1  0
  4  5  1  0
  5  6  1  0
  6  7  1  0
  7  8  1  0
  8  9  1  0
  9 10  2  0
 10 11  1  0
 11 12  2  0
 12 13  1  0
 13 14  1  0
 13 15  2  0
  4 16  2  0
 16 17  1  0
 17 18  2  0
 18 19  1  0
 19 20  2  0
 20 21  1  0
 21 22  2  0
 22 23  1  0
 23 24  2  0
 18  3  1  0
 24 19  1  0
 15  9  1  0
  1 25  1  0
  1 26  1  0
  1 27  1  0
  2 28  1  0
  2 29  1  0
  6 30  1  0
  6 31  1  0
  7 32  1  0
  7 33  1  0
 10 34  1  0
 11 35  1  0
 12 36  1  0
 14 37  1  0
 14 38  1  0
 14 39  1  0
 15 40  1  0
 17 41  1  0
 20 42  1  0
 21 43  1  0
 22 44  1  0
 23 45  1  0
 24 46  1  0
M  CHG  1  17   1
M  END
>  <UniqueID>  (12) 
12

>  <SMILES>  (12) 
CCn1c(SCCOc2cccc(C)c2)n[nH+]c1-c1ccccc1

>  <Energy>  (12) 
81.76925210968604

>  <Genealogy>  (12) 
CCn1c(SCCOc2cccc(C)c2)n[nH+]c1-c1ccccc1 (protonated)
CCn1c(SCCOc2cccc(C)c2)n[nH+]c1-c1ccccc1 (3D coordinates assigned)
CCn1c(SCCOc2cccc(C)c2)n[nH+]c1-c1ccccc1 (optimized conformer: 81.76925210968604 kcal/mol)

>  <smiles>  (12) 
CCn1c(SCCOc2cccc(C)c2)nnc1-c1ccccc1

>  <score_type>  (12) 
oracle

>  <origin>  (12) 
adg

>  <m_score__min__energy>  (12) 
-6.5899999999999999

>  <m_primary>  (12) 
energy

$$$$
12:0
     RDKit          3D

 61 63  0  0  0  0  0  0  0  0999 V2000
   58.8920   29.4830   49.6240 C   0  0  0  0  0  0  0  0  0  0  0  0
   60.0440   30.0640   50.4360 C   0  0  0  0  0  0  0  0  0  0  0  0
   60.1580   31.5190   50.1890 N   0  0  0  0  0  0  0  0  0  0  0  0
   58.9000   32.2050   50.5370 C   0  0  0  0  0  0  0  0  0  0  0  0
   61.2890   32.1150   50.9330 C   0  0  0  0  0  0  0  0  0  0  0  0
   62.4390   31.1070   51.0600 C   0  0  0  0  0  0  0  0  0  0  0  0
   63.6840   31.7570   50.8840 O   0  0  0  0  0  0  0  0  0  0  0  0
   63.5090   33.0310   50.2970 C   0  0  0  0  0  0  0  0  0  0  0  0
   64.1580   33.0350   48.9200 C   0  0  0  0  0  0  0  0  0  0  0  0
   63.3290   33.7460   48.0260 O   0  0  0  0  0  0  0  0  0  0  0  0
   63.1370   33.0030   46.8390 C   0  0  0  0  0  0  0  0  0  0  0  0
   62.6560   31.5780   47.1900 C   0  0  0  0  0  0  0  0  0  0  0  0
   61.2910   31.4710   47.7780 N   0  0  0  0  0  0  0  0  0  0  0  0
   60.1980   31.3500   46.8220 C   0  0  0  0  0  0  0  0  0  0  0  0
   59.8660   30.0640   46.3040 C   0  0  0  0  0  0  0  0  0  0  0  0
   60.4880   28.8830   46.7890 C   0  0  0  0  0  0  0  0  0  0  0  0
   60.1880   27.6360   46.2510 C   0  0  0  0  0  0  0  0  0  0  0  0
   59.2690   27.5250   45.2210 C   0  0  0  0  0  0  0  0  0  0  0  0
   58.6240   28.6600   44.7400 C   0  0  0  0  0  0  0  0  0  0  0  0
   58.8810   29.9430   45.2900 C   0  0  0  0  0  0  0  0  0  0  0  0
   58.2120   31.0580   44.8370 N   0  0  0  0  0  0  0  0  0  0  0  0
   56.9960   30.8980   44.0050 C   0  0  0  0  0  0  0  0  0  0  0  0
   58.6400   32.3190   45.1920 C   0  0  0  0  0  0  0  0  0  0  0  0
   58.2070   33.4520   44.4610 C   0  0  0  0  0  0  0  0  0  0  0  0
   58.5270   34.7360   44.8660 C   0  0  0  0  0  0  0  0  0  0  0  0
   59.2460   34.9340   46.0300 C   0  0  0  0  0  0  0  0  0  0  0  0
   59.7320   33.8490   46.7650 C   0  0  0  0  0  0  0  0  0  0  0  0
   60.3950   34.3210   48.3350 Cl  0  0  0  0  0  0  0  0  0  0  0  0
   59.5370   32.5050   46.2890 C   0  0  0  0  0  0  0  0  0  0  0  0
   58.1217   29.0945   50.3064 H   0  0  0  0  0  0  0  0  0  0  0  0
   58.4571   30.2696   48.9898 H   0  0  0  0  0  0  0  0  0  0  0  0
   59.2660   28.6657   48.9898 H   0  0  0  0  0  0  0  0  0  0  0  0
   59.8586   29.8902   51.5062 H   0  0  0  0  0  0  0  0  0  0  0  0
   60.9808   29.5732   50.1336 H   0  0  0  0  0  0  0  0  0  0  0  0
   58.8021   32.2584   51.6313 H   0  0  0  0  0  0  0  0  0  0  0  0
   58.9097   33.2227   50.1196 H   0  0  0  0  0  0  0  0  0  0  0  0
   58.0497   31.6457   50.1196 H   0  0  0  0  0  0  0  0  0  0  0  0
   61.6462   33.0061   50.3960 H   0  0  0  0  0  0  0  0  0  0  0  0
   60.9456   32.3921   51.9406 H   0  0  0  0  0  0  0  0  0  0  0  0
   62.4085   30.6456   52.0581 H   0  0  0  0  0  0  0  0  0  0  0  0
   62.3256   30.3353   50.2843 H   0  0  0  0  0  0  0  0  0  0  0  0
   62.4350   33.2478   50.1993 H   0  0  0  0  0  0  0  0  0  0  0  0
   63.9760   33.7996   50.9304 H   0  0  0  0  0  0  0  0  0  0  0  0
   65.1426   33.5221   48.9773 H   0  0  0  0  0  0  0  0  0  0  0  0
   64.2878   32.0016   48.5661 H   0  0  0  0  0  0  0  0  0  0  0  0
   62.3809   33.5008   46.2141 H   0  0  0  0  0  0  0  0  0  0  0  0
   64.0878   32.9419   46.2893 H   0  0  0  0  0  0  0  0  0  0  0  0
   62.6711   30.9815   46.2659 H   0  0  0  0  0  0  0  0  0  0  0  0
   63.3423   31.2196   47.9714 H   0  0  0  0  0  0  0  0  0  0  0  0
   61.2480   30.7180   48.4920 H   0  0  0  0  0  0  0  0  0  0  0  0
   61.1240   32.2980   48.3930 H   0  0  0  0  0  0  0  0  0  0  0  0
   61.2211   28.9559   47.6058 H   0  0  0  0  0  0  0  0  0  0  0  0
   60.6820   26.7355   46.6447 H   0  0  0  0  0  0  0  0  0  0  0  0
   59.0491   26.5400   44.7834 H   0  0  0  0  0  0  0  0  0  0  0  0
   57.9006   28.5611   43.9172 H   0  0  0  0  0  0  0  0  0  0  0  0
   56.1179   30.7825   44.6574 H   0  0  0  0  0  0  0  0  0  0  0  0
   56.8666   31.7869   43.3700 H   0  0  0  0  0  0  0  0  0  0  0  0
   57.1009   30.0059   43.3700 H   0  0  0  0  0  0  0  0  0  0  0  0
   57.6038   33.3084   43.5524 H   0  0  0  0  0  0  0  0  0  0  0  0
   58.2094   35.5987   44.2620 H   0  0  0  0  0  0  0  0  0  0  0  0
   59.4380   35.9583   46.3822 H   0  0  0  0  0  0  0  0  0  0  0  0
  1  2  1  0
  2  3  1  0
  3  4  1  0
  3  5  1  0
  5  6  1  0
  6  7  1  0
  7  8  1  0
  8  9  1  0
  9 10  1  0
 10 11  1  0
 11 12  1  0
 12 13  1  0
 13 14  1  0
 14 15  2  0
 15 16  1  0
 16 17  2  0
 17 18  1  0
 18 19  2  0
 19 20  1  0
 20 21  2  0
 21 22  1  0
 21 23  1  0
 23 24  2  0
 24 25  1  0
 25 26  2  0
 26 27  1  0
 27 28  1  0
 27 29  2  0
 29 14  1  0
 20 15  1  0
 29 23  1  0
  1 30  1  0
  1 31  1  0
  1 32  1  0
  2 33  1  0
  2 34  1  0
  4 35  1  0
  4 36  1  0
  4 37  1  0
  5 38  1  0
  5 39  1  0
  6 40  1  0
  6 41  1  0
  8 42  1  0
  8 43  1  0
  9 44  1  0
  9 45  1  0
 11 46  1  0
 11 47  1  0
 12 48  1  0
 12 49  1  0
 13 50  1  0
 13 51  1  0
 16 52  1  0
 17 53  1  0
 18 54  1  0
 19 55  1  0
 22 56  1  0
 22 57  1  0
 22 58  1  0
 24 59  1  0
 25 60  1  0
 26 61  1  0
M  CHG  2  13   1  21   1
M  END
>  <UniqueID>  (13) 
13

>  <SMILES>  (13) 
CCN(C)CCOCCOCC[NH2+]c1c2ccccc2[n+](C)c2cccc(Cl)c12

>  <Energy>  (13) 
101.85917810568863

>  <Genealogy>  (13) 
CCN(C)CCOCCOCC[NH2+]c1c2ccccc2[n+](C)c2cccc(Cl)c12 (protonated)
CCN(C)CCOCCOCC[NH2+]c1c2ccccc2[n+](C)c2cccc(Cl)c12 (3D coordinates assigned)
CCN(C)CCOCCOCC[NH2+]c1c2ccccc2[n+](C)c2cccc(Cl)c12 (optimized conformer: 101.85917810568863 kcal/mol)

>  <smiles>  (13) 
CCN(C)CCOCCOCCNc1c2ccccc2[n+](C)c2cccc(Cl)c12

>  <score_type>  (13) 
oracle

>  <origin>  (13) 
adg

>  <m_score__min__energy>  (13) 
-3.9100000000000001

>  <m_primary>  (13) 
energy

$$$$
13:0
     RDKit          3D

 61 64  0  0  0  0  0  0  0  0999 V2000
   62.7260   33.4500   47.1950 C   0  0  0  0  0  0  0  0  0  0  0  0
   63.1480   31.9880   47.2960 C   0  0  0  0  0  0  0  0  0  0  0  0
   62.7840   31.4420   48.5640 O   0  0  0  0  0  0  0  0  0  0  0  0
   61.6270   30.6890   48.8340 C   0  0  0  0  0  0  0  0  0  0  0  0
   60.7700   30.2270   47.8140 C   0  0  0  0  0  0  0  0  0  0  0  0
   59.6250   29.4770   48.1260 C   0  0  0  0  0  0  0  0  0  0  0  0
   58.7220   28.9930   47.0580 C   0  0  0  0  0  0  0  0  0  0  0  0
   58.3460   27.7080   46.9200 N   0  0  0  0  0  0  0  0  0  0  0  0
   57.5330   27.5940   45.8790 N   0  0  0  0  0  0  0  0  0  0  0  0
   56.9770   26.3290   45.4700 C   0  0  0  0  0  0  0  0  0  0  0  0
   55.8430   25.8270   46.0080 N   0  0  0  0  0  0  0  0  0  0  0  0
   55.5270   24.6000   45.5080 C   0  0  0  0  0  0  0  0  0  0  0  0
   54.3030   23.8760   45.9740 C   0  0  0  0  0  0  0  0  0  0  0  0
   56.4310   24.1010   44.5590 C   0  0  0  0  0  0  0  0  0  0  0  0
   56.3820   22.8020   43.8520 C   0  0  0  0  0  0  0  0  0  0  0  0
   57.3590   21.7160   44.1860 C   0  0  0  0  0  0  0  0  0  0  0  0
   55.5090   22.5910   42.9670 O   0  0  0  0  0  0  0  0  0  0  0  0
   57.6460   25.2530   44.3610 S   0  0  0  0  0  0  0  0  0  0  0  0
   57.3690   28.8240   45.3230 C   0  0  0  0  0  0  0  0  0  0  0  0
   56.5840   29.1300   44.0790 C   0  0  0  0  0  0  0  0  0  0  0  0
   58.1170   29.7400   46.0560 C   0  0  0  0  0  0  0  0  0  0  0  0
   58.3290   31.1680   45.7540 C   0  0  0  0  0  0  0  0  0  0  0  0
   58.5360   32.0840   46.7970 C   0  0  0  0  0  0  0  0  0  0  0  0
   58.7390   33.4380   46.5150 C   0  0  0  0  0  0  0  0  0  0  0  0
   58.7090   33.8960   45.1880 C   0  0  0  0  0  0  0  0  0  0  0  0
   58.9480   35.3440   44.8800 C   0  0  0  0  0  0  0  0  0  0  0  0
   58.5080   32.9780   44.1450 C   0  0  0  0  0  0  0  0  0  0  0  0
   58.3160   31.6230   44.4270 C   0  0  0  0  0  0  0  0  0  0  0  0
   59.3240   29.2130   49.4680 C   0  0  0  0  0  0  0  0  0  0  0  0
   60.1650   29.6670   50.4840 C   0  0  0  0  0  0  0  0  0  0  0  0
   61.3220   30.4060   50.1740 C   0  0  0  0  0  0  0  0  0  0  0  0
   62.1930   30.8770   51.1700 O   0  0  0  0  0  0  0  0  0  0  0  0
   63.5460   30.4590   51.3230 C   0  0  0  0  0  0  0  0  0  0  0  0
   62.6055   33.8675   48.2055 H   0  0  0  0  0  0  0  0  0  0  0  0
   63.4970   34.0176   46.6533 H   0  0  0  0  0  0  0  0  0  0  0  0
   61.7711   33.5194   46.6533 H   0  0  0  0  0  0  0  0  0  0  0  0
   62.6517   31.4135   46.5000 H   0  0  0  0  0  0  0  0  0  0  0  0
   64.2409   31.9280   47.1867 H   0  0  0  0  0  0  0  0  0  0  0  0
   61.0009   30.4566   46.7633 H   0  0  0  0  0  0  0  0  0  0  0  0
   58.6370   26.9150   47.5370 H   0  0  0  0  0  0  0  0  0  0  0  0
   54.2811   23.8630   47.0737 H   0  0  0  0  0  0  0  0  0  0  0  0
   53.4069   24.3894   45.5954 H   0  0  0  0  0  0  0  0  0  0  0  0
   54.3214   22.8434   45.5954 H   0  0  0  0  0  0  0  0  0  0  0  0
   57.4435   21.6221   45.2787 H   0  0  0  0  0  0  0  0  0  0  0  0
   57.0077   20.7636   43.7622 H   0  0  0  0  0  0  0  0  0  0  0  0
   58.3431   21.9650   43.7622 H   0  0  0  0  0  0  0  0  0  0  0  0
   55.5924   29.5165   44.3570 H   0  0  0  0  0  0  0  0  0  0  0  0
   57.1186   29.8856   43.4846 H   0  0  0  0  0  0  0  0  0  0  0  0
   56.4663   28.2119   43.4846 H   0  0  0  0  0  0  0  0  0  0  0  0
   58.5385   31.7352   47.8402 H   0  0  0  0  0  0  0  0  0  0  0  0
   58.9229   34.1472   47.3355 H   0  0  0  0  0  0  0  0  0  0  0  0
   59.0411   35.9082   45.8197 H   0  0  0  0  0  0  0  0  0  0  0  0
   59.8753   35.4467   44.2972 H   0  0  0  0  0  0  0  0  0  0  0  0
   58.1029   35.7392   44.2972 H   0  0  0  0  0  0  0  0  0  0  0  0
   58.5016   33.3268   43.1018 H   0  0  0  0  0  0  0  0  0  0  0  0
   58.1540   30.9101   43.6051 H   0  0  0  0  0  0  0  0  0  0  0  0
   58.4180   28.6436   49.7227 H   0  0  0  0  0  0  0  0  0  0  0  0
   59.9225   29.4461   51.5339 H   0  0  0  0  0  0  0  0  0  0  0  0
   63.7879   30.3843   52.3935 H   0  0  0  0  0  0  0  0  0  0  0  0
   63.6824   29.4768   50.8468 H   0  0  0  0  0  0  0  0  0  0  0  0
   64.2126   31.1931   50.8468 H   0  0  0  0  0  0  0  0  0  0  0  0
  1  2  1  0
  2  3  1  0
  3  4  1  0
  4  5  2  0
  5  6  1  0
  6  7  1  0
  7  8  2  0
  8  9  1  0
  9 10  1  0
 10 11  2  0
 11 12  1  0
 12 13  1  0
 12 14  2  0
 14 15  1  0
 15 16  1  0
 15 17  2  0
 14 18  1  0
  9 19  1  0
 19 20  1  0
 19 21  2  0
 21 22  1  0
 22 23  2  0
 23 24  1  0
 24 25  2  0
 25 26  1  0
 25 27  1  0
 27 28  2  0
  6 29  2  0
 29 30  1  0
 30 31  2  0
 31 32  1  0
 32 33  1  0
 31  4  1  0
 21  7  1  0
 28 22  1  0
 18 10  1  0
  1 34  1  0
  1 35  1  0
  1 36  1  0
  2 37  1  0
  2 38  1  0
  5 39  1  0
  8 40  1  0
 13 41  1  0
 13 42  1  0
 13 43  1  0
 16 44  1  0
 16 45  1  0
 16 46  1  0
 20 47  1  0
 20 48  1  0
 20 49  1  0
 23 50  1  0
 24 51  1  0
 26 52  1  0
 26 53  1  0
 26 54  1  0
 27 55  1  0
 28 56  1  0
 29 57  1  0
 30 58  1  0
 33 59  1  0
 33 60  1  0
 33 61  1  0
M  CHG  1   8   1
M  END
>  <UniqueID>  (14) 
14

>  <SMILES>  (14) 
CCOc1cc(-c2[nH+]n(-c3nc(C)c(C(C)=O)s3)c(C)c2-c2ccc(C)cc2)ccc1OC

>  <Energy>  (14) 
130.2446103593309

>  <Genealogy>  (14) 
CCOc1cc(-c2[nH+]n(-c3nc(C)c(C(C)=O)s3)c(C)c2-c2ccc(C)cc2)ccc1OC (protonated)
CCOc1cc(-c2[nH+]n(-c3nc(C)c(C(C)=O)s3)c(C)c2-c2ccc(C)cc2)ccc1OC (3D coordinates assigned)
CCOc1cc(-c2[nH+]n(-c3nc(C)c(C(C)=O)s3)c(C)c2-c2ccc(C)cc2)ccc1OC (optimized conformer: 130.2446103593309 kcal/mol)

>  <smiles>  (14) 
CCOc1cc(-c2nn(-c3nc(C)c(C(C)=O)s3)c(C)c2-c2ccc(C)cc2)ccc1OC

>  <score_type>  (14) 
oracle

>  <origin>  (14) 
adg

>  <m_score__min__energy>  (14) 
-7.2699999999999996

>  <m_primary>  (14) 
energy

$$$$
14:0
     RDKit          3D

 93 96  0  0  0  0  0  0  0  0999 V2000
   65.4845   34.3114   53.2127 H   0  0  0  0  0  0  0  0  0  0  0  0
   64.5820   33.7140   53.0160 C   0  0  0  0  0  0  0  0  0  0  0  0
   64.2110   33.4780   51.6070 C   0  0  0  0  0  0  0  0  0  0  0  0
   64.4470   32.2180   51.0460 C   0  0  0  0  0  0  0  0  0  0  0  0
   64.9076   31.4269   51.6559 H   0  0  0  0  0  0  0  0  0  0  0  0
   64.1030   31.9570   49.7200 C   0  0  0  0  0  0  0  0  0  0  0  0
   64.3183   30.9684   49.2884 H   0  0  0  0  0  0  0  0  0  0  0  0
   63.4810   32.9460   48.9220 C   0  0  0  0  0  0  0  0  0  0  0  0
   63.1350   32.6760   47.5370 N   0  0  0  0  0  0  0  0  0  0  0  0
   62.6950   31.3340   47.1230 C   0  0  0  0  0  0  0  0  0  0  0  0
   62.4945   30.7224   48.0151 H   0  0  0  0  0  0  0  0  0  0  0  0
   61.7774   31.4181   46.5222 H   0  0  0  0  0  0  0  0  0  0  0  0
   63.4843   30.8584   46.5222 H   0  0  0  0  0  0  0  0  0  0  0  0
   63.2140   33.7360   46.5240 C   0  0  0  0  0  0  0  0  0  0  0  0
   63.2869   34.7142   47.0218 H   0  0  0  0  0  0  0  0  0  0  0  0
   64.1028   33.5772   45.8957 H   0  0  0  0  0  0  0  0  0  0  0  0
   62.3115   33.7107   45.8957 H   0  0  0  0  0  0  0  0  0  0  0  0
   63.1900   34.1920   49.5210 C   0  0  0  0  0  0  0  0  0  0  0  0
   62.6841   34.9718   48.9328 H   0  0  0  0  0  0  0  0  0  0  0  0
   63.5360   34.4470   50.8500 C   0  0  0  0  0  0  0  0  0  0  0  0
   63.2775   35.4141   51.3060 H   0  0  0  0  0  0  0  0  0  0  0  0
   63.9120   33.2620   54.0530 N   0  0  0  0  0  0  0  0  0  0  0  0
   64.6660   32.5870   55.1140 C   0  0  0  0  0  0  0  0  0  0  0  0
   64.2954   32.9188   56.0951 H   0  0  0  0  0  0  0  0  0  0  0  0
   64.5351   31.4988   55.0214 H   0  0  0  0  0  0  0  0  0  0  0  0
   65.7332   32.8371   55.0214 H   0  0  0  0  0  0  0  0  0  0  0  0
   62.4460   33.3610   54.1990 C   0  0  0  0  0  0  0  0  0  0  0  0
   62.1369   34.3917   53.9706 H   0  0  0  0  0  0  0  0  0  0  0  0
   62.1922   33.0842   55.2329 H   0  0  0  0  0  0  0  0  0  0  0  0
   61.6970   32.4000   53.2580 C   0  0  0  0  0  0  0  0  0  0  0  0
   60.9662   31.8319   53.8523 H   0  0  0  0  0  0  0  0  0  0  0  0
   62.4543   31.7527   52.7917 H   0  0  0  0  0  0  0  0  0  0  0  0
   60.9440   33.1120   52.1100 C   0  0  0  0  0  0  0  0  0  0  0  0
   61.6405   33.7871   51.5912 H   0  0  0  0  0  0  0  0  0  0  0  0
   60.1039   33.6726   52.5460 H   0  0  0  0  0  0  0  0  0  0  0  0
   60.3980   32.1470   51.1360 N   0  0  0  0  0  0  0  0  0  0  0  0
   59.5630   31.7050   51.5760 H   0  0  0  0  0  0  0  0  0  0  0  0
   61.1490   31.4360   50.9780 H   0  0  0  0  0  0  0  0  0  0  0  0
   60.0100   32.6740   49.8280 C   0  0  0  0  0  0  0  0  0  0  0  0
   59.9370   34.0710   49.6070 C   0  0  0  0  0  0  0  0  0  0  0  0
   60.1142   34.7568   50.4486 H   0  0  0  0  0  0  0  0  0  0  0  0
   59.6490   34.5940   48.3620 C   0  0  0  0  0  0  0  0  0  0  0  0
   59.6275   35.6845   48.2191 H   0  0  0  0  0  0  0  0  0  0  0  0
   59.3880   33.7580   47.2960 C   0  0  0  0  0  0  0  0  0  0  0  0
   59.1795   34.1942   46.3080 H   0  0  0  0  0  0  0  0  0  0  0  0
   59.3830   32.3530   47.4470 C   0  0  0  0  0  0  0  0  0  0  0  0
   59.7220   31.7910   48.7210 C   0  0  0  0  0  0  0  0  0  0  0  0
   59.7800   30.3690   48.8060 C   0  0  0  0  0  0  0  0  0  0  0  0
   59.9000   29.6850   50.0610 N   0  0  0  0  0  0  0  0  0  0  0  0
   59.2230   29.9540   50.8120 H   0  0  0  0  0  0  0  0  0  0  0  0
   61.1590   29.0310   50.4250 C   0  0  0  0  0  0  0  0  0  0  0  0
   61.9903   29.5374   49.9127 H   0  0  0  0  0  0  0  0  0  0  0  0
   61.1101   27.9750   50.1208 H   0  0  0  0  0  0  0  0  0  0  0  0
   61.3860   29.0980   51.9420 C   0  0  0  0  0  0  0  0  0  0  0  0
   62.4204   29.4176   52.1366 H   0  0  0  0  0  0  0  0  0  0  0  0
   61.2029   28.1000   52.3668 H   0  0  0  0  0  0  0  0  0  0  0  0
   60.4980   30.0140   52.5500 O   0  0  0  0  0  0  0  0  0  0  0  0
   59.5720   29.3370   53.3780 C   0  0  0  0  0  0  0  0  0  0  0  0
   59.7442   29.6213   54.4266 H   0  0  0  0  0  0  0  0  0  0  0  0
   59.7066   28.2516   53.2607 H   0  0  0  0  0  0  0  0  0  0  0  0
   58.1420   29.7150   52.9770 C   0  0  0  0  0  0  0  0  0  0  0  0
   57.5152   29.7556   53.8801 H   0  0  0  0  0  0  0  0  0  0  0  0
   57.7651   28.9555   52.2763 H   0  0  0  0  0  0  0  0  0  0  0  0
   58.1040   31.0340   52.3030 N   0  0  0  0  0  0  0  0  0  0  0  0
   57.9770   32.1270   53.2910 C   0  0  0  0  0  0  0  0  0  0  0  0
   58.8869   32.1624   53.9081 H   0  0  0  0  0  0  0  0  0  0  0  0
   57.0948   31.9330   53.9187 H   0  0  0  0  0  0  0  0  0  0  0  0
   57.7930   33.4750   52.5920 C   0  0  0  0  0  0  0  0  0  0  0  0
   57.6848   34.2677   53.3469 H   0  0  0  0  0  0  0  0  0  0  0  0
   58.6708   33.6848   51.9632 H   0  0  0  0  0  0  0  0  0  0  0  0
   56.8910   33.4419   51.9632 H   0  0  0  0  0  0  0  0  0  0  0  0
   57.0270   31.1070   51.2870 C   0  0  0  0  0  0  0  0  0  0  0  0
   56.9946   32.1198   50.8591 H   0  0  0  0  0  0  0  0  0  0  0  0
   57.2265   30.3777   50.4880 H   0  0  0  0  0  0  0  0  0  0  0  0
   55.6870   30.7890   51.9430 C   0  0  0  0  0  0  0  0  0  0  0  0
   55.7988   30.8155   53.0370 H   0  0  0  0  0  0  0  0  0  0  0  0
   54.9406   31.5349   51.6325 H   0  0  0  0  0  0  0  0  0  0  0  0
   55.3553   29.7872   51.6325 H   0  0  0  0  0  0  0  0  0  0  0  0
   59.7320   29.5910   47.6320 C   0  0  0  0  0  0  0  0  0  0  0  0
   60.0060   28.2060   47.6700 C   0  0  0  0  0  0  0  0  0  0  0  0
   60.2418   27.7244   48.6304 H   0  0  0  0  0  0  0  0  0  0  0  0
   59.9810   27.4440   46.5060 C   0  0  0  0  0  0  0  0  0  0  0  0
   60.1873   26.3645   46.5513 H   0  0  0  0  0  0  0  0  0  0  0  0
   59.6960   28.0450   45.2880 C   0  0  0  0  0  0  0  0  0  0  0  0
   59.6904   27.4420   44.3680 H   0  0  0  0  0  0  0  0  0  0  0  0
   59.4170   29.4080   45.2250 C   0  0  0  0  0  0  0  0  0  0  0  0
   59.2048   29.8744   44.2516 H   0  0  0  0  0  0  0  0  0  0  0  0
   59.4030   30.2030   46.4010 C   0  0  0  0  0  0  0  0  0  0  0  0
   59.0800   31.5410   46.3680 N   0  0  0  0  0  0  0  0  0  0  0  0
   58.4070   32.1020   45.1740 C   0  0  0  0  0  0  0  0  0  0  0  0
   57.5981   32.7763   45.4919 H   0  0  0  0  0  0  0  0  0  0  0  0
   59.1366   32.6631   44.5716 H   0  0  0  0  0  0  0  0  0  0  0  0
   57.9864   31.2833   44.5716 H   0  0  0  0  0  0  0  0  0  0  0  0
  1  2  1  0
  2  3  1  0
  3  4  2  0
  4  5  1  0
  4  6  1  0
  6  7  1  0
  6  8  2  0
  8  9  1  0
  9 10  1  0
 10 11  1  0
 10 12  1  0
 10 13  1  0
  9 14  1  0
 14 15  1  0
 14 16  1  0
 14 17  1  0
  8 18  1  0
 18 19  1  0
 18 20  2  0
 20 21  1  0
  2 22  2  0
 22 23  1  0
 23 24  1  0
 23 25  1  0
 23 26  1  0
 22 27  1  0
 27 28  1  0
 27 29  1  0
 27 30  1  0
 30 31  1  0
 30 32  1  0
 30 33  1  0
 33 34  1  0
 33 35  1  0
 33 36  1  0
 36 37  1  0
 36 38  1  0
 36 39  1  0
 39 40  2  0
 40 41  1  0
 40 42  1  0
 42 43  1  0
 42 44  2  0
 44 45  1  0
 44 46  1  0
 46 47  2  0
 47 48  1  0
 48 49  1  0
 49 50  1  0
 49 51  1  0
 51 52  1  0
 51 53  1  0
 51 54  1  0
 54 55  1  0
 54 56  1  0
 54 57  1  0
 57 58  1  0
 58 59  1  0
 58 60  1  0
 58 61  1  0
 61 62  1  0
 61 63  1  0
 61 64  1  0
 64 65  1  0
 65 66  1  0
 65 67  1  0
 65 68  1  0
 68 69  1  0
 68 70  1  0
 68 71  1  0
 64 72  1  0
 72 73  1  0
 72 74  1  0
 72 75  1  0
 75 76  1  0
 75 77  1  0
 75 78  1  0
 48 79  2  0
 79 80  1  0
 80 81  1  0
 80 82  2  0
 82 83  1  0
 82 84  1  0
 84 85  1  0
 84 86  2  0
 86 87  1  0
 86 88  1  0
 88 89  2  0
 89 90  1  0
 90 91  1  0
 90 92  1  0
 90 93  1  0
 20  3  1  0
 47 39  1  0
 88 79  1  0
 89 46  1  0
M  CHG  3  22   1  36   1  89   1
M  END
>  <UniqueID>  (15) 
15

>  <SMILES>  (15) 
CCN(CC)CCOCCNc1c2ccccc2[n+](C)c2cccc([NH2+]CCC/[N+](C)=C\c3ccc(N(C)C)cc3)c12

>  <Energy>  (15) 
139.1080996884551

>  <Genealogy>  (15) 
CCN(CC)CCOCCNc1c2ccccc2[n+](C)c2cccc([NH2+]CCC[N+](C)=Cc3ccc(N(C)C)cc3)c12 (protonated)
CCN(CC)CCOCCNc1c2ccccc2[n+](C)c2cccc([NH2+]CCC/[N+](C)=C\c3ccc(N(C)C)cc3)c12 (cis-trans isomerization)
CCN(CC)CCOCCNc1c2ccccc2[n+](C)c2cccc([NH2+]CCC/[N+](C)=C\c3ccc(N(C)C)cc3)c12 (3D coordinates assigned)
CCN(CC)CCOCCNc1c2ccccc2[n+](C)c2cccc([NH2+]CCC/[N+](C)=C\c3ccc(N(C)C)cc3)c12 (optimized conformer: 139.1080996884551 kcal/mol)

>  <smiles>  (15) 
CCN(CC)CCOCCNc1c2ccccc2[n+](C)c2cccc(NCCC[N+](C)=Cc3ccc(N(C)C)cc3)c12

>  <score_type>  (15) 
oracle

>  <origin>  (15) 
adg

>  <m_score__min__energy>  (15) 
-3.3500000000000001

>  <m_primary>  (15) 
energy

$$$$
15:0
     RDKit          3D

 55 57  0  0  0  0  0  0  0  0999 V2000
   53.0450   24.1620   44.9080 C   0  0  0  0  0  0  0  0  0  0  0  0
   54.1450   24.2930   45.9500 C   0  0  0  0  0  0  0  0  0  0  0  0
   54.6480   25.6160   45.9290 O   0  0  0  0  0  0  0  0  0  0  0  0
   55.9060   25.6500   46.4810 N   0  0  0  0  0  0  0  0  0  0  0  0
   56.9090   25.3430   45.4560 C   0  0  0  0  0  0  0  0  0  0  0  0
   57.4740   26.6310   44.8390 C   0  0  0  0  0  0  0  0  0  0  0  0
   58.5990   27.2470   45.6780 C   0  0  0  0  0  0  0  0  0  0  0  0
   58.2840   27.1910   47.1110 N   0  0  0  0  0  0  0  0  0  0  0  0
   59.5180   27.1830   47.9040 C   0  0  0  0  0  0  0  0  0  0  0  0
   60.2830   28.5050   47.7510 C   0  0  0  0  0  0  0  0  0  0  0  0
   59.4140   29.6750   47.9260 N   0  0  0  0  0  0  0  0  0  0  0  0
   59.6770   30.9370   47.2850 C   0  0  0  0  0  0  0  0  0  0  0  0
   60.7370   31.7460   47.7330 C   0  0  0  0  0  0  0  0  0  0  0  0
   61.6470   31.2780   48.7050 C   0  0  0  0  0  0  0  0  0  0  0  0
   62.7130   32.0680   49.1220 C   0  0  0  0  0  0  0  0  0  0  0  0
   62.8960   33.3330   48.5760 C   0  0  0  0  0  0  0  0  0  0  0  0
   62.0020   33.8240   47.6240 C   0  0  0  0  0  0  0  0  0  0  0  0
   60.8880   33.0550   47.2010 C   0  0  0  0  0  0  0  0  0  0  0  0
   59.9670   33.5450   46.2950 N   0  0  0  0  0  0  0  0  0  0  0  0
   59.9410   34.9900   45.9720 C   0  0  0  0  0  0  0  0  0  0  0  0
   59.0650   32.6860   45.6950 C   0  0  0  0  0  0  0  0  0  0  0  0
   58.3080   33.0710   44.5600 C   0  0  0  0  0  0  0  0  0  0  0  0
   57.3930   32.1980   43.9750 C   0  0  0  0  0  0  0  0  0  0  0  0
   57.2260   30.9140   44.4810 C   0  0  0  0  0  0  0  0  0  0  0  0
   56.0980   29.8090   43.7160 Cl  0  0  0  0  0  0  0  0  0  0  0  0
   57.9810   30.4940   45.5750 C   0  0  0  0  0  0  0  0  0  0  0  0
   58.8950   31.3670   46.1990 C   0  0  0  0  0  0  0  0  0  0  0  0
   52.0742   24.0464   45.4122 H   0  0  0  0  0  0  0  0  0  0  0  0
   53.0264   25.0643   44.2791 H   0  0  0  0  0  0  0  0  0  0  0  0
   53.2388   23.2806   44.2791 H   0  0  0  0  0  0  0  0  0  0  0  0
   53.7366   24.0700   46.9467 H   0  0  0  0  0  0  0  0  0  0  0  0
   54.9557   23.5848   45.7239 H   0  0  0  0  0  0  0  0  0  0  0  0
   56.1460   26.5570   46.9520 H   0  0  0  0  0  0  0  0  0  0  0  0
   57.7303   24.7732   45.9150 H   0  0  0  0  0  0  0  0  0  0  0  0
   56.4297   24.7532   44.6608 H   0  0  0  0  0  0  0  0  0  0  0  0
   57.8684   26.3981   43.8389 H   0  0  0  0  0  0  0  0  0  0  0  0
   56.6549   27.3638   44.7938 H   0  0  0  0  0  0  0  0  0  0  0  0
   59.5300   26.6911   45.4933 H   0  0  0  0  0  0  0  0  0  0  0  0
   58.7130   28.3017   45.3873 H   0  0  0  0  0  0  0  0  0  0  0  0
   57.7820   26.2920   47.2960 H   0  0  0  0  0  0  0  0  0  0  0  0
   59.2628   27.0364   48.9639 H   0  0  0  0  0  0  0  0  0  0  0  0
   60.1592   26.3651   47.5435 H   0  0  0  0  0  0  0  0  0  0  0  0
   61.0814   28.5412   48.5068 H   0  0  0  0  0  0  0  0  0  0  0  0
   60.6934   28.5402   46.7310 H   0  0  0  0  0  0  0  0  0  0  0  0
   58.5000   29.5390   48.4110 H   0  0  0  0  0  0  0  0  0  0  0  0
   61.5115   30.2760   49.1381 H   0  0  0  0  0  0  0  0  0  0  0  0
   63.4114   31.6916   49.8840 H   0  0  0  0  0  0  0  0  0  0  0  0
   63.7491   33.9495   48.8957 H   0  0  0  0  0  0  0  0  0  0  0  0
   62.1638   34.8237   47.1946 H   0  0  0  0  0  0  0  0  0  0  0  0
   59.9305   35.5739   46.9041 H   0  0  0  0  0  0  0  0  0  0  0  0
   60.8346   35.2509   45.3860 H   0  0  0  0  0  0  0  0  0  0  0  0
   59.0386   35.2185   45.3860 H   0  0  0  0  0  0  0  0  0  0  0  0
   58.4452   34.0758   44.1339 H   0  0  0  0  0  0  0  0  0  0  0  0
   56.8000   32.5264   43.1087 H   0  0  0  0  0  0  0  0  0  0  0  0
   57.8621   29.4689   45.9559 H   0  0  0  0  0  0  0  0  0  0  0  0
  1  2  1  0
  2  3  1  0
  3  4  1  0
  4  5  1  0
  5  6  1  0
  6  7  1  0
  7  8  1  0
  8  9  1  0
  9 10  1  0
 10 11  1  0
 11 12  1  0
 12 13  2  0
 13 14  1  0
 14 15  2  0
 15 16  1  0
 16 17  2  0
 17 18  1  0
 18 19  2  0
 19 20  1  0
 19 21  1  0
 21 22  2  0
 22 23  1  0
 23 24  2  0
 24 25  1  0
 24 26  1  0
 26 27  2  0
 27 12  1  0
 18 13  1  0
 27 21  1  0
  1 28  1  0
  1 29  1  0
  1 30  1  0
  2 31  1  0
  2 32  1  0
  4 33  1  0
  5 34  1  0
  5 35  1  0
  6 36  1  0
  6 37  1  0
  7 38  1  0
  7 39  1  0
  8 40  1  0
  9 41  1  0
  9 42  1  0
 10 43  1  0
 10 44  1  0
 11 45  1  0
 14 46  1  0
 15 47  1  0
 16 48  1  0
 17 49  1  0
 20 50  1  0
 20 51  1  0
 20 52  1  0
 22 53  1  0
 23 54  1  0
 26 55  1  0
M  CHG  1  19   1
M  END
>  <UniqueID>  (16) 
16

>  <SMILES>  (16) 
CCONCCCNCCNc1c2ccccc2[n+](C)c2ccc(Cl)cc12

>  <Energy>  (16) 
75.37581663287477

>  <Genealogy>  (16) 
CCONCCCNCCNc1c2ccccc2[n+](C)c2ccc(Cl)cc12 (3D coordinates assigned)
CCONCCCNCCNc1c2ccccc2[n+](C)c2ccc(Cl)cc12 (optimized conformer: 75.37581663287477 kcal/mol)

>  <smiles>  (16) 
CCONCCCNCCNc1c2ccccc2[n+](C)c2ccc(Cl)cc12

>  <score_type>  (16) 
oracle

>  <origin>  (16) 
adg

>  <m_score__min__energy>  (16) 
-7.0300000000000002

>  <m_primary>  (16) 
energy

$$$$
16:0
     RDKit          3D

 63 66  0  0  0  0  0  0  0  0999 V2000
   63.3550   33.8360   46.3980 C   0  0  0  0  0  0  0  0  0  0  0  0
   63.3970   32.7400   47.4550 C   0  0  0  0  0  0  0  0  0  0  0  0
   63.6180   33.3350   48.7790 N   0  0  0  0  0  0  0  0  0  0  0  0
   64.9060   32.9320   49.3650 C   0  0  0  0  0  0  0  0  0  0  0  0
   64.7620   31.7940   50.3900 C   0  0  0  0  0  0  0  0  0  0  0  0
   63.6370   32.0230   51.2150 O   0  0  0  0  0  0  0  0  0  0  0  0
   63.8680   33.1190   52.0780 C   0  0  0  0  0  0  0  0  0  0  0  0
   62.5470   33.8250   52.3720 C   0  0  0  0  0  0  0  0  0  0  0  0
   61.6520   33.7210   51.2110 N   0  0  0  0  0  0  0  0  0  0  0  0
   60.4440   32.9340   51.5010 C   0  0  0  0  0  0  0  0  0  0  0  0
   60.6260   31.4340   51.1910 C   0  0  0  0  0  0  0  0  0  0  0  0
   61.5420   31.2080   50.0570 N   0  0  0  0  0  0  0  0  0  0  0  0
   60.8380   30.7430   48.8750 C   0  0  0  0  0  0  0  0  0  0  0  0
   60.3500   31.6500   47.9200 C   0  0  0  0  0  0  0  0  0  0  0  0
   59.6880   31.2140   46.7800 C   0  0  0  0  0  0  0  0  0  0  0  0
   59.5880   29.8830   46.4700 N   0  0  0  0  0  0  0  0  0  0  0  0
   59.2030   29.4710   45.1080 C   0  0  0  0  0  0  0  0  0  0  0  0
   59.9270   28.9490   47.4330 C   0  0  0  0  0  0  0  0  0  0  0  0
   59.6190   27.5770   47.2650 C   0  0  0  0  0  0  0  0  0  0  0  0
   60.0010   26.6320   48.2130 C   0  0  0  0  0  0  0  0  0  0  0  0
   60.6880   27.0240   49.3540 C   0  0  0  0  0  0  0  0  0  0  0  0
   60.9770   28.3690   49.5730 C   0  0  0  0  0  0  0  0  0  0  0  0
   60.5880   29.3580   48.6410 C   0  0  0  0  0  0  0  0  0  0  0  0
   59.2330   32.4010   46.0140 C   0  0  0  0  0  0  0  0  0  0  0  0
   58.3560   32.5300   44.9260 C   0  0  0  0  0  0  0  0  0  0  0  0
   58.0460   33.8180   44.4580 C   0  0  0  0  0  0  0  0  0  0  0  0
   58.5690   34.9570   45.0990 C   0  0  0  0  0  0  0  0  0  0  0  0
   59.3870   34.8170   46.2290 C   0  0  0  0  0  0  0  0  0  0  0  0
   59.6950   33.5300   46.6670 C   0  0  0  0  0  0  0  0  0  0  0  0
   60.4020   33.1190   47.8660 C   0  0  0  0  0  0  0  0  0  0  0  0
   60.9440   33.9010   48.6910 O   0  0  0  0  0  0  0  0  0  0  0  0
   63.3173   34.8190   46.8903 H   0  0  0  0  0  0  0  0  0  0  0  0
   64.2562   33.7747   45.7702 H   0  0  0  0  0  0  0  0  0  0  0  0
   62.4612   33.7059   45.7702 H   0  0  0  0  0  0  0  0  0  0  0  0
   62.4415   32.1950   47.4543 H   0  0  0  0  0  0  0  0  0  0  0  0
   64.2193   32.0460   47.2265 H   0  0  0  0  0  0  0  0  0  0  0  0
   62.8400   33.0460   49.4180 H   0  0  0  0  0  0  0  0  0  0  0  0
   65.5706   32.5948   48.5559 H   0  0  0  0  0  0  0  0  0  0  0  0
   65.3181   33.8045   49.8931 H   0  0  0  0  0  0  0  0  0  0  0  0
   64.6351   30.8394   49.8584 H   0  0  0  0  0  0  0  0  0  0  0  0
   65.6659   31.7565   51.0158 H   0  0  0  0  0  0  0  0  0  0  0  0
   64.3077   32.7577   53.0194 H   0  0  0  0  0  0  0  0  0  0  0  0
   64.5605   33.8247   51.5958 H   0  0  0  0  0  0  0  0  0  0  0  0
   62.0688   33.3547   53.2438 H   0  0  0  0  0  0  0  0  0  0  0  0
   62.7440   34.8867   52.5820 H   0  0  0  0  0  0  0  0  0  0  0  0
   62.1700   33.2780   50.4150 H   0  0  0  0  0  0  0  0  0  0  0  0
   60.1977   33.0463   52.5672 H   0  0  0  0  0  0  0  0  0  0  0  0
   59.6367   33.3123   50.8566 H   0  0  0  0  0  0  0  0  0  0  0  0
   61.0349   30.9349   52.0819 H   0  0  0  0  0  0  0  0  0  0  0  0
   59.6427   31.0230   50.9187 H   0  0  0  0  0  0  0  0  0  0  0  0
   62.0530   32.0910   49.8370 H   0  0  0  0  0  0  0  0  0  0  0  0
   62.2980   30.5490   50.3420 H   0  0  0  0  0  0  0  0  0  0  0  0
   58.4530   28.6684   45.1659 H   0  0  0  0  0  0  0  0  0  0  0  0
   58.7781   30.3318   44.5709 H   0  0  0  0  0  0  0  0  0  0  0  0
   60.0906   29.1054   44.5709 H   0  0  0  0  0  0  0  0  0  0  0  0
   59.0683   27.2524   46.3698 H   0  0  0  0  0  0  0  0  0  0  0  0
   59.7576   25.5706   48.0575 H   0  0  0  0  0  0  0  0  0  0  0  0
   61.0055   26.2691   50.0884 H   0  0  0  0  0  0  0  0  0  0  0  0
   61.5160   28.6659   50.4848 H   0  0  0  0  0  0  0  0  0  0  0  0
   57.9198   31.6400   44.4489 H   0  0  0  0  0  0  0  0  0  0  0  0
   57.3893   33.9373   43.5836 H   0  0  0  0  0  0  0  0  0  0  0  0
   58.3352   35.9598   44.7121 H   0  0  0  0  0  0  0  0  0  0  0  0
   59.7759   35.7004   46.7566 H   0  0  0  0  0  0  0  0  0  0  0  0
  1  2  1  0
  2  3  1  0
  3  4  1  0
  4  5  1  0
  5  6  1  0
  6  7  1  0
  7  8  1  0
  8  9  1  0
  9 10  1  0
 10 11  1  0
 11 12  1  0
 12 13  1  0
 13 14  2  0
 14 15  1  0
 15 16  2  0
 16 17  1  0
 16 18  1  0
 18 19  2  0
 19 20  1  0
 20 21  2  0
 21 22  1  0
 22 23  2  0
 15 24  1  0
 24 25  2  0
 25 26  1  0
 26 27  2  0
 27 28  1  0
 28 29  2  0
 29 30  1  0
 30 31  2  0
 23 13  1  0
 29 24  1  0
 30 14  1  0
 23 18  1  0
  1 32  1  0
  1 33  1  0
  1 34  1  0
  2 35  1  0
  2 36  1  0
  3 37  1  0
  4 38  1  0
  4 39  1  0
  5 40  1  0
  5 41  1  0
  7 42  1  0
  7 43  1  0
  8 44  1  0
  8 45  1  0
  9 46  1  0
 10 47  1  0
 10 48  1  0
 11 49  1  0
 11 50  1  0
 12 51  1  0
 12 52  1  0
 17 53  1  0
 17 54  1  0
 17 55  1  0
 19 56  1  0
 20 57  1  0
 21 58  1  0
 22 59  1  0
 25 60  1  0
 26 61  1  0
 27 62  1  0
 28 63  1  0
M  CHG  2  12   1  16   1
M  END
>  <UniqueID>  (17) 
17

>  <SMILES>  (17) 
CCNCCOCCNCC[NH2+]c1c2c([n+](C)c3ccccc13)-c1ccccc1C2=O

>  <Energy>  (17) 
115.46978173539802

>  <Genealogy>  (17) 
CCNCCOCCNCC[NH2+]c1c2c([n+](C)c3ccccc13)-c1ccccc1C2=O (protonated)
CCNCCOCCNCC[NH2+]c1c2c([n+](C)c3ccccc13)-c1ccccc1C2=O (3D coordinates assigned)
CCNCCOCCNCC[NH2+]c1c2c([n+](C)c3ccccc13)-c1ccccc1C2=O (nonaromatic ring conformer: 115.46978173539802 kcal/mol)

>  <smiles>  (17) 
CCNCCOCCNCCNc1c2c([n+](C)c3ccccc13)-c1ccccc1C2=O

>  <score_type>  (17) 
oracle

>  <origin>  (17) 
adg

>  <m_score__min__energy>  (17) 
-3.5099999999999998

>  <m_primary>  (17) 
energy

$$$$
17:0
     RDKit          3D

 80 83  0  0  0  0  0  0  0  0999 V2000
   60.0760   33.3610   52.0540 C   0  0  0  0  0  0  0  0  0  0  0  0
   60.1190   32.0380   51.2870 C   0  0  0  0  0  0  0  0  0  0  0  0
   58.7860   31.6570   50.7700 N   0  0  0  0  0  0  0  0  0  0  0  0
   57.7010   32.3450   51.4840 C   0  0  0  0  0  0  0  0  0  0  0  0
   58.5520   30.1990   50.6170 C   0  0  0  0  0  0  0  0  0  0  0  0
   58.8390   29.5890   49.2150 C   0  0  0  0  0  0  0  0  0  0  0  0
   59.5730   30.5040   48.3100 N   0  0  0  0  0  0  0  0  0  0  0  0
   58.9540   30.5730   46.9930 C   0  0  0  0  0  0  0  0  0  0  0  0
   58.9320   29.3920   46.1840 C   0  0  0  0  0  0  0  0  0  0  0  0
   59.6160   28.2070   46.5680 C   0  0  0  0  0  0  0  0  0  0  0  0
   59.5940   27.0650   45.7750 C   0  0  0  0  0  0  0  0  0  0  0  0
   58.9100   27.0710   44.5660 C   0  0  0  0  0  0  0  0  0  0  0  0
   58.2330   28.2150   44.1610 C   0  0  0  0  0  0  0  0  0  0  0  0
   58.2040   29.3840   44.9670 C   0  0  0  0  0  0  0  0  0  0  0  0
   57.5110   30.5070   44.5710 N   0  0  0  0  0  0  0  0  0  0  0  0
   56.5040   30.4180   43.4820 C   0  0  0  0  0  0  0  0  0  0  0  0
   57.7760   31.7250   45.1630 C   0  0  0  0  0  0  0  0  0  0  0  0
   57.4140   32.9180   44.4910 C   0  0  0  0  0  0  0  0  0  0  0  0
   57.6650   34.1550   45.0400 C   0  0  0  0  0  0  0  0  0  0  0  0
   58.1970   34.2440   46.3130 C   0  0  0  0  0  0  0  0  0  0  0  0
   58.5490   33.1060   47.0350 C   0  0  0  0  0  0  0  0  0  0  0  0
   58.9570   33.3380   48.3810 N   0  0  0  0  0  0  0  0  0  0  0  0
   59.6350   34.5880   48.7320 C   0  0  0  0  0  0  0  0  0  0  0  0
   61.1390   34.3760   48.9620 C   0  0  0  0  0  0  0  0  0  0  0  0
   61.6370   33.1230   48.1870 C   0  0  0  0  0  0  0  0  0  0  0  0
   63.0430   32.6540   48.4700 N   0  0  0  0  0  0  0  0  0  0  0  0
   63.7490   32.7370   47.1360 C   0  0  0  0  0  0  0  0  0  0  0  0
   63.3030   33.8580   46.1770 C   0  0  0  0  0  0  0  0  0  0  0  0
   63.0170   31.2280   48.9530 C   0  0  0  0  0  0  0  0  0  0  0  0
   63.1200   31.1040   50.4780 C   0  0  0  0  0  0  0  0  0  0  0  0
   64.4720   31.6340   50.9310 C   0  0  0  0  0  0  0  0  0  0  0  0
   64.7380   33.0600   50.4230 C   0  0  0  0  0  0  0  0  0  0  0  0
   63.6790   33.6240   49.4440 C   0  0  0  0  0  0  0  0  0  0  0  0
   58.4420   31.8030   46.4300 C   0  0  0  0  0  0  0  0  0  0  0  0
   60.0826   33.1584   53.1352 H   0  0  0  0  0  0  0  0  0  0  0  0
   60.9549   33.9671   51.7892 H   0  0  0  0  0  0  0  0  0  0  0  0
   59.1596   33.9088   51.7892 H   0  0  0  0  0  0  0  0  0  0  0  0
   60.8132   32.1403   50.4399 H   0  0  0  0  0  0  0  0  0  0  0  0
   60.4533   31.2523   51.9805 H   0  0  0  0  0  0  0  0  0  0  0  0
   57.8558   32.2468   52.5686 H   0  0  0  0  0  0  0  0  0  0  0  0
   57.6986   33.4100   51.2089 H   0  0  0  0  0  0  0  0  0  0  0  0
   56.7366   31.8930   51.2089 H   0  0  0  0  0  0  0  0  0  0  0  0
   59.1940   29.6802   51.3441 H   0  0  0  0  0  0  0  0  0  0  0  0
   57.4725   30.0610   50.7770 H   0  0  0  0  0  0  0  0  0  0  0  0
   59.4388   28.6767   49.3487 H   0  0  0  0  0  0  0  0  0  0  0  0
   57.8651   29.3839   48.7465 H   0  0  0  0  0  0  0  0  0  0  0  0
   60.5740   30.2570   48.2480 H   0  0  0  0  0  0  0  0  0  0  0  0
   59.6120   31.4630   48.7180 H   0  0  0  0  0  0  0  0  0  0  0  0
   60.1760   28.1928   47.5147 H   0  0  0  0  0  0  0  0  0  0  0  0
   60.1186   26.1563   46.1053 H   0  0  0  0  0  0  0  0  0  0  0  0
   58.9043   26.1728   43.9310 H   0  0  0  0  0  0  0  0  0  0  0  0
   57.7078   28.2151   43.1945 H   0  0  0  0  0  0  0  0  0  0  0  0
   55.4984   30.3291   43.9189 H   0  0  0  0  0  0  0  0  0  0  0  0
   56.5550   31.3242   42.8605 H   0  0  0  0  0  0  0  0  0  0  0  0
   56.7131   29.5348   42.8605 H   0  0  0  0  0  0  0  0  0  0  0  0
   56.9217   32.8547   43.5093 H   0  0  0  0  0  0  0  0  0  0  0  0
   57.4434   35.0684   44.4686 H   0  0  0  0  0  0  0  0  0  0  0  0
   58.3456   35.2355   46.7657 H   0  0  0  0  0  0  0  0  0  0  0  0
   59.0210   32.5190   49.0360 H   0  0  0  0  0  0  0  0  0  0  0  0
   59.4982   35.3094   47.9129 H   0  0  0  0  0  0  0  0  0  0  0  0
   59.1957   34.9643   49.6676 H   0  0  0  0  0  0  0  0  0  0  0  0
   61.6876   35.2617   48.6090 H   0  0  0  0  0  0  0  0  0  0  0  0
   61.3166   34.2235   50.0368 H   0  0  0  0  0  0  0  0  0  0  0  0
   60.9562   32.2929   48.4266 H   0  0  0  0  0  0  0  0  0  0  0  0
   61.6456   33.4269   47.1299 H   0  0  0  0  0  0  0  0  0  0  0  0
   64.8213   32.8787   47.3363 H   0  0  0  0  0  0  0  0  0  0  0  0
   63.4937   31.8003   46.6189 H   0  0  0  0  0  0  0  0  0  0  0  0
   62.9583   34.7243   46.7607 H   0  0  0  0  0  0  0  0  0  0  0  0
   64.1507   34.1569   45.5429 H   0  0  0  0  0  0  0  0  0  0  0  0
   62.4817   33.4929   45.5429 H   0  0  0  0  0  0  0  0  0  0  0  0
   62.0732   30.7660   48.6278 H   0  0  0  0  0  0  0  0  0  0  0  0
   63.8945   30.7219   48.5242 H   0  0  0  0  0  0  0  0  0  0  0  0
   62.3178   31.6901   50.9501 H   0  0  0  0  0  0  0  0  0  0  0  0
   63.0188   30.0487   50.7714 H   0  0  0  0  0  0  0  0  0  0  0  0
   64.4999   31.6390   52.0306 H   0  0  0  0  0  0  0  0  0  0  0  0
   65.2489   30.9769   50.5131 H   0  0  0  0  0  0  0  0  0  0  0  0
   64.7837   33.7282   51.2956 H   0  0  0  0  0  0  0  0  0  0  0  0
   65.6791   33.0093   49.8557 H   0  0  0  0  0  0  0  0  0  0  0  0
   62.8710   34.0619   50.0485 H   0  0  0  0  0  0  0  0  0  0  0  0
   64.2309   34.3355   48.8122 H   0  0  0  0  0  0  0  0  0  0  0  0
  1  2  1  0
  2  3  1  0
  3  4  1  0
  3  5  1  0
  5  6  1  0
  6  7  1  0
  7  8  1  0
  8  9  2  0
  9 10  1  0
 10 11  2  0
 11 12  1  0
 12 13  2  0
 13 14  1  0
 14 15  2  0
 15 16  1  0
 15 17  1  0
 17 18  2  0
 18 19  1  0
 19 20  2  0
 20 21  1  0
 21 22  1  0
 22 23  1  0
 23 24  1  0
 24 25  1  0
 25 26  1  0
 26 27  1  0
 27 28  1  0
 26 29  1  0
 29 30  1  0
 30 31  1  0
 31 32  1  0
 32 33  1  0
 21 34  2  0
 34  8  1  0
 14  9  1  0
 34 17  1  0
 33 26  1  0
  1 35  1  0
  1 36  1  0
  1 37  1  0
  2 38  1  0
  2 39  1  0
  4 40  1  0
  4 41  1  0
  4 42  1  0
  5 43  1  0
  5 44  1  0
  6 45  1  0
  6 46  1  0
  7 47  1  0
  7 48  1  0
 10 49  1  0
 11 50  1  0
 12 51  1  0
 13 52  1  0
 16 53  1  0
 16 54  1  0
 16 55  1  0
 18 56  1  0
 19 57  1  0
 20 58  1  0
 22 59  1  0
 23 60  1  0
 23 61  1  0
 24 62  1  0
 24 63  1  0
 25 64  1  0
 25 65  1  0
 27 66  1  0
 27 67  1  0
 28 68  1  0
 28 69  1  0
 28 70  1  0
 29 71  1  0
 29 72  1  0
 30 73  1  0
 30 74  1  0
 31 75  1  0
 31 76  1  0
 32 77  1  0
 32 78  1  0
 33 79  1  0
 33 80  1  0
M  CHG  3   7   1  15   1  26   1
M  END
>  <UniqueID>  (18) 
18

>  <SMILES>  (18) 
CCN(C)CC[NH2+]c1c2ccccc2[n+](C)c2cccc(NCCC[N+]3(CC)CCCCC3)c12

>  <Energy>  (18) 
155.99529737666052

>  <Genealogy>  (18) 
CCN(C)CC[NH2+]c1c2ccccc2[n+](C)c2cccc(NCCC[N+]3(CC)CCCCC3)c12 (protonated)
CCN(C)CC[NH2+]c1c2ccccc2[n+](C)c2cccc(NCCC[N+]3(CC)CCCCC3)c12 (3D coordinates assigned)
CCN(C)CC[NH2+]c1c2ccccc2[n+](C)c2cccc(NCCC[N+]3(CC)CCCCC3)c12 (nonaromatic ring conformer: 155.99529737666052 kcal/mol)

>  <smiles>  (18) 
CCN(C)CCNc1c2ccccc2[n+](C)c2cccc(NCCC[N+]3(CC)CCCCC3)c12

>  <score_type>  (18) 
oracle

>  <origin>  (18) 
adg

>  <m_score__min__energy>  (18) 
-3.8100000000000001

>  <m_primary>  (18) 
energy

$$$$
18:0
     RDKit          3D

 49 52  0  0  0  0  0  0  0  0999 V2000
   57.7450   31.9330   42.7430 C   0  0  0  0  0  0  0  0  0  0  0  0
   57.3240   31.8740   44.2160 C   0  0  0  0  0  0  0  0  0  0  0  0
   57.4700   30.4540   44.7740 C   0  0  0  0  0  0  0  0  0  0  0  0
   58.1050   32.8740   45.0480 C   0  0  0  0  0  0  0  0  0  0  0  0
   58.5290   34.0980   44.4990 C   0  0  0  0  0  0  0  0  0  0  0  0
   59.2600   35.0020   45.2710 C   0  0  0  0  0  0  0  0  0  0  0  0
   59.5700   34.7030   46.5980 C   0  0  0  0  0  0  0  0  0  0  0  0
   59.1450   33.4950   47.1740 C   0  0  0  0  0  0  0  0  0  0  0  0
   59.4880   33.1880   48.5850 C   0  0  0  0  0  0  0  0  0  0  0  0
   60.6310   33.7130   49.1160 N   0  0  0  0  0  0  0  0  0  0  0  0
   60.9320   33.4300   50.4000 C   0  0  0  0  0  0  0  0  0  0  0  0
   60.1540   32.6420   51.1830 C   0  0  0  0  0  0  0  0  0  0  0  0
   60.7350   32.4990   52.3920 N   0  0  0  0  0  0  0  0  0  0  0  0
   61.8730   33.2360   52.2900 C   0  0  0  0  0  0  0  0  0  0  0  0
   62.0120   33.8290   51.0820 N   0  0  0  0  0  0  0  0  0  0  0  0
   63.1520   34.5920   50.5920 C   0  0  0  0  0  0  0  0  0  0  0  0
   58.9620   32.0910   50.6740 C   0  0  0  0  0  0  0  0  0  0  0  0
   58.0770   31.2380   51.4670 N   0  0  0  0  0  0  0  0  0  0  0  0
   56.6730   31.6560   51.6660 C   0  0  0  0  0  0  0  0  0  0  0  0
   55.8480   30.6940   52.5310 C   0  0  0  0  0  0  0  0  0  0  0  0
   56.2370   29.3570   52.3310 O   0  0  0  0  0  0  0  0  0  0  0  0
   57.5420   29.1960   52.8310 C   0  0  0  0  0  0  0  0  0  0  0  0
   58.5500   29.9200   51.9400 C   0  0  0  0  0  0  0  0  0  0  0  0
   58.6670   32.3980   49.3610 N   0  0  0  0  0  0  0  0  0  0  0  0
   58.4230   32.5790   46.3860 C   0  0  0  0  0  0  0  0  0  0  0  0
   58.8325   32.0854   42.6783 H   0  0  0  0  0  0  0  0  0  0  0  0
   57.4769   30.9885   42.2469 H   0  0  0  0  0  0  0  0  0  0  0  0
   57.2276   32.7674   42.2469 H   0  0  0  0  0  0  0  0  0  0  0  0
   56.2606   32.1492   44.2742 H   0  0  0  0  0  0  0  0  0  0  0  0
   57.4663   30.4899   45.8734 H   0  0  0  0  0  0  0  0  0  0  0  0
   56.6308   29.8346   44.4245 H   0  0  0  0  0  0  0  0  0  0  0  0
   58.4177   30.0184   44.4245 H   0  0  0  0  0  0  0  0  0  0  0  0
   58.2829   34.3438   43.4554 H   0  0  0  0  0  0  0  0  0  0  0  0
   59.5930   35.9539   44.8316 H   0  0  0  0  0  0  0  0  0  0  0  0
   60.1516   35.4188   47.1974 H   0  0  0  0  0  0  0  0  0  0  0  0
   62.6046   33.3393   53.1049 H   0  0  0  0  0  0  0  0  0  0  0  0
   63.7289   34.9781   51.4453 H   0  0  0  0  0  0  0  0  0  0  0  0
   63.7936   33.9406   49.9803 H   0  0  0  0  0  0  0  0  0  0  0  0
   62.7944   35.4334   49.9803 H   0  0  0  0  0  0  0  0  0  0  0  0
   56.6722   32.6433   52.1510 H   0  0  0  0  0  0  0  0  0  0  0  0
   56.2029   31.6699   50.6716 H   0  0  0  0  0  0  0  0  0  0  0  0
   55.9918   30.9533   53.5903 H   0  0  0  0  0  0  0  0  0  0  0  0
   54.7908   30.7922   52.2434 H   0  0  0  0  0  0  0  0  0  0  0  0
   57.5938   29.6119   53.8480 H   0  0  0  0  0  0  0  0  0  0  0  0
   57.7870   28.1237   52.8466 H   0  0  0  0  0  0  0  0  0  0  0  0
   59.4778   30.0676   52.5122 H   0  0  0  0  0  0  0  0  0  0  0  0
   58.7049   29.2927   51.0498 H   0  0  0  0  0  0  0  0  0  0  0  0
   57.7850   32.0520   48.9300 H   0  0  0  0  0  0  0  0  0  0  0  0
   58.1036   31.6209   46.8219 H   0  0  0  0  0  0  0  0  0  0  0  0
  1  2  1  0
  2  3  1  0
  2  4  1  0
  4  5  2  0
  5  6  1  0
  6  7  2  0
  7  8  1  0
  8  9  1  0
  9 10  2  0
 10 11  1  0
 11 12  2  0
 12 13  1  0
 13 14  2  0
 14 15  1  0
 15 16  1  0
 12 17  1  0
 17 18  1  0
 18 19  1  0
 19 20  1  0
 20 21  1  0
 21 22  1  0
 22 23  1  0
 17 24  2  0
  8 25  2  0
 25  4  1  0
 24  9  1  0
 15 11  1  0
 23 18  1  0
  1 26  1  0
  1 27  1  0
  1 28  1  0
  2 29  1  0
  3 30  1  0
  3 31  1  0
  3 32  1  0
  5 33  1  0
  6 34  1  0
  7 35  1  0
 14 36  1  0
 16 37  1  0
 16 38  1  0
 16 39  1  0
 19 40  1  0
 19 41  1  0
 20 42  1  0
 20 43  1  0
 22 44  1  0
 22 45  1  0
 23 46  1  0
 23 47  1  0
 24 48  1  0
 25 49  1  0
M  CHG  1  24   1
M  END
>  <UniqueID>  (19) 
19

>  <SMILES>  (19) 
CC(C)c1cccc(-c2nc3c(ncn3C)c(N3CCOCC3)[nH+]2)c1

>  <Energy>  (19) 
99.9918926741631

>  <Genealogy>  (19) 
CC(C)c1cccc(-c2nc3c(ncn3C)c(N3CCOCC3)[nH+]2)c1 (protonated)
CC(C)c1cccc(-c2nc3c(ncn3C)c(N3CCOCC3)[nH+]2)c1 (3D coordinates assigned)
CC(C)c1cccc(-c2nc3c(ncn3C)c(N3CCOCC3)[nH+]2)c1 (nonaromatic ring conformer: 99.9918926741631 kcal/mol)

>  <smiles>  (19) 
CC(C)c1cccc(-c2nc(N3CCOCC3)c3ncn(C)c3n2)c1

>  <score_type>  (19) 
oracle

>  <origin>  (19) 
adg

>  <m_score__min__energy>  (19) 
-6.0700000000000003

>  <m_primary>  (19) 
energy

$$$$
19:0
     RDKit          3D

 58 60  0  0  0  0  0  0  0  0999 V2000
   59.1020   29.4730   48.1920 C   0  0  0  0  0  0  0  0  0  0  0  0
   58.6540   29.6900   46.8050 N   0  0  0  0  0  0  0  0  0  0  0  0
   59.8310   29.8460   45.9320 C   0  0  0  0  0  0  0  0  0  0  0  0
   57.8080   28.5600   46.3640 C   0  0  0  0  0  0  0  0  0  0  0  0
   57.3360   28.7570   44.9160 C   0  0  0  0  0  0  0  0  0  0  0  0
   56.2000   29.6010   44.8780 O   0  0  0  0  0  0  0  0  0  0  0  0
   56.2890   30.5080   43.7980 C   0  0  0  0  0  0  0  0  0  0  0  0
   57.3670   31.5440   44.0960 C   0  0  0  0  0  0  0  0  0  0  0  0
   57.1360   32.1320   45.3640 O   0  0  0  0  0  0  0  0  0  0  0  0
   57.4110   33.5170   45.3340 C   0  0  0  0  0  0  0  0  0  0  0  0
   58.2020   33.9010   46.5820 C   0  0  0  0  0  0  0  0  0  0  0  0
   58.7890   32.7210   47.2190 N   0  0  0  0  0  0  0  0  0  0  0  0
   59.7600   32.8750   48.2600 C   0  0  0  0  0  0  0  0  0  0  0  0
   59.3790   32.6960   49.5860 C   0  0  0  0  0  0  0  0  0  0  0  0
   60.2720   32.8730   50.6090 C   0  0  0  0  0  0  0  0  0  0  0  0
   61.5800   33.2250   50.3810 N   0  0  0  0  0  0  0  0  0  0  0  0
   62.5080   33.4040   51.5140 C   0  0  0  0  0  0  0  0  0  0  0  0
   62.0090   33.4060   49.0760 C   0  0  0  0  0  0  0  0  0  0  0  0
   63.3450   33.7720   48.7750 C   0  0  0  0  0  0  0  0  0  0  0  0
   63.7670   33.9230   47.4540 C   0  0  0  0  0  0  0  0  0  0  0  0
   62.8800   33.7100   46.4020 C   0  0  0  0  0  0  0  0  0  0  0  0
   61.5570   33.3580   46.6630 C   0  0  0  0  0  0  0  0  0  0  0  0
   61.1000   33.2180   47.9870 C   0  0  0  0  0  0  0  0  0  0  0  0
   59.6240   32.6450   51.9330 C   0  0  0  0  0  0  0  0  0  0  0  0
   58.1580   32.3230   51.5990 C   0  0  0  0  0  0  0  0  0  0  0  0
   58.0220   32.3380   50.0680 C   0  0  0  0  0  0  0  0  0  0  0  0
   58.3350   29.8445   48.8874 H   0  0  0  0  0  0  0  0  0  0  0  0
   59.2612   28.3979   48.3620 H   0  0  0  0  0  0  0  0  0  0  0  0
   60.0442   30.0146   48.3620 H   0  0  0  0  0  0  0  0  0  0  0  0
   60.7329   29.9655   46.5503 H   0  0  0  0  0  0  0  0  0  0  0  0
   59.9373   28.9541   45.2970 H   0  0  0  0  0  0  0  0  0  0  0  0
   59.7013   30.7348   45.2970 H   0  0  0  0  0  0  0  0  0  0  0  0
   58.3896   27.6286   46.4290 H   0  0  0  0  0  0  0  0  0  0  0  0
   56.9239   28.5091   47.0165 H   0  0  0  0  0  0  0  0  0  0  0  0
   58.1467   29.2138   44.3294 H   0  0  0  0  0  0  0  0  0  0  0  0
   57.0678   27.7782   44.4917 H   0  0  0  0  0  0  0  0  0  0  0  0
   56.5491   29.9611   42.8797 H   0  0  0  0  0  0  0  0  0  0  0  0
   55.3214   31.0128   43.6608 H   0  0  0  0  0  0  0  0  0  0  0  0
   58.3524   31.0551   44.0952 H   0  0  0  0  0  0  0  0  0  0  0  0
   57.3387   32.3271   43.3241 H   0  0  0  0  0  0  0  0  0  0  0  0
   58.0014   33.7551   44.4369 H   0  0  0  0  0  0  0  0  0  0  0  0
   56.4663   34.0800   45.3085 H   0  0  0  0  0  0  0  0  0  0  0  0
   59.0078   34.5936   46.2974 H   0  0  0  0  0  0  0  0  0  0  0  0
   57.5157   34.3783   47.2969 H   0  0  0  0  0  0  0  0  0  0  0  0
   58.3170   31.7920   47.1300 H   0  0  0  0  0  0  0  0  0  0  0  0
   61.9566   33.2976   52.4599 H   0  0  0  0  0  0  0  0  0  0  0  0
   63.2997   32.6420   51.4634 H   0  0  0  0  0  0  0  0  0  0  0  0
   62.9595   34.4058   51.4634 H   0  0  0  0  0  0  0  0  0  0  0  0
   64.0591   33.9393   49.5948 H   0  0  0  0  0  0  0  0  0  0  0  0
   64.8069   34.2121   47.2421 H   0  0  0  0  0  0  0  0  0  0  0  0
   63.2241   33.8198   45.3630 H   0  0  0  0  0  0  0  0  0  0  0  0
   60.8633   33.1880   45.8264 H   0  0  0  0  0  0  0  0  0  0  0  0
   60.0971   31.8011   52.4564 H   0  0  0  0  0  0  0  0  0  0  0  0
   59.7180   33.5161   52.5982 H   0  0  0  0  0  0  0  0  0  0  0  0
   57.8925   31.3299   51.9904 H   0  0  0  0  0  0  0  0  0  0  0  0
   57.4838   33.0622   52.0563 H   0  0  0  0  0  0  0  0  0  0  0  0
   57.7233   31.3479   49.6931 H   0  0  0  0  0  0  0  0  0  0  0  0
   57.2517   33.0420   49.7201 H   0  0  0  0  0  0  0  0  0  0  0  0
  1  2  1  0
  2  3  1  0
  2  4  1  0
  4  5  1  0
  5  6  1  0
  6  7  1  0
  7  8  1  0
  8  9  1  0
  9 10  1  0
 10 11  1  0
 11 12  1  0
 12 13  1  0
 13 14  2  0
 14 15  1  0
 15 16  2  0
 16 17  1  0
 16 18  1  0
 18 19  2  0
 19 20  1  0
 20 21  2  0
 21 22  1  0
 22 23  2  0
 15 24  1  0
 24 25  1  0
 25 26  1  0
 23 13  1  0
 26 14  1  0
 23 18  1  0
  1 27  1  0
  1 28  1  0
  1 29  1  0
  3 30  1  0
  3 31  1  0
  3 32  1  0
  4 33  1  0
  4 34  1  0
  5 35  1  0
  5 36  1  0
  7 37  1  0
  7 38  1  0
  8 39  1  0
  8 40  1  0
 10 41  1  0
 10 42  1  0
 11 43  1  0
 11 44  1  0
 12 45  1  0
 17 46  1  0
 17 47  1  0
 17 48  1  0
 19 49  1  0
 20 50  1  0
 21 51  1  0
 22 52  1  0
 24 53  1  0
 24 54  1  0
 25 55  1  0
 25 56  1  0
 26 57  1  0
 26 58  1  0
M  CHG  1  16   1
M  END
>  <UniqueID>  (20) 
20

>  <SMILES>  (20) 
CN(C)CCOCCOCCNc1c2c([n+](C)c3ccccc13)CCC2

>  <Energy>  (20) 
79.6657842414523

>  <Genealogy>  (20) 
CN(C)CCOCCOCCNc1c2c([n+](C)c3ccccc13)CCC2 (3D coordinates assigned)
CN(C)CCOCCOCCNc1c2c([n+](C)c3ccccc13)CCC2 (nonaromatic ring conformer: 79.6657842414523 kcal/mol)

>  <smiles>  (20) 
CN(C)CCOCCOCCNc1c2c([n+](C)c3ccccc13)CCC2

>  <score_type>  (20) 
oracle

>  <origin>  (20) 
adg

>  <m_score__min__energy>  (20) 
-5.2599999999999998

>  <m_primary>  (20) 
energy

$$$$
