0:0
     RDKit          3D

 41 43  0  0  0  0  0  0  0  0999 V2000
   60.4610   26.3160   46.4190 C   0  0  0  0  0  0  0  0  0  0  0  0
   59.9640   27.7260   46.2920 C   0  0  0  0  0  0  0  0  0  0  0  0
   59.7760   28.2980   45.0250 C   0  0  0  0  0  0  0  0  0  0  0  0
   59.2780   29.5990   44.9050 C   0  0  0  0  0  0  0  0  0  0  0  0
   58.9360   30.3380   46.0520 C   0  0  0  0  0  0  0  0  0  0  0  0
   58.4430   31.6850   45.9580 N   0  0  0  0  0  0  0  0  0  0  0  0
   57.3590   32.0880   45.1060 C   0  0  0  0  0  0  0  0  0  0  0  0
   56.6410   31.2280   44.5300 O   0  0  0  0  0  0  0  0  0  0  0  0
   57.0230   33.5410   44.9490 C   0  0  0  0  0  0  0  0  0  0  0  0
   57.7010   34.3160   45.9350 O   0  0  0  0  0  0  0  0  0  0  0  0
   59.0600   34.6490   45.8550 C   0  0  0  0  0  0  0  0  0  0  0  0
   59.5110   35.2260   44.8270 O   0  0  0  0  0  0  0  0  0  0  0  0
   59.9640   34.3250   46.9810 C   0  0  0  0  0  0  0  0  0  0  0  0
   59.5420   34.5010   48.3130 C   0  0  0  0  0  0  0  0  0  0  0  0
   60.4010   34.2010   49.3750 C   0  0  0  0  0  0  0  0  0  0  0  0
   61.6890   33.7280   49.1170 C   0  0  0  0  0  0  0  0  0  0  0  0
   62.1090   33.5230   47.7970 C   0  0  0  0  0  0  0  0  0  0  0  0
   61.2590   33.8340   46.7320 C   0  0  0  0  0  0  0  0  0  0  0  0
   63.3880   33.0050   47.5630 O   0  0  0  0  0  0  0  0  0  0  0  0
   64.1560   32.4300   48.6230 C   0  0  0  0  0  0  0  0  0  0  0  0
   63.9660   33.2340   49.9150 C   0  0  0  0  0  0  0  0  0  0  0  0
   62.5750   33.4520   50.1630 O   0  0  0  0  0  0  0  0  0  0  0  0
   59.1310   29.7640   47.3160 C   0  0  0  0  0  0  0  0  0  0  0  0
   59.6280   28.4630   47.4370 C   0  0  0  0  0  0  0  0  0  0  0  0
   60.5533   26.0542   47.4834 H   0  0  0  0  0  0  0  0  0  0  0  0
   59.7500   25.6315   45.9333 H   0  0  0  0  0  0  0  0  0  0  0  0
   61.4441   26.2286   45.9333 H   0  0  0  0  0  0  0  0  0  0  0  0
   60.0215   27.7203   44.1217 H   0  0  0  0  0  0  0  0  0  0  0  0
   59.1530   30.0471   43.9082 H   0  0  0  0  0  0  0  0  0  0  0  0
   58.8390   32.3950   46.6150 H   0  0  0  0  0  0  0  0  0  0  0  0
   57.3304   33.8783   43.9481 H   0  0  0  0  0  0  0  0  0  0  0  0
   55.9382   33.6726   45.0748 H   0  0  0  0  0  0  0  0  0  0  0  0
   58.5292   34.8772   48.5196 H   0  0  0  0  0  0  0  0  0  0  0  0
   60.0622   34.3376   50.4126 H   0  0  0  0  0  0  0  0  0  0  0  0
   61.6032   33.6946   45.6966 H   0  0  0  0  0  0  0  0  0  0  0  0
   63.8266   31.3936   48.7888 H   0  0  0  0  0  0  0  0  0  0  0  0
   65.2199   32.4474   48.3441 H   0  0  0  0  0  0  0  0  0  0  0  0
   64.4018   32.6763   50.7570 H   0  0  0  0  0  0  0  0  0  0  0  0
   64.4675   34.2072   49.8082 H   0  0  0  0  0  0  0  0  0  0  0  0
   58.8909   30.3423   48.2204 H   0  0  0  0  0  0  0  0  0  0  0  0
   59.7560   28.0157   48.4338 H   0  0  0  0  0  0  0  0  0  0  0  0
  1  2  1  0
  2  3  2  0
  3  4  1  0
  4  5  2  0
  5  6  1  0
  6  7  1  0
  7  8  2  0
  7  9  1  0
  9 10  1  0
 10 11  1  0
 11 12  2  0
 11 13  1  0
 13 14  2  0
 14 15  1  0
 15 16  2  0
 16 17  1  0
 17 18  2  0
 17 19  1  0
 19 20  1  0
 20 21  1  0
 21 22  1  0
  5 23  1  0
 23 24  2  0
 24  2  1  0
 18 13  1  0
 22 16  1  0
  1 25  1  0
  1 26  1  0
  1 27  1  0
  3 28  1  0
  4 29  1  0
  6 30  1  0
  9 31  1  0
  9 32  1  0
 14 33  1  0
 15 34  1  0
 18 35  1  0
 20 36  1  0
 20 37  1  0
 21 38  1  0
 21 39  1  0
 23 40  1  0
 24 41  1  0
M  END
>  <UniqueID>  (1) 
1

>  <SMILES>  (1) 
Cc1ccc(NC(=O)COC(=O)c2ccc3c(c2)OCCO3)cc1

>  <Energy>  (1) 
44.24039738373886

>  <Genealogy>  (1) 
Cc1ccc(NC(=O)COC(=O)c2ccc3c(c2)OCCO3)cc1 (3D coordinates assigned)
Cc1ccc(NC(=O)COC(=O)c2ccc3c(c2)OCCO3)cc1 (nonaromatic ring conformer: 44.24039738373886 kcal/mol)

>  <smiles>  (1) 
Cc1ccc(NC(=O)COC(=O)c2ccc3c(c2)OCCO3)cc1

>  <score_type>  (1) 
oracle

>  <origin>  (1) 
adg

>  <m_score__min__energy>  (1) 
-7.21

>  <m_primary>  (1) 
energy

$$$$
1:0
     RDKit          3D

 47 49  0  0  0  0  0  0  0  0999 V2000
   56.7800   19.4350   46.8860 C   0  0  0  0  0  0  0  0  0  0  0  0
   56.1140   20.5320   47.5050 O   0  0  0  0  0  0  0  0  0  0  0  0
   56.3400   21.8790   47.1840 C   0  0  0  0  0  0  0  0  0  0  0  0
   56.0100   22.9270   48.0600 C   0  0  0  0  0  0  0  0  0  0  0  0
   56.2570   24.2520   47.6960 C   0  0  0  0  0  0  0  0  0  0  0  0
   56.8350   24.5530   46.4550 C   0  0  0  0  0  0  0  0  0  0  0  0
   57.0980   25.9220   46.1060 N   0  0  0  0  0  0  0  0  0  0  0  0
   58.3010   26.4900   45.8590 C   0  0  0  0  0  0  0  0  0  0  0  0
   59.5250   25.8350   45.9690 O   0  0  0  0  0  0  0  0  0  0  0  0
   58.1610   27.8210   45.5090 C   0  0  0  0  0  0  0  0  0  0  0  0
   56.7980   28.0680   45.5450 C   0  0  0  0  0  0  0  0  0  0  0  0
   56.1350   29.3090   45.2620 N   0  0  0  0  0  0  0  0  0  0  0  0
   56.3380   30.0520   44.0210 C   0  0  0  0  0  0  0  0  0  0  0  0
   57.7780   30.5670   43.9350 C   0  0  0  0  0  0  0  0  0  0  0  0
   57.9390   31.8250   44.7450 C   0  0  0  0  0  0  0  0  0  0  0  0
   58.2070   31.7490   46.1220 C   0  0  0  0  0  0  0  0  0  0  0  0
   58.3240   32.9180   46.8820 C   0  0  0  0  0  0  0  0  0  0  0  0
   58.1650   34.1670   46.2740 C   0  0  0  0  0  0  0  0  0  0  0  0
   57.8840   34.2490   44.9070 C   0  0  0  0  0  0  0  0  0  0  0  0
   57.7650   33.0830   44.1440 C   0  0  0  0  0  0  0  0  0  0  0  0
   56.1810   26.8910   45.9100 C   0  0  0  0  0  0  0  0  0  0  0  0
   54.8080   26.7070   46.0370 O   0  0  0  0  0  0  0  0  0  0  0  0
   57.1670   23.5130   45.5670 C   0  0  0  0  0  0  0  0  0  0  0  0
   57.7240   23.8410   44.3200 O   0  0  0  0  0  0  0  0  0  0  0  0
   57.0160   24.4750   43.2600 C   0  0  0  0  0  0  0  0  0  0  0  0
   56.9170   22.1780   45.9450 C   0  0  0  0  0  0  0  0  0  0  0  0
   57.1852   18.7676   47.6608 H   0  0  0  0  0  0  0  0  0  0  0  0
   56.0667   18.8792   46.2597 H   0  0  0  0  0  0  0  0  0  0  0  0
   57.6022   19.8114   46.2597 H   0  0  0  0  0  0  0  0  0  0  0  0
   55.5554   22.7026   49.0362 H   0  0  0  0  0  0  0  0  0  0  0  0
   55.9960   25.0660   48.3884 H   0  0  0  0  0  0  0  0  0  0  0  0
   59.7700   25.0590   45.3680 H   0  0  0  0  0  0  0  0  0  0  0  0
   58.9613   28.5320   45.2560 H   0  0  0  0  0  0  0  0  0  0  0  0
   55.5150   29.7240   45.9940 H   0  0  0  0  0  0  0  0  0  0  0  0
   56.1384   29.3898   43.1656 H   0  0  0  0  0  0  0  0  0  0  0  0
   55.6508   30.9108   44.0034 H   0  0  0  0  0  0  0  0  0  0  0  0
   58.4612   29.7971   44.3230 H   0  0  0  0  0  0  0  0  0  0  0  0
   58.0134   30.7892   42.8837 H   0  0  0  0  0  0  0  0  0  0  0  0
   58.3252   30.7674   46.6042 H   0  0  0  0  0  0  0  0  0  0  0  0
   58.5412   32.8543   47.9585 H   0  0  0  0  0  0  0  0  0  0  0  0
   58.2611   35.0855   46.8716 H   0  0  0  0  0  0  0  0  0  0  0  0
   57.7563   35.2323   44.4307 H   0  0  0  0  0  0  0  0  0  0  0  0
   57.5346   33.1510   43.0706 H   0  0  0  0  0  0  0  0  0  0  0  0
   56.2584   25.1534   43.6793 H   0  0  0  0  0  0  0  0  0  0  0  0
   57.7204   25.0498   42.6408 H   0  0  0  0  0  0  0  0  0  0  0  0
   56.5221   23.7116   42.6408 H   0  0  0  0  0  0  0  0  0  0  0  0
   57.1790   21.3608   45.2568 H   0  0  0  0  0  0  0  0  0  0  0  0
  1  2  1  0
  2  3  1  0
  3  4  2  0
  4  5  1  0
  5  6  2  0
  6  7  1  0
  7  8  1  0
  8  9  1  0
  8 10  2  0
 10 11  1  0
 11 12  1  0
 12 13  1  0
 13 14  1  0
 14 15  1  0
 15 16  2  0
 16 17  1  0
 17 18  2  0
 18 19  1  0
 19 20  2  0
 11 21  2  0
 21 22  1  0
  6 23  1  0
 23 24  1  0
 24 25  1  0
 23 26  2  0
 26  3  1  0
 21  7  1  0
 20 15  1  0
  1 27  1  0
  1 28  1  0
  1 29  1  0
  4 30  1  0
  5 31  1  0
  9 32  1  0
 10 33  1  0
 12 34  1  0
 13 35  1  0
 13 36  1  0
 14 37  1  0
 14 38  1  0
 16 39  1  0
 17 40  1  0
 18 41  1  0
 19 42  1  0
 20 43  1  0
 25 44  1  0
 25 45  1  0
 25 46  1  0
 26 47  1  0
M  CHG  1  22  -1
M  END
>  <UniqueID>  (2) 
2

>  <SMILES>  (2) 
COc1ccc(-n2c(O)cc(NCCc3ccccc3)c2[O-])c(OC)c1

>  <Energy>  (2) 
78.45188793653412

>  <Genealogy>  (2) 
COc1ccc(-n2c(O)cc(NCCc3ccccc3)c2[O-])c(OC)c1 (protonated)
COc1ccc(-n2c(O)cc(NCCc3ccccc3)c2[O-])c(OC)c1 (3D coordinates assigned)
COc1ccc(-n2c(O)cc(NCCc3ccccc3)c2[O-])c(OC)c1 (optimized conformer: 78.45188793653412 kcal/mol)

>  <smiles>  (2) 
COc1ccc(-n2c(O)cc(NCCc3ccccc3)c2O)c(OC)c1

>  <score_type>  (2) 
oracle

>  <origin>  (2) 
adg

>  <m_score__min__energy>  (2) 
-10.23

>  <m_primary>  (2) 
energy

$$$$
2:0
     RDKit          3D

 30 32  0  0  0  0  0  0  0  0999 V2000
   61.5600   33.8300   47.6800 C   0  0  0  0  0  0  0  0  0  0  0  0
   59.9740   33.8180   48.5720 S   0  0  0  0  0  0  0  0  0  0  0  0
   59.0070   33.5940   47.0780 C   0  0  0  0  0  0  0  0  0  0  0  0
   58.5330   34.6160   46.3430 N   0  0  0  0  0  0  0  0  0  0  0  0
   57.9220   34.0850   45.2940 N   0  0  0  0  0  0  0  0  0  0  0  0
   58.0360   32.7450   45.3990 C   0  0  0  0  0  0  0  0  0  0  0  0
   57.4300   31.8040   44.4310 C   0  0  0  0  0  0  0  0  0  0  0  0
   57.6110   31.9770   43.0500 C   0  0  0  0  0  0  0  0  0  0  0  0
   57.0270   31.1070   42.1830 N   0  0  0  0  0  0  0  0  0  0  0  0
   56.2640   30.0750   42.6260 C   0  0  0  0  0  0  0  0  0  0  0  0
   56.0730   29.9040   43.9980 C   0  0  0  0  0  0  0  0  0  0  0  0
   56.6560   30.7730   44.8640 N   0  0  0  0  0  0  0  0  0  0  0  0
   58.7140   32.4030   46.5180 N   0  0  0  0  0  0  0  0  0  0  0  0
   59.1470   31.1070   46.9580 C   0  0  0  0  0  0  0  0  0  0  0  0
   58.8970   30.6880   48.2740 C   0  0  0  0  0  0  0  0  0  0  0  0
   59.3340   29.4330   48.7060 C   0  0  0  0  0  0  0  0  0  0  0  0
   60.0270   28.5910   47.8300 C   0  0  0  0  0  0  0  0  0  0  0  0
   60.2870   29.0070   46.5210 C   0  0  0  0  0  0  0  0  0  0  0  0
   59.8520   30.2620   46.0860 C   0  0  0  0  0  0  0  0  0  0  0  0
   62.3879   33.8363   48.4042 H   0  0  0  0  0  0  0  0  0  0  0  0
   61.6322   32.9324   47.0483 H   0  0  0  0  0  0  0  0  0  0  0  0
   61.6186   34.7286   47.0483 H   0  0  0  0  0  0  0  0  0  0  0  0
   58.2210   32.8105   42.6715 H   0  0  0  0  0  0  0  0  0  0  0  0
   55.8006   29.3801   41.9102 H   0  0  0  0  0  0  0  0  0  0  0  0
   55.4567   29.0741   44.3741 H   0  0  0  0  0  0  0  0  0  0  0  0
   58.3558   31.3491   48.9669 H   0  0  0  0  0  0  0  0  0  0  0  0
   59.1326   29.1066   49.7370 H   0  0  0  0  0  0  0  0  0  0  0  0
   60.3672   27.6021   48.1710 H   0  0  0  0  0  0  0  0  0  0  0  0
   60.8344   28.3461   45.8328 H   0  0  0  0  0  0  0  0  0  0  0  0
   60.0627   30.5888   45.0570 H   0  0  0  0  0  0  0  0  0  0  0  0
  1  2  1  0
  2  3  1  0
  3  4  2  0
  4  5  1  0
  5  6  2  0
  6  7  1  0
  7  8  2  0
  8  9  1  0
  9 10  2  0
 10 11  1  0
 11 12  2  0
  6 13  1  0
 13 14  1  0
 14 15  2  0
 15 16  1  0
 16 17  2  0
 17 18  1  0
 18 19  2  0
 13  3  1  0
 19 14  1  0
 12  7  1  0
  1 20  1  0
  1 21  1  0
  1 22  1  0
  8 23  1  0
 10 24  1  0
 11 25  1  0
 15 26  1  0
 16 27  1  0
 17 28  1  0
 18 29  1  0
 19 30  1  0
M  END
>  <UniqueID>  (3) 
3

>  <SMILES>  (3) 
CSc1nnc(-c2cnccn2)n1-c1ccccc1

>  <Energy>  (3) 
72.76982849589538

>  <Genealogy>  (3) 
CSc1nnc(-c2cnccn2)n1-c1ccccc1 (3D coordinates assigned)
CSc1nnc(-c2cnccn2)n1-c1ccccc1 (optimized conformer: 72.76982849589538 kcal/mol)

>  <smiles>  (3) 
CSc1nnc(-c2cnccn2)n1-c1ccccc1

>  <score_type>  (3) 
oracle

>  <origin>  (3) 
adg

>  <m_score__min__energy>  (3) 
-6.5599999999999996

>  <m_primary>  (3) 
energy

$$$$
3:0
     RDKit          3D

 70 72  0  0  0  0  0  0  0  0999 V2000
   57.4730   32.3610   40.8900 C   0  0  0  0  0  0  0  0  0  0  0  0
   57.3570   31.8860   42.3390 C   0  0  0  0  0  0  0  0  0  0  0  0
   58.1580   32.7710   43.3030 C   0  0  0  0  0  0  0  0  0  0  0  0
   57.8450   32.4250   44.7110 N   0  0  0  0  0  0  0  0  0  0  0  0
   57.2070   33.5220   45.4700 C   0  0  0  0  0  0  0  0  0  0  0  0
   58.2290   34.3380   46.2760 C   0  0  0  0  0  0  0  0  0  0  0  0
   59.4570   34.6710   45.4310 C   0  0  0  0  0  0  0  0  0  0  0  0
   57.1350   31.1280   44.8660 C   0  0  0  0  0  0  0  0  0  0  0  0
   58.0600   29.9090   44.9580 C   0  0  0  0  0  0  0  0  0  0  0  0
   57.9540   28.8860   43.9890 C   0  0  0  0  0  0  0  0  0  0  0  0
   57.1800   29.0440   42.8870 F   0  0  0  0  0  0  0  0  0  0  0  0
   58.6930   27.7080   44.1110 C   0  0  0  0  0  0  0  0  0  0  0  0
   59.5670   27.5330   45.1800 C   0  0  0  0  0  0  0  0  0  0  0  0
   59.7480   28.5590   46.1040 C   0  0  0  0  0  0  0  0  0  0  0  0
   59.0330   29.7640   45.9890 C   0  0  0  0  0  0  0  0  0  0  0  0
   59.4150   30.8710   46.8930 C   0  0  0  0  0  0  0  0  0  0  0  0
   58.5150   31.3370   47.8600 C   0  0  0  0  0  0  0  0  0  0  0  0
   58.8820   32.3760   48.7110 C   0  0  0  0  0  0  0  0  0  0  0  0
   60.1420   32.9620   48.5750 C   0  0  0  0  0  0  0  0  0  0  0  0
   60.6430   34.2040   49.7090 S   0  0  0  0  0  0  0  0  0  0  0  0
   62.2560   34.6280   49.4920 O   0  0  0  0  0  0  0  0  0  0  0  0
   60.2750   33.8060   51.4140 C   0  0  0  0  0  0  0  0  0  0  0  0
   61.3130   32.8660   52.0430 C   0  0  0  0  0  0  0  0  0  0  0  0
   62.7480   33.4340   52.1560 C   0  0  0  0  0  0  0  0  0  0  0  0
   63.7810   32.6790   51.4180 N   0  0  0  0  0  0  0  0  0  0  0  0
   64.7540   33.4800   50.6470 C   0  0  0  0  0  0  0  0  0  0  0  0
   64.9420   32.9320   49.2310 C   0  0  0  0  0  0  0  0  0  0  0  0
   63.6830   32.6250   48.6810 O   0  0  0  0  0  0  0  0  0  0  0  0
   63.1410   31.4690   49.2970 C   0  0  0  0  0  0  0  0  0  0  0  0
   63.3670   31.3890   50.8290 C   0  0  0  0  0  0  0  0  0  0  0  0
   60.9910   32.5370   47.5980 N   0  0  0  0  0  0  0  0  0  0  0  0
   60.6510   31.5240   46.7520 C   0  0  0  0  0  0  0  0  0  0  0  0
   57.7339   33.4295   40.8742 H   0  0  0  0  0  0  0  0  0  0  0  0
   58.2568   31.7845   40.3768 H   0  0  0  0  0  0  0  0  0  0  0  0
   56.5117   32.2107   40.3768 H   0  0  0  0  0  0  0  0  0  0  0  0
   56.2979   31.9071   42.6353 H   0  0  0  0  0  0  0  0  0  0  0  0
   57.7672   30.8669   42.3950 H   0  0  0  0  0  0  0  0  0  0  0  0
   59.2328   32.6201   43.1239 H   0  0  0  0  0  0  0  0  0  0  0  0
   57.8871   33.8226   43.1274 H   0  0  0  0  0  0  0  0  0  0  0  0
   56.6964   34.1923   44.7629 H   0  0  0  0  0  0  0  0  0  0  0  0
   56.4960   33.0739   46.1797 H   0  0  0  0  0  0  0  0  0  0  0  0
   57.7580   35.2744   46.6097 H   0  0  0  0  0  0  0  0  0  0  0  0
   58.5517   33.7380   47.1396 H   0  0  0  0  0  0  0  0  0  0  0  0
   60.3055   34.9011   46.0921 H   0  0  0  0  0  0  0  0  0  0  0  0
   59.7100   33.8090   44.7962 H   0  0  0  0  0  0  0  0  0  0  0  0
   59.2399   35.5427   44.7962 H   0  0  0  0  0  0  0  0  0  0  0  0
   56.5322   31.1730   45.7850 H   0  0  0  0  0  0  0  0  0  0  0  0
   56.5251   30.9928   43.9606 H   0  0  0  0  0  0  0  0  0  0  0  0
   58.5840   26.9136   43.3580 H   0  0  0  0  0  0  0  0  0  0  0  0
   60.1140   26.5856   45.2948 H   0  0  0  0  0  0  0  0  0  0  0  0
   60.4584   28.4251   46.9331 H   0  0  0  0  0  0  0  0  0  0  0  0
   57.5175   30.8817   47.9471 H   0  0  0  0  0  0  0  0  0  0  0  0
   58.1852   32.7322   49.4840 H   0  0  0  0  0  0  0  0  0  0  0  0
   62.7710   33.8910   49.9060 H   0  0  0  0  0  0  0  0  0  0  0  0
   60.2487   34.7397   51.9950 H   0  0  0  0  0  0  0  0  0  0  0  0
   59.3052   33.2872   51.4310 H   0  0  0  0  0  0  0  0  0  0  0  0
   60.9690   32.6116   53.0564 H   0  0  0  0  0  0  0  0  0  0  0  0
   61.3842   32.0010   51.3671 H   0  0  0  0  0  0  0  0  0  0  0  0
   62.7381   34.4641   51.7702 H   0  0  0  0  0  0  0  0  0  0  0  0
   63.0210   33.3669   53.2195 H   0  0  0  0  0  0  0  0  0  0  0  0
   64.3913   34.5165   50.5829 H   0  0  0  0  0  0  0  0  0  0  0  0
   65.7235   33.4330   51.1645 H   0  0  0  0  0  0  0  0  0  0  0  0
   65.4411   33.6883   48.6074 H   0  0  0  0  0  0  0  0  0  0  0  0
   65.5607   32.0232   49.2662 H   0  0  0  0  0  0  0  0  0  0  0  0
   62.0573   31.4558   49.1087 H   0  0  0  0  0  0  0  0  0  0  0  0
   63.6651   30.6069   48.8587 H   0  0  0  0  0  0  0  0  0  0  0  0
   62.4283   31.0707   51.3060 H   0  0  0  0  0  0  0  0  0  0  0  0
   64.1805   30.6699   51.0052 H   0  0  0  0  0  0  0  0  0  0  0  0
   61.9320   32.9800   47.5020 H   0  0  0  0  0  0  0  0  0  0  0  0
   61.3461   31.2168   45.9567 H   0  0  0  0  0  0  0  0  0  0  0  0
  1  2  1  0
  2  3  1  0
  3  4  1  0
  4  5  1  0
  5  6  1  0
  6  7  1  0
  4  8  1  0
  8  9  1  0
  9 10  2  0
 10 11  1  0
 10 12  1  0
 12 13  2  0
 13 14  1  0
 14 15  2  0
 15 16  1  0
 16 17  2  0
 17 18  1  0
 18 19  2  0
 19 20  1  0
 20 21  1  1
 20 22  1  0
 22 23  1  0
 23 24  1  0
 24 25  1  0
 25 26  1  0
 26 27  1  0
 27 28  1  0
 28 29  1  0
 29 30  1  0
 19 31  1  0
 31 32  2  0
 15  9  1  0
 32 16  1  0
 30 25  1  0
  1 33  1  0
  1 34  1  0
  1 35  1  0
  2 36  1  0
  2 37  1  0
  3 38  1  0
  3 39  1  0
  5 40  1  0
  5 41  1  0
  6 42  1  0
  6 43  1  0
  7 44  1  0
  7 45  1  0
  7 46  1  0
  8 47  1  0
  8 48  1  0
 12 49  1  0
 13 50  1  0
 14 51  1  0
 17 52  1  0
 18 53  1  0
 21 54  1  0
 22 55  1  0
 22 56  1  0
 23 57  1  0
 23 58  1  0
 24 59  1  0
 24 60  1  0
 26 61  1  0
 26 62  1  0
 27 63  1  0
 27 64  1  0
 29 65  1  0
 29 66  1  0
 30 67  1  0
 30 68  1  0
 31 69  1  0
 32 70  1  0
M  CHG  2  20   1  31   1
M  END
>  <UniqueID>  (4) 
4

>  <SMILES>  (4) 
CCCN(CCC)Cc1c(F)cccc1-c1ccc([S@+](O)CCCN2CCOCC2)[nH+]c1

>  <Energy>  (4) 
89.29609072660688

>  <Genealogy>  (4) 
CCCN(CCC)Cc1c(F)cccc1-c1ccc([S+](O)CCCN2CCOCC2)[nH+]c1 (protonated)
CCCN(CCC)Cc1c(F)cccc1-c1ccc([S@+](O)CCCN2CCOCC2)[nH+]c1 (chirality)
CCCN(CCC)Cc1c(F)cccc1-c1ccc([S@+](O)CCCN2CCOCC2)[nH+]c1 (3D coordinates assigned)
CCCN(CCC)Cc1c(F)cccc1-c1ccc([S@+](O)CCCN2CCOCC2)[nH+]c1 (nonaromatic ring conformer: 89.29609072660688 kcal/mol)

>  <smiles>  (4) 
CCCN(CCC)Cc1c(F)cccc1-c1ccc([S+]([O-])CCCN2CCOCC2)nc1

>  <score_type>  (4) 
oracle

>  <origin>  (4) 
adg

>  <m_score__min__energy>  (4) 
-5.0800000000000001

>  <m_primary>  (4) 
energy

$$$$
4:0
     RDKit          3D

 47 50  0  0  1  0  0  0  0  0999 V2000
   62.9980   34.1870   50.3040 C   0  0  0  0  0  0  0  0  0  0  0  0
   64.2810   33.3740   50.2810 C   0  0  0  0  0  0  0  0  0  0  0  0
   63.9630   32.0120   50.2010 O   0  0  0  0  0  0  0  0  0  0  0  0
   62.9810   31.5420   49.3190 C   0  0  0  0  0  0  0  0  0  0  0  0
   61.9290   30.7840   49.8240 C   0  0  0  0  0  0  0  0  0  0  0  0
   60.9660   30.3280   48.9360 C   0  0  0  0  0  0  0  0  0  0  0  0
   61.0390   30.6110   47.5780 C   0  0  0  0  0  0  0  0  0  0  0  0
   60.0270   30.1270   46.6450 C   0  0  0  0  0  0  0  0  0  0  0  0
   60.0970   28.8510   46.1910 C   0  0  0  0  0  0  0  0  0  0  0  0
   59.2030   28.2850   45.3090 C   0  0  0  0  0  0  0  0  0  0  0  0
   58.1820   29.1010   44.8800 C   0  0  0  0  0  0  0  0  0  0  0  0
   57.2990   28.5750   44.0200 N   0  0  0  0  0  0  0  0  0  0  0  0
   56.2910   29.3440   43.5830 C   0  0  0  0  0  0  0  0  0  0  0  0
   56.1410   30.6140   43.9770 N   0  0  0  0  0  0  0  0  0  0  0  0
   57.0400   31.1310   44.8440 C   0  0  0  0  0  0  0  0  0  0  0  0
   56.8750   32.3190   45.2010 N   0  0  0  0  0  0  0  0  0  0  0  0
   57.3780   33.5270   44.6640 C   0  0  0  0  0  0  0  0  0  0  0  0
   58.3960   33.8740   45.7600 C   0  0  0  0  0  0  0  0  0  0  0  0
   59.6850   34.2460   45.4050 C   0  0  0  0  0  0  0  0  0  0  0  0
   60.5740   34.5690   46.4050 C   0  0  0  0  0  0  0  0  0  0  0  0
   60.1200   34.5020   47.6970 C   0  0  0  0  0  0  0  0  0  0  0  0
   58.8840   34.1470   48.0630 N   0  0  0  0  0  0  0  0  0  0  0  0
   58.0210   33.8320   47.0860 C   0  0  0  0  0  0  0  0  0  0  0  0
   58.0970   30.4180   45.3410 C   0  0  0  0  0  0  0  0  0  0  0  0
   58.9750   30.9760   46.2080 C   0  0  0  0  0  0  0  0  0  0  0  0
   62.1070   31.3690   47.1270 C   0  0  0  0  0  0  0  0  0  0  0  0
   63.0850   31.8420   47.9770 C   0  0  0  0  0  0  0  0  0  0  0  0
   62.7016   34.3748   51.3465 H   0  0  0  0  0  0  0  0  0  0  0  0
   63.1624   35.1461   49.7911 H   0  0  0  0  0  0  0  0  0  0  0  0
   62.2009   33.6288   49.7911 H   0  0  0  0  0  0  0  0  0  0  0  0
   64.8837   33.6628   49.4073 H   0  0  0  0  0  0  0  0  0  0  0  0
   64.8559   33.5655   51.1990 H   0  0  0  0  0  0  0  0  0  0  0  0
   61.8630   30.5529   50.8974 H   0  0  0  0  0  0  0  0  0  0  0  0
   60.1254   29.7287   49.3158 H   0  0  0  0  0  0  0  0  0  0  0  0
   60.9256   28.2242   46.5523 H   0  0  0  0  0  0  0  0  0  0  0  0
   59.2997   27.2436   44.9683 H   0  0  0  0  0  0  0  0  0  0  0  0
   57.3960   27.5880   43.7000 H   0  0  0  0  0  0  0  0  0  0  0  0
   55.5634   28.9167   42.8773 H   0  0  0  0  0  0  0  0  0  0  0  0
   57.8601   33.3746   43.6871 H   0  0  0  0  0  0  0  0  0  0  0  0
   56.6248   34.3014   44.4566 H   0  0  0  0  0  0  0  0  0  0  0  0
   59.9893   34.2819   44.3485 H   0  0  0  0  0  0  0  0  0  0  0  0
   61.6074   34.8689   46.1767 H   0  0  0  0  0  0  0  0  0  0  0  0
   60.8296   34.7611   48.4966 H   0  0  0  0  0  0  0  0  0  0  0  0
   56.9948   33.5346   47.3475 H   0  0  0  0  0  0  0  0  0  0  0  0
   58.8800   32.0169   46.5509 H   0  0  0  0  0  0  0  0  0  0  0  0
   62.1777   31.6017   46.0542 H   0  0  0  0  0  0  0  0  0  0  0  0
   63.9244   32.4417   47.5951 H   0  0  0  0  0  0  0  0  0  0  0  0
  1  2  1  0
  2  3  1  0
  3  4  1  0
  4  5  2  0
  5  6  1  0
  6  7  2  0
  7  8  1  0
  8  9  2  0
  9 10  1  0
 10 11  2  0
 11 12  1  0
 12 13  1  0
 13 14  2  0
 14 15  1  0
 15 16  2  0
 16 17  1  0
 17 18  1  0
 18 19  2  0
 19 20  1  0
 20 21  2  0
 21 22  1  0
 22 23  2  0
 15 24  1  0
 24 25  2  0
  7 26  1  0
 26 27  2  0
 27  4  1  0
 25  8  1  0
 24 11  1  0
 23 18  1  0
  1 28  1  0
  1 29  1  0
  1 30  1  0
  2 31  1  0
  2 32  1  0
  5 33  1  0
  6 34  1  0
  9 35  1  0
 10 36  1  0
 12 37  1  0
 13 38  1  0
 17 39  1  0
 17 40  1  0
 19 41  1  0
 20 42  1  0
 21 43  1  0
 23 44  1  0
 25 45  1  0
 26 46  1  0
 27 47  1  0
M  END
>  <smiles>  (5) 
CCOc1ccc(-c2ccc3[nH]cnc(=NCc4cccnc4)c3c2)cc1

>  <score_type>  (5) 
oracle

>  <origin>  (5) 
adg

>  <m_score__min__energy>  (5) 
-7.8700000000000001

>  <m_primary>  (5) 
energy

$$$$
5:0
     RDKit          3D

 43 46  0  0  0  0  0  0  0  0999 V2000
   56.0918   29.8842   41.9960 H   0  0  0  0  0  0  0  0  0  0  0  0
   56.6430   30.5740   42.6520 C   0  0  0  0  0  0  0  0  0  0  0  0
   57.4070   31.6050   42.0970 C   0  0  0  0  0  0  0  0  0  0  0  0
   57.4518   31.7300   41.0050 H   0  0  0  0  0  0  0  0  0  0  0  0
   58.1140   32.4770   42.9300 C   0  0  0  0  0  0  0  0  0  0  0  0
   58.7071   33.2927   42.4908 H   0  0  0  0  0  0  0  0  0  0  0  0
   58.0710   32.3170   44.3260 C   0  0  0  0  0  0  0  0  0  0  0  0
   58.7950   33.2490   45.2130 C   0  0  0  0  0  0  0  0  0  0  0  0
   58.7350   34.6370   45.1390 C   0  0  0  0  0  0  0  0  0  0  0  0
   58.1103   35.2280   44.4530 H   0  0  0  0  0  0  0  0  0  0  0  0
   59.6120   35.1370   46.0940 C   0  0  0  0  0  0  0  0  0  0  0  0
   59.8263   36.1940   46.3106 H   0  0  0  0  0  0  0  0  0  0  0  0
   60.1580   34.0320   46.7140 C   0  0  0  0  0  0  0  0  0  0  0  0
   61.0780   33.9840   47.7520 C   0  0  0  0  0  0  0  0  0  0  0  0
   61.4971   34.9033   48.1870 H   0  0  0  0  0  0  0  0  0  0  0  0
   61.4520   32.7200   48.2240 C   0  0  0  0  0  0  0  0  0  0  0  0
   62.1915   32.6327   49.0336 H   0  0  0  0  0  0  0  0  0  0  0  0
   60.8820   31.5590   47.6630 C   0  0  0  0  0  0  0  0  0  0  0  0
   61.2430   30.3960   48.1270 N   0  0  0  0  0  0  0  0  0  0  0  0
   60.3880   29.2230   48.3190 C   0  0  0  0  0  0  0  0  0  0  0  0
   59.5652   29.4870   48.9997 H   0  0  0  0  0  0  0  0  0  0  0  0
   60.9998   28.4133   48.7434 H   0  0  0  0  0  0  0  0  0  0  0  0
   59.8090   28.7460   47.0100 C   0  0  0  0  0  0  0  0  0  0  0  0
   58.5080   28.2190   46.9600 C   0  0  0  0  0  0  0  0  0  0  0  0
   57.9062   28.1594   47.8789 H   0  0  0  0  0  0  0  0  0  0  0  0
   57.9740   27.7700   45.7490 C   0  0  0  0  0  0  0  0  0  0  0  0
   56.9489   27.3724   45.7166 H   0  0  0  0  0  0  0  0  0  0  0  0
   58.7390   27.8240   44.5750 C   0  0  0  0  0  0  0  0  0  0  0  0
   58.1470   27.3880   43.2670 C   0  0  0  0  0  0  0  0  0  0  0  0
   57.2744   26.7453   43.4555 H   0  0  0  0  0  0  0  0  0  0  0  0
   57.8337   28.2727   42.6933 H   0  0  0  0  0  0  0  0  0  0  0  0
   58.8989   26.8263   42.6933 H   0  0  0  0  0  0  0  0  0  0  0  0
   60.0390   28.3510   44.6230 C   0  0  0  0  0  0  0  0  0  0  0  0
   60.6384   28.4146   43.7028 H   0  0  0  0  0  0  0  0  0  0  0  0
   60.5750   28.7950   45.8340 C   0  0  0  0  0  0  0  0  0  0  0  0
   61.6029   29.1853   45.8667 H   0  0  0  0  0  0  0  0  0  0  0  0
   59.9650   31.6870   46.6480 N   0  0  0  0  0  0  0  0  0  0  0  0
   59.4840   30.8530   46.2520 H   0  0  0  0  0  0  0  0  0  0  0  0
   59.6620   32.9030   46.1880 N   0  0  0  0  0  0  0  0  0  0  0  0
   57.2840   31.2920   44.8750 C   0  0  0  0  0  0  0  0  0  0  0  0
   57.2214   31.1747   45.9669 H   0  0  0  0  0  0  0  0  0  0  0  0
   56.5790   30.4190   44.0390 C   0  0  0  0  0  0  0  0  0  0  0  0
   55.9739   29.6100   44.4742 H   0  0  0  0  0  0  0  0  0  0  0  0
  1  2  1  0
  2  3  2  0
  3  4  1  0
  3  5  1  0
  5  6  1  0
  5  7  2  0
  7  8  1  0
  8  9  2  0
  9 10  1  0
  9 11  1  0
 11 12  1  0
 11 13  2  0
 13 14  1  0
 14 15  1  0
 14 16  2  0
 16 17  1  0
 16 18  1  0
 18 19  2  0
 19 20  1  0
 20 21  1  0
 20 22  1  0
 20 23  1  0
 23 24  2  0
 24 25  1  0
 24 26  1  0
 26 27  1  0
 26 28  2  0
 28 29  1  0
 29 30  1  0
 29 31  1  0
 29 32  1  0
 28 33  1  0
 33 34  1  0
 33 35  2  0
 35 36  1  0
 18 37  1  0
 37 38  1  0
 37 39  1  0
  7 40  1  0
 40 41  1  0
 40 42  2  0
 42 43  1  0
 42  2  1  0
 39  8  1  0
 39 13  1  0
 35 23  1  0
M  END
>  <UniqueID>  (6) 
5

>  <SMILES>  (6) 
Cc1ccc(C/N=c2/ccc3ccc(-c4ccccc4)n3[nH]2)cc1

>  <Energy>  (6) 
82.96561258916766

>  <Genealogy>  (6) 
Cc1ccc(C/N=c2/ccc3ccc(-c4ccccc4)n3[nH]2)cc1 (cis-trans isomerization)
Cc1ccc(C/N=c2/ccc3ccc(-c4ccccc4)n3[nH]2)cc1 (3D coordinates assigned)
Cc1ccc(C/N=c2/ccc3ccc(-c4ccccc4)n3[nH]2)cc1 (optimized conformer: 82.96561258916766 kcal/mol)

>  <smiles>  (6) 
Cc1ccc(CN=c2ccc3ccc(-c4ccccc4)n3[nH]2)cc1

>  <score_type>  (6) 
oracle

>  <origin>  (6) 
adg

>  <m_score__min__energy>  (6) 
-7.9000000000000004

>  <m_primary>  (6) 
energy

$$$$
6:0
     RDKit          3D

 27 28  0  0  0  0  0  0  0  0999 V2000
   54.7500   27.1040   45.9630 H   0  0  0  0  0  0  0  0  0  0  0  0
   55.1100   26.1660   46.0830 O   0  0  0  0  0  0  0  0  0  0  0  0
   56.4470   25.8960   46.2950 N   0  0  0  0  0  0  0  0  0  0  0  0
   57.4180   26.7640   46.2320 C   0  0  0  0  0  0  0  0  0  0  0  0
   57.2320   28.1930   45.8680 C   0  0  0  0  0  0  0  0  0  0  0  0
   56.2200   28.5500   45.2080 O   0  0  0  0  0  0  0  0  0  0  0  0
   58.3040   29.1790   46.2040 C   0  0  0  0  0  0  0  0  0  0  0  0
   58.2040   30.5430   45.8270 C   0  0  0  0  0  0  0  0  0  0  0  0
   57.0480   30.9980   45.1700 O   0  0  0  0  0  0  0  0  0  0  0  0
   56.9020   31.1030   43.7580 C   0  0  0  0  0  0  0  0  0  0  0  0
   56.0292   31.7307   43.5253 H   0  0  0  0  0  0  0  0  0  0  0  0
   57.8064   31.5589   43.3288 H   0  0  0  0  0  0  0  0  0  0  0  0
   56.7576   30.1006   43.3288 H   0  0  0  0  0  0  0  0  0  0  0  0
   59.2670   31.4190   46.1170 C   0  0  0  0  0  0  0  0  0  0  0  0
   59.1883   32.4809   45.8411 H   0  0  0  0  0  0  0  0  0  0  0  0
   60.4160   30.9550   46.7490 C   0  0  0  0  0  0  0  0  0  0  0  0
   61.2479   31.6466   46.9481 H   0  0  0  0  0  0  0  0  0  0  0  0
   60.5190   29.6200   47.1310 C   0  0  0  0  0  0  0  0  0  0  0  0
   61.4383   29.2597   47.6159 H   0  0  0  0  0  0  0  0  0  0  0  0
   59.4560   28.7300   46.9010 C   0  0  0  0  0  0  0  0  0  0  0  0
   59.5470   27.2980   47.3060 C   0  0  0  0  0  0  0  0  0  0  0  0
   60.1290   26.9020   48.4010 N   0  0  0  0  0  0  0  0  0  0  0  0
   60.2610   27.6930   49.5180 O   0  0  0  0  0  0  0  0  0  0  0  0
   61.1600   27.7760   49.9770 H   0  0  0  0  0  0  0  0  0  0  0  0
   58.8200   26.2870   46.4710 C   0  0  0  0  0  0  0  0  0  0  0  0
   58.7958   25.3223   46.9989 H   0  0  0  0  0  0  0  0  0  0  0  0
   59.3374   26.1606   45.5085 H   0  0  0  0  0  0  0  0  0  0  0  0
  1  2  1  0
  2  3  1  0
  3  4  2  3
  4  5  1  0
  5  6  2  0
  5  7  1  0
  7  8  2  0
  8  9  1  0
  9 10  1  0
 10 11  1  0
 10 12  1  0
 10 13  1  0
  8 14  1  0
 14 15  1  0
 14 16  2  0
 16 17  1  0
 16 18  1  0
 18 19  1  0
 18 20  2  0
 20 21  1  0
 21 22  2  0
 22 23  1  0
 23 24  1  0
 21 25  1  0
 25 26  1  0
 25 27  1  0
 25  4  1  0
 20  7  1  0
M  END
>  <UniqueID>  (7) 
6

>  <SMILES>  (7) 
COc1cccc2c1C(=O)C(=NO)C/C2=N/O

>  <Energy>  (7) 
41.62789974540445

>  <Genealogy>  (7) 
COc1cccc2c1C(=O)C(=NO)C/C2=N/O (cis-trans isomerization)
COc1cccc2c1C(=O)C(=NO)C/C2=N/O (3D coordinates assigned)
COc1cccc2c1C(=O)C(=NO)C/C2=N/O (nonaromatic ring conformer: 41.62789974540445 kcal/mol)

>  <smiles>  (7) 
COc1cccc2c1C(=O)C(=NO)CC2=NO

>  <score_type>  (7) 
oracle

>  <origin>  (7) 
adg

>  <m_score__min__energy>  (7) 
-7.0999999999999996

>  <m_primary>  (7) 
energy

$$$$
7:0
     RDKit          3D

 51 53  0  0  0  0  0  0  0  0999 V2000
   56.2560   29.8150   42.6740 C   0  0  0  0  0  0  0  0  0  0  0  0
   55.8380   30.0100   44.1310 C   0  0  0  0  0  0  0  0  0  0  0  0
   56.9820   29.8370   45.0540 N   0  0  0  0  0  0  0  0  0  0  0  0
   57.0140   28.4670   45.6180 C   0  0  0  0  0  0  0  0  0  0  0  0
   58.0410   27.6130   44.8770 C   0  0  0  0  0  0  0  0  0  0  0  0
   58.2650   30.1740   44.3800 C   0  0  0  0  0  0  0  0  0  0  0  0
   58.8970   31.4130   45.0200 C   0  0  0  0  0  0  0  0  0  0  0  0
   58.8550   31.3520   46.4980 N   0  0  0  0  0  0  0  0  0  0  0  0
   58.2510   32.3510   47.2310 C   0  0  0  0  0  0  0  0  0  0  0  0
   57.4470   33.7680   46.4450 S   0  0  0  0  0  0  0  0  0  0  0  0
   58.9640   34.7390   46.1160 C   0  0  0  0  0  0  0  0  0  0  0  0
   60.1340   34.2830   46.9420 C   0  0  0  0  0  0  0  0  0  0  0  0
   60.1800   34.5640   48.3170 C   0  0  0  0  0  0  0  0  0  0  0  0
   61.2900   34.1830   49.0770 C   0  0  0  0  0  0  0  0  0  0  0  0
   62.3660   33.5290   48.4680 C   0  0  0  0  0  0  0  0  0  0  0  0
   63.8770   33.0020   49.5100 Br  0  0  0  0  0  0  0  0  0  0  0  0
   62.3260   33.2460   47.0990 C   0  0  0  0  0  0  0  0  0  0  0  0
   61.2140   33.6160   46.3390 C   0  0  0  0  0  0  0  0  0  0  0  0
   58.2990   32.3260   48.5870 N   0  0  0  0  0  0  0  0  0  0  0  0
   58.8760   31.3060   49.2630 C   0  0  0  0  0  0  0  0  0  0  0  0
   58.8720   31.3020   50.6620 C   0  0  0  0  0  0  0  0  0  0  0  0
   59.4590   30.2440   51.3600 C   0  0  0  0  0  0  0  0  0  0  0  0
   60.0530   29.1880   50.6630 C   0  0  0  0  0  0  0  0  0  0  0  0
   60.0640   29.1880   49.2640 C   0  0  0  0  0  0  0  0  0  0  0  0
   59.4730   30.2500   48.5530 C   0  0  0  0  0  0  0  0  0  0  0  0
   59.4670   30.3060   47.1500 C   0  0  0  0  0  0  0  0  0  0  0  0
   60.0400   29.3920   46.4920 O   0  0  0  0  0  0  0  0  0  0  0  0
   57.2523   29.3502   42.6374 H   0  0  0  0  0  0  0  0  0  0  0  0
   55.5286   29.1633   42.1679 H   0  0  0  0  0  0  0  0  0  0  0  0
   56.2880   30.7911   42.1679 H   0  0  0  0  0  0  0  0  0  0  0  0
   55.4313   31.0248   44.2529 H   0  0  0  0  0  0  0  0  0  0  0  0
   55.0805   29.2510   44.3761 H   0  0  0  0  0  0  0  0  0  0  0  0
   57.2856   28.5190   46.6827 H   0  0  0  0  0  0  0  0  0  0  0  0
   56.0199   28.0100   45.5049 H   0  0  0  0  0  0  0  0  0  0  0  0
   58.6744   27.0863   45.6060 H   0  0  0  0  0  0  0  0  0  0  0  0
   57.5199   26.8783   44.2457 H   0  0  0  0  0  0  0  0  0  0  0  0
   58.6684   28.2594   44.2457 H   0  0  0  0  0  0  0  0  0  0  0  0
   58.9576   29.3246   44.4743 H   0  0  0  0  0  0  0  0  0  0  0  0
   58.0652   30.3841   43.3189 H   0  0  0  0  0  0  0  0  0  0  0  0
   59.9459   31.4846   44.6966 H   0  0  0  0  0  0  0  0  0  0  0  0
   58.3222   32.2940   44.6984 H   0  0  0  0  0  0  0  0  0  0  0  0
   59.2233   34.6372   45.0519 H   0  0  0  0  0  0  0  0  0  0  0  0
   58.7544   35.7848   46.3849 H   0  0  0  0  0  0  0  0  0  0  0  0
   59.3396   35.0858   48.7980 H   0  0  0  0  0  0  0  0  0  0  0  0
   61.3171   34.3979   50.1555 H   0  0  0  0  0  0  0  0  0  0  0  0
   63.1718   32.7311   46.6199 H   0  0  0  0  0  0  0  0  0  0  0  0
   61.1835   33.3843   45.2641 H   0  0  0  0  0  0  0  0  0  0  0  0
   58.4063   32.1326   51.2127 H   0  0  0  0  0  0  0  0  0  0  0  0
   59.4538   30.2419   52.4600 H   0  0  0  0  0  0  0  0  0  0  0  0
   60.5127   28.3553   51.2155 H   0  0  0  0  0  0  0  0  0  0  0  0
   60.5351   28.3570   48.7186 H   0  0  0  0  0  0  0  0  0  0  0  0
  1  2  1  0
  2  3  1  0
  3  4  1  0
  4  5  1  0
  3  6  1  0
  6  7  1  0
  7  8  1  0
  8  9  1  0
  9 10  1  0
 10 11  1  0
 11 12  1  0
 12 13  2  0
 13 14  1  0
 14 15  2  0
 15 16  1  0
 15 17  1  0
 17 18  2  0
  9 19  2  0
 19 20  1  0
 20 21  2  0
 21 22  1  0
 22 23  2  0
 23 24  1  0
 24 25  2  0
 25 26  1  0
 26 27  2  0
 26  8  1  0
 18 12  1  0
 25 20  1  0
  1 28  1  0
  1 29  1  0
  1 30  1  0
  2 31  1  0
  2 32  1  0
  4 33  1  0
  4 34  1  0
  5 35  1  0
  5 36  1  0
  5 37  1  0
  6 38  1  0
  6 39  1  0
  7 40  1  0
  7 41  1  0
 11 42  1  0
 11 43  1  0
 13 44  1  0
 14 45  1  0
 17 46  1  0
 18 47  1  0
 21 48  1  0
 22 49  1  0
 23 50  1  0
 24 51  1  0
M  END
>  <UniqueID>  (8) 
7

>  <SMILES>  (8) 
CCN(CC)CCn1c(SCc2ccc(Br)cc2)nc2ccccc2c1=O

>  <Energy>  (8) 
54.32880280170219

>  <Genealogy>  (8) 
CCN(CC)CCn1c(SCc2ccc(Br)cc2)nc2ccccc2c1=O (3D coordinates assigned)
CCN(CC)CCn1c(SCc2ccc(Br)cc2)nc2ccccc2c1=O (optimized conformer: 54.32880280170219 kcal/mol)

>  <smiles>  (8) 
CCN(CC)CCn1c(SCc2ccc(Br)cc2)nc2ccccc2c1=O

>  <score_type>  (8) 
oracle

>  <origin>  (8) 
adg

>  <m_score__min__energy>  (8) 
-8.2200000000000006

>  <m_primary>  (8) 
energy

$$$$
8:0
     RDKit          3D

 55 57  0  0  0  0  0  0  0  0999 V2000
   56.5080   30.3380   43.0880 C   0  0  0  0  0  0  0  0  0  0  0  0
   56.1940   30.0670   44.4490 O   0  0  0  0  0  0  0  0  0  0  0  0
   57.0550   29.4180   45.3460 C   0  0  0  0  0  0  0  0  0  0  0  0
   57.9780   30.1900   46.0610 C   0  0  0  0  0  0  0  0  0  0  0  0
   58.8580   29.5900   46.9660 C   0  0  0  0  0  0  0  0  0  0  0  0
   58.8280   28.2010   47.1680 C   0  0  0  0  0  0  0  0  0  0  0  0
   59.7920   27.5450   48.1280 C   0  0  0  0  0  0  0  0  0  0  0  0
   60.8030   28.4920   48.6360 N   0  0  0  0  0  0  0  0  0  0  0  0
   60.3620   29.2500   49.8250 C   0  0  0  0  0  0  0  0  0  0  0  0
   60.5560   30.7690   49.6570 C   0  0  0  0  0  0  0  0  0  0  0  0
   61.6730   31.0450   48.7220 N   0  0  0  0  0  0  0  0  0  0  0  0
   61.2330   31.5090   47.3800 C   0  0  0  0  0  0  0  0  0  0  0  0
   61.7260   32.9240   47.0200 C   0  0  0  0  0  0  0  0  0  0  0  0
   61.6050   33.8590   48.1580 N   0  0  0  0  0  0  0  0  0  0  0  0
   60.2060   34.2470   48.4450 C   0  0  0  0  0  0  0  0  0  0  0  0
   59.3650   34.2060   47.1960 C   0  0  0  0  0  0  0  0  0  0  0  0
   58.2070   33.4120   47.1540 C   0  0  0  0  0  0  0  0  0  0  0  0
   57.4170   33.3800   46.0000 C   0  0  0  0  0  0  0  0  0  0  0  0
   57.7760   34.1410   44.8840 C   0  0  0  0  0  0  0  0  0  0  0  0
   58.9250   34.9360   44.9200 C   0  0  0  0  0  0  0  0  0  0  0  0
   59.7170   34.9710   46.0710 C   0  0  0  0  0  0  0  0  0  0  0  0
   62.3200   33.3830   49.3700 C   0  0  0  0  0  0  0  0  0  0  0  0
   62.7280   31.8950   49.3130 C   0  0  0  0  0  0  0  0  0  0  0  0
   57.9050   27.4240   46.4520 C   0  0  0  0  0  0  0  0  0  0  0  0
   57.0240   28.0240   45.5480 C   0  0  0  0  0  0  0  0  0  0  0  0
   57.3399   31.0560   43.0396 H   0  0  0  0  0  0  0  0  0  0  0  0
   56.8002   29.4038   42.5861 H   0  0  0  0  0  0  0  0  0  0  0  0
   55.6266   30.7637   42.5861 H   0  0  0  0  0  0  0  0  0  0  0  0
   58.0111   31.2790   45.9092 H   0  0  0  0  0  0  0  0  0  0  0  0
   59.5773   30.2088   47.5225 H   0  0  0  0  0  0  0  0  0  0  0  0
   59.2246   27.1418   48.9797 H   0  0  0  0  0  0  0  0  0  0  0  0
   60.3193   26.7470   47.5848 H   0  0  0  0  0  0  0  0  0  0  0  0
   61.6780   27.9630   48.8610 H   0  0  0  0  0  0  0  0  0  0  0  0
   61.0480   29.1700   47.8760 H   0  0  0  0  0  0  0  0  0  0  0  0
   59.2948   29.0470   49.9978 H   0  0  0  0  0  0  0  0  0  0  0  0
   60.9767   28.9252   50.6774 H   0  0  0  0  0  0  0  0  0  0  0  0
   59.6311   31.2110   49.2579 H   0  0  0  0  0  0  0  0  0  0  0  0
   60.7923   31.2100   50.6367 H   0  0  0  0  0  0  0  0  0  0  0  0
   61.6169   30.8056   46.6265 H   0  0  0  0  0  0  0  0  0  0  0  0
   60.1338   31.5471   47.3981 H   0  0  0  0  0  0  0  0  0  0  0  0
   62.7824   32.8660   46.7189 H   0  0  0  0  0  0  0  0  0  0  0  0
   61.0986   33.3039   46.2002 H   0  0  0  0  0  0  0  0  0  0  0  0
   59.7846   33.5506   49.1849 H   0  0  0  0  0  0  0  0  0  0  0  0
   60.2016   35.2753   48.8357 H   0  0  0  0  0  0  0  0  0  0  0  0
   57.9205   32.8135   48.0313 H   0  0  0  0  0  0  0  0  0  0  0  0
   56.5122   32.7552   45.9708 H   0  0  0  0  0  0  0  0  0  0  0  0
   57.1541   34.1142   43.9771 H   0  0  0  0  0  0  0  0  0  0  0  0
   59.2063   35.5349   44.0413 H   0  0  0  0  0  0  0  0  0  0  0  0
   60.6193   35.5997   46.0964 H   0  0  0  0  0  0  0  0  0  0  0  0
   63.2308   33.9871   49.4942 H   0  0  0  0  0  0  0  0  0  0  0  0
   61.6229   33.4904   50.2142 H   0  0  0  0  0  0  0  0  0  0  0  0
   63.6395   31.8015   48.7044 H   0  0  0  0  0  0  0  0  0  0  0  0
   62.8962   31.5530   50.3449 H   0  0  0  0  0  0  0  0  0  0  0  0
   57.8745   26.3349   46.6032 H   0  0  0  0  0  0  0  0  0  0  0  0
   56.3038   27.4056   44.9922 H   0  0  0  0  0  0  0  0  0  0  0  0
  1  2  1  0
  2  3  1  0
  3  4  2  0
  4  5  1  0
  5  6  2  0
  6  7  1  0
  7  8  1  0
  8  9  1  0
  9 10  1  0
 10 11  1  0
 11 12  1  0
 12 13  1  0
 13 14  1  0
 14 15  1  0
 15 16  1  0
 16 17  2  0
 17 18  1  0
 18 19  2  0
 19 20  1  0
 20 21  2  0
 14 22  1  0
 22 23  1  0
  6 24  1  0
 24 25  2  0
 25  3  1  0
 23 11  1  0
 21 16  1  0
  1 26  1  0
  1 27  1  0
  1 28  1  0
  4 29  1  0
  5 30  1  0
  7 31  1  0
  7 32  1  0
  8 33  1  0
  8 34  1  0
  9 35  1  0
  9 36  1  0
 10 37  1  0
 10 38  1  0
 12 39  1  0
 12 40  1  0
 13 41  1  0
 13 42  1  0
 15 43  1  0
 15 44  1  0
 17 45  1  0
 18 46  1  0
 19 47  1  0
 20 48  1  0
 21 49  1  0
 22 50  1  0
 22 51  1  0
 23 52  1  0
 23 53  1  0
 24 54  1  0
 25 55  1  0
M  CHG  1   8   1
M  END
>  <UniqueID>  (9) 
8

>  <SMILES>  (9) 
COc1ccc(C[NH2+]CCN2CCN(Cc3ccccc3)CC2)cc1

>  <Energy>  (9) 
72.53245581072375

>  <Genealogy>  (9) 
COc1ccc(C[NH2+]CCN2CCN(Cc3ccccc3)CC2)cc1 (protonated)
COc1ccc(C[NH2+]CCN2CCN(Cc3ccccc3)CC2)cc1 (3D coordinates assigned)
COc1ccc(C[NH2+]CCN2CCN(Cc3ccccc3)CC2)cc1 (nonaromatic ring conformer: 72.53245581072375 kcal/mol)

>  <smiles>  (9) 
COc1ccc(CNCCN2CCN(Cc3ccccc3)CC2)cc1

>  <score_type>  (9) 
oracle

>  <origin>  (9) 
adg

>  <m_score__min__energy>  (9) 
-5.9800000000000004

>  <m_primary>  (9) 
energy

$$$$
9:0
     RDKit          3D

 50 52  0  0  0  0  0  0  0  0999 V2000
   61.0550   28.7650   50.8090 C   0  0  0  0  0  0  0  0  0  0  0  0
   60.5200   28.6870   49.4920 O   0  0  0  0  0  0  0  0  0  0  0  0
   60.1860   29.7990   48.7050 C   0  0  0  0  0  0  0  0  0  0  0  0
   60.8930   30.1350   47.5340 C   0  0  0  0  0  0  0  0  0  0  0  0
   60.5220   31.2570   46.7840 C   0  0  0  0  0  0  0  0  0  0  0  0
   59.4470   32.0560   47.1950 C   0  0  0  0  0  0  0  0  0  0  0  0
   58.9710   33.4700   46.2590 S   0  0  0  0  0  0  0  0  0  0  0  0
   58.2700   34.4600   47.1470 O   0  0  0  0  0  0  0  0  0  0  0  0
   60.2100   34.1070   45.6950 O   0  0  0  0  0  0  0  0  0  0  0  0
   57.9060   32.9870   44.9620 N   0  0  0  0  0  0  0  0  0  0  0  0
   58.6460   32.9780   43.6910 C   0  0  0  0  0  0  0  0  0  0  0  0
   57.7190   32.5450   42.5520 C   0  0  0  0  0  0  0  0  0  0  0  0
   57.1620   31.2140   42.8270 N   0  0  0  0  0  0  0  0  0  0  0  0
   56.4240   31.2180   44.1010 C   0  0  1  0  0  0  0  0  0  0  0  0
   55.8720   29.8350   44.3620 C   0  0  0  0  0  0  0  0  0  0  0  0
   55.0250   29.3510   43.5650 O   0  0  0  0  0  0  0  0  0  0  0  0
   56.1790   29.1100   45.5610 N   0  0  0  0  0  0  0  0  0  0  0  0
   57.2120   28.1290   45.7260 C   0  0  0  0  0  0  0  0  0  0  0  0
   58.5690   28.4800   45.6200 C   0  0  0  0  0  0  0  0  0  0  0  0
   59.5610   27.5070   45.7500 C   0  0  0  0  0  0  0  0  0  0  0  0
   59.2100   26.1740   45.9650 C   0  0  0  0  0  0  0  0  0  0  0  0
   57.8640   25.8080   46.0400 C   0  0  0  0  0  0  0  0  0  0  0  0
   56.8530   26.7820   45.9150 C   0  0  0  0  0  0  0  0  0  0  0  0
   55.4890   26.4540   45.9780 O   0  0  0  0  0  0  0  0  0  0  0  0
   54.9530   25.1750   45.6590 C   0  0  0  0  0  0  0  0  0  0  0  0
   57.3630   31.6480   45.2430 C   0  0  0  0  0  0  0  0  0  0  0  0
   58.7390   31.7200   48.3560 C   0  0  0  0  0  0  0  0  0  0  0  0
   59.1100   30.6000   49.1060 C   0  0  0  0  0  0  0  0  0  0  0  0
   60.2434   28.6467   51.5420 H   0  0  0  0  0  0  0  0  0  0  0  0
   61.7970   27.9655   50.9513 H   0  0  0  0  0  0  0  0  0  0  0  0
   61.5379   29.7430   50.9513 H   0  0  0  0  0  0  0  0  0  0  0  0
   61.7398   29.5133   47.2077 H   0  0  0  0  0  0  0  0  0  0  0  0
   61.0763   31.5123   45.8688 H   0  0  0  0  0  0  0  0  0  0  0  0
   59.0297   33.9881   43.4851 H   0  0  0  0  0  0  0  0  0  0  0  0
   59.4845   32.2699   43.7649 H   0  0  0  0  0  0  0  0  0  0  0  0
   56.8971   33.2700   42.4573 H   0  0  0  0  0  0  0  0  0  0  0  0
   58.2958   32.5055   41.6162 H   0  0  0  0  0  0  0  0  0  0  0  0
   56.4890   30.9910   42.0570 H   0  0  0  0  0  0  0  0  0  0  0  0
   55.5892   31.9322   44.0461 H   0  0  0  0  0  0  0  0  0  0  0  0
   58.8505   29.5269   45.4336 H   0  0  0  0  0  0  0  0  0  0  0  0
   60.6214   27.7916   45.6828 H   0  0  0  0  0  0  0  0  0  0  0  0
   59.9940   25.4104   46.0756 H   0  0  0  0  0  0  0  0  0  0  0  0
   57.5917   24.7539   46.1975 H   0  0  0  0  0  0  0  0  0  0  0  0
   54.7250   24.6310   46.5875 H   0  0  0  0  0  0  0  0  0  0  0  0
   54.0315   25.2998   45.0715 H   0  0  0  0  0  0  0  0  0  0  0  0
   55.6882   24.6055   45.0715 H   0  0  0  0  0  0  0  0  0  0  0  0
   56.8014   31.6723   46.1885 H   0  0  0  0  0  0  0  0  0  0  0  0
   58.1914   30.9288   45.3235 H   0  0  0  0  0  0  0  0  0  0  0  0
   57.8888   32.3390   48.6785 H   0  0  0  0  0  0  0  0  0  0  0  0
   58.5517   30.3459   50.0191 H   0  0  0  0  0  0  0  0  0  0  0  0
  1  2  1  0
  2  3  1  0
  3  4  2  0
  4  5  1  0
  5  6  2  0
  6  7  1  0
  7  8  2  0
  7  9  2  0
  7 10  1  0
 10 11  1  0
 11 12  1  0
 12 13  1  0
 13 14  1  0
 14 15  1  0
 15 16  2  0
 15 17  1  0
 17 18  1  0
 18 19  2  0
 19 20  1  0
 20 21  2  0
 21 22  1  0
 22 23  2  0
 23 24  1  0
 24 25  1  0
 14 26  1  0
  6 27  1  0
 27 28  2  0
 28  3  1  0
 26 10  1  0
 23 18  1  0
  1 29  1  0
  1 30  1  0
  1 31  1  0
  4 32  1  0
  5 33  1  0
 11 34  1  0
 11 35  1  0
 12 36  1  0
 12 37  1  0
 13 38  1  0
 14 39  1  6
 19 40  1  0
 20 41  1  0
 21 42  1  0
 22 43  1  0
 25 44  1  0
 25 45  1  0
 25 46  1  0
 26 47  1  0
 26 48  1  0
 27 49  1  0
 28 50  1  0
M  CHG  1  17  -1
M  END
>  <UniqueID>  (10) 
9

>  <SMILES>  (10) 
COc1ccc(S(=O)(=O)N2CCN[C@@H](C(=O)[N-]c3ccccc3OC)C2)cc1

>  <Energy>  (10) 
52.69158417869

>  <Genealogy>  (10) 
COc1ccc(S(=O)(=O)N2CCNC(C(=O)[N-]c3ccccc3OC)C2)cc1 (protonated)
COc1ccc(S(=O)(=O)N2CCN[C@@H](C(=O)[N-]c3ccccc3OC)C2)cc1 (chirality)
COc1ccc(S(=O)(=O)N2CCN[C@@H](C(=O)[N-]c3ccccc3OC)C2)cc1 (3D coordinates assigned)
COc1ccc(S(=O)(=O)N2CCN[C@@H](C(=O)[N-]c3ccccc3OC)C2)cc1 (nonaromatic ring conformer: 52.69158417869 kcal/mol)

>  <smiles>  (10) 
COc1ccc(S(=O)(=O)N2CCNC(C(=O)Nc3ccccc3OC)C2)cc1

>  <score_type>  (10) 
oracle

>  <origin>  (10) 
adg

>  <m_score__min__energy>  (10) 
-10.6

>  <m_primary>  (10) 
energy

$$$$
10:0
     RDKit          3D

 43 44  0  0  0  0  0  0  0  0999 V2000
   57.7690   26.1030   43.9510 C   0  0  0  0  0  0  0  0  0  0  0  0
   58.3460   27.4690   43.5790 C   0  0  0  0  0  0  0  0  0  0  0  0
   57.4190   28.2120   42.7060 N   0  0  0  0  0  0  0  0  0  0  0  0
   56.8150   29.3800   43.3880 C   0  0  2  0  0  0  0  0  0  0  0  0
   57.7890   30.5900   43.4090 C   0  0  0  0  0  0  0  0  0  0  0  0
   57.4600   31.5550   44.5550 C   0  0  0  0  0  0  0  0  0  0  0  0
   57.5380   30.9160   45.8940 N   0  0  0  0  0  0  0  0  0  0  0  0
   59.0030   31.3640   46.7450 S   0  0  0  0  0  0  0  0  0  0  0  0
   58.8950   30.9850   48.1980 O   0  0  0  0  0  0  0  0  0  0  0  0
   60.1930   30.6600   46.1520 O   0  0  0  0  0  0  0  0  0  0  0  0
   59.2450   33.1340   46.6670 C   0  0  0  0  0  0  0  0  0  0  0  0
   60.5310   33.5380   47.3300 C   0  0  0  0  0  0  0  0  0  0  0  0
   60.5400   33.9310   48.6780 C   0  0  0  0  0  0  0  0  0  0  0  0
   61.7430   34.2660   49.3070 C   0  0  0  0  0  0  0  0  0  0  0  0
   62.9450   34.2030   48.5960 C   0  0  0  0  0  0  0  0  0  0  0  0
   62.9460   33.8080   47.2550 C   0  0  0  0  0  0  0  0  0  0  0  0
   61.7440   33.4740   46.6230 C   0  0  0  0  0  0  0  0  0  0  0  0
   57.3890   29.4440   45.8740 C   0  0  0  0  0  0  0  0  0  0  0  0
   56.3580   28.9910   44.8310 C   0  0  1  0  0  0  0  0  0  0  0  0
   55.1190   29.5830   45.1290 O   0  0  0  0  0  0  0  0  0  0  0  0
   57.7288   26.0079   45.0461 H   0  0  0  0  0  0  0  0  0  0  0  0
   56.7542   26.0086   43.5373 H   0  0  0  0  0  0  0  0  0  0  0  0
   58.4089   25.3097   43.5373 H   0  0  0  0  0  0  0  0  0  0  0  0
   58.5187   28.0492   44.4975 H   0  0  0  0  0  0  0  0  0  0  0  0
   59.2913   27.3155   43.0378 H   0  0  0  0  0  0  0  0  0  0  0  0
   56.6650   27.5700   42.3650 H   0  0  0  0  0  0  0  0  0  0  0  0
   57.9640   28.5530   41.8790 H   0  0  0  0  0  0  0  0  0  0  0  0
   55.9266   29.6894   42.8178 H   0  0  0  0  0  0  0  0  0  0  0  0
   58.8168   30.2196   43.5372 H   0  0  0  0  0  0  0  0  0  0  0  0
   57.6852   31.1339   42.4585 H   0  0  0  0  0  0  0  0  0  0  0  0
   58.1734   32.3918   44.5241 H   0  0  0  0  0  0  0  0  0  0  0  0
   56.4230   31.8931   44.4123 H   0  0  0  0  0  0  0  0  0  0  0  0
   59.2719   33.4460   45.6125 H   0  0  0  0  0  0  0  0  0  0  0  0
   58.4131   33.6222   47.1958 H   0  0  0  0  0  0  0  0  0  0  0  0
   59.5965   33.9755   49.2417 H   0  0  0  0  0  0  0  0  0  0  0  0
   61.7436   34.5792   50.3615 H   0  0  0  0  0  0  0  0  0  0  0  0
   63.8912   34.4646   49.0923 H   0  0  0  0  0  0  0  0  0  0  0  0
   63.8926   33.7599   46.6967 H   0  0  0  0  0  0  0  0  0  0  0  0
   61.7479   33.1601   45.5688 H   0  0  0  0  0  0  0  0  0  0  0  0
   58.3619   28.9906   45.6336 H   0  0  0  0  0  0  0  0  0  0  0  0
   57.0377   29.1218   46.8653 H   0  0  0  0  0  0  0  0  0  0  0  0
   56.2646   27.8956   44.8670 H   0  0  0  0  0  0  0  0  0  0  0  0
   55.2870   30.5540   45.2550 H   0  0  0  0  0  0  0  0  0  0  0  0
  1  2  1  0
  2  3  1  0
  3  4  1  0
  4  5  1  0
  5  6  1  0
  6  7  1  0
  7  8  1  0
  8  9  2  0
  8 10  2  0
  8 11  1  0
 11 12  1  0
 12 13  2  0
 13 14  1  0
 14 15  2  0
 15 16  1  0
 16 17  2  0
  7 18  1  0
 18 19  1  0
 19 20  1  0
 19  4  1  0
 17 12  1  0
  1 21  1  0
  1 22  1  0
  1 23  1  0
  2 24  1  0
  2 25  1  0
  3 26  1  0
  3 27  1  0
  4 28  1  6
  5 29  1  0
  5 30  1  0
  6 31  1  0
  6 32  1  0
 11 33  1  0
 11 34  1  0
 13 35  1  0
 14 36  1  0
 15 37  1  0
 16 38  1  0
 17 39  1  0
 18 40  1  0
 18 41  1  0
 19 42  1  6
 20 43  1  0
M  CHG  1   3   1
M  END
>  <UniqueID>  (11) 
10

>  <SMILES>  (11) 
CC[NH2+][C@@H]1CCN(S(=O)(=O)Cc2ccccc2)C[C@H]1O

>  <Energy>  (11) 
43.08387005750884

>  <Genealogy>  (11) 
CC[NH2+]C1CCN(S(=O)(=O)Cc2ccccc2)CC1O (protonated)
CC[NH2+][C@@H]1CCN(S(=O)(=O)Cc2ccccc2)C[C@H]1O (chirality)
CC[NH2+][C@@H]1CCN(S(=O)(=O)Cc2ccccc2)C[C@H]1O (3D coordinates assigned)
CC[NH2+][C@@H]1CCN(S(=O)(=O)Cc2ccccc2)C[C@H]1O (nonaromatic ring conformer: 43.08387005750884 kcal/mol)

>  <smiles>  (11) 
CCNC1CCN(S(=O)(=O)Cc2ccccc2)CC1O

>  <score_type>  (11) 
oracle

>  <origin>  (11) 
adg

>  <m_score__min__energy>  (11) 
-6.4000000000000004

>  <m_primary>  (11) 
energy

$$$$
11:0
     RDKit          3D

 44 47  0  0  1  0  0  0  0  0999 V2000
   59.8910   29.2060   44.8930 C   0  0  0  0  0  0  0  0  0  0  0  0
   59.9680   28.7710   46.3240 C   0  0  0  0  0  0  0  0  0  0  0  0
   60.0190   27.4110   46.5300 C   0  0  0  0  0  0  0  0  0  0  0  0
   60.0560   26.8700   47.7920 C   0  0  0  0  0  0  0  0  0  0  0  0
   60.0390   27.7530   48.8470 C   0  0  0  0  0  0  0  0  0  0  0  0
   59.9890   29.1160   48.6450 C   0  0  0  0  0  0  0  0  0  0  0  0
   59.9490   29.6940   47.3750 C   0  0  0  0  0  0  0  0  0  0  0  0
   60.0240   31.1120   47.1430 C   0  0  0  0  0  0  0  0  0  0  0  0
   58.9020   31.8550   46.9850 N   0  0  0  0  0  0  0  0  0  0  0  0
   58.9300   33.1930   46.8140 C   0  0  0  0  0  0  0  0  0  0  0  0
   57.8320   33.8860   46.6640 N   0  0  0  0  0  0  0  0  0  0  0  0
   57.2650   34.0290   45.3500 C   0  0  0  0  0  0  0  0  0  0  0  0
   58.2630   33.3750   44.3930 C   0  0  0  0  0  0  0  0  0  0  0  0
   57.6180   32.1280   43.9310 C   0  0  0  0  0  0  0  0  0  0  0  0
   57.0690   31.0940   44.6690 C   0  0  0  0  0  0  0  0  0  0  0  0
   56.5340   30.0560   44.0570 C   0  0  0  0  0  0  0  0  0  0  0  0
   56.5550   30.0620   42.6490 C   0  0  0  0  0  0  0  0  0  0  0  0
   57.3880   31.6460   42.2060 S   0  0  0  0  0  0  0  0  0  0  0  0
   60.0730   33.8970   46.7880 N   0  0  0  0  0  0  0  0  0  0  0  0
   61.2340   33.2120   46.9430 C   0  0  0  0  0  0  0  0  0  0  0  0
   62.3840   33.9630   46.9480 C   0  0  0  0  0  0  0  0  0  0  0  0
   63.5990   33.3430   47.1410 C   0  0  0  0  0  0  0  0  0  0  0  0
   63.5940   31.9870   47.3220 C   0  0  0  0  0  0  0  0  0  0  0  0
   62.4250   31.2250   47.3160 C   0  0  0  0  0  0  0  0  0  0  0  0
   61.2100   31.8400   47.1190 C   0  0  0  0  0  0  0  0  0  0  0  0
   59.6994   30.2883   44.8486 H   0  0  0  0  0  0  0  0  0  0  0  0
   60.8429   28.9812   44.3897 H   0  0  0  0  0  0  0  0  0  0  0  0
   59.0741   28.6681   44.3897 H   0  0  0  0  0  0  0  0  0  0  0  0
   60.0305   26.7385   45.6596 H   0  0  0  0  0  0  0  0  0  0  0  0
   60.0973   25.7824   47.9516 H   0  0  0  0  0  0  0  0  0  0  0  0
   60.0659   27.3627   49.8751 H   0  0  0  0  0  0  0  0  0  0  0  0
   59.9802   29.7775   49.5239 H   0  0  0  0  0  0  0  0  0  0  0  0
   57.9410   31.4310   46.9660 H   0  0  0  0  0  0  0  0  0  0  0  0
   56.2915   33.5198   45.2952 H   0  0  0  0  0  0  0  0  0  0  0  0
   57.0925   35.0852   45.0959 H   0  0  0  0  0  0  0  0  0  0  0  0
   58.4680   34.0391   43.5404 H   0  0  0  0  0  0  0  0  0  0  0  0
   59.2258   33.1749   44.8859 H   0  0  0  0  0  0  0  0  0  0  0  0
   57.0790   31.1382   45.7681 H   0  0  0  0  0  0  0  0  0  0  0  0
   56.0909   29.2222   44.6213 H   0  0  0  0  0  0  0  0  0  0  0  0
   56.1624   29.2939   41.9665 H   0  0  0  0  0  0  0  0  0  0  0  0
   62.3352   35.0518   46.7990 H   0  0  0  0  0  0  0  0  0  0  0  0
   64.5376   33.9165   47.1493 H   0  0  0  0  0  0  0  0  0  0  0  0
   64.5545   31.4744   47.4793 H   0  0  0  0  0  0  0  0  0  0  0  0
   62.4746   30.1367   47.4682 H   0  0  0  0  0  0  0  0  0  0  0  0
  1  2  1  0
  2  3  2  0
  3  4  1  0
  4  5  2  0
  5  6  1  0
  6  7  2  0
  7  8  1  0
  8  9  1  0
  9 10  1  0
 10 11  2  0
 11 12  1  0
 12 13  1  0
 13 14  1  0
 14 15  2  0
 15 16  1  0
 16 17  2  0
 17 18  1  0
 10 19  1  0
 19 20  2  0
 20 21  1  0
 21 22  2  0
 22 23  1  0
 23 24  2  0
 24 25  1  0
  7  2  1  0
 25  8  2  0
 18 14  1  0
 25 20  1  0
  1 26  1  0
  1 27  1  0
  1 28  1  0
  3 29  1  0
  4 30  1  0
  5 31  1  0
  6 32  1  0
  9 33  1  0
 12 34  1  0
 12 35  1  0
 13 36  1  0
 13 37  1  0
 15 38  1  0
 16 39  1  0
 17 40  1  0
 21 41  1  0
 22 42  1  0
 23 43  1  0
 24 44  1  0
M  END
>  <smiles>  (12) 
Cc1ccccc1-c1[nH]c(=NCCc2cccs2)nc2ccccc12

>  <score_type>  (12) 
oracle

>  <origin>  (12) 
adg

>  <m_score__min__energy>  (12) 
-8.4199999999999999

>  <m_primary>  (12) 
energy

$$$$
12:0
     RDKit          3D

 49 52  0  0  0  0  0  0  0  0999 V2000
   60.3930   27.7050   47.8970 C   0  0  0  0  0  0  0  0  0  0  0  0
   59.4890   28.4460   46.9710 C   0  0  0  0  0  0  0  0  0  0  0  0
   59.0500   27.9410   45.7980 N   0  0  0  0  0  0  0  0  0  0  0  0
   58.3020   28.8410   45.1010 C   0  0  0  0  0  0  0  0  0  0  0  0
   57.7650   28.4970   43.7470 C   0  0  0  0  0  0  0  0  0  0  0  0
   58.1450   30.0790   45.7340 C   0  0  0  0  0  0  0  0  0  0  0  0
   57.4190   31.2600   45.2390 C   0  0  0  0  0  0  0  0  0  0  0  0
   56.4110   31.0800   44.5040 O   0  0  0  0  0  0  0  0  0  0  0  0
   57.8550   32.6030   45.5370 N   0  0  0  0  0  0  0  0  0  0  0  0
   58.1820   33.4910   44.4090 C   0  0  0  0  0  0  0  0  0  0  0  0
   58.7420   34.8360   44.8730 C   0  0  0  0  0  0  0  0  0  0  0  0
   59.7690   34.6040   45.9760 C   0  0  0  0  0  0  0  0  0  0  0  0
   59.0880   34.0280   47.2290 C   0  0  2  0  0  0  0  0  0  0  0  0
   60.0930   33.4190   48.1850 C   0  0  0  0  0  0  0  0  0  0  0  0
   61.7590   33.5270   47.9600 S   0  0  0  0  0  0  0  0  0  0  0  0
   62.1310   32.6600   49.3510 C   0  0  0  0  0  0  0  0  0  0  0  0
   63.4940   32.3410   49.8060 C   0  0  0  0  0  0  0  0  0  0  0  0
   64.5990   33.0830   49.3560 C   0  0  0  0  0  0  0  0  0  0  0  0
   65.8780   32.7520   49.8110 C   0  0  0  0  0  0  0  0  0  0  0  0
   66.0450   31.6920   50.7040 C   0  0  0  0  0  0  0  0  0  0  0  0
   64.9270   30.9760   51.1310 C   0  0  0  0  0  0  0  0  0  0  0  0
   63.6890   31.3120   50.6770 N   0  0  0  0  0  0  0  0  0  0  0  0
   61.0090   32.2790   49.9990 N   0  0  0  0  0  0  0  0  0  0  0  0
   59.8730   32.7010   49.3740 C   0  0  0  0  0  0  0  0  0  0  0  0
   58.5330   32.3350   49.9290 C   0  0  0  0  0  0  0  0  0  0  0  0
   57.8910   33.0810   46.9330 C   0  0  0  0  0  0  0  0  0  0  0  0
   59.0060   30.0420   47.1800 S   0  0  0  0  0  0  0  0  0  0  0  0
   60.1172   27.9311   48.9376 H   0  0  0  0  0  0  0  0  0  0  0  0
   60.2949   26.6241   47.7182 H   0  0  0  0  0  0  0  0  0  0  0  0
   61.4337   28.0133   47.7182 H   0  0  0  0  0  0  0  0  0  0  0  0
   56.8434   27.9066   43.8572 H   0  0  0  0  0  0  0  0  0  0  0  0
   57.5440   29.4220   43.1943 H   0  0  0  0  0  0  0  0  0  0  0  0
   58.5129   27.9095   43.1943 H   0  0  0  0  0  0  0  0  0  0  0  0
   58.9317   32.9956   43.7745 H   0  0  0  0  0  0  0  0  0  0  0  0
   57.2525   33.6867   43.8543 H   0  0  0  0  0  0  0  0  0  0  0  0
   59.2230   35.3454   44.0250 H   0  0  0  0  0  0  0  0  0  0  0  0
   57.9234   35.4612   45.2589 H   0  0  0  0  0  0  0  0  0  0  0  0
   60.5306   33.8952   45.6190 H   0  0  0  0  0  0  0  0  0  0  0  0
   60.2387   35.5645   46.2344 H   0  0  0  0  0  0  0  0  0  0  0  0
   58.6320   34.8911   47.7361 H   0  0  0  0  0  0  0  0  0  0  0  0
   64.4586   33.9166   48.6522 H   0  0  0  0  0  0  0  0  0  0  0  0
   66.7512   33.3253   49.4664 H   0  0  0  0  0  0  0  0  0  0  0  0
   67.0482   31.4243   51.0671 H   0  0  0  0  0  0  0  0  0  0  0  0
   65.0460   30.1393   51.8351 H   0  0  0  0  0  0  0  0  0  0  0  0
   58.5757   32.3467   51.0281 H   0  0  0  0  0  0  0  0  0  0  0  0
   57.7823   33.0610   49.5835 H   0  0  0  0  0  0  0  0  0  0  0  0
   58.2556   31.3282   49.5835 H   0  0  0  0  0  0  0  0  0  0  0  0
   57.9634   32.2084   47.5989 H   0  0  0  0  0  0  0  0  0  0  0  0
   56.9699   33.6577   47.1034 H   0  0  0  0  0  0  0  0  0  0  0  0
  1  2  1  0
  2  3  2  0
  3  4  1  0
  4  5  1  0
  4  6  2  0
  6  7  1  0
  7  8  2  0
  7  9  1  0
  9 10  1  0
 10 11  1  0
 11 12  1  0
 12 13  1  0
 13 14  1  0
 14 15  1  0
 15 16  1  0
 16 17  1  0
 17 18  2  0
 18 19  1  0
 19 20  2  0
 20 21  1  0
 21 22  2  0
 16 23  2  0
 23 24  1  0
 24 25  1  0
 13 26  1  0
  6 27  1  0
 27  2  1  0
 26  9  1  0
 24 14  2  0
 22 17  1  0
  1 28  1  0
  1 29  1  0
  1 30  1  0
  5 31  1  0
  5 32  1  0
  5 33  1  0
 10 34  1  0
 10 35  1  0
 11 36  1  0
 11 37  1  0
 12 38  1  0
 12 39  1  0
 13 40  1  1
 18 41  1  0
 19 42  1  0
 20 43  1  0
 21 44  1  0
 25 45  1  0
 25 46  1  0
 25 47  1  0
 26 48  1  0
 26 49  1  0
M  END
>  <UniqueID>  (13) 
11

>  <SMILES>  (13) 
Cc1nc(C)c(C(=O)N2CCC[C@H](c3sc(-c4ccccn4)nc3C)C2)s1

>  <Energy>  (13) 
117.04687325614303

>  <Genealogy>  (13) 
Cc1nc(C)c(C(=O)N2CCC[C@H](c3sc(-c4ccccn4)nc3C)C2)s1 (chirality)
Cc1nc(C)c(C(=O)N2CCC[C@H](c3sc(-c4ccccn4)nc3C)C2)s1 (3D coordinates assigned)
Cc1nc(C)c(C(=O)N2CCC[C@H](c3sc(-c4ccccn4)nc3C)C2)s1 (nonaromatic ring conformer: 117.04687325614303 kcal/mol)

>  <smiles>  (13) 
Cc1nc(C)c(C(=O)N2CCCC(c3sc(-c4ccccn4)nc3C)C2)s1

>  <score_type>  (13) 
oracle

>  <origin>  (13) 
adg

>  <m_score__min__energy>  (13) 
-8.8800000000000008

>  <m_primary>  (13) 
energy

$$$$
13:0
     RDKit          3D

 49 50  0  0  0  0  0  0  0  0999 V2000
   59.0800   32.7150   49.6280 C   0  0  0  0  0  0  0  0  0  0  0  0
   59.6400   33.9610   48.9540 C   0  0  0  0  0  0  0  0  0  0  0  0
   59.8420   33.7220   47.5200 N   0  0  0  0  0  0  0  0  0  0  0  0
   59.1720   34.5670   46.5200 C   0  0  0  0  0  0  0  0  0  0  0  0
   59.6430   34.2550   45.0930 C   0  0  0  0  0  0  0  0  0  0  0  0
   58.5090   33.8480   44.2560 N   0  0  0  0  0  0  0  0  0  0  0  0
   57.2450   34.2120   44.8970 C   0  0  0  0  0  0  0  0  0  0  0  0
   60.3020   32.4250   47.1130 C   0  0  0  0  0  0  0  0  0  0  0  0
   59.5320   31.4300   46.5500 C   0  0  0  0  0  0  0  0  0  0  0  0
   58.1900   31.3640   46.1990 C   0  0  0  0  0  0  0  0  0  0  0  0
   57.7180   30.1590   45.6180 C   0  0  0  0  0  0  0  0  0  0  0  0
   56.3780   30.0010   45.2330 O   0  0  0  0  0  0  0  0  0  0  0  0
   55.9090   30.1000   43.8920 C   0  0  0  0  0  0  0  0  0  0  0  0
   58.6080   29.0710   45.4120 C   0  0  0  0  0  0  0  0  0  0  0  0
   58.0990   27.8980   44.8340 O   0  0  0  0  0  0  0  0  0  0  0  0
   58.1860   27.5800   43.4480 C   0  0  0  0  0  0  0  0  0  0  0  0
   59.9720   29.1880   45.7860 C   0  0  0  0  0  0  0  0  0  0  0  0
   60.3920   30.3850   46.3530 C   0  0  0  0  0  0  0  0  0  0  0  0
   61.6260   30.7210   46.7730 N   0  0  0  0  0  0  0  0  0  0  0  0
   61.5710   31.9640   47.2410 N   0  0  0  0  0  0  0  0  0  0  0  0
   62.7330   32.6970   47.7400 C   0  0  0  0  0  0  0  0  0  0  0  0
   63.1410   33.7740   46.7430 C   0  0  0  0  0  0  0  0  0  0  0  0
   59.1333   32.8336   50.7203 H   0  0  0  0  0  0  0  0  0  0  0  0
   58.0319   32.5740   49.3252 H   0  0  0  0  0  0  0  0  0  0  0  0
   59.6704   31.8376   49.3252 H   0  0  0  0  0  0  0  0  0  0  0  0
   58.9329   34.7931   49.0864 H   0  0  0  0  0  0  0  0  0  0  0  0
   60.6080   34.2098   49.4134 H   0  0  0  0  0  0  0  0  0  0  0  0
   58.0870   34.3964   46.5809 H   0  0  0  0  0  0  0  0  0  0  0  0
   59.4236   35.6153   46.7386 H   0  0  0  0  0  0  0  0  0  0  0  0
   60.1082   35.1531   44.6607 H   0  0  0  0  0  0  0  0  0  0  0  0
   60.3716   33.4317   45.1304 H   0  0  0  0  0  0  0  0  0  0  0  0
   58.5270   32.8050   44.1740 H   0  0  0  0  0  0  0  0  0  0  0  0
   57.3648   34.1775   45.9899 H   0  0  0  0  0  0  0  0  0  0  0  0
   56.9585   35.2291   44.5915 H   0  0  0  0  0  0  0  0  0  0  0  0
   56.4614   33.5030   44.5915 H   0  0  0  0  0  0  0  0  0  0  0  0
   57.5159   32.2171   46.3658 H   0  0  0  0  0  0  0  0  0  0  0  0
   54.8327   30.3272   43.8958 H   0  0  0  0  0  0  0  0  0  0  0  0
   56.4515   30.9034   43.3722 H   0  0  0  0  0  0  0  0  0  0  0  0
   56.0805   29.1459   43.3722 H   0  0  0  0  0  0  0  0  0  0  0  0
   58.4746   26.5250   43.3313 H   0  0  0  0  0  0  0  0  0  0  0  0
   57.2090   27.7477   42.9713 H   0  0  0  0  0  0  0  0  0  0  0  0
   58.9416   28.2218   42.9713 H   0  0  0  0  0  0  0  0  0  0  0  0
   60.6753   28.3564   45.6317 H   0  0  0  0  0  0  0  0  0  0  0  0
   62.4840   30.1270   46.7360 H   0  0  0  0  0  0  0  0  0  0  0  0
   62.4805   33.1682   48.7014 H   0  0  0  0  0  0  0  0  0  0  0  0
   63.5699   31.9960   47.8749 H   0  0  0  0  0  0  0  0  0  0  0  0
   63.4797   34.6680   47.2871 H   0  0  0  0  0  0  0  0  0  0  0  0
   63.9589   33.3977   46.1110 H   0  0  0  0  0  0  0  0  0  0  0  0
   62.2791   34.0340   46.1110 H   0  0  0  0  0  0  0  0  0  0  0  0
  1  2  1  0
  2  3  1  0
  3  4  1  0
  4  5  1  0
  5  6  1  0
  6  7  1  0
  3  8  1  0
  8  9  2  0
  9 10  1  0
 10 11  2  0
 11 12  1  0
 12 13  1  0
 11 14  1  0
 14 15  1  0
 15 16  1  0
 14 17  2  0
 17 18  1  0
 18 19  2  0
 19 20  1  0
 20 21  1  0
 21 22  1  0
 20  8  1  0
 18  9  1  0
  1 23  1  0
  1 24  1  0
  1 25  1  0
  2 26  1  0
  2 27  1  0
  4 28  1  0
  4 29  1  0
  5 30  1  0
  5 31  1  0
  6 32  1  0
  7 33  1  0
  7 34  1  0
  7 35  1  0
 10 36  1  0
 13 37  1  0
 13 38  1  0
 13 39  1  0
 16 40  1  0
 16 41  1  0
 16 42  1  0
 17 43  1  0
 19 44  1  0
 21 45  1  0
 21 46  1  0
 22 47  1  0
 22 48  1  0
 22 49  1  0
M  CHG  1  19   1
M  END
>  <UniqueID>  (14) 
12

>  <SMILES>  (14) 
CCN(CCNC)c1c2cc(OC)c(OC)cc2[nH+]n1CC

>  <Energy>  (14) 
79.62643328774801

>  <Genealogy>  (14) 
CCN(CCNC)c1c2cc(OC)c(OC)cc2[nH+]n1CC (protonated)
CCN(CCNC)c1c2cc(OC)c(OC)cc2[nH+]n1CC (3D coordinates assigned)
CCN(CCNC)c1c2cc(OC)c(OC)cc2[nH+]n1CC (optimized conformer: 79.62643328774801 kcal/mol)

>  <smiles>  (14) 
CCN(CCNC)c1c2cc(OC)c(OC)cc2nn1CC

>  <score_type>  (14) 
oracle

>  <origin>  (14) 
adg

>  <m_score__min__energy>  (14) 
-4.6500000000000004

>  <m_primary>  (14) 
energy

$$$$
14:0
     RDKit          3D

 49 51  0  0  0  0  0  0  0  0999 V2000
   63.7670   33.3660   47.0070 C   0  0  0  0  0  0  0  0  0  0  0  0
   63.6130   33.6520   48.4970 C   0  0  0  0  0  0  0  0  0  0  0  0
   63.4970   32.3970   49.2530 N   0  0  0  0  0  0  0  0  0  0  0  0
   64.6270   31.9040   50.0530 C   0  0  0  0  0  0  0  0  0  0  0  0
   65.7470   32.9390   50.0900 C   0  0  0  0  0  0  0  0  0  0  0  0
   62.2670   31.6470   49.2130 C   0  0  0  0  0  0  0  0  0  0  0  0
   61.8790   30.8620   50.3100 C   0  0  0  0  0  0  0  0  0  0  0  0
   60.6920   30.1280   50.2670 C   0  0  0  0  0  0  0  0  0  0  0  0
   59.8770   30.1770   49.1340 C   0  0  0  0  0  0  0  0  0  0  0  0
   60.2400   30.9750   48.0370 C   0  0  0  0  0  0  0  0  0  0  0  0
   59.4010   31.0100   46.8210 C   0  0  0  0  0  0  0  0  0  0  0  0
   58.9750   29.8260   46.3160 N   0  0  0  0  0  0  0  0  0  0  0  0
   58.1870   29.7480   45.2450 N   0  0  0  0  0  0  0  0  0  0  0  0
   57.7590   30.8580   44.5820 C   0  0  0  0  0  0  0  0  0  0  0  0
   56.8400   30.6710   43.3900 C   0  0  0  0  0  0  0  0  0  0  0  0
   55.5020   30.0470   43.8010 C   0  0  0  0  0  0  0  0  0  0  0  0
   55.6910   29.0820   44.8810 N   0  0  0  0  0  0  0  0  0  0  0  0
   58.1640   32.1330   45.0480 C   0  0  0  0  0  0  0  0  0  0  0  0
   57.7540   33.3320   44.4200 C   0  0  0  0  0  0  0  0  0  0  0  0
   58.2050   34.5680   44.8840 C   0  0  0  0  0  0  0  0  0  0  0  0
   59.0720   34.6350   45.9700 C   0  0  0  0  0  0  0  0  0  0  0  0
   59.4830   33.4690   46.6130 C   0  0  0  0  0  0  0  0  0  0  0  0
   59.0170   32.2080   46.1800 C   0  0  0  0  0  0  0  0  0  0  0  0
   61.4450   31.6930   48.0750 C   0  0  0  0  0  0  0  0  0  0  0  0
   64.2844   32.4051   46.8697 H   0  0  0  0  0  0  0  0  0  0  0  0
   62.7730   33.3175   46.5383 H   0  0  0  0  0  0  0  0  0  0  0  0
   64.3546   34.1691   46.5383 H   0  0  0  0  0  0  0  0  0  0  0  0
   64.4933   34.2081   48.8517 H   0  0  0  0  0  0  0  0  0  0  0  0
   62.7007   34.2465   48.6526 H   0  0  0  0  0  0  0  0  0  0  0  0
   64.2844   31.7045   51.0791 H   0  0  0  0  0  0  0  0  0  0  0  0
   65.0110   30.9804   49.5952 H   0  0  0  0  0  0  0  0  0  0  0  0
   65.9977   33.1707   51.1357 H   0  0  0  0  0  0  0  0  0  0  0  0
   66.6350   32.5367   49.5805 H   0  0  0  0  0  0  0  0  0  0  0  0
   65.4159   33.8559   49.5805 H   0  0  0  0  0  0  0  0  0  0  0  0
   62.5132   30.8249   51.2080 H   0  0  0  0  0  0  0  0  0  0  0  0
   60.3980   29.5095   51.1278 H   0  0  0  0  0  0  0  0  0  0  0  0
   58.9481   29.5888   49.1008 H   0  0  0  0  0  0  0  0  0  0  0  0
   57.8930   28.7990   44.9220 H   0  0  0  0  0  0  0  0  0  0  0  0
   56.6499   31.6513   42.9287 H   0  0  0  0  0  0  0  0  0  0  0  0
   57.3326   29.9911   42.6794 H   0  0  0  0  0  0  0  0  0  0  0  0
   54.8227   30.8421   44.1423 H   0  0  0  0  0  0  0  0  0  0  0  0
   55.0740   29.5253   42.9323 H   0  0  0  0  0  0  0  0  0  0  0  0
   54.7730   28.9690   45.3690 H   0  0  0  0  0  0  0  0  0  0  0  0
   55.9170   28.1540   44.4560 H   0  0  0  0  0  0  0  0  0  0  0  0
   57.0729   33.2896   43.5573 H   0  0  0  0  0  0  0  0  0  0  0  0
   57.8739   35.4930   44.3893 H   0  0  0  0  0  0  0  0  0  0  0  0
   59.4344   35.6120   46.3224 H   0  0  0  0  0  0  0  0  0  0  0  0
   60.1761   33.5312   47.4649 H   0  0  0  0  0  0  0  0  0  0  0  0
   61.7482   32.2966   47.2068 H   0  0  0  0  0  0  0  0  0  0  0  0
  1  2  1  0
  2  3  1  0
  3  4  1  0
  4  5  1  0
  3  6  1  0
  6  7  2  0
  7  8  1  0
  8  9  2  0
  9 10  1  0
 10 11  1  0
 11 12  2  0
 12 13  1  0
 13 14  2  0
 14 15  1  0
 15 16  1  0
 16 17  1  0
 14 18  1  0
 18 19  2  0
 19 20  1  0
 20 21  2  0
 21 22  1  0
 22 23  2  0
 10 24  2  0
 24  6  1  0
 23 11  1  0
 23 18  1  0
  1 25  1  0
  1 26  1  0
  1 27  1  0
  2 28  1  0
  2 29  1  0
  4 30  1  0
  4 31  1  0
  5 32  1  0
  5 33  1  0
  5 34  1  0
  7 35  1  0
  8 36  1  0
  9 37  1  0
 13 38  1  0
 15 39  1  0
 15 40  1  0
 16 41  1  0
 16 42  1  0
 17 43  1  0
 17 44  1  0
 19 45  1  0
 20 46  1  0
 21 47  1  0
 22 48  1  0
 24 49  1  0
M  CHG  1  13   1
M  END
>  <UniqueID>  (15) 
13

>  <SMILES>  (15) 
CCN(CC)c1cccc(-c2n[nH+]c(CCN)c3ccccc23)c1

>  <Energy>  (15) 
58.80222620145445

>  <Genealogy>  (15) 
CCN(CC)c1cccc(-c2n[nH+]c(CCN)c3ccccc23)c1 (protonated)
CCN(CC)c1cccc(-c2n[nH+]c(CCN)c3ccccc23)c1 (3D coordinates assigned)
CCN(CC)c1cccc(-c2n[nH+]c(CCN)c3ccccc23)c1 (optimized conformer: 58.80222620145445 kcal/mol)

>  <smiles>  (15) 
CCN(CC)c1cccc(-c2nnc(CCN)c3ccccc23)c1

>  <score_type>  (15) 
oracle

>  <origin>  (15) 
adg

>  <m_score__min__energy>  (15) 
-7.6500000000000004

>  <m_primary>  (15) 
energy

$$$$
15:0
     RDKit          3D

 36 38  0  0  0  0  0  0  0  0999 V2000
   61.1450   28.0960   45.2270 C   0  0  0  0  0  0  0  0  0  0  0  0
   59.7900   28.4150   44.7810 N   0  0  0  0  0  0  0  0  0  0  0  0
   59.1990   27.8320   43.7510 N   0  0  0  0  0  0  0  0  0  0  0  0
   57.9640   28.3450   43.6060 C   0  0  0  0  0  0  0  0  0  0  0  0
   57.7560   29.2910   44.5960 C   0  0  0  0  0  0  0  0  0  0  0  0
   56.5100   30.0420   44.8260 C   0  0  0  0  0  0  0  0  0  0  0  0
   55.4850   29.4500   45.2580 O   0  0  0  0  0  0  0  0  0  0  0  0
   56.4540   31.4340   44.4870 N   0  0  0  0  0  0  0  0  0  0  0  0
   57.3620   32.4550   44.9230 C   0  0  0  0  0  0  0  0  0  0  0  0
   58.3990   32.9360   44.1000 C   0  0  0  0  0  0  0  0  0  0  0  0
   59.2480   33.9490   44.5580 C   0  0  0  0  0  0  0  0  0  0  0  0
   59.0620   34.4970   45.8300 C   0  0  0  0  0  0  0  0  0  0  0  0
   58.0220   34.0410   46.6420 C   0  0  0  0  0  0  0  0  0  0  0  0
   57.1710   33.0280   46.1870 C   0  0  0  0  0  0  0  0  0  0  0  0
   58.9370   29.3080   45.3320 C   0  0  0  0  0  0  0  0  0  0  0  0
   59.2520   30.1740   46.4870 C   0  0  0  0  0  0  0  0  0  0  0  0
   60.1900   31.2100   46.3610 C   0  0  0  0  0  0  0  0  0  0  0  0
   60.4780   32.0350   47.4530 C   0  0  0  0  0  0  0  0  0  0  0  0
   59.8290   31.8330   48.6750 C   0  0  0  0  0  0  0  0  0  0  0  0
   58.8910   30.8050   48.8050 C   0  0  0  0  0  0  0  0  0  0  0  0
   58.6000   29.9780   47.7160 C   0  0  0  0  0  0  0  0  0  0  0  0
   61.1769   28.0885   46.3265 H   0  0  0  0  0  0  0  0  0  0  0  0
   61.4331   27.1055   44.8451 H   0  0  0  0  0  0  0  0  0  0  0  0
   61.8447   28.8540   44.8451 H   0  0  0  0  0  0  0  0  0  0  0  0
   59.6300   27.0930   43.1520 H   0  0  0  0  0  0  0  0  0  0  0  0
   57.2389   28.0602   42.8293 H   0  0  0  0  0  0  0  0  0  0  0  0
   58.5416   32.5138   43.0943 H   0  0  0  0  0  0  0  0  0  0  0  0
   60.0630   34.3147   43.9161 H   0  0  0  0  0  0  0  0  0  0  0  0
   59.7354   35.2881   46.1916 H   0  0  0  0  0  0  0  0  0  0  0  0
   57.8715   34.4784   47.6400 H   0  0  0  0  0  0  0  0  0  0  0  0
   56.3464   32.6791   46.8260 H   0  0  0  0  0  0  0  0  0  0  0  0
   60.7004   31.3738   45.4004 H   0  0  0  0  0  0  0  0  0  0  0  0
   61.2162   32.8440   47.3504 H   0  0  0  0  0  0  0  0  0  0  0  0
   60.0565   32.4825   49.5331 H   0  0  0  0  0  0  0  0  0  0  0  0
   58.3806   30.6463   49.7664 H   0  0  0  0  0  0  0  0  0  0  0  0
   57.8589   29.1720   47.8216 H   0  0  0  0  0  0  0  0  0  0  0  0
  1  2  1  0
  2  3  1  0
  3  4  2  0
  4  5  1  0
  5  6  1  0
  6  7  2  0
  6  8  1  0
  8  9  1  0
  9 10  2  0
 10 11  1  0
 11 12  2  0
 12 13  1  0
 13 14  2  0
  5 15  2  0
 15 16  1  0
 16 17  2  0
 17 18  1  0
 18 19  2  0
 19 20  1  0
 20 21  2  0
 15  2  1  0
 21 16  1  0
 14  9  1  0
  1 22  1  0
  1 23  1  0
  1 24  1  0
  3 25  1  0
  4 26  1  0
 10 27  1  0
 11 28  1  0
 12 29  1  0
 13 30  1  0
 14 31  1  0
 17 32  1  0
 18 33  1  0
 19 34  1  0
 20 35  1  0
 21 36  1  0
M  CHG  2   3   1   8  -1
M  END
>  <UniqueID>  (16) 
14

>  <SMILES>  (16) 
Cn1[nH+]cc(C(=O)[N-]c2ccccc2)c1-c1ccccc1

>  <Energy>  (16) 
78.31483337399051

>  <Genealogy>  (16) 
Cn1[nH+]cc(C(=O)[N-]c2ccccc2)c1-c1ccccc1 (protonated)
Cn1[nH+]cc(C(=O)[N-]c2ccccc2)c1-c1ccccc1 (3D coordinates assigned)
Cn1[nH+]cc(C(=O)[N-]c2ccccc2)c1-c1ccccc1 (optimized conformer: 78.31483337399051 kcal/mol)

>  <smiles>  (16) 
Cn1ncc(C(=O)Nc2ccccc2)c1-c1ccccc1

>  <score_type>  (16) 
oracle

>  <origin>  (16) 
adg

>  <m_score__min__energy>  (16) 
-7.3399999999999999

>  <m_primary>  (16) 
energy

$$$$
16:0
     RDKit          3D

 42 43  0  0  0  0  0  0  0  0999 V2000
   55.7480   26.5250   46.0630 O   0  0  0  0  0  0  0  0  0  0  0  0
   56.4270   27.4710   45.5760 C   0  0  0  0  0  0  0  0  0  0  0  0
   57.8720   27.2650   45.2530 C   0  0  0  0  0  0  0  0  0  0  0  0
   58.7100   28.2320   46.0450 C   0  0  0  0  0  0  0  0  0  0  0  0
   58.4610   28.4310   47.4130 C   0  0  0  0  0  0  0  0  0  0  0  0
   59.1950   29.3790   48.1320 C   0  0  0  0  0  0  0  0  0  0  0  0
   60.1790   30.1390   47.4910 C   0  0  0  0  0  0  0  0  0  0  0  0
   61.0940   31.3320   48.3970 Cl  0  0  0  0  0  0  0  0  0  0  0  0
   60.4290   29.9470   46.1290 C   0  0  0  0  0  0  0  0  0  0  0  0
   59.6950   29.0030   45.4050 C   0  0  0  0  0  0  0  0  0  0  0  0
   55.8110   28.7250   45.2690 N   0  0  0  0  0  0  0  0  0  0  0  0
   56.2170   29.5600   44.1490 C   0  0  0  0  0  0  0  0  0  0  0  0
   55.9820   31.0320   44.4760 C   0  0  0  0  0  0  0  0  0  0  0  0
   57.2260   31.6420   45.0030 N   0  0  0  0  0  0  0  0  0  0  0  0
   58.1790   31.9540   43.9150 C   0  0  0  0  0  0  0  0  0  0  0  0
   58.5310   33.4510   43.8100 C   0  0  0  0  0  0  0  0  0  0  0  0
   59.5260   33.9910   44.8680 C   0  0  0  0  0  0  0  0  0  0  0  0
   59.5210   33.2460   46.2130 C   0  0  0  0  0  0  0  0  0  0  0  0
   58.1310   33.1050   46.8830 C   0  0  0  0  0  0  0  0  0  0  0  0
   56.9550   32.7570   45.9450 C   0  0  0  0  0  0  0  0  0  0  0  0
   58.1611   26.2351   45.5094 H   0  0  0  0  0  0  0  0  0  0  0  0
   58.0339   27.4367   44.1786 H   0  0  0  0  0  0  0  0  0  0  0  0
   57.6854   27.8386   47.9205 H   0  0  0  0  0  0  0  0  0  0  0  0
   58.9983   29.5276   49.2040 H   0  0  0  0  0  0  0  0  0  0  0  0
   61.2060   30.5408   45.6253 H   0  0  0  0  0  0  0  0  0  0  0  0
   59.8891   28.8634   44.3313 H   0  0  0  0  0  0  0  0  0  0  0  0
   57.2859   29.3994   43.9449 H   0  0  0  0  0  0  0  0  0  0  0  0
   55.6208   29.2893   43.2651 H   0  0  0  0  0  0  0  0  0  0  0  0
   55.6750   31.5630   43.5629 H   0  0  0  0  0  0  0  0  0  0  0  0
   55.1923   31.1098   45.2378 H   0  0  0  0  0  0  0  0  0  0  0  0
   59.1068   31.3908   44.0939 H   0  0  0  0  0  0  0  0  0  0  0  0
   57.6920   31.6712   42.9701 H   0  0  0  0  0  0  0  0  0  0  0  0
   58.9694   33.6247   42.8162 H   0  0  0  0  0  0  0  0  0  0  0  0
   57.5887   33.9902   43.9869 H   0  0  0  0  0  0  0  0  0  0  0  0
   60.5398   33.9250   44.4464 H   0  0  0  0  0  0  0  0  0  0  0  0
   59.2075   35.0205   45.0886 H   0  0  0  0  0  0  0  0  0  0  0  0
   59.9215   32.2356   46.0440 H   0  0  0  0  0  0  0  0  0  0  0  0
   60.1313   33.8509   46.8997 H   0  0  0  0  0  0  0  0  0  0  0  0
   58.2025   32.3107   47.6406 H   0  0  0  0  0  0  0  0  0  0  0  0
   57.8982   34.0997   47.2908 H   0  0  0  0  0  0  0  0  0  0  0  0
   56.0909   32.4791   46.5664 H   0  0  0  0  0  0  0  0  0  0  0  0
   56.7730   33.6495   45.3282 H   0  0  0  0  0  0  0  0  0  0  0  0
  1  2  2  0
  2  3  1  0
  3  4  1  0
  4  5  2  0
  5  6  1  0
  6  7  2  0
  7  8  1  0
  7  9  1  0
  9 10  2  0
  2 11  1  0
 11 12  1  0
 12 13  1  0
 13 14  1  0
 14 15  1  0
 15 16  1  0
 16 17  1  0
 17 18  1  0
 18 19  1  0
 19 20  1  0
 10  4  1  0
 20 14  1  0
  3 21  1  0
  3 22  1  0
  5 23  1  0
  6 24  1  0
  9 25  1  0
 10 26  1  0
 12 27  1  0
 12 28  1  0
 13 29  1  0
 13 30  1  0
 15 31  1  0
 15 32  1  0
 16 33  1  0
 16 34  1  0
 17 35  1  0
 17 36  1  0
 18 37  1  0
 18 38  1  0
 19 39  1  0
 19 40  1  0
 20 41  1  0
 20 42  1  0
M  CHG  1  11  -1
M  END
>  <UniqueID>  (17) 
15

>  <SMILES>  (17) 
O=C(Cc1ccc(Cl)cc1)[N-]CCN1CCCCCC1

>  <Energy>  (17) 
49.367174295147436

>  <Genealogy>  (17) 
O=C(Cc1ccc(Cl)cc1)[N-]CCN1CCCCCC1 (protonated)
O=C(Cc1ccc(Cl)cc1)[N-]CCN1CCCCCC1 (3D coordinates assigned)
O=C(Cc1ccc(Cl)cc1)[N-]CCN1CCCCCC1 (nonaromatic ring conformer: 49.367174295147436 kcal/mol)

>  <smiles>  (17) 
O=C(Cc1ccc(Cl)cc1)NCCN1CCCCCC1

>  <score_type>  (17) 
oracle

>  <origin>  (17) 
adg

>  <m_score__min__energy>  (17) 
-7.0199999999999996

>  <m_primary>  (17) 
energy

$$$$
17:0
     RDKit          3D

 31 33  0  0  0  0  0  0  0  0999 V2000
   58.7030   22.9060   45.1090 C   0  0  0  0  0  0  0  0  0  0  0  0
   58.6290   23.9310   46.0950 O   0  0  0  0  0  0  0  0  0  0  0  0
   58.3200   25.2720   45.8200 C   0  0  0  0  0  0  0  0  0  0  0  0
   58.2170   26.2460   46.8310 C   0  0  0  0  0  0  0  0  0  0  0  0
   57.9050   27.5690   46.5060 C   0  0  0  0  0  0  0  0  0  0  0  0
   57.6910   27.9440   45.1690 C   0  0  0  0  0  0  0  0  0  0  0  0
   57.3630   29.3440   44.8250 C   0  0  0  0  0  0  0  0  0  0  0  0
   56.1150   29.8540   44.8610 N   0  0  0  0  0  0  0  0  0  0  0  0
   56.2460   31.0920   44.4920 O   0  0  0  0  0  0  0  0  0  0  0  0
   57.5070   31.3430   44.2440 C   0  0  0  0  0  0  0  0  0  0  0  0
   58.0220   32.6590   43.7650 C   0  0  0  0  0  0  0  0  0  0  0  0
   58.5180   33.4620   44.9250 C   0  0  0  0  0  0  0  0  0  0  0  0
   59.3970   34.5350   44.8550 C   0  0  0  0  0  0  0  0  0  0  0  0
   59.6220   35.1430   46.0950 C   0  0  0  0  0  0  0  0  0  0  0  0
   58.9120   34.5610   47.1380 C   0  0  0  0  0  0  0  0  0  0  0  0
   58.0010   33.2910   46.5170 S   0  0  0  0  0  0  0  0  0  0  0  0
   58.2790   30.2560   44.4340 N   0  0  0  0  0  0  0  0  0  0  0  0
   57.7950   26.9690   44.1620 C   0  0  0  0  0  0  0  0  0  0  0  0
   58.1060   25.6450   44.4890 C   0  0  0  0  0  0  0  0  0  0  0  0
   58.7738   21.9260   45.6035 H   0  0  0  0  0  0  0  0  0  0  0  0
   57.8004   22.9355   44.4810 H   0  0  0  0  0  0  0  0  0  0  0  0
   59.5920   23.0648   44.4810 H   0  0  0  0  0  0  0  0  0  0  0  0
   58.3828   25.9646   47.8814 H   0  0  0  0  0  0  0  0  0  0  0  0
   57.8264   28.3227   47.3033 H   0  0  0  0  0  0  0  0  0  0  0  0
   58.8471   32.4923   43.0569 H   0  0  0  0  0  0  0  0  0  0  0  0
   57.2094   33.2067   43.2653 H   0  0  0  0  0  0  0  0  0  0  0  0
   59.8682   34.8725   43.9201 H   0  0  0  0  0  0  0  0  0  0  0  0
   60.2972   36.0007   46.2312 H   0  0  0  0  0  0  0  0  0  0  0  0
   58.9409   34.8772   48.1912 H   0  0  0  0  0  0  0  0  0  0  0  0
   57.6309   27.2487   43.1109 H   0  0  0  0  0  0  0  0  0  0  0  0
   58.1830   24.8904   43.6923 H   0  0  0  0  0  0  0  0  0  0  0  0
  1  2  1  0
  2  3  1  0
  3  4  2  0
  4  5  1  0
  5  6  2  0
  6  7  1  0
  7  8  2  0
  8  9  1  0
  9 10  1  0
 10 11  1  0
 11 12  1  0
 12 13  2  0
 13 14  1  0
 14 15  2  0
 15 16  1  0
 10 17  2  0
  6 18  1  0
 18 19  2  0
 19  3  1  0
 17  7  1  0
 16 12  1  0
  1 20  1  0
  1 21  1  0
  1 22  1  0
  4 23  1  0
  5 24  1  0
 11 25  1  0
 11 26  1  0
 13 27  1  0
 14 28  1  0
 15 29  1  0
 18 30  1  0
 19 31  1  0
M  END
>  <UniqueID>  (18) 
16

>  <SMILES>  (18) 
COc1ccc(-c2noc(Cc3cccs3)n2)cc1

>  <Energy>  (18) 
89.39191702997722

>  <Genealogy>  (18) 
COc1ccc(-c2noc(Cc3cccs3)n2)cc1 (3D coordinates assigned)
COc1ccc(-c2noc(Cc3cccs3)n2)cc1 (optimized conformer: 89.39191702997722 kcal/mol)

>  <smiles>  (18) 
COc1ccc(-c2noc(Cc3cccs3)n2)cc1

>  <score_type>  (18) 
oracle

>  <origin>  (18) 
adg

>  <m_score__min__energy>  (18) 
-7.1799999999999997

>  <m_primary>  (18) 
energy

$$$$
18:0
     RDKit          3D

 49 52  0  0  0  0  0  0  0  0999 V2000
   55.9030   30.0450   43.7570 C   0  0  0  0  0  0  0  0  0  0  0  0
   56.6810   30.4270   44.8720 O   0  0  0  0  0  0  0  0  0  0  0  0
   58.0460   30.5110   44.5110 C   0  0  0  0  0  0  0  0  0  0  0  0
   58.9090   30.0020   45.6290 C   0  0  0  0  0  0  0  0  0  0  0  0
   59.9200   30.8000   46.1770 C   0  0  0  0  0  0  0  0  0  0  0  0
   60.6630   30.3080   47.2660 C   0  0  0  0  0  0  0  0  0  0  0  0
   61.6780   31.1060   47.9280 N   0  0  0  0  0  0  0  0  0  0  0  0
   62.5590   31.9780   47.1220 C   0  0  0  0  0  0  0  0  0  0  0  0
   63.2870   33.0900   47.9080 C   0  0  0  0  0  0  0  0  0  0  0  0
   62.7750   33.2920   49.2700 N   0  0  0  0  0  0  0  0  0  0  0  0
   61.6320   34.2240   49.4190 C   0  0  0  0  0  0  0  0  0  0  0  0
   60.5780   34.0830   48.3580 C   0  0  0  0  0  0  0  0  0  0  0  0
   59.3630   33.5160   48.5860 N   0  0  0  0  0  0  0  0  0  0  0  0
   58.7630   33.6550   47.3920 C   0  0  0  0  0  0  0  0  0  0  0  0
   57.4640   33.2960   47.0390 C   0  0  0  0  0  0  0  0  0  0  0  0
   57.0410   33.5860   45.7270 C   0  0  0  0  0  0  0  0  0  0  0  0
   57.9190   34.2150   44.8130 C   0  0  0  0  0  0  0  0  0  0  0  0
   59.2280   34.5580   45.2060 C   0  0  0  0  0  0  0  0  0  0  0  0
   59.6040   34.2640   46.5130 C   0  0  0  0  0  0  0  0  0  0  0  0
   60.7310   34.5190   47.1180 O   0  0  0  0  0  0  0  0  0  0  0  0
   62.7060   32.0390   50.0270 C   0  0  0  0  0  0  0  0  0  0  0  0
   61.7480   31.0290   49.3990 C   0  0  0  0  0  0  0  0  0  0  0  0
   60.3840   29.0570   47.7290 N   0  0  0  0  0  0  0  0  0  0  0  0
   59.3950   28.2970   47.1920 C   0  0  0  0  0  0  0  0  0  0  0  0
   59.1310   26.9290   47.7250 C   0  0  0  0  0  0  0  0  0  0  0  0
   58.6660   28.7720   46.1500 N   0  0  0  0  0  0  0  0  0  0  0  0
   54.9660   29.5849   44.1040 H   0  0  0  0  0  0  0  0  0  0  0  0
   55.6726   30.9325   43.1493 H   0  0  0  0  0  0  0  0  0  0  0  0
   56.4643   29.3201   43.1493 H   0  0  0  0  0  0  0  0  0  0  0  0
   58.2220   29.9041   43.6106 H   0  0  0  0  0  0  0  0  0  0  0  0
   58.3007   31.5621   44.3103 H   0  0  0  0  0  0  0  0  0  0  0  0
   60.1306   31.7969   45.7625 H   0  0  0  0  0  0  0  0  0  0  0  0
   63.3214   31.3437   46.6461 H   0  0  0  0  0  0  0  0  0  0  0  0
   61.9028   32.4929   46.4049 H   0  0  0  0  0  0  0  0  0  0  0  0
   64.3526   32.8255   47.9747 H   0  0  0  0  0  0  0  0  0  0  0  0
   63.1172   34.0294   47.3615 H   0  0  0  0  0  0  0  0  0  0  0  0
   61.1631   34.0408   50.3971 H   0  0  0  0  0  0  0  0  0  0  0  0
   62.0401   35.2411   49.3248 H   0  0  0  0  0  0  0  0  0  0  0  0
   56.7931   32.8040   47.7586 H   0  0  0  0  0  0  0  0  0  0  0  0
   56.0211   33.3216   45.4109 H   0  0  0  0  0  0  0  0  0  0  0  0
   57.5782   34.4373   43.7910 H   0  0  0  0  0  0  0  0  0  0  0  0
   59.9263   35.0400   44.5059 H   0  0  0  0  0  0  0  0  0  0  0  0
   63.7115   31.5945   50.0661 H   0  0  0  0  0  0  0  0  0  0  0  0
   62.3296   32.2763   51.0330 H   0  0  0  0  0  0  0  0  0  0  0  0
   62.0796   30.0178   49.6774 H   0  0  0  0  0  0  0  0  0  0  0  0
   60.7428   31.2636   49.7790 H   0  0  0  0  0  0  0  0  0  0  0  0
   59.1363   26.9566   48.8246 H   0  0  0  0  0  0  0  0  0  0  0  0
   58.1491   26.5810   47.3717 H   0  0  0  0  0  0  0  0  0  0  0  0
   59.9129   26.2406   47.3717 H   0  0  0  0  0  0  0  0  0  0  0  0
  1  2  1  0
  2  3  1  0
  3  4  1  0
  4  5  2  0
  5  6  1  0
  6  7  1  0
  7  8  1  0
  8  9  1  0
  9 10  1  0
 10 11  1  0
 11 12  1  0
 12 13  2  0
 13 14  1  0
 14 15  2  0
 15 16  1  0
 16 17  2  0
 17 18  1  0
 18 19  2  0
 19 20  1  0
 10 21  1  0
 21 22  1  0
  6 23  2  0
 23 24  1  0
 24 25  1  0
 24 26  2  0
 26  4  1  0
 22  7  1  0
 20 12  1  0
 19 14  1  0
  1 27  1  0
  1 28  1  0
  1 29  1  0
  3 30  1  0
  3 31  1  0
  5 32  1  0
  8 33  1  0
  8 34  1  0
  9 35  1  0
  9 36  1  0
 11 37  1  0
 11 38  1  0
 15 39  1  0
 16 40  1  0
 17 41  1  0
 18 42  1  0
 21 43  1  0
 21 44  1  0
 22 45  1  0
 22 46  1  0
 25 47  1  0
 25 48  1  0
 25 49  1  0
M  END
>  <UniqueID>  (19) 
17

>  <SMILES>  (19) 
COCc1cc(N2CCN(Cc3nc4ccccc4o3)CC2)nc(C)n1

>  <Energy>  (19) 
97.96903871979528

>  <Genealogy>  (19) 
COCc1cc(N2CCN(Cc3nc4ccccc4o3)CC2)nc(C)n1 (3D coordinates assigned)
COCc1cc(N2CCN(Cc3nc4ccccc4o3)CC2)nc(C)n1 (nonaromatic ring conformer: 97.96903871979528 kcal/mol)

>  <smiles>  (19) 
COCc1cc(N2CCN(Cc3nc4ccccc4o3)CC2)nc(C)n1

>  <score_type>  (19) 
oracle

>  <origin>  (19) 
adg

>  <m_score__min__energy>  (19) 
-7.5899999999999999

>  <m_primary>  (19) 
energy

$$$$
19:0
     RDKit          3D

 41 42  0  0  0  0  0  0  0  0999 V2000
   59.3586   35.6336   46.6366 H   0  0  0  0  0  0  0  0  0  0  0  0
   59.8080   34.6750   46.3380 C   0  0  0  0  0  0  0  0  0  0  0  0
   59.2130   33.9970   45.3440 C   0  0  0  0  0  0  0  0  0  0  0  0
   59.1027   34.5108   44.3776 H   0  0  0  0  0  0  0  0  0  0  0  0
   58.6930   32.6140   45.4420 C   0  0  0  0  0  0  0  0  0  0  0  0
   57.5130   32.2280   44.7910 C   0  0  0  0  0  0  0  0  0  0  0  0
   56.9516   32.9654   44.1984 H   0  0  0  0  0  0  0  0  0  0  0  0
   57.0410   30.9100   44.8880 C   0  0  0  0  0  0  0  0  0  0  0  0
   55.8880   30.4860   44.2040 O   0  0  0  0  0  0  0  0  0  0  0  0
   55.8950   29.7200   43.0040 C   0  0  0  0  0  0  0  0  0  0  0  0
   55.9048   28.6486   43.2530 H   0  0  0  0  0  0  0  0  0  0  0  0
   54.9947   29.9516   42.4159 H   0  0  0  0  0  0  0  0  0  0  0  0
   56.7909   29.9680   42.4159 H   0  0  0  0  0  0  0  0  0  0  0  0
   57.7240   29.9730   45.6820 C   0  0  0  0  0  0  0  0  0  0  0  0
   57.1840   28.6740   45.7290 O   0  0  0  0  0  0  0  0  0  0  0  0
   57.7760   27.4890   45.2070 C   0  0  0  0  0  0  0  0  0  0  0  0
   58.0984   26.8437   46.0374 H   0  0  0  0  0  0  0  0  0  0  0  0
   57.0400   26.9525   44.5901 H   0  0  0  0  0  0  0  0  0  0  0  0
   58.6470   27.7553   44.5901 H   0  0  0  0  0  0  0  0  0  0  0  0
   58.8930   30.3670   46.3830 C   0  0  0  0  0  0  0  0  0  0  0  0
   59.5720   29.4420   47.1910 O   0  0  0  0  0  0  0  0  0  0  0  0
   60.6270   29.7630   48.0940 C   0  0  0  0  0  0  0  0  0  0  0  0
   60.2698   29.6543   49.1287 H   0  0  0  0  0  0  0  0  0  0  0  0
   61.4741   29.0820   47.9251 H   0  0  0  0  0  0  0  0  0  0  0  0
   60.9513   30.8005   47.9251 H   0  0  0  0  0  0  0  0  0  0  0  0
   59.3580   31.6910   46.2550 C   0  0  0  0  0  0  0  0  0  0  0  0
   60.2588   32.0035   46.8036 H   0  0  0  0  0  0  0  0  0  0  0  0
   61.0200   34.2360   47.0640 C   0  0  0  0  0  0  0  0  0  0  0  0
   60.9940   34.1690   48.4640 C   0  0  0  0  0  0  0  0  0  0  0  0
   60.0767   34.4398   49.0073 H   0  0  0  0  0  0  0  0  0  0  0  0
   62.1270   33.7600   49.1740 C   0  0  0  0  0  0  0  0  0  0  0  0
   62.1050   33.7363   50.2735 H   0  0  0  0  0  0  0  0  0  0  0  0
   63.2910   33.3800   48.4910 C   0  0  0  0  0  0  0  0  0  0  0  0
   64.5220   32.9860   49.2540 C   0  0  0  0  0  0  0  0  0  0  0  0
   64.3206   33.0505   50.3335 H   0  0  0  0  0  0  0  0  0  0  0  0
   64.8000   31.9540   48.9939 H   0  0  0  0  0  0  0  0  0  0  0  0
   65.3476   33.6648   48.9939 H   0  0  0  0  0  0  0  0  0  0  0  0
   63.3160   33.4300   47.0890 C   0  0  0  0  0  0  0  0  0  0  0  0
   64.2303   33.1472   46.5467 H   0  0  0  0  0  0  0  0  0  0  0  0
   62.1830   33.8380   46.3790 C   0  0  0  0  0  0  0  0  0  0  0  0
   62.2007   33.8480   45.2792 H   0  0  0  0  0  0  0  0  0  0  0  0
  1  2  1  0
  2  3  2  0
  3  4  1  0
  3  5  1  0
  5  6  2  0
  6  7  1  0
  6  8  1  0
  8  9  1  0
  9 10  1  0
 10 11  1  0
 10 12  1  0
 10 13  1  0
  8 14  2  0
 14 15  1  0
 15 16  1  0
 16 17  1  0
 16 18  1  0
 16 19  1  0
 14 20  1  0
 20 21  1  0
 21 22  1  0
 22 23  1  0
 22 24  1  0
 22 25  1  0
 20 26  2  0
 26 27  1  0
  2 28  1  0
 28 29  2  0
 29 30  1  0
 29 31  1  0
 31 32  1  0
 31 33  2  0
 33 34  1  0
 34 35  1  0
 34 36  1  0
 34 37  1  0
 33 38  1  0
 38 39  1  0
 38 40  2  0
 40 41  1  0
 26  5  1  0
 40 28  1  0
M  END
>  <UniqueID>  (20) 
18

>  <SMILES>  (20) 
COc1cc(/C=C\c2ccc(C)cc2)cc(OC)c1OC

>  <Energy>  (20) 
50.52184323392544

>  <Genealogy>  (20) 
COc1cc(/C=C\c2ccc(C)cc2)cc(OC)c1OC (cis-trans isomerization)
COc1cc(/C=C\c2ccc(C)cc2)cc(OC)c1OC (3D coordinates assigned)
COc1cc(/C=C\c2ccc(C)cc2)cc(OC)c1OC (optimized conformer: 50.52184323392544 kcal/mol)

>  <smiles>  (20) 
COc1cc(C=Cc2ccc(C)cc2)cc(OC)c1OC

>  <score_type>  (20) 
oracle

>  <origin>  (20) 
adg

>  <m_score__min__energy>  (20) 
-7.0499999999999998

>  <m_primary>  (20) 
energy

$$$$
20:0
     RDKit          3D

 30 31  0  0  0  0  0  0  0  0999 V2000
   55.1420   27.4900   45.3470 H   0  0  0  0  0  0  0  0  0  0  0  0
   55.8120   26.9310   45.9180 N   0  0  0  0  0  0  0  0  0  0  0  0
   57.0840   27.1720   45.9600 C   0  0  0  0  0  0  0  0  0  0  0  0
   58.1170   26.4830   47.0880 S   0  0  0  0  0  0  0  0  0  0  0  0
   59.4800   27.2500   46.4650 C   0  0  0  0  0  0  0  0  0  0  0  0
   60.5067   27.1515   46.8474 H   0  0  0  0  0  0  0  0  0  0  0  0
   59.0840   28.0300   45.3830 C   0  0  0  0  0  0  0  0  0  0  0  0
   59.7942   28.6307   44.7958 H   0  0  0  0  0  0  0  0  0  0  0  0
   57.7490   27.9940   45.1050 N   0  0  0  0  0  0  0  0  0  0  0  0
   57.1560   28.7220   43.9780 C   0  0  0  0  0  0  0  0  0  0  0  0
   57.9582   29.1271   43.3438 H   0  0  0  0  0  0  0  0  0  0  0  0
   56.5294   28.0326   43.3931 H   0  0  0  0  0  0  0  0  0  0  0  0
   56.3080   29.8470   44.4830 C   0  0  0  0  0  0  0  0  0  0  0  0
   55.2100   29.5920   45.0450 O   0  0  0  0  0  0  0  0  0  0  0  0
   56.7400   31.1990   44.2910 N   0  0  0  0  0  0  0  0  0  0  0  0
   57.4360   32.0120   45.2470 C   0  0  0  0  0  0  0  0  0  0  0  0
   58.1910   31.3820   46.2430 C   0  0  0  0  0  0  0  0  0  0  0  0
   58.2537   30.2841   46.2673 H   0  0  0  0  0  0  0  0  0  0  0  0
   58.8660   32.1360   47.2070 C   0  0  0  0  0  0  0  0  0  0  0  0
   59.4683   31.6297   47.9757 H   0  0  0  0  0  0  0  0  0  0  0  0
   58.7780   33.5410   47.1980 C   0  0  0  0  0  0  0  0  0  0  0  0
   59.4360   34.3440   48.1410 O   0  0  0  0  0  0  0  0  0  0  0  0
   60.6740   34.0050   48.7600 C   0  0  0  0  0  0  0  0  0  0  0  0
   60.5580   34.0368   49.8534 H   0  0  0  0  0  0  0  0  0  0  0  0
   60.9726   32.9920   48.4522 H   0  0  0  0  0  0  0  0  0  0  0  0
   61.4470   34.7245   48.4522 H   0  0  0  0  0  0  0  0  0  0  0  0
   58.0030   34.1680   46.2160 C   0  0  0  0  0  0  0  0  0  0  0  0
   57.9228   35.2650   46.2036 H   0  0  0  0  0  0  0  0  0  0  0  0
   57.3300   33.4140   45.2510 C   0  0  0  0  0  0  0  0  0  0  0  0
   56.7150   33.9192   44.4917 H   0  0  0  0  0  0  0  0  0  0  0  0
  1  2  1  0
  2  3  2  0
  3  4  1  0
  4  5  1  0
  5  6  1  0
  5  7  2  0
  7  8  1  0
  7  9  1  0
  9 10  1  0
 10 11  1  0
 10 12  1  0
 10 13  1  0
 13 14  2  0
 13 15  1  0
 15 16  1  0
 16 17  2  0
 17 18  1  0
 17 19  1  0
 19 20  1  0
 19 21  2  0
 21 22  1  0
 22 23  1  0
 23 24  1  0
 23 25  1  0
 23 26  1  0
 21 27  1  0
 27 28  1  0
 27 29  2  0
 29 30  1  0
  9  3  1  0
 29 16  1  0
M  CHG  1  15  -1
M  END
>  <UniqueID>  (21) 
19

>  <SMILES>  (21) 
[H]/N=c1/sccn1CC(=O)[N-]c1ccc(OC)cc1

>  <Energy>  (21) 
62.78815268903086

>  <Genealogy>  (21) 
COc1ccc([N-]C(=O)Cn2ccsc2=N)cc1 (protonated)
[H]/N=c1/sccn1CC(=O)[N-]c1ccc(OC)cc1 (cis-trans isomerization)
[H]/N=c1/sccn1CC(=O)[N-]c1ccc(OC)cc1 (3D coordinates assigned)
[H]/N=c1/sccn1CC(=O)[N-]c1ccc(OC)cc1 (optimized conformer: 62.78815268903086 kcal/mol)

>  <smiles>  (21) 
COc1ccc(NC(=O)Cn2ccsc2=N)cc1

>  <score_type>  (21) 
oracle

>  <origin>  (21) 
adg

>  <m_score__min__energy>  (21) 
-8

>  <m_primary>  (21) 
energy

$$$$
21:0
     RDKit          3D

 25 26  0  0  0  0  0  0  0  0999 V2000
   56.3850   29.8390   43.5140 C   0  0  0  0  0  0  0  0  0  0  0  0
   56.5330   30.2510   44.8700 O   0  0  0  0  0  0  0  0  0  0  0  0
   57.7630   30.5180   45.4950 C   0  0  0  0  0  0  0  0  0  0  0  0
   58.5840   29.4820   45.9730 C   0  0  0  0  0  0  0  0  0  0  0  0
   59.7990   29.7690   46.5890 C   0  0  0  0  0  0  0  0  0  0  0  0
   60.2210   31.0880   46.7410 C   0  0  0  0  0  0  0  0  0  0  0  0
   59.4260   32.1590   46.2740 C   0  0  0  0  0  0  0  0  0  0  0  0
   58.1860   31.8570   45.6450 C   0  0  0  0  0  0  0  0  0  0  0  0
   57.3890   32.9130   45.1790 C   0  0  0  0  0  0  0  0  0  0  0  0
   57.8130   34.2250   45.3320 C   0  0  0  0  0  0  0  0  0  0  0  0
   59.0310   34.4900   45.9510 C   0  0  0  0  0  0  0  0  0  0  0  0
   59.8240   33.4750   46.4140 N   0  0  0  0  0  0  0  0  0  0  0  0
   61.0990   33.8320   47.0580 C   0  0  0  0  0  0  0  0  0  0  0  0
   56.0133   28.8042   43.4837 H   0  0  0  0  0  0  0  0  0  0  0  0
   55.6685   30.5010   43.0058 H   0  0  0  0  0  0  0  0  0  0  0  0
   57.3590   29.8937   43.0058 H   0  0  0  0  0  0  0  0  0  0  0  0
   58.2638   28.4358   45.8594 H   0  0  0  0  0  0  0  0  0  0  0  0
   60.4308   28.9479   46.9586 H   0  0  0  0  0  0  0  0  0  0  0  0
   61.1837   31.2981   47.2299 H   0  0  0  0  0  0  0  0  0  0  0  0
   56.4261   32.7005   44.6914 H   0  0  0  0  0  0  0  0  0  0  0  0
   57.1886   35.0531   44.9653 H   0  0  0  0  0  0  0  0  0  0  0  0
   59.3618   35.5323   46.0701 H   0  0  0  0  0  0  0  0  0  0  0  0
   60.9797   33.7986   48.1510 H   0  0  0  0  0  0  0  0  0  0  0  0
   61.8771   33.1172   46.7521 H   0  0  0  0  0  0  0  0  0  0  0  0
   61.3928   34.8469   46.7521 H   0  0  0  0  0  0  0  0  0  0  0  0
  1  2  1  0
  2  3  1  0
  3  4  2  0
  4  5  1  0
  5  6  2  0
  6  7  1  0
  7  8  2  0
  8  9  1  0
  9 10  2  0
 10 11  1  0
 11 12  2  0
 12 13  1  0
  8  3  1  0
 12  7  1  0
  1 14  1  0
  1 15  1  0
  1 16  1  0
  4 17  1  0
  5 18  1  0
  6 19  1  0
  9 20  1  0
 10 21  1  0
 11 22  1  0
 13 23  1  0
 13 24  1  0
 13 25  1  0
M  CHG  1  12   1
M  END
>  <UniqueID>  (22) 
20

>  <SMILES>  (22) 
COc1cccc2c1ccc[n+]2C

>  <Energy>  (22) 
32.78356857277037

>  <Genealogy>  (22) 
COc1cccc2c1ccc[n+]2C (3D coordinates assigned)
COc1cccc2c1ccc[n+]2C (optimized conformer: 32.78356857277037 kcal/mol)

>  <smiles>  (22) 
COc1cccc2c1ccc[n+]2C

>  <score_type>  (22) 
oracle

>  <origin>  (22) 
adg

>  <m_score__min__energy>  (22) 
-3.8599999999999999

>  <m_primary>  (22) 
energy

$$$$
22:0
     RDKit          3D

 27 28  0  0  0  0  0  0  0  0999 V2000
   64.1440   31.2860   46.5360 F   0  0  0  0  0  0  0  0  0  0  0  0
   63.1920   31.9470   47.2400 C   0  0  0  0  0  0  0  0  0  0  0  0
   61.9700   31.3260   47.5160 C   0  0  0  0  0  0  0  0  0  0  0  0
   60.9870   32.0050   48.2420 C   0  0  0  0  0  0  0  0  0  0  0  0
   61.2230   33.3110   48.7050 C   0  0  0  0  0  0  0  0  0  0  0  0
   60.1670   34.0530   49.4800 C   0  0  0  0  0  0  0  0  0  0  0  0
   59.3100   34.8270   48.5810 N   0  0  0  0  0  0  0  0  0  0  0  0
   58.9410   34.4150   47.2500 C   0  0  0  0  0  0  0  0  0  0  0  0
   57.9280   33.4640   47.0180 C   0  0  0  0  0  0  0  0  0  0  0  0
   57.5950   33.0910   45.7120 C   0  0  0  0  0  0  0  0  0  0  0  0
   58.2680   33.6560   44.6270 C   0  0  0  0  0  0  0  0  0  0  0  0
   59.2790   34.5960   44.8450 C   0  0  0  0  0  0  0  0  0  0  0  0
   59.6150   34.9720   46.1500 C   0  0  0  0  0  0  0  0  0  0  0  0
   62.4500   33.9330   48.4130 C   0  0  0  0  0  0  0  0  0  0  0  0
   63.4310   33.2490   47.6870 C   0  0  0  0  0  0  0  0  0  0  0  0
   61.7819   30.3019   47.1614 H   0  0  0  0  0  0  0  0  0  0  0  0
   60.0247   31.5151   48.4518 H   0  0  0  0  0  0  0  0  0  0  0  0
   59.5497   33.3292   50.0323 H   0  0  0  0  0  0  0  0  0  0  0  0
   60.6623   34.7447   50.1773 H   0  0  0  0  0  0  0  0  0  0  0  0
   58.9110   35.7180   48.9540 H   0  0  0  0  0  0  0  0  0  0  0  0
   57.3962   33.0125   47.8685 H   0  0  0  0  0  0  0  0  0  0  0  0
   56.8004   32.3502   45.5390 H   0  0  0  0  0  0  0  0  0  0  0  0
   58.0026   33.3614   43.6010 H   0  0  0  0  0  0  0  0  0  0  0  0
   59.8105   35.0402   43.9905 H   0  0  0  0  0  0  0  0  0  0  0  0
   60.4136   35.7099   46.3164 H   0  0  0  0  0  0  0  0  0  0  0  0
   62.6391   34.9607   48.7566 H   0  0  0  0  0  0  0  0  0  0  0  0
   64.3921   33.7371   47.4677 H   0  0  0  0  0  0  0  0  0  0  0  0
  1  2  1  0
  2  3  2  0
  3  4  1  0
  4  5  2  0
  5  6  1  0
  6  7  1  0
  7  8  1  0
  8  9  2  0
  9 10  1  0
 10 11  2  0
 11 12  1  0
 12 13  2  0
  5 14  1  0
 14 15  2  0
 15  2  1  0
 13  8  1  0
  3 16  1  0
  4 17  1  0
  6 18  1  0
  6 19  1  0
  7 20  1  0
  9 21  1  0
 10 22  1  0
 11 23  1  0
 12 24  1  0
 13 25  1  0
 14 26  1  0
 15 27  1  0
M  END
>  <UniqueID>  (23) 
21

>  <SMILES>  (23) 
Fc1ccc(CNc2ccccc2)cc1

>  <Energy>  (23) 
26.858037974713866

>  <Genealogy>  (23) 
Fc1ccc(CNc2ccccc2)cc1 (3D coordinates assigned)
Fc1ccc(CNc2ccccc2)cc1 (optimized conformer: 26.858037974713866 kcal/mol)

>  <smiles>  (23) 
Fc1ccc(CNc2ccccc2)cc1

>  <score_type>  (23) 
oracle

>  <origin>  (23) 
adg

>  <m_score__min__energy>  (23) 
-5.6299999999999999

>  <m_primary>  (23) 
energy

$$$$
23:0
     RDKit          3D

 45 47  0  0  0  0  0  0  0  0999 V2000
   59.2470   35.3210   47.6190 O   0  0  0  0  0  0  0  0  0  0  0  0
   59.8820   34.3490   47.1260 C   0  0  0  0  0  0  0  0  0  0  0  0
   59.4140   33.7350   45.9130 N   0  0  0  0  0  0  0  0  0  0  0  0
   58.2340   34.2130   45.1950 C   0  0  0  0  0  0  0  0  0  0  0  0
   57.3750   33.0340   44.7310 C   0  0  0  0  0  0  0  0  0  0  0  0
   58.2310   31.8910   44.3320 N   0  0  0  0  0  0  0  0  0  0  0  0
   58.4520   30.9340   45.4420 C   0  0  0  0  0  0  0  0  0  0  0  0
   57.4180   29.7890   45.4490 C   0  0  0  0  0  0  0  0  0  0  0  0
   56.2160   30.2010   44.8330 O   0  0  0  0  0  0  0  0  0  0  0  0
   56.4250   30.4030   43.4460 C   0  0  0  0  0  0  0  0  0  0  0  0
   57.7150   31.1990   43.1360 C   0  0  0  0  0  0  0  0  0  0  0  0
   61.0920   33.8460   47.8210 C   0  0  0  0  0  0  0  0  0  0  0  0
   62.1500   33.2590   47.1060 C   0  0  0  0  0  0  0  0  0  0  0  0
   63.2860   32.7920   47.7750 C   0  0  0  0  0  0  0  0  0  0  0  0
   63.3910   32.9070   49.1720 C   0  0  0  0  0  0  0  0  0  0  0  0
   64.5980   32.4100   49.8820 C   0  0  0  0  0  0  0  0  0  0  0  0
   65.8290   33.0840   49.7610 C   0  0  0  0  0  0  0  0  0  0  0  0
   66.9620   32.6140   50.4310 C   0  0  0  0  0  0  0  0  0  0  0  0
   66.8820   31.4690   51.2260 C   0  0  0  0  0  0  0  0  0  0  0  0
   65.6680   30.7920   51.3550 C   0  0  0  0  0  0  0  0  0  0  0  0
   64.5310   31.2570   50.6860 C   0  0  0  0  0  0  0  0  0  0  0  0
   62.3380   33.5050   49.8840 C   0  0  0  0  0  0  0  0  0  0  0  0
   61.2030   33.9730   49.2170 C   0  0  0  0  0  0  0  0  0  0  0  0
   59.8140   32.8190   45.6140 H   0  0  0  0  0  0  0  0  0  0  0  0
   57.6391   34.8539   45.8624 H   0  0  0  0  0  0  0  0  0  0  0  0
   58.5609   34.7839   44.3134 H   0  0  0  0  0  0  0  0  0  0  0  0
   56.7149   32.7216   45.5536 H   0  0  0  0  0  0  0  0  0  0  0  0
   56.7774   33.3500   43.8632 H   0  0  0  0  0  0  0  0  0  0  0  0
   59.4578   30.5005   45.3392 H   0  0  0  0  0  0  0  0  0  0  0  0
   58.3449   31.4871   46.3868 H   0  0  0  0  0  0  0  0  0  0  0  0
   57.8284   28.9280   44.9011 H   0  0  0  0  0  0  0  0  0  0  0  0
   57.2048   29.5101   46.4915 H   0  0  0  0  0  0  0  0  0  0  0  0
   56.4934   29.4207   42.9556 H   0  0  0  0  0  0  0  0  0  0  0  0
   55.5768   30.9934   43.0691 H   0  0  0  0  0  0  0  0  0  0  0  0
   58.4832   30.5031   42.7678 H   0  0  0  0  0  0  0  0  0  0  0  0
   57.4746   31.9588   42.3778 H   0  0  0  0  0  0  0  0  0  0  0  0
   62.0841   33.1661   46.0119 H   0  0  0  0  0  0  0  0  0  0  0  0
   64.1045   32.3307   47.2029 H   0  0  0  0  0  0  0  0  0  0  0  0
   65.8990   33.9859   49.1352 H   0  0  0  0  0  0  0  0  0  0  0  0
   67.9189   33.1474   50.3317 H   0  0  0  0  0  0  0  0  0  0  0  0
   67.7757   31.1003   51.7508 H   0  0  0  0  0  0  0  0  0  0  0  0
   65.6054   29.8915   51.9837 H   0  0  0  0  0  0  0  0  0  0  0  0
   63.5779   30.7177   50.7891 H   0  0  0  0  0  0  0  0  0  0  0  0
   62.4077   33.6058   50.9772 H   0  0  0  0  0  0  0  0  0  0  0  0
   60.3899   34.4445   49.7884 H   0  0  0  0  0  0  0  0  0  0  0  0
  1  2  2  0
  2  3  1  0
  3  4  1  0
  4  5  1  0
  5  6  1  0
  6  7  1  0
  7  8  1  0
  8  9  1  0
  9 10  1  0
 10 11  1  0
  2 12  1  0
 12 13  2  0
 13 14  1  0
 14 15  2  0
 15 16  1  0
 16 17  2  0
 17 18  1  0
 18 19  2  0
 19 20  1  0
 20 21  2  0
 15 22  1  0
 22 23  2  0
 11  6  1  0
 23 12  1  0
 21 16  1  0
  3 24  1  0
  4 25  1  0
  4 26  1  0
  5 27  1  0
  5 28  1  0
  7 29  1  0
  7 30  1  0
  8 31  1  0
  8 32  1  0
 10 33  1  0
 10 34  1  0
 11 35  1  0
 11 36  1  0
 13 37  1  0
 14 38  1  0
 17 39  1  0
 18 40  1  0
 19 41  1  0
 20 42  1  0
 21 43  1  0
 22 44  1  0
 23 45  1  0
M  END
>  <UniqueID>  (24) 
22

>  <SMILES>  (24) 
O=C(NCCN1CCOCC1)c1ccc(-c2ccccc2)cc1

>  <Energy>  (24) 
62.82545648986048

>  <Genealogy>  (24) 
O=C(NCCN1CCOCC1)c1ccc(-c2ccccc2)cc1 (3D coordinates assigned)
O=C(NCCN1CCOCC1)c1ccc(-c2ccccc2)cc1 (nonaromatic ring conformer: 62.82545648986048 kcal/mol)

>  <smiles>  (24) 
O=C(NCCN1CCOCC1)c1ccc(-c2ccccc2)cc1

>  <score_type>  (24) 
oracle

>  <origin>  (24) 
adg

>  <m_score__min__energy>  (24) 
-7.8700000000000001

>  <m_primary>  (24) 
energy

$$$$
24:0
     RDKit          3D

 36 38  0  0  0  0  0  0  0  0999 V2000
   53.6564   22.0779   45.6907 H   0  0  0  0  0  0  0  0  0  0  0  0
   54.4890   22.7710   45.5000 C   0  0  0  0  0  0  0  0  0  0  0  0
   55.6600   22.2940   44.8500 C   0  0  0  0  0  0  0  0  0  0  0  0
   55.7670   20.9540   44.4490 O   0  0  0  0  0  0  0  0  0  0  0  0
   56.5460   19.9640   45.1140 C   0  0  0  0  0  0  0  0  0  0  0  0
   56.4471   20.0897   46.2023 H   0  0  0  0  0  0  0  0  0  0  0  0
   56.1904   18.9635   44.8266 H   0  0  0  0  0  0  0  0  0  0  0  0
   57.6020   20.0743   44.8266 H   0  0  0  0  0  0  0  0  0  0  0  0
   56.7350   23.1960   44.6030 C   0  0  0  0  0  0  0  0  0  0  0  0
   57.9420   22.8450   43.9710 O   0  0  0  0  0  0  0  0  0  0  0  0
   59.0600   22.2150   44.5870 C   0  0  0  0  0  0  0  0  0  0  0  0
   58.9570   22.2730   45.6806 H   0  0  0  0  0  0  0  0  0  0  0  0
   59.1026   21.1601   44.2782 H   0  0  0  0  0  0  0  0  0  0  0  0
   59.9844   22.7250   44.2782 H   0  0  0  0  0  0  0  0  0  0  0  0
   56.5790   24.5200   45.0200 C   0  0  0  0  0  0  0  0  0  0  0  0
   57.6660   25.7940   44.8730 S   0  0  0  0  0  0  0  0  0  0  0  0
   56.5980   26.8830   45.6240 C   0  0  0  0  0  0  0  0  0  0  0  0
   56.8440   28.1330   45.8900 N   0  0  0  0  0  0  0  0  0  0  0  0
   56.4300   29.2630   45.1110 C   0  0  0  0  0  0  0  0  0  0  0  0
   55.2120   29.3760   44.8090 O   0  0  0  0  0  0  0  0  0  0  0  0
   57.4210   30.2740   44.5900 C   0  0  2  0  0  0  0  0  0  0  0  0
   58.4176   29.8131   44.6551 H   0  0  0  0  0  0  0  0  0  0  0  0
   57.3630   31.4470   45.3690 O   0  0  0  0  0  0  0  0  0  0  0  0
   57.4890   32.5460   44.4930 C   0  0  0  0  0  0  0  0  0  0  0  0
   58.3693   33.1411   44.7776 H   0  0  0  0  0  0  0  0  0  0  0  0
   56.5845   33.1686   44.5583 H   0  0  0  0  0  0  0  0  0  0  0  0
   57.6550   32.0500   43.0680 C   0  0  0  0  0  0  0  0  0  0  0  0
   58.7104   32.0816   42.7595 H   0  0  0  0  0  0  0  0  0  0  0  0
   57.1141   32.6626   42.3317 H   0  0  0  0  0  0  0  0  0  0  0  0
   57.1580   30.6400   43.1380 C   0  0  0  0  0  0  0  0  0  0  0  0
   57.7191   29.9857   42.4546 H   0  0  0  0  0  0  0  0  0  0  0  0
   56.1048   30.5295   42.8403 H   0  0  0  0  0  0  0  0  0  0  0  0
   55.4420   26.2890   45.9980 N   0  0  0  0  0  0  0  0  0  0  0  0
   55.4350   24.9760   45.6530 C   0  0  0  0  0  0  0  0  0  0  0  0
   54.3770   24.1090   45.9020 C   0  0  0  0  0  0  0  0  0  0  0  0
   53.4673   24.4672   46.4061 H   0  0  0  0  0  0  0  0  0  0  0  0
  1  2  1  0
  2  3  2  0
  3  4  1  0
  4  5  1  0
  5  6  1  0
  5  7  1  0
  5  8  1  0
  3  9  1  0
  9 10  1  0
 10 11  1  0
 11 12  1  0
 11 13  1  0
 11 14  1  0
  9 15  2  0
 15 16  1  0
 16 17  1  0
 17 18  2  0
 18 19  1  0
 19 20  2  0
 19 21  1  0
 21 22  1  6
 21 23  1  0
 23 24  1  0
 24 25  1  0
 24 26  1  0
 24 27  1  0
 27 28  1  0
 27 29  1  0
 27 30  1  0
 30 31  1  0
 30 32  1  0
 17 33  1  0
 33 34  1  0
 34 35  2  0
 35 36  1  0
 35  2  1  0
 34 15  1  0
 30 21  1  0
M  CHG  1  33  -1
M  END
>  <UniqueID>  (25) 
23

>  <SMILES>  (25) 
COc1ccc2[n-]/c(=N/C(=O)[C@H]3CCCO3)sc2c1OC

>  <Energy>  (25) 
79.71280428548437

>  <Genealogy>  (25) 
COc1ccc2[n-]c(=NC(=O)C3CCCO3)sc2c1OC (protonated)
COc1ccc2[n-]c(=NC(=O)[C@H]3CCCO3)sc2c1OC (chirality)
COc1ccc2[n-]/c(=N/C(=O)[C@H]3CCCO3)sc2c1OC (cis-trans isomerization)
COc1ccc2[n-]/c(=N/C(=O)[C@H]3CCCO3)sc2c1OC (3D coordinates assigned)
COc1ccc2[n-]/c(=N/C(=O)[C@H]3CCCO3)sc2c1OC (nonaromatic ring conformer: 79.71280428548437 kcal/mol)

>  <smiles>  (25) 
COc1ccc2[nH]c(=NC(=O)C3CCCO3)sc2c1OC

>  <score_type>  (25) 
oracle

>  <origin>  (25) 
adg

>  <m_score__min__energy>  (25) 
-8.8399999999999999

>  <m_primary>  (25) 
energy

$$$$
25:0
     RDKit          3D

 38 38  0  0  0  0  0  0  0  0999 V2000
   57.4470   25.3550   43.3840 C   0  0  0  0  0  0  0  0  0  0  0  0
   57.8350   26.6920   42.7390 C   0  0  0  0  0  0  0  0  0  0  0  0
   57.7460   27.8250   43.6980 N   0  0  0  0  0  0  0  0  0  0  0  0
   56.9810   29.0150   43.2180 C   0  0  0  0  0  0  0  0  0  0  0  0
   56.6200   30.0610   44.2880 C   0  0  0  0  0  0  0  0  0  0  0  0
   59.0670   28.1700   44.2870 C   0  0  0  0  0  0  0  0  0  0  0  0
   59.3140   27.5990   45.6950 C   0  0  0  0  0  0  0  0  0  0  0  0
   58.0460   27.4020   46.3940 N   0  0  0  0  0  0  0  0  0  0  0  0
   57.7420   26.3000   47.0100 C   0  0  0  0  0  0  0  0  0  0  0  0
   56.5650   25.4830   46.6140 C   0  0  0  0  0  0  0  0  0  0  0  0
   55.5000   26.0940   45.9340 C   0  0  0  0  0  0  0  0  0  0  0  0
   55.5350   27.4480   45.6200 O   0  0  0  0  0  0  0  0  0  0  0  0
   54.4160   25.3670   45.5790 N   0  0  0  0  0  0  0  0  0  0  0  0
   54.3250   24.0420   45.8520 C   0  0  0  0  0  0  0  0  0  0  0  0
   53.2810   23.4220   45.5100 O   0  0  0  0  0  0  0  0  0  0  0  0
   55.3510   23.3950   46.4890 N   0  0  0  0  0  0  0  0  0  0  0  0
   55.2340   21.9610   46.8080 C   0  0  0  0  0  0  0  0  0  0  0  0
   56.4560   24.1020   46.8960 C   0  0  0  0  0  0  0  0  0  0  0  0
   57.3770   23.5160   47.5300 O   0  0  0  0  0  0  0  0  0  0  0  0
   57.4758   25.4542   44.4791 H   0  0  0  0  0  0  0  0  0  0  0  0
   56.4310   25.0765   43.0676 H   0  0  0  0  0  0  0  0  0  0  0  0
   58.1561   24.5758   43.0676 H   0  0  0  0  0  0  0  0  0  0  0  0
   58.8688   26.6205   42.3700 H   0  0  0  0  0  0  0  0  0  0  0  0
   57.1296   26.8882   41.9180 H   0  0  0  0  0  0  0  0  0  0  0  0
   57.2030   27.4630   44.5170 H   0  0  0  0  0  0  0  0  0  0  0  0
   57.5861   29.5160   42.4481 H   0  0  0  0  0  0  0  0  0  0  0  0
   56.0212   28.6225   42.8510 H   0  0  0  0  0  0  0  0  0  0  0  0
   56.7692   29.6287   45.2884 H   0  0  0  0  0  0  0  0  0  0  0  0
   57.2654   30.9439   44.1701 H   0  0  0  0  0  0  0  0  0  0  0  0
   55.5674   30.3579   44.1701 H   0  0  0  0  0  0  0  0  0  0  0  0
   59.8510   27.7843   43.6188 H   0  0  0  0  0  0  0  0  0  0  0  0
   59.0844   29.2651   44.3891 H   0  0  0  0  0  0  0  0  0  0  0  0
   59.8341   26.6336   45.6086 H   0  0  0  0  0  0  0  0  0  0  0  0
   59.9295   28.3100   46.2656 H   0  0  0  0  0  0  0  0  0  0  0  0
   58.3717   25.9624   47.8464 H   0  0  0  0  0  0  0  0  0  0  0  0
   55.2231   21.8280   47.8999 H   0  0  0  0  0  0  0  0  0  0  0  0
   54.3006   21.5654   46.3811 H   0  0  0  0  0  0  0  0  0  0  0  0
   56.0909   21.4193   46.3811 H   0  0  0  0  0  0  0  0  0  0  0  0
  1  2  1  0
  2  3  1  0
  3  4  1  0
  4  5  1  0
  3  6  1  0
  6  7  1  0
  7  8  1  0
  8  9  2  3
  9 10  1  0
 10 11  2  0
 11 12  1  0
 11 13  1  0
 13 14  1  0
 14 15  2  0
 14 16  1  0
 16 17  1  0
 16 18  1  0
 18 19  2  0
 18 10  1  0
  1 20  1  0
  1 21  1  0
  1 22  1  0
  2 23  1  0
  2 24  1  0
  3 25  1  0
  4 26  1  0
  4 27  1  0
  5 28  1  0
  5 29  1  0
  5 30  1  0
  6 31  1  0
  6 32  1  0
  7 33  1  0
  7 34  1  0
  9 35  1  0
 17 36  1  0
 17 37  1  0
 17 38  1  0
M  CHG  3   3   1  12  -1  13  -1
M  END
>  <UniqueID>  (26) 
24

>  <SMILES>  (26) 
CC[NH+](CC)CCN=Cc1c([O-])[n-]c(=O)n(C)c1=O

>  <Energy>  (26) 
47.59101014832214

>  <Genealogy>  (26) 
CC[NH+](CC)CCN=Cc1c([O-])[n-]c(=O)n(C)c1=O (protonated)
CC[NH+](CC)CCN=Cc1c([O-])[n-]c(=O)n(C)c1=O (3D coordinates assigned)
CC[NH+](CC)CCN=Cc1c([O-])[n-]c(=O)n(C)c1=O (optimized conformer: 47.59101014832214 kcal/mol)

>  <smiles>  (26) 
CCN(CC)CCN=Cc1c(O)[nH]c(=O)n(C)c1=O

>  <score_type>  (26) 
oracle

>  <origin>  (26) 
adg

>  <m_score__min__energy>  (26) 
-8.7400000000000002

>  <m_primary>  (26) 
energy

$$$$
26:0
     RDKit          3D

 56 59  0  0  0  0  0  0  0  0999 V2000
   55.8355   33.5530   45.4718 H   0  0  0  0  0  0  0  0  0  0  0  0
   56.8930   33.3060   45.6470 C   0  0  0  0  0  0  0  0  0  0  0  0
   57.7120   34.2080   46.3310 C   0  0  0  0  0  0  0  0  0  0  0  0
   57.2958   35.1606   46.6906 H   0  0  0  0  0  0  0  0  0  0  0  0
   59.0640   33.9050   46.5620 C   0  0  0  0  0  0  0  0  0  0  0  0
   59.9500   34.8710   47.3220 C   0  0  0  0  0  0  0  0  0  0  0  0
   60.9709   34.7943   46.9198 H   0  0  0  0  0  0  0  0  0  0  0  0
   59.5176   35.8736   47.1883 H   0  0  0  0  0  0  0  0  0  0  0  0
   60.0030   34.6160   48.7830 N   0  0  0  0  0  0  0  0  0  0  0  0
   59.5160   35.4190   49.2480 H   0  0  0  0  0  0  0  0  0  0  0  0
   59.2780   33.3910   49.1640 C   0  0  0  0  0  0  0  0  0  0  0  0
   59.2342   33.3169   50.2606 H   0  0  0  0  0  0  0  0  0  0  0  0
   58.2564   33.4282   48.7579 H   0  0  0  0  0  0  0  0  0  0  0  0
   59.8022   32.5134   48.7579 H   0  0  0  0  0  0  0  0  0  0  0  0
   61.3810   34.5870   49.3020 C   0  0  0  0  0  0  0  0  0  0  0  0
   61.3587   34.5875   50.4018 H   0  0  0  0  0  0  0  0  0  0  0  0
   61.8879   33.6780   48.9459 H   0  0  0  0  0  0  0  0  0  0  0  0
   61.9257   35.4739   48.9459 H   0  0  0  0  0  0  0  0  0  0  0  0
   59.5890   32.7010   46.0650 C   0  0  0  0  0  0  0  0  0  0  0  0
   60.6509   32.4619   46.2235 H   0  0  0  0  0  0  0  0  0  0  0  0
   58.7730   31.8050   45.3710 C   0  0  0  0  0  0  0  0  0  0  0  0
   59.1987   30.8733   44.9701 H   0  0  0  0  0  0  0  0  0  0  0  0
   57.4090   32.0900   45.1830 C   0  0  0  0  0  0  0  0  0  0  0  0
   56.5390   31.1890   44.4840 N   0  0  0  0  0  0  0  0  0  0  0  0
   56.3110   29.8100   44.8140 C   0  0  0  0  0  0  0  0  0  0  0  0
   55.1460   29.3430   44.7000 O   0  0  0  0  0  0  0  0  0  0  0  0
   57.3970   28.9400   45.3180 C   0  0  0  0  0  0  0  0  0  0  0  0
   57.9290   27.9200   44.5140 C   0  0  0  0  0  0  0  0  0  0  0  0
   57.5432   27.7707   43.4948 H   0  0  0  0  0  0  0  0  0  0  0  0
   58.9450   27.0930   44.9990 C   0  0  0  0  0  0  0  0  0  0  0  0
   59.3519   26.2948   44.3608 H   0  0  0  0  0  0  0  0  0  0  0  0
   59.4500   27.2750   46.2970 C   0  0  0  0  0  0  0  0  0  0  0  0
   60.5100   26.3490   46.8270 C   0  0  0  0  0  0  0  0  0  0  0  0
   60.4932   26.3637   47.9268 H   0  0  0  0  0  0  0  0  0  0  0  0
   60.3152   25.3266   46.4709 H   0  0  0  0  0  0  0  0  0  0  0  0
   61.4969   26.6794   46.4709 H   0  0  0  0  0  0  0  0  0  0  0  0
   58.9080   28.2880   47.1110 C   0  0  0  0  0  0  0  0  0  0  0  0
   59.3690   28.4690   48.4580 N   0  0  0  0  0  0  0  0  0  0  0  0
   60.3100   29.2920   48.8270 C   0  0  0  0  0  0  0  0  0  0  0  0
   60.8860   30.0850   47.8820 N   0  0  0  0  0  0  0  0  0  0  0  0
   61.8810   30.9640   48.1800 C   0  0  0  0  0  0  0  0  0  0  0  0
   62.4360   31.7630   47.1740 C   0  0  0  0  0  0  0  0  0  0  0  0
   62.0674   31.6826   46.1407 H   0  0  0  0  0  0  0  0  0  0  0  0
   63.4600   32.6640   47.4840 C   0  0  0  0  0  0  0  0  0  0  0  0
   63.8937   33.2935   46.6930 H   0  0  0  0  0  0  0  0  0  0  0  0
   63.9350   32.7680   48.7960 C   0  0  0  0  0  0  0  0  0  0  0  0
   64.7419   33.4772   49.0323 H   0  0  0  0  0  0  0  0  0  0  0  0
   63.3870   31.9730   49.8080 C   0  0  0  0  0  0  0  0  0  0  0  0
   63.7630   32.0559   50.8384 H   0  0  0  0  0  0  0  0  0  0  0  0
   62.3560   31.0690   49.5060 C   0  0  0  0  0  0  0  0  0  0  0  0
   61.7830   30.2630   50.4960 C   0  0  0  0  0  0  0  0  0  0  0  0
   62.1406   30.3276   51.5342 H   0  0  0  0  0  0  0  0  0  0  0  0
   60.7570   29.3770   50.1640 C   0  0  0  0  0  0  0  0  0  0  0  0
   60.2983   28.7474   50.9406 H   0  0  0  0  0  0  0  0  0  0  0  0
   57.9040   29.1270   46.6120 C   0  0  0  0  0  0  0  0  0  0  0  0
   57.5098   29.9394   47.2402 H   0  0  0  0  0  0  0  0  0  0  0  0
  1  2  1  0
  2  3  2  0
  3  4  1  0
  3  5  1  0
  5  6  1  0
  6  7  1  0
  6  8  1  0
  6  9  1  0
  9 10  1  0
  9 11  1  0
 11 12  1  0
 11 13  1  0
 11 14  1  0
  9 15  1  0
 15 16  1  0
 15 17  1  0
 15 18  1  0
  5 19  2  0
 19 20  1  0
 19 21  1  0
 21 22  1  0
 21 23  2  0
 23 24  1  0
 24 25  1  0
 25 26  2  0
 25 27  1  0
 27 28  2  0
 28 29  1  0
 28 30  1  0
 30 31  1  0
 30 32  2  0
 32 33  1  0
 33 34  1  0
 33 35  1  0
 33 36  1  0
 32 37  1  0
 37 38  1  0
 38 39  2  0
 39 40  1  0
 40 41  1  0
 41 42  2  0
 42 43  1  0
 42 44  1  0
 44 45  1  0
 44 46  2  0
 46 47  1  0
 46 48  1  0
 48 49  1  0
 48 50  2  0
 50 51  1  0
 51 52  1  0
 51 53  2  0
 53 54  1  0
 37 55  2  0
 55 56  1  0
 23  2  1  0
 55 27  1  0
 53 39  1  0
 50 41  1  0
M  CHG  3   9   1  24  -1  40  -1
M  END
>  <UniqueID>  (27) 
25

>  <SMILES>  (27) 
Cc1ccc(C(=O)[N-]c2ccc(C[NH+](C)C)cc2)cc1/N=c1\ccc2ccccc2[n-]1

>  <Energy>  (27) 
81.89595398602822

>  <Genealogy>  (27) 
Cc1ccc(C(=O)[N-]c2ccc(C[NH+](C)C)cc2)cc1N=c1ccc2ccccc2[n-]1 (protonated)
Cc1ccc(C(=O)[N-]c2ccc(C[NH+](C)C)cc2)cc1/N=c1\ccc2ccccc2[n-]1 (cis-trans isomerization)
Cc1ccc(C(=O)[N-]c2ccc(C[NH+](C)C)cc2)cc1/N=c1\ccc2ccccc2[n-]1 (3D coordinates assigned)
Cc1ccc(C(=O)[N-]c2ccc(C[NH+](C)C)cc2)cc1/N=c1\ccc2ccccc2[n-]1 (optimized conformer: 81.89595398602822 kcal/mol)

>  <smiles>  (27) 
Cc1ccc(C(=O)Nc2ccc(CN(C)C)cc2)cc1N=c1ccc2ccccc2[nH]1

>  <score_type>  (27) 
oracle

>  <origin>  (27) 
adg

>  <m_score__min__energy>  (27) 
-10.75

>  <m_primary>  (27) 
energy

$$$$
27:0
     RDKit          3D

 29 31  0  0  0  0  0  0  0  0999 V2000
   56.1540   30.2940   44.8470 O   0  0  0  0  0  0  0  0  0  0  0  0
   57.2170   29.6930   45.1580 C   0  0  0  0  0  0  0  0  0  0  0  0
   58.4340   30.4350   45.3520 N   0  0  0  0  0  0  0  0  0  0  0  0
   58.4790   31.8530   45.5880 C   0  0  0  0  0  0  0  0  0  0  0  0
   58.1390   32.7810   44.5880 C   0  0  0  0  0  0  0  0  0  0  0  0
   58.1720   34.1490   44.8660 C   0  0  0  0  0  0  0  0  0  0  0  0
   58.5300   34.5800   46.1440 C   0  0  0  0  0  0  0  0  0  0  0  0
   58.8360   33.6720   47.1070 N   0  0  0  0  0  0  0  0  0  0  0  0
   58.8120   32.3340   46.8630 C   0  0  0  0  0  0  0  0  0  0  0  0
   57.2020   28.2230   45.2760 C   0  0  0  0  0  0  0  0  0  0  0  0
   58.2900   27.3750   45.0660 C   0  0  0  0  0  0  0  0  0  0  0  0
   57.8060   26.1070   45.3040 C   0  0  0  0  0  0  0  0  0  0  0  0
   58.4420   24.8680   45.2500 C   0  0  0  0  0  0  0  0  0  0  0  0
   57.6780   23.7260   45.5550 C   0  0  0  0  0  0  0  0  0  0  0  0
   56.3140   23.8490   45.9030 C   0  0  0  0  0  0  0  0  0  0  0  0
   55.7020   25.1150   45.9500 C   0  0  0  0  0  0  0  0  0  0  0  0
   56.4830   26.2280   45.6420 C   0  0  0  0  0  0  0  0  0  0  0  0
   56.1020   27.5160   45.6310 N   0  0  0  0  0  0  0  0  0  0  0  0
   59.3420   29.9370   45.2150 H   0  0  0  0  0  0  0  0  0  0  0  0
   57.8472   32.4296   43.5873 H   0  0  0  0  0  0  0  0  0  0  0  0
   57.9181   34.8804   44.0846 H   0  0  0  0  0  0  0  0  0  0  0  0
   58.5644   35.6556   46.3718 H   0  0  0  0  0  0  0  0  0  0  0  0
   59.0548   31.6260   47.6691 H   0  0  0  0  0  0  0  0  0  0  0  0
   59.3122   27.6574   44.7739 H   0  0  0  0  0  0  0  0  0  0  0  0
   59.5047   24.7855   44.9783 H   0  0  0  0  0  0  0  0  0  0  0  0
   58.1459   22.7310   45.5223 H   0  0  0  0  0  0  0  0  0  0  0  0
   55.7269   22.9491   46.1387 H   0  0  0  0  0  0  0  0  0  0  0  0
   54.6414   25.2231   46.2210 H   0  0  0  0  0  0  0  0  0  0  0  0
   55.1520   27.8890   45.8530 H   0  0  0  0  0  0  0  0  0  0  0  0
  1  2  2  0
  2  3  1  0
  3  4  1  0
  4  5  2  0
  5  6  1  0
  6  7  2  0
  7  8  1  0
  8  9  2  0
  2 10  1  0
 10 11  2  0
 11 12  1  0
 12 13  2  0
 13 14  1  0
 14 15  2  0
 15 16  1  0
 16 17  2  0
 17 18  1  0
  9  4  1  0
 18 10  1  0
 17 12  1  0
  3 19  1  0
  5 20  1  0
  6 21  1  0
  7 22  1  0
  9 23  1  0
 11 24  1  0
 13 25  1  0
 14 26  1  0
 15 27  1  0
 16 28  1  0
 18 29  1  0
M  END
>  <UniqueID>  (28) 
26

>  <SMILES>  (28) 
O=C(Nc1cccnc1)c1cc2ccccc2[nH]1

>  <Energy>  (28) 
68.43146499223195

>  <Genealogy>  (28) 
O=C(Nc1cccnc1)c1cc2ccccc2[nH]1 (3D coordinates assigned)
O=C(Nc1cccnc1)c1cc2ccccc2[nH]1 (optimized conformer: 68.43146499223195 kcal/mol)

>  <smiles>  (28) 
O=C(Nc1cccnc1)c1cc2ccccc2[nH]1

>  <score_type>  (28) 
oracle

>  <origin>  (28) 
adg

>  <m_score__min__energy>  (28) 
-6.7800000000000002

>  <m_primary>  (28) 
energy

$$$$
28:0
     RDKit          3D

 38 40  0  0  0  0  0  0  0  0999 V2000
   62.0759   33.3403   50.7092 H   0  0  0  0  0  0  0  0  0  0  0  0
   62.2600   33.3920   49.6260 C   0  0  0  0  0  0  0  0  0  0  0  0
   61.2130   33.5050   48.7660 N   0  0  0  0  0  0  0  0  0  0  0  0
   61.3900   33.5520   47.4160 C   0  0  0  0  0  0  0  0  0  0  0  0
   60.3000   33.6920   46.5490 O   0  0  0  0  0  0  0  0  0  0  0  0
   59.4500   32.6450   46.1660 C   0  0  0  0  0  0  0  0  0  0  0  0
   58.3410   32.9410   45.3640 C   0  0  0  0  0  0  0  0  0  0  0  0
   58.1550   33.9791   45.0513 H   0  0  0  0  0  0  0  0  0  0  0  0
   57.4690   31.9280   44.9580 C   0  0  0  0  0  0  0  0  0  0  0  0
   56.5971   32.1724   44.3335 H   0  0  0  0  0  0  0  0  0  0  0  0
   57.7020   30.6020   45.3440 C   0  0  0  0  0  0  0  0  0  0  0  0
   56.6150   29.3220   44.8170 S   0  0  0  0  0  0  0  0  0  0  0  0
   55.1980   29.8220   44.8610 O   0  0  0  0  0  0  0  0  0  0  0  0
   56.9580   28.9240   43.4080 O   0  0  0  0  0  0  0  0  0  0  0  0
   56.7990   27.9610   45.8810 N   0  0  0  0  0  0  0  0  0  0  0  0
   56.4610   26.7290   45.6300 C   0  0  0  0  0  0  0  0  0  0  0  0
   55.1850   26.3400   45.8980 N   0  0  0  0  0  0  0  0  0  0  0  0
   54.7460   25.0740   45.6670 C   0  0  0  0  0  0  0  0  0  0  0  0
   53.7053   24.8022   45.8974 H   0  0  0  0  0  0  0  0  0  0  0  0
   55.6150   24.1200   45.1380 C   0  0  0  0  0  0  0  0  0  0  0  0
   55.1860   22.8550   44.9040 F   0  0  0  0  0  0  0  0  0  0  0  0
   56.9320   24.4820   44.8500 C   0  0  0  0  0  0  0  0  0  0  0  0
   57.6280   23.7404   44.4308 H   0  0  0  0  0  0  0  0  0  0  0  0
   57.3650   25.7880   45.0950 C   0  0  0  0  0  0  0  0  0  0  0  0
   58.4021   26.0795   44.8725 H   0  0  0  0  0  0  0  0  0  0  0  0
   58.8290   30.2950   46.1170 C   0  0  0  0  0  0  0  0  0  0  0  0
   59.0277   29.2518   46.4040 H   0  0  0  0  0  0  0  0  0  0  0  0
   59.7030   31.3070   46.5260 C   0  0  0  0  0  0  0  0  0  0  0  0
   60.8200   30.9730   47.2190 F   0  0  0  0  0  0  0  0  0  0  0  0
   62.6810   33.4910   46.8860 C   0  0  0  0  0  0  0  0  0  0  0  0
   62.8362   33.5364   45.7979 H   0  0  0  0  0  0  0  0  0  0  0  0
   63.7730   33.3720   47.7480 C   0  0  0  0  0  0  0  0  0  0  0  0
   64.7909   33.3023   47.3369 H   0  0  0  0  0  0  0  0  0  0  0  0
   63.5760   33.3410   49.1370 C   0  0  0  0  0  0  0  0  0  0  0  0
   64.7410   33.1620   50.0770 C   0  0  0  0  0  0  0  0  0  0  0  0
   64.8170   34.2190   50.9680 F   0  0  0  0  0  0  0  0  0  0  0  0
   65.9310   33.1030   49.3730 F   0  0  0  0  0  0  0  0  0  0  0  0
   64.5770   31.9870   50.7860 F   0  0  0  0  0  0  0  0  0  0  0  0
  1  2  1  0
  2  3  2  0
  3  4  1  0
  4  5  1  0
  5  6  1  0
  6  7  2  0
  7  8  1  0
  7  9  1  0
  9 10  1  0
  9 11  2  0
 11 12  1  0
 12 13  2  0
 12 14  2  0
 12 15  1  0
 15 16  2  0
 16 17  1  0
 17 18  1  0
 18 19  1  0
 18 20  2  0
 20 21  1  0
 20 22  1  0
 22 23  1  0
 22 24  2  0
 24 25  1  0
 11 26  1  0
 26 27  1  0
 26 28  2  0
 28 29  1  0
  4 30  2  0
 30 31  1  0
 30 32  1  0
 32 33  1  0
 32 34  2  0
 34 35  1  0
 35 36  1  0
 35 37  1  0
 35 38  1  0
 34  2  1  0
 28  6  1  0
 24 16  1  0
M  CHG  1  17  -1
M  END
>  <UniqueID>  (29) 
27

>  <SMILES>  (29) 
O=S(=O)(/N=c1\ccc(F)c[n-]1)c1ccc(Oc2ccc(C(F)(F)F)cn2)c(F)c1

>  <Energy>  (29) 
55.32787665608804

>  <Genealogy>  (29) 
O=S(=O)(N=c1ccc(F)c[n-]1)c1ccc(Oc2ccc(C(F)(F)F)cn2)c(F)c1 (protonated)
O=S(=O)(/N=c1\ccc(F)c[n-]1)c1ccc(Oc2ccc(C(F)(F)F)cn2)c(F)c1 (cis-trans isomerization)
O=S(=O)(/N=c1\ccc(F)c[n-]1)c1ccc(Oc2ccc(C(F)(F)F)cn2)c(F)c1 (3D coordinates assigned)
O=S(=O)(/N=c1\ccc(F)c[n-]1)c1ccc(Oc2ccc(C(F)(F)F)cn2)c(F)c1 (optimized conformer: 55.32787665608804 kcal/mol)

>  <smiles>  (29) 
O=S(=O)(N=c1ccc(F)c[nH]1)c1ccc(Oc2ccc(C(F)(F)F)cn2)c(F)c1

>  <score_type>  (29) 
oracle

>  <origin>  (29) 
adg

>  <m_score__min__energy>  (29) 
-9.7200000000000006

>  <m_primary>  (29) 
energy

$$$$
29:0
     RDKit          3D

 45 49  0  0  0  0  0  0  0  0999 V2000
   58.4970   31.4110   46.9230 C   0  0  0  0  0  0  0  0  0  0  0  0
   58.8050   32.6600   47.3140 C   0  0  0  0  0  0  0  0  0  0  0  0
   59.7820   32.8390   48.4220 C   0  0  0  0  0  0  0  0  0  0  0  0
   59.3750   32.6560   49.7670 C   0  0  0  0  0  0  0  0  0  0  0  0
   58.0650   32.2520   50.1070 C   0  0  0  0  0  0  0  0  0  0  0  0
   57.6980   32.0860   51.4450 C   0  0  0  0  0  0  0  0  0  0  0  0
   58.6240   32.3110   52.4610 C   0  0  0  0  0  0  0  0  0  0  0  0
   59.9260   32.7020   52.1450 C   0  0  0  0  0  0  0  0  0  0  0  0
   60.3140   32.8730   50.8060 C   0  0  0  0  0  0  0  0  0  0  0  0
   61.5910   33.2440   50.5120 N   0  0  0  0  0  0  0  0  0  0  0  0
   62.0150   33.4130   49.2290 C   0  0  0  0  0  0  0  0  0  0  0  0
   63.3440   33.7910   48.9770 C   0  0  0  0  0  0  0  0  0  0  0  0
   63.7920   33.9680   47.6670 C   0  0  0  0  0  0  0  0  0  0  0  0
   62.9200   33.7700   46.5980 C   0  0  0  0  0  0  0  0  0  0  0  0
   61.5950   33.3950   46.8300 C   0  0  0  0  0  0  0  0  0  0  0  0
   61.1210   33.2120   48.1480 C   0  0  0  0  0  0  0  0  0  0  0  0
   58.1800   33.8880   46.7340 C   0  0  0  0  0  0  0  0  0  0  0  0
   58.5210   34.0140   45.2570 C   0  0  0  0  0  0  0  0  0  0  0  0
   57.5130   33.2580   44.4100 C   0  0  0  0  0  0  0  0  0  0  0  0
   57.5340   31.7440   44.4970 C   0  0  0  0  0  0  0  0  0  0  0  0
   57.0350   31.0950   43.3460 C   0  0  0  0  0  0  0  0  0  0  0  0
   56.9570   29.7080   43.2680 C   0  0  0  0  0  0  0  0  0  0  0  0
   57.3660   28.9310   44.3410 C   0  0  0  0  0  0  0  0  0  0  0  0
   57.8500   29.5380   45.4970 C   0  0  0  0  0  0  0  0  0  0  0  0
   57.9380   30.9430   45.6170 C   0  0  0  0  0  0  0  0  0  0  0  0
   58.6820   30.6230   47.6679 H   0  0  0  0  0  0  0  0  0  0  0  0
   57.3277   32.0665   49.3120 H   0  0  0  0  0  0  0  0  0  0  0  0
   56.6731   31.7762   51.6972 H   0  0  0  0  0  0  0  0  0  0  0  0
   58.3290   32.1805   53.5126 H   0  0  0  0  0  0  0  0  0  0  0  0
   60.6539   32.8776   52.9508 H   0  0  0  0  0  0  0  0  0  0  0  0
   62.2670   33.4000   51.2950 H   0  0  0  0  0  0  0  0  0  0  0  0
   64.0361   33.9485   49.8173 H   0  0  0  0  0  0  0  0  0  0  0  0
   64.8344   34.2641   47.4781 H   0  0  0  0  0  0  0  0  0  0  0  0
   63.2770   33.9097   45.5670 H   0  0  0  0  0  0  0  0  0  0  0  0
   60.9148   33.2408   45.9794 H   0  0  0  0  0  0  0  0  0  0  0  0
   57.0878   33.8269   46.8492 H   0  0  0  0  0  0  0  0  0  0  0  0
   58.5692   34.7693   47.2649 H   0  0  0  0  0  0  0  0  0  0  0  0
   58.5081   35.0764   44.9723 H   0  0  0  0  0  0  0  0  0  0  0  0
   59.5200   33.5865   45.0857 H   0  0  0  0  0  0  0  0  0  0  0  0
   56.5096   33.5932   44.7112 H   0  0  0  0  0  0  0  0  0  0  0  0
   57.7873   33.4868   43.3696 H   0  0  0  0  0  0  0  0  0  0  0  0
   56.7001   31.7005   42.4909 H   0  0  0  0  0  0  0  0  0  0  0  0
   56.5713   29.2285   42.3562 H   0  0  0  0  0  0  0  0  0  0  0  0
   57.3081   27.8343   44.2791 H   0  0  0  0  0  0  0  0  0  0  0  0
   58.1722   28.9072   46.3386 H   0  0  0  0  0  0  0  0  0  0  0  0
  1  2  2  0
  2  3  1  0
  3  4  1  0
  4  5  2  0
  5  6  1  0
  6  7  2  0
  7  8  1  0
  8  9  2  0
  9 10  1  0
 10 11  2  0
 11 12  1  0
 12 13  2  0
 13 14  1  0
 14 15  2  0
 15 16  1  0
  2 17  1  0
 17 18  1  0
 18 19  1  0
 19 20  1  0
 20 21  2  0
 21 22  1  0
 22 23  2  0
 23 24  1  0
 24 25  2  0
 25  1  1  0
 16  3  2  0
 25 20  1  0
  9  4  1  0
 16 11  1  0
  1 26  1  0
  5 27  1  0
  6 28  1  0
  7 29  1  0
  8 30  1  0
 10 31  1  0
 12 32  1  0
 13 33  1  0
 14 34  1  0
 15 35  1  0
 17 36  1  0
 17 37  1  0
 18 38  1  0
 18 39  1  0
 19 40  1  0
 19 41  1  0
 21 42  1  0
 22 43  1  0
 23 44  1  0
 24 45  1  0
M  CHG  1  10   1
M  END
>  <UniqueID>  (30) 
28

>  <SMILES>  (30) 
C1=C(c2c3ccccc3[nH+]c3ccccc23)CCCc2ccccc21

>  <Energy>  (30) 
82.4471869565802

>  <Genealogy>  (30) 
C1=C(c2c3ccccc3[nH+]c3ccccc23)CCCc2ccccc21 (protonated)
C1=C(c2c3ccccc3[nH+]c3ccccc23)CCCc2ccccc21 (3D coordinates assigned)
C1=C(c2c3ccccc3[nH+]c3ccccc23)CCCc2ccccc21 (nonaromatic ring conformer: 82.4471869565802 kcal/mol)

>  <smiles>  (30) 
C1=C(c2c3ccccc3nc3ccccc23)CCCc2ccccc21

>  <score_type>  (30) 
oracle

>  <origin>  (30) 
adg

>  <m_score__min__energy>  (30) 
-6.4100000000000001

>  <m_primary>  (30) 
energy

$$$$
30:0
     RDKit          3D

 31 32  0  0  0  0  0  0  0  0999 V2000
   61.5700   34.1270   48.9360 C   0  0  0  0  0  0  0  0  0  0  0  0
   59.8120   34.5320   49.1780 S   0  0  0  0  0  0  0  0  0  0  0  0
   59.2800   33.6250   47.7250 C   0  0  0  0  0  0  0  0  0  0  0  0
   59.8070   32.3570   47.4590 C   0  0  0  0  0  0  0  0  0  0  0  0
   59.3890   31.6470   46.3300 C   0  0  0  0  0  0  0  0  0  0  0  0
   58.4430   32.2010   45.4480 C   0  0  0  0  0  0  0  0  0  0  0  0
   57.9740   31.4130   44.2380 C   0  0  1  0  0  0  0  0  0  0  0  0
   58.6630   30.1530   44.1580 N   0  0  0  0  0  0  0  0  0  0  0  0
   57.8370   29.1900   44.0860 C   0  0  0  0  0  0  0  0  0  0  0  0
   58.2760   27.7610   44.0210 C   0  0  0  0  0  0  0  0  0  0  0  0
   56.4260   29.6570   44.1250 C   0  0  2  0  0  0  0  0  0  0  0  0
   55.7270   29.3430   42.8780 N   0  0  0  0  0  0  0  0  0  0  0  0
   56.5260   31.1150   44.2900 N   0  0  0  0  0  0  0  0  0  0  0  0
   57.9020   33.4700   45.7350 C   0  0  0  0  0  0  0  0  0  0  0  0
   56.9650   34.0250   44.9250 F   0  0  0  0  0  0  0  0  0  0  0  0
   58.3240   34.1760   46.8660 C   0  0  0  0  0  0  0  0  0  0  0  0
   62.0585   34.0145   49.9151 H   0  0  0  0  0  0  0  0  0  0  0  0
   61.6553   33.1857   48.3733 H   0  0  0  0  0  0  0  0  0  0  0  0
   62.0586   34.9361   48.3733 H   0  0  0  0  0  0  0  0  0  0  0  0
   60.5515   31.9179   48.1394 H   0  0  0  0  0  0  0  0  0  0  0  0
   59.8027   30.6477   46.1295 H   0  0  0  0  0  0  0  0  0  0  0  0
   58.1893   32.0428   43.3622 H   0  0  0  0  0  0  0  0  0  0  0  0
   58.3968   27.3678   45.0412 H   0  0  0  0  0  0  0  0  0  0  0  0
   57.5184   27.1686   43.4870 H   0  0  0  0  0  0  0  0  0  0  0  0
   59.2355   27.6961   43.4870 H   0  0  0  0  0  0  0  0  0  0  0  0
   55.8581   29.1699   44.9314 H   0  0  0  0  0  0  0  0  0  0  0  0
   54.6950   29.4760   42.9930 H   0  0  0  0  0  0  0  0  0  0  0  0
   56.0740   29.9580   42.1070 H   0  0  0  0  0  0  0  0  0  0  0  0
   55.9150   28.3470   42.6200 H   0  0  0  0  0  0  0  0  0  0  0  0
   56.1210   31.3720   45.2220 H   0  0  0  0  0  0  0  0  0  0  0  0
   57.9021   35.1689   47.0808 H   0  0  0  0  0  0  0  0  0  0  0  0
  1  2  1  0
  2  3  1  0
  3  4  2  0
  4  5  1  0
  5  6  2  0
  6  7  1  0
  7  8  1  0
  8  9  2  0
  9 10  1  0
  9 11  1  0
 11 12  1  0
 11 13  1  0
  6 14  1  0
 14 15  1  0
 14 16  2  0
 16  3  1  0
 13  7  1  0
  1 17  1  0
  1 18  1  0
  1 19  1  0
  4 20  1  0
  5 21  1  0
  7 22  1  6
 10 23  1  0
 10 24  1  0
 10 25  1  0
 11 26  1  1
 12 27  1  0
 12 28  1  0
 12 29  1  0
 13 30  1  0
 16 31  1  0
M  CHG  1  12   1
M  END
>  <UniqueID>  (31) 
29

>  <SMILES>  (31) 
CSc1ccc([C@H]2N=C(C)[C@H]([NH3+])N2)c(F)c1

>  <Energy>  (31) 
32.24956217953933

>  <Genealogy>  (31) 
CSc1ccc(C2N=C(C)C([NH3+])N2)c(F)c1 (protonated)
CSc1ccc([C@H]2N=C(C)[C@H]([NH3+])N2)c(F)c1 (chirality)
CSc1ccc([C@H]2N=C(C)[C@H]([NH3+])N2)c(F)c1 (3D coordinates assigned)
CSc1ccc([C@H]2N=C(C)[C@H]([NH3+])N2)c(F)c1 (nonaromatic ring conformer: 32.24956217953933 kcal/mol)

>  <smiles>  (31) 
CSc1ccc(C2N=C(C)C(N)N2)c(F)c1

>  <score_type>  (31) 
oracle

>  <origin>  (31) 
adg

>  <m_score__min__energy>  (31) 
-4.5

>  <m_primary>  (31) 
energy

$$$$
31:0
     RDKit          3D

 42 43  0  0  0  0  0  0  0  0999 V2000
   60.0160   35.3800   45.9940 C   0  0  0  0  0  0  0  0  0  0  0  0
   59.0550   34.2700   45.6830 C   0  0  0  0  0  0  0  0  0  0  0  0
   58.2570   33.7240   46.6960 C   0  0  0  0  0  0  0  0  0  0  0  0
   57.3300   32.7250   46.4000 C   0  0  0  0  0  0  0  0  0  0  0  0
   57.1650   32.2730   45.0800 C   0  0  0  0  0  0  0  0  0  0  0  0
   56.2060   31.2490   44.7770 N   0  0  0  0  0  0  0  0  0  0  0  0
   56.4940   29.8560   44.6010 C   0  0  0  0  0  0  0  0  0  0  0  0
   55.6030   29.0100   44.8770 O   0  0  0  0  0  0  0  0  0  0  0  0
   57.8650   29.3670   44.2110 C   0  0  0  0  0  0  0  0  0  0  0  0
   58.3280   28.3150   45.1440 N   0  0  0  0  0  0  0  0  0  0  0  0
   58.1020   28.6610   46.5710 C   0  0  0  0  0  0  0  0  0  0  0  0
   59.2990   29.3800   47.2250 C   0  0  0  0  0  0  0  0  0  0  0  0
   60.1030   30.0630   46.1970 N   0  0  0  0  0  0  0  0  0  0  0  0
   61.1260   30.9370   46.8000 C   0  0  0  0  0  0  0  0  0  0  0  0
   60.5680   31.6370   47.9620 C   0  0  0  0  0  0  0  0  0  0  0  0
   60.1290   32.1880   48.8800 N   0  0  0  0  0  0  0  0  0  0  0  0
   60.7210   29.0740   45.2910 C   0  0  0  0  0  0  0  0  0  0  0  0
   59.7370   27.9450   44.9000 C   0  0  0  0  0  0  0  0  0  0  0  0
   57.9860   32.7950   44.0600 C   0  0  0  0  0  0  0  0  0  0  0  0
   57.8290   32.3380   42.6360 C   0  0  0  0  0  0  0  0  0  0  0  0
   58.9060   33.8140   44.3650 C   0  0  0  0  0  0  0  0  0  0  0  0
   60.1101   35.4887   47.0846 H   0  0  0  0  0  0  0  0  0  0  0  0
   61.0001   35.1446   45.5627 H   0  0  0  0  0  0  0  0  0  0  0  0
   59.6421   36.3203   45.5627 H   0  0  0  0  0  0  0  0  0  0  0  0
   58.3618   34.0847   47.7299 H   0  0  0  0  0  0  0  0  0  0  0  0
   56.7232   32.2874   47.2064 H   0  0  0  0  0  0  0  0  0  0  0  0
   57.8254   28.9545   43.1920 H   0  0  0  0  0  0  0  0  0  0  0  0
   58.5679   30.2121   44.2524 H   0  0  0  0  0  0  0  0  0  0  0  0
   57.2229   29.3191   46.6350 H   0  0  0  0  0  0  0  0  0  0  0  0
   57.9551   27.7159   47.1144 H   0  0  0  0  0  0  0  0  0  0  0  0
   58.9274   30.1211   47.9479 H   0  0  0  0  0  0  0  0  0  0  0  0
   59.9275   28.6378   47.7390 H   0  0  0  0  0  0  0  0  0  0  0  0
   61.9835   30.3268   47.1199 H   0  0  0  0  0  0  0  0  0  0  0  0
   61.4517   31.6779   46.0550 H   0  0  0  0  0  0  0  0  0  0  0  0
   61.0511   29.5888   44.3766 H   0  0  0  0  0  0  0  0  0  0  0  0
   61.5691   28.6148   45.8200 H   0  0  0  0  0  0  0  0  0  0  0  0
   59.8632   27.7215   43.8304 H   0  0  0  0  0  0  0  0  0  0  0  0
   59.9664   27.0695   45.5252 H   0  0  0  0  0  0  0  0  0  0  0  0
   57.4716   31.2978   42.6220 H   0  0  0  0  0  0  0  0  0  0  0  0
   57.1008   32.9828   42.1222 H   0  0  0  0  0  0  0  0  0  0  0  0
   58.7997   32.3992   42.1222 H   0  0  0  0  0  0  0  0  0  0  0  0
   59.5142   34.2574   43.5628 H   0  0  0  0  0  0  0  0  0  0  0  0
  1  2  1  0
  2  3  2  0
  3  4  1  0
  4  5  2  0
  5  6  1  0
  6  7  1  0
  7  8  2  0
  7  9  1  0
  9 10  1  0
 10 11  1  0
 11 12  1  0
 12 13  1  0
 13 14  1  0
 14 15  1  0
 15 16  3  0
 13 17  1  0
 17 18  1  0
  5 19  1  0
 19 20  1  0
 19 21  2  0
 21  2  1  0
 18 10  1  0
  1 22  1  0
  1 23  1  0
  1 24  1  0
  3 25  1  0
  4 26  1  0
  9 27  1  0
  9 28  1  0
 11 29  1  0
 11 30  1  0
 12 31  1  0
 12 32  1  0
 14 33  1  0
 14 34  1  0
 17 35  1  0
 17 36  1  0
 18 37  1  0
 18 38  1  0
 20 39  1  0
 20 40  1  0
 20 41  1  0
 21 42  1  0
M  CHG  1   6  -1
M  END
>  <UniqueID>  (32) 
30

>  <SMILES>  (32) 
Cc1ccc([N-]C(=O)CN2CCN(CC#N)CC2)c(C)c1

>  <Energy>  (32) 
53.64181603077105

>  <Genealogy>  (32) 
Cc1ccc([N-]C(=O)CN2CCN(CC#N)CC2)c(C)c1 (protonated)
Cc1ccc([N-]C(=O)CN2CCN(CC#N)CC2)c(C)c1 (3D coordinates assigned)
Cc1ccc([N-]C(=O)CN2CCN(CC#N)CC2)c(C)c1 (nonaromatic ring conformer: 53.64181603077105 kcal/mol)

>  <smiles>  (32) 
Cc1ccc(NC(=O)CN2CCN(CC#N)CC2)c(C)c1

>  <score_type>  (32) 
oracle

>  <origin>  (32) 
adg

>  <m_score__min__energy>  (32) 
-9.1400000000000006

>  <m_primary>  (32) 
energy

$$$$
32:0
     RDKit          3D

 45 48  0  0  0  0  0  0  0  0999 V2000
   61.3810   29.8670   47.4560 O   0  0  0  0  0  0  0  0  0  0  0  0
   60.1700   30.0860   47.7250 C   0  0  0  0  0  0  0  0  0  0  0  0
   59.8220   30.8940   48.8540 N   0  0  0  0  0  0  0  0  0  0  0  0
   60.7260   31.8780   49.4290 C   0  0  0  0  0  0  0  0  0  0  0  0
   61.6220   32.4190   48.3550 C   0  0  0  0  0  0  0  0  0  0  0  0
   61.1250   33.3070   47.3920 C   0  0  0  0  0  0  0  0  0  0  0  0
   61.9770   33.8320   46.4200 C   0  0  0  0  0  0  0  0  0  0  0  0
   63.3270   33.4720   46.4280 C   0  0  0  0  0  0  0  0  0  0  0  0
   63.8020   32.6210   47.3770 N   0  0  0  0  0  0  0  0  0  0  0  0
   62.9880   32.0970   48.3340 C   0  0  0  0  0  0  0  0  0  0  0  0
   59.1020   29.4840   46.9070 C   0  0  0  0  0  0  0  0  0  0  0  0
   58.8310   28.1340   46.8090 C   0  0  0  0  0  0  0  0  0  0  0  0
   57.8760   27.9540   45.8710 N   0  0  0  0  0  0  0  0  0  0  0  0
   57.3120   26.7010   45.4310 C   0  0  0  0  0  0  0  0  0  0  0  0
   56.2260   26.1100   46.1080 C   0  0  0  0  0  0  0  0  0  0  0  0
   55.6910   24.8960   45.6640 C   0  0  0  0  0  0  0  0  0  0  0  0
   56.2290   24.2600   44.5430 C   0  0  0  0  0  0  0  0  0  0  0  0
   57.3000   24.8380   43.8600 C   0  0  0  0  0  0  0  0  0  0  0  0
   57.8390   26.0520   44.2990 C   0  0  0  0  0  0  0  0  0  0  0  0
   57.5270   29.1290   45.3670 N   0  0  0  0  0  0  0  0  0  0  0  0
   58.2500   30.0830   45.9850 C   0  0  0  0  0  0  0  0  0  0  0  0
   58.0830   31.5220   45.6990 C   0  0  0  0  0  0  0  0  0  0  0  0
   57.9410   32.4310   46.7610 C   0  0  0  0  0  0  0  0  0  0  0  0
   57.8130   33.8000   46.5050 C   0  0  0  0  0  0  0  0  0  0  0  0
   57.8410   34.2720   45.1900 C   0  0  0  0  0  0  0  0  0  0  0  0
   58.0060   33.3770   44.1290 C   0  0  0  0  0  0  0  0  0  0  0  0
   58.1350   32.0070   44.3810 C   0  0  0  0  0  0  0  0  0  0  0  0
   60.1421   32.7002   49.8684 H   0  0  0  0  0  0  0  0  0  0  0  0
   61.3359   31.4033   50.2117 H   0  0  0  0  0  0  0  0  0  0  0  0
   60.0622   33.5905   47.4023 H   0  0  0  0  0  0  0  0  0  0  0  0
   61.5901   34.5219   45.6556 H   0  0  0  0  0  0  0  0  0  0  0  0
   64.0075   33.8778   45.6649 H   0  0  0  0  0  0  0  0  0  0  0  0
   64.8150   32.3670   47.3730 H   0  0  0  0  0  0  0  0  0  0  0  0
   63.4025   31.4184   49.0940 H   0  0  0  0  0  0  0  0  0  0  0  0
   59.3122   27.3382   47.3964 H   0  0  0  0  0  0  0  0  0  0  0  0
   55.7966   26.6064   46.9907 H   0  0  0  0  0  0  0  0  0  0  0  0
   54.8444   24.4412   46.1992 H   0  0  0  0  0  0  0  0  0  0  0  0
   55.8086   23.3037   44.1985 H   0  0  0  0  0  0  0  0  0  0  0  0
   57.7210   24.3382   42.9751 H   0  0  0  0  0  0  0  0  0  0  0  0
   58.6818   26.5031   43.7548 H   0  0  0  0  0  0  0  0  0  0  0  0
   57.9305   32.0644   47.7981 H   0  0  0  0  0  0  0  0  0  0  0  0
   57.6902   34.5059   47.3396 H   0  0  0  0  0  0  0  0  0  0  0  0
   57.7332   35.3482   44.9897 H   0  0  0  0  0  0  0  0  0  0  0  0
   58.0344   33.7504   43.0947 H   0  0  0  0  0  0  0  0  0  0  0  0
   58.2776   31.3069   43.5446 H   0  0  0  0  0  0  0  0  0  0  0  0
  1  2  2  0
  2  3  1  0
  3  4  1  0
  4  5  1  0
  5  6  2  0
  6  7  1  0
  7  8  2  0
  8  9  1  0
  9 10  2  0
  2 11  1  0
 11 12  2  0
 12 13  1  0
 13 14  1  0
 14 15  2  0
 15 16  1  0
 16 17  2  0
 17 18  1  0
 18 19  2  0
 13 20  1  0
 20 21  2  0
 21 22  1  0
 22 23  2  0
 23 24  1  0
 24 25  2  0
 25 26  1  0
 26 27  2  0
 10  5  1  0
 21 11  1  0
 27 22  1  0
 19 14  1  0
  4 28  1  0
  4 29  1  0
  6 30  1  0
  7 31  1  0
  8 32  1  0
  9 33  1  0
 10 34  1  0
 12 35  1  0
 15 36  1  0
 16 37  1  0
 17 38  1  0
 18 39  1  0
 19 40  1  0
 23 41  1  0
 24 42  1  0
 25 43  1  0
 26 44  1  0
 27 45  1  0
M  CHG  2   3  -1   9   1
M  END
>  <UniqueID>  (33) 
31

>  <SMILES>  (33) 
O=C([N-]Cc1ccc[nH+]c1)c1cn(-c2ccccc2)nc1-c1ccccc1

>  <Energy>  (33) 
85.02436532058083

>  <Genealogy>  (33) 
O=C([N-]Cc1ccc[nH+]c1)c1cn(-c2ccccc2)nc1-c1ccccc1 (protonated)
O=C([N-]Cc1ccc[nH+]c1)c1cn(-c2ccccc2)nc1-c1ccccc1 (3D coordinates assigned)
O=C([N-]Cc1ccc[nH+]c1)c1cn(-c2ccccc2)nc1-c1ccccc1 (optimized conformer: 85.02436532058083 kcal/mol)

>  <smiles>  (33) 
O=C(NCc1cccnc1)c1cn(-c2ccccc2)nc1-c1ccccc1

>  <score_type>  (33) 
oracle

>  <origin>  (33) 
adg

>  <m_score__min__energy>  (33) 
-8.4000000000000004

>  <m_primary>  (33) 
energy

$$$$
33:0
     RDKit          3D

 50 51  0  0  0  0  0  0  0  0999 V2000
   57.0120   25.4360   45.8460 C   0  0  0  0  0  0  0  0  0  0  0  0
   55.8420   26.3980   45.9720 C   0  0  0  0  0  0  0  0  0  0  0  0
   56.2440   27.7230   45.5200 N   0  0  0  0  0  0  0  0  0  0  0  0
   57.5210   28.2940   45.8240 C   0  0  0  0  0  0  0  0  0  0  0  0
   57.9340   28.2930   47.0160 O   0  0  0  0  0  0  0  0  0  0  0  0
   58.3840   28.9530   44.7670 C   0  0  0  0  0  0  0  0  0  0  0  0
   57.7040   29.9020   43.8430 N   0  0  1  0  0  0  0  0  0  0  0  0
   56.6190   29.2820   43.0570 C   0  0  0  0  0  0  0  0  0  0  0  0
   57.2550   31.1260   44.5010 C   0  0  0  0  0  0  0  0  0  0  0  0
   56.0700   31.4250   44.5000 O   0  0  0  0  0  0  0  0  0  0  0  0
   58.2180   32.1060   45.1620 C   0  0  0  0  0  0  0  0  0  0  0  0
   57.7690   32.4200   46.6050 C   0  0  0  0  0  0  0  0  0  0  0  0
   58.1690   33.8280   47.0880 C   0  0  0  0  0  0  0  0  0  0  0  0
   59.4390   34.3220   46.5190 N   0  0  0  0  0  0  0  0  0  0  0  0
   60.8570   33.7570   47.3800 S   0  0  0  0  0  0  0  0  0  0  0  0
   61.0780   34.6120   48.5980 O   0  0  0  0  0  0  0  0  0  0  0  0
   62.0570   33.9120   46.4890 O   0  0  0  0  0  0  0  0  0  0  0  0
   60.7340   32.0680   47.8750 C   0  0  0  0  0  0  0  0  0  0  0  0
   60.5130   31.7390   49.2230 C   0  0  0  0  0  0  0  0  0  0  0  0
   60.4310   30.4000   49.6180 C   0  0  0  0  0  0  0  0  0  0  0  0
   60.5580   29.3810   48.6700 C   0  0  0  0  0  0  0  0  0  0  0  0
   60.7540   29.7010   47.3230 C   0  0  0  0  0  0  0  0  0  0  0  0
   60.8330   31.0400   46.9240 C   0  0  0  0  0  0  0  0  0  0  0  0
   59.5740   34.2250   45.0460 C   0  0  0  0  0  0  0  0  0  0  0  0
   58.4670   33.3980   44.3720 C   0  0  0  0  0  0  0  0  0  0  0  0
   57.3607   25.1493   46.8491 H   0  0  0  0  0  0  0  0  0  0  0  0
   56.6906   24.5375   45.2988 H   0  0  0  0  0  0  0  0  0  0  0  0
   57.8315   25.9250   45.2988 H   0  0  0  0  0  0  0  0  0  0  0  0
   55.0056   26.0392   45.3541 H   0  0  0  0  0  0  0  0  0  0  0  0
   55.5274   26.4525   47.0246 H   0  0  0  0  0  0  0  0  0  0  0  0
   59.1811   29.5062   45.2852 H   0  0  0  0  0  0  0  0  0  0  0  0
   58.7358   28.1300   44.1276 H   0  0  0  0  0  0  0  0  0  0  0  0
   58.4470   30.1630   43.1580 H   0  0  0  0  0  0  0  0  0  0  0  0
   55.8701   28.8541   43.7397 H   0  0  0  0  0  0  0  0  0  0  0  0
   56.1436   30.0448   42.4228 H   0  0  0  0  0  0  0  0  0  0  0  0
   57.0348   28.4852   42.4228 H   0  0  0  0  0  0  0  0  0  0  0  0
   59.1900   31.5913   45.1791 H   0  0  0  0  0  0  0  0  0  0  0  0
   56.6734   32.3348   46.6537 H   0  0  0  0  0  0  0  0  0  0  0  0
   58.2767   31.6992   47.2627 H   0  0  0  0  0  0  0  0  0  0  0  0
   57.3691   34.5294   46.8083 H   0  0  0  0  0  0  0  0  0  0  0  0
   58.3137   33.7610   48.1764 H   0  0  0  0  0  0  0  0  0  0  0  0
   60.4040   32.5382   49.9709 H   0  0  0  0  0  0  0  0  0  0  0  0
   60.2663   30.1485   50.6761 H   0  0  0  0  0  0  0  0  0  0  0  0
   60.5038   28.3279   48.9833 H   0  0  0  0  0  0  0  0  0  0  0  0
   60.8462   28.8990   46.5758 H   0  0  0  0  0  0  0  0  0  0  0  0
   60.9732   31.2879   45.8615 H   0  0  0  0  0  0  0  0  0  0  0  0
   59.5494   35.2423   44.6282 H   0  0  0  0  0  0  0  0  0  0  0  0
   60.5247   33.7091   44.8458 H   0  0  0  0  0  0  0  0  0  0  0  0
   57.5399   33.9891   44.3399 H   0  0  0  0  0  0  0  0  0  0  0  0
   58.7822   33.1399   43.3502 H   0  0  0  0  0  0  0  0  0  0  0  0
  1  2  1  0
  2  3  1  0
  3  4  1  0
  4  5  2  0
  4  6  1  0
  6  7  1  0
  7  8  1  0
  7  9  1  0
  9 10  2  0
  9 11  1  0
 11 12  1  0
 12 13  1  0
 13 14  1  0
 14 15  1  0
 15 16  2  0
 15 17  2  0
 15 18  1  0
 18 19  2  0
 19 20  1  0
 20 21  2  0
 21 22  1  0
 22 23  2  0
 14 24  1  0
 24 25  1  0
 25 11  1  0
 23 18  1  0
  1 26  1  0
  1 27  1  0
  1 28  1  0
  2 29  1  0
  2 30  1  0
  6 31  1  0
  6 32  1  0
  7 33  1  6
  8 34  1  0
  8 35  1  0
  8 36  1  0
 11 37  1  0
 12 38  1  0
 12 39  1  0
 13 40  1  0
 13 41  1  0
 19 42  1  0
 20 43  1  0
 21 44  1  0
 22 45  1  0
 23 46  1  0
 24 47  1  0
 24 48  1  0
 25 49  1  0
 25 50  1  0
M  CHG  2   3  -1   7   1
M  END
>  <UniqueID>  (34) 
32

>  <SMILES>  (34) 
CC[N-]C(=O)C[N@@H+](C)C(=O)C1CCN(S(=O)(=O)c2ccccc2)CC1

>  <Energy>  (34) 
62.117103143128986

>  <Genealogy>  (34) 
CC[N-]C(=O)C[NH+](C)C(=O)C1CCN(S(=O)(=O)c2ccccc2)CC1 (protonated)
CC[N-]C(=O)C[N@@H+](C)C(=O)C1CCN(S(=O)(=O)c2ccccc2)CC1 (chirality)
CC[N-]C(=O)C[N@@H+](C)C(=O)C1CCN(S(=O)(=O)c2ccccc2)CC1 (3D coordinates assigned)
CC[N-]C(=O)C[N@@H+](C)C(=O)C1CCN(S(=O)(=O)c2ccccc2)CC1 (nonaromatic ring conformer: 62.117103143128986 kcal/mol)

>  <smiles>  (34) 
CCNC(=O)CN(C)C(=O)C1CCN(S(=O)(=O)c2ccccc2)CC1

>  <score_type>  (34) 
oracle

>  <origin>  (34) 
adg

>  <m_score__min__energy>  (34) 
-9.0999999999999996

>  <m_primary>  (34) 
energy

$$$$
34:0
     RDKit          3D

 45 47  0  0  0  0  0  0  0  0999 V2000
   55.2330   24.3180   45.4300 C   0  0  0  0  0  0  0  0  0  0  0  0
   55.7890   25.2410   46.3640 O   0  0  0  0  0  0  0  0  0  0  0  0
   56.8600   26.1050   46.0870 C   0  0  0  0  0  0  0  0  0  0  0  0
   58.1580   25.5950   46.1540 C   0  0  0  0  0  0  0  0  0  0  0  0
   59.2570   26.4110   45.8900 C   0  0  0  0  0  0  0  0  0  0  0  0
   59.0820   27.7640   45.5480 C   0  0  0  0  0  0  0  0  0  0  0  0
   60.3110   28.5910   45.2610 C   0  0  0  0  0  0  0  0  0  0  0  0
   57.7630   28.3000   45.4780 C   0  0  0  0  0  0  0  0  0  0  0  0
   57.4710   29.7170   45.1320 C   0  0  0  0  0  0  0  0  0  0  0  0
   56.2830   30.1910   44.7070 N   0  0  0  0  0  0  0  0  0  0  0  0
   56.4340   31.4910   44.5160 N   0  0  0  0  0  0  0  0  0  0  0  0
   57.7150   31.7630   44.8230 C   0  0  0  0  0  0  0  0  0  0  0  0
   58.3040   33.1350   44.8140 C   0  0  0  0  0  0  0  0  0  0  0  0
   58.9940   33.3550   46.1070 N   0  0  0  0  0  0  0  0  0  0  0  0
   58.1290   34.0730   47.0520 C   0  0  0  0  0  0  0  0  0  0  0  0
   60.2830   34.0610   45.9400 C   0  0  0  0  0  0  0  0  0  0  0  0
   61.3940   33.3430   46.6660 C   0  0  0  0  0  0  0  0  0  0  0  0
   62.7130   33.8320   46.6070 C   0  0  0  0  0  0  0  0  0  0  0  0
   63.7510   33.1470   47.2460 C   0  0  0  0  0  0  0  0  0  0  0  0
   63.4810   31.9660   47.9390 C   0  0  0  0  0  0  0  0  0  0  0  0
   62.1720   31.4770   48.0100 C   0  0  0  0  0  0  0  0  0  0  0  0
   61.1310   32.1600   47.3750 C   0  0  0  0  0  0  0  0  0  0  0  0
   58.3550   30.6860   45.2010 O   0  0  0  0  0  0  0  0  0  0  0  0
   56.6690   27.4560   45.7460 C   0  0  0  0  0  0  0  0  0  0  0  0
   54.7395   23.4988   45.9735 H   0  0  0  0  0  0  0  0  0  0  0  0
   54.4959   24.8350   44.7980 H   0  0  0  0  0  0  0  0  0  0  0  0
   56.0346   23.9082   44.7980 H   0  0  0  0  0  0  0  0  0  0  0  0
   58.3150   24.5387   46.4177 H   0  0  0  0  0  0  0  0  0  0  0  0
   60.2723   25.9921   45.9498 H   0  0  0  0  0  0  0  0  0  0  0  0
   60.7733   28.9021   46.2094 H   0  0  0  0  0  0  0  0  0  0  0  0
   61.0292   27.9918   44.6822 H   0  0  0  0  0  0  0  0  0  0  0  0
   60.0264   29.4821   44.6822 H   0  0  0  0  0  0  0  0  0  0  0  0
   59.0249   33.2246   43.9880 H   0  0  0  0  0  0  0  0  0  0  0  0
   57.5123   33.8859   44.6750 H   0  0  0  0  0  0  0  0  0  0  0  0
   58.4265   33.8260   48.0818 H   0  0  0  0  0  0  0  0  0  0  0  0
   58.2299   35.1565   46.8910 H   0  0  0  0  0  0  0  0  0  0  0  0
   57.0826   33.7743   46.8910 H   0  0  0  0  0  0  0  0  0  0  0  0
   60.5283   34.1124   44.8689 H   0  0  0  0  0  0  0  0  0  0  0  0
   60.1851   35.0716   46.3633 H   0  0  0  0  0  0  0  0  0  0  0  0
   62.9282   34.7587   46.0548 H   0  0  0  0  0  0  0  0  0  0  0  0
   64.7782   33.5381   47.2026 H   0  0  0  0  0  0  0  0  0  0  0  0
   64.2989   31.4186   48.4303 H   0  0  0  0  0  0  0  0  0  0  0  0
   61.9616   30.5522   48.5673 H   0  0  0  0  0  0  0  0  0  0  0  0
   60.1039   31.7701   47.4308 H   0  0  0  0  0  0  0  0  0  0  0  0
   55.6475   27.8598   45.6878 H   0  0  0  0  0  0  0  0  0  0  0  0
  1  2  1  0
  2  3  1  0
  3  4  2  0
  4  5  1  0
  5  6  2  0
  6  7  1  0
  6  8  1  0
  8  9  1  0
  9 10  2  0
 10 11  1  0
 11 12  2  0
 12 13  1  0
 13 14  1  0
 14 15  1  0
 14 16  1  0
 16 17  1  0
 17 18  2  0
 18 19  1  0
 19 20  2  0
 20 21  1  0
 21 22  2  0
 12 23  1  0
  8 24  2  0
 24  3  1  0
 23  9  1  0
 22 17  1  0
  1 25  1  0
  1 26  1  0
  1 27  1  0
  4 28  1  0
  5 29  1  0
  7 30  1  0
  7 31  1  0
  7 32  1  0
 13 33  1  0
 13 34  1  0
 15 35  1  0
 15 36  1  0
 15 37  1  0
 16 38  1  0
 16 39  1  0
 18 40  1  0
 19 41  1  0
 20 42  1  0
 21 43  1  0
 22 44  1  0
 24 45  1  0
M  END
>  <UniqueID>  (35) 
33

>  <SMILES>  (35) 
COc1ccc(C)c(-c2nnc(CN(C)Cc3ccccc3)o2)c1

>  <Energy>  (35) 
83.10279631474208

>  <Genealogy>  (35) 
COc1ccc(C)c(-c2nnc(CN(C)Cc3ccccc3)o2)c1 (3D coordinates assigned)
COc1ccc(C)c(-c2nnc(CN(C)Cc3ccccc3)o2)c1 (optimized conformer: 83.10279631474208 kcal/mol)

>  <smiles>  (35) 
COc1ccc(C)c(-c2nnc(CN(C)Cc3ccccc3)o2)c1

>  <score_type>  (35) 
oracle

>  <origin>  (35) 
adg

>  <m_score__min__energy>  (35) 
-8.5600000000000005

>  <m_primary>  (35) 
energy

$$$$
35:0
     RDKit          3D

 49 52  0  0  0  0  0  0  0  0999 V2000
   58.8770   28.1160   47.7130 C   0  0  0  0  0  0  0  0  0  0  0  0
   57.7020   27.6110   47.0850 O   0  0  0  0  0  0  0  0  0  0  0  0
   57.6980   26.7410   45.9830 C   0  0  0  0  0  0  0  0  0  0  0  0
   57.6650   25.3410   46.1420 C   0  0  0  0  0  0  0  0  0  0  0  0
   57.6870   24.5020   45.0250 C   0  0  0  0  0  0  0  0  0  0  0  0
   57.7410   25.0470   43.7420 C   0  0  0  0  0  0  0  0  0  0  0  0
   57.7690   26.4320   43.5700 C   0  0  0  0  0  0  0  0  0  0  0  0
   57.7430   27.2870   44.6830 C   0  0  0  0  0  0  0  0  0  0  0  0
   57.7650   28.7110   44.4820 N   0  0  0  0  0  0  0  0  0  0  0  0
   59.0190   29.4590   44.6290 C   0  0  0  0  0  0  0  0  0  0  0  0
   58.7870   30.8380   45.2850 C   0  0  0  0  0  0  0  0  0  0  0  0
   57.3730   31.2890   45.2280 N   0  0  0  0  0  0  0  0  0  0  0  0
   57.2650   32.7480   45.4360 C   0  0  0  0  0  0  0  0  0  0  0  0
   58.1910   33.1980   46.5430 C   0  0  0  0  0  0  0  0  0  0  0  0
   58.1430   32.5210   47.7740 C   0  0  0  0  0  0  0  0  0  0  0  0
   59.0020   32.8790   48.8130 C   0  0  0  0  0  0  0  0  0  0  0  0
   59.9030   33.9370   48.6460 C   0  0  0  0  0  0  0  0  0  0  0  0
   59.9780   34.6050   47.4240 C   0  0  0  0  0  0  0  0  0  0  0  0
   59.1310   34.2450   46.3680 C   0  0  0  0  0  0  0  0  0  0  0  0
   59.2810   35.1310   44.8540 Cl  0  0  0  0  0  0  0  0  0  0  0  0
   60.7240   34.3080   49.7160 O   0  0  0  0  0  0  0  0  0  0  0  0
   60.4750   33.8240   51.0390 C   0  0  0  0  0  0  0  0  0  0  0  0
   60.0240   32.3580   50.9930 C   0  0  0  0  0  0  0  0  0  0  0  0
   58.9800   32.1920   50.0310 O   0  0  0  0  0  0  0  0  0  0  0  0
   56.7430   30.8940   43.9560 C   0  0  0  0  0  0  0  0  0  0  0  0
   56.5700   29.3750   43.9480 C   0  0  0  0  0  0  0  0  0  0  0  0
   58.7594   28.0655   48.8055 H   0  0  0  0  0  0  0  0  0  0  0  0
   59.7440   27.5110   47.4092 H   0  0  0  0  0  0  0  0  0  0  0  0
   59.0347   29.1614   47.4092 H   0  0  0  0  0  0  0  0  0  0  0  0
   57.6217   24.9063   47.1515 H   0  0  0  0  0  0  0  0  0  0  0  0
   57.6617   23.4103   45.1574 H   0  0  0  0  0  0  0  0  0  0  0  0
   57.7616   24.3842   42.8643 H   0  0  0  0  0  0  0  0  0  0  0  0
   57.8117   26.8561   42.5559 H   0  0  0  0  0  0  0  0  0  0  0  0
   59.7099   28.8771   45.2568 H   0  0  0  0  0  0  0  0  0  0  0  0
   59.4408   29.6224   43.6263 H   0  0  0  0  0  0  0  0  0  0  0  0
   59.0912   30.7775   46.3404 H   0  0  0  0  0  0  0  0  0  0  0  0
   59.3838   31.5699   44.7210 H   0  0  0  0  0  0  0  0  0  0  0  0
   57.5361   33.2669   44.5047 H   0  0  0  0  0  0  0  0  0  0  0  0
   56.2300   32.9900   45.7193 H   0  0  0  0  0  0  0  0  0  0  0  0
   57.4225   31.7026   47.9190 H   0  0  0  0  0  0  0  0  0  0  0  0
   60.7059   35.4186   47.2888 H   0  0  0  0  0  0  0  0  0  0  0  0
   61.3973   33.9016   51.6335 H   0  0  0  0  0  0  0  0  0  0  0  0
   59.6793   34.4292   51.4978 H   0  0  0  0  0  0  0  0  0  0  0  0
   60.8785   31.7237   50.7148 H   0  0  0  0  0  0  0  0  0  0  0  0
   59.6473   32.0674   51.9848 H   0  0  0  0  0  0  0  0  0  0  0  0
   55.7603   31.3793   43.8628 H   0  0  0  0  0  0  0  0  0  0  0  0
   57.3754   31.2045   43.1112 H   0  0  0  0  0  0  0  0  0  0  0  0
   55.7016   29.1078   44.5681 H   0  0  0  0  0  0  0  0  0  0  0  0
   56.4166   29.0433   42.9105 H   0  0  0  0  0  0  0  0  0  0  0  0
  1  2  1  0
  2  3  1  0
  3  4  2  0
  4  5  1  0
  5  6  2  0
  6  7  1  0
  7  8  2  0
  8  9  1  0
  9 10  1  0
 10 11  1  0
 11 12  1  0
 12 13  1  0
 13 14  1  0
 14 15  2  0
 15 16  1  0
 16 17  2  0
 17 18  1  0
 18 19  2  0
 19 20  1  0
 17 21  1  0
 21 22  1  0
 22 23  1  0
 23 24  1  0
 12 25  1  0
 25 26  1  0
  8  3  1  0
 26  9  1  0
 19 14  1  0
 24 16  1  0
  1 27  1  0
  1 28  1  0
  1 29  1  0
  4 30  1  0
  5 31  1  0
  6 32  1  0
  7 33  1  0
 10 34  1  0
 10 35  1  0
 11 36  1  0
 11 37  1  0
 13 38  1  0
 13 39  1  0
 15 40  1  0
 18 41  1  0
 22 42  1  0
 22 43  1  0
 23 44  1  0
 23 45  1  0
 25 46  1  0
 25 47  1  0
 26 48  1  0
 26 49  1  0
M  END
>  <UniqueID>  (36) 
34

>  <SMILES>  (36) 
COc1ccccc1N1CCN(Cc2cc3c(cc2Cl)OCCO3)CC1

>  <Energy>  (36) 
63.97889130154072

>  <Genealogy>  (36) 
COc1ccccc1N1CCN(Cc2cc3c(cc2Cl)OCCO3)CC1 (3D coordinates assigned)
COc1ccccc1N1CCN(Cc2cc3c(cc2Cl)OCCO3)CC1 (nonaromatic ring conformer: 63.97889130154072 kcal/mol)

>  <smiles>  (36) 
COc1ccccc1N1CCN(Cc2cc3c(cc2Cl)OCCO3)CC1

>  <score_type>  (36) 
oracle

>  <origin>  (36) 
adg

>  <m_score__min__energy>  (36) 
-7.5700000000000003

>  <m_primary>  (36) 
energy

$$$$
36:0
     RDKit          3D

 50 53  0  0  0  0  0  0  0  0999 V2000
   64.9340   32.7000   46.3890 H   0  0  0  0  0  0  0  0  0  0  0  0
   63.9490   32.8270   46.3930 O   0  0  0  0  0  0  0  0  0  0  0  0
   63.4220   31.8360   47.2380 C   0  0  0  0  0  0  0  0  0  0  0  0
   62.4751   31.4691   46.8151 H   0  0  0  0  0  0  0  0  0  0  0  0
   64.1526   31.0173   47.3157 H   0  0  0  0  0  0  0  0  0  0  0  0
   63.1610   32.3930   48.6440 C   0  0  2  0  0  0  0  0  0  0  0  0
   63.8530   31.8499   49.3044 H   0  0  0  0  0  0  0  0  0  0  0  0
   61.7620   32.2110   49.0240 N   0  0  0  0  0  0  0  0  0  0  0  0
   61.0820   30.9440   49.0400 C   0  0  0  0  0  0  0  0  0  0  0  0
   60.2590   30.5740   47.9690 C   0  0  0  0  0  0  0  0  0  0  0  0
   60.1607   31.2422   47.1007 H   0  0  0  0  0  0  0  0  0  0  0  0
   59.5580   29.3570   47.9940 C   0  0  0  0  0  0  0  0  0  0  0  0
   58.6590   29.0070   46.8650 C   0  0  0  0  0  0  0  0  0  0  0  0
   57.9580   30.0110   46.2720 N   0  0  0  0  0  0  0  0  0  0  0  0
   57.0880   29.7840   45.2520 C   0  0  0  0  0  0  0  0  0  0  0  0
   56.4350   30.7640   44.6960 N   0  0  0  0  0  0  0  0  0  0  0  0
   57.0520   31.8830   43.9780 C   0  0  0  0  0  0  0  0  0  0  0  0
   57.7405   31.4837   43.2187 H   0  0  0  0  0  0  0  0  0  0  0  0
   56.2514   32.4748   43.5102 H   0  0  0  0  0  0  0  0  0  0  0  0
   57.8210   32.7840   44.9100 C   0  0  0  0  0  0  0  0  0  0  0  0
   58.9020   33.5460   44.4340 C   0  0  0  0  0  0  0  0  0  0  0  0
   59.2014   33.4723   43.3781 H   0  0  0  0  0  0  0  0  0  0  0  0
   59.5980   34.3970   45.2970 C   0  0  0  0  0  0  0  0  0  0  0  0
   60.4454   34.9886   44.9202 H   0  0  0  0  0  0  0  0  0  0  0  0
   59.2180   34.4970   46.6390 C   0  0  0  0  0  0  0  0  0  0  0  0
   59.8740   35.3450   47.4740 F   0  0  0  0  0  0  0  0  0  0  0  0
   58.1470   33.7370   47.1230 C   0  0  0  0  0  0  0  0  0  0  0  0
   57.8540   33.8099   48.1807 H   0  0  0  0  0  0  0  0  0  0  0  0
   57.4490   32.8840   46.2600 C   0  0  0  0  0  0  0  0  0  0  0  0
   56.6056   32.2896   46.6412 H   0  0  0  0  0  0  0  0  0  0  0  0
   56.9080   28.5170   44.7980 N   0  0  0  0  0  0  0  0  0  0  0  0
   57.6030   27.4780   45.3280 C   0  0  0  0  0  0  0  0  0  0  0  0
   57.4489   26.4610   44.9382 H   0  0  0  0  0  0  0  0  0  0  0  0
   58.5130   27.6940   46.3660 C   0  0  0  0  0  0  0  0  0  0  0  0
   59.4950   26.3380   46.9050 Cl  0  0  0  0  0  0  0  0  0  0  0  0
   59.6530   28.5620   49.1480 C   0  0  0  0  0  0  0  0  0  0  0  0
   59.0626   27.6370   49.2242 H   0  0  0  0  0  0  0  0  0  0  0  0
   60.4700   28.9280   50.1720 N   0  0  0  0  0  0  0  0  0  0  0  0
   60.5250   28.3240   51.0160 H   0  0  0  0  0  0  0  0  0  0  0  0
   61.1930   30.0780   50.1360 C   0  0  0  0  0  0  0  0  0  0  0  0
   61.8665   30.3295   50.9686 H   0  0  0  0  0  0  0  0  0  0  0  0
   61.1370   33.4360   49.4970 C   0  0  0  0  0  0  0  0  0  0  0  0
   60.6755   33.2769   50.4828 H   0  0  0  0  0  0  0  0  0  0  0  0
   60.3379   33.7750   48.8214 H   0  0  0  0  0  0  0  0  0  0  0  0
   62.2660   34.4540   49.5950 C   0  0  0  0  0  0  0  0  0  0  0  0
   62.6046   34.5522   50.6370 H   0  0  0  0  0  0  0  0  0  0  0  0
   61.9424   35.4523   49.2655 H   0  0  0  0  0  0  0  0  0  0  0  0
   63.3920   33.9080   48.7180 C   0  0  0  0  0  0  0  0  0  0  0  0
   64.3707   34.1254   49.1706 H   0  0  0  0  0  0  0  0  0  0  0  0
   63.3895   34.3690   47.7193 H   0  0  0  0  0  0  0  0  0  0  0  0
  1  2  1  0
  2  3  1  0
  3  4  1  0
  3  5  1  0
  3  6  1  0
  6  7  1  1
  6  8  1  0
  8  9  1  0
  9 10  2  0
 10 11  1  0
 10 12  1  0
 12 13  1  0
 13 14  2  0
 14 15  1  0
 15 16  2  0
 16 17  1  0
 17 18  1  0
 17 19  1  0
 17 20  1  0
 20 21  2  0
 21 22  1  0
 21 23  1  0
 23 24  1  0
 23 25  2  0
 25 26  1  0
 25 27  1  0
 27 28  1  0
 27 29  2  0
 29 30  1  0
 15 31  1  0
 31 32  1  0
 32 33  1  0
 32 34  2  0
 34 35  1  0
 12 36  2  0
 36 37  1  0
 36 38  1  0
 38 39  1  0
 38 40  2  0
 40 41  1  0
  8 42  1  0
 42 43  1  0
 42 44  1  0
 42 45  1  0
 45 46  1  0
 45 47  1  0
 45 48  1  0
 48 49  1  0
 48 50  1  0
 48  6  1  0
 40  9  1  0
 34 13  1  0
 29 20  1  0
M  CHG  2  31  -1  38   1
M  END
>  <UniqueID>  (37) 
35

>  <SMILES>  (37) 
OC[C@H]1CCCN1c1c[nH+]cc(-c2n/c(=N\Cc3ccc(F)cc3)[n-]cc2Cl)c1

>  <Energy>  (37) 
61.39796258865245

>  <Genealogy>  (37) 
OCC1CCCN1c1c[nH+]cc(-c2nc(=NCc3ccc(F)cc3)[n-]cc2Cl)c1 (protonated)
OC[C@H]1CCCN1c1c[nH+]cc(-c2nc(=NCc3ccc(F)cc3)[n-]cc2Cl)c1 (chirality)
OC[C@H]1CCCN1c1c[nH+]cc(-c2n/c(=N\Cc3ccc(F)cc3)[n-]cc2Cl)c1 (cis-trans isomerization)
OC[C@H]1CCCN1c1c[nH+]cc(-c2n/c(=N\Cc3ccc(F)cc3)[n-]cc2Cl)c1 (3D coordinates assigned)
OC[C@H]1CCCN1c1c[nH+]cc(-c2n/c(=N\Cc3ccc(F)cc3)[n-]cc2Cl)c1 (nonaromatic ring conformer: 61.39796258865245 kcal/mol)

>  <smiles>  (37) 
OCC1CCCN1c1cncc(-c2nc(=NCc3ccc(F)cc3)[nH]cc2Cl)c1

>  <score_type>  (37) 
oracle

>  <origin>  (37) 
adg

>  <m_score__min__energy>  (37) 
-8.9199999999999999

>  <m_primary>  (37) 
energy

$$$$
37:0
     RDKit          3D

 55 58  0  0  0  0  0  0  0  0999 V2000
   59.6550   33.6530   49.5060 C   0  0  0  0  0  0  0  0  0  0  0  0
   61.1750   33.4810   49.5650 C   0  0  0  0  0  0  0  0  0  0  0  0
   61.6030   32.0830   49.3030 N   0  0  0  0  0  0  0  0  0  0  0  0
   62.9020   32.0060   48.5700 C   0  0  0  0  0  0  0  0  0  0  0  0
   63.0510   33.1240   47.5310 C   0  0  0  0  0  0  0  0  0  0  0  0
   60.5340   31.3130   48.6140 C   0  0  0  0  0  0  0  0  0  0  0  0
   61.0380   30.2840   47.5710 C   0  0  0  0  0  0  0  0  0  0  0  0
   59.9780   29.9070   46.6280 N   0  0  0  0  0  0  0  0  0  0  0  0
   59.2450   28.7530   46.5900 C   0  0  0  0  0  0  0  0  0  0  0  0
   59.3920   27.6160   47.3890 C   0  0  0  0  0  0  0  0  0  0  0  0
   58.4480   26.5820   47.2650 C   0  0  0  0  0  0  0  0  0  0  0  0
   57.3470   26.6910   46.3740 C   0  0  0  0  0  0  0  0  0  0  0  0
   56.3560   25.5850   46.2840 C   0  0  0  0  0  0  0  0  0  0  0  0
   56.7530   24.1480   46.4510 C   0  0  0  0  0  0  0  0  0  0  0  0
   55.1430   25.8490   46.0610 O   0  0  0  0  0  0  0  0  0  0  0  0
   57.2060   27.8600   45.5890 C   0  0  0  0  0  0  0  0  0  0  0  0
   58.1790   28.8510   45.7000 C   0  0  0  0  0  0  0  0  0  0  0  0
   58.2880   30.1100   45.1560 C   0  0  0  0  0  0  0  0  0  0  0  0
   59.3470   30.7070   45.7370 C   0  0  0  0  0  0  0  0  0  0  0  0
   59.1570   32.0680   45.6290 C   0  0  0  0  0  0  0  0  0  0  0  0
   59.8260   33.1640   46.1710 C   0  0  0  0  0  0  0  0  0  0  0  0
   59.2820   34.4390   45.9470 C   0  0  0  0  0  0  0  0  0  0  0  0
   58.0780   34.5910   45.2290 C   0  0  0  0  0  0  0  0  0  0  0  0
   57.3940   33.4700   44.7280 C   0  0  0  0  0  0  0  0  0  0  0  0
   57.9570   32.2050   44.9320 C   0  0  0  0  0  0  0  0  0  0  0  0
   57.4060   30.9910   44.6380 N   0  0  0  0  0  0  0  0  0  0  0  0
   56.0500   30.7130   44.1670 C   0  0  0  0  0  0  0  0  0  0  0  0
   59.2512   33.6987   50.5282 H   0  0  0  0  0  0  0  0  0  0  0  0
   59.4118   34.5844   48.9737 H   0  0  0  0  0  0  0  0  0  0  0  0
   59.2098   32.7995   48.9737 H   0  0  0  0  0  0  0  0  0  0  0  0
   61.6332   34.1369   48.8101 H   0  0  0  0  0  0  0  0  0  0  0  0
   61.5004   33.7436   50.5824 H   0  0  0  0  0  0  0  0  0  0  0  0
   61.7060   31.6150   50.2360 H   0  0  0  0  0  0  0  0  0  0  0  0
   63.7237   32.0868   49.2969 H   0  0  0  0  0  0  0  0  0  0  0  0
   62.9308   31.0446   48.0363 H   0  0  0  0  0  0  0  0  0  0  0  0
   63.1794   34.0878   48.0453 H   0  0  0  0  0  0  0  0  0  0  0  0
   63.9305   32.9244   46.9012 H   0  0  0  0  0  0  0  0  0  0  0  0
   62.1499   33.1617   46.9012 H   0  0  0  0  0  0  0  0  0  0  0  0
   59.9576   30.7705   49.3779 H   0  0  0  0  0  0  0  0  0  0  0  0
   59.9355   32.0485   48.0565 H   0  0  0  0  0  0  0  0  0  0  0  0
   61.8748   30.7253   47.0097 H   0  0  0  0  0  0  0  0  0  0  0  0
   61.3589   29.3790   48.1077 H   0  0  0  0  0  0  0  0  0  0  0  0
   60.2278   27.5321   48.0992 H   0  0  0  0  0  0  0  0  0  0  0  0
   58.5641   25.6705   47.8698 H   0  0  0  0  0  0  0  0  0  0  0  0
   56.8193   23.9081   47.5225 H   0  0  0  0  0  0  0  0  0  0  0  0
   55.9997   23.5020   45.9765 H   0  0  0  0  0  0  0  0  0  0  0  0
   57.7311   23.9803   45.9765 H   0  0  0  0  0  0  0  0  0  0  0  0
   56.3503   27.9831   44.9088 H   0  0  0  0  0  0  0  0  0  0  0  0
   60.7493   33.0345   46.7547 H   0  0  0  0  0  0  0  0  0  0  0  0
   59.8003   35.3281   46.3355 H   0  0  0  0  0  0  0  0  0  0  0  0
   57.6695   35.5981   45.0591 H   0  0  0  0  0  0  0  0  0  0  0  0
   56.4414   33.5839   44.1898 H   0  0  0  0  0  0  0  0  0  0  0  0
   55.3827   30.5762   45.0307 H   0  0  0  0  0  0  0  0  0  0  0  0
   55.6932   31.5567   43.5580 H   0  0  0  0  0  0  0  0  0  0  0  0
   56.0540   29.7970   43.5580 H   0  0  0  0  0  0  0  0  0  0  0  0
  1  2  1  0
  2  3  1  0
  3  4  1  0
  4  5  1  0
  3  6  1  0
  6  7  1  0
  7  8  1  0
  8  9  1  0
  9 10  2  0
 10 11  1  0
 11 12  2  0
 12 13  1  0
 13 14  1  0
 13 15  2  0
 12 16  1  0
 16 17  2  0
 17 18  1  0
 18 19  2  0
 19 20  1  0
 20 21  2  0
 21 22  1  0
 22 23  2  0
 23 24  1  0
 24 25  2  0
 25 26  1  0
 26 27  1  0
 19  8  1  0
 25 20  1  0
 17  9  1  0
 26 18  1  0
  1 28  1  0
  1 29  1  0
  1 30  1  0
  2 31  1  0
  2 32  1  0
  3 33  1  0
  4 34  1  0
  4 35  1  0
  5 36  1  0
  5 37  1  0
  5 38  1  0
  6 39  1  0
  6 40  1  0
  7 41  1  0
  7 42  1  0
 10 43  1  0
 11 44  1  0
 14 45  1  0
 14 46  1  0
 14 47  1  0
 16 48  1  0
 21 49  1  0
 22 50  1  0
 23 51  1  0
 24 52  1  0
 27 53  1  0
 27 54  1  0
 27 55  1  0
M  CHG  1   3   1
M  END
>  <UniqueID>  (38) 
36

>  <SMILES>  (38) 
CC[NH+](CC)CCn1c2ccc(C(C)=O)cc2c2c1c1ccccc1n2C

>  <Energy>  (38) 
162.69684363877366

>  <Genealogy>  (38) 
CC[NH+](CC)CCn1c2ccc(C(C)=O)cc2c2c1c1ccccc1n2C (protonated)
CC[NH+](CC)CCn1c2ccc(C(C)=O)cc2c2c1c1ccccc1n2C (3D coordinates assigned)
CC[NH+](CC)CCn1c2ccc(C(C)=O)cc2c2c1c1ccccc1n2C (optimized conformer: 162.69684363877366 kcal/mol)

>  <smiles>  (38) 
CCN(CC)CCn1c2ccc(C(C)=O)cc2c2c1c1ccccc1n2C

>  <score_type>  (38) 
oracle

>  <origin>  (38) 
adg

>  <m_score__min__energy>  (38) 
-7.4800000000000004

>  <m_primary>  (38) 
energy

$$$$
38:0
     RDKit          3D

 65 69  0  0  0  0  0  0  0  0999 V2000
   57.5320   26.7500   45.4800 C   0  0  0  0  0  0  0  0  0  0  0  0
   57.0230   28.0560   45.7290 O   0  0  0  0  0  0  0  0  0  0  0  0
   57.2560   29.1730   44.9110 C   0  0  0  0  0  0  0  0  0  0  0  0
   56.4610   29.4430   43.7780 C   0  0  0  0  0  0  0  0  0  0  0  0
   56.7010   30.5780   43.0010 C   0  0  0  0  0  0  0  0  0  0  0  0
   57.7330   31.4540   43.3400 C   0  0  0  0  0  0  0  0  0  0  0  0
   58.5300   31.1960   44.4560 C   0  0  0  0  0  0  0  0  0  0  0  0
   58.3020   30.0560   45.2440 C   0  0  0  0  0  0  0  0  0  0  0  0
   59.1470   29.8000   46.3790 N   0  0  0  0  0  0  0  0  0  0  0  0
   60.5360   30.2740   46.3830 C   0  0  0  0  0  0  0  0  0  0  0  0
   61.0690   30.3660   47.8160 C   0  0  0  0  0  0  0  0  0  0  0  0
   60.0310   30.9500   48.6870 N   0  0  0  0  0  0  0  0  0  0  0  0
   60.6040   31.2940   50.0060 C   0  0  0  0  0  0  0  0  0  0  0  0
   59.7560   32.3570   50.7230 C   0  0  0  0  0  0  0  0  0  0  0  0
   60.1610   33.7830   50.3300 C   0  0  0  0  0  0  0  0  0  0  0  0
   60.9590   33.7790   49.1040 N   0  0  0  0  0  0  0  0  0  0  0  0
   60.6750   33.8290   47.7810 C   0  0  0  0  0  0  0  0  0  0  0  0
   59.4750   33.9220   46.9260 C   0  0  0  0  0  0  0  0  0  0  0  0
   59.5650   34.5660   45.6800 C   0  0  0  0  0  0  0  0  0  0  0  0
   58.4450   34.6620   44.8490 C   0  0  0  0  0  0  0  0  0  0  0  0
   57.2270   34.1090   45.2500 C   0  0  0  0  0  0  0  0  0  0  0  0
   57.1310   33.4520   46.4790 C   0  0  0  0  0  0  0  0  0  0  0  0
   58.2500   33.3550   47.3130 C   0  0  0  0  0  0  0  0  0  0  0  0
   62.0110   33.7660   47.5130 C   0  0  0  0  0  0  0  0  0  0  0  0
   62.2670   33.6980   48.8340 N   0  0  0  0  0  0  0  0  0  0  0  0
   63.4850   33.5740   49.5870 C   0  0  0  0  0  0  0  0  0  0  0  0
   64.5650   32.8120   49.1070 C   0  0  0  0  0  0  0  0  0  0  0  0
   65.7430   32.7070   49.8540 C   0  0  0  0  0  0  0  0  0  0  0  0
   65.8520   33.3540   51.0870 C   0  0  0  0  0  0  0  0  0  0  0  0
   64.7810   34.1030   51.5780 C   0  0  0  0  0  0  0  0  0  0  0  0
   63.6010   34.2110   50.8340 C   0  0  0  0  0  0  0  0  0  0  0  0
   58.8510   30.0520   48.8210 C   0  0  0  0  0  0  0  0  0  0  0  0
   58.6040   29.1670   47.5830 C   0  0  0  0  0  0  0  0  0  0  0  0
   57.7290   26.2446   46.4370 H   0  0  0  0  0  0  0  0  0  0  0  0
   56.7933   26.1720   44.9053 H   0  0  0  0  0  0  0  0  0  0  0  0
   58.4670   26.8243   44.9053 H   0  0  0  0  0  0  0  0  0  0  0  0
   55.6470   28.7554   43.5047 H   0  0  0  0  0  0  0  0  0  0  0  0
   56.0752   30.7821   42.1197 H   0  0  0  0  0  0  0  0  0  0  0  0
   57.9183   32.3484   42.7271 H   0  0  0  0  0  0  0  0  0  0  0  0
   59.3418   31.8897   44.7202 H   0  0  0  0  0  0  0  0  0  0  0  0
   61.1594   29.5721   45.8096 H   0  0  0  0  0  0  0  0  0  0  0  0
   60.5712   31.2740   45.9262 H   0  0  0  0  0  0  0  0  0  0  0  0
   61.3277   29.3596   48.1769 H   0  0  0  0  0  0  0  0  0  0  0  0
   61.9660   31.0024   47.8349 H   0  0  0  0  0  0  0  0  0  0  0  0
   60.6425   30.3872   50.6275 H   0  0  0  0  0  0  0  0  0  0  0  0
   61.6136   31.7021   49.8503 H   0  0  0  0  0  0  0  0  0  0  0  0
   58.6990   32.2037   50.4597 H   0  0  0  0  0  0  0  0  0  0  0  0
   59.9193   32.2457   51.8051 H   0  0  0  0  0  0  0  0  0  0  0  0
   59.2537   34.3834   50.1674 H   0  0  0  0  0  0  0  0  0  0  0  0
   60.7656   34.2134   51.1419 H   0  0  0  0  0  0  0  0  0  0  0  0
   60.5236   34.9976   45.3564 H   0  0  0  0  0  0  0  0  0  0  0  0
   58.5232   35.1736   43.8784 H   0  0  0  0  0  0  0  0  0  0  0  0
   56.3442   34.1907   44.5988 H   0  0  0  0  0  0  0  0  0  0  0  0
   56.1735   33.0100   46.7917 H   0  0  0  0  0  0  0  0  0  0  0  0
   58.1698   32.8317   48.2772 H   0  0  0  0  0  0  0  0  0  0  0  0
   62.6237   33.7693   46.5995 H   0  0  0  0  0  0  0  0  0  0  0  0
   64.4831   32.2958   48.1391 H   0  0  0  0  0  0  0  0  0  0  0  0
   66.5855   32.1135   49.4694 H   0  0  0  0  0  0  0  0  0  0  0  0
   66.7809   33.2735   51.6707 H   0  0  0  0  0  0  0  0  0  0  0  0
   64.8650   34.6089   52.5511 H   0  0  0  0  0  0  0  0  0  0  0  0
   62.7586   34.7985   51.2279 H   0  0  0  0  0  0  0  0  0  0  0  0
   59.0096   29.3970   49.6904 H   0  0  0  0  0  0  0  0  0  0  0  0
   57.9673   30.6965   48.9378 H   0  0  0  0  0  0  0  0  0  0  0  0
   59.0937   28.1932   47.7314 H   0  0  0  0  0  0  0  0  0  0  0  0
   57.5199   29.0326   47.4543 H   0  0  0  0  0  0  0  0  0  0  0  0
  1  2  1  0
  2  3  1  0
  3  4  2  0
  4  5  1  0
  5  6  2  0
  6  7  1  0
  7  8  2  0
  8  9  1  0
  9 10  1  0
 10 11  1  0
 11 12  1  0
 12 13  1  0
 13 14  1  0
 14 15  1  0
 15 16  1  0
 16 17  1  0
 17 18  1  0
 18 19  2  0
 19 20  1  0
 20 21  2  0
 21 22  1  0
 22 23  2  0
 17 24  2  0
 24 25  1  0
 25 26  1  0
 26 27  2  0
 27 28  1  0
 28 29  2  0
 29 30  1  0
 30 31  2  0
 12 32  1  0
 32 33  1  0
  8  3  1  0
 33  9  1  0
 25 16  1  0
 31 26  1  0
 23 18  1  0
  1 34  1  0
  1 35  1  0
  1 36  1  0
  4 37  1  0
  5 38  1  0
  6 39  1  0
  7 40  1  0
 10 41  1  0
 10 42  1  0
 11 43  1  0
 11 44  1  0
 13 45  1  0
 13 46  1  0
 14 47  1  0
 14 48  1  0
 15 49  1  0
 15 50  1  0
 19 51  1  0
 20 52  1  0
 21 53  1  0
 22 54  1  0
 23 55  1  0
 24 56  1  0
 27 57  1  0
 28 58  1  0
 29 59  1  0
 30 60  1  0
 31 61  1  0
 32 62  1  0
 32 63  1  0
 33 64  1  0
 33 65  1  0
M  END
>  <UniqueID>  (39) 
37

>  <SMILES>  (39) 
COc1ccccc1N1CCN(CCCn2c(-c3ccccc3)cn2-c2ccccc2)CC1

>  <Energy>  (39) 
69.06078090336571

>  <Genealogy>  (39) 
COc1ccccc1N1CCN(CCCn2c(-c3ccccc3)cn2-c2ccccc2)CC1 (3D coordinates assigned)
COc1ccccc1N1CCN(CCCn2c(-c3ccccc3)cn2-c2ccccc2)CC1 (nonaromatic ring conformer: 69.06078090336571 kcal/mol)

>  <smiles>  (39) 
COc1ccccc1N1CCN(CCCn2c(-c3ccccc3)cn2-c2ccccc2)CC1

>  <score_type>  (39) 
oracle

>  <origin>  (39) 
adg

>  <m_score__min__energy>  (39) 
-8.8800000000000008

>  <m_primary>  (39) 
energy

$$$$
39:0
     RDKit          3D

 32 33  0  0  0  0  0  0  0  0999 V2000
   59.0773   35.2684   44.5292 H   0  0  0  0  0  0  0  0  0  0  0  0
   58.9280   34.4510   45.2500 C   0  0  0  0  0  0  0  0  0  0  0  0
   59.2150   34.6830   46.5410 C   0  0  0  0  0  0  0  0  0  0  0  0
   58.4682   35.2102   47.1529 H   0  0  0  0  0  0  0  0  0  0  0  0
   60.4850   34.2670   47.1880 C   0  0  0  0  0  0  0  0  0  0  0  0
   60.6460   34.2220   48.5870 C   0  0  0  0  0  0  0  0  0  0  0  0
   59.8116   34.5122   49.2424 H   0  0  0  0  0  0  0  0  0  0  0  0
   61.8590   33.8110   49.1480 C   0  0  0  0  0  0  0  0  0  0  0  0
   61.9780   33.7950   50.2414 H   0  0  0  0  0  0  0  0  0  0  0  0
   62.9250   33.4190   48.3250 C   0  0  0  0  0  0  0  0  0  0  0  0
   64.2370   33.0160   48.9270 C   0  0  0  0  0  0  0  0  0  0  0  0
   64.1598   33.0397   50.0240 H   0  0  0  0  0  0  0  0  0  0  0  0
   64.4934   31.9977   48.5994 H   0  0  0  0  0  0  0  0  0  0  0  0
   65.0208   33.7148   48.5994 H   0  0  0  0  0  0  0  0  0  0  0  0
   62.7700   33.4640   46.9330 C   0  0  0  0  0  0  0  0  0  0  0  0
   63.6067   33.1762   46.2794 H   0  0  0  0  0  0  0  0  0  0  0  0
   61.5570   33.8730   46.3710 C   0  0  0  0  0  0  0  0  0  0  0  0
   61.4411   33.8863   45.2772 H   0  0  0  0  0  0  0  0  0  0  0  0
   58.4200   33.1510   44.7420 C   0  0  0  0  0  0  0  0  0  0  0  0
   58.1610   32.1240   45.6640 C   0  0  0  0  0  0  0  0  0  0  0  0
   58.3435   32.2954   46.7351 H   0  0  0  0  0  0  0  0  0  0  0  0
   57.6740   30.8870   45.2350 C   0  0  0  0  0  0  0  0  0  0  0  0
   57.4740   30.0928   45.9694 H   0  0  0  0  0  0  0  0  0  0  0  0
   57.4390   30.6530   43.8730 C   0  0  0  0  0  0  0  0  0  0  0  0
   56.8780   29.3390   43.4170 C   0  0  0  0  0  0  0  0  0  0  0  0
   56.6170   28.7277   44.2935 H   0  0  0  0  0  0  0  0  0  0  0  0
   55.9767   29.5154   42.8115 H   0  0  0  0  0  0  0  0  0  0  0  0
   57.6288   28.8101   42.8115 H   0  0  0  0  0  0  0  0  0  0  0  0
   57.6610   31.6850   42.9500 C   0  0  0  0  0  0  0  0  0  0  0  0
   57.4502   31.5192   41.8832 H   0  0  0  0  0  0  0  0  0  0  0  0
   58.1490   32.9240   43.3780 C   0  0  0  0  0  0  0  0  0  0  0  0
   58.3223   33.7260   42.6454 H   0  0  0  0  0  0  0  0  0  0  0  0
  1  2  1  0
  2  3  2  0
  3  4  1  0
  3  5  1  0
  5  6  2  0
  6  7  1  0
  6  8  1  0
  8  9  1  0
  8 10  2  0
 10 11  1  0
 11 12  1  0
 11 13  1  0
 11 14  1  0
 10 15  1  0
 15 16  1  0
 15 17  2  0
 17 18  1  0
  2 19  1  0
 19 20  2  0
 20 21  1  0
 20 22  1  0
 22 23  1  0
 22 24  2  0
 24 25  1  0
 25 26  1  0
 25 27  1  0
 25 28  1  0
 24 29  1  0
 29 30  1  0
 29 31  2  0
 31 32  1  0
 17  5  1  0
 31 19  1  0
M  END
>  <UniqueID>  (40) 
38

>  <SMILES>  (40) 
Cc1ccc(/C=C/c2ccc(C)cc2)cc1

>  <Energy>  (40) 
35.846987264878216

>  <Genealogy>  (40) 
Cc1ccc(/C=C/c2ccc(C)cc2)cc1 (cis-trans isomerization)
Cc1ccc(/C=C/c2ccc(C)cc2)cc1 (3D coordinates assigned)
Cc1ccc(/C=C/c2ccc(C)cc2)cc1 (optimized conformer: 35.846987264878216 kcal/mol)

>  <smiles>  (40) 
Cc1ccc(C=Cc2ccc(C)cc2)cc1

>  <score_type>  (40) 
oracle

>  <origin>  (40) 
adg

>  <m_score__min__energy>  (40) 
-6.8799999999999999

>  <m_primary>  (40) 
energy

$$$$
40:0
     RDKit          3D

 30 32  0  0  0  0  0  0  0  0999 V2000
   59.6264   35.2622   46.7545 H   0  0  0  0  0  0  0  0  0  0  0  0
   59.0980   34.4570   46.2230 C   0  0  0  0  0  0  0  0  0  0  0  0
   59.0870   34.4330   44.8270 C   0  0  0  0  0  0  0  0  0  0  0  0
   59.6010   35.2232   44.2601 H   0  0  0  0  0  0  0  0  0  0  0  0
   58.4230   33.4050   44.1480 C   0  0  0  0  0  0  0  0  0  0  0  0
   58.4097   33.3948   43.0481 H   0  0  0  0  0  0  0  0  0  0  0  0
   57.7720   32.3840   44.8660 C   0  0  0  0  0  0  0  0  0  0  0  0
   57.0520   31.2930   44.1660 C   0  0  0  0  0  0  0  0  0  0  0  0
   57.2530   31.1140   42.9360 O   0  0  0  0  0  0  0  0  0  0  0  0
   56.1180   30.4390   44.8370 N   0  0  0  0  0  0  0  0  0  0  0  0
   55.9990   29.2070   44.5460 N   0  0  0  0  0  0  0  0  0  0  0  0
   56.7400   28.1990   45.2380 C   0  0  0  0  0  0  0  0  0  0  0  0
   56.2520   27.0730   45.8900 C   0  0  0  0  0  0  0  0  0  0  0  0
   54.9130   26.7130   45.9940 O   0  0  0  0  0  0  0  0  0  0  0  0
   57.2620   26.3510   46.4250 N   0  0  0  0  0  0  0  0  0  0  0  0
   57.1840   25.4620   46.9670 H   0  0  0  0  0  0  0  0  0  0  0  0
   58.3880   27.0210   46.1100 C   0  0  0  0  0  0  0  0  0  0  0  0
   59.6980   26.6740   46.4380 C   0  0  0  0  0  0  0  0  0  0  0  0
   59.9163   25.7661   47.0195 H   0  0  0  0  0  0  0  0  0  0  0  0
   60.7320   27.5230   46.0010 C   0  0  0  0  0  0  0  0  0  0  0  0
   61.7770   27.2785   46.2421 H   0  0  0  0  0  0  0  0  0  0  0  0
   60.4390   28.6870   45.2550 C   0  0  0  0  0  0  0  0  0  0  0  0
   61.2572   29.3419   44.9207 H   0  0  0  0  0  0  0  0  0  0  0  0
   59.1080   29.0140   44.9370 C   0  0  0  0  0  0  0  0  0  0  0  0
   58.8668   29.9162   44.3558 H   0  0  0  0  0  0  0  0  0  0  0  0
   58.1060   28.1550   45.3840 C   0  0  0  0  0  0  0  0  0  0  0  0
   57.7740   32.4300   46.2720 C   0  0  0  0  0  0  0  0  0  0  0  0
   57.2495   31.6514   46.8454 H   0  0  0  0  0  0  0  0  0  0  0  0
   58.4390   33.4600   46.9450 C   0  0  0  0  0  0  0  0  0  0  0  0
   58.4429   33.4847   48.0447 H   0  0  0  0  0  0  0  0  0  0  0  0
  1  2  1  0
  2  3  2  0
  3  4  1  0
  3  5  1  0
  5  6  1  0
  5  7  2  0
  7  8  1  0
  8  9  2  0
  8 10  1  0
 10 11  2  0
 11 12  1  0
 12 13  2  0
 13 14  1  0
 13 15  1  0
 15 16  1  0
 15 17  1  0
 17 18  2  0
 18 19  1  0
 18 20  1  0
 20 21  1  0
 20 22  2  0
 22 23  1  0
 22 24  1  0
 24 25  1  0
 24 26  2  0
  7 27  1  0
 27 28  1  0
 27 29  2  0
 29 30  1  0
 29  2  1  0
 26 12  1  0
 26 17  1  0
M  CHG  1  14  -1
M  END
>  <UniqueID>  (41) 
39

>  <SMILES>  (41) 
O=C(/N=N/c1c([O-])[nH]c2ccccc12)c1ccccc1

>  <Energy>  (41) 
71.44474310374744

>  <Genealogy>  (41) 
O=C(N=Nc1c([O-])[nH]c2ccccc12)c1ccccc1 (protonated)
O=C(/N=N/c1c([O-])[nH]c2ccccc12)c1ccccc1 (cis-trans isomerization)
O=C(/N=N/c1c([O-])[nH]c2ccccc12)c1ccccc1 (3D coordinates assigned)
O=C(/N=N/c1c([O-])[nH]c2ccccc12)c1ccccc1 (optimized conformer: 71.44474310374744 kcal/mol)

>  <smiles>  (41) 
O=C(N=Nc1c(O)[nH]c2ccccc12)c1ccccc1

>  <score_type>  (41) 
oracle

>  <origin>  (41) 
adg

>  <m_score__min__energy>  (41) 
-11.9

>  <m_primary>  (41) 
energy

$$$$
41:0
     RDKit          3D

 29 30  0  0  0  0  0  0  0  0999 V2000
   59.6290   35.2780   46.1930 C   0  0  0  0  0  0  0  0  0  0  0  0
   59.2030   34.6760   44.8610 C   0  0  0  0  0  0  0  0  0  0  0  0
   57.4300   34.2350   44.8800 S   0  0  0  0  0  0  0  0  0  0  0  0
   57.7100   32.5020   45.2400 C   0  0  0  0  0  0  0  0  0  0  0  0
   56.8820   31.5100   44.8660 N   0  0  0  0  0  0  0  0  0  0  0  0
   57.4270   30.3890   45.3090 N   0  0  0  0  0  0  0  0  0  0  0  0
   58.5690   30.7440   45.9290 C   0  0  0  0  0  0  0  0  0  0  0  0
   59.5010   29.7810   46.5890 C   0  0  0  0  0  0  0  0  0  0  0  0
   60.1170   30.3910   47.7670 N   0  0  0  0  0  0  0  0  0  0  0  0
   61.1040   31.4460   47.7160 C   0  0  0  0  0  0  0  0  0  0  0  0
   62.3750   31.2250   47.1450 C   0  0  0  0  0  0  0  0  0  0  0  0
   63.3240   32.2500   47.1000 C   0  0  0  0  0  0  0  0  0  0  0  0
   63.0230   33.5070   47.6230 C   0  0  0  0  0  0  0  0  0  0  0  0
   61.7730   33.7440   48.1930 C   0  0  0  0  0  0  0  0  0  0  0  0
   60.8120   32.7260   48.2430 C   0  0  0  0  0  0  0  0  0  0  0  0
   59.2500   33.1040   48.9620 Cl  0  0  0  0  0  0  0  0  0  0  0  0
   58.7480   32.0430   45.8930 O   0  0  0  0  0  0  0  0  0  0  0  0
   59.2075   34.6824   47.0161 H   0  0  0  0  0  0  0  0  0  0  0  0
   60.7268   35.2745   46.2626 H   0  0  0  0  0  0  0  0  0  0  0  0
   59.2605   36.3121   46.2626 H   0  0  0  0  0  0  0  0  0  0  0  0
   59.3829   35.4090   44.0608 H   0  0  0  0  0  0  0  0  0  0  0  0
   59.7899   33.7624   44.6853 H   0  0  0  0  0  0  0  0  0  0  0  0
   58.9395   28.8864   46.8963 H   0  0  0  0  0  0  0  0  0  0  0  0
   60.2920   29.5055   45.8760 H   0  0  0  0  0  0  0  0  0  0  0  0
   59.7960   30.0330   48.6940 H   0  0  0  0  0  0  0  0  0  0  0  0
   62.6215   30.2361   46.7311 H   0  0  0  0  0  0  0  0  0  0  0  0
   64.3109   32.0646   46.6509 H   0  0  0  0  0  0  0  0  0  0  0  0
   63.7720   34.3118   47.5858 H   0  0  0  0  0  0  0  0  0  0  0  0
   61.5399   34.7365   48.6060 H   0  0  0  0  0  0  0  0  0  0  0  0
  1  2  1  0
  2  3  1  0
  3  4  1  0
  4  5  2  0
  5  6  1  0
  6  7  2  0
  7  8  1  0
  8  9  1  0
  9 10  1  0
 10 11  2  0
 11 12  1  0
 12 13  2  0
 13 14  1  0
 14 15  2  0
 15 16  1  0
  7 17  1  0
 17  4  1  0
 15 10  1  0
  1 18  1  0
  1 19  1  0
  1 20  1  0
  2 21  1  0
  2 22  1  0
  8 23  1  0
  8 24  1  0
  9 25  1  0
 11 26  1  0
 12 27  1  0
 13 28  1  0
 14 29  1  0
M  END
>  <UniqueID>  (42) 
40

>  <SMILES>  (42) 
CCSc1nnc(CNc2ccccc2Cl)o1

>  <Energy>  (42) 
57.96896055409152

>  <Genealogy>  (42) 
CCSc1nnc(CNc2ccccc2Cl)o1 (3D coordinates assigned)
CCSc1nnc(CNc2ccccc2Cl)o1 (optimized conformer: 57.96896055409152 kcal/mol)

>  <smiles>  (42) 
CCSc1nnc(CNc2ccccc2Cl)o1

>  <score_type>  (42) 
oracle

>  <origin>  (42) 
adg

>  <m_score__min__energy>  (42) 
-6.5300000000000002

>  <m_primary>  (42) 
energy

$$$$
42:0
     RDKit          3D

 49 52  0  0  0  0  0  0  0  0999 V2000
   62.9780   33.8130   46.7010 C   0  0  0  0  0  0  0  0  0  0  0  0
   63.2540   33.0330   47.9580 C   0  0  0  0  0  0  0  0  0  0  0  0
   64.5150   33.1580   48.5690 C   0  0  0  0  0  0  0  0  0  0  0  0
   64.8160   32.4520   49.7350 C   0  0  0  0  0  0  0  0  0  0  0  0
   66.5340   32.6360   50.5500 Br  0  0  0  0  0  0  0  0  0  0  0  0
   63.8610   31.6100   50.3050 C   0  0  0  0  0  0  0  0  0  0  0  0
   62.6060   31.4730   49.7110 C   0  0  0  0  0  0  0  0  0  0  0  0
   62.2840   32.1760   48.5390 C   0  0  0  0  0  0  0  0  0  0  0  0
   60.9760   31.9950   47.9730 N   0  0  0  0  0  0  0  0  0  0  0  0
   60.2160   30.8510   47.4280 C   0  0  0  0  0  0  0  0  0  0  0  0
   58.9730   31.6230   47.0980 C   0  0  0  0  0  0  0  0  0  0  0  0
   58.6470   31.7820   45.6250 C   0  0  0  0  0  0  0  0  0  0  0  0
   58.4300   33.0200   45.0990 N   0  0  0  0  0  0  0  0  0  0  0  0
   58.1290   33.1970   43.7880 C   0  0  0  0  0  0  0  0  0  0  0  0
   58.0340   32.0880   42.9510 C   0  0  0  0  0  0  0  0  0  0  0  0
   58.2290   30.8440   43.4640 N   0  0  0  0  0  0  0  0  0  0  0  0
   58.5180   30.6580   44.7830 C   0  0  0  0  0  0  0  0  0  0  0  0
   58.6730   29.3240   45.2890 N   0  0  0  0  0  0  0  0  0  0  0  0
   59.9470   28.6260   45.0790 C   0  0  0  0  0  0  0  0  0  0  0  0
   59.8960   27.1970   45.6310 C   0  0  0  0  0  0  0  0  0  0  0  0
   58.6250   26.4830   45.1410 C   0  0  0  0  0  0  0  0  0  0  0  0
   58.5730   25.1200   45.6980 C   0  0  0  0  0  0  0  0  0  0  0  0
   58.5330   24.0500   46.1350 N   0  0  0  0  0  0  0  0  0  0  0  0
   57.3240   27.2640   45.4720 C   0  0  0  0  0  0  0  0  0  0  0  0
   57.5750   28.6780   46.0170 C   0  0  0  0  0  0  0  0  0  0  0  0
   59.7560   32.7690   47.6580 C   0  0  0  0  0  0  0  0  0  0  0  0
   62.6218   34.8197   46.9649 H   0  0  0  0  0  0  0  0  0  0  0  0
   63.9019   33.8943   46.1096 H   0  0  0  0  0  0  0  0  0  0  0  0
   62.2085   33.2951   46.1096 H   0  0  0  0  0  0  0  0  0  0  0  0
   65.2723   33.8195   48.1229 H   0  0  0  0  0  0  0  0  0  0  0  0
   64.0976   31.0534   51.2238 H   0  0  0  0  0  0  0  0  0  0  0  0
   61.8594   30.8059   50.1666 H   0  0  0  0  0  0  0  0  0  0  0  0
   60.6909   30.4118   46.5383 H   0  0  0  0  0  0  0  0  0  0  0  0
   60.1000   29.9725   48.0797 H   0  0  0  0  0  0  0  0  0  0  0  0
   57.9721   31.3097   47.4297 H   0  0  0  0  0  0  0  0  0  0  0  0
   57.9613   34.2084   43.3893 H   0  0  0  0  0  0  0  0  0  0  0  0
   57.8030   32.2174   41.8833 H   0  0  0  0  0  0  0  0  0  0  0  0
   58.1350   30.0180   42.8320 H   0  0  0  0  0  0  0  0  0  0  0  0
   60.1604   28.5863   44.0006 H   0  0  0  0  0  0  0  0  0  0  0  0
   60.7366   29.1763   45.6117 H   0  0  0  0  0  0  0  0  0  0  0  0
   60.7806   26.6422   45.2851 H   0  0  0  0  0  0  0  0  0  0  0  0
   59.8838   27.2372   46.7302 H   0  0  0  0  0  0  0  0  0  0  0  0
   58.6812   26.4323   44.0436 H   0  0  0  0  0  0  0  0  0  0  0  0
   56.7254   27.3472   44.5529 H   0  0  0  0  0  0  0  0  0  0  0  0
   56.8038   26.7024   46.2620 H   0  0  0  0  0  0  0  0  0  0  0  0
   56.6608   29.2783   45.8997 H   0  0  0  0  0  0  0  0  0  0  0  0
   57.8483   28.6053   47.0800 H   0  0  0  0  0  0  0  0  0  0  0  0
   59.9366   33.5611   46.9164 H   0  0  0  0  0  0  0  0  0  0  0  0
   59.2954   33.3314   48.4836 H   0  0  0  0  0  0  0  0  0  0  0  0
  1  2  1  0
  2  3  2  0
  3  4  1  0
  4  5  1  0
  4  6  2  0
  6  7  1  0
  7  8  2  0
  8  9  1  0
  9 10  1  0
 10 11  1  0
 11 12  1  0
 12 13  2  0
 13 14  1  0
 14 15  2  0
 15 16  1  0
 16 17  2  0
 17 18  1  0
 18 19  1  0
 19 20  1  0
 20 21  1  0
 21 22  1  0
 22 23  3  0
 21 24  1  0
 24 25  1  0
 11 26  1  0
  8  2  1  0
 26  9  1  0
 17 12  1  0
 25 18  1  0
  1 27  1  0
  1 28  1  0
  1 29  1  0
  3 30  1  0
  6 31  1  0
  7 32  1  0
 10 33  1  0
 10 34  1  0
 11 35  1  0
 14 36  1  0
 15 37  1  0
 16 38  1  0
 19 39  1  0
 19 40  1  0
 20 41  1  0
 20 42  1  0
 21 43  1  0
 24 44  1  0
 24 45  1  0
 25 46  1  0
 25 47  1  0
 26 48  1  0
 26 49  1  0
M  CHG  1  16   1
M  END
>  <UniqueID>  (43) 
41

>  <SMILES>  (43) 
Cc1cc(Br)ccc1N1CC(c2ncc[nH+]c2N2CCC(C#N)CC2)C1

>  <Energy>  (43) 
105.53268394678484

>  <Genealogy>  (43) 
Cc1cc(Br)ccc1N1CC(c2ncc[nH+]c2N2CCC(C#N)CC2)C1 (protonated)
Cc1cc(Br)ccc1N1CC(c2ncc[nH+]c2N2CCC(C#N)CC2)C1 (3D coordinates assigned)
Cc1cc(Br)ccc1N1CC(c2ncc[nH+]c2N2CCC(C#N)CC2)C1 (nonaromatic ring conformer: 105.53268394678484 kcal/mol)

>  <smiles>  (43) 
Cc1cc(Br)ccc1N1CC(c2nccnc2N2CCC(C#N)CC2)C1

>  <score_type>  (43) 
oracle

>  <origin>  (43) 
adg

>  <m_score__min__energy>  (43) 
-6.54

>  <m_primary>  (43) 
energy

$$$$
43:0
     RDKit          3D

 73 77  0  0  0  0  0  0  0  0999 V2000
   61.6330   29.0070   51.0580 C   0  0  0  0  0  0  0  0  0  0  0  0
   61.9350   29.9440   52.2300 C   0  0  0  0  0  0  0  0  0  0  0  0
   63.2570   30.7150   52.0390 C   0  0  0  0  0  0  0  0  0  0  0  0
   63.0990   32.1360   52.3780 N   0  0  0  0  0  0  0  0  0  0  0  0
   62.8250   32.9530   51.1850 C   0  0  0  0  0  0  0  0  0  0  0  0
   63.1430   32.1510   49.9210 C   0  0  0  0  0  0  0  0  0  0  0  0
   62.4080   32.6880   48.7670 N   0  0  0  0  0  0  0  0  0  0  0  0
   62.9610   33.2540   47.6680 C   0  0  0  0  0  0  0  0  0  0  0  0
   64.3190   33.4660   47.4480 O   0  0  0  0  0  0  0  0  0  0  0  0
   62.0130   33.4710   46.6960 C   0  0  0  0  0  0  0  0  0  0  0  0
   60.8320   32.9740   47.1920 C   0  0  0  0  0  0  0  0  0  0  0  0
   61.0910   32.5570   48.5010 C   0  0  0  0  0  0  0  0  0  0  0  0
   60.1120   31.8040   49.3220 C   0  0  0  0  0  0  0  0  0  0  0  0
   59.7790   32.2590   50.6080 C   0  0  0  0  0  0  0  0  0  0  0  0
   58.8450   31.5540   51.4000 C   0  0  0  0  0  0  0  0  0  0  0  0
   58.5240   31.9650   52.7040 O   0  0  0  0  0  0  0  0  0  0  0  0
   58.8910   33.2090   53.3060 C   0  0  0  0  0  0  0  0  0  0  0  0
   58.2040   30.4200   50.8740 C   0  0  0  0  0  0  0  0  0  0  0  0
   57.1430   29.8650   51.6150 O   0  0  0  0  0  0  0  0  0  0  0  0
   55.9530   30.5620   52.0170 C   0  0  0  0  0  0  0  0  0  0  0  0
   58.5680   29.9590   49.6040 C   0  0  0  0  0  0  0  0  0  0  0  0
   59.4910   30.6530   48.8160 C   0  0  0  0  0  0  0  0  0  0  0  0
   60.0260   29.9730   47.2490 S   0  0  0  0  0  0  0  0  0  0  0  0
   59.2500   31.2600   46.2210 C   0  0  0  0  0  0  0  0  0  0  0  0
   58.4230   30.8680   45.1370 C   0  0  0  0  0  0  0  0  0  0  0  0
   58.1050   29.4360   44.9370 C   0  0  0  0  0  0  0  0  0  0  0  0
   58.9410   28.6410   44.1240 C   0  0  0  0  0  0  0  0  0  0  0  0
   58.7410   27.2680   44.0050 C   0  0  0  0  0  0  0  0  0  0  0  0
   57.7030   26.6630   44.7150 C   0  0  0  0  0  0  0  0  0  0  0  0
   56.8560   27.4460   45.5210 C   0  0  0  0  0  0  0  0  0  0  0  0
   57.0430   28.8290   45.6250 C   0  0  0  0  0  0  0  0  0  0  0  0
   58.1160   31.7920   44.1220 C   0  0  0  0  0  0  0  0  0  0  0  0
   57.4000   31.3340   43.0040 O   0  0  0  0  0  0  0  0  0  0  0  0
   57.3890   31.9920   41.7330 C   0  0  0  0  0  0  0  0  0  0  0  0
   58.5240   33.1320   44.2410 C   0  0  0  0  0  0  0  0  0  0  0  0
   59.2340   33.5580   45.3770 C   0  0  0  0  0  0  0  0  0  0  0  0
   59.4670   34.9300   45.6420 O   0  0  0  0  0  0  0  0  0  0  0  0
   59.3030   35.5650   46.9150 C   0  0  0  0  0  0  0  0  0  0  0  0
   59.6880   32.6100   46.3140 C   0  0  0  0  0  0  0  0  0  0  0  0
   61.3170   28.0267   51.4443 H   0  0  0  0  0  0  0  0  0  0  0  0
   60.8276   29.4360   50.4437 H   0  0  0  0  0  0  0  0  0  0  0  0
   62.5373   28.8849   50.4437 H   0  0  0  0  0  0  0  0  0  0  0  0
   61.1132   30.6692   52.3237 H   0  0  0  0  0  0  0  0  0  0  0  0
   62.0332   29.3279   53.1360 H   0  0  0  0  0  0  0  0  0  0  0  0
   64.0263   30.2745   52.6903 H   0  0  0  0  0  0  0  0  0  0  0  0
   63.5533   30.6406   50.9823 H   0  0  0  0  0  0  0  0  0  0  0  0
   62.2660   32.2270   53.0050 H   0  0  0  0  0  0  0  0  0  0  0  0
   61.7636   33.2418   51.1765 H   0  0  0  0  0  0  0  0  0  0  0  0
   63.4551   33.8543   51.2104 H   0  0  0  0  0  0  0  0  0  0  0  0
   64.2229   32.2075   49.7195 H   0  0  0  0  0  0  0  0  0  0  0  0
   62.8387   31.1058   50.0792 H   0  0  0  0  0  0  0  0  0  0  0  0
   64.9120   32.7900   46.9890 H   0  0  0  0  0  0  0  0  0  0  0  0
   62.1690   33.9474   45.7168 H   0  0  0  0  0  0  0  0  0  0  0  0
   60.2492   33.1720   51.0022 H   0  0  0  0  0  0  0  0  0  0  0  0
   58.8616   33.1092   54.4011 H   0  0  0  0  0  0  0  0  0  0  0  0
   59.9083   33.4832   52.9900 H   0  0  0  0  0  0  0  0  0  0  0  0
   58.1854   33.9915   52.9900 H   0  0  0  0  0  0  0  0  0  0  0  0
   55.8997   30.5932   53.1153 H   0  0  0  0  0  0  0  0  0  0  0  0
   55.9780   31.5882   51.6218 H   0  0  0  0  0  0  0  0  0  0  0  0
   55.0701   30.0383   51.6218 H   0  0  0  0  0  0  0  0  0  0  0  0
   58.1190   29.0320   49.2179 H   0  0  0  0  0  0  0  0  0  0  0  0
   59.7668   29.1153   43.5735 H   0  0  0  0  0  0  0  0  0  0  0  0
   59.3952   26.6659   43.3573 H   0  0  0  0  0  0  0  0  0  0  0  0
   57.5473   25.5764   44.6447 H   0  0  0  0  0  0  0  0  0  0  0  0
   56.0370   26.9652   46.0760 H   0  0  0  0  0  0  0  0  0  0  0  0
   56.3629   29.4355   46.2411 H   0  0  0  0  0  0  0  0  0  0  0  0
   57.3708   33.0814   41.8842 H   0  0  0  0  0  0  0  0  0  0  0  0
   58.2919   31.7152   41.1690 H   0  0  0  0  0  0  0  0  0  0  0  0
   56.4959   31.6851   41.1690 H   0  0  0  0  0  0  0  0  0  0  0  0
   58.2867   33.8500   43.4421 H   0  0  0  0  0  0  0  0  0  0  0  0
   59.4915   34.8349   47.7159 H   0  0  0  0  0  0  0  0  0  0  0  0
   60.0154   36.3985   47.0035 H   0  0  0  0  0  0  0  0  0  0  0  0
   58.2761   35.9493   47.0035 H   0  0  0  0  0  0  0  0  0  0  0  0
  1  2  1  0
  2  3  1  0
  3  4  1  0
  4  5  1  0
  5  6  1  0
  6  7  1  0
  7  8  1  0
  8  9  1  0
  8 10  2  0
 10 11  1  0
 11 12  2  0
 12 13  1  0
 13 14  2  0
 14 15  1  0
 15 16  1  0
 16 17  1  0
 15 18  2  0
 18 19  1  0
 19 20  1  0
 18 21  1  0
 21 22  2  0
 22 23  1  0
 23 24  1  0
 24 25  2  0
 25 26  1  0
 26 27  2  0
 27 28  1  0
 28 29  2  0
 29 30  1  0
 30 31  2  0
 25 32  1  0
 32 33  1  0
 33 34  1  0
 32 35  2  0
 35 36  1  0
 36 37  1  0
 37 38  1  0
 36 39  2  0
 12  7  1  0
 22 13  1  0
 39 24  1  0
 39 11  1  0
 31 26  1  0
  1 40  1  0
  1 41  1  0
  1 42  1  0
  2 43  1  0
  2 44  1  0
  3 45  1  0
  3 46  1  0
  4 47  1  0
  5 48  1  0
  5 49  1  0
  6 50  1  0
  6 51  1  0
  9 52  1  0
 10 53  1  0
 14 54  1  0
 17 55  1  0
 17 56  1  0
 17 57  1  0
 20 58  1  0
 20 59  1  0
 20 60  1  0
 21 61  1  0
 27 62  1  0
 28 63  1  0
 29 64  1  0
 30 65  1  0
 31 66  1  0
 34 67  1  0
 34 68  1  0
 34 69  1  0
 35 70  1  0
 38 71  1  0
 38 72  1  0
 38 73  1  0
M  END
>  <UniqueID>  (44) 
42

>  <SMILES>  (44) 
CCCNCCn1c(O)cc2c1-c1cc(OC)c(OC)cc1Sc1c(-c3ccccc3)c(OC)cc(OC)c1-2

>  <Energy>  (44) 
136.76268270093675

>  <Genealogy>  (44) 
CCCNCCn1c(O)cc2c1-c1cc(OC)c(OC)cc1Sc1c(-c3ccccc3)c(OC)cc(OC)c1-2 (3D coordinates assigned)
CCCNCCn1c(O)cc2c1-c1cc(OC)c(OC)cc1Sc1c(-c3ccccc3)c(OC)cc(OC)c1-2 (nonaromatic ring conformer: 136.76268270093675 kcal/mol)

>  <smiles>  (44) 
CCCNCCn1c(O)cc2c1-c1cc(OC)c(OC)cc1Sc1c(-c3ccccc3)c(OC)cc(OC)c1-2

>  <score_type>  (44) 
oracle

>  <origin>  (44) 
adg

>  <m_score__min__energy>  (44) 
-8.5700000000000003

>  <m_primary>  (44) 
energy

$$$$
44:0
     RDKit          3D

 52 54  0  0  0  0  0  0  0  0999 V2000
   57.4830   32.3280   41.9310 C   0  0  0  0  0  0  0  0  0  0  0  0
   57.6040   31.7980   43.2990 N   0  0  0  0  0  0  0  0  0  0  0  0
   58.0610   32.6120   44.3100 C   0  0  0  0  0  0  0  0  0  0  0  0
   58.3650   33.8160   44.0880 O   0  0  0  0  0  0  0  0  0  0  0  0
   58.1910   32.0720   45.5870 C   0  0  0  0  0  0  0  0  0  0  0  0
   57.9000   30.7670   45.8050 C   0  0  0  0  0  0  0  0  0  0  0  0
   58.1560   30.4250   47.0830 N   0  0  0  0  0  0  0  0  0  0  0  0
   58.5980   31.5880   47.6210 C   0  0  0  0  0  0  0  0  0  0  0  0
   59.1490   31.7030   49.3280 S   0  0  0  0  0  0  0  0  0  0  0  0
   60.8530   31.1430   48.9890 C   0  0  0  0  0  0  0  0  0  0  0  0
   60.8580   30.0800   47.9250 C   0  0  0  0  0  0  0  0  0  0  0  0
   61.4500   30.2960   46.8750 O   0  0  0  0  0  0  0  0  0  0  0  0
   60.1770   28.8170   48.1330 N   0  0  0  0  0  0  0  0  0  0  0  0
   60.7110   28.1400   49.3240 C   0  0  0  0  0  0  0  0  0  0  0  0
   60.3120   27.9610   46.9430 C   0  0  0  0  0  0  0  0  0  0  0  0
   58.6290   32.6210   46.7360 N   0  0  0  0  0  0  0  0  0  0  0  0
   59.1580   33.9680   46.9640 C   0  0  0  0  0  0  0  0  0  0  0  0
   60.5140   34.1320   46.2780 C   0  0  0  0  0  0  0  0  0  0  0  0
   61.6280   33.8470   47.2470 C   0  0  0  0  0  0  0  0  0  0  0  0
   62.8300   33.2750   46.8000 C   0  0  0  0  0  0  0  0  0  0  0  0
   63.8800   33.0510   47.6960 C   0  0  0  0  0  0  0  0  0  0  0  0
   63.7420   33.4050   49.0400 C   0  0  0  0  0  0  0  0  0  0  0  0
   62.5530   33.9890   49.4910 C   0  0  0  0  0  0  0  0  0  0  0  0
   61.5020   34.2140   48.5980 C   0  0  0  0  0  0  0  0  0  0  0  0
   57.4600   29.9420   44.8170 N   0  0  0  0  0  0  0  0  0  0  0  0
   57.2120   28.5180   45.0840 C   0  0  0  0  0  0  0  0  0  0  0  0
   57.3370   30.4620   43.5470 C   0  0  0  0  0  0  0  0  0  0  0  0
   56.9850   29.7070   42.5970 O   0  0  0  0  0  0  0  0  0  0  0  0
   57.2384   33.3996   41.9733 H   0  0  0  0  0  0  0  0  0  0  0  0
   58.4357   32.1901   41.3988 H   0  0  0  0  0  0  0  0  0  0  0  0
   56.6845   31.7903   41.3988 H   0  0  0  0  0  0  0  0  0  0  0  0
   61.4539   31.9989   48.6480 H   0  0  0  0  0  0  0  0  0  0  0  0
   61.2791   30.7233   49.9122 H   0  0  0  0  0  0  0  0  0  0  0  0
   59.1550   28.9850   48.2880 H   0  0  0  0  0  0  0  0  0  0  0  0
   60.3239   28.6307   50.2292 H   0  0  0  0  0  0  0  0  0  0  0  0
   60.3991   27.0852   49.3169 H   0  0  0  0  0  0  0  0  0  0  0  0
   61.8095   28.1976   49.3169 H   0  0  0  0  0  0  0  0  0  0  0  0
   60.4762   26.9197   47.2571 H   0  0  0  0  0  0  0  0  0  0  0  0
   59.3931   28.0219   46.3413 H   0  0  0  0  0  0  0  0  0  0  0  0
   61.1675   28.3018   46.3413 H   0  0  0  0  0  0  0  0  0  0  0  0
   58.4536   34.7077   46.5558 H   0  0  0  0  0  0  0  0  0  0  0  0
   59.2847   34.1228   48.0457 H   0  0  0  0  0  0  0  0  0  0  0  0
   60.5801   33.4309   45.4329 H   0  0  0  0  0  0  0  0  0  0  0  0
   60.6095   35.1670   45.9179 H   0  0  0  0  0  0  0  0  0  0  0  0
   62.9461   33.0020   45.7408 H   0  0  0  0  0  0  0  0  0  0  0  0
   64.8163   32.5952   47.3417 H   0  0  0  0  0  0  0  0  0  0  0  0
   64.5679   33.2248   49.7439 H   0  0  0  0  0  0  0  0  0  0  0  0
   62.4457   34.2710   50.5488 H   0  0  0  0  0  0  0  0  0  0  0  0
   60.5716   34.6805   48.9540 H   0  0  0  0  0  0  0  0  0  0  0  0
   57.1825   28.3484   46.1704 H   0  0  0  0  0  0  0  0  0  0  0  0
   56.2492   28.2241   44.6407 H   0  0  0  0  0  0  0  0  0  0  0  0
   58.0188   27.9159   44.6407 H   0  0  0  0  0  0  0  0  0  0  0  0
  1  2  1  0
  2  3  1  0
  3  4  2  0
  3  5  1  0
  5  6  2  0
  6  7  1  0
  7  8  2  0
  8  9  1  0
  9 10  1  0
 10 11  1  0
 11 12  2  0
 11 13  1  0
 13 14  1  0
 13 15  1  0
  8 16  1  0
 16 17  1  0
 17 18  1  0
 18 19  1  0
 19 20  2  0
 20 21  1  0
 21 22  2  0
 22 23  1  0
 23 24  2  0
  6 25  1  0
 25 26  1  0
 25 27  1  0
 27 28  2  0
 27  2  1  0
 16  5  1  0
 24 19  1  0
  1 29  1  0
  1 30  1  0
  1 31  1  0
 10 32  1  0
 10 33  1  0
 13 34  1  0
 14 35  1  0
 14 36  1  0
 14 37  1  0
 15 38  1  0
 15 39  1  0
 15 40  1  0
 17 41  1  0
 17 42  1  0
 18 43  1  0
 18 44  1  0
 20 45  1  0
 21 46  1  0
 22 47  1  0
 23 48  1  0
 24 49  1  0
 26 50  1  0
 26 51  1  0
 26 52  1  0
M  CHG  1  13   1
M  END
>  <UniqueID>  (45) 
43

>  <SMILES>  (45) 
Cn1c(=O)c2c(nc(SCC(=O)[NH+](C)C)n2CCc2ccccc2)n(C)c1=O

>  <Energy>  (45) 
89.27062973981378

>  <Genealogy>  (45) 
Cn1c(=O)c2c(nc(SCC(=O)[NH+](C)C)n2CCc2ccccc2)n(C)c1=O (protonated)
Cn1c(=O)c2c(nc(SCC(=O)[NH+](C)C)n2CCc2ccccc2)n(C)c1=O (3D coordinates assigned)
Cn1c(=O)c2c(nc(SCC(=O)[NH+](C)C)n2CCc2ccccc2)n(C)c1=O (optimized conformer: 89.27062973981378 kcal/mol)

>  <smiles>  (45) 
CN(C)C(=O)CSc1nc2c(c(=O)n(C)c(=O)n2C)n1CCc1ccccc1

>  <score_type>  (45) 
oracle

>  <origin>  (45) 
adg

>  <m_score__min__energy>  (45) 
-6.4199999999999999

>  <m_primary>  (45) 
energy

$$$$
45:0
     RDKit          3D

 23 24  0  0  0  0  0  0  0  0999 V2000
   56.4050   29.6840   42.4810 C   0  0  0  0  0  0  0  0  0  0  0  0
   57.0510   30.6920   43.3930 C   0  0  0  0  0  0  0  0  0  0  0  0
   57.1820   30.4150   44.7620 C   0  0  0  0  0  0  0  0  0  0  0  0
   57.7780   31.3420   45.6200 C   0  0  0  0  0  0  0  0  0  0  0  0
   58.2600   32.5660   45.1260 C   0  0  0  0  0  0  0  0  0  0  0  0
   58.8770   33.5220   46.0130 N   0  0  0  0  0  0  0  0  0  0  0  0
   59.5060   34.6620   45.6540 C   0  0  0  0  0  0  0  0  0  0  0  0
   59.9680   35.3190   46.7770 C   0  0  0  0  0  0  0  0  0  0  0  0
   59.6060   34.5470   47.8620 C   0  0  0  0  0  0  0  0  0  0  0  0
   58.9370   33.4500   47.3600 C   0  0  0  0  0  0  0  0  0  0  0  0
   58.1290   32.8430   43.7540 C   0  0  0  0  0  0  0  0  0  0  0  0
   57.5300   31.9170   42.8910 C   0  0  0  0  0  0  0  0  0  0  0  0
   57.3900   32.3280   41.1840 Cl  0  0  0  0  0  0  0  0  0  0  0  0
   55.9085   28.9093   43.0838 H   0  0  0  0  0  0  0  0  0  0  0  0
   55.6610   30.1876   41.8463 H   0  0  0  0  0  0  0  0  0  0  0  0
   57.1733   29.2184   41.8463 H   0  0  0  0  0  0  0  0  0  0  0  0
   56.8122   29.4598   45.1630 H   0  0  0  0  0  0  0  0  0  0  0  0
   57.8709   31.1119   46.6917 H   0  0  0  0  0  0  0  0  0  0  0  0
   59.6316   35.0149   44.6197 H   0  0  0  0  0  0  0  0  0  0  0  0
   60.5173   36.2717   46.8020 H   0  0  0  0  0  0  0  0  0  0  0  0
   59.8109   34.7640   48.9207 H   0  0  0  0  0  0  0  0  0  0  0  0
   58.5145   32.6362   47.9677 H   0  0  0  0  0  0  0  0  0  0  0  0
   58.5011   33.7977   43.3539 H   0  0  0  0  0  0  0  0  0  0  0  0
  1  2  1  0
  2  3  2  0
  3  4  1  0
  4  5  2  0
  5  6  1  0
  6  7  1  0
  7  8  2  0
  8  9  1  0
  9 10  2  0
  5 11  1  0
 11 12  2  0
 12 13  1  0
 12  2  1  0
 10  6  1  0
  1 14  1  0
  1 15  1  0
  1 16  1  0
  3 17  1  0
  4 18  1  0
  7 19  1  0
  8 20  1  0
  9 21  1  0
 10 22  1  0
 11 23  1  0
M  END
>  <UniqueID>  (46) 
44

>  <SMILES>  (46) 
Cc1ccc(-n2cccc2)cc1Cl

>  <Energy>  (46) 
52.85393824559166

>  <Genealogy>  (46) 
Cc1ccc(-n2cccc2)cc1Cl (3D coordinates assigned)
Cc1ccc(-n2cccc2)cc1Cl (optimized conformer: 52.85393824559166 kcal/mol)

>  <smiles>  (46) 
Cc1ccc(-n2cccc2)cc1Cl

>  <score_type>  (46) 
oracle

>  <origin>  (46) 
adg

>  <m_score__min__energy>  (46) 
-5.71

>  <m_primary>  (46) 
energy

$$$$
46:0
     RDKit          3D

 35 38  0  0  0  0  0  0  0  0999 V2000
   56.7960   30.6010   44.9250 N   0  0  0  0  0  0  0  0  0  0  0  0
   57.3480   31.7180   45.2430 C   0  0  0  0  0  0  0  0  0  0  0  0
   56.6800   32.8410   44.9330 N   0  0  0  0  0  0  0  0  0  0  0  0
   57.1700   34.0690   45.2510 C   0  0  0  0  0  0  0  0  0  0  0  0
   58.3630   34.2010   45.8990 N   0  0  0  0  0  0  0  0  0  0  0  0
   59.0470   33.0640   46.2150 C   0  0  0  0  0  0  0  0  0  0  0  0
   60.2160   33.1930   46.8680 N   0  0  0  0  0  0  0  0  0  0  0  0
   60.9200   32.0920   47.2160 C   0  0  0  0  0  0  0  0  0  0  0  0
   62.1760   32.3180   47.9220 C   0  0  0  0  0  0  0  0  0  0  0  0
   62.4770   31.5450   49.0210 C   0  0  0  0  0  0  0  0  0  0  0  0
   63.6500   31.6950   49.7480 C   0  0  0  0  0  0  0  0  0  0  0  0
   64.5400   32.6410   49.3640 N   0  0  0  0  0  0  0  0  0  0  0  0
   64.2580   33.4010   48.2950 C   0  0  0  0  0  0  0  0  0  0  0  0
   63.0970   33.2700   47.5550 C   0  0  0  0  0  0  0  0  0  0  0  0
   60.4370   30.8460   46.8990 C   0  0  0  0  0  0  0  0  0  0  0  0
   59.2230   30.6850   46.2190 C   0  0  0  0  0  0  0  0  0  0  0  0
   58.8430   29.3290   45.8840 C   0  0  0  0  0  0  0  0  0  0  0  0
   59.1440   28.8150   44.6160 C   0  0  0  0  0  0  0  0  0  0  0  0
   58.7520   27.5420   44.2530 C   0  0  0  0  0  0  0  0  0  0  0  0
   58.0420   26.7320   45.1460 C   0  0  0  0  0  0  0  0  0  0  0  0
   57.7570   27.2460   46.3720 N   0  0  0  0  0  0  0  0  0  0  0  0
   58.1420   28.4810   46.7140 C   0  0  0  0  0  0  0  0  0  0  0  0
   58.5510   31.8190   45.8930 C   0  0  0  0  0  0  0  0  0  0  0  0
   56.2580   30.1000   45.6570 H   0  0  0  0  0  0  0  0  0  0  0  0
   56.5964   34.9682   44.9820 H   0  0  0  0  0  0  0  0  0  0  0  0
   58.7540   35.1380   46.1510 H   0  0  0  0  0  0  0  0  0  0  0  0
   61.7570   30.7755   49.3364 H   0  0  0  0  0  0  0  0  0  0  0  0
   63.8531   31.0568   50.6206 H   0  0  0  0  0  0  0  0  0  0  0  0
   64.9870   34.1669   47.9918 H   0  0  0  0  0  0  0  0  0  0  0  0
   62.9133   33.9182   46.6855 H   0  0  0  0  0  0  0  0  0  0  0  0
   61.0159   29.9555   47.1852 H   0  0  0  0  0  0  0  0  0  0  0  0
   59.7013   29.4353   43.8986 H   0  0  0  0  0  0  0  0  0  0  0  0
   59.0004   27.1607   43.2516 H   0  0  0  0  0  0  0  0  0  0  0  0
   57.7259   25.7162   44.8663 H   0  0  0  0  0  0  0  0  0  0  0  0
   57.8829   28.8419   47.7203 H   0  0  0  0  0  0  0  0  0  0  0  0
  1  2  2  3
  2  3  1  0
  3  4  2  0
  4  5  1  0
  5  6  1  0
  6  7  2  0
  7  8  1  0
  8  9  1  0
  9 10  2  0
 10 11  1  0
 11 12  2  0
 12 13  1  0
 13 14  2  0
  8 15  2  0
 15 16  1  0
 16 17  1  0
 17 18  2  0
 18 19  1  0
 19 20  2  0
 20 21  1  0
 21 22  2  0
 16 23  2  0
 23  2  1  0
 23  6  1  0
 14  9  1  0
 22 17  1  0
  1 24  1  0
  4 25  1  0
  5 26  1  0
 10 27  1  0
 11 28  1  0
 13 29  1  0
 14 30  1  0
 15 31  1  0
 18 32  1  0
 19 33  1  0
 20 34  1  0
 22 35  1  0
M  END
>  <smiles>  (47) 
N=c1nc[nH]c2nc(-c3ccncc3)cc(-c3cccnc3)c12

>  <score_type>  (47) 
oracle

>  <origin>  (47) 
adg

>  <m_score__min__energy>  (47) 
-6.9900000000000002

>  <m_primary>  (47) 
energy

$$$$
47:0
     RDKit          3D

 21 21  0  0  0  0  0  0  0  0999 V2000
   55.5010   29.7630   44.0290 C   0  0  0  0  0  0  0  0  0  0  0  0
   55.8290   28.9260   45.1330 O   0  0  0  0  0  0  0  0  0  0  0  0
   57.1360   28.6740   45.5840 C   0  0  0  0  0  0  0  0  0  0  0  0
   58.0870   29.7070   45.7070 C   0  0  0  0  0  0  0  0  0  0  0  0
   59.3840   29.4260   46.1420 C   0  0  0  0  0  0  0  0  0  0  0  0
   60.2920   30.4270   46.2560 F   0  0  0  0  0  0  0  0  0  0  0  0
   59.7490   28.1170   46.4550 C   0  0  0  0  0  0  0  0  0  0  0  0
   58.8180   27.0810   46.3390 C   0  0  0  0  0  0  0  0  0  0  0  0
   59.2050   25.8140   46.6340 F   0  0  0  0  0  0  0  0  0  0  0  0
   57.5030   27.3530   45.9180 C   0  0  0  0  0  0  0  0  0  0  0  0
   56.5120   26.2180   45.7680 C   0  0  0  0  0  0  0  0  0  0  0  0
   55.1460   26.6810   45.9990 N   0  0  0  0  0  0  0  0  0  0  0  0
   55.1231   30.7273   44.3995 H   0  0  0  0  0  0  0  0  0  0  0  0
   56.3995   29.9319   43.4172 H   0  0  0  0  0  0  0  0  0  0  0  0
   54.7270   29.2765   43.4172 H   0  0  0  0  0  0  0  0  0  0  0  0
   57.8058   30.7411   45.4588 H   0  0  0  0  0  0  0  0  0  0  0  0
   60.7725   27.8992   46.7941 H   0  0  0  0  0  0  0  0  0  0  0  0
   56.5856   25.8086   44.7497 H   0  0  0  0  0  0  0  0  0  0  0  0
   56.7502   25.4444   46.5128 H   0  0  0  0  0  0  0  0  0  0  0  0
   55.1640   27.4450   46.7140 H   0  0  0  0  0  0  0  0  0  0  0  0
   54.7740   27.0870   45.1110 H   0  0  0  0  0  0  0  0  0  0  0  0
  1  2  1  0
  2  3  1  0
  3  4  2  0
  4  5  1  0
  5  6  1  0
  5  7  2  0
  7  8  1  0
  8  9  1  0
  8 10  2  0
 10 11  1  0
 11 12  1  0
 10  3  1  0
  1 13  1  0
  1 14  1  0
  1 15  1  0
  4 16  1  0
  7 17  1  0
 11 18  1  0
 11 19  1  0
 12 20  1  0
 12 21  1  0
M  END
>  <UniqueID>  (48) 
45

>  <SMILES>  (48) 
COc1cc(F)cc(F)c1CN

>  <Energy>  (48) 
18.57091098708677

>  <Genealogy>  (48) 
COc1cc(F)cc(F)c1CN (3D coordinates assigned)
COc1cc(F)cc(F)c1CN (optimized conformer: 18.57091098708677 kcal/mol)

>  <smiles>  (48) 
COc1cc(F)cc(F)c1CN

>  <score_type>  (48) 
oracle

>  <origin>  (48) 
adg

>  <m_score__min__energy>  (48) 
-4.6799999999999997

>  <m_primary>  (48) 
energy

$$$$
48:0
     RDKit          3D

 27 28  0  0  0  0  0  0  0  0999 V2000
   56.7980   26.9920   42.6250 H   0  0  0  0  0  0  0  0  0  0  0  0
   57.7710   26.8950   42.4720 O   0  0  0  0  0  0  0  0  0  0  0  0
   58.4920   27.6110   43.8100 S   0  0  0  0  0  0  0  0  0  0  0  0
   57.7030   29.1280   44.2120 C   0  0  0  0  0  0  0  0  0  0  0  0
   56.3120   29.7020   43.5000 S   0  0  0  0  0  0  0  0  0  0  0  0
   56.0720   31.0070   44.4940 N   0  0  0  0  0  0  0  0  0  0  0  0
   57.0500   31.0160   45.3970 N   0  0  0  0  0  0  0  0  0  0  0  0
   57.9670   30.0070   45.2700 C   0  0  0  0  0  0  0  0  0  0  0  0
   59.0750   29.8870   46.2360 C   0  0  0  0  0  0  0  0  0  0  0  0
   59.1173   28.9975   46.8817 H   0  0  0  0  0  0  0  0  0  0  0  0
   60.0330   30.8170   46.3600 C   0  0  0  0  0  0  0  0  0  0  0  0
   61.0787   30.5025   46.2275 H   0  0  0  0  0  0  0  0  0  0  0  0
   59.7680   32.2440   46.6650 C   0  0  0  0  0  0  0  0  0  0  0  0
   59.3160   33.0770   45.6250 C   0  0  0  0  0  0  0  0  0  0  0  0
   59.1738   32.6615   44.6165 H   0  0  0  0  0  0  0  0  0  0  0  0
   59.0460   34.4280   45.8620 C   0  0  0  0  0  0  0  0  0  0  0  0
   58.7006   35.0714   45.0394 H   0  0  0  0  0  0  0  0  0  0  0  0
   59.2140   34.9620   47.1410 C   0  0  0  0  0  0  0  0  0  0  0  0
   59.0063   36.0265   47.3243 H   0  0  0  0  0  0  0  0  0  0  0  0
   59.6460   34.1440   48.1880 C   0  0  0  0  0  0  0  0  0  0  0  0
   59.7950   34.6610   49.4320 F   0  0  0  0  0  0  0  0  0  0  0  0
   59.9200   32.7910   47.9560 C   0  0  0  0  0  0  0  0  0  0  0  0
   60.2557   32.1509   48.7852 H   0  0  0  0  0  0  0  0  0  0  0  0
   58.5410   26.5060   45.2010 C   0  0  0  0  0  0  0  0  0  0  0  0
   58.5151   27.0890   46.1335 H   0  0  0  0  0  0  0  0  0  0  0  0
   57.6718   25.8328   45.1653 H   0  0  0  0  0  0  0  0  0  0  0  0
   59.4664   25.9123   45.1653 H   0  0  0  0  0  0  0  0  0  0  0  0
  1  2  1  0
  3  2  1  6
  3  4  1  0
  4  5  1  0
  5  6  1  0
  6  7  2  0
  7  8  1  0
  8  9  1  0
  9 10  1  0
  9 11  2  0
 11 12  1  0
 11 13  1  0
 13 14  2  0
 14 15  1  0
 14 16  1  0
 16 17  1  0
 16 18  2  0
 18 19  1  0
 18 20  1  0
 20 21  1  0
 20 22  2  0
 22 23  1  0
  3 24  1  0
 24 25  1  0
 24 26  1  0
 24 27  1  0
  8  4  2  0
 22 13  1  0
M  CHG  1   3   1
M  END
>  <UniqueID>  (49) 
46

>  <SMILES>  (49) 
C[S@@+](O)c1snnc1/C=C/c1cccc(F)c1

>  <Energy>  (49) 
66.99293889872294

>  <Genealogy>  (49) 
C[S+](O)c1snnc1C=Cc1cccc(F)c1 (protonated)
C[S@@+](O)c1snnc1C=Cc1cccc(F)c1 (chirality)
C[S@@+](O)c1snnc1/C=C/c1cccc(F)c1 (cis-trans isomerization)
C[S@@+](O)c1snnc1/C=C/c1cccc(F)c1 (3D coordinates assigned)
C[S@@+](O)c1snnc1/C=C/c1cccc(F)c1 (optimized conformer: 66.99293889872294 kcal/mol)

>  <smiles>  (49) 
C[S+]([O-])c1snnc1C=Cc1cccc(F)c1

>  <score_type>  (49) 
oracle

>  <origin>  (49) 
adg

>  <m_score__min__energy>  (49) 
-6.04

>  <m_primary>  (49) 
energy

$$$$
