0:0
     RDKit          3D

 29 30  0  0  0  0  0  0  0  0999 V2000
   55.7140   29.1590   45.0960 O   0  0  0  0  0  0  0  0  0  0  0  0
   56.5620   29.8710   44.4900 C   0  0  0  0  0  0  0  0  0  0  0  0
   56.4460   31.2970   44.4950 N   0  0  0  0  0  0  0  0  0  0  0  0
   57.3800   32.2090   45.0910 C   0  0  0  0  0  0  0  0  0  0  0  0
   57.5560   33.4690   44.5010 C   0  0  0  0  0  0  0  0  0  0  0  0
   58.4640   34.3830   45.0430 C   0  0  0  0  0  0  0  0  0  0  0  0
   59.2190   34.0390   46.1660 C   0  0  0  0  0  0  0  0  0  0  0  0
   60.1030   34.9240   46.6880 F   0  0  0  0  0  0  0  0  0  0  0  0
   59.0740   32.7730   46.7430 C   0  0  0  0  0  0  0  0  0  0  0  0
   58.1660   31.8540   46.2060 C   0  0  0  0  0  0  0  0  0  0  0  0
   58.1020   30.6080   46.7380 F   0  0  0  0  0  0  0  0  0  0  0  0
   57.6210   29.2560   43.7480 N   0  0  0  0  0  0  0  0  0  0  0  0
   57.7810   27.8060   43.6560 C   0  0  0  0  0  0  0  0  0  0  0  0
   58.1850   27.2400   44.9890 C   0  0  0  0  0  0  0  0  0  0  0  0
   59.3970   27.6120   45.5880 C   0  0  0  0  0  0  0  0  0  0  0  0
   59.7380   27.0850   46.8360 C   0  0  0  0  0  0  0  0  0  0  0  0
   58.8980   26.2200   47.4640 N   0  0  0  0  0  0  0  0  0  0  0  0
   57.7140   25.8470   46.9090 C   0  0  0  0  0  0  0  0  0  0  0  0
   57.3350   26.3500   45.6620 C   0  0  0  0  0  0  0  0  0  0  0  0
   56.9760   33.7396   43.6064 H   0  0  0  0  0  0  0  0  0  0  0  0
   58.5840   35.3754   44.5839 H   0  0  0  0  0  0  0  0  0  0  0  0
   59.6760   32.4991   47.6220 H   0  0  0  0  0  0  0  0  0  0  0  0
   58.3170   29.8680   43.2650 H   0  0  0  0  0  0  0  0  0  0  0  0
   56.8275   27.3548   43.3441 H   0  0  0  0  0  0  0  0  0  0  0  0
   58.5647   27.5786   42.9183 H   0  0  0  0  0  0  0  0  0  0  0  0
   60.0743   28.3136   45.0790 H   0  0  0  0  0  0  0  0  0  0  0  0
   60.6880   27.3705   47.3115 H   0  0  0  0  0  0  0  0  0  0  0  0
   57.0534   25.1480   47.4429 H   0  0  0  0  0  0  0  0  0  0  0  0
   56.3773   26.0504   45.2113 H   0  0  0  0  0  0  0  0  0  0  0  0
  1  2  2  0
  2  3  1  0
  3  4  1  0
  4  5  2  0
  5  6  1  0
  6  7  2  0
  7  8  1  0
  7  9  1  0
  9 10  2  0
 10 11  1  0
  2 12  1  0
 12 13  1  0
 13 14  1  0
 14 15  2  0
 15 16  1  0
 16 17  2  0
 17 18  1  0
 18 19  2  0
 10  4  1  0
 19 14  1  0
  5 20  1  0
  6 21  1  0
  9 22  1  0
 12 23  1  0
 13 24  1  0
 13 25  1  0
 15 26  1  0
 16 27  1  0
 18 28  1  0
 19 29  1  0
M  CHG  1   3  -1
M  END
>  <UniqueID>  (1) 
1

>  <SMILES>  (1) 
O=C([N-]c1ccc(F)cc1F)NCc1ccncc1

>  <Energy>  (1) 
32.73398641291532

>  <Genealogy>  (1) 
O=C([N-]c1ccc(F)cc1F)NCc1ccncc1 (protonated)
O=C([N-]c1ccc(F)cc1F)NCc1ccncc1 (3D coordinates assigned)
O=C([N-]c1ccc(F)cc1F)NCc1ccncc1 (optimized conformer: 32.73398641291532 kcal/mol)

>  <smiles>  (1) 
O=C(NCc1ccncc1)Nc1ccc(F)cc1F

>  <score_type>  (1) 
oracle

>  <origin>  (1) 
adg

>  <m_score__min__energy>  (1) 
-8.0199999999999996

>  <m_primary>  (1) 
energy

$$$$
1:0
     RDKit          3D

 63 68  0  0  0  0  0  0  0  0999 V2000
   56.6194   27.2952   45.1122 H   0  0  0  0  0  0  0  0  0  0  0  0
   57.2060   28.0560   45.6480 C   0  0  0  0  0  0  0  0  0  0  0  0
   57.7800   27.7550   46.8420 N   0  0  0  0  0  0  0  0  0  0  0  0
   58.5090   28.6730   47.5290 C   0  0  0  0  0  0  0  0  0  0  0  0
   59.0460   28.3400   48.6650 N   0  0  0  0  0  0  0  0  0  0  0  0
   59.8940   29.1730   49.4740 C   0  0  0  0  0  0  0  0  0  0  0  0
   61.1360   29.5550   48.9620 C   0  0  0  0  0  0  0  0  0  0  0  0
   61.4676   29.1634   47.9890 H   0  0  0  0  0  0  0  0  0  0  0  0
   61.9600   30.4280   49.6720 C   0  0  0  0  0  0  0  0  0  0  0  0
   62.9437   30.7011   49.2624 H   0  0  0  0  0  0  0  0  0  0  0  0
   61.5480   30.9630   50.9050 C   0  0  0  0  0  0  0  0  0  0  0  0
   62.3820   31.9130   51.6150 N   0  0  0  0  0  0  0  0  0  0  0  0
   63.7730   32.1450   51.1900 C   0  0  0  0  0  0  0  0  0  0  0  0
   64.4109   31.3655   51.6321 H   0  0  0  0  0  0  0  0  0  0  0  0
   63.7948   32.1127   50.0907 H   0  0  0  0  0  0  0  0  0  0  0  0
   64.3080   33.5320   51.6290 C   0  0  0  0  0  0  0  0  0  0  0  0
   65.3013   33.3883   52.0792 H   0  0  0  0  0  0  0  0  0  0  0  0
   64.3267   34.1563   50.7235 H   0  0  0  0  0  0  0  0  0  0  0  0
   63.4940   34.2160   52.5670 O   0  0  0  0  0  0  0  0  0  0  0  0
   63.0040   33.3210   53.5390 C   0  0  0  0  0  0  0  0  0  0  0  0
   63.8230   32.6822   53.9012 H   0  0  0  0  0  0  0  0  0  0  0  0
   62.5865   33.8806   54.3890 H   0  0  0  0  0  0  0  0  0  0  0  0
   61.9220   32.4570   52.9020 C   0  0  0  0  0  0  0  0  0  0  0  0
   61.6787   31.6252   53.5794 H   0  0  0  0  0  0  0  0  0  0  0  0
   61.0315   33.0782   52.7255 H   0  0  0  0  0  0  0  0  0  0  0  0
   60.2910   30.5830   51.4170 C   0  0  0  0  0  0  0  0  0  0  0  0
   59.9576   30.9828   52.3860 H   0  0  0  0  0  0  0  0  0  0  0  0
   59.4540   29.6980   50.7060 C   0  0  0  0  0  0  0  0  0  0  0  0
   58.1780   29.3510   51.1780 O   0  0  0  0  0  0  0  0  0  0  0  0
   57.3830   30.1620   52.0390 C   0  0  0  0  0  0  0  0  0  0  0  0
   57.6171   29.9232   53.0870 H   0  0  0  0  0  0  0  0  0  0  0  0
   57.6005   31.2231   51.8473 H   0  0  0  0  0  0  0  0  0  0  0  0
   56.3178   29.9656   51.8473 H   0  0  0  0  0  0  0  0  0  0  0  0
   58.6430   29.9330   47.0330 N   0  0  0  0  0  0  0  0  0  0  0  0
   58.0740   30.2820   45.8520 C   0  0  0  0  0  0  0  0  0  0  0  0
   57.3610   29.3320   45.1010 C   0  0  0  0  0  0  0  0  0  0  0  0
   56.6680   29.7230   43.8020 C   0  0  0  0  0  0  0  0  0  0  0  0
   56.6271   28.8391   43.1485 H   0  0  0  0  0  0  0  0  0  0  0  0
   55.6654   30.0907   44.0659 H   0  0  0  0  0  0  0  0  0  0  0  0
   57.3890   30.8640   43.0410 C   0  0  0  0  0  0  0  0  0  0  0  0
   58.2433   30.4462   42.4881 H   0  0  0  0  0  0  0  0  0  0  0  0
   56.6767   31.3311   42.3450 H   0  0  0  0  0  0  0  0  0  0  0  0
   57.8840   31.9070   43.9980 C   0  0  0  0  0  0  0  0  0  0  0  0
   58.2320   31.6260   45.2910 C   0  0  0  0  0  0  0  0  0  0  0  0
   58.7670   32.8020   45.7950 C   0  0  0  0  0  0  0  0  0  0  0  0
   59.2430   33.0380   47.1740 C   0  0  0  0  0  0  0  0  0  0  0  0
   58.4430   32.6910   48.2740 C   0  0  0  0  0  0  0  0  0  0  0  0
   57.4456   32.2569   48.1107 H   0  0  0  0  0  0  0  0  0  0  0  0
   58.9090   32.8950   49.5770 C   0  0  0  0  0  0  0  0  0  0  0  0
   58.2811   32.6142   50.4354 H   0  0  0  0  0  0  0  0  0  0  0  0
   60.1710   33.4550   49.7890 C   0  0  0  0  0  0  0  0  0  0  0  0
   60.5375   33.6118   50.8142 H   0  0  0  0  0  0  0  0  0  0  0  0
   60.9680   33.8160   48.7000 C   0  0  0  0  0  0  0  0  0  0  0  0
   61.9566   34.2682   48.8681 H   0  0  0  0  0  0  0  0  0  0  0  0
   60.5100   33.6030   47.3980 C   0  0  0  0  0  0  0  0  0  0  0  0
   61.1446   33.8791   46.5430 H   0  0  0  0  0  0  0  0  0  0  0  0
   58.7250   33.7300   44.8050 N   0  0  0  0  0  0  0  0  0  0  0  0
   59.1730   35.1180   44.8740 C   0  0  0  0  0  0  0  0  0  0  0  0
   59.2704   35.4199   45.9273 H   0  0  0  0  0  0  0  0  0  0  0  0
   60.1478   35.2140   44.3734 H   0  0  0  0  0  0  0  0  0  0  0  0
   58.4383   35.7658   44.3734 H   0  0  0  0  0  0  0  0  0  0  0  0
   58.2110   33.1790   43.7110 N   0  0  0  0  0  0  0  0  0  0  0  0
   58.0950   33.6610   42.7910 H   0  0  0  0  0  0  0  0  0  0  0  0
  1  2  1  0
  2  3  1  0
  3  4  1  0
  4  5  2  0
  5  6  1  0
  6  7  2  0
  7  8  1  0
  7  9  1  0
  9 10  1  0
  9 11  2  0
 11 12  1  0
 12 13  1  0
 13 14  1  0
 13 15  1  0
 13 16  1  0
 16 17  1  0
 16 18  1  0
 16 19  1  0
 19 20  1  0
 20 21  1  0
 20 22  1  0
 20 23  1  0
 23 24  1  0
 23 25  1  0
 11 26  1  0
 26 27  1  0
 26 28  2  0
 28 29  1  0
 29 30  1  0
 30 31  1  0
 30 32  1  0
 30 33  1  0
  4 34  1  0
 34 35  2  0
 35 36  1  0
 36 37  1  0
 37 38  1  0
 37 39  1  0
 37 40  1  0
 40 41  1  0
 40 42  1  0
 40 43  1  0
 43 44  1  0
 44 45  2  0
 45 46  1  0
 46 47  2  0
 47 48  1  0
 47 49  1  0
 49 50  1  0
 49 51  2  0
 51 52  1  0
 51 53  1  0
 53 54  1  0
 53 55  2  0
 55 56  1  0
 45 57  1  0
 57 58  1  0
 58 59  1  0
 58 60  1  0
 58 61  1  0
 57 62  1  0
 62 63  1  0
 36  2  2  0
 62 43  2  0
 28  6  1  0
 44 35  1  0
 55 46  1  0
 23 12  1  0
M  CHG  2   3  -1  62   1
M  END
>  <UniqueID>  (2) 
2

>  <SMILES>  (2) 
COc1cc(N2CCOCC2)ccc1/N=c1\nc2c(c[n-]1)CCc1[nH+]n(C)c(-c3ccccc3)c1-2

>  <Energy>  (2) 
123.27931604548453

>  <Genealogy>  (2) 
COc1cc(N2CCOCC2)ccc1N=c1nc2c(c[n-]1)CCc1[nH+]n(C)c(-c3ccccc3)c1-2 (protonated)
COc1cc(N2CCOCC2)ccc1/N=c1\nc2c(c[n-]1)CCc1[nH+]n(C)c(-c3ccccc3)c1-2 (cis-trans isomerization)
COc1cc(N2CCOCC2)ccc1/N=c1\nc2c(c[n-]1)CCc1[nH+]n(C)c(-c3ccccc3)c1-2 (3D coordinates assigned)
COc1cc(N2CCOCC2)ccc1/N=c1\nc2c(c[n-]1)CCc1[nH+]n(C)c(-c3ccccc3)c1-2 (nonaromatic ring conformer: 123.27931604548453 kcal/mol)

>  <smiles>  (2) 
COc1cc(N2CCOCC2)ccc1N=c1nc2c(c[nH]1)CCc1nn(C)c(-c3ccccc3)c1-2

>  <score_type>  (2) 
oracle

>  <origin>  (2) 
adg

>  <m_score__min__energy>  (2) 
-9.3100000000000005

>  <m_primary>  (2) 
energy

$$$$
2:0
     RDKit          3D

 21 22  0  0  0  0  0  0  0  0999 V2000
   57.4040   22.8470   47.0070 O   0  0  0  0  0  0  0  0  0  0  0  0
   57.1950   24.0390   46.6630 C   0  0  0  0  0  0  0  0  0  0  0  0
   55.8890   24.5010   46.4870 C   0  0  0  0  0  0  0  0  0  0  0  0
   55.7010   25.8300   46.1060 C   0  0  0  0  0  0  0  0  0  0  0  0
   54.4180   26.3300   45.9230 O   0  0  0  0  0  0  0  0  0  0  0  0
   56.7760   26.6380   45.9130 N   0  0  0  0  0  0  0  0  0  0  0  0
   58.0400   26.1700   46.0840 C   0  0  0  0  0  0  0  0  0  0  0  0
   59.4390   27.2520   45.8160 S   0  0  0  0  0  0  0  0  0  0  0  0
   58.4150   28.5500   45.0960 C   0  0  0  0  0  0  0  0  0  0  0  0
   58.1940   29.7530   45.7970 C   0  0  0  0  0  0  0  0  0  0  0  0
   58.9080   30.0420   47.3800 Cl  0  0  0  0  0  0  0  0  0  0  0  0
   57.3940   30.7530   45.2350 C   0  0  0  0  0  0  0  0  0  0  0  0
   56.8150   30.5680   43.9780 C   0  0  0  0  0  0  0  0  0  0  0  0
   57.0370   29.3840   43.2730 C   0  0  0  0  0  0  0  0  0  0  0  0
   57.8350   28.3740   43.8230 C   0  0  0  0  0  0  0  0  0  0  0  0
   58.0910   26.9050   42.8890 Cl  0  0  0  0  0  0  0  0  0  0  0  0
   58.2430   24.8790   46.4590 N   0  0  0  0  0  0  0  0  0  0  0  0
   55.0292   23.8333   46.6449 H   0  0  0  0  0  0  0  0  0  0  0  0
   57.2202   31.6893   45.7856 H   0  0  0  0  0  0  0  0  0  0  0  0
   56.1832   31.3563   43.5428 H   0  0  0  0  0  0  0  0  0  0  0  0
   56.5829   29.2440   42.2809 H   0  0  0  0  0  0  0  0  0  0  0  0
  1  2  2  0
  2  3  1  0
  3  4  2  0
  4  5  1  0
  4  6  1  0
  6  7  1  0
  7  8  1  0
  8  9  1  0
  9 10  2  0
 10 11  1  0
 10 12  1  0
 12 13  2  0
 13 14  1  0
 14 15  2  0
 15 16  1  0
  7 17  2  0
 17  2  1  0
 15  9  1  0
  3 18  1  0
 12 19  1  0
 13 20  1  0
 14 21  1  0
M  CHG  2   5  -1   6  -1
M  END
>  <UniqueID>  (3) 
3

>  <SMILES>  (3) 
O=c1cc([O-])[n-]c(Sc2c(Cl)cccc2Cl)n1

>  <Energy>  (3) 
20.88695939341999

>  <Genealogy>  (3) 
O=c1cc([O-])[n-]c(Sc2c(Cl)cccc2Cl)n1 (protonated)
O=c1cc([O-])[n-]c(Sc2c(Cl)cccc2Cl)n1 (3D coordinates assigned)
O=c1cc([O-])[n-]c(Sc2c(Cl)cccc2Cl)n1 (optimized conformer: 20.88695939341999 kcal/mol)

>  <smiles>  (3) 
O=c1cc(O)[nH]c(Sc2c(Cl)cccc2Cl)n1

>  <score_type>  (3) 
oracle

>  <origin>  (3) 
adg

>  <m_score__min__energy>  (3) 
-11.91

>  <m_primary>  (3) 
energy

$$$$
3:0
     RDKit          3D

 58 61  0  0  0  0  0  0  0  0999 V2000
   57.8220   33.9732   47.3799 H   0  0  0  0  0  0  0  0  0  0  0  0
   57.8660   33.5370   46.3710 C   0  0  0  0  0  0  0  0  0  0  0  0
   57.0630   32.4880   46.0500 N   0  0  0  0  0  0  0  0  0  0  0  0
   57.0850   31.9110   44.8140 C   0  0  0  0  0  0  0  0  0  0  0  0
   56.3080   30.9070   44.5230 N   0  0  0  0  0  0  0  0  0  0  0  0
   56.7050   29.6430   43.9670 C   0  0  0  0  0  0  0  0  0  0  0  0
   56.5890   29.4060   42.7320 O   0  0  0  0  0  0  0  0  0  0  0  0
   57.3290   28.6150   44.8610 C   0  0  0  0  0  0  0  0  0  0  0  0
   56.5611   28.2134   45.5385 H   0  0  0  0  0  0  0  0  0  0  0  0
   57.7473   27.8130   44.2351 H   0  0  0  0  0  0  0  0  0  0  0  0
   58.4410   29.2160   45.6780 C   0  0  0  0  0  0  0  0  0  0  0  0
   59.7520   29.2450   45.1790 C   0  0  0  0  0  0  0  0  0  0  0  0
   59.9662   28.8377   44.1799 H   0  0  0  0  0  0  0  0  0  0  0  0
   60.7880   29.7890   45.9450 C   0  0  0  0  0  0  0  0  0  0  0  0
   61.8084   29.8278   45.5361 H   0  0  0  0  0  0  0  0  0  0  0  0
   60.5320   30.2870   47.2360 C   0  0  0  0  0  0  0  0  0  0  0  0
   61.5740   30.8770   48.0340 N   0  0  0  0  0  0  0  0  0  0  0  0
   62.0470   30.2750   48.7430 H   0  0  0  0  0  0  0  0  0  0  0  0
   62.0560   32.2200   47.8660 C   0  0  0  0  0  0  0  0  0  0  0  0
   61.8180   32.8540   46.8020 O   0  0  0  0  0  0  0  0  0  0  0  0
   62.8240   32.8930   48.9780 C   0  0  0  0  0  0  0  0  0  0  0  0
   62.3827   33.8813   49.1741 H   0  0  0  0  0  0  0  0  0  0  0  0
   62.6970   32.1130   50.3120 C   0  0  0  0  0  0  0  0  0  0  0  0
   62.6917   32.8349   51.1420 H   0  0  0  0  0  0  0  0  0  0  0  0
   61.7630   31.5335   50.2689 H   0  0  0  0  0  0  0  0  0  0  0  0
   63.8470   31.1200   50.5330 C   0  0  0  0  0  0  0  0  0  0  0  0
   63.7622   30.6943   51.5437 H   0  0  0  0  0  0  0  0  0  0  0  0
   63.7742   30.3324   49.7685 H   0  0  0  0  0  0  0  0  0  0  0  0
   65.1610   31.7750   50.3980 N   0  0  0  0  0  0  0  0  0  0  0  0
   66.3460   31.1540   50.9440 C   0  0  0  0  0  0  0  0  0  0  0  0
   67.4180   31.8140   51.0450 O   0  0  0  0  0  0  0  0  0  0  0  0
   66.3270   29.7310   51.4370 C   0  0  0  0  0  0  0  0  0  0  0  0
   65.2328   29.6486   51.5141 H   0  0  0  0  0  0  0  0  0  0  0  0
   67.5050   29.3460   52.3220 C   0  0  0  0  0  0  0  0  0  0  0  0
   68.2477   30.1047   52.6096 H   0  0  0  0  0  0  0  0  0  0  0  0
   67.6143   28.8659   53.3056 H   0  0  0  0  0  0  0  0  0  0  0  0
   67.4410   28.8520   50.8880 C   0  0  0  0  0  0  0  0  0  0  0  0
   68.1378   29.2527   50.1370 H   0  0  0  0  0  0  0  0  0  0  0  0
   67.4850   27.8655   50.4033 H   0  0  0  0  0  0  0  0  0  0  0  0
   65.2570   33.0800   49.7260 C   0  0  0  0  0  0  0  0  0  0  0  0
   64.9987   33.8776   50.4382 H   0  0  0  0  0  0  0  0  0  0  0  0
   66.2847   33.2270   49.3624 H   0  0  0  0  0  0  0  0  0  0  0  0
   64.2900   33.1240   48.5410 C   0  0  0  0  0  0  0  0  0  0  0  0
   64.3652   34.1095   48.0581 H   0  0  0  0  0  0  0  0  0  0  0  0
   64.5678   32.3174   47.8466 H   0  0  0  0  0  0  0  0  0  0  0  0
   59.2190   30.2640   47.7270 C   0  0  0  0  0  0  0  0  0  0  0  0
   59.0027   30.6734   48.7248 H   0  0  0  0  0  0  0  0  0  0  0  0
   58.1820   29.7250   46.9590 C   0  0  0  0  0  0  0  0  0  0  0  0
   57.1585   29.7001   47.3614 H   0  0  0  0  0  0  0  0  0  0  0  0
   57.9570   32.4080   43.8380 C   0  0  0  0  0  0  0  0  0  0  0  0
   57.9901   31.9475   42.8396 H   0  0  0  0  0  0  0  0  0  0  0  0
   58.7840   33.4910   44.1390 C   0  0  0  0  0  0  0  0  0  0  0  0
   59.4622   33.8951   43.3730 H   0  0  0  0  0  0  0  0  0  0  0  0
   58.7500   34.0640   45.4190 C   0  0  0  0  0  0  0  0  0  0  0  0
   59.6200   35.2340   45.7660 C   0  0  0  0  0  0  0  0  0  0  0  0
   59.6896   35.3276   46.8598 H   0  0  0  0  0  0  0  0  0  0  0  0
   60.6252   35.0807   45.3464 H   0  0  0  0  0  0  0  0  0  0  0  0
   59.1838   36.1525   45.3464 H   0  0  0  0  0  0  0  0  0  0  0  0
  1  2  1  0
  2  3  1  0
  3  4  1  0
  4  5  2  0
  5  6  1  0
  6  7  2  0
  6  8  1  0
  8  9  1  0
  8 10  1  0
  8 11  1  0
 11 12  2  0
 12 13  1  0
 12 14  1  0
 14 15  1  0
 14 16  2  0
 16 17  1  0
 17 18  1  0
 17 19  1  0
 19 20  2  0
 19 21  1  0
 21 22  1  0
 21 23  1  0
 23 24  1  0
 23 25  1  0
 23 26  1  0
 26 27  1  0
 26 28  1  0
 26 29  1  0
 29 30  1  0
 30 31  2  0
 30 32  1  0
 32 33  1  0
 32 34  1  0
 34 35  1  0
 34 36  1  0
 34 37  1  0
 37 38  1  0
 37 39  1  0
 29 40  1  0
 40 41  1  0
 40 42  1  0
 40 43  1  0
 43 44  1  0
 43 45  1  0
 16 46  1  0
 46 47  1  0
 46 48  2  0
 48 49  1  0
  4 50  1  0
 50 51  1  0
 50 52  2  0
 52 53  1  0
 52 54  1  0
 54 55  1  0
 55 56  1  0
 55 57  1  0
 55 58  1  0
 54  2  2  0
 48 11  1  0
 43 21  1  0
 37 32  1  0
M  CHG  1   3  -1
M  END
>  <UniqueID>  (4) 
4

>  <SMILES>  (4) 
Cc1cc/c(=N/C(=O)Cc2ccc(NC(=O)C3CCN(C(=O)C4CC4)CC3)cc2)[n-]c1

>  <Energy>  (4) 
329.8336121877815

>  <Genealogy>  (4) 
Cc1ccc(=NC(=O)Cc2ccc(NC(=O)C3CCN(C(=O)C4CC4)CC3)cc2)[n-]c1 (protonated)
Cc1cc/c(=N/C(=O)Cc2ccc(NC(=O)C3CCN(C(=O)C4CC4)CC3)cc2)[n-]c1 (cis-trans isomerization)
Cc1cc/c(=N/C(=O)Cc2ccc(NC(=O)C3CCN(C(=O)C4CC4)CC3)cc2)[n-]c1 (3D coordinates assigned)
Cc1cc/c(=N/C(=O)Cc2ccc(NC(=O)C3CCN(C(=O)C4CC4)CC3)cc2)[n-]c1 (nonaromatic ring conformer: 329.8336121877815 kcal/mol)

>  <smiles>  (4) 
Cc1ccc(=NC(=O)Cc2ccc(NC(=O)C3CCN(C(=O)C4CC4)CC3)cc2)[nH]c1

>  <score_type>  (4) 
oracle

>  <origin>  (4) 
adg

>  <m_score__min__energy>  (4) 
-10.85

>  <m_primary>  (4) 
energy

$$$$
4:0
     RDKit          3D

 53 55  0  0  0  0  0  0  0  0999 V2000
   59.6510   33.9190   49.9040 C   0  0  0  0  0  0  0  0  0  0  0  0
   61.0430   34.2240   49.9000 O   0  0  0  0  0  0  0  0  0  0  0  0
   61.9390   33.8580   48.8820 C   0  0  0  0  0  0  0  0  0  0  0  0
   61.5820   33.9410   47.5210 C   0  0  0  0  0  0  0  0  0  0  0  0
   62.4940   33.5830   46.5270 C   0  0  0  0  0  0  0  0  0  0  0  0
   63.7650   33.1300   46.8760 C   0  0  0  0  0  0  0  0  0  0  0  0
   64.1320   33.0340   48.2180 C   0  0  0  0  0  0  0  0  0  0  0  0
   63.2310   33.4020   49.2310 C   0  0  0  0  0  0  0  0  0  0  0  0
   63.6510   33.2550   50.6760 C   0  0  0  0  0  0  0  0  0  0  0  0
   63.0760   31.9770   51.2990 C   0  0  0  0  0  0  0  0  0  0  0  0
   61.8780   31.5430   50.5820 N   0  0  0  0  0  0  0  0  0  0  0  0
   61.7120   30.1950   50.1240 C   0  0  0  0  0  0  0  0  0  0  0  0
   62.3530   29.2620   50.6820 O   0  0  0  0  0  0  0  0  0  0  0  0
   60.8080   29.8900   48.9920 C   0  0  0  0  0  0  0  0  0  0  0  0
   59.7950   28.9260   49.1310 C   0  0  0  0  0  0  0  0  0  0  0  0
   58.9890   28.5830   48.0410 C   0  0  0  0  0  0  0  0  0  0  0  0
   59.1890   29.1920   46.7930 C   0  0  0  0  0  0  0  0  0  0  0  0
   58.4010   28.7420   45.5900 C   0  0  0  0  0  0  0  0  0  0  0  0
   57.0140   29.2110   45.6540 N   0  0  0  0  0  0  0  0  0  0  0  0
   56.6990   30.4710   44.4900 S   0  0  0  0  0  0  0  0  0  0  0  0
   55.2330   30.7940   44.4980 O   0  0  0  0  0  0  0  0  0  0  0  0
   57.0820   30.0080   43.1120 O   0  0  0  0  0  0  0  0  0  0  0  0
   57.6010   31.9210   44.9270 C   0  0  0  0  0  0  0  0  0  0  0  0
   57.7230   32.3170   46.2680 C   0  0  0  0  0  0  0  0  0  0  0  0
   58.3890   33.5050   46.5930 C   0  0  0  0  0  0  0  0  0  0  0  0
   58.9370   34.3010   45.5810 C   0  0  0  0  0  0  0  0  0  0  0  0
   59.5620   35.4660   45.8950 F   0  0  0  0  0  0  0  0  0  0  0  0
   58.8230   33.9050   44.2450 C   0  0  0  0  0  0  0  0  0  0  0  0
   58.1630   32.7160   43.9180 C   0  0  0  0  0  0  0  0  0  0  0  0
   60.1730   30.1800   46.6620 C   0  0  0  0  0  0  0  0  0  0  0  0
   60.9840   30.5200   47.7480 C   0  0  0  0  0  0  0  0  0  0  0  0
   59.2957   33.8411   50.9421 H   0  0  0  0  0  0  0  0  0  0  0  0
   59.0992   34.7175   49.3865 H   0  0  0  0  0  0  0  0  0  0  0  0
   59.4836   32.9629   49.3865 H   0  0  0  0  0  0  0  0  0  0  0  0
   60.5775   34.2904   47.2403 H   0  0  0  0  0  0  0  0  0  0  0  0
   62.2094   33.6584   45.4671 H   0  0  0  0  0  0  0  0  0  0  0  0
   64.4811   32.8472   46.0903 H   0  0  0  0  0  0  0  0  0  0  0  0
   65.1341   32.6675   48.4852 H   0  0  0  0  0  0  0  0  0  0  0  0
   64.7491   33.2153   50.7272 H   0  0  0  0  0  0  0  0  0  0  0  0
   63.2648   34.1180   51.2381 H   0  0  0  0  0  0  0  0  0  0  0  0
   63.8331   31.1804   51.2514 H   0  0  0  0  0  0  0  0  0  0  0  0
   62.8048   32.1857   52.3444 H   0  0  0  0  0  0  0  0  0  0  0  0
   61.0970   32.2240   50.4310 H   0  0  0  0  0  0  0  0  0  0  0  0
   59.6350   28.4380   50.1037 H   0  0  0  0  0  0  0  0  0  0  0  0
   58.1944   27.8321   48.1626 H   0  0  0  0  0  0  0  0  0  0  0  0
   58.8734   29.1443   44.6817 H   0  0  0  0  0  0  0  0  0  0  0  0
   58.3943   27.6422   45.5718 H   0  0  0  0  0  0  0  0  0  0  0  0
   57.2943   31.6925   47.0656 H   0  0  0  0  0  0  0  0  0  0  0  0
   58.4815   33.8129   47.6450 H   0  0  0  0  0  0  0  0  0  0  0  0
   59.2535   34.5302   43.4489 H   0  0  0  0  0  0  0  0  0  0  0  0
   58.0846   32.4037   42.8662 H   0  0  0  0  0  0  0  0  0  0  0  0
   60.3083   30.6918   45.6978 H   0  0  0  0  0  0  0  0  0  0  0  0
   61.7649   31.2854   47.6285 H   0  0  0  0  0  0  0  0  0  0  0  0
  1  2  1  0
  2  3  1  0
  3  4  2  0
  4  5  1  0
  5  6  2  0
  6  7  1  0
  7  8  2  0
  8  9  1  0
  9 10  1  0
 10 11  1  0
 11 12  1  0
 12 13  2  0
 12 14  1  0
 14 15  2  0
 15 16  1  0
 16 17  2  0
 17 18  1  0
 18 19  1  0
 19 20  1  0
 20 21  2  0
 20 22  2  0
 20 23  1  0
 23 24  2  0
 24 25  1  0
 25 26  2  0
 26 27  1  0
 26 28  1  0
 28 29  2  0
 17 30  1  0
 30 31  2  0
  8  3  1  0
 31 14  1  0
 29 23  1  0
  1 32  1  0
  1 33  1  0
  1 34  1  0
  4 35  1  0
  5 36  1  0
  6 37  1  0
  7 38  1  0
  9 39  1  0
  9 40  1  0
 10 41  1  0
 10 42  1  0
 11 43  1  0
 15 44  1  0
 16 45  1  0
 18 46  1  0
 18 47  1  0
 24 48  1  0
 25 49  1  0
 28 50  1  0
 29 51  1  0
 30 52  1  0
 31 53  1  0
M  CHG  1  19  -1
M  END
>  <UniqueID>  (5) 
5

>  <SMILES>  (5) 
COc1ccccc1CCNC(=O)c1ccc(C[N-]S(=O)(=O)c2ccc(F)cc2)cc1

>  <Energy>  (5) 
46.45693812123375

>  <Genealogy>  (5) 
COc1ccccc1CCNC(=O)c1ccc(C[N-]S(=O)(=O)c2ccc(F)cc2)cc1 (protonated)
COc1ccccc1CCNC(=O)c1ccc(C[N-]S(=O)(=O)c2ccc(F)cc2)cc1 (3D coordinates assigned)
COc1ccccc1CCNC(=O)c1ccc(C[N-]S(=O)(=O)c2ccc(F)cc2)cc1 (optimized conformer: 46.45693812123375 kcal/mol)

>  <smiles>  (5) 
COc1ccccc1CCNC(=O)c1ccc(CNS(=O)(=O)c2ccc(F)cc2)cc1

>  <score_type>  (5) 
oracle

>  <origin>  (5) 
adg

>  <m_score__min__energy>  (5) 
-10.380000000000001

>  <m_primary>  (5) 
energy

$$$$
5:0
     RDKit          3D

 37 38  0  0  0  0  0  0  0  0999 V2000
   60.5137   34.2911   50.2164 H   0  0  0  0  0  0  0  0  0  0  0  0
   60.9440   34.2140   49.2070 C   0  0  0  0  0  0  0  0  0  0  0  0
   62.2850   34.2270   49.1100 C   0  0  0  0  0  0  0  0  0  0  0  0
   62.8049   35.0062   49.6867 H   0  0  0  0  0  0  0  0  0  0  0  0
   63.1740   33.2870   48.2930 C   0  0  0  0  0  0  0  0  0  0  0  0
   63.4020   33.8140   46.8600 C   0  0  0  0  0  0  0  0  0  0  0  0
   63.8384   34.8227   46.9054 H   0  0  0  0  0  0  0  0  0  0  0  0
   64.0893   33.1408   46.3268 H   0  0  0  0  0  0  0  0  0  0  0  0
   62.4407   33.8540   46.3268 H   0  0  0  0  0  0  0  0  0  0  0  0
   64.5270   33.0640   48.9980 C   0  0  0  0  0  0  0  0  0  0  0  0
   64.3809   33.0881   50.0880 H   0  0  0  0  0  0  0  0  0  0  0  0
   64.9366   32.0862   48.7045 H   0  0  0  0  0  0  0  0  0  0  0  0
   65.2288   33.8586   48.7045 H   0  0  0  0  0  0  0  0  0  0  0  0
   62.4570   31.9220   48.1910 C   0  0  0  0  0  0  0  0  0  0  0  0
   62.2550   31.5375   49.2016 H   0  0  0  0  0  0  0  0  0  0  0  0
   61.5077   32.0461   47.6494 H   0  0  0  0  0  0  0  0  0  0  0  0
   63.0979   31.2107   47.6494 H   0  0  0  0  0  0  0  0  0  0  0  0
   60.0030   34.1060   48.0850 C   0  0  0  0  0  0  0  0  0  0  0  0
   59.0580   33.0710   48.0550 C   0  0  0  0  0  0  0  0  0  0  0  0
   58.9868   32.3687   48.8986 H   0  0  0  0  0  0  0  0  0  0  0  0
   58.2060   32.9290   46.9560 C   0  0  0  0  0  0  0  0  0  0  0  0
   57.4554   32.1249   46.9453 H   0  0  0  0  0  0  0  0  0  0  0  0
   58.3040   33.8080   45.8660 C   0  0  0  0  0  0  0  0  0  0  0  0
   57.4050   33.6440   44.6710 C   0  0  0  0  0  0  0  0  0  0  0  0
   56.4109   34.0528   44.9046 H   0  0  0  0  0  0  0  0  0  0  0  0
   57.8397   34.1832   43.8164 H   0  0  0  0  0  0  0  0  0  0  0  0
   57.2780   32.2310   44.3300 N   0  0  0  0  0  0  0  0  0  0  0  0
   56.4070   31.3920   44.8680 N   0  0  0  0  0  0  0  0  0  0  0  0
   56.5470   30.2090   44.2870 N   0  0  0  0  0  0  0  0  0  0  0  0
   57.5010   30.2860   43.3710 N   0  0  0  0  0  0  0  0  0  0  0  0
   57.8200   29.5010   42.7600 H   0  0  0  0  0  0  0  0  0  0  0  0
   57.9560   31.5490   43.3930 C   0  0  0  0  0  0  0  0  0  0  0  0
   58.7509   31.9566   42.7511 H   0  0  0  0  0  0  0  0  0  0  0  0
   59.2890   34.8060   45.8740 C   0  0  0  0  0  0  0  0  0  0  0  0
   59.3907   35.4818   45.0120 H   0  0  0  0  0  0  0  0  0  0  0  0
   60.1420   34.9460   46.9720 C   0  0  0  0  0  0  0  0  0  0  0  0
   60.9253   35.7183   46.9626 H   0  0  0  0  0  0  0  0  0  0  0  0
  1  2  1  0
  2  3  2  0
  3  4  1  0
  3  5  1  0
  5  6  1  0
  6  7  1  0
  6  8  1  0
  6  9  1  0
  5 10  1  0
 10 11  1  0
 10 12  1  0
 10 13  1  0
  5 14  1  0
 14 15  1  0
 14 16  1  0
 14 17  1  0
  2 18  1  0
 18 19  2  0
 19 20  1  0
 19 21  1  0
 21 22  1  0
 21 23  2  0
 23 24  1  0
 24 25  1  0
 24 26  1  0
 24 27  1  0
 27 28  1  0
 28 29  2  0
 29 30  1  0
 30 31  1  0
 30 32  2  0
 32 33  1  0
 23 34  1  0
 34 35  1  0
 34 36  2  0
 36 37  1  0
 36 18  1  0
 32 27  1  0
M  CHG  1  30   1
M  END
>  <UniqueID>  (6) 
6

>  <SMILES>  (6) 
CC(C)(C)/C=C\c1ccc(Cn2c[nH+]nn2)cc1

>  <Energy>  (6) 
82.37040153166618

>  <Genealogy>  (6) 
CC(C)(C)C=Cc1ccc(Cn2c[nH+]nn2)cc1 (protonated)
CC(C)(C)/C=C\c1ccc(Cn2c[nH+]nn2)cc1 (cis-trans isomerization)
CC(C)(C)/C=C\c1ccc(Cn2c[nH+]nn2)cc1 (3D coordinates assigned)
CC(C)(C)/C=C\c1ccc(Cn2c[nH+]nn2)cc1 (optimized conformer: 82.37040153166618 kcal/mol)

>  <smiles>  (6) 
CC(C)(C)C=Cc1ccc(Cn2cnnn2)cc1

>  <score_type>  (6) 
oracle

>  <origin>  (6) 
adg

>  <m_score__min__energy>  (6) 
-6.7400000000000002

>  <m_primary>  (6) 
energy

$$$$
6:0
     RDKit          3D

 44 46  0  0  0  0  0  0  0  0999 V2000
   58.5120   34.5510   52.4560 N   0  0  0  0  0  0  0  0  0  0  0  0
   58.7310   33.5470   51.6470 C   0  0  0  0  0  0  0  0  0  0  0  0
   59.6960   33.6300   50.6860 N   0  0  0  0  0  0  0  0  0  0  0  0
   59.9240   32.6060   49.8500 C   0  0  0  0  0  0  0  0  0  0  0  0
   60.9350   32.5510   48.8100 C   0  0  0  0  0  0  0  0  0  0  0  0
   61.2070   33.6100   48.0390 O   0  0  0  0  0  0  0  0  0  0  0  0
   60.3050   34.5820   47.7950 C   0  0  0  0  0  0  0  0  0  0  0  0
   59.3170   34.1840   46.7170 C   0  0  0  0  0  0  0  0  0  0  0  0
   58.0500   33.7410   47.1240 C   0  0  0  0  0  0  0  0  0  0  0  0
   57.0880   33.3570   46.2010 C   0  0  0  0  0  0  0  0  0  0  0  0
   57.4170   33.4240   44.8760 C   0  0  0  0  0  0  0  0  0  0  0  0
   58.6670   33.8610   44.4660 C   0  0  0  0  0  0  0  0  0  0  0  0
   59.6450   34.2510   45.3820 C   0  0  0  0  0  0  0  0  0  0  0  0
   59.1190   31.4820   50.0320 C   0  0  0  0  0  0  0  0  0  0  0  0
   59.3240   30.3470   49.1190 C   0  0  0  0  0  0  0  0  0  0  0  0
   59.9740   29.1950   49.4970 C   0  0  0  0  0  0  0  0  0  0  0  0
   60.1130   28.1920   48.5930 C   0  0  0  0  0  0  0  0  0  0  0  0
   59.6190   28.2830   47.2920 C   0  0  0  0  0  0  0  0  0  0  0  0
   58.9660   29.4290   46.8990 C   0  0  0  0  0  0  0  0  0  0  0  0
   58.3940   29.6110   45.5310 C   0  0  0  0  0  0  0  0  0  0  0  0
   58.7960   28.6130   44.6740 F   0  0  0  0  0  0  0  0  0  0  0  0
   57.0220   29.7180   45.5750 F   0  0  0  0  0  0  0  0  0  0  0  0
   58.8470   30.8220   45.0010 F   0  0  0  0  0  0  0  0  0  0  0  0
   58.8310   30.4520   47.8370 C   0  0  0  0  0  0  0  0  0  0  0  0
   58.1490   31.4100   51.0050 C   0  0  0  0  0  0  0  0  0  0  0  0
   57.4260   30.3490   51.1440 N   0  0  0  0  0  0  0  0  0  0  0  0
   57.9670   32.4640   51.8140 N   0  0  0  0  0  0  0  0  0  0  0  0
   58.0360   35.3990   52.0830 H   0  0  0  0  0  0  0  0  0  0  0  0
   60.2440   34.5050   50.6410 H   0  0  0  0  0  0  0  0  0  0  0  0
   61.8776   32.2806   49.3084 H   0  0  0  0  0  0  0  0  0  0  0  0
   60.4946   31.8442   48.0914 H   0  0  0  0  0  0  0  0  0  0  0  0
   59.7523   34.7941   48.7221 H   0  0  0  0  0  0  0  0  0  0  0  0
   60.8504   35.4704   47.4439 H   0  0  0  0  0  0  0  0  0  0  0  0
   57.8141   33.6971   48.1975 H   0  0  0  0  0  0  0  0  0  0  0  0
   56.0952   33.0107   46.5242 H   0  0  0  0  0  0  0  0  0  0  0  0
   56.6755   33.1254   44.1204 H   0  0  0  0  0  0  0  0  0  0  0  0
   58.8940   33.9014   43.3904 H   0  0  0  0  0  0  0  0  0  0  0  0
   60.6354   34.5971   45.0513 H   0  0  0  0  0  0  0  0  0  0  0  0
   60.3748   29.0883   50.5158 H   0  0  0  0  0  0  0  0  0  0  0  0
   60.6349   27.2730   48.8980 H   0  0  0  0  0  0  0  0  0  0  0  0
   59.7498   27.4481   46.5878 H   0  0  0  0  0  0  0  0  0  0  0  0
   58.3121   31.3762   47.5426 H   0  0  0  0  0  0  0  0  0  0  0  0
   57.3950   29.6130   50.4190 H   0  0  0  0  0  0  0  0  0  0  0  0
   57.2450   32.4520   52.5690 H   0  0  0  0  0  0  0  0  0  0  0  0
  1  2  2  3
  2  3  1  0
  3  4  1  0
  4  5  1  0
  5  6  1  0
  6  7  1  0
  7  8  1  0
  8  9  2  0
  9 10  1  0
 10 11  2  0
 11 12  1  0
 12 13  2  0
  4 14  2  0
 14 15  1  0
 15 16  2  0
 16 17  1  0
 17 18  2  0
 18 19  1  0
 19 20  1  0
 20 21  1  0
 20 22  1  0
 20 23  1  0
 19 24  2  0
 14 25  1  0
 25 26  2  3
 25 27  1  0
 27  2  1  0
 13  8  1  0
 24 15  1  0
  1 28  1  0
  3 29  1  0
  5 30  1  0
  5 31  1  0
  7 32  1  0
  7 33  1  0
  9 34  1  0
 10 35  1  0
 11 36  1  0
 12 37  1  0
 13 38  1  0
 16 39  1  0
 17 40  1  0
 18 41  1  0
 24 42  1  0
 26 43  1  0
 27 44  1  0
M  END
>  <smiles>  (7) 
N=c1[nH]c(COCc2ccccc2)c(-c2cccc(C(F)(F)F)c2)c(=N)[nH]1

>  <score_type>  (7) 
oracle

>  <origin>  (7) 
adg

>  <m_score__min__energy>  (7) 
-7.3700000000000001

>  <m_primary>  (7) 
energy

$$$$
7:0
     RDKit          3D

 24 25  0  0  0  0  0  0  0  0999 V2000
   55.8850   28.2140   45.2400 O   0  0  0  0  0  0  0  0  0  0  0  0
   56.7740   29.0890   45.0690 C   0  0  0  0  0  0  0  0  0  0  0  0
   56.3690   30.4320   44.7670 N   0  0  0  0  0  0  0  0  0  0  0  0
   57.0940   31.3810   43.9240 C   0  0  0  0  0  0  0  0  0  0  0  0
   57.7930   32.4150   44.7670 C   0  0  0  0  0  0  0  0  0  0  0  0
   58.4610   33.4880   44.1530 C   0  0  0  0  0  0  0  0  0  0  0  0
   59.0950   34.4610   44.9320 C   0  0  0  0  0  0  0  0  0  0  0  0
   59.0700   34.3690   46.3260 C   0  0  0  0  0  0  0  0  0  0  0  0
   59.6850   35.3140   47.0800 F   0  0  0  0  0  0  0  0  0  0  0  0
   58.4120   33.3010   46.9450 C   0  0  0  0  0  0  0  0  0  0  0  0
   57.7780   32.3260   46.1700 C   0  0  0  0  0  0  0  0  0  0  0  0
   58.1850   28.7030   45.2270 C   0  0  0  0  0  0  0  0  0  0  0  0
   58.7600   28.3380   46.4490 C   0  0  0  0  0  0  0  0  0  0  0  0
   60.3670   28.0480   46.0950 S   0  0  0  0  0  0  0  0  0  0  0  0
   60.2950   28.3910   44.4780 N   0  0  0  0  0  0  0  0  0  0  0  0
   59.0520   28.7380   44.1680 N   0  0  0  0  0  0  0  0  0  0  0  0
   57.8407   30.8367   43.3271 H   0  0  0  0  0  0  0  0  0  0  0  0
   56.3753   31.8892   43.2643 H   0  0  0  0  0  0  0  0  0  0  0  0
   58.4853   33.5628   43.0558 H   0  0  0  0  0  0  0  0  0  0  0  0
   59.6144   35.3003   44.4464 H   0  0  0  0  0  0  0  0  0  0  0  0
   58.3936   33.2285   48.0425 H   0  0  0  0  0  0  0  0  0  0  0  0
   57.2650   31.4853   46.6599 H   0  0  0  0  0  0  0  0  0  0  0  0
   58.2635   28.2593   47.4274 H   0  0  0  0  0  0  0  0  0  0  0  0
   61.0850   28.3580   43.7960 H   0  0  0  0  0  0  0  0  0  0  0  0
  1  2  2  0
  2  3  1  0
  3  4  1  0
  4  5  1  0
  5  6  2  0
  6  7  1  0
  7  8  2  0
  8  9  1  0
  8 10  1  0
 10 11  2  0
  2 12  1  0
 12 13  2  0
 13 14  1  0
 14 15  1  0
 15 16  2  0
 11  5  1  0
 16 12  1  0
  4 17  1  0
  4 18  1  0
  6 19  1  0
  7 20  1  0
 10 21  1  0
 11 22  1  0
 13 23  1  0
 15 24  1  0
M  CHG  2   3  -1  15   1
M  END
>  <UniqueID>  (8) 
7

>  <SMILES>  (8) 
O=C([N-]Cc1ccc(F)cc1)c1cs[nH+]n1

>  <Energy>  (8) 
63.201686240806424

>  <Genealogy>  (8) 
O=C([N-]Cc1ccc(F)cc1)c1cs[nH+]n1 (protonated)
O=C([N-]Cc1ccc(F)cc1)c1cs[nH+]n1 (3D coordinates assigned)
O=C([N-]Cc1ccc(F)cc1)c1cs[nH+]n1 (optimized conformer: 63.201686240806424 kcal/mol)

>  <smiles>  (8) 
O=C(NCc1ccc(F)cc1)c1csnn1

>  <score_type>  (8) 
oracle

>  <origin>  (8) 
adg

>  <m_score__min__energy>  (8) 
-6.7599999999999998

>  <m_primary>  (8) 
energy

$$$$
8:0
     RDKit          3D

 18 18  0  0  0  0  0  0  0  0999 V2000
   56.8040   19.6630   43.1980 H   0  0  0  0  0  0  0  0  0  0  0  0
   56.3760   20.6060   43.0590 N   0  0  0  0  0  0  0  0  0  0  0  0
   56.8770   21.6760   43.5940 C   0  0  0  0  0  0  0  0  0  0  0  0
   56.1540   22.8680   43.5510 C   0  0  0  0  0  0  0  0  0  0  0  0
   55.1665   22.8999   43.0675 H   0  0  0  0  0  0  0  0  0  0  0  0
   56.6920   24.0180   44.1250 C   0  0  0  0  0  0  0  0  0  0  0  0
   56.1271   24.9613   44.0929 H   0  0  0  0  0  0  0  0  0  0  0  0
   57.9490   23.9790   44.7430 C   0  0  0  0  0  0  0  0  0  0  0  0
   58.5140   25.2300   45.3590 C   0  0  0  0  0  0  0  0  0  0  0  0
   58.4769   25.1479   46.4553 H   0  0  0  0  0  0  0  0  0  0  0  0
   59.5576   25.3587   45.0360 H   0  0  0  0  0  0  0  0  0  0  0  0
   57.9205   26.0980   45.0360 H   0  0  0  0  0  0  0  0  0  0  0  0
   58.6540   22.7530   44.7700 C   0  0  0  0  0  0  0  0  0  0  0  0
   59.9450   22.6510   45.3860 N   0  0  0  0  0  0  0  0  0  0  0  0
   60.0820   22.9650   46.3730 H   0  0  0  0  0  0  0  0  0  0  0  0
   60.7770   22.2700   44.8840 H   0  0  0  0  0  0  0  0  0  0  0  0
   58.1020   21.6440   44.1970 N   0  0  0  0  0  0  0  0  0  0  0  0
   58.6350   20.7440   44.2250 H   0  0  0  0  0  0  0  0  0  0  0  0
  1  2  1  0
  2  3  2  0
  3  4  1  0
  4  5  1  0
  4  6  2  0
  6  7  1  0
  6  8  1  0
  8  9  1  0
  9 10  1  0
  9 11  1  0
  9 12  1  0
  8 13  2  0
 13 14  1  0
 14 15  1  0
 14 16  1  0
 13 17  1  0
 17 18  1  0
 17  3  1  0
M  END
>  <UniqueID>  (9) 
8

>  <SMILES>  (9) 
[H]/N=c1/ccc(C)c(N)[nH]1

>  <Energy>  (9) 
16.703554855194056

>  <Genealogy>  (9) 
[H]/N=c1/ccc(C)c(N)[nH]1 (cis-trans isomerization)
[H]/N=c1/ccc(C)c(N)[nH]1 (3D coordinates assigned)
[H]/N=c1/ccc(C)c(N)[nH]1 (optimized conformer: 16.703554855194056 kcal/mol)

>  <smiles>  (9) 
Cc1ccc(=N)[nH]c1N

>  <score_type>  (9) 
oracle

>  <origin>  (9) 
adg

>  <m_score__min__energy>  (9) 
-4.6399999999999997

>  <m_primary>  (9) 
energy

$$$$
9:0
     RDKit          3D

 44 46  0  0  1  0  0  0  0  0999 V2000
   56.6330   30.4960   42.6590 C   0  0  0  0  0  0  0  0  0  0  0  0
   57.2040   30.9090   43.9500 C   0  0  0  0  0  0  0  0  0  0  0  0
   56.6740   30.4810   44.9730 O   0  0  0  0  0  0  0  0  0  0  0  0
   58.3750   31.8090   44.1110 C   0  0  0  0  0  0  0  0  0  0  0  0
   57.9630   33.0910   44.5450 N   0  0  0  0  0  0  0  0  0  0  0  0
   58.9240   34.1220   44.4870 C   0  0  0  0  0  0  0  0  0  0  0  0
   59.2900   34.7870   45.7750 C   0  0  0  0  0  0  0  0  0  0  0  0
   58.9250   33.9930   47.0030 C   0  0  0  0  0  0  0  0  0  0  0  0
   59.8160   32.8470   47.0580 N   0  0  0  0  0  0  0  0  0  0  0  0
   59.4790   31.7220   47.5820 C   0  0  0  0  0  0  0  0  0  0  0  0
   59.3330   30.6010   46.7850 C   0  0  0  0  0  0  0  0  0  0  0  0
   58.9770   29.4320   47.4240 C   0  0  0  0  0  0  0  0  0  0  0  0
   58.8040   28.2480   46.6910 N   0  0  0  0  0  0  0  0  0  0  0  0
   58.0830   26.9360   46.5190 C   0  0  0  0  0  0  0  0  0  0  0  0
   59.1090   27.3360   45.5870 C   0  0  1  0  0  0  0  0  0  0  0  0
   58.7100   27.8260   44.1870 C   0  0  0  0  0  0  0  0  0  0  0  0
   58.7840   29.3930   48.7490 N   0  0  0  0  0  0  0  0  0  0  0  0
   58.9270   30.4930   49.5300 C   0  0  0  0  0  0  0  0  0  0  0  0
   59.2750   31.6470   48.9200 N   0  0  0  0  0  0  0  0  0  0  0  0
   57.5260   33.4510   46.9570 C   0  0  0  0  0  0  0  0  0  0  0  0
   57.0180   33.1810   45.5870 C   0  0  0  0  0  0  0  0  0  0  0  0
   55.7531   29.8595   42.8341 H   0  0  0  0  0  0  0  0  0  0  0  0
   56.3331   31.3875   42.0887 H   0  0  0  0  0  0  0  0  0  0  0  0
   57.3858   29.9321   42.0887 H   0  0  0  0  0  0  0  0  0  0  0  0
   59.0616   31.3790   44.8551 H   0  0  0  0  0  0  0  0  0  0  0  0
   58.8806   31.9096   43.1393 H   0  0  0  0  0  0  0  0  0  0  0  0
   59.8439   33.6936   44.0625 H   0  0  0  0  0  0  0  0  0  0  0  0
   58.4560   34.9127   43.8822 H   0  0  0  0  0  0  0  0  0  0  0  0
   60.3774   34.9527   45.7814 H   0  0  0  0  0  0  0  0  0  0  0  0
   58.7170   35.7248   45.8218 H   0  0  0  0  0  0  0  0  0  0  0  0
   59.0073   34.6631   47.8714 H   0  0  0  0  0  0  0  0  0  0  0  0
   59.4927   30.6400   45.6973 H   0  0  0  0  0  0  0  0  0  0  0  0
   58.2674   26.1093   47.2208 H   0  0  0  0  0  0  0  0  0  0  0  0
   57.0301   26.6285   46.4367 H   0  0  0  0  0  0  0  0  0  0  0  0
   60.0104   26.8280   45.2135 H   0  0  0  0  0  0  0  0  0  0  0  0
   58.0179   28.6760   44.2795 H   0  0  0  0  0  0  0  0  0  0  0  0
   59.6096   28.1436   43.6395 H   0  0  0  0  0  0  0  0  0  0  0  0
   58.2167   27.0094   43.6395 H   0  0  0  0  0  0  0  0  0  0  0  0
   58.7659   30.4471   50.6172 H   0  0  0  0  0  0  0  0  0  0  0  0
   59.3790   32.4770   49.5490 H   0  0  0  0  0  0  0  0  0  0  0  0
   57.5030   32.5090   47.5245 H   0  0  0  0  0  0  0  0  0  0  0  0
   56.8744   34.2260   47.3868 H   0  0  0  0  0  0  0  0  0  0  0  0
   56.4736   32.2258   45.6205 H   0  0  0  0  0  0  0  0  0  0  0  0
   56.4101   34.0629   45.3364 H   0  0  0  0  0  0  0  0  0  0  0  0
  1  2  1  0
  2  3  2  0
  2  4  1  0
  4  5  1  0
  5  6  1  0
  6  7  1  0
  7  8  1  0
  8  9  1  0
  9 10  2  0
 10 11  1  0
 11 12  2  0
 12 13  1  0
 13 14  1  0
 14 15  1  0
 15 16  1  0
 12 17  1  0
 17 18  2  0
 18 19  1  0
  8 20  1  0
 20 21  1  0
 21  5  1  0
 19 10  1  0
 15 13  1  0
  1 22  1  0
  1 23  1  0
  1 24  1  0
  4 25  1  0
  4 26  1  0
  6 27  1  0
  6 28  1  0
  7 29  1  0
  7 30  1  0
  8 31  1  0
 11 32  1  0
 14 33  1  0
 14 34  1  0
 15 35  1  6
 16 36  1  0
 16 37  1  0
 16 38  1  0
 18 39  1  0
 19 40  1  0
 20 41  1  0
 20 42  1  0
 21 43  1  0
 21 44  1  0
M  END
>  <smiles>  (10) 
CC(=O)CN1CCC(N=c2cc(N3CC3C)nc[nH]2)CC1

>  <score_type>  (10) 
oracle

>  <origin>  (10) 
adg

>  <m_score__min__energy>  (10) 
-7.5

>  <m_primary>  (10) 
energy

$$$$
10:0
     RDKit          3D

 26 27  0  0  0  0  0  0  0  0999 V2000
   58.2659   33.8428   47.5849 H   0  0  0  0  0  0  0  0  0  0  0  0
   58.1760   33.5080   46.5410 C   0  0  0  0  0  0  0  0  0  0  0  0
   57.3910   32.4440   46.2340 N   0  0  0  0  0  0  0  0  0  0  0  0
   57.2340   31.9740   44.9650 C   0  0  0  0  0  0  0  0  0  0  0  0
   56.4610   30.9310   44.8190 N   0  0  0  0  0  0  0  0  0  0  0  0
   56.7510   29.4940   44.8090 C   0  0  0  0  0  0  0  0  0  0  0  0
   55.8776   28.9996   45.2593 H   0  0  0  0  0  0  0  0  0  0  0  0
   57.0200   28.9850   43.3940 C   0  0  0  0  0  0  0  0  0  0  0  0
   56.0908   28.6102   42.9400 H   0  0  0  0  0  0  0  0  0  0  0  0
   57.4015   29.7865   42.7443 H   0  0  0  0  0  0  0  0  0  0  0  0
   58.0330   27.8540   43.5370 C   0  0  0  0  0  0  0  0  0  0  0  0
   57.5380   26.8823   43.3926 H   0  0  0  0  0  0  0  0  0  0  0  0
   58.8293   27.9410   42.7831 H   0  0  0  0  0  0  0  0  0  0  0  0
   58.6050   27.9470   44.9490 C   0  0  0  0  0  0  0  0  0  0  0  0
   58.2922   27.0764   45.5442 H   0  0  0  0  0  0  0  0  0  0  0  0
   59.7048   27.9593   44.9335 H   0  0  0  0  0  0  0  0  0  0  0  0
   58.0480   29.2260   45.5550 C   0  0  0  0  0  0  0  0  0  0  0  0
   57.8533   29.0901   46.6291 H   0  0  0  0  0  0  0  0  0  0  0  0
   58.7542   30.0642   45.4622 H   0  0  0  0  0  0  0  0  0  0  0  0
   57.9160   32.6460   43.9050 C   0  0  0  0  0  0  0  0  0  0  0  0
   57.7970   32.3150   42.5070 C   0  0  0  0  0  0  0  0  0  0  0  0
   57.7210   32.0490   41.3830 N   0  0  0  0  0  0  0  0  0  0  0  0
   58.7330   33.7430   44.2190 C   0  0  0  0  0  0  0  0  0  0  0  0
   59.2734   34.2670   43.4169 H   0  0  0  0  0  0  0  0  0  0  0  0
   58.8660   34.1740   45.5350 C   0  0  0  0  0  0  0  0  0  0  0  0
   59.5101   35.0323   45.7767 H   0  0  0  0  0  0  0  0  0  0  0  0
  1  2  1  0
  2  3  1  0
  3  4  1  0
  4  5  2  0
  5  6  1  0
  6  7  1  0
  6  8  1  0
  8  9  1  0
  8 10  1  0
  8 11  1  0
 11 12  1  0
 11 13  1  0
 11 14  1  0
 14 15  1  0
 14 16  1  0
 14 17  1  0
 17 18  1  0
 17 19  1  0
  4 20  1  0
 20 21  1  0
 21 22  3  0
 20 23  2  0
 23 24  1  0
 23 25  1  0
 25 26  1  0
 25  2  2  0
 17  6  1  0
M  CHG  1   3  -1
M  END
>  <UniqueID>  (11) 
9

>  <SMILES>  (11) 
N#Cc1ccc[n-]/c1=N/C1CCCC1

>  <Energy>  (11) 
34.92796662071431

>  <Genealogy>  (11) 
N#Cc1ccc[n-]c1=NC1CCCC1 (protonated)
N#Cc1ccc[n-]/c1=N/C1CCCC1 (cis-trans isomerization)
N#Cc1ccc[n-]/c1=N/C1CCCC1 (3D coordinates assigned)
N#Cc1ccc[n-]/c1=N/C1CCCC1 (nonaromatic ring conformer: 34.92796662071431 kcal/mol)

>  <smiles>  (11) 
N#Cc1ccc[nH]c1=NC1CCCC1

>  <score_type>  (11) 
oracle

>  <origin>  (11) 
adg

>  <m_score__min__energy>  (11) 
-7.1799999999999997

>  <m_primary>  (11) 
energy

$$$$
11:0
     RDKit          3D

 39 41  0  0  0  0  0  0  0  0999 V2000
   62.8590   33.8320   46.3790 C   0  0  0  0  0  0  0  0  0  0  0  0
   62.1770   33.8460   47.7220 C   0  0  0  0  0  0  0  0  0  0  0  0
   62.9650   33.9380   48.8820 C   0  0  0  0  0  0  0  0  0  0  0  0
   62.3710   33.9310   50.1460 C   0  0  0  0  0  0  0  0  0  0  0  0
   60.9860   33.8390   50.2690 C   0  0  0  0  0  0  0  0  0  0  0  0
   60.4130   33.8280   51.4980 F   0  0  0  0  0  0  0  0  0  0  0  0
   60.1860   33.7650   49.1270 C   0  0  0  0  0  0  0  0  0  0  0  0
   60.7640   33.7840   47.8450 C   0  0  0  0  0  0  0  0  0  0  0  0
   59.8740   33.7330   46.6650 C   0  0  0  0  0  0  0  0  0  0  0  0
   59.5390   34.9060   45.9740 C   0  0  0  0  0  0  0  0  0  0  0  0
   58.6870   34.8330   44.8740 C   0  0  0  0  0  0  0  0  0  0  0  0
   58.1810   33.6350   44.4800 N   0  0  0  0  0  0  0  0  0  0  0  0
   58.4720   32.4710   45.1280 C   0  0  0  0  0  0  0  0  0  0  0  0
   57.9010   31.2260   44.6570 N   0  0  0  0  0  0  0  0  0  0  0  0
   57.9330   30.0340   45.5190 C   0  0  0  0  0  0  0  0  0  0  0  0
   58.0850   28.7410   44.6920 C   0  0  0  0  0  0  0  0  0  0  0  0
   57.3920   28.7620   43.3830 N   0  0  0  0  0  0  0  0  0  0  0  0
   56.4000   29.8390   43.2580 C   0  0  0  0  0  0  0  0  0  0  0  0
   57.0770   31.1990   43.4390 C   0  0  0  0  0  0  0  0  0  0  0  0
   59.3290   32.5100   46.2450 C   0  0  0  0  0  0  0  0  0  0  0  0
   63.9495   33.8096   46.5217 H   0  0  0  0  0  0  0  0  0  0  0  0
   62.5444   32.9401   45.8173 H   0  0  0  0  0  0  0  0  0  0  0  0
   62.5812   34.7360   45.8173 H   0  0  0  0  0  0  0  0  0  0  0  0
   64.0587   34.0162   48.7937 H   0  0  0  0  0  0  0  0  0  0  0  0
   62.9983   33.9983   51.0471 H   0  0  0  0  0  0  0  0  0  0  0  0
   59.0934   33.6911   49.2310 H   0  0  0  0  0  0  0  0  0  0  0  0
   59.9453   35.8756   46.2975 H   0  0  0  0  0  0  0  0  0  0  0  0
   58.4232   35.7477   44.3229 H   0  0  0  0  0  0  0  0  0  0  0  0
   58.7833   30.1169   46.2119 H   0  0  0  0  0  0  0  0  0  0  0  0
   56.9822   29.9812   46.0696 H   0  0  0  0  0  0  0  0  0  0  0  0
   59.1569   28.5738   44.5102 H   0  0  0  0  0  0  0  0  0  0  0  0
   57.6170   27.9377   45.2800 H   0  0  0  0  0  0  0  0  0  0  0  0
   56.9060   27.8470   43.2350 H   0  0  0  0  0  0  0  0  0  0  0  0
   58.0990   28.8670   42.6170 H   0  0  0  0  0  0  0  0  0  0  0  0
   55.9362   29.7929   42.2616 H   0  0  0  0  0  0  0  0  0  0  0  0
   55.6309   29.7128   44.0343 H   0  0  0  0  0  0  0  0  0  0  0  0
   57.7180   31.3993   42.5678 H   0  0  0  0  0  0  0  0  0  0  0  0
   56.2952   31.9674   43.5307 H   0  0  0  0  0  0  0  0  0  0  0  0
   59.5706   31.5838   46.7870 H   0  0  0  0  0  0  0  0  0  0  0  0
  1  2  1  0
  2  3  2  0
  3  4  1  0
  4  5  2  0
  5  6  1  0
  5  7  1  0
  7  8  2  0
  8  9  1  0
  9 10  2  0
 10 11  1  0
 11 12  2  0
 12 13  1  0
 13 14  1  0
 14 15  1  0
 15 16  1  0
 16 17  1  0
 17 18  1  0
 18 19  1  0
 13 20  2  0
  8  2  1  0
 20  9  1  0
 19 14  1  0
  1 21  1  0
  1 22  1  0
  1 23  1  0
  3 24  1  0
  4 25  1  0
  7 26  1  0
 10 27  1  0
 11 28  1  0
 15 29  1  0
 15 30  1  0
 16 31  1  0
 16 32  1  0
 17 33  1  0
 17 34  1  0
 18 35  1  0
 18 36  1  0
 19 37  1  0
 19 38  1  0
 20 39  1  0
M  CHG  1  17   1
M  END
>  <UniqueID>  (12) 
10

>  <SMILES>  (12) 
Cc1ccc(F)cc1-c1ccnc(N2CC[NH2+]CC2)c1

>  <Energy>  (12) 
54.553600935169314

>  <Genealogy>  (12) 
Cc1ccc(F)cc1-c1ccnc(N2CC[NH2+]CC2)c1 (protonated)
Cc1ccc(F)cc1-c1ccnc(N2CC[NH2+]CC2)c1 (3D coordinates assigned)
Cc1ccc(F)cc1-c1ccnc(N2CC[NH2+]CC2)c1 (nonaromatic ring conformer: 54.553600935169314 kcal/mol)

>  <smiles>  (12) 
Cc1ccc(F)cc1-c1ccnc(N2CCNCC2)c1

>  <score_type>  (12) 
oracle

>  <origin>  (12) 
adg

>  <m_score__min__energy>  (12) 
-6.2400000000000002

>  <m_primary>  (12) 
energy

$$$$
12:0
     RDKit          3D

 66 70  0  0  0  0  0  0  0  0999 V2000
   65.2390   31.9820   50.4570 C   0  0  0  0  0  0  0  0  0  0  0  0
   64.8920   33.0050   49.3820 C   0  0  0  0  0  0  0  0  0  0  0  0
   63.6040   33.5780   49.6210 O   0  0  0  0  0  0  0  0  0  0  0  0
   62.5890   33.7350   48.6600 C   0  0  0  0  0  0  0  0  0  0  0  0
   62.7840   33.4660   47.2890 C   0  0  0  0  0  0  0  0  0  0  0  0
   61.7270   33.6040   46.3830 C   0  0  0  0  0  0  0  0  0  0  0  0
   60.4600   34.0000   46.8300 C   0  0  0  0  0  0  0  0  0  0  0  0
   59.1120   34.0380   45.6920 S   0  0  0  0  0  0  0  0  0  0  0  0
   59.6210   34.5580   44.3760 O   0  0  0  0  0  0  0  0  0  0  0  0
   58.0220   34.9420   46.2020 O   0  0  0  0  0  0  0  0  0  0  0  0
   58.5000   32.4060   45.5270 N   0  0  0  0  0  0  0  0  0  0  0  0
   58.3530   32.0580   44.0970 C   0  0  0  0  0  0  0  0  0  0  0  0
   57.2730   31.0400   43.9080 C   0  0  0  0  0  0  0  0  0  0  0  0
   56.5740   30.5180   44.9410 N   0  0  0  0  0  0  0  0  0  0  0  0
   55.7050   29.6790   44.3500 C   0  0  0  0  0  0  0  0  0  0  0  0
   55.8990   29.7150   42.9870 C   0  0  0  0  0  0  0  0  0  0  0  0
   56.8900   30.5790   42.6990 N   0  0  0  0  0  0  0  0  0  0  0  0
   59.2070   31.4320   46.4090 C   0  0  1  0  0  0  0  0  0  0  0  0
   58.5920   31.4610   47.8130 C   0  0  0  0  0  0  0  0  0  0  0  0
   59.4440   30.6440   48.7430 C   0  0  0  0  0  0  0  0  0  0  0  0
   59.6070   31.0210   50.0820 C   0  0  0  0  0  0  0  0  0  0  0  0
   60.4600   30.2880   50.9120 C   0  0  0  0  0  0  0  0  0  0  0  0
   60.6570   30.6890   52.2810 C   0  0  0  0  0  0  0  0  0  0  0  0
   60.8310   31.0120   53.3820 N   0  0  0  0  0  0  0  0  0  0  0  0
   61.1560   29.2000   50.3850 C   0  0  0  0  0  0  0  0  0  0  0  0
   60.9740   28.8330   49.0860 N   0  0  0  0  0  0  0  0  0  0  0  0
   60.1040   29.4960   48.2610 C   0  0  0  0  0  0  0  0  0  0  0  0
   59.8810   29.0630   46.8900 N   0  0  0  0  0  0  0  0  0  0  0  0
   60.0820   27.6550   46.4950 C   0  0  0  0  0  0  0  0  0  0  0  0
   58.7660   26.9460   46.2800 C   0  0  0  0  0  0  0  0  0  0  0  0
   58.0100   26.3210   47.2550 C   0  0  0  0  0  0  0  0  0  0  0  0
   56.8530   25.8790   46.7180 N   0  0  0  0  0  0  0  0  0  0  0  0
   56.9340   26.2330   45.4170 C   0  0  0  0  0  0  0  0  0  0  0  0
   58.0880   26.8640   45.1190 N   0  0  0  0  0  0  0  0  0  0  0  0
   58.4360   27.4370   43.8200 C   0  0  0  0  0  0  0  0  0  0  0  0
   59.2610   29.9680   45.9040 C   0  0  0  0  0  0  0  0  0  0  0  0
   60.2660   34.2920   48.1880 C   0  0  0  0  0  0  0  0  0  0  0  0
   61.3280   34.1630   49.0930 C   0  0  0  0  0  0  0  0  0  0  0  0
   65.0875   32.4287   51.4508 H   0  0  0  0  0  0  0  0  0  0  0  0
   64.5894   31.1010   50.3481 H   0  0  0  0  0  0  0  0  0  0  0  0
   66.2905   31.6780   50.3481 H   0  0  0  0  0  0  0  0  0  0  0  0
   65.6483   33.8037   49.3872 H   0  0  0  0  0  0  0  0  0  0  0  0
   64.8760   32.4980   48.4059 H   0  0  0  0  0  0  0  0  0  0  0  0
   63.7733   33.1458   46.9301 H   0  0  0  0  0  0  0  0  0  0  0  0
   61.8917   33.4006   45.3146 H   0  0  0  0  0  0  0  0  0  0  0  0
   58.0976   32.9649   43.5292 H   0  0  0  0  0  0  0  0  0  0  0  0
   59.3029   31.6364   43.7365 H   0  0  0  0  0  0  0  0  0  0  0  0
   54.9584   29.0624   44.8719 H   0  0  0  0  0  0  0  0  0  0  0  0
   55.3322   29.1288   42.2486 H   0  0  0  0  0  0  0  0  0  0  0  0
   60.2531   31.7720   46.4105 H   0  0  0  0  0  0  0  0  0  0  0  0
   58.5459   32.4994   48.1730 H   0  0  0  0  0  0  0  0  0  0  0  0
   57.5753   31.0424   47.7797 H   0  0  0  0  0  0  0  0  0  0  0  0
   59.0651   31.8918   50.4795 H   0  0  0  0  0  0  0  0  0  0  0  0
   61.8545   28.6363   51.0209 H   0  0  0  0  0  0  0  0  0  0  0  0
   61.5500   28.0430   48.7260 H   0  0  0  0  0  0  0  0  0  0  0  0
   60.6606   27.6254   45.5600 H   0  0  0  0  0  0  0  0  0  0  0  0
   60.6208   27.1431   47.3060 H   0  0  0  0  0  0  0  0  0  0  0  0
   58.3063   26.2022   48.3076 H   0  0  0  0  0  0  0  0  0  0  0  0
   56.1436   26.0286   44.6798 H   0  0  0  0  0  0  0  0  0  0  0  0
   59.0017   28.3684   43.9698 H   0  0  0  0  0  0  0  0  0  0  0  0
   59.0518   26.7207   43.2564 H   0  0  0  0  0  0  0  0  0  0  0  0
   57.5164   27.6531   43.2564 H   0  0  0  0  0  0  0  0  0  0  0  0
   59.8479   29.9350   44.9742 H   0  0  0  0  0  0  0  0  0  0  0  0
   58.2279   29.6294   45.7364 H   0  0  0  0  0  0  0  0  0  0  0  0
   59.2788   34.6227   48.5431 H   0  0  0  0  0  0  0  0  0  0  0  0
   61.1694   34.4006   50.1553 H   0  0  0  0  0  0  0  0  0  0  0  0
  1  2  1  0
  2  3  1  0
  3  4  1  0
  4  5  2  0
  5  6  1  0
  6  7  2  0
  7  8  1  0
  8  9  2  0
  8 10  2  0
  8 11  1  0
 11 12  1  0
 12 13  1  0
 13 14  2  0
 14 15  1  0
 15 16  2  0
 16 17  1  0
 11 18  1  0
 18 19  1  0
 19 20  1  0
 20 21  2  0
 21 22  1  0
 22 23  1  0
 23 24  3  0
 22 25  2  0
 25 26  1  0
 26 27  2  0
 27 28  1  0
 28 29  1  0
 29 30  1  0
 30 31  2  0
 31 32  1  0
 32 33  2  0
 33 34  1  0
 34 35  1  0
 28 36  1  0
  7 37  1  0
 37 38  2  0
 38  4  1  0
 17 13  1  0
 36 18  1  0
 27 20  1  0
 34 30  1  0
  1 39  1  0
  1 40  1  0
  1 41  1  0
  2 42  1  0
  2 43  1  0
  5 44  1  0
  6 45  1  0
 12 46  1  0
 12 47  1  0
 15 48  1  0
 16 49  1  0
 18 50  1  1
 19 51  1  0
 19 52  1  0
 21 53  1  0
 25 54  1  0
 26 55  1  0
 29 56  1  0
 29 57  1  0
 31 58  1  0
 33 59  1  0
 35 60  1  0
 35 61  1  0
 35 62  1  0
 36 63  1  0
 36 64  1  0
 37 65  1  0
 38 66  1  0
M  CHG  2  17  -1  26   1
M  END
>  <UniqueID>  (13) 
11

>  <SMILES>  (13) 
CCOc1ccc(S(=O)(=O)N(Cc2ncc[n-]2)[C@H]2Cc3cc(C#N)c[nH+]c3N(Cc3cncn3C)C2)cc1

>  <Energy>  (13) 
133.70991769264788

>  <Genealogy>  (13) 
CCOc1ccc(S(=O)(=O)N(Cc2ncc[n-]2)C2Cc3cc(C#N)c[nH+]c3N(Cc3cncn3C)C2)cc1 (protonated)
CCOc1ccc(S(=O)(=O)N(Cc2ncc[n-]2)[C@H]2Cc3cc(C#N)c[nH+]c3N(Cc3cncn3C)C2)cc1 (chirality)
CCOc1ccc(S(=O)(=O)N(Cc2ncc[n-]2)[C@H]2Cc3cc(C#N)c[nH+]c3N(Cc3cncn3C)C2)cc1 (3D coordinates assigned)
CCOc1ccc(S(=O)(=O)N(Cc2ncc[n-]2)[C@H]2Cc3cc(C#N)c[nH+]c3N(Cc3cncn3C)C2)cc1 (nonaromatic ring conformer: 133.70991769264788 kcal/mol)

>  <smiles>  (13) 
CCOc1ccc(S(=O)(=O)N(Cc2ncc[nH]2)C2Cc3cc(C#N)cnc3N(Cc3cncn3C)C2)cc1

>  <score_type>  (13) 
oracle

>  <origin>  (13) 
adg

>  <m_score__min__energy>  (13) 
-9.1300000000000008

>  <m_primary>  (13) 
energy

$$$$
13:0
     RDKit          3D

 43 44  0  0  0  0  0  0  0  0999 V2000
   57.7630   28.5150   43.6450 C   0  0  0  0  0  0  0  0  0  0  0  0
   56.9750   28.9480   45.1810 S   0  0  0  0  0  0  0  0  0  0  0  0
   55.7490   29.7650   44.8810 O   0  0  0  0  0  0  0  0  0  0  0  0
   56.5650   27.6970   45.9080 O   0  0  0  0  0  0  0  0  0  0  0  0
   58.0580   29.8890   46.1610 N   0  0  0  0  0  0  0  0  0  0  0  0
   58.6800   29.0440   47.1840 C   0  0  0  0  0  0  0  0  0  0  0  0
   60.2110   29.0910   47.0750 C   0  0  0  0  0  0  0  0  0  0  0  0
   60.7470   30.3900   46.4490 C   0  0  0  0  0  0  0  0  0  0  0  0
   60.7940   31.4920   47.4240 N   0  0  0  0  0  0  0  0  0  0  0  0
   59.5410   32.0950   47.8970 C   0  0  0  0  0  0  0  0  0  0  0  0
   58.9350   32.9270   46.8070 C   0  0  0  0  0  0  0  0  0  0  0  0
   59.6700   33.9570   46.2020 C   0  0  0  0  0  0  0  0  0  0  0  0
   59.0640   34.7460   45.2230 C   0  0  0  0  0  0  0  0  0  0  0  0
   57.7360   34.5090   44.8640 C   0  0  0  0  0  0  0  0  0  0  0  0
   57.0300   33.4840   45.4960 C   0  0  0  0  0  0  0  0  0  0  0  0
   57.6360   32.7250   46.4480 N   0  0  0  0  0  0  0  0  0  0  0  0
   62.0330   31.8490   48.0660 C   0  0  0  0  0  0  0  0  0  0  0  0
   62.9060   32.7640   47.4570 C   0  0  0  0  0  0  0  0  0  0  0  0
   64.1100   33.1140   48.0780 C   0  0  0  0  0  0  0  0  0  0  0  0
   64.4500   32.5560   49.3130 C   0  0  0  0  0  0  0  0  0  0  0  0
   65.9590   32.9970   50.0910 Cl  0  0  0  0  0  0  0  0  0  0  0  0
   63.5840   31.6460   49.9290 C   0  0  0  0  0  0  0  0  0  0  0  0
   62.3820   31.2930   49.3100 C   0  0  0  0  0  0  0  0  0  0  0  0
   58.7097   27.9948   43.8525 H   0  0  0  0  0  0  0  0  0  0  0  0
   57.1006   27.8542   43.0666 H   0  0  0  0  0  0  0  0  0  0  0  0
   57.9657   29.4284   43.0666 H   0  0  0  0  0  0  0  0  0  0  0  0
   57.4610   30.5960   46.6460 H   0  0  0  0  0  0  0  0  0  0  0  0
   58.3784   29.4021   48.1794 H   0  0  0  0  0  0  0  0  0  0  0  0
   58.3480   28.0062   47.0329 H   0  0  0  0  0  0  0  0  0  0  0  0
   60.6343   28.9921   48.0855 H   0  0  0  0  0  0  0  0  0  0  0  0
   60.5114   28.2667   46.4115 H   0  0  0  0  0  0  0  0  0  0  0  0
   61.7631   30.2084   46.0687 H   0  0  0  0  0  0  0  0  0  0  0  0
   60.0654   30.6829   45.6368 H   0  0  0  0  0  0  0  0  0  0  0  0
   58.8377   31.2990   48.1828 H   0  0  0  0  0  0  0  0  0  0  0  0
   59.7511   32.7338   48.7675 H   0  0  0  0  0  0  0  0  0  0  0  0
   60.7138   34.1412   46.4962 H   0  0  0  0  0  0  0  0  0  0  0  0
   59.6314   35.5525   44.7356 H   0  0  0  0  0  0  0  0  0  0  0  0
   57.2510   35.1235   44.0912 H   0  0  0  0  0  0  0  0  0  0  0  0
   55.9821   33.2899   45.2237 H   0  0  0  0  0  0  0  0  0  0  0  0
   62.6421   33.2084   46.4860 H   0  0  0  0  0  0  0  0  0  0  0  0
   64.7901   33.8297   47.5930 H   0  0  0  0  0  0  0  0  0  0  0  0
   63.8498   31.2077   50.9023 H   0  0  0  0  0  0  0  0  0  0  0  0
   61.7051   30.5765   49.7982 H   0  0  0  0  0  0  0  0  0  0  0  0
  1  2  1  0
  2  3  2  0
  2  4  2  0
  2  5  1  0
  5  6  1  0
  6  7  1  0
  7  8  1  0
  8  9  1  0
  9 10  1  0
 10 11  1  0
 11 12  2  0
 12 13  1  0
 13 14  2  0
 14 15  1  0
 15 16  2  0
  9 17  1  0
 17 18  2  0
 18 19  1  0
 19 20  2  0
 20 21  1  0
 20 22  1  0
 22 23  2  0
 16 11  1  0
 23 17  1  0
  1 24  1  0
  1 25  1  0
  1 26  1  0
  5 27  1  0
  6 28  1  0
  6 29  1  0
  7 30  1  0
  7 31  1  0
  8 32  1  0
  8 33  1  0
 10 34  1  0
 10 35  1  0
 12 36  1  0
 13 37  1  0
 14 38  1  0
 15 39  1  0
 18 40  1  0
 19 41  1  0
 22 42  1  0
 23 43  1  0
M  END
>  <UniqueID>  (14) 
12

>  <SMILES>  (14) 
CS(=O)(=O)NCCCN(Cc1ccccn1)c1ccc(Cl)cc1

>  <Energy>  (14) 
34.95972911178292

>  <Genealogy>  (14) 
CS(=O)(=O)NCCCN(Cc1ccccn1)c1ccc(Cl)cc1 (3D coordinates assigned)
CS(=O)(=O)NCCCN(Cc1ccccn1)c1ccc(Cl)cc1 (optimized conformer: 34.95972911178292 kcal/mol)

>  <smiles>  (14) 
CS(=O)(=O)NCCCN(Cc1ccccn1)c1ccc(Cl)cc1

>  <score_type>  (14) 
oracle

>  <origin>  (14) 
adg

>  <m_score__min__energy>  (14) 
-7.9500000000000002

>  <m_primary>  (14) 
energy

$$$$
14:0
     RDKit          3D

 48 50  0  0  0  0  0  0  0  0999 V2000
   58.1100   27.4870   43.8030 C   0  0  0  0  0  0  0  0  0  0  0  0
   58.3220   27.8590   45.2630 C   0  0  0  0  0  0  0  0  0  0  0  0
   57.1920   28.6520   45.7340 N   0  0  0  0  0  0  0  0  0  0  0  0
   56.3890   29.5090   44.9100 C   0  0  0  0  0  0  0  0  0  0  0  0
   55.1460   29.3190   44.8700 O   0  0  0  0  0  0  0  0  0  0  0  0
   56.9600   30.6330   44.1470 C   0  0  0  0  0  0  0  0  0  0  0  0
   57.5760   31.7150   44.7940 C   0  0  0  0  0  0  0  0  0  0  0  0
   58.1340   32.7540   44.0300 C   0  0  0  0  0  0  0  0  0  0  0  0
   58.7390   33.8720   44.6240 O   0  0  0  0  0  0  0  0  0  0  0  0
   59.3110   33.8960   45.9040 C   0  0  0  0  0  0  0  0  0  0  0  0
   58.5160   34.0160   47.0750 C   0  0  0  0  0  0  0  0  0  0  0  0
   59.1110   34.0170   48.3480 C   0  0  0  0  0  0  0  0  0  0  0  0
   60.4960   33.8920   48.4180 C   0  0  0  0  0  0  0  0  0  0  0  0
   61.2560   33.8410   49.5250 N   0  0  0  0  0  0  0  0  0  0  0  0
   62.5140   33.6920   49.0300 C   0  0  0  0  0  0  0  0  0  0  0  0
   63.7190   33.5660   49.9360 C   0  0  0  0  0  0  0  0  0  0  0  0
   64.4000   32.2540   49.8400 N   0  0  0  0  0  0  0  0  0  0  0  0
   65.8000   32.3140   50.2870 C   0  0  0  0  0  0  0  0  0  0  0  0
   63.6720   31.1830   50.5390 C   0  0  0  0  0  0  0  0  0  0  0  0
   62.5550   33.6580   47.6670 N   0  0  0  0  0  0  0  0  0  0  0  0
   63.7010   33.3870   46.7990 C   0  0  0  0  0  0  0  0  0  0  0  0
   61.2660   33.7700   47.3000 C   0  0  0  0  0  0  0  0  0  0  0  0
   60.7080   33.7510   46.0190 C   0  0  0  0  0  0  0  0  0  0  0  0
   58.0490   32.6970   42.6360 C   0  0  0  0  0  0  0  0  0  0  0  0
   57.4550   31.5910   42.0260 C   0  0  0  0  0  0  0  0  0  0  0  0
   56.9370   30.5900   42.7870 N   0  0  0  0  0  0  0  0  0  0  0  0
   57.5662   26.5327   43.7430 H   0  0  0  0  0  0  0  0  0  0  0  0
   57.5250   28.2744   43.3052 H   0  0  0  0  0  0  0  0  0  0  0  0
   59.0856   27.3850   43.3052 H   0  0  0  0  0  0  0  0  0  0  0  0
   58.4033   26.9428   45.8663 H   0  0  0  0  0  0  0  0  0  0  0  0
   59.2469   28.4465   45.3601 H   0  0  0  0  0  0  0  0  0  0  0  0
   57.6218   31.7497   45.8925 H   0  0  0  0  0  0  0  0  0  0  0  0
   57.4237   34.1091   46.9844 H   0  0  0  0  0  0  0  0  0  0  0  0
   58.5026   34.1134   49.2593 H   0  0  0  0  0  0  0  0  0  0  0  0
   64.4398   34.3522   49.6670 H   0  0  0  0  0  0  0  0  0  0  0  0
   63.3565   33.6658   50.9698 H   0  0  0  0  0  0  0  0  0  0  0  0
   65.8341   32.3155   51.3865 H   0  0  0  0  0  0  0  0  0  0  0  0
   66.3449   31.4384   49.9044 H   0  0  0  0  0  0  0  0  0  0  0  0
   66.2680   33.2330   49.9044 H   0  0  0  0  0  0  0  0  0  0  0  0
   63.7675   31.3236   51.6258 H   0  0  0  0  0  0  0  0  0  0  0  0
   62.6094   31.2174   50.2569 H   0  0  0  0  0  0  0  0  0  0  0  0
   64.0949   30.2075   50.2569 H   0  0  0  0  0  0  0  0  0  0  0  0
   64.5870   33.1775   47.4163 H   0  0  0  0  0  0  0  0  0  0  0  0
   63.4821   32.5158   46.1640 H   0  0  0  0  0  0  0  0  0  0  0  0
   63.8955   34.2639   46.1640 H   0  0  0  0  0  0  0  0  0  0  0  0
   61.3401   33.6266   45.1274 H   0  0  0  0  0  0  0  0  0  0  0  0
   58.4479   33.5189   42.0233 H   0  0  0  0  0  0  0  0  0  0  0  0
   57.4058   31.5290   40.9289 H   0  0  0  0  0  0  0  0  0  0  0  0
  1  2  1  0
  2  3  1  0
  3  4  1  0
  4  5  2  0
  4  6  1  0
  6  7  2  0
  7  8  1  0
  8  9  1  0
  9 10  1  0
 10 11  2  0
 11 12  1  0
 12 13  2  0
 13 14  1  0
 14 15  2  0
 15 16  1  0
 16 17  1  0
 17 18  1  0
 17 19  1  0
 15 20  1  0
 20 21  1  0
 20 22  1  0
 22 23  2  0
  8 24  2  0
 24 25  1  0
 25 26  2  0
 26  6  1  0
 23 10  1  0
 22 13  1  0
  1 27  1  0
  1 28  1  0
  1 29  1  0
  2 30  1  0
  2 31  1  0
  7 32  1  0
 11 33  1  0
 12 34  1  0
 16 35  1  0
 16 36  1  0
 18 37  1  0
 18 38  1  0
 18 39  1  0
 19 40  1  0
 19 41  1  0
 19 42  1  0
 21 43  1  0
 21 44  1  0
 21 45  1  0
 23 46  1  0
 24 47  1  0
 25 48  1  0
M  CHG  1   3  -1
M  END
>  <UniqueID>  (15) 
13

>  <SMILES>  (15) 
CC[N-]C(=O)c1cc(Oc2ccc3nc(CN(C)C)n(C)c3c2)ccn1

>  <Energy>  (15) 
96.29627048804875

>  <Genealogy>  (15) 
CC[N-]C(=O)c1cc(Oc2ccc3nc(CN(C)C)n(C)c3c2)ccn1 (protonated)
CC[N-]C(=O)c1cc(Oc2ccc3nc(CN(C)C)n(C)c3c2)ccn1 (3D coordinates assigned)
CC[N-]C(=O)c1cc(Oc2ccc3nc(CN(C)C)n(C)c3c2)ccn1 (optimized conformer: 96.29627048804875 kcal/mol)

>  <smiles>  (15) 
CCNC(=O)c1cc(Oc2ccc3nc(CN(C)C)n(C)c3c2)ccn1

>  <score_type>  (15) 
oracle

>  <origin>  (15) 
adg

>  <m_score__min__energy>  (15) 
-10.18

>  <m_primary>  (15) 
energy

$$$$
15:0
     RDKit          3D

 34 36  0  0  0  0  0  0  0  0999 V2000
   57.6570   32.1500   41.4890 C   0  0  0  0  0  0  0  0  0  0  0  0
   57.0210   31.3560   42.6340 C   0  0  0  0  0  0  0  0  0  0  0  0
   58.0260   30.8510   43.6990 C   0  0  1  0  0  0  0  0  0  0  0  0
   58.3580   31.9540   44.6920 C   0  0  0  0  0  0  0  0  0  0  0  0
   58.4170   33.3020   44.2910 C   0  0  0  0  0  0  0  0  0  0  0  0
   58.7510   34.3040   45.2040 C   0  0  0  0  0  0  0  0  0  0  0  0
   59.0470   33.9760   46.5340 C   0  0  0  0  0  0  0  0  0  0  0  0
   59.3860   34.9760   47.4600 C   0  0  0  0  0  0  0  0  0  0  0  0
   59.6840   34.6350   48.7830 C   0  0  0  0  0  0  0  0  0  0  0  0
   59.6460   33.2990   49.1890 C   0  0  0  0  0  0  0  0  0  0  0  0
   59.3090   32.2940   48.2780 C   0  0  0  0  0  0  0  0  0  0  0  0
   59.0070   32.6230   46.9470 C   0  0  0  0  0  0  0  0  0  0  0  0
   58.6690   31.6230   46.0230 C   0  0  0  0  0  0  0  0  0  0  0  0
   57.5960   29.6110   44.3770 N   0  0  0  0  0  0  0  0  0  0  0  0
   58.2770   28.4470   44.3950 C   0  0  0  0  0  0  0  0  0  0  0  0
   57.4780   27.4830   44.9610 C   0  0  0  0  0  0  0  0  0  0  0  0
   56.2810   28.0160   45.2680 N   0  0  0  0  0  0  0  0  0  0  0  0
   56.3800   29.3060   44.8870 C   0  0  0  0  0  0  0  0  0  0  0  0
   58.2939   32.9452   41.9037 H   0  0  0  0  0  0  0  0  0  0  0  0
   58.2679   31.4760   40.8705 H   0  0  0  0  0  0  0  0  0  0  0  0
   56.8659   32.5990   40.8705 H   0  0  0  0  0  0  0  0  0  0  0  0
   56.2858   32.0033   43.1345 H   0  0  0  0  0  0  0  0  0  0  0  0
   56.5677   30.4617   42.1815 H   0  0  0  0  0  0  0  0  0  0  0  0
   58.9452   30.5811   43.1584 H   0  0  0  0  0  0  0  0  0  0  0  0
   58.1975   33.5689   43.2467 H   0  0  0  0  0  0  0  0  0  0  0  0
   58.7819   35.3543   44.8784 H   0  0  0  0  0  0  0  0  0  0  0  0
   59.4172   36.0292   47.1441 H   0  0  0  0  0  0  0  0  0  0  0  0
   59.9490   35.4208   49.5058 H   0  0  0  0  0  0  0  0  0  0  0  0
   59.8825   33.0366   50.2307 H   0  0  0  0  0  0  0  0  0  0  0  0
   59.2804   31.2439   48.6043 H   0  0  0  0  0  0  0  0  0  0  0  0
   58.6470   30.5706   46.3424 H   0  0  0  0  0  0  0  0  0  0  0  0
   59.2998   28.2950   44.0198 H   0  0  0  0  0  0  0  0  0  0  0  0
   57.7714   26.4374   45.1361 H   0  0  0  0  0  0  0  0  0  0  0  0
   55.5597   30.0329   44.9808 H   0  0  0  0  0  0  0  0  0  0  0  0
  1  2  1  0
  2  3  1  0
  3  4  1  0
  4  5  2  0
  5  6  1  0
  6  7  2  0
  7  8  1  0
  8  9  2  0
  9 10  1  0
 10 11  2  0
 11 12  1  0
 12 13  2  0
  3 14  1  0
 14 15  1  0
 15 16  2  0
 16 17  1  0
 17 18  2  0
 13  4  1  0
 18 14  1  0
 12  7  1  0
  1 19  1  0
  1 20  1  0
  1 21  1  0
  2 22  1  0
  2 23  1  0
  3 24  1  6
  5 25  1  0
  6 26  1  0
  8 27  1  0
  9 28  1  0
 10 29  1  0
 11 30  1  0
 13 31  1  0
 15 32  1  0
 16 33  1  0
 18 34  1  0
M  END
>  <UniqueID>  (16) 
14

>  <SMILES>  (16) 
CC[C@@H](c1ccc2ccccc2c1)n1ccnc1

>  <Energy>  (16) 
69.11234025495826

>  <Genealogy>  (16) 
CC[C@@H](c1ccc2ccccc2c1)n1ccnc1 (chirality)
CC[C@@H](c1ccc2ccccc2c1)n1ccnc1 (3D coordinates assigned)
CC[C@@H](c1ccc2ccccc2c1)n1ccnc1 (optimized conformer: 69.11234025495826 kcal/mol)

>  <smiles>  (16) 
CCC(c1ccc2ccccc2c1)n1ccnc1

>  <score_type>  (16) 
oracle

>  <origin>  (16) 
adg

>  <m_score__min__energy>  (16) 
-6.6600000000000001

>  <m_primary>  (16) 
energy

$$$$
16:0
     RDKit          3D

 46 47  0  0  1  0  0  0  0  0999 V2000
   58.1210   31.6010   43.4010 C   0  0  0  0  0  0  0  0  0  0  0  0
   56.9200   31.6460   44.3270 C   0  0  0  0  0  0  0  0  0  0  0  0
   56.9290   32.9490   45.1240 C   0  0  0  0  0  0  0  0  0  0  0  0
   56.9230   30.5270   45.2380 N   0  0  0  0  0  0  0  0  0  0  0  0
   57.9010   30.3330   46.0220 C   0  0  0  0  0  0  0  0  0  0  0  0
   58.3660   29.0790   46.2740 N   0  0  0  0  0  0  0  0  0  0  0  0
   59.4140   28.8920   47.1100 C   0  0  0  0  0  0  0  0  0  0  0  0
   59.9110   27.5730   47.4050 N   0  0  0  0  0  0  0  0  0  0  0  0
   59.9740   26.5400   46.3910 C   0  0  0  0  0  0  0  0  0  0  0  0
   60.3700   27.2760   48.7580 C   0  0  0  0  0  0  0  0  0  0  0  0
   60.0380   29.9250   47.7250 N   0  0  0  0  0  0  0  0  0  0  0  0
   59.5790   31.1540   47.4780 C   0  0  0  0  0  0  0  0  0  0  0  0
   60.1610   32.3020   48.0690 N   0  0  0  0  0  0  0  0  0  0  0  0
   59.2570   33.3210   48.5450 C   0  0  0  0  0  0  0  0  0  0  0  0
   58.8930   34.3110   47.4740 C   0  0  0  0  0  0  0  0  0  0  0  0
   60.0110   34.8450   46.6650 C   0  0  0  0  0  0  0  0  0  0  0  0
   61.0340   33.8610   46.2060 C   0  0  0  0  0  0  0  0  0  0  0  0
   62.0410   33.4790   47.2450 C   0  0  0  0  0  0  0  0  0  0  0  0
   61.6230   32.3070   48.1080 C   0  0  0  0  0  0  0  0  0  0  0  0
   58.5460   31.3370   46.6530 N   0  0  0  0  0  0  0  0  0  0  0  0
   59.0438   31.5664   43.9987 H   0  0  0  0  0  0  0  0  0  0  0  0
   58.0614   30.7045   42.7664 H   0  0  0  0  0  0  0  0  0  0  0  0
   58.1286   32.4995   42.7664 H   0  0  0  0  0  0  0  0  0  0  0  0
   56.0110   31.5915   43.7099 H   0  0  0  0  0  0  0  0  0  0  0  0
   56.9274   32.7207   46.2000 H   0  0  0  0  0  0  0  0  0  0  0  0
   57.8312   33.5261   44.8730 H   0  0  0  0  0  0  0  0  0  0  0  0
   56.0349   33.5386   44.8730 H   0  0  0  0  0  0  0  0  0  0  0  0
   60.0341   25.5541   46.8752 H   0  0  0  0  0  0  0  0  0  0  0  0
   59.0714   26.5861   45.7640 H   0  0  0  0  0  0  0  0  0  0  0  0
   60.8643   26.6955   45.7640 H   0  0  0  0  0  0  0  0  0  0  0  0
   59.6780   27.7237   49.4865 H   0  0  0  0  0  0  0  0  0  0  0  0
   60.4011   26.1861   48.9037 H   0  0  0  0  0  0  0  0  0  0  0  0
   61.3769   27.6942   48.9037 H   0  0  0  0  0  0  0  0  0  0  0  0
   60.8460   29.7930   48.3660 H   0  0  0  0  0  0  0  0  0  0  0  0
   58.3375   32.8368   48.9056 H   0  0  0  0  0  0  0  0  0  0  0  0
   59.7660   33.8708   49.3504 H   0  0  0  0  0  0  0  0  0  0  0  0
   58.1888   33.8180   46.7877 H   0  0  0  0  0  0  0  0  0  0  0  0
   58.4771   35.1787   48.0070 H   0  0  0  0  0  0  0  0  0  0  0  0
   59.5793   35.3189   45.7711 H   0  0  0  0  0  0  0  0  0  0  0  0
   60.5499   35.5324   47.3337 H   0  0  0  0  0  0  0  0  0  0  0  0
   60.5116   32.9486   45.8826 H   0  0  0  0  0  0  0  0  0  0  0  0
   61.5934   34.3486   45.3940 H   0  0  0  0  0  0  0  0  0  0  0  0
   62.9800   33.2160   46.7361 H   0  0  0  0  0  0  0  0  0  0  0  0
   62.1498   34.3443   47.9153 H   0  0  0  0  0  0  0  0  0  0  0  0
   62.0226   31.3666   47.7007 H   0  0  0  0  0  0  0  0  0  0  0  0
   62.0058   32.3967   49.1353 H   0  0  0  0  0  0  0  0  0  0  0  0
  1  2  1  0
  2  3  1  0
  2  4  1  0
  4  5  2  0
  5  6  1  0
  6  7  2  0
  7  8  1  0
  8  9  1  0
  8 10  1  0
  7 11  1  0
 11 12  1  0
 12 13  1  0
 13 14  1  0
 14 15  1  0
 15 16  1  0
 16 17  1  0
 17 18  1  0
 18 19  1  0
 12 20  2  0
 20  5  1  0
 19 13  1  0
  1 21  1  0
  1 22  1  0
  1 23  1  0
  2 24  1  0
  3 25  1  0
  3 26  1  0
  3 27  1  0
  9 28  1  0
  9 29  1  0
  9 30  1  0
 10 31  1  0
 10 32  1  0
 10 33  1  0
 11 34  1  0
 14 35  1  0
 14 36  1  0
 15 37  1  0
 15 38  1  0
 16 39  1  0
 16 40  1  0
 17 41  1  0
 17 42  1  0
 18 43  1  0
 18 44  1  0
 19 45  1  0
 19 46  1  0
M  END
>  <smiles>  (17) 
CC(C)N=c1nc(N(C)C)[nH]c(N2CCCCCC2)n1

>  <score_type>  (17) 
oracle

>  <origin>  (17) 
adg

>  <m_score__min__energy>  (17) 
-4.2400000000000002

>  <m_primary>  (17) 
energy

$$$$
17:0
     RDKit          3D

 59 60  0  0  0  0  0  0  0  0999 V2000
   56.1118   29.5029   44.8066 H   0  0  0  0  0  0  0  0  0  0  0  0
   56.5960   30.3980   44.3890 C   0  0  0  0  0  0  0  0  0  0  0  0
   56.8910   31.4510   45.1970 N   0  0  0  0  0  0  0  0  0  0  0  0
   57.4890   32.5800   44.7210 C   0  0  0  0  0  0  0  0  0  0  0  0
   57.7660   33.5750   45.5100 N   0  0  0  0  0  0  0  0  0  0  0  0
   59.0250   34.3190   45.5150 C   0  0  0  0  0  0  0  0  0  0  0  0
   58.8094   35.3961   45.4563 H   0  0  0  0  0  0  0  0  0  0  0  0
   59.6274   34.0056   44.6496 H   0  0  0  0  0  0  0  0  0  0  0  0
   59.8130   34.0310   46.7990 C   0  0  0  0  0  0  0  0  0  0  0  0
   60.2469   34.9717   47.1689 H   0  0  0  0  0  0  0  0  0  0  0  0
   60.5992   33.2995   46.5606 H   0  0  0  0  0  0  0  0  0  0  0  0
   58.9210   33.4320   47.8930 C   0  0  0  0  0  0  0  0  0  0  0  0
   58.0366   34.0724   48.0258 H   0  0  0  0  0  0  0  0  0  0  0  0
   59.5020   33.3762   48.8253 H   0  0  0  0  0  0  0  0  0  0  0  0
   58.4840   32.0820   47.5370 N   0  0  0  0  0  0  0  0  0  0  0  0
   57.6630   31.9790   46.8980 H   0  0  0  0  0  0  0  0  0  0  0  0
   59.1350   30.8950   48.0120 C   0  0  0  0  0  0  0  0  0  0  0  0
   60.0710   30.9920   48.9150 N   0  0  0  0  0  0  0  0  0  0  0  0
   61.4840   31.0920   48.6760 C   0  0  0  0  0  0  0  0  0  0  0  0
   62.4110   30.8120   49.7320 N   0  0  0  0  0  0  0  0  0  0  0  0
   63.4410   30.8500   49.5640 H   0  0  0  0  0  0  0  0  0  0  0  0
   62.0760   30.6140   50.6990 H   0  0  0  0  0  0  0  0  0  0  0  0
   61.9250   31.5150   47.5250 N   0  0  0  0  0  0  0  0  0  0  0  0
   61.2330   31.7260   46.7700 H   0  0  0  0  0  0  0  0  0  0  0  0
   63.3550   31.7010   47.2510 C   0  0  0  0  0  0  0  0  0  0  0  0
   63.6136   31.1614   46.3280 H   0  0  0  0  0  0  0  0  0  0  0  0
   63.9208   31.3104   48.1097 H   0  0  0  0  0  0  0  0  0  0  0  0
   63.7160   33.1860   47.0770 C   0  0  0  0  0  0  0  0  0  0  0  0
   63.4122   33.5028   46.0684 H   0  0  0  0  0  0  0  0  0  0  0  0
   64.8012   33.2766   47.2321 H   0  0  0  0  0  0  0  0  0  0  0  0
   63.0320   34.1060   48.1040 C   0  0  0  0  0  0  0  0  0  0  0  0
   61.9426   33.9872   48.0085 H   0  0  0  0  0  0  0  0  0  0  0  0
   63.3566   35.1346   47.8879 H   0  0  0  0  0  0  0  0  0  0  0  0
   63.4290   33.7990   49.5470 C   0  0  0  0  0  0  0  0  0  0  0  0
   62.7494   34.3245   50.2340 H   0  0  0  0  0  0  0  0  0  0  0  0
   63.3623   32.7152   49.7230 H   0  0  0  0  0  0  0  0  0  0  0  0
   64.4611   34.1362   49.7230 H   0  0  0  0  0  0  0  0  0  0  0  0
   58.7700   29.6320   47.4340 N   0  0  0  0  0  0  0  0  0  0  0  0
   57.7560   29.4660   47.2450 H   0  0  0  0  0  0  0  0  0  0  0  0
   59.7300   28.8080   46.6960 C   0  0  0  0  0  0  0  0  0  0  0  0
   60.2563   29.4362   45.9623 H   0  0  0  0  0  0  0  0  0  0  0  0
   60.4461   28.3739   47.4093 H   0  0  0  0  0  0  0  0  0  0  0  0
   59.0260   27.6900   45.9750 C   0  0  0  0  0  0  0  0  0  0  0  0
   58.6620   26.5190   46.6580 C   0  0  0  0  0  0  0  0  0  0  0  0
   58.8733   26.4244   47.7334 H   0  0  0  0  0  0  0  0  0  0  0  0
   58.0320   25.4720   45.9780 C   0  0  0  0  0  0  0  0  0  0  0  0
   57.7453   24.5589   46.5202 H   0  0  0  0  0  0  0  0  0  0  0  0
   57.7660   25.5840   44.6100 C   0  0  0  0  0  0  0  0  0  0  0  0
   56.9100   24.1530   43.6810 Br  0  0  0  0  0  0  0  0  0  0  0  0
   58.1390   26.7430   43.9200 C   0  0  0  0  0  0  0  0  0  0  0  0
   57.9346   26.8299   42.8427 H   0  0  0  0  0  0  0  0  0  0  0  0
   58.7710   27.7910   44.5970 C   0  0  0  0  0  0  0  0  0  0  0  0
   59.0693   28.6970   44.0490 H   0  0  0  0  0  0  0  0  0  0  0  0
   57.8150   32.6680   43.3610 C   0  0  0  0  0  0  0  0  0  0  0  0
   58.2982   33.5727   42.9636 H   0  0  0  0  0  0  0  0  0  0  0  0
   57.5210   31.5970   42.5150 C   0  0  0  0  0  0  0  0  0  0  0  0
   57.7722   31.6548   41.4456 H   0  0  0  0  0  0  0  0  0  0  0  0
   56.9080   30.4530   43.0280 C   0  0  0  0  0  0  0  0  0  0  0  0
   56.6732   29.6044   42.3686 H   0  0  0  0  0  0  0  0  0  0  0  0
  1  2  1  0
  2  3  1  0
  3  4  1  0
  4  5  2  0
  5  6  1  0
  6  7  1  0
  6  8  1  0
  6  9  1  0
  9 10  1  0
  9 11  1  0
  9 12  1  0
 12 13  1  0
 12 14  1  0
 12 15  1  0
 15 16  1  0
 15 17  1  0
 17 18  2  0
 18 19  1  0
 19 20  1  0
 20 21  1  0
 20 22  1  0
 19 23  2  0
 23 24  1  0
 23 25  1  0
 25 26  1  0
 25 27  1  0
 25 28  1  0
 28 29  1  0
 28 30  1  0
 28 31  1  0
 31 32  1  0
 31 33  1  0
 31 34  1  0
 34 35  1  0
 34 36  1  0
 34 37  1  0
 17 38  1  0
 38 39  1  0
 38 40  1  0
 40 41  1  0
 40 42  1  0
 40 43  1  0
 43 44  2  0
 44 45  1  0
 44 46  1  0
 46 47  1  0
 46 48  2  0
 48 49  1  0
 48 50  1  0
 50 51  1  0
 50 52  2  0
 52 53  1  0
  4 54  1  0
 54 55  1  0
 54 56  2  0
 56 57  1  0
 56 58  1  0
 58 59  1  0
 58  2  2  0
 52 43  1  0
M  CHG  2   3  -1  23   1
M  END
>  <UniqueID>  (18) 
15

>  <SMILES>  (18) 
CCCC[NH+]=C(N)/N=C(/NCCC/N=c1/cccc[n-]1)NCc1ccc(Br)cc1

>  <Energy>  (18) 
46.70795260967981

>  <Genealogy>  (18) 
CCCC[NH+]=C(N)N=C(NCCCN=c1cccc[n-]1)NCc1ccc(Br)cc1 (protonated)
CCCC[NH+]=C(N)/N=C(/NCCC/N=c1/cccc[n-]1)NCc1ccc(Br)cc1 (cis-trans isomerization)
CCCC[NH+]=C(N)/N=C(/NCCC/N=c1/cccc[n-]1)NCc1ccc(Br)cc1 (3D coordinates assigned)
CCCC[NH+]=C(N)/N=C(/NCCC/N=c1/cccc[n-]1)NCc1ccc(Br)cc1 (optimized conformer: 46.70795260967981 kcal/mol)

>  <smiles>  (18) 
CCCCN=C(N)N=C(NCCCN=c1cccc[nH]1)NCc1ccc(Br)cc1

>  <score_type>  (18) 
oracle

>  <origin>  (18) 
adg

>  <m_score__min__energy>  (18) 
-6.8799999999999999

>  <m_primary>  (18) 
energy

$$$$
18:0
     RDKit          3D

 41 42  0  0  0  0  0  0  0  0999 V2000
   57.3930   24.0650   44.1470 C   0  0  0  0  0  0  0  0  0  0  0  0
   57.5040   24.4450   45.4260 C   0  0  0  0  0  0  0  0  0  0  0  0
   58.6670   25.2690   45.9030 C   0  0  0  0  0  0  0  0  0  0  0  0
   58.3180   26.7340   45.9150 C   0  0  0  0  0  0  0  0  0  0  0  0
   59.1690   27.6580   46.5270 C   0  0  0  0  0  0  0  0  0  0  0  0
   58.8380   29.0230   46.5540 C   0  0  0  0  0  0  0  0  0  0  0  0
   59.6810   29.9770   47.1430 O   0  0  0  0  0  0  0  0  0  0  0  0
   60.9860   30.2990   46.6760 C   0  0  0  0  0  0  0  0  0  0  0  0
   57.6420   29.4680   45.9660 C   0  0  0  0  0  0  0  0  0  0  0  0
   57.3970   30.8550   45.9940 O   0  0  0  0  0  0  0  0  0  0  0  0
   57.7690   31.8090   44.9910 C   0  0  0  0  0  0  0  0  0  0  0  0
   58.4120   33.0300   45.6040 C   0  0  0  0  0  0  0  0  0  0  0  0
   58.8470   34.0860   44.7840 C   0  0  0  0  0  0  0  0  0  0  0  0
   59.4430   35.2200   45.3490 C   0  0  0  0  0  0  0  0  0  0  0  0
   59.6210   35.3010   46.7300 C   0  0  0  0  0  0  0  0  0  0  0  0
   59.2130   34.2450   47.5510 C   0  0  0  0  0  0  0  0  0  0  0  0
   58.6160   33.1100   46.9900 C   0  0  0  0  0  0  0  0  0  0  0  0
   56.7530   28.5320   45.3850 C   0  0  0  0  0  0  0  0  0  0  0  0
   55.5250   28.9680   44.8670 O   0  0  0  0  0  0  0  0  0  0  0  0
   55.3670   29.7350   43.6790 C   0  0  0  0  0  0  0  0  0  0  0  0
   57.1090   27.1710   45.3610 C   0  0  0  0  0  0  0  0  0  0  0  0
   56.5311   23.4621   43.8252 H   0  0  0  0  0  0  0  0  0  0  0  0
   58.1637   24.3557   43.4180 H   0  0  0  0  0  0  0  0  0  0  0  0
   56.7260   24.1472   46.1444 H   0  0  0  0  0  0  0  0  0  0  0  0
   58.9373   24.9547   46.9219 H   0  0  0  0  0  0  0  0  0  0  0  0
   59.5125   25.1145   45.2165 H   0  0  0  0  0  0  0  0  0  0  0  0
   60.1051   27.3140   46.9911 H   0  0  0  0  0  0  0  0  0  0  0  0
   61.6527   30.4635   47.5353 H   0  0  0  0  0  0  0  0  0  0  0  0
   61.3722   29.4692   46.0658 H   0  0  0  0  0  0  0  0  0  0  0  0
   60.9419   31.2132   46.0658 H   0  0  0  0  0  0  0  0  0  0  0  0
   58.4817   31.3394   44.2971 H   0  0  0  0  0  0  0  0  0  0  0  0
   56.8592   32.1262   44.4603 H   0  0  0  0  0  0  0  0  0  0  0  0
   58.7185   34.0210   43.6935 H   0  0  0  0  0  0  0  0  0  0  0  0
   59.7712   36.0478   44.7032 H   0  0  0  0  0  0  0  0  0  0  0  0
   60.0824   36.1957   47.1734 H   0  0  0  0  0  0  0  0  0  0  0  0
   59.3614   34.3064   48.6392 H   0  0  0  0  0  0  0  0  0  0  0  0
   58.3055   32.2774   47.6383 H   0  0  0  0  0  0  0  0  0  0  0  0
   55.1516   30.7807   43.9436 H   0  0  0  0  0  0  0  0  0  0  0  0
   56.2933   29.6898   43.0875 H   0  0  0  0  0  0  0  0  0  0  0  0
   54.5340   29.3274   43.0875 H   0  0  0  0  0  0  0  0  0  0  0  0
   56.4279   26.4402   44.9005 H   0  0  0  0  0  0  0  0  0  0  0  0
  1  2  2  0
  2  3  1  0
  3  4  1  0
  4  5  2  0
  5  6  1  0
  6  7  1  0
  7  8  1  0
  6  9  2  0
  9 10  1  0
 10 11  1  0
 11 12  1  0
 12 13  2  0
 13 14  1  0
 14 15  2  0
 15 16  1  0
 16 17  2  0
  9 18  1  0
 18 19  1  0
 19 20  1  0
 18 21  2  0
 21  4  1  0
 17 12  1  0
  1 22  1  0
  1 23  1  0
  2 24  1  0
  3 25  1  0
  3 26  1  0
  5 27  1  0
  8 28  1  0
  8 29  1  0
  8 30  1  0
 11 31  1  0
 11 32  1  0
 13 33  1  0
 14 34  1  0
 15 35  1  0
 16 36  1  0
 17 37  1  0
 20 38  1  0
 20 39  1  0
 20 40  1  0
 21 41  1  0
M  END
>  <UniqueID>  (19) 
16

>  <SMILES>  (19) 
C=CCc1cc(OC)c(OCc2ccccc2)c(OC)c1

>  <Energy>  (19) 
39.444773110941426

>  <Genealogy>  (19) 
C=CCc1cc(OC)c(OCc2ccccc2)c(OC)c1 (3D coordinates assigned)
C=CCc1cc(OC)c(OCc2ccccc2)c(OC)c1 (optimized conformer: 39.444773110941426 kcal/mol)

>  <smiles>  (19) 
C=CCc1cc(OC)c(OCc2ccccc2)c(OC)c1

>  <score_type>  (19) 
oracle

>  <origin>  (19) 
adg

>  <m_score__min__energy>  (19) 
-6.6900000000000004

>  <m_primary>  (19) 
energy

$$$$
19:0
     RDKit          3D

 30 31  0  0  0  0  0  0  0  0999 V2000
   60.9544   28.0332   45.7001 H   0  0  0  0  0  0  0  0  0  0  0  0
   59.9660   28.3320   45.3210 C   0  0  0  0  0  0  0  0  0  0  0  0
   59.0690   27.3620   44.8700 C   0  0  0  0  0  0  0  0  0  0  0  0
   59.3603   26.3013   44.8709 H   0  0  0  0  0  0  0  0  0  0  0  0
   57.8030   27.7370   44.4180 C   0  0  0  0  0  0  0  0  0  0  0  0
   57.0986   26.9662   44.0720 H   0  0  0  0  0  0  0  0  0  0  0  0
   57.4180   29.0890   44.4000 C   0  0  0  0  0  0  0  0  0  0  0  0
   56.0690   29.4310   44.0400 N   0  0  0  0  0  0  0  0  0  0  0  0
   55.1480   29.3500   44.8780 O   0  0  0  0  0  0  0  0  0  0  0  0
   55.7500   29.6970   42.7280 O   0  0  0  0  0  0  0  0  0  0  0  0
   58.3600   30.0760   44.7920 C   0  0  0  0  0  0  0  0  0  0  0  0
   58.0740   31.4820   44.7190 N   0  0  0  0  0  0  0  0  0  0  0  0
   57.5270   32.1740   45.6440 N   0  0  0  0  0  0  0  0  0  0  0  0
   58.2170   33.0720   46.5260 C   0  0  0  0  0  0  0  0  0  0  0  0
   58.5020   32.8260   47.8530 C   0  0  0  0  0  0  0  0  0  0  0  0
   58.1888   31.9439   48.4308 H   0  0  0  0  0  0  0  0  0  0  0  0
   59.2330   33.8600   48.3150 N   0  0  0  0  0  0  0  0  0  0  0  0
   59.6750   34.0470   49.6910 C   0  0  0  0  0  0  0  0  0  0  0  0
   58.8844   33.7125   50.3788 H   0  0  0  0  0  0  0  0  0  0  0  0
   60.5871   33.4577   49.8664 H   0  0  0  0  0  0  0  0  0  0  0  0
   59.8872   35.1120   49.8664 H   0  0  0  0  0  0  0  0  0  0  0  0
   59.4280   34.7360   47.3410 N   0  0  0  0  0  0  0  0  0  0  0  0
   59.9670   35.6270   47.4360 H   0  0  0  0  0  0  0  0  0  0  0  0
   58.8440   34.2700   46.2200 C   0  0  0  0  0  0  0  0  0  0  0  0
   58.9300   34.9520   44.8920 C   0  0  0  0  0  0  0  0  0  0  0  0
   59.0663   36.0330   45.0431 H   0  0  0  0  0  0  0  0  0  0  0  0
   59.7846   34.5500   44.3280 H   0  0  0  0  0  0  0  0  0  0  0  0
   58.0024   34.7747   44.3280 H   0  0  0  0  0  0  0  0  0  0  0  0
   59.6090   29.6800   45.2910 C   0  0  0  0  0  0  0  0  0  0  0  0
   60.3135   30.4390   45.6620 H   0  0  0  0  0  0  0  0  0  0  0  0
  1  2  1  0
  2  3  2  0
  3  4  1  0
  3  5  1  0
  5  6  1  0
  5  7  2  0
  7  8  1  0
  8  9  2  0
  8 10  1  0
  7 11  1  0
 11 12  1  0
 12 13  2  0
 13 14  1  0
 14 15  2  0
 15 16  1  0
 15 17  1  0
 17 18  1  0
 18 19  1  0
 18 20  1  0
 18 21  1  0
 17 22  1  0
 22 23  1  0
 22 24  2  0
 24 25  1  0
 25 26  1  0
 25 27  1  0
 25 28  1  0
 11 29  2  0
 29 30  1  0
 29  2  1  0
 24 14  1  0
M  CHG  3   8   1  10  -1  22   1
M  END
>  <UniqueID>  (20) 
17

>  <SMILES>  (20) 
Cc1[nH+]n(C)cc1/N=N\c1ccccc1[N+](=O)[O-]

>  <Energy>  (20) 
77.94766801544463

>  <Genealogy>  (20) 
Cc1[nH+]n(C)cc1N=Nc1ccccc1[N+](=O)[O-] (protonated)
Cc1[nH+]n(C)cc1/N=N\c1ccccc1[N+](=O)[O-] (cis-trans isomerization)
Cc1[nH+]n(C)cc1/N=N\c1ccccc1[N+](=O)[O-] (3D coordinates assigned)
Cc1[nH+]n(C)cc1/N=N\c1ccccc1[N+](=O)[O-] (optimized conformer: 77.94766801544463 kcal/mol)

>  <smiles>  (20) 
Cc1nn(C)cc1N=Nc1ccccc1[N+](=O)[O-]

>  <score_type>  (20) 
oracle

>  <origin>  (20) 
adg

>  <m_score__min__energy>  (20) 
-6.1900000000000004

>  <m_primary>  (20) 
energy

$$$$
20:0
     RDKit          3D

 51 54  0  0  0  0  0  0  0  0999 V2000
   57.9800   33.5748   43.6602 H   0  0  0  0  0  0  0  0  0  0  0  0
   57.7730   33.1420   44.6500 C   0  0  0  0  0  0  0  0  0  0  0  0
   57.5830   33.9780   45.6760 C   0  0  0  0  0  0  0  0  0  0  0  0
   56.5474   34.2097   45.9655 H   0  0  0  0  0  0  0  0  0  0  0  0
   58.7030   34.6280   46.4670 C   0  0  2  0  0  0  0  0  0  0  0  0
   58.4107   35.6712   46.6576 H   0  0  0  0  0  0  0  0  0  0  0  0
   60.0150   34.6800   45.6400 C   0  0  0  0  0  0  0  0  0  0  0  0
   59.7621   34.5866   44.5736 H   0  0  0  0  0  0  0  0  0  0  0  0
   60.5074   35.6386   45.8603 H   0  0  0  0  0  0  0  0  0  0  0  0
   60.9920   33.5660   46.0090 C   0  0  0  0  0  0  0  0  0  0  0  0
   60.5163   32.5956   45.8040 H   0  0  0  0  0  0  0  0  0  0  0  0
   61.9018   33.7020   45.4058 H   0  0  0  0  0  0  0  0  0  0  0  0
   61.3990   33.6150   47.4960 C   0  0  0  0  0  0  0  0  0  0  0  0
   61.5947   32.5872   47.8356 H   0  0  0  0  0  0  0  0  0  0  0  0
   62.2888   34.2583   47.5625 H   0  0  0  0  0  0  0  0  0  0  0  0
   60.3200   34.2400   48.4240 C   0  0  2  0  0  0  0  0  0  0  0  0
   60.4829   35.3278   48.4141 H   0  0  0  0  0  0  0  0  0  0  0  0
   60.4820   33.7740   49.9030 C   0  0  0  0  0  0  0  0  0  0  0  0
   61.4758   33.3159   50.0147 H   0  0  0  0  0  0  0  0  0  0  0  0
   60.3541   34.6658   50.5342 H   0  0  0  0  0  0  0  0  0  0  0  0
   59.4220   32.7500   50.3560 C   0  0  0  0  0  0  0  0  0  0  0  0
   59.8125   32.1858   51.2158 H   0  0  0  0  0  0  0  0  0  0  0  0
   58.5073   33.2946   50.6328 H   0  0  0  0  0  0  0  0  0  0  0  0
   59.0810   31.7700   49.2280 C   0  0  0  0  0  0  0  0  0  0  0  0
   59.9982   31.2439   48.9247 H   0  0  0  0  0  0  0  0  0  0  0  0
   58.3258   31.0650   49.6057 H   0  0  0  0  0  0  0  0  0  0  0  0
   58.4870   32.4940   47.9930 C   0  0  0  0  0  0  0  0  0  0  0  0
   58.8411   31.9804   47.0870 H   0  0  0  0  0  0  0  0  0  0  0  0
   57.3926   32.4588   48.0981 H   0  0  0  0  0  0  0  0  0  0  0  0
   58.8840   34.0000   47.8910 C   0  0  2  0  0  0  0  0  0  0  0  0
   58.1661   34.5281   48.5358 H   0  0  0  0  0  0  0  0  0  0  0  0
   57.7210   31.6740   44.7690 C   0  0  0  0  0  0  0  0  0  0  0  0
   56.5410   31.0540   44.6830 O   0  0  0  0  0  0  0  0  0  0  0  0
   56.4020   29.7300   44.7950 C   0  0  0  0  0  0  0  0  0  0  0  0
   55.2420   29.2250   44.7390 O   0  0  0  0  0  0  0  0  0  0  0  0
   57.5390   28.9100   45.0080 C   0  0  0  0  0  0  0  0  0  0  0  0
   57.4350   27.4290   45.1510 C   0  0  0  0  0  0  0  0  0  0  0  0
   57.7820   26.5840   44.0740 C   0  0  0  0  0  0  0  0  0  0  0  0
   58.1371   27.0211   43.1291 H   0  0  0  0  0  0  0  0  0  0  0  0
   57.6770   25.1930   44.2010 C   0  0  0  0  0  0  0  0  0  0  0  0
   57.9508   24.5428   43.3571 H   0  0  0  0  0  0  0  0  0  0  0  0
   57.2250   24.6290   45.3980 C   0  0  0  0  0  0  0  0  0  0  0  0
   57.1548   23.5359   45.4993 H   0  0  0  0  0  0  0  0  0  0  0  0
   56.8620   25.4560   46.4670 C   0  0  0  0  0  0  0  0  0  0  0  0
   56.4958   25.0120   47.4044 H   0  0  0  0  0  0  0  0  0  0  0  0
   56.9640   26.8490   46.3460 C   0  0  0  0  0  0  0  0  0  0  0  0
   56.6746   27.4934   47.1892 H   0  0  0  0  0  0  0  0  0  0  0  0
   58.7890   29.5420   45.1240 C   0  0  0  0  0  0  0  0  0  0  0  0
   59.6929   28.9416   45.3041 H   0  0  0  0  0  0  0  0  0  0  0  0
   58.8860   30.9320   45.0110 C   0  0  0  0  0  0  0  0  0  0  0  0
   59.8593   31.4349   45.1102 H   0  0  0  0  0  0  0  0  0  0  0  0
  1  2  1  0
  2  3  2  0
  3  4  1  0
  3  5  1  0
  5  6  1  1
  5  7  1  0
  7  8  1  0
  7  9  1  0
  7 10  1  0
 10 11  1  0
 10 12  1  0
 10 13  1  0
 13 14  1  0
 13 15  1  0
 13 16  1  0
 16 17  1  1
 16 18  1  0
 18 19  1  0
 18 20  1  0
 18 21  1  0
 21 22  1  0
 21 23  1  0
 21 24  1  0
 24 25  1  0
 24 26  1  0
 24 27  1  0
 27 28  1  0
 27 29  1  0
 27 30  1  0
 30 31  1  1
  2 32  1  0
 32 33  1  0
 33 34  1  0
 34 35  2  0
 34 36  1  0
 36 37  1  0
 37 38  2  0
 38 39  1  0
 38 40  1  0
 40 41  1  0
 40 42  2  0
 42 43  1  0
 42 44  1  0
 44 45  1  0
 44 46  2  0
 46 47  1  0
 36 48  2  0
 48 49  1  0
 48 50  1  0
 50 51  1  0
 30  5  1  0
 50 32  2  0
 30 16  1  0
 46 37  1  0
M  END
>  <UniqueID>  (21) 
18

>  <SMILES>  (21) 
O=c1oc(/C=C\[C@@H]2CCC[C@@H]3CCCCC32)ccc1-c1ccccc1

>  <Energy>  (21) 
79.8264992870244

>  <Genealogy>  (21) 
O=c1oc(C=C[C@@H]2CCC[C@@H]3CCCCC32)ccc1-c1ccccc1 (chirality)
O=c1oc(/C=C\[C@@H]2CCC[C@@H]3CCCCC32)ccc1-c1ccccc1 (cis-trans isomerization)
O=c1oc(/C=C\[C@@H]2CCC[C@@H]3CCCCC32)ccc1-c1ccccc1 (3D coordinates assigned)
O=c1oc(/C=C\[C@@H]2CCC[C@@H]3CCCCC32)ccc1-c1ccccc1 (nonaromatic ring conformer: 79.8264992870244 kcal/mol)

>  <smiles>  (21) 
O=c1oc(C=CC2CCCC3CCCCC23)ccc1-c1ccccc1

>  <score_type>  (21) 
oracle

>  <origin>  (21) 
adg

>  <m_score__min__energy>  (21) 
-10.02

>  <m_primary>  (21) 
energy

$$$$
21:0
     RDKit          3D

 53 55  0  0  0  0  0  0  0  0999 V2000
   63.7700   33.4490   47.3460 C   0  0  0  0  0  0  0  0  0  0  0  0
   63.8100   33.0950   48.8330 C   0  0  0  0  0  0  0  0  0  0  0  0
   63.0840   34.1390   49.6950 C   0  0  0  0  0  0  0  0  0  0  0  0
   61.6490   33.8570   49.7950 N   0  0  0  0  0  0  0  0  0  0  0  0
   60.8520   33.4020   48.6840 C   0  0  0  0  0  0  0  0  0  0  0  0
   60.7170   32.0250   48.4590 C   0  0  0  0  0  0  0  0  0  0  0  0
   59.9560   31.5460   47.3920 C   0  0  0  0  0  0  0  0  0  0  0  0
   59.3090   32.4400   46.5230 C   0  0  0  0  0  0  0  0  0  0  0  0
   58.5310   31.9910   45.4360 C   0  0  0  0  0  0  0  0  0  0  0  0
   58.3500   30.5920   45.1810 N   0  0  0  0  0  0  0  0  0  0  0  0
   59.5170   29.7130   45.0830 C   0  0  0  0  0  0  0  0  0  0  0  0
   59.2250   28.3780   45.7800 C   0  0  0  0  0  0  0  0  0  0  0  0
   57.8780   27.8680   45.4670 N   0  0  0  0  0  0  0  0  0  0  0  0
   57.4560   26.6240   46.0700 C   0  0  0  0  0  0  0  0  0  0  0  0
   58.3060   25.9240   46.6940 O   0  0  0  0  0  0  0  0  0  0  0  0
   56.0150   26.1520   45.9910 C   0  0  0  0  0  0  0  0  0  0  0  0
   55.7550   24.9130   46.7460 N   0  0  0  0  0  0  0  0  0  0  0  0
   55.1690   23.8670   45.8980 C   0  0  0  0  0  0  0  0  0  0  0  0
   57.0360   28.6060   44.5090 C   0  0  0  0  0  0  0  0  0  0  0  0
   57.0050   30.0920   44.8780 C   0  0  0  0  0  0  0  0  0  0  0  0
   57.9200   32.9240   44.5940 C   0  0  0  0  0  0  0  0  0  0  0  0
   58.0770   34.2880   44.8430 C   0  0  0  0  0  0  0  0  0  0  0  0
   58.8210   34.7140   45.8990 N   0  0  0  0  0  0  0  0  0  0  0  0
   59.4390   33.8330   46.7400 C   0  0  0  0  0  0  0  0  0  0  0  0
   60.2050   34.3040   47.8170 C   0  0  0  0  0  0  0  0  0  0  0  0
   63.6472   34.5361   47.2311 H   0  0  0  0  0  0  0  0  0  0  0  0
   64.7095   33.1336   46.8686 H   0  0  0  0  0  0  0  0  0  0  0  0
   62.9246   32.9320   46.8686 H   0  0  0  0  0  0  0  0  0  0  0  0
   63.3271   32.1174   48.9780 H   0  0  0  0  0  0  0  0  0  0  0  0
   64.8639   33.0699   49.1471 H   0  0  0  0  0  0  0  0  0  0  0  0
   63.5197   34.1325   50.7050 H   0  0  0  0  0  0  0  0  0  0  0  0
   63.2075   35.1227   49.2184 H   0  0  0  0  0  0  0  0  0  0  0  0
   61.1700   33.9980   50.7140 H   0  0  0  0  0  0  0  0  0  0  0  0
   61.2173   31.3131   49.1320 H   0  0  0  0  0  0  0  0  0  0  0  0
   59.8622   30.4620   47.2304 H   0  0  0  0  0  0  0  0  0  0  0  0
   59.7467   29.5286   44.0232 H   0  0  0  0  0  0  0  0  0  0  0  0
   60.3763   30.1961   45.5711 H   0  0  0  0  0  0  0  0  0  0  0  0
   59.9691   27.6372   45.4520 H   0  0  0  0  0  0  0  0  0  0  0  0
   59.2780   28.5459   46.8658 H   0  0  0  0  0  0  0  0  0  0  0  0
   55.3672   26.9454   46.3920 H   0  0  0  0  0  0  0  0  0  0  0  0
   55.8058   25.9338   44.9334 H   0  0  0  0  0  0  0  0  0  0  0  0
   56.6410   24.5570   47.1800 H   0  0  0  0  0  0  0  0  0  0  0  0
   54.7300   23.0834   46.5330 H   0  0  0  0  0  0  0  0  0  0  0  0
   54.3855   24.3060   45.2629 H   0  0  0  0  0  0  0  0  0  0  0  0
   55.9526   23.4281   45.2629 H   0  0  0  0  0  0  0  0  0  0  0  0
   57.4491   28.4904   43.4961 H   0  0  0  0  0  0  0  0  0  0  0  0
   56.0128   28.2036   44.5419 H   0  0  0  0  0  0  0  0  0  0  0  0
   56.5920   30.6628   44.0332 H   0  0  0  0  0  0  0  0  0  0  0  0
   56.3780   30.2153   45.7733 H   0  0  0  0  0  0  0  0  0  0  0  0
   57.3177   32.5846   43.7384 H   0  0  0  0  0  0  0  0  0  0  0  0
   57.5961   35.0233   44.1812 H   0  0  0  0  0  0  0  0  0  0  0  0
   58.9120   35.7430   46.0560 H   0  0  0  0  0  0  0  0  0  0  0  0
   60.3011   35.3867   47.9857 H   0  0  0  0  0  0  0  0  0  0  0  0
  1  2  1  0
  2  3  1  0
  3  4  1  0
  4  5  1  0
  5  6  2  0
  6  7  1  0
  7  8  2  0
  8  9  1  0
  9 10  1  0
 10 11  1  0
 11 12  1  0
 12 13  1  0
 13 14  1  0
 14 15  2  0
 14 16  1  0
 16 17  1  0
 17 18  1  0
 13 19  1  0
 19 20  1  0
  9 21  2  0
 21 22  1  0
 22 23  2  0
 23 24  1  0
 24 25  2  0
 25  5  1  0
 24  8  1  0
 20 10  1  0
  1 26  1  0
  1 27  1  0
  1 28  1  0
  2 29  1  0
  2 30  1  0
  3 31  1  0
  3 32  1  0
  4 33  1  0
  6 34  1  0
  7 35  1  0
 11 36  1  0
 11 37  1  0
 12 38  1  0
 12 39  1  0
 16 40  1  0
 16 41  1  0
 17 42  1  0
 18 43  1  0
 18 44  1  0
 18 45  1  0
 19 46  1  0
 19 47  1  0
 20 48  1  0
 20 49  1  0
 21 50  1  0
 22 51  1  0
 23 52  1  0
 25 53  1  0
M  CHG  1  23   1
M  END
>  <UniqueID>  (22) 
19

>  <SMILES>  (22) 
CCCNc1ccc2c(N3CCN(C(=O)CNC)CC3)cc[nH+]c2c1

>  <Energy>  (22) 
60.17612165190563

>  <Genealogy>  (22) 
CCCNc1ccc2c(N3CCN(C(=O)CNC)CC3)cc[nH+]c2c1 (protonated)
CCCNc1ccc2c(N3CCN(C(=O)CNC)CC3)cc[nH+]c2c1 (3D coordinates assigned)
CCCNc1ccc2c(N3CCN(C(=O)CNC)CC3)cc[nH+]c2c1 (nonaromatic ring conformer: 60.17612165190563 kcal/mol)

>  <smiles>  (22) 
CCCNc1ccc2c(N3CCN(C(=O)CNC)CC3)ccnc2c1

>  <score_type>  (22) 
oracle

>  <origin>  (22) 
adg

>  <m_score__min__energy>  (22) 
-5.8099999999999996

>  <m_primary>  (22) 
energy

$$$$
22:0
     RDKit          3D

 41 43  0  0  0  0  0  0  0  0999 V2000
   55.5370   26.7550   46.0040 O   0  0  0  0  0  0  0  0  0  0  0  0
   56.6390   27.2360   45.6280 C   0  0  0  0  0  0  0  0  0  0  0  0
   57.8090   26.4130   45.7330 N   0  0  0  0  0  0  0  0  0  0  0  0
   58.4790   26.0130   46.9650 C   0  0  0  0  0  0  0  0  0  0  0  0
   59.9720   26.3450   46.8880 C   0  0  0  0  0  0  0  0  0  0  0  0
   60.2740   27.5520   45.9860 C   0  0  0  0  0  0  0  0  0  0  0  0
   60.1550   28.8080   46.7240 N   0  0  0  0  0  0  0  0  0  0  0  0
   59.4270   29.0270   47.8340 C   0  0  0  0  0  0  0  0  0  0  0  0
   59.5470   30.3590   48.1700 C   0  0  0  0  0  0  0  0  0  0  0  0
   60.3440   30.9600   47.2650 N   0  0  0  0  0  0  0  0  0  0  0  0
   60.6980   29.9970   46.3940 C   0  0  0  0  0  0  0  0  0  0  0  0
   56.6500   28.6010   45.0620 C   0  0  0  0  0  0  0  0  0  0  0  0
   57.7420   29.3340   44.6360 C   0  0  0  0  0  0  0  0  0  0  0  0
   57.1960   30.5440   44.2640 C   0  0  0  0  0  0  0  0  0  0  0  0
   57.9550   31.7190   43.7250 C   0  0  0  0  0  0  0  0  0  0  0  0
   58.2670   32.7160   44.8090 C   0  0  0  0  0  0  0  0  0  0  0  0
   59.0090   33.8720   44.5150 C   0  0  0  0  0  0  0  0  0  0  0  0
   59.2650   34.8170   45.5130 C   0  0  0  0  0  0  0  0  0  0  0  0
   58.7760   34.6180   46.8080 C   0  0  0  0  0  0  0  0  0  0  0  0
   58.0270   33.4760   47.1050 C   0  0  0  0  0  0  0  0  0  0  0  0
   57.7680   32.5290   46.1090 C   0  0  0  0  0  0  0  0  0  0  0  0
   55.9000   30.5070   44.4730 O   0  0  0  0  0  0  0  0  0  0  0  0
   55.5370   29.3560   44.9590 N   0  0  0  0  0  0  0  0  0  0  0  0
   58.0306   26.5508   47.8134 H   0  0  0  0  0  0  0  0  0  0  0  0
   58.3596   24.9281   47.1021 H   0  0  0  0  0  0  0  0  0  0  0  0
   60.3344   26.5665   47.9027 H   0  0  0  0  0  0  0  0  0  0  0  0
   60.4805   25.4729   46.4511 H   0  0  0  0  0  0  0  0  0  0  0  0
   61.2986   27.4609   45.5962 H   0  0  0  0  0  0  0  0  0  0  0  0
   59.5445   27.5620   45.1627 H   0  0  0  0  0  0  0  0  0  0  0  0
   58.8383   28.2743   48.3789 H   0  0  0  0  0  0  0  0  0  0  0  0
   59.0716   30.8489   49.0325 H   0  0  0  0  0  0  0  0  0  0  0  0
   60.6200   31.9660   47.2380 H   0  0  0  0  0  0  0  0  0  0  0  0
   61.3488   30.1597   45.5222 H   0  0  0  0  0  0  0  0  0  0  0  0
   58.7971   29.0249   44.6019 H   0  0  0  0  0  0  0  0  0  0  0  0
   58.8978   31.3639   43.2833 H   0  0  0  0  0  0  0  0  0  0  0  0
   57.3313   32.2157   42.9671 H   0  0  0  0  0  0  0  0  0  0  0  0
   59.3900   34.0343   43.4959 H   0  0  0  0  0  0  0  0  0  0  0  0
   59.8515   35.7178   45.2794 H   0  0  0  0  0  0  0  0  0  0  0  0
   58.9810   35.3606   47.5932 H   0  0  0  0  0  0  0  0  0  0  0  0
   57.6408   33.3219   48.1234 H   0  0  0  0  0  0  0  0  0  0  0  0
   57.1718   31.6350   46.3441 H   0  0  0  0  0  0  0  0  0  0  0  0
  1  2  2  0
  2  3  1  0
  3  4  1  0
  4  5  1  0
  5  6  1  0
  6  7  1  0
  7  8  1  0
  8  9  2  0
  9 10  1  0
 10 11  2  0
  2 12  1  0
 12 13  1  0
 13 14  2  0
 14 15  1  0
 15 16  1  0
 16 17  2  0
 17 18  1  0
 18 19  2  0
 19 20  1  0
 20 21  2  0
 14 22  1  0
 22 23  1  0
 11  7  1  0
 23 12  2  0
 21 16  1  0
  4 24  1  0
  4 25  1  0
  5 26  1  0
  5 27  1  0
  6 28  1  0
  6 29  1  0
  8 30  1  0
  9 31  1  0
 10 32  1  0
 11 33  1  0
 13 34  1  0
 15 35  1  0
 15 36  1  0
 17 37  1  0
 18 38  1  0
 19 39  1  0
 20 40  1  0
 21 41  1  0
M  CHG  2   3  -1  10   1
M  END
>  <UniqueID>  (23) 
20

>  <SMILES>  (23) 
O=C([N-]CCCn1cc[nH+]c1)c1cc(Cc2ccccc2)on1

>  <Energy>  (23) 
98.92331295741705

>  <Genealogy>  (23) 
O=C([N-]CCCn1cc[nH+]c1)c1cc(Cc2ccccc2)on1 (protonated)
O=C([N-]CCCn1cc[nH+]c1)c1cc(Cc2ccccc2)on1 (3D coordinates assigned)
O=C([N-]CCCn1cc[nH+]c1)c1cc(Cc2ccccc2)on1 (optimized conformer: 98.92331295741705 kcal/mol)

>  <smiles>  (23) 
O=C(NCCCn1ccnc1)c1cc(Cc2ccccc2)on1

>  <score_type>  (23) 
oracle

>  <origin>  (23) 
adg

>  <m_score__min__energy>  (23) 
-9.6199999999999992

>  <m_primary>  (23) 
energy

$$$$
23:0
     RDKit          3D

 15 15  0  0  0  0  0  0  0  0999 V2000
   55.1521   30.9740   43.9313 H   0  0  0  0  0  0  0  0  0  0  0  0
   55.8990   30.2160   44.2100 C   0  0  0  0  0  0  0  0  0  0  0  0
   55.5150   29.0970   44.8750 N   0  0  0  0  0  0  0  0  0  0  0  0
   56.3860   28.1200   45.2510 C   0  0  0  0  0  0  0  0  0  0  0  0
   55.8840   27.0950   45.8860 N   0  0  0  0  0  0  0  0  0  0  0  0
   56.0900   25.6680   45.6720 C   0  0  0  0  0  0  0  0  0  0  0  0
   56.1636   25.1583   46.6440 H   0  0  0  0  0  0  0  0  0  0  0  0
   55.2420   25.2561   45.1052 H   0  0  0  0  0  0  0  0  0  0  0  0
   57.0199   25.5127   45.1052 H   0  0  0  0  0  0  0  0  0  0  0  0
   57.7670   28.2800   44.9310 C   0  0  0  0  0  0  0  0  0  0  0  0
   59.0510   27.1390   45.3270 Cl  0  0  0  0  0  0  0  0  0  0  0  0
   58.1680   29.4330   44.2450 C   0  0  0  0  0  0  0  0  0  0  0  0
   59.2289   29.5738   43.9908 H   0  0  0  0  0  0  0  0  0  0  0  0
   57.2370   30.4040   43.8810 C   0  0  0  0  0  0  0  0  0  0  0  0
   57.7460   31.8460   43.0220 Cl  0  0  0  0  0  0  0  0  0  0  0  0
  1  2  1  0
  2  3  1  0
  3  4  1  0
  4  5  2  0
  5  6  1  0
  6  7  1  0
  6  8  1  0
  6  9  1  0
  4 10  1  0
 10 11  1  0
 10 12  2  0
 12 13  1  0
 12 14  1  0
 14 15  1  0
 14  2  2  0
M  CHG  1   3  -1
M  END
>  <UniqueID>  (24) 
21

>  <SMILES>  (24) 
C/N=c1/[n-]cc(Cl)cc1Cl

>  <Energy>  (24) 
21.769500977997723

>  <Genealogy>  (24) 
CN=c1[n-]cc(Cl)cc1Cl (protonated)
C/N=c1/[n-]cc(Cl)cc1Cl (cis-trans isomerization)
C/N=c1/[n-]cc(Cl)cc1Cl (3D coordinates assigned)
C/N=c1/[n-]cc(Cl)cc1Cl (optimized conformer: 21.769500977997723 kcal/mol)

>  <smiles>  (24) 
CN=c1[nH]cc(Cl)cc1Cl

>  <score_type>  (24) 
oracle

>  <origin>  (24) 
adg

>  <m_score__min__energy>  (24) 
-7.7599999999999998

>  <m_primary>  (24) 
energy

$$$$
24:0
     RDKit          3D

 25 25  0  0  0  0  0  0  0  0999 V2000
   59.9990   21.8110   45.3960 N   0  0  0  0  0  0  0  0  0  0  0  0
   58.9420   22.6900   44.8810 C   0  0  2  0  0  0  0  0  0  0  0  0
   59.0370   24.0550   45.6000 C   0  0  0  0  0  0  0  0  0  0  0  0
   58.1710   25.1530   44.9650 C   0  0  0  0  0  0  0  0  0  0  0  0
   56.6950   24.7530   44.8810 C   0  0  0  0  0  0  0  0  0  0  0  0
   56.3730   23.8820   43.6670 C   0  0  0  0  0  0  0  0  0  0  0  0
   56.4780   22.3710   43.9450 C   0  0  0  0  0  0  0  0  0  0  0  0
   57.5530   21.9620   44.9820 C   0  0  1  0  0  0  0  0  0  0  0  0
   57.7100   20.5030   45.0170 N   0  0  0  0  0  0  0  0  0  0  0  0
   59.7800   20.8290   45.1090 H   0  0  0  0  0  0  0  0  0  0  0  0
   60.8980   22.0450   44.9160 H   0  0  0  0  0  0  0  0  0  0  0  0
   59.0666   22.9077   43.8100 H   0  0  0  0  0  0  0  0  0  0  0  0
   58.7157   23.9202   46.6434 H   0  0  0  0  0  0  0  0  0  0  0  0
   60.0829   24.3864   45.5203 H   0  0  0  0  0  0  0  0  0  0  0  0
   58.2561   26.0662   45.5723 H   0  0  0  0  0  0  0  0  0  0  0  0
   58.5341   25.3173   43.9397 H   0  0  0  0  0  0  0  0  0  0  0  0
   56.4323   24.1941   45.7913 H   0  0  0  0  0  0  0  0  0  0  0  0
   56.1113   25.6800   44.7810 H   0  0  0  0  0  0  0  0  0  0  0  0
   55.3460   24.1049   43.3420 H   0  0  0  0  0  0  0  0  0  0  0  0
   57.1183   24.1195   42.8937 H   0  0  0  0  0  0  0  0  0  0  0  0
   55.5012   22.0246   44.3135 H   0  0  0  0  0  0  0  0  0  0  0  0
   56.7803   21.9071   42.9945 H   0  0  0  0  0  0  0  0  0  0  0  0
   57.1523   22.3221   45.9410 H   0  0  0  0  0  0  0  0  0  0  0  0
   57.7950   20.1290   44.0450 H   0  0  0  0  0  0  0  0  0  0  0  0
   58.6110   20.2800   45.5030 H   0  0  0  0  0  0  0  0  0  0  0  0
  1  2  1  0
  2  3  1  0
  3  4  1  0
  4  5  1  0
  5  6  1  0
  6  7  1  0
  7  8  1  0
  8  9  1  0
  8  2  1  0
  1 10  1  0
  1 11  1  0
  2 12  1  6
  3 13  1  0
  3 14  1  0
  4 15  1  0
  4 16  1  0
  5 17  1  0
  5 18  1  0
  6 19  1  0
  6 20  1  0
  7 21  1  0
  7 22  1  0
  8 23  1  1
  9 24  1  0
  9 25  1  0
M  END
>  <UniqueID>  (25) 
22

>  <SMILES>  (25) 
N[C@@H]1CCCCC[C@H]1N

>  <Energy>  (25) 
26.577710238607715

>  <Genealogy>  (25) 
N[C@@H]1CCCCC[C@H]1N (chirality)
N[C@@H]1CCCCC[C@H]1N (3D coordinates assigned)
N[C@@H]1CCCCC[C@H]1N (nonaromatic ring conformer: 26.577710238607715 kcal/mol)

>  <smiles>  (25) 
NC1CCCCCC1N

>  <score_type>  (25) 
oracle

>  <origin>  (25) 
adg

>  <m_score__min__energy>  (25) 
-3.0699999999999998

>  <m_primary>  (25) 
energy

$$$$
25:0
     RDKit          3D

 33 34  0  0  0  0  0  0  0  0999 V2000
   58.4780   32.3310   41.4560 C   0  0  0  0  0  0  0  0  0  0  0  0
   57.1230   31.9600   42.0510 C   0  0  0  0  0  0  0  0  0  0  0  0
   57.2800   31.4610   43.4230 N   0  0  0  0  0  0  0  0  0  0  0  0
   57.8410   32.2980   44.4520 C   0  0  0  0  0  0  0  0  0  0  0  0
   57.7870   31.8970   45.7970 C   0  0  0  0  0  0  0  0  0  0  0  0
   58.3230   32.7110   46.8000 C   0  0  0  0  0  0  0  0  0  0  0  0
   58.9150   33.9340   46.4680 C   0  0  0  0  0  0  0  0  0  0  0  0
   59.5860   34.9550   47.7260 Cl  0  0  0  0  0  0  0  0  0  0  0  0
   58.9710   34.3410   45.1310 C   0  0  0  0  0  0  0  0  0  0  0  0
   58.4360   33.5290   44.1260 C   0  0  0  0  0  0  0  0  0  0  0  0
   56.7480   29.8510   43.8100 S   0  0  0  0  0  0  0  0  0  0  0  0
   55.5150   29.9130   44.6680 O   0  0  0  0  0  0  0  0  0  0  0  0
   56.3940   29.1180   42.5440 O   0  0  0  0  0  0  0  0  0  0  0  0
   58.0240   28.9920   44.6680 C   0  0  0  0  0  0  0  0  0  0  0  0
   59.3690   29.3440   44.4890 C   0  0  0  0  0  0  0  0  0  0  0  0
   60.3730   28.6650   45.1880 C   0  0  0  0  0  0  0  0  0  0  0  0
   60.0370   27.6320   46.0680 C   0  0  0  0  0  0  0  0  0  0  0  0
   58.6970   27.2760   46.2480 C   0  0  0  0  0  0  0  0  0  0  0  0
   57.6930   27.9530   45.5510 C   0  0  0  0  0  0  0  0  0  0  0  0
   59.1937   32.5270   42.2680 H   0  0  0  0  0  0  0  0  0  0  0  0
   58.8458   31.5005   40.8355 H   0  0  0  0  0  0  0  0  0  0  0  0
   58.3714   33.2330   40.8355 H   0  0  0  0  0  0  0  0  0  0  0  0
   56.4770   32.8503   42.0619 H   0  0  0  0  0  0  0  0  0  0  0  0
   56.6702   31.1687   41.4356 H   0  0  0  0  0  0  0  0  0  0  0  0
   57.3204   30.9371   46.0630 H   0  0  0  0  0  0  0  0  0  0  0  0
   58.2790   32.3891   47.8509 H   0  0  0  0  0  0  0  0  0  0  0  0
   59.4371   35.3024   44.8694 H   0  0  0  0  0  0  0  0  0  0  0  0
   58.4810   33.8549   43.0763 H   0  0  0  0  0  0  0  0  0  0  0  0
   59.6359   30.1564   43.7970 H   0  0  0  0  0  0  0  0  0  0  0  0
   61.4273   28.9442   45.0450 H   0  0  0  0  0  0  0  0  0  0  0  0
   60.8265   27.0995   46.6186 H   0  0  0  0  0  0  0  0  0  0  0  0
   58.4329   26.4620   46.9391 H   0  0  0  0  0  0  0  0  0  0  0  0
   56.6397   27.6705   45.6950 H   0  0  0  0  0  0  0  0  0  0  0  0
  1  2  1  0
  2  3  1  0
  3  4  1  0
  4  5  2  0
  5  6  1  0
  6  7  2  0
  7  8  1  0
  7  9  1  0
  9 10  2  0
  3 11  1  0
 11 12  2  0
 11 13  2  0
 11 14  1  0
 14 15  2  0
 15 16  1  0
 16 17  2  0
 17 18  1  0
 18 19  2  0
 10  4  1  0
 19 14  1  0
  1 20  1  0
  1 21  1  0
  1 22  1  0
  2 23  1  0
  2 24  1  0
  5 25  1  0
  6 26  1  0
  9 27  1  0
 10 28  1  0
 15 29  1  0
 16 30  1  0
 17 31  1  0
 18 32  1  0
 19 33  1  0
M  END
>  <UniqueID>  (26) 
23

>  <SMILES>  (26) 
CCN(c1ccc(Cl)cc1)S(=O)(=O)c1ccccc1

>  <Energy>  (26) 
34.75684164616061

>  <Genealogy>  (26) 
CCN(c1ccc(Cl)cc1)S(=O)(=O)c1ccccc1 (3D coordinates assigned)
CCN(c1ccc(Cl)cc1)S(=O)(=O)c1ccccc1 (optimized conformer: 34.75684164616061 kcal/mol)

>  <smiles>  (26) 
CCN(c1ccc(Cl)cc1)S(=O)(=O)c1ccccc1

>  <score_type>  (26) 
oracle

>  <origin>  (26) 
adg

>  <m_score__min__energy>  (26) 
-7.5899999999999999

>  <m_primary>  (26) 
energy

$$$$
26:0
     RDKit          3D

 46 48  0  0  1  0  0  0  0  0999 V2000
   64.2550   33.8320   51.2410 C   0  0  0  0  0  0  0  0  0  0  0  0
   64.7540   33.4530   49.9110 N   0  0  0  0  0  0  0  0  0  0  0  0
   63.9130   32.9520   49.0610 C   0  0  0  0  0  0  0  0  0  0  0  0
   62.7300   32.3750   49.4710 C   0  0  0  0  0  0  0  0  0  0  0  0
   61.8240   31.8340   48.5210 C   0  0  0  0  0  0  0  0  0  0  0  0
   60.6460   31.2430   49.0740 C   0  0  0  0  0  0  0  0  0  0  0  0
   60.7720   29.8860   49.4520 C   0  0  0  0  0  0  0  0  0  0  0  0
   59.7600   29.1770   50.0060 C   0  0  0  0  0  0  0  0  0  0  0  0
   58.5540   29.7760   50.2190 C   0  0  0  0  0  0  0  0  0  0  0  0
   58.4040   31.0590   49.8670 N   0  0  0  0  0  0  0  0  0  0  0  0
   59.4280   31.7860   49.3010 C   0  0  0  0  0  0  0  0  0  0  0  0
   59.1110   32.9180   48.8700 N   0  0  0  0  0  0  0  0  0  0  0  0
   59.1430   33.4290   47.5840 C   0  0  0  0  0  0  0  0  0  0  0  0
   60.0020   34.5120   47.3220 C   0  0  0  0  0  0  0  0  0  0  0  0
   60.8350   35.0010   48.2590 F   0  0  0  0  0  0  0  0  0  0  0  0
   59.9750   35.0760   46.0630 C   0  0  0  0  0  0  0  0  0  0  0  0
   59.1220   34.5750   45.1010 C   0  0  0  0  0  0  0  0  0  0  0  0
   58.2670   33.5180   45.3180 C   0  0  0  0  0  0  0  0  0  0  0  0
   57.4020   33.0190   44.3070 N   0  0  0  0  0  0  0  0  0  0  0  0
   57.2460   31.3420   43.9370 S   0  0  0  0  0  0  0  0  0  0  0  0
   56.8320   31.1970   42.4980 O   0  0  0  0  0  0  0  0  0  0  0  0
   56.2090   30.6870   44.8050 O   0  0  0  0  0  0  0  0  0  0  0  0
   58.7910   30.6050   44.1290 N   0  0  0  0  0  0  0  0  0  0  0  0
   58.8240   29.7770   45.3130 C   0  0  0  0  0  0  0  0  0  0  0  0
   58.2890   32.9500   46.5760 C   0  0  0  0  0  0  0  0  0  0  0  0
   57.4420   31.9140   46.7990 F   0  0  0  0  0  0  0  0  0  0  0  0
   62.2340   31.9440   47.2660 N   0  0  0  0  0  0  0  0  0  0  0  0
   63.3900   32.5080   46.8780 C   0  0  0  0  0  0  0  0  0  0  0  0
   64.2570   33.0250   47.7660 N   0  0  0  0  0  0  0  0  0  0  0  0
   64.8777   33.3591   52.0147 H   0  0  0  0  0  0  0  0  0  0  0  0
   64.3002   34.9255   51.3517 H   0  0  0  0  0  0  0  0  0  0  0  0
   63.2138   33.4950   51.3517 H   0  0  0  0  0  0  0  0  0  0  0  0
   62.4860   32.3334   50.5428 H   0  0  0  0  0  0  0  0  0  0  0  0
   61.7366   29.3833   49.2884 H   0  0  0  0  0  0  0  0  0  0  0  0
   59.9103   28.1230   50.2828 H   0  0  0  0  0  0  0  0  0  0  0  0
   57.7214   29.2168   50.6707 H   0  0  0  0  0  0  0  0  0  0  0  0
   57.4700   31.4880   50.0430 H   0  0  0  0  0  0  0  0  0  0  0  0
   60.6333   35.9248   45.8262 H   0  0  0  0  0  0  0  0  0  0  0  0
   59.1253   35.0457   44.1068 H   0  0  0  0  0  0  0  0  0  0  0  0
   56.8300   33.7340   43.7650 H   0  0  0  0  0  0  0  0  0  0  0  0
   58.9940   30.0200   43.3090 H   0  0  0  0  0  0  0  0  0  0  0  0
   58.7985   30.4159   46.2081 H   0  0  0  0  0  0  0  0  0  0  0  0
   57.9519   29.1067   45.3161 H   0  0  0  0  0  0  0  0  0  0  0  0
   59.7467   29.1782   45.3161 H   0  0  0  0  0  0  0  0  0  0  0  0
   63.6334   32.5478   45.8060 H   0  0  0  0  0  0  0  0  0  0  0  0
   65.1510   33.4600   47.4480 H   0  0  0  0  0  0  0  0  0  0  0  0
  1  2  1  0
  2  3  2  0
  3  4  1  0
  4  5  2  0
  5  6  1  0
  6  7  2  0
  7  8  1  0
  8  9  2  0
  9 10  1  0
 10 11  1  0
 11 12  2  0
 12 13  1  0
 13 14  2  0
 14 15  1  0
 14 16  1  0
 16 17  2  0
 17 18  1  0
 18 19  1  0
 19 20  1  0
 20 21  2  0
 20 22  2  0
 20 23  1  0
 23 24  1  0
 18 25  2  0
 25 26  1  0
  5 27  1  0
 27 28  2  0
 28 29  1  0
 29  3  1  0
 11  6  1  0
 25 13  1  0
  1 30  1  0
  1 31  1  0
  1 32  1  0
  4 33  1  0
  7 34  1  0
  8 35  1  0
  9 36  1  0
 10 37  1  0
 16 38  1  0
 17 39  1  0
 19 40  1  0
 23 41  1  0
 24 42  1  0
 24 43  1  0
 24 44  1  0
 28 45  1  0
 29 46  1  0
M  END
>  <smiles>  (27) 
CN=c1cc(-c2ccc[nH]c2=Nc2c(F)ccc(NS(=O)(=O)NC)c2F)nc[nH]1

>  <score_type>  (27) 
oracle

>  <origin>  (27) 
adg

>  <m_score__min__energy>  (27) 
-8.9600000000000009

>  <m_primary>  (27) 
energy

$$$$
27:0
     RDKit          3D

 33 34  0  0  0  0  0  0  0  0999 V2000
   56.2231   33.4847   45.5125 H   0  0  0  0  0  0  0  0  0  0  0  0
   57.2270   33.1240   45.2440 C   0  0  0  0  0  0  0  0  0  0  0  0
   58.2400   34.0030   45.2800 C   0  0  0  0  0  0  0  0  0  0  0  0
   58.2883   34.7739   44.4968 H   0  0  0  0  0  0  0  0  0  0  0  0
   59.3000   33.9910   46.3210 C   0  0  0  0  0  0  0  0  0  0  0  0
   58.9170   34.0870   47.6670 C   0  0  0  0  0  0  0  0  0  0  0  0
   57.8505   34.1755   47.9213 H   0  0  0  0  0  0  0  0  0  0  0  0
   59.8700   34.0720   48.6910 C   0  0  0  0  0  0  0  0  0  0  0  0
   59.4230   34.1840   50.0160 O   0  0  0  0  0  0  0  0  0  0  0  0
   59.8290   33.3300   51.0800 C   0  0  0  0  0  0  0  0  0  0  0  0
   59.6007   33.8101   52.0430 H   0  0  0  0  0  0  0  0  0  0  0  0
   59.2889   32.3743   51.0096 H   0  0  0  0  0  0  0  0  0  0  0  0
   60.9111   33.1456   51.0096 H   0  0  0  0  0  0  0  0  0  0  0  0
   61.2330   33.9470   48.3630 C   0  0  0  0  0  0  0  0  0  0  0  0
   61.9893   33.9415   49.1617 H   0  0  0  0  0  0  0  0  0  0  0  0
   61.6340   33.8290   47.0190 C   0  0  0  0  0  0  0  0  0  0  0  0
   62.9780   33.6880   46.6460 O   0  0  0  0  0  0  0  0  0  0  0  0
   63.9860   33.1050   47.4650 C   0  0  0  0  0  0  0  0  0  0  0  0
   63.7291   33.2536   48.5242 H   0  0  0  0  0  0  0  0  0  0  0  0
   64.0542   32.0280   47.2518 H   0  0  0  0  0  0  0  0  0  0  0  0
   64.9535   33.5830   47.2518 H   0  0  0  0  0  0  0  0  0  0  0  0
   60.6650   33.8480   46.0090 C   0  0  0  0  0  0  0  0  0  0  0  0
   60.9743   33.7499   44.9579 H   0  0  0  0  0  0  0  0  0  0  0  0
   57.3730   31.6990   44.8660 C   0  0  0  0  0  0  0  0  0  0  0  0
   56.2540   31.0250   44.4790 N   0  0  0  0  0  0  0  0  0  0  0  0
   56.2820   29.7130   44.1210 C   0  0  0  0  0  0  0  0  0  0  0  0
   55.3555   29.2082   43.8100 H   0  0  0  0  0  0  0  0  0  0  0  0
   57.4840   29.0080   44.1480 C   0  0  0  0  0  0  0  0  0  0  0  0
   57.5144   27.9484   43.8542 H   0  0  0  0  0  0  0  0  0  0  0  0
   58.6480   29.6620   44.5520 C   0  0  0  0  0  0  0  0  0  0  0  0
   59.6029   29.1168   44.5823 H   0  0  0  0  0  0  0  0  0  0  0  0
   58.6010   31.0090   44.9180 C   0  0  0  0  0  0  0  0  0  0  0  0
   59.5148   31.5272   45.2442 H   0  0  0  0  0  0  0  0  0  0  0  0
  1  2  1  0
  2  3  2  0
  3  4  1  0
  3  5  1  0
  5  6  2  0
  6  7  1  0
  6  8  1  0
  8  9  1  0
  9 10  1  0
 10 11  1  0
 10 12  1  0
 10 13  1  0
  8 14  2  0
 14 15  1  0
 14 16  1  0
 16 17  1  0
 17 18  1  0
 18 19  1  0
 18 20  1  0
 18 21  1  0
 16 22  2  0
 22 23  1  0
  2 24  1  0
 24 25  2  0
 25 26  1  0
 26 27  1  0
 26 28  2  0
 28 29  1  0
 28 30  1  0
 30 31  1  0
 30 32  2  0
 32 33  1  0
 22  5  1  0
 32 24  1  0
M  END
>  <UniqueID>  (28) 
24

>  <SMILES>  (28) 
COc1cc(/C=C/c2ccccn2)cc(OC)c1

>  <Energy>  (28) 
37.62088980280111

>  <Genealogy>  (28) 
COc1cc(/C=C/c2ccccn2)cc(OC)c1 (cis-trans isomerization)
COc1cc(/C=C/c2ccccn2)cc(OC)c1 (3D coordinates assigned)
COc1cc(/C=C/c2ccccn2)cc(OC)c1 (optimized conformer: 37.62088980280111 kcal/mol)

>  <smiles>  (28) 
COc1cc(C=Cc2ccccn2)cc(OC)c1

>  <score_type>  (28) 
oracle

>  <origin>  (28) 
adg

>  <m_score__min__energy>  (28) 
-6.25

>  <m_primary>  (28) 
energy

$$$$
28:0
     RDKit          3D

 39 42  0  0  0  0  0  0  0  0999 V2000
   58.9143   32.1438   49.4143 H   0  0  0  0  0  0  0  0  0  0  0  0
   58.9180   32.7980   48.5300 C   0  0  0  0  0  0  0  0  0  0  0  0
   59.3150   34.0910   48.6400 N   0  0  0  0  0  0  0  0  0  0  0  0
   59.3270   34.9040   47.5830 N   0  0  0  0  0  0  0  0  0  0  0  0
   58.9450   34.4750   46.3520 C   0  0  0  0  0  0  0  0  0  0  0  0
   58.9560   35.1691   45.4987 H   0  0  0  0  0  0  0  0  0  0  0  0
   58.5370   33.1470   46.1710 C   0  0  0  0  0  0  0  0  0  0  0  0
   58.1120   32.6790   44.8310 C   0  0  0  0  0  0  0  0  0  0  0  0
   58.3260   33.3910   43.6940 N   0  0  0  0  0  0  0  0  0  0  0  0
   57.8170   32.6290   42.6950 C   0  0  0  0  0  0  0  0  0  0  0  0
   57.8065   32.8915   41.6268 H   0  0  0  0  0  0  0  0  0  0  0  0
   57.3160   31.4720   43.2440 C   0  0  0  0  0  0  0  0  0  0  0  0
   56.7360   30.3570   42.6580 C   0  0  0  0  0  0  0  0  0  0  0  0
   56.5676   30.3051   41.5722 H   0  0  0  0  0  0  0  0  0  0  0  0
   56.3830   29.3290   43.4780 N   0  0  0  0  0  0  0  0  0  0  0  0
   56.5910   29.3930   44.8340 C   0  0  0  0  0  0  0  0  0  0  0  0
   56.2730   28.4000   45.6120 N   0  0  0  0  0  0  0  0  0  0  0  0
   57.1020   27.2600   45.8860 C   0  0  0  0  0  0  0  0  0  0  0  0
   56.6800   26.0020   45.4380 C   0  0  0  0  0  0  0  0  0  0  0  0
   55.7300   25.9072   44.8917 H   0  0  0  0  0  0  0  0  0  0  0  0
   57.4570   24.8670   45.6800 C   0  0  0  0  0  0  0  0  0  0  0  0
   57.1110   23.8803   45.3384 H   0  0  0  0  0  0  0  0  0  0  0  0
   58.6720   24.9850   46.3550 C   0  0  0  0  0  0  0  0  0  0  0  0
   59.2766   24.0886   46.5572 H   0  0  0  0  0  0  0  0  0  0  0  0
   59.1230   26.2390   46.7750 C   0  0  0  0  0  0  0  0  0  0  0  0
   60.0865   26.3262   47.2985 H   0  0  0  0  0  0  0  0  0  0  0  0
   58.3510   27.3930   46.5320 C   0  0  0  0  0  0  0  0  0  0  0  0
   58.7990   28.6800   46.8810 O   0  0  0  0  0  0  0  0  0  0  0  0
   59.9400   29.3440   46.3370 C   0  0  0  0  0  0  0  0  0  0  0  0
   60.8293   29.0753   46.9260 H   0  0  0  0  0  0  0  0  0  0  0  0
   59.7700   30.4301   46.3771 H   0  0  0  0  0  0  0  0  0  0  0  0
   60.1590   28.9350   44.8850 C   0  0  0  0  0  0  0  0  0  0  0  0
   60.6780   27.9657   44.8514 H   0  0  0  0  0  0  0  0  0  0  0  0
   59.1867   28.8481   44.3779 H   0  0  0  0  0  0  0  0  0  0  0  0
   60.7703   29.6960   44.3779 H   0  0  0  0  0  0  0  0  0  0  0  0
   57.1770   30.5020   45.3700 N   0  0  0  0  0  0  0  0  0  0  0  0
   57.5010   31.5090   44.5610 N   0  0  0  0  0  0  0  0  0  0  0  0
   58.5150   32.3030   47.2910 C   0  0  0  0  0  0  0  0  0  0  0  0
   58.1825   31.2591   47.1923 H   0  0  0  0  0  0  0  0  0  0  0  0
  1  2  1  0
  2  3  2  0
  3  4  1  0
  4  5  2  0
  5  6  1  0
  5  7  1  0
  7  8  1  0
  8  9  2  0
  9 10  1  0
 10 11  1  0
 10 12  2  0
 12 13  1  0
 13 14  1  0
 13 15  2  0
 15 16  1  0
 16 17  2  0
 17 18  1  0
 18 19  2  0
 19 20  1  0
 19 21  1  0
 21 22  1  0
 21 23  2  0
 23 24  1  0
 23 25  1  0
 25 26  1  0
 25 27  2  0
 27 28  1  0
 28 29  1  0
 29 30  1  0
 29 31  1  0
 29 32  1  0
 32 33  1  0
 32 34  1  0
 32 35  1  0
 16 36  1  0
 36 37  1  0
  7 38  2  0
 38 39  1  0
 38  2  1  0
 37  8  1  0
 37 12  1  0
 27 18  1  0
M  CHG  1  36  -1
M  END
>  <UniqueID>  (29) 
25

>  <SMILES>  (29) 
CCOc1ccccc1/N=c1\ncc2cnc(-c3ccnnc3)n2[n-]1

>  <Energy>  (29) 
92.91578512211777

>  <Genealogy>  (29) 
CCOc1ccccc1N=c1ncc2cnc(-c3ccnnc3)n2[n-]1 (protonated)
CCOc1ccccc1/N=c1\ncc2cnc(-c3ccnnc3)n2[n-]1 (cis-trans isomerization)
CCOc1ccccc1/N=c1\ncc2cnc(-c3ccnnc3)n2[n-]1 (3D coordinates assigned)
CCOc1ccccc1/N=c1\ncc2cnc(-c3ccnnc3)n2[n-]1 (optimized conformer: 92.91578512211777 kcal/mol)

>  <smiles>  (29) 
CCOc1ccccc1N=c1ncc2cnc(-c3ccnnc3)n2[nH]1

>  <score_type>  (29) 
oracle

>  <origin>  (29) 
adg

>  <m_score__min__energy>  (29) 
-10.289999999999999

>  <m_primary>  (29) 
energy

$$$$
29:0
     RDKit          3D

 29 30  0  0  0  0  0  0  0  0999 V2000
   54.7900   25.2130   45.6250 C   0  0  0  0  0  0  0  0  0  0  0  0
   55.8880   26.1630   45.7580 N   0  0  0  0  0  0  0  0  0  0  0  0
   56.9730   25.9370   46.6700 C   0  0  0  0  0  0  0  0  0  0  0  0
   56.9380   24.9420   47.4430 O   0  0  0  0  0  0  0  0  0  0  0  0
   58.1350   26.8600   46.7080 C   0  0  0  0  0  0  0  0  0  0  0  0
   59.1510   26.6580   47.6600 C   0  0  0  0  0  0  0  0  0  0  0  0
   60.2480   27.5200   47.7260 C   0  0  0  0  0  0  0  0  0  0  0  0
   60.3400   28.6020   46.8510 C   0  0  0  0  0  0  0  0  0  0  0  0
   59.3410   28.8210   45.9030 C   0  0  0  0  0  0  0  0  0  0  0  0
   58.2430   27.9450   45.8050 C   0  0  0  0  0  0  0  0  0  0  0  0
   57.2190   28.1720   44.8240 N   0  0  0  0  0  0  0  0  0  0  0  0
   56.3920   29.3380   44.7170 C   0  0  0  0  0  0  0  0  0  0  0  0
   55.1460   29.2140   44.8500 O   0  0  0  0  0  0  0  0  0  0  0  0
   56.9570   30.6580   44.3840 C   0  0  0  0  0  0  0  0  0  0  0  0
   57.2570   31.1110   43.1130 C   0  0  0  0  0  0  0  0  0  0  0  0
   57.7680   32.3820   43.2780 C   0  0  0  0  0  0  0  0  0  0  0  0
   57.7480   32.6180   44.6370 C   0  0  0  0  0  0  0  0  0  0  0  0
   58.3310   34.2170   45.4940 Br  0  0  0  0  0  0  0  0  0  0  0  0
   57.2650   31.5770   45.2710 O   0  0  0  0  0  0  0  0  0  0  0  0
   54.4423   24.9122   46.6243 H   0  0  0  0  0  0  0  0  0  0  0  0
   53.9620   25.6842   45.0752 H   0  0  0  0  0  0  0  0  0  0  0  0
   55.1373   24.3258   45.0752 H   0  0  0  0  0  0  0  0  0  0  0  0
   55.8510   27.0430   45.1970 H   0  0  0  0  0  0  0  0  0  0  0  0
   59.0807   25.8122   48.3598 H   0  0  0  0  0  0  0  0  0  0  0  0
   61.0402   27.3452   48.4689 H   0  0  0  0  0  0  0  0  0  0  0  0
   61.2016   29.2835   46.9087 H   0  0  0  0  0  0  0  0  0  0  0  0
   59.4114   29.6853   45.2262 H   0  0  0  0  0  0  0  0  0  0  0  0
   57.1172   30.5699   42.1655 H   0  0  0  0  0  0  0  0  0  0  0  0
   58.1184   33.0649   42.4900 H   0  0  0  0  0  0  0  0  0  0  0  0
  1  2  1  0
  2  3  1  0
  3  4  2  0
  3  5  1  0
  5  6  2  0
  6  7  1  0
  7  8  2  0
  8  9  1  0
  9 10  2  0
 10 11  1  0
 11 12  1  0
 12 13  2  0
 12 14  1  0
 14 15  2  0
 15 16  1  0
 16 17  2  0
 17 18  1  0
 17 19  1  0
 10  5  1  0
 19 14  1  0
  1 20  1  0
  1 21  1  0
  1 22  1  0
  2 23  1  0
  6 24  1  0
  7 25  1  0
  8 26  1  0
  9 27  1  0
 15 28  1  0
 16 29  1  0
M  CHG  1  11  -1
M  END
>  <UniqueID>  (30) 
26

>  <SMILES>  (30) 
CNC(=O)c1ccccc1[N-]C(=O)c1ccc(Br)o1

>  <Energy>  (30) 
60.98099637926597

>  <Genealogy>  (30) 
CNC(=O)c1ccccc1[N-]C(=O)c1ccc(Br)o1 (protonated)
CNC(=O)c1ccccc1[N-]C(=O)c1ccc(Br)o1 (3D coordinates assigned)
CNC(=O)c1ccccc1[N-]C(=O)c1ccc(Br)o1 (optimized conformer: 60.98099637926597 kcal/mol)

>  <smiles>  (30) 
CNC(=O)c1ccccc1NC(=O)c1ccc(Br)o1

>  <score_type>  (30) 
oracle

>  <origin>  (30) 
adg

>  <m_score__min__energy>  (30) 
-9.9700000000000006

>  <m_primary>  (30) 
energy

$$$$
30:0
     RDKit          3D

 50 52  0  0  0  0  0  0  0  0999 V2000
   58.1370   26.7700   43.0960 C   0  0  0  0  0  0  0  0  0  0  0  0
   58.0770   28.2640   43.4270 C   0  0  0  0  0  0  0  0  0  0  0  0
   57.7080   28.5840   44.8980 C   0  0  2  0  0  0  0  0  0  0  0  0
   56.2550   28.3270   45.2350 C   0  0  0  0  0  0  0  0  0  0  0  0
   55.4060   29.2300   45.0020 O   0  0  0  0  0  0  0  0  0  0  0  0
   55.8480   27.0910   45.8340 N   0  0  0  0  0  0  0  0  0  0  0  0
   56.6050   25.8720   45.9040 C   0  0  0  0  0  0  0  0  0  0  0  0
   57.9870   25.8890   46.1730 C   0  0  0  0  0  0  0  0  0  0  0  0
   58.7060   24.6970   46.2590 C   0  0  0  0  0  0  0  0  0  0  0  0
   58.0570   23.4750   46.0920 C   0  0  0  0  0  0  0  0  0  0  0  0
   56.6810   23.4390   45.8520 C   0  0  0  0  0  0  0  0  0  0  0  0
   55.9380   24.6330   45.7670 C   0  0  0  0  0  0  0  0  0  0  0  0
   54.4460   24.5940   45.5080 C   0  0  0  0  0  0  0  0  0  0  0  0
   53.9210   25.8690   45.6190 F   0  0  0  0  0  0  0  0  0  0  0  0
   53.7880   23.7750   46.4080 F   0  0  0  0  0  0  0  0  0  0  0  0
   54.2140   24.1190   44.2290 F   0  0  0  0  0  0  0  0  0  0  0  0
   58.1390   29.9530   45.2840 N   0  0  0  0  0  0  0  0  0  0  0  0
   57.7440   31.0410   44.5440 C   0  0  0  0  0  0  0  0  0  0  0  0
   58.1540   32.3310   44.8810 C   0  0  0  0  0  0  0  0  0  0  0  0
   58.9950   32.5210   45.9770 C   0  0  0  0  0  0  0  0  0  0  0  0
   59.5300   34.1340   46.4360 S   0  0  0  0  0  0  0  0  0  0  0  0
   58.5510   34.7650   47.3870 O   0  0  0  0  0  0  0  0  0  0  0  0
   59.6190   34.9950   45.2060 O   0  0  0  0  0  0  0  0  0  0  0  0
   61.1000   34.0220   47.2220 C   0  0  0  0  0  0  0  0  0  0  0  0
   61.1910   34.1160   48.6180 C   0  0  0  0  0  0  0  0  0  0  0  0
   62.4360   34.0120   49.2500 C   0  0  0  0  0  0  0  0  0  0  0  0
   63.5910   33.8090   48.4900 C   0  0  0  0  0  0  0  0  0  0  0  0
   63.5040   33.7070   47.0980 C   0  0  0  0  0  0  0  0  0  0  0  0
   62.2620   33.8100   46.4650 C   0  0  0  0  0  0  0  0  0  0  0  0
   59.4200   31.4140   46.7100 C   0  0  0  0  0  0  0  0  0  0  0  0
   58.9930   30.1320   46.3490 C   0  0  0  0  0  0  0  0  0  0  0  0
   59.4090   29.1450   47.0170 O   0  0  0  0  0  0  0  0  0  0  0  0
   58.1604   26.1883   44.0293 H   0  0  0  0  0  0  0  0  0  0  0  0
   57.2494   26.4882   42.5105 H   0  0  0  0  0  0  0  0  0  0  0  0
   59.0443   26.5603   42.5105 H   0  0  0  0  0  0  0  0  0  0  0  0
   59.0642   28.7018   43.2177 H   0  0  0  0  0  0  0  0  0  0  0  0
   57.2760   28.6895   42.8047 H   0  0  0  0  0  0  0  0  0  0  0  0
   58.2754   27.8683   45.5110 H   0  0  0  0  0  0  0  0  0  0  0  0
   58.5034   26.8496   46.3164 H   0  0  0  0  0  0  0  0  0  0  0  0
   59.7874   24.7214   46.4590 H   0  0  0  0  0  0  0  0  0  0  0  0
   58.6291   22.5372   46.1492 H   0  0  0  0  0  0  0  0  0  0  0  0
   56.1738   22.4708   45.7284 H   0  0  0  0  0  0  0  0  0  0  0  0
   57.0927   30.8922   43.6701 H   0  0  0  0  0  0  0  0  0  0  0  0
   57.8162   33.1925   44.2863 H   0  0  0  0  0  0  0  0  0  0  0  0
   60.2823   34.2718   49.2180 H   0  0  0  0  0  0  0  0  0  0  0  0
   62.5050   34.0901   50.3451 H   0  0  0  0  0  0  0  0  0  0  0  0
   64.5691   33.7294   48.9870 H   0  0  0  0  0  0  0  0  0  0  0  0
   64.4136   33.5456   46.5008 H   0  0  0  0  0  0  0  0  0  0  0  0
   62.1955   33.7246   45.3703 H   0  0  0  0  0  0  0  0  0  0  0  0
   60.0906   31.5486   47.5715 H   0  0  0  0  0  0  0  0  0  0  0  0
  1  2  1  0
  2  3  1  0
  3  4  1  0
  4  5  2  0
  4  6  1  0
  6  7  1  0
  7  8  2  0
  8  9  1  0
  9 10  2  0
 10 11  1  0
 11 12  2  0
 12 13  1  0
 13 14  1  0
 13 15  1  0
 13 16  1  0
  3 17  1  0
 17 18  1  0
 18 19  2  0
 19 20  1  0
 20 21  1  0
 21 22  2  0
 21 23  2  0
 21 24  1  0
 24 25  2  0
 25 26  1  0
 26 27  2  0
 27 28  1  0
 28 29  2  0
 20 30  2  0
 30 31  1  0
 31 32  2  0
 12  7  1  0
 31 17  1  0
 29 24  1  0
  1 33  1  0
  1 34  1  0
  1 35  1  0
  2 36  1  0
  2 37  1  0
  3 38  1  1
  8 39  1  0
  9 40  1  0
 10 41  1  0
 11 42  1  0
 18 43  1  0
 19 44  1  0
 25 45  1  0
 26 46  1  0
 27 47  1  0
 28 48  1  0
 29 49  1  0
 30 50  1  0
M  CHG  1   6  -1
M  END
>  <UniqueID>  (31) 
27

>  <SMILES>  (31) 
CC[C@H](C(=O)[N-]c1ccccc1C(F)(F)F)n1ccc(S(=O)(=O)c2ccccc2)cc1=O

>  <Energy>  (31) 
62.73549058928782

>  <Genealogy>  (31) 
CCC(C(=O)[N-]c1ccccc1C(F)(F)F)n1ccc(S(=O)(=O)c2ccccc2)cc1=O (protonated)
CC[C@H](C(=O)[N-]c1ccccc1C(F)(F)F)n1ccc(S(=O)(=O)c2ccccc2)cc1=O (chirality)
CC[C@H](C(=O)[N-]c1ccccc1C(F)(F)F)n1ccc(S(=O)(=O)c2ccccc2)cc1=O (3D coordinates assigned)
CC[C@H](C(=O)[N-]c1ccccc1C(F)(F)F)n1ccc(S(=O)(=O)c2ccccc2)cc1=O (optimized conformer: 62.73549058928782 kcal/mol)

>  <smiles>  (31) 
CCC(C(=O)Nc1ccccc1C(F)(F)F)n1ccc(S(=O)(=O)c2ccccc2)cc1=O

>  <score_type>  (31) 
oracle

>  <origin>  (31) 
adg

>  <m_score__min__energy>  (31) 
-10.94

>  <m_primary>  (31) 
energy

$$$$
31:0
     RDKit          3D

 43 46  0  0  0  0  0  0  0  0999 V2000
   55.8590   29.5690   45.2450 O   0  0  0  0  0  0  0  0  0  0  0  0
   56.8780   28.9410   44.8530 C   0  0  0  0  0  0  0  0  0  0  0  0
   57.8690   29.6000   44.0480 N   0  0  0  0  0  0  0  0  0  0  0  0
   57.9970   31.0260   43.9440 C   0  0  0  0  0  0  0  0  0  0  0  0
   57.7240   31.7800   42.8210 C   0  0  0  0  0  0  0  0  0  0  0  0
   58.0030   33.0710   43.0860 N   0  0  0  0  0  0  0  0  0  0  0  0
   58.4590   33.1380   44.3300 N   0  0  0  0  0  0  0  0  0  0  0  0
   58.8280   34.3840   44.9930 C   0  0  0  0  0  0  0  0  0  0  0  0
   58.6910   34.2320   46.5090 C   0  0  0  0  0  0  0  0  0  0  0  0
   60.0430   34.0790   47.1520 C   0  0  0  0  0  0  0  0  0  0  0  0
   61.1790   33.8310   46.3630 C   0  0  0  0  0  0  0  0  0  0  0  0
   62.4380   33.7200   46.9580 C   0  0  0  0  0  0  0  0  0  0  0  0
   62.5750   33.8660   48.3420 C   0  0  0  0  0  0  0  0  0  0  0  0
   61.4520   34.1250   49.1320 C   0  0  0  0  0  0  0  0  0  0  0  0
   60.1900   34.2370   48.5400 C   0  0  0  0  0  0  0  0  0  0  0  0
   58.4690   31.9130   44.8900 C   0  0  0  0  0  0  0  0  0  0  0  0
   57.0160   27.5120   45.1990 C   0  0  0  0  0  0  0  0  0  0  0  0
   57.8190   26.6030   44.5100 C   0  0  0  0  0  0  0  0  0  0  0  0
   57.6320   25.4010   45.1540 C   0  0  0  0  0  0  0  0  0  0  0  0
   58.1760   24.1420   44.9040 C   0  0  0  0  0  0  0  0  0  0  0  0
   57.7870   23.0810   45.7420 C   0  0  0  0  0  0  0  0  0  0  0  0
   56.8740   23.3000   46.7970 C   0  0  0  0  0  0  0  0  0  0  0  0
   56.3420   24.5830   47.0230 C   0  0  0  0  0  0  0  0  0  0  0  0
   56.7470   25.6150   46.1790 C   0  0  0  0  0  0  0  0  0  0  0  0
   56.3610   26.9010   46.2160 N   0  0  0  0  0  0  0  0  0  0  0  0
   58.5070   29.0200   43.4600 H   0  0  0  0  0  0  0  0  0  0  0  0
   57.3413   31.3907   41.8660 H   0  0  0  0  0  0  0  0  0  0  0  0
   59.8702   34.6336   44.7449 H   0  0  0  0  0  0  0  0  0  0  0  0
   58.1594   35.1870   44.6493 H   0  0  0  0  0  0  0  0  0  0  0  0
   58.1954   35.1247   46.9182 H   0  0  0  0  0  0  0  0  0  0  0  0
   58.0940   33.3330   46.7220 H   0  0  0  0  0  0  0  0  0  0  0  0
   61.0765   33.7239   45.2730 H   0  0  0  0  0  0  0  0  0  0  0  0
   63.3230   33.5174   46.3369 H   0  0  0  0  0  0  0  0  0  0  0  0
   63.5670   33.7769   48.8088 H   0  0  0  0  0  0  0  0  0  0  0  0
   61.5607   34.2409   50.2205 H   0  0  0  0  0  0  0  0  0  0  0  0
   59.3091   34.4496   49.1636 H   0  0  0  0  0  0  0  0  0  0  0  0
   58.7932   31.6656   45.9116 H   0  0  0  0  0  0  0  0  0  0  0  0
   58.4622   26.8034   43.6405 H   0  0  0  0  0  0  0  0  0  0  0  0
   58.8859   23.9834   44.0788 H   0  0  0  0  0  0  0  0  0  0  0  0
   58.1967   22.0740   45.5744 H   0  0  0  0  0  0  0  0  0  0  0  0
   56.5770   22.4628   47.4458 H   0  0  0  0  0  0  0  0  0  0  0  0
   55.6288   24.7655   47.8403 H   0  0  0  0  0  0  0  0  0  0  0  0
   55.6800   27.3220   46.8870 H   0  0  0  0  0  0  0  0  0  0  0  0
  1  2  2  0
  2  3  1  0
  3  4  1  0
  4  5  1  0
  5  6  2  0
  6  7  1  0
  7  8  1  0
  8  9  1  0
  9 10  1  0
 10 11  2  0
 11 12  1  0
 12 13  2  0
 13 14  1  0
 14 15  2  0
  7 16  1  0
  2 17  1  0
 17 18  2  0
 18 19  1  0
 19 20  2  0
 20 21  1  0
 21 22  2  0
 22 23  1  0
 23 24  2  0
 24 25  1  0
 16  4  2  0
 25 17  1  0
 15 10  1  0
 24 19  1  0
  3 26  1  0
  5 27  1  0
  8 28  1  0
  8 29  1  0
  9 30  1  0
  9 31  1  0
 11 32  1  0
 12 33  1  0
 13 34  1  0
 14 35  1  0
 15 36  1  0
 16 37  1  0
 18 38  1  0
 20 39  1  0
 21 40  1  0
 22 41  1  0
 23 42  1  0
 25 43  1  0
M  END
>  <UniqueID>  (32) 
28

>  <SMILES>  (32) 
O=C(Nc1cnn(CCc2ccccc2)c1)c1cc2ccccc2[nH]1

>  <Energy>  (32) 
108.77213256966056

>  <Genealogy>  (32) 
O=C(Nc1cnn(CCc2ccccc2)c1)c1cc2ccccc2[nH]1 (3D coordinates assigned)
O=C(Nc1cnn(CCc2ccccc2)c1)c1cc2ccccc2[nH]1 (optimized conformer: 108.77213256966056 kcal/mol)

>  <smiles>  (32) 
O=C(Nc1cnn(CCc2ccccc2)c1)c1cc2ccccc2[nH]1

>  <score_type>  (32) 
oracle

>  <origin>  (32) 
adg

>  <m_score__min__energy>  (32) 
-8.9000000000000004

>  <m_primary>  (32) 
energy

$$$$
32:0
     RDKit          3D

 36 38  0  0  0  0  0  0  0  0999 V2000
   63.7840   33.1610   47.4160 C   0  0  0  0  0  0  0  0  0  0  0  0
   62.7540   34.0260   46.7080 C   0  0  0  0  0  0  0  0  0  0  0  0
   61.6350   34.2310   47.5630 O   0  0  0  0  0  0  0  0  0  0  0  0
   60.3540   34.5080   47.0760 C   0  0  0  0  0  0  0  0  0  0  0  0
   59.8930   35.6800   47.1380 O   0  0  0  0  0  0  0  0  0  0  0  0
   59.5750   33.4200   46.4540 C   0  0  0  0  0  0  0  0  0  0  0  0
   58.1450   33.7070   45.5980 S   0  0  0  0  0  0  0  0  0  0  0  0
   57.8200   32.0940   45.3150 C   0  0  0  0  0  0  0  0  0  0  0  0
   56.7490   31.5970   44.6610 N   0  0  0  0  0  0  0  0  0  0  0  0
   56.6040   30.2510   44.5350 C   0  0  0  0  0  0  0  0  0  0  0  0
   55.3040   29.6930   43.6980 S   0  0  0  0  0  0  0  0  0  0  0  0
   57.5390   29.3960   45.0870 N   0  0  0  0  0  0  0  0  0  0  0  0
   57.3870   27.9660   44.9780 C   0  0  0  0  0  0  0  0  0  0  0  0
   56.7350   27.2440   45.9900 C   0  0  0  0  0  0  0  0  0  0  0  0
   56.5950   25.8570   45.8840 C   0  0  0  0  0  0  0  0  0  0  0  0
   57.1090   25.1840   44.7720 C   0  0  0  0  0  0  0  0  0  0  0  0
   57.7640   25.8970   43.7640 C   0  0  0  0  0  0  0  0  0  0  0  0
   57.9060   27.2850   43.8660 C   0  0  0  0  0  0  0  0  0  0  0  0
   58.6300   29.8980   45.7600 C   0  0  0  0  0  0  0  0  0  0  0  0
   59.4620   29.1140   46.2940 O   0  0  0  0  0  0  0  0  0  0  0  0
   58.7930   31.2900   45.8670 C   0  0  0  0  0  0  0  0  0  0  0  0
   59.8270   32.0300   46.4930 C   0  0  0  0  0  0  0  0  0  0  0  0
   61.0460   31.4110   47.1210 C   0  0  0  0  0  0  0  0  0  0  0  0
   63.6625   33.2630   48.5045 H   0  0  0  0  0  0  0  0  0  0  0  0
   63.6398   32.1092   47.1279 H   0  0  0  0  0  0  0  0  0  0  0  0
   64.7950   33.4848   47.1279 H   0  0  0  0  0  0  0  0  0  0  0  0
   63.2037   34.9972   46.4541 H   0  0  0  0  0  0  0  0  0  0  0  0
   62.4236   33.5219   45.7879 H   0  0  0  0  0  0  0  0  0  0  0  0
   56.3334   27.7706   46.8683 H   0  0  0  0  0  0  0  0  0  0  0  0
   56.0797   25.2947   46.6767 H   0  0  0  0  0  0  0  0  0  0  0  0
   56.9980   24.0927   44.6902 H   0  0  0  0  0  0  0  0  0  0  0  0
   58.1683   25.3662   42.8895 H   0  0  0  0  0  0  0  0  0  0  0  0
   58.4253   27.8435   43.0733 H   0  0  0  0  0  0  0  0  0  0  0  0
   60.9571   31.4561   48.2165 H   0  0  0  0  0  0  0  0  0  0  0  0
   61.1294   30.3613   46.8028 H   0  0  0  0  0  0  0  0  0  0  0  0
   61.9427   31.9630   46.8028 H   0  0  0  0  0  0  0  0  0  0  0  0
  1  2  1  0
  2  3  1  0
  3  4  1  0
  4  5  2  0
  4  6  1  0
  6  7  1  0
  7  8  1  0
  8  9  1  0
  9 10  1  0
 10 11  2  0
 10 12  1  0
 12 13  1  0
 13 14  2  0
 14 15  1  0
 15 16  2  0
 16 17  1  0
 17 18  2  0
 12 19  1  0
 19 20  2  0
 19 21  1  0
 21 22  1  0
 22 23  1  0
 22  6  2  0
 21  8  2  0
 18 13  1  0
  1 24  1  0
  1 25  1  0
  1 26  1  0
  2 27  1  0
  2 28  1  0
 14 29  1  0
 15 30  1  0
 16 31  1  0
 17 32  1  0
 18 33  1  0
 23 34  1  0
 23 35  1  0
 23 36  1  0
M  CHG  1   9  -1
M  END
>  <UniqueID>  (33) 
29

>  <SMILES>  (33) 
CCOC(=O)c1sc2[n-]c(=S)n(-c3ccccc3)c(=O)c2c1C

>  <Energy>  (33) 
81.95807953995848

>  <Genealogy>  (33) 
CCOC(=O)c1sc2[n-]c(=S)n(-c3ccccc3)c(=O)c2c1C (protonated)
CCOC(=O)c1sc2[n-]c(=S)n(-c3ccccc3)c(=O)c2c1C (3D coordinates assigned)
CCOC(=O)c1sc2[n-]c(=S)n(-c3ccccc3)c(=O)c2c1C (optimized conformer: 81.95807953995848 kcal/mol)

>  <smiles>  (33) 
CCOC(=O)c1sc2[nH]c(=S)n(-c3ccccc3)c(=O)c2c1C

>  <score_type>  (33) 
oracle

>  <origin>  (33) 
adg

>  <m_score__min__energy>  (33) 
-8.6099999999999994

>  <m_primary>  (33) 
energy

$$$$
33:0
     RDKit          3D

 31 32  0  0  0  0  0  0  0  0999 V2000
   58.8910   29.3480   47.0530 C   0  0  0  0  0  0  0  0  0  0  0  0
   57.7290   28.7520   46.4850 O   0  0  0  0  0  0  0  0  0  0  0  0
   57.7440   27.8200   45.4350 C   0  0  0  0  0  0  0  0  0  0  0  0
   57.6920   26.4310   45.6730 C   0  0  0  0  0  0  0  0  0  0  0  0
   57.7100   25.5310   44.6060 C   0  0  0  0  0  0  0  0  0  0  0  0
   57.7680   26.0020   43.2940 C   0  0  0  0  0  0  0  0  0  0  0  0
   57.8180   27.3740   43.0440 C   0  0  0  0  0  0  0  0  0  0  0  0
   57.8220   28.2930   44.1090 C   0  0  0  0  0  0  0  0  0  0  0  0
   57.8450   29.7100   43.8570 N   0  0  0  0  0  0  0  0  0  0  0  0
   56.8230   30.6180   44.2880 C   0  0  0  0  0  0  0  0  0  0  0  0
   55.7560   30.1840   44.8010 O   0  0  0  0  0  0  0  0  0  0  0  0
   57.0380   31.9950   44.1440 O   0  0  0  0  0  0  0  0  0  0  0  0
   57.7790   32.7970   45.0250 C   0  0  0  0  0  0  0  0  0  0  0  0
   57.7410   32.6180   46.4220 C   0  0  0  0  0  0  0  0  0  0  0  0
   58.4880   33.4520   47.2590 C   0  0  0  0  0  0  0  0  0  0  0  0
   59.2680   34.4750   46.7150 C   0  0  0  0  0  0  0  0  0  0  0  0
   59.2960   34.6710   45.3310 C   0  0  0  0  0  0  0  0  0  0  0  0
   58.5480   33.8390   44.4920 C   0  0  0  0  0  0  0  0  0  0  0  0
   58.8221   29.3127   48.1503 H   0  0  0  0  0  0  0  0  0  0  0  0
   59.7841   28.7967   46.7237 H   0  0  0  0  0  0  0  0  0  0  0  0
   58.9643   30.3950   46.7237 H   0  0  0  0  0  0  0  0  0  0  0  0
   57.6370   26.0546   46.7051 H   0  0  0  0  0  0  0  0  0  0  0  0
   57.6784   24.4487   44.8000 H   0  0  0  0  0  0  0  0  0  0  0  0
   57.7743   25.2905   42.4551 H   0  0  0  0  0  0  0  0  0  0  0  0
   57.8545   27.7393   42.0071 H   0  0  0  0  0  0  0  0  0  0  0  0
   58.6050   30.0970   43.2540 H   0  0  0  0  0  0  0  0  0  0  0  0
   57.1214   31.8192   46.8556 H   0  0  0  0  0  0  0  0  0  0  0  0
   58.4615   33.3023   48.3484 H   0  0  0  0  0  0  0  0  0  0  0  0
   59.8599   35.1261   47.3751 H   0  0  0  0  0  0  0  0  0  0  0  0
   59.9063   35.4795   44.9021 H   0  0  0  0  0  0  0  0  0  0  0  0
   58.5638   34.0044   43.4046 H   0  0  0  0  0  0  0  0  0  0  0  0
  1  2  1  0
  2  3  1  0
  3  4  2  0
  4  5  1  0
  5  6  2  0
  6  7  1  0
  7  8  2  0
  8  9  1  0
  9 10  1  0
 10 11  2  0
 10 12  1  0
 12 13  1  0
 13 14  2  0
 14 15  1  0
 15 16  2  0
 16 17  1  0
 17 18  2  0
  8  3  1  0
 18 13  1  0
  1 19  1  0
  1 20  1  0
  1 21  1  0
  4 22  1  0
  5 23  1  0
  6 24  1  0
  7 25  1  0
  9 26  1  0
 14 27  1  0
 15 28  1  0
 16 29  1  0
 17 30  1  0
 18 31  1  0
M  END
>  <UniqueID>  (34) 
30

>  <SMILES>  (34) 
COc1ccccc1NC(=O)Oc1ccccc1

>  <Energy>  (34) 
39.371843528427625

>  <Genealogy>  (34) 
COc1ccccc1NC(=O)Oc1ccccc1 (3D coordinates assigned)
COc1ccccc1NC(=O)Oc1ccccc1 (optimized conformer: 39.371843528427625 kcal/mol)

>  <smiles>  (34) 
COc1ccccc1NC(=O)Oc1ccccc1

>  <score_type>  (34) 
oracle

>  <origin>  (34) 
adg

>  <m_score__min__energy>  (34) 
-6.6699999999999999

>  <m_primary>  (34) 
energy

$$$$
34:0
     RDKit          3D

 35 36  0  0  0  0  0  0  0  0999 V2000
   60.3680   26.8620   47.6600 C   0  0  0  0  0  0  0  0  0  0  0  0
   58.9220   27.2900   47.4300 C   0  0  0  0  0  0  0  0  0  0  0  0
   58.5180   27.0720   45.9910 C   0  0  0  0  0  0  0  0  0  0  0  0
   58.5710   28.1530   45.0940 C   0  0  0  0  0  0  0  0  0  0  0  0
   58.2180   27.9790   43.7550 C   0  0  0  0  0  0  0  0  0  0  0  0
   57.8150   26.7270   43.2950 C   0  0  0  0  0  0  0  0  0  0  0  0
   57.7700   25.6400   44.1690 C   0  0  0  0  0  0  0  0  0  0  0  0
   58.1310   25.7960   45.5220 C   0  0  0  0  0  0  0  0  0  0  0  0
   58.1250   24.6830   46.4310 N   0  0  0  0  0  0  0  0  0  0  0  0
   56.8120   23.5750   46.6580 S   0  0  0  0  0  0  0  0  0  0  0  0
   55.5290   24.3520   46.7370 O   0  0  0  0  0  0  0  0  0  0  0  0
   57.0140   22.8330   47.9490 O   0  0  0  0  0  0  0  0  0  0  0  0
   56.7570   22.4090   45.3370 C   0  0  0  0  0  0  0  0  0  0  0  0
   57.3350   21.1540   45.2830 C   0  0  0  0  0  0  0  0  0  0  0  0
   58.1320   20.4770   46.3520 C   0  0  0  0  0  0  0  0  0  0  0  0
   57.0200   20.5920   44.1000 N   0  0  0  0  0  0  0  0  0  0  0  0
   56.2950   21.4360   43.4290 O   0  0  0  0  0  0  0  0  0  0  0  0
   56.1140   22.5410   44.1180 C   0  0  0  0  0  0  0  0  0  0  0  0
   55.3050   23.7000   43.6410 C   0  0  0  0  0  0  0  0  0  0  0  0
   60.5656   26.8035   48.7405 H   0  0  0  0  0  0  0  0  0  0  0  0
   60.5356   25.8757   47.2027 H   0  0  0  0  0  0  0  0  0  0  0  0
   61.0454   27.5981   47.2027 H   0  0  0  0  0  0  0  0  0  0  0  0
   58.2631   26.6985   48.0827 H   0  0  0  0  0  0  0  0  0  0  0  0
   58.8313   28.3614   47.6621 H   0  0  0  0  0  0  0  0  0  0  0  0
   58.8929   29.1428   45.4499 H   0  0  0  0  0  0  0  0  0  0  0  0
   58.2580   28.8319   43.0615 H   0  0  0  0  0  0  0  0  0  0  0  0
   57.5316   26.5951   42.2403 H   0  0  0  0  0  0  0  0  0  0  0  0
   57.4505   24.6546   43.7991 H   0  0  0  0  0  0  0  0  0  0  0  0
   57.7624   20.7910   47.3393 H   0  0  0  0  0  0  0  0  0  0  0  0
   58.0285   19.3865   46.2515 H   0  0  0  0  0  0  0  0  0  0  0  0
   59.1914   20.7555   46.2515 H   0  0  0  0  0  0  0  0  0  0  0  0
   57.2940   19.6420   43.7650 H   0  0  0  0  0  0  0  0  0  0  0  0
   54.9163   24.2568   44.5064 H   0  0  0  0  0  0  0  0  0  0  0  0
   55.9375   24.3630   43.0324 H   0  0  0  0  0  0  0  0  0  0  0  0
   54.4646   23.3348   43.0324 H   0  0  0  0  0  0  0  0  0  0  0  0
  1  2  1  0
  2  3  1  0
  3  4  2  0
  4  5  1  0
  5  6  2  0
  6  7  1  0
  7  8  2  0
  8  9  1  0
  9 10  1  0
 10 11  2  0
 10 12  2  0
 10 13  1  0
 13 14  1  0
 14 15  1  0
 14 16  2  0
 16 17  1  0
 17 18  1  0
 18 19  1  0
  8  3  1  0
 18 13  2  0
  1 20  1  0
  1 21  1  0
  1 22  1  0
  2 23  1  0
  2 24  1  0
  4 25  1  0
  5 26  1  0
  6 27  1  0
  7 28  1  0
 15 29  1  0
 15 30  1  0
 15 31  1  0
 16 32  1  0
 19 33  1  0
 19 34  1  0
 19 35  1  0
M  CHG  2   9  -1  16   1
M  END
>  <UniqueID>  (35) 
31

>  <SMILES>  (35) 
CCc1ccccc1[N-]S(=O)(=O)c1c(C)[nH+]oc1C

>  <Energy>  (35) 
63.81251974138174

>  <Genealogy>  (35) 
CCc1ccccc1[N-]S(=O)(=O)c1c(C)[nH+]oc1C (protonated)
CCc1ccccc1[N-]S(=O)(=O)c1c(C)[nH+]oc1C (3D coordinates assigned)
CCc1ccccc1[N-]S(=O)(=O)c1c(C)[nH+]oc1C (optimized conformer: 63.81251974138174 kcal/mol)

>  <smiles>  (35) 
CCc1ccccc1NS(=O)(=O)c1c(C)noc1C

>  <score_type>  (35) 
oracle

>  <origin>  (35) 
adg

>  <m_score__min__energy>  (35) 
-7.1500000000000004

>  <m_primary>  (35) 
energy

$$$$
35:0
     RDKit          3D

 49 52  0  0  0  0  0  0  0  0999 V2000
   57.2473   33.3939   45.8485 H   0  0  0  0  0  0  0  0  0  0  0  0
   58.2740   33.3770   46.2430 C   0  0  0  0  0  0  0  0  0  0  0  0
   58.8270   34.5430   46.7970 C   0  0  0  0  0  0  0  0  0  0  0  0
   58.2262   35.4628   46.8511 H   0  0  0  0  0  0  0  0  0  0  0  0
   60.1420   34.5380   47.2810 C   0  0  0  0  0  0  0  0  0  0  0  0
   60.5946   35.4544   47.6877 H   0  0  0  0  0  0  0  0  0  0  0  0
   60.8640   33.3470   47.2360 C   0  0  0  0  0  0  0  0  0  0  0  0
   60.3150   32.1690   46.7380 C   0  0  0  0  0  0  0  0  0  0  0  0
   59.0210   32.1910   46.1890 C   0  0  0  0  0  0  0  0  0  0  0  0
   58.5992   31.2886   45.7225 H   0  0  0  0  0  0  0  0  0  0  0  0
   61.3150   31.0650   46.7410 C   0  0  0  0  0  0  0  0  0  0  0  0
   61.0900   29.8000   46.5170 N   0  0  0  0  0  0  0  0  0  0  0  0
   59.8200   29.1490   46.4000 C   0  0  0  0  0  0  0  0  0  0  0  0
   59.3510   28.3040   47.4180 C   0  0  0  0  0  0  0  0  0  0  0  0
   59.9419   28.1699   48.3361 H   0  0  0  0  0  0  0  0  0  0  0  0
   58.1350   27.6330   47.2670 C   0  0  0  0  0  0  0  0  0  0  0  0
   57.7562   27.0003   48.0833 H   0  0  0  0  0  0  0  0  0  0  0  0
   57.3940   27.7590   46.0850 C   0  0  0  0  0  0  0  0  0  0  0  0
   56.1410   27.0680   45.9820 N   0  0  0  0  0  0  0  0  0  0  0  0
   55.9510   25.6810   45.6770 C   0  0  0  0  0  0  0  0  0  0  0  0
   54.8690   25.1050   45.9680 O   0  0  0  0  0  0  0  0  0  0  0  0
   57.0070   24.9610   45.0250 N   0  0  0  0  0  0  0  0  0  0  0  0
   57.9560   25.4000   45.0230 H   0  0  0  0  0  0  0  0  0  0  0  0
   56.8730   23.6310   44.4950 C   0  0  0  0  0  0  0  0  0  0  0  0
   56.7280   23.4030   43.1150 C   0  0  0  0  0  0  0  0  0  0  0  0
   56.7019   24.2539   42.4184 H   0  0  0  0  0  0  0  0  0  0  0  0
   56.6170   22.0990   42.6260 C   0  0  0  0  0  0  0  0  0  0  0  0
   56.4888   21.9284   41.5469 H   0  0  0  0  0  0  0  0  0  0  0  0
   56.6680   21.0110   43.5000 C   0  0  0  0  0  0  0  0  0  0  0  0
   56.5645   19.9878   43.1097 H   0  0  0  0  0  0  0  0  0  0  0  0
   56.8510   21.2210   44.8750 C   0  0  0  0  0  0  0  0  0  0  0  0
   56.8850   20.0510   45.8230 C   0  0  0  0  0  0  0  0  0  0  0  0
   57.5078   19.2539   45.3910 H   0  0  0  0  0  0  0  0  0  0  0  0
   55.8574   19.6902   45.9774 H   0  0  0  0  0  0  0  0  0  0  0  0
   57.4670   20.4670   47.1700 C   0  0  0  0  0  0  0  0  0  0  0  0
   56.8618   20.0344   47.9803 H   0  0  0  0  0  0  0  0  0  0  0  0
   58.5018   20.1026   47.2506 H   0  0  0  0  0  0  0  0  0  0  0  0
   57.4572   21.5640   47.2506 H   0  0  0  0  0  0  0  0  0  0  0  0
   56.9490   22.5330   45.3660 C   0  0  0  0  0  0  0  0  0  0  0  0
   57.0867   22.7019   46.4442 H   0  0  0  0  0  0  0  0  0  0  0  0
   57.8740   28.5960   45.0600 C   0  0  0  0  0  0  0  0  0  0  0  0
   57.2904   28.7204   44.1359 H   0  0  0  0  0  0  0  0  0  0  0  0
   59.0900   29.2700   45.2120 C   0  0  0  0  0  0  0  0  0  0  0  0
   59.4742   29.8978   44.3945 H   0  0  0  0  0  0  0  0  0  0  0  0
   62.6190   31.5050   47.1240 N   0  0  0  0  0  0  0  0  0  0  0  0
   63.4450   30.8810   47.2640 H   0  0  0  0  0  0  0  0  0  0  0  0
   62.5450   33.1500   47.6230 S   0  0  0  0  0  0  0  0  0  0  0  0
   63.4360   34.0200   46.7830 O   0  0  0  0  0  0  0  0  0  0  0  0
   62.8170   33.2960   49.0930 O   0  0  0  0  0  0  0  0  0  0  0  0
  1  2  1  0
  2  3  2  0
  3  4  1  0
  3  5  1  0
  5  6  1  0
  5  7  2  0
  7  8  1  0
  8  9  2  0
  9 10  1  0
  8 11  1  0
 11 12  2  0
 12 13  1  0
 13 14  2  0
 14 15  1  0
 14 16  1  0
 16 17  1  0
 16 18  2  0
 18 19  1  0
 19 20  1  0
 20 21  2  0
 20 22  1  0
 22 23  1  0
 22 24  1  0
 24 25  2  0
 25 26  1  0
 25 27  1  0
 27 28  1  0
 27 29  2  0
 29 30  1  0
 29 31  1  0
 31 32  1  0
 32 33  1  0
 32 34  1  0
 32 35  1  0
 35 36  1  0
 35 37  1  0
 35 38  1  0
 31 39  2  0
 39 40  1  0
 18 41  1  0
 41 42  1  0
 41 43  2  0
 43 44  1  0
 11 45  1  0
 45 46  1  0
 45 47  1  0
 47 48  2  0
 47 49  2  0
  9  2  1  0
 43 13  1  0
 47  7  1  0
 39 24  1  0
M  CHG  1  19  -1
M  END
>  <UniqueID>  (36) 
32

>  <SMILES>  (36) 
CCc1cccc(NC(=O)[N-]c2ccc(/N=C3/NS(=O)(=O)c4ccccc43)cc2)c1

>  <Energy>  (36) 
91.18208693692235

>  <Genealogy>  (36) 
CCc1cccc(NC(=O)[N-]c2ccc(N=C3NS(=O)(=O)c4ccccc43)cc2)c1 (protonated)
CCc1cccc(NC(=O)[N-]c2ccc(/N=C3/NS(=O)(=O)c4ccccc43)cc2)c1 (cis-trans isomerization)
CCc1cccc(NC(=O)[N-]c2ccc(/N=C3/NS(=O)(=O)c4ccccc43)cc2)c1 (3D coordinates assigned)
CCc1cccc(NC(=O)[N-]c2ccc(/N=C3/NS(=O)(=O)c4ccccc43)cc2)c1 (nonaromatic ring conformer: 91.18208693692235 kcal/mol)

>  <smiles>  (36) 
CCc1cccc(NC(=O)Nc2ccc(N=C3NS(=O)(=O)c4ccccc43)cc2)c1

>  <score_type>  (36) 
oracle

>  <origin>  (36) 
adg

>  <m_score__min__energy>  (36) 
-10.51

>  <m_primary>  (36) 
energy

$$$$
36:0
     RDKit          3D

 39 41  0  0  0  0  0  0  0  0999 V2000
   54.0130   26.5130   46.3890 H   0  0  0  0  0  0  0  0  0  0  0  0
   59.6930   27.6630   45.7640 N   0  0  0  0  0  0  0  0  0  0  0  0
   55.9810   26.7020   45.8910 C   0  0  0  0  0  0  0  0  0  0  0  0
   56.0410   28.0070   45.5490 N   0  0  0  0  0  0  0  0  0  0  0  0
   57.3250   28.4600   45.5120 C   0  0  0  0  0  0  0  0  0  0  0  0
   57.6370   29.8620   45.1460 C   0  0  0  0  0  0  0  0  0  0  0  0
   57.7870   30.8240   46.1560 C   0  0  0  0  0  0  0  0  0  0  0  0
   57.6702   30.5311   47.2098 H   0  0  0  0  0  0  0  0  0  0  0  0
   58.0830   32.1490   45.8350 C   0  0  0  0  0  0  0  0  0  0  0  0
   58.1913   32.8945   46.6365 H   0  0  0  0  0  0  0  0  0  0  0  0
   58.2440   32.5380   44.4910 C   0  0  0  0  0  0  0  0  0  0  0  0
   58.5380   33.8620   44.1300 O   0  0  0  0  0  0  0  0  0  0  0  0
   59.2190   34.7950   44.9630 C   0  0  0  0  0  0  0  0  0  0  0  0
   59.0367   34.5452   46.0186 H   0  0  0  0  0  0  0  0  0  0  0  0
   60.2986   34.7507   44.7569 H   0  0  0  0  0  0  0  0  0  0  0  0
   58.8477   35.8097   44.7569 H   0  0  0  0  0  0  0  0  0  0  0  0
   58.1150   31.5810   43.4740 C   0  0  0  0  0  0  0  0  0  0  0  0
   58.2920   31.9960   42.1440 O   0  0  0  0  0  0  0  0  0  0  0  0
   57.2340   32.3330   41.2530 C   0  0  0  0  0  0  0  0  0  0  0  0
   56.3431   32.6168   41.8324 H   0  0  0  0  0  0  0  0  0  0  0  0
   57.5433   33.1771   40.6191 H   0  0  0  0  0  0  0  0  0  0  0  0
   56.9981   31.4655   40.6191 H   0  0  0  0  0  0  0  0  0  0  0  0
   57.8180   30.2440   43.8060 C   0  0  0  0  0  0  0  0  0  0  0  0
   57.7270   29.4921   43.0083 H   0  0  0  0  0  0  0  0  0  0  0  0
   58.2780   27.4820   45.8190 C   0  0  0  0  0  0  0  0  0  0  0  0
   60.3680   27.9270   46.8090 N   0  0  0  0  0  0  0  0  0  0  0  0
   54.8650   26.0580   45.9930 N   0  0  0  0  0  0  0  0  0  0  0  0
   60.4040   29.2420   47.3750 C   0  0  0  0  0  0  0  0  0  0  0  0
   61.1170   30.2910   46.7620 C   0  0  0  0  0  0  0  0  0  0  0  0
   61.6678   30.1077   45.8276 H   0  0  0  0  0  0  0  0  0  0  0  0
   61.1260   31.5650   47.3390 C   0  0  0  0  0  0  0  0  0  0  0  0
   61.6832   32.3820   46.8573 H   0  0  0  0  0  0  0  0  0  0  0  0
   60.4280   31.8020   48.5270 C   0  0  0  0  0  0  0  0  0  0  0  0
   60.4364   32.8046   48.9795 H   0  0  0  0  0  0  0  0  0  0  0  0
   59.7200   30.7650   49.1390 C   0  0  0  0  0  0  0  0  0  0  0  0
   59.1707   30.9522   50.0735 H   0  0  0  0  0  0  0  0  0  0  0  0
   59.7080   29.4890   48.5660 C   0  0  0  0  0  0  0  0  0  0  0  0
   59.1496   28.6757   49.0525 H   0  0  0  0  0  0  0  0  0  0  0  0
   57.4990   26.0250   46.1540 S   0  0  0  0  0  0  0  0  0  0  0  0
  1  2  1  0
  2  3  2  0
  3  4  1  0
  4  5  1  0
  5  6  1  0
  6  7  2  0
  7  8  1  0
  7  9  1  0
  9 10  1  0
  9 11  2  0
 11 12  1  0
 12 13  1  0
 13 14  1  0
 13 15  1  0
 13 16  1  0
 11 17  1  0
 17 18  1  0
 18 19  1  0
 19 20  1  0
 19 21  1  0
 19 22  1  0
 17 23  2  0
 23 24  1  0
  5 25  2  0
 25 26  1  0
 26 27  2  0
 27 28  1  0
 28 29  2  0
 29 30  1  0
 29 31  1  0
 31 32  1  0
 31 33  2  0
 33 34  1  0
 33 35  1  0
 35 36  1  0
 35 37  2  0
 37 38  1  0
 25 39  1  0
 39  3  1  0
 23  6  1  0
 37 28  1  0
M  CHG  1   4  -1
M  END
>  <UniqueID>  (37) 
33

>  <SMILES>  (37) 
[H]/N=c1/[n-]c(-c2ccc(OC)c(OC)c2)c(/N=N/c2ccccc2)s1

>  <Energy>  (37) 
73.74684355085272

>  <Genealogy>  (37) 
COc1ccc(-c2[n-]c(=N)sc2N=Nc2ccccc2)cc1OC (protonated)
[H]/N=c1/[n-]c(-c2ccc(OC)c(OC)c2)c(/N=N/c2ccccc2)s1 (cis-trans isomerization)
[H]/N=c1/[n-]c(-c2ccc(OC)c(OC)c2)c(/N=N/c2ccccc2)s1 (3D coordinates assigned)
[H]/N=c1/[n-]c(-c2ccc(OC)c(OC)c2)c(/N=N/c2ccccc2)s1 (optimized conformer: 73.74684355085272 kcal/mol)

>  <smiles>  (37) 
COc1ccc(-c2[nH]c(=N)sc2N=Nc2ccccc2)cc1OC

>  <score_type>  (37) 
oracle

>  <origin>  (37) 
adg

>  <m_score__min__energy>  (37) 
-8.6300000000000008

>  <m_primary>  (37) 
energy

$$$$
37:0
     RDKit          3D

 37 39  0  0  0  0  0  0  0  0999 V2000
   57.9030   34.4340   44.8700 C   0  0  0  0  0  0  0  0  0  0  0  0
   57.1140   33.6630   45.7270 C   0  0  0  0  0  0  0  0  0  0  0  0
   57.7020   32.9800   46.7970 C   0  0  0  0  0  0  0  0  0  0  0  0
   59.0870   33.0660   47.0170 C   0  0  0  0  0  0  0  0  0  0  0  0
   59.7090   32.3610   48.1950 C   0  0  0  0  0  0  0  0  0  0  0  0
   60.1840   31.0260   47.8060 N   0  0  0  0  0  0  0  0  0  0  0  0
   59.1110   30.0180   47.8410 C   0  0  0  0  0  0  0  0  0  0  0  0
   59.3290   29.0150   46.7080 C   0  0  0  0  0  0  0  0  0  0  0  0
   58.1210   28.9420   45.8250 C   0  0  0  0  0  0  0  0  0  0  0  0
   57.0150   28.1120   45.9870 C   0  0  0  0  0  0  0  0  0  0  0  0
   56.0770   28.3890   45.0520 N   0  0  0  0  0  0  0  0  0  0  0  0
   56.5750   29.3950   44.3120 C   0  0  0  0  0  0  0  0  0  0  0  0
   55.9580   30.0470   43.2430 C   0  0  0  0  0  0  0  0  0  0  0  0
   56.6530   31.1040   42.6290 C   0  0  0  0  0  0  0  0  0  0  0  0
   57.9340   31.4840   43.0890 C   0  0  0  0  0  0  0  0  0  0  0  0
   58.5320   30.8090   44.1680 C   0  0  0  0  0  0  0  0  0  0  0  0
   57.8180   29.7640   44.7560 C   0  0  0  0  0  0  0  0  0  0  0  0
   59.8740   33.8420   46.1490 C   0  0  0  0  0  0  0  0  0  0  0  0
   59.2830   34.5230   45.0800 C   0  0  0  0  0  0  0  0  0  0  0  0
   57.4389   34.9713   44.0298 H   0  0  0  0  0  0  0  0  0  0  0  0
   56.0290   33.5928   45.5603 H   0  0  0  0  0  0  0  0  0  0  0  0
   57.0774   32.3731   47.4689 H   0  0  0  0  0  0  0  0  0  0  0  0
   60.5589   32.9540   48.5638 H   0  0  0  0  0  0  0  0  0  0  0  0
   58.9506   32.2519   48.9843 H   0  0  0  0  0  0  0  0  0  0  0  0
   60.9330   30.7400   48.4790 H   0  0  0  0  0  0  0  0  0  0  0  0
   59.1309   29.4923   48.8071 H   0  0  0  0  0  0  0  0  0  0  0  0
   58.1355   30.5110   47.7166 H   0  0  0  0  0  0  0  0  0  0  0  0
   60.1958   29.3303   46.1086 H   0  0  0  0  0  0  0  0  0  0  0  0
   59.5079   28.0215   47.1450 H   0  0  0  0  0  0  0  0  0  0  0  0
   56.9175   27.3404   46.7649 H   0  0  0  0  0  0  0  0  0  0  0  0
   55.1470   27.9260   44.9440 H   0  0  0  0  0  0  0  0  0  0  0  0
   54.9605   29.7438   42.8923 H   0  0  0  0  0  0  0  0  0  0  0  0
   56.1959   31.6394   41.7838 H   0  0  0  0  0  0  0  0  0  0  0  0
   58.4667   32.3129   42.6000 H   0  0  0  0  0  0  0  0  0  0  0  0
   59.5284   31.0949   44.5360 H   0  0  0  0  0  0  0  0  0  0  0  0
   60.9596   33.9141   46.3111 H   0  0  0  0  0  0  0  0  0  0  0  0
   59.9039   35.1291   44.4038 H   0  0  0  0  0  0  0  0  0  0  0  0
  1  2  2  0
  2  3  1  0
  3  4  2  0
  4  5  1  0
  5  6  1  0
  6  7  1  0
  7  8  1  0
  8  9  1  0
  9 10  2  0
 10 11  1  0
 11 12  1  0
 12 13  2  0
 13 14  1  0
 14 15  2  0
 15 16  1  0
 16 17  2  0
  4 18  1  0
 18 19  2  0
 19  1  1  0
 17  9  1  0
 17 12  1  0
  1 20  1  0
  2 21  1  0
  3 22  1  0
  5 23  1  0
  5 24  1  0
  6 25  1  0
  7 26  1  0
  7 27  1  0
  8 28  1  0
  8 29  1  0
 10 30  1  0
 11 31  1  0
 13 32  1  0
 14 33  1  0
 15 34  1  0
 16 35  1  0
 18 36  1  0
 19 37  1  0
M  END
>  <UniqueID>  (38) 
34

>  <SMILES>  (38) 
c1ccc(CNCCc2c[nH]c3ccccc23)cc1

>  <Energy>  (38) 
67.7799846154772

>  <Genealogy>  (38) 
c1ccc(CNCCc2c[nH]c3ccccc23)cc1 (3D coordinates assigned)
c1ccc(CNCCc2c[nH]c3ccccc23)cc1 (optimized conformer: 67.7799846154772 kcal/mol)

>  <smiles>  (38) 
c1ccc(CNCCc2c[nH]c3ccccc23)cc1

>  <score_type>  (38) 
oracle

>  <origin>  (38) 
adg

>  <m_score__min__energy>  (38) 
-7.5199999999999996

>  <m_primary>  (38) 
energy

$$$$
38:0
     RDKit          3D

 41 43  0  0  0  0  0  0  0  0999 V2000
   58.2760   27.7570   46.3180 C   0  0  0  0  0  0  0  0  0  0  0  0
   58.5610   28.7560   45.2780 N   0  0  0  0  0  0  0  0  0  0  0  0
   59.9100   28.5790   44.7200 C   0  0  0  0  0  0  0  0  0  0  0  0
   57.5070   28.8470   44.2400 C   0  0  0  0  0  0  0  0  0  0  0  0
   56.8610   30.2360   44.0880 C   0  0  0  0  0  0  0  0  0  0  0  0
   57.0370   30.9970   45.2780 O   0  0  0  0  0  0  0  0  0  0  0  0
   57.7630   32.1930   45.3530 C   0  0  0  0  0  0  0  0  0  0  0  0
   57.2920   33.4200   44.8210 C   0  0  0  0  0  0  0  0  0  0  0  0
   58.0720   34.5930   44.9240 C   0  0  0  0  0  0  0  0  0  0  0  0
   59.3260   34.5660   45.5590 C   0  0  0  0  0  0  0  0  0  0  0  0
   59.7630   33.3490   46.0780 C   0  0  0  0  0  0  0  0  0  0  0  0
   60.9170   33.0090   46.7460 C   0  0  0  0  0  0  0  0  0  0  0  0
   60.8230   31.6490   46.9890 C   0  0  0  0  0  0  0  0  0  0  0  0
   59.6480   31.1540   46.5380 N   0  0  0  0  0  0  0  0  0  0  0  0
   59.0110   32.2010   45.9760 C   0  0  0  0  0  0  0  0  0  0  0  0
   61.8590   30.8750   47.7470 C   0  0  0  0  0  0  0  0  0  0  0  0
   63.2010   31.6340   47.7570 C   0  0  0  0  0  0  0  0  0  0  0  0
   63.0110   33.1280   48.0970 C   0  0  0  0  0  0  0  0  0  0  0  0
   62.1230   33.8420   47.0580 C   0  0  0  0  0  0  0  0  0  0  0  0
   58.4062   28.2134   47.3103 H   0  0  0  0  0  0  0  0  0  0  0  0
   57.2406   27.4014   46.2110 H   0  0  0  0  0  0  0  0  0  0  0  0
   58.9680   26.9086   46.2110 H   0  0  0  0  0  0  0  0  0  0  0  0
   60.6365   28.4837   45.5404 H   0  0  0  0  0  0  0  0  0  0  0  0
   59.9344   27.6700   44.1011 H   0  0  0  0  0  0  0  0  0  0  0  0
   60.1681   29.4510   44.1011 H   0  0  0  0  0  0  0  0  0  0  0  0
   57.9550   28.5716   43.2739 H   0  0  0  0  0  0  0  0  0  0  0  0
   56.7028   28.1674   44.5584 H   0  0  0  0  0  0  0  0  0  0  0  0
   57.3321   30.7649   43.2464 H   0  0  0  0  0  0  0  0  0  0  0  0
   55.7844   30.1107   43.9001 H   0  0  0  0  0  0  0  0  0  0  0  0
   56.3114   33.4587   44.3241 H   0  0  0  0  0  0  0  0  0  0  0  0
   57.6947   35.5367   44.5033 H   0  0  0  0  0  0  0  0  0  0  0  0
   59.9409   35.4742   45.6432 H   0  0  0  0  0  0  0  0  0  0  0  0
   59.3090   30.1680   46.6130 H   0  0  0  0  0  0  0  0  0  0  0  0
   61.5171   30.7307   48.7825 H   0  0  0  0  0  0  0  0  0  0  0  0
   62.0049   29.9014   47.2563 H   0  0  0  0  0  0  0  0  0  0  0  0
   63.8622   31.1788   48.5091 H   0  0  0  0  0  0  0  0  0  0  0  0
   63.6408   31.5650   46.7511 H   0  0  0  0  0  0  0  0  0  0  0  0
   62.5382   33.2108   49.0868 H   0  0  0  0  0  0  0  0  0  0  0  0
   64.0002   33.6092   48.0905 H   0  0  0  0  0  0  0  0  0  0  0  0
   61.7993   34.8123   47.4626 H   0  0  0  0  0  0  0  0  0  0  0  0
   62.7023   33.9935   46.1352 H   0  0  0  0  0  0  0  0  0  0  0  0
  1  2  1  0
  2  3  1  0
  2  4  1  0
  4  5  1  0
  5  6  1  0
  6  7  1  0
  7  8  2  0
  8  9  1  0
  9 10  2  0
 10 11  1  0
 11 12  1  0
 12 13  2  0
 13 14  1  0
 14 15  1  0
 13 16  1  0
 16 17  1  0
 17 18  1  0
 18 19  1  0
 15  7  1  0
 15 11  2  0
 19 12  1  0
  1 20  1  0
  1 21  1  0
  1 22  1  0
  3 23  1  0
  3 24  1  0
  3 25  1  0
  4 26  1  0
  4 27  1  0
  5 28  1  0
  5 29  1  0
  8 30  1  0
  9 31  1  0
 10 32  1  0
 14 33  1  0
 16 34  1  0
 16 35  1  0
 17 36  1  0
 17 37  1  0
 18 38  1  0
 18 39  1  0
 19 40  1  0
 19 41  1  0
M  END
>  <UniqueID>  (39) 
35

>  <SMILES>  (39) 
CN(C)CCOc1cccc2c3c([nH]c12)CCCC3

>  <Energy>  (39) 
75.05347027429708

>  <Genealogy>  (39) 
CN(C)CCOc1cccc2c3c([nH]c12)CCCC3 (3D coordinates assigned)
CN(C)CCOc1cccc2c3c([nH]c12)CCCC3 (nonaromatic ring conformer: 75.05347027429708 kcal/mol)

>  <smiles>  (39) 
CN(C)CCOc1cccc2c3c([nH]c12)CCCC3

>  <score_type>  (39) 
oracle

>  <origin>  (39) 
adg

>  <m_score__min__energy>  (39) 
-7.1200000000000001

>  <m_primary>  (39) 
energy

$$$$
39:0
     RDKit          3D

 25 27  0  0  0  0  0  0  0  0999 V2000
   59.9900   34.9610   49.0780 F   0  0  0  0  0  0  0  0  0  0  0  0
   59.5950   34.5130   47.8620 C   0  0  0  0  0  0  0  0  0  0  0  0
   59.6670   35.3540   46.7490 C   0  0  0  0  0  0  0  0  0  0  0  0
   59.2660   34.8910   45.4940 C   0  0  0  0  0  0  0  0  0  0  0  0
   58.7850   33.5810   45.3460 C   0  0  0  0  0  0  0  0  0  0  0  0
   58.7080   32.7330   46.4610 C   0  0  0  0  0  0  0  0  0  0  0  0
   59.1210   33.2050   47.7180 C   0  0  0  0  0  0  0  0  0  0  0  0
   58.2450   31.3030   46.3230 C   0  0  0  0  0  0  0  0  0  0  0  0
   57.6720   30.9710   45.0050 N   0  0  0  0  0  0  0  0  0  0  0  0
   57.0860   29.7420   44.8640 C   0  0  0  0  0  0  0  0  0  0  0  0
   56.5620   29.3350   43.6360 C   0  0  0  0  0  0  0  0  0  0  0  0
   56.6450   30.1860   42.5410 C   0  0  0  0  0  0  0  0  0  0  0  0
   57.2470   31.4340   42.6820 C   0  0  0  0  0  0  0  0  0  0  0  0
   57.7620   31.8200   43.9280 C   0  0  0  0  0  0  0  0  0  0  0  0
   58.3620   33.1120   44.0670 N   0  0  0  0  0  0  0  0  0  0  0  0
   60.0402   36.3827   46.8613 H   0  0  0  0  0  0  0  0  0  0  0  0
   59.3273   35.5549   44.6191 H   0  0  0  0  0  0  0  0  0  0  0  0
   59.0713   32.5419   48.5943 H   0  0  0  0  0  0  0  0  0  0  0  0
   59.1079   30.6438   46.4986 H   0  0  0  0  0  0  0  0  0  0  0  0
   57.4399   31.1620   47.0591 H   0  0  0  0  0  0  0  0  0  0  0  0
   57.0273   29.0662   45.7299 H   0  0  0  0  0  0  0  0  0  0  0  0
   56.0869   28.3479   43.5360 H   0  0  0  0  0  0  0  0  0  0  0  0
   56.2373   29.8757   41.5676 H   0  0  0  0  0  0  0  0  0  0  0  0
   57.3182   32.1137   41.8201 H   0  0  0  0  0  0  0  0  0  0  0  0
   58.4440   33.7380   43.2340 H   0  0  0  0  0  0  0  0  0  0  0  0
  1  2  1  0
  2  3  2  0
  3  4  1  0
  4  5  2  0
  5  6  1  0
  6  7  2  0
  6  8  1  0
  8  9  1  0
  9 10  2  0
 10 11  1  0
 11 12  2  0
 12 13  1  0
 13 14  2  0
 14 15  1  0
  7  2  1  0
 14  9  1  0
 15  5  1  0
  3 16  1  0
  4 17  1  0
  7 18  1  0
  8 19  1  0
  8 20  1  0
 10 21  1  0
 11 22  1  0
 12 23  1  0
 13 24  1  0
 15 25  1  0
M  CHG  1   9   1
M  END
>  <UniqueID>  (40) 
36

>  <SMILES>  (40) 
Fc1ccc2c(c1)C[n+]1ccccc1N2

>  <Energy>  (40) 
31.427861612945065

>  <Genealogy>  (40) 
Fc1ccc2c(c1)C[n+]1ccccc1N2 (3D coordinates assigned)
Fc1ccc2c(c1)C[n+]1ccccc1N2 (nonaromatic ring conformer: 31.427861612945065 kcal/mol)

>  <smiles>  (40) 
Fc1ccc2c(c1)C[n+]1ccccc1N2

>  <score_type>  (40) 
oracle

>  <origin>  (40) 
adg

>  <m_score__min__energy>  (40) 
-4.2300000000000004

>  <m_primary>  (40) 
energy

$$$$
40:0
     RDKit          3D

 51 53  0  0  0  0  0  0  0  0999 V2000
   67.1390   31.5910   50.8320 C   0  0  0  0  0  0  0  0  0  0  0  0
   65.8540   32.0960   51.1870 O   0  0  0  0  0  0  0  0  0  0  0  0
   64.7750   32.2120   50.2990 C   0  0  0  0  0  0  0  0  0  0  0  0
   63.5840   31.4740   50.4560 C   0  0  0  0  0  0  0  0  0  0  0  0
   62.5420   31.6170   49.5340 C   0  0  0  0  0  0  0  0  0  0  0  0
   62.6660   32.5030   48.4510 C   0  0  0  0  0  0  0  0  0  0  0  0
   61.6430   32.6150   47.4500 N   0  0  0  0  0  0  0  0  0  0  0  0
   60.5110   33.5020   47.5320 C   0  0  0  0  0  0  0  0  0  0  0  0
   60.5070   34.4660   48.3480 O   0  0  0  0  0  0  0  0  0  0  0  0
   59.3860   33.3350   46.5890 C   0  0  0  0  0  0  0  0  0  0  0  0
   58.9190   34.4190   45.8300 C   0  0  0  0  0  0  0  0  0  0  0  0
   57.9340   34.2200   44.8630 C   0  0  0  0  0  0  0  0  0  0  0  0
   57.4130   32.9420   44.6370 C   0  0  0  0  0  0  0  0  0  0  0  0
   57.8600   31.8480   45.3950 C   0  0  0  0  0  0  0  0  0  0  0  0
   57.3060   30.4910   45.1450 C   0  0  0  0  0  0  0  0  0  0  0  0
   56.2230   30.3790   44.5060 O   0  0  0  0  0  0  0  0  0  0  0  0
   57.9300   29.2970   45.6540 N   0  0  0  0  0  0  0  0  0  0  0  0
   57.6950   27.9590   45.1940 C   0  0  0  0  0  0  0  0  0  0  0  0
   57.9790   27.5760   43.8760 C   0  0  0  0  0  0  0  0  0  0  0  0
   57.8280   26.2440   43.4800 C   0  0  0  0  0  0  0  0  0  0  0  0
   57.3810   25.2660   44.3940 C   0  0  0  0  0  0  0  0  0  0  0  0
   57.2820   23.8710   44.0070 N   0  0  0  0  0  0  0  0  0  0  0  0
   56.2560   23.4290   43.0500 C   0  0  0  0  0  0  0  0  0  0  0  0
   58.2010   22.8720   44.5710 C   0  0  0  0  0  0  0  0  0  0  0  0
   57.0450   25.6780   45.7000 C   0  0  0  0  0  0  0  0  0  0  0  0
   57.1930   27.0120   46.0900 C   0  0  0  0  0  0  0  0  0  0  0  0
   58.8210   32.0670   46.3960 C   0  0  0  0  0  0  0  0  0  0  0  0
   63.8550   33.2320   48.2960 C   0  0  0  0  0  0  0  0  0  0  0  0
   64.8960   33.0900   49.2150 C   0  0  0  0  0  0  0  0  0  0  0  0
   67.7099   31.3667   51.7451 H   0  0  0  0  0  0  0  0  0  0  0  0
   67.0208   30.6724   50.2385 H   0  0  0  0  0  0  0  0  0  0  0  0
   67.6778   32.3443   50.2385 H   0  0  0  0  0  0  0  0  0  0  0  0
   63.4740   30.7841   51.3057 H   0  0  0  0  0  0  0  0  0  0  0  0
   61.6190   31.0316   49.6578 H   0  0  0  0  0  0  0  0  0  0  0  0
   61.7850   32.0890   46.5560 H   0  0  0  0  0  0  0  0  0  0  0  0
   59.3298   35.4255   45.9977 H   0  0  0  0  0  0  0  0  0  0  0  0
   57.5648   35.0730   44.2747 H   0  0  0  0  0  0  0  0  0  0  0  0
   56.6482   32.7930   43.8605 H   0  0  0  0  0  0  0  0  0  0  0  0
   58.3224   28.3273   43.1497 H   0  0  0  0  0  0  0  0  0  0  0  0
   58.0602   25.9548   42.4444 H   0  0  0  0  0  0  0  0  0  0  0  0
   55.3806   23.0519   43.5991 H   0  0  0  0  0  0  0  0  0  0  0  0
   55.9547   24.2772   42.4176 H   0  0  0  0  0  0  0  0  0  0  0  0
   56.6654   22.6274   42.4176 H   0  0  0  0  0  0  0  0  0  0  0  0
   58.1608   22.9157   45.6694 H   0  0  0  0  0  0  0  0  0  0  0  0
   57.9039   21.8683   44.2328 H   0  0  0  0  0  0  0  0  0  0  0  0
   59.2259   23.0844   44.2328 H   0  0  0  0  0  0  0  0  0  0  0  0
   56.6617   24.9406   46.4206 H   0  0  0  0  0  0  0  0  0  0  0  0
   56.9125   27.3181   47.1086 H   0  0  0  0  0  0  0  0  0  0  0  0
   59.1348   31.2307   47.0380 H   0  0  0  0  0  0  0  0  0  0  0  0
   63.9674   33.9197   47.4449 H   0  0  0  0  0  0  0  0  0  0  0  0
   65.8198   33.6731   49.0865 H   0  0  0  0  0  0  0  0  0  0  0  0
  1  2  1  0
  2  3  1  0
  3  4  2  0
  4  5  1  0
  5  6  2  0
  6  7  1  0
  7  8  1  0
  8  9  2  0
  8 10  1  0
 10 11  2  0
 11 12  1  0
 12 13  2  0
 13 14  1  0
 14 15  1  0
 15 16  2  0
 15 17  1  0
 17 18  1  0
 18 19  2  0
 19 20  1  0
 20 21  2  0
 21 22  1  0
 22 23  1  0
 22 24  1  0
 21 25  1  0
 25 26  2  0
 14 27  2  0
  6 28  1  0
 28 29  2  0
 29  3  1  0
 27 10  1  0
 26 18  1  0
  1 30  1  0
  1 31  1  0
  1 32  1  0
  4 33  1  0
  5 34  1  0
  7 35  1  0
 11 36  1  0
 12 37  1  0
 13 38  1  0
 19 39  1  0
 20 40  1  0
 23 41  1  0
 23 42  1  0
 23 43  1  0
 24 44  1  0
 24 45  1  0
 24 46  1  0
 25 47  1  0
 26 48  1  0
 27 49  1  0
 28 50  1  0
 29 51  1  0
M  CHG  1  17  -1
M  END
>  <UniqueID>  (41) 
37

>  <SMILES>  (41) 
COc1ccc(NC(=O)c2cccc(C(=O)[N-]c3ccc(N(C)C)cc3)c2)cc1

>  <Energy>  (41) 
65.0022898898735

>  <Genealogy>  (41) 
COc1ccc(NC(=O)c2cccc(C(=O)[N-]c3ccc(N(C)C)cc3)c2)cc1 (protonated)
COc1ccc(NC(=O)c2cccc(C(=O)[N-]c3ccc(N(C)C)cc3)c2)cc1 (3D coordinates assigned)
COc1ccc(NC(=O)c2cccc(C(=O)[N-]c3ccc(N(C)C)cc3)c2)cc1 (optimized conformer: 65.0022898898735 kcal/mol)

>  <smiles>  (41) 
COc1ccc(NC(=O)c2cccc(C(=O)Nc3ccc(N(C)C)cc3)c2)cc1

>  <score_type>  (41) 
oracle

>  <origin>  (41) 
adg

>  <m_score__min__energy>  (41) 
-9.8499999999999996

>  <m_primary>  (41) 
energy

$$$$
41:0
     RDKit          3D

 27 29  0  0  0  0  0  0  0  0999 V2000
   61.7140   33.5350   46.9780 C   0  0  0  0  0  0  0  0  0  0  0  0
   60.4470   34.1440   47.6000 C   0  0  1  0  0  0  0  0  0  0  0  0
   59.9190   35.3290   46.7690 C   0  0  0  0  0  0  0  0  0  0  0  0
   59.2960   34.8760   45.4780 C   0  0  0  0  0  0  0  0  0  0  0  0
   59.2690   35.6680   44.4970 O   0  0  0  0  0  0  0  0  0  0  0  0
   58.6740   33.5350   45.3750 C   0  0  0  0  0  0  0  0  0  0  0  0
   58.0520   33.1200   44.1750 C   0  0  0  0  0  0  0  0  0  0  0  0
   57.4950   31.8470   44.1330 C   0  0  0  0  0  0  0  0  0  0  0  0
   57.5320   31.0100   45.1970 C   0  0  0  0  0  0  0  0  0  0  0  0
   58.1330   31.3680   46.3990 C   0  0  0  0  0  0  0  0  0  0  0  0
   58.7280   32.6450   46.4900 C   0  0  0  0  0  0  0  0  0  0  0  0
   59.3450   33.0830   47.7960 C   0  0  0  0  0  0  0  0  0  0  0  0
   56.9010   29.8240   44.8730 O   0  0  0  0  0  0  0  0  0  0  0  0
   56.4390   29.9240   43.5180 C   0  0  0  0  0  0  0  0  0  0  0  0
   56.8390   31.2310   43.0840 O   0  0  0  0  0  0  0  0  0  0  0  0
   62.3944   33.2079   47.7780 H   0  0  0  0  0  0  0  0  0  0  0  0
   61.4380   32.6711   46.3554 H   0  0  0  0  0  0  0  0  0  0  0  0
   62.2162   34.2901   46.3554 H   0  0  0  0  0  0  0  0  0  0  0  0
   60.7299   34.5264   48.5918 H   0  0  0  0  0  0  0  0  0  0  0  0
   59.1628   35.8678   47.3588 H   0  0  0  0  0  0  0  0  0  0  0  0
   60.7711   35.9807   46.5257 H   0  0  0  0  0  0  0  0  0  0  0  0
   58.0100   33.7852   43.2999 H   0  0  0  0  0  0  0  0  0  0  0  0
   58.1444   30.6761   47.2541 H   0  0  0  0  0  0  0  0  0  0  0  0
   58.5561   33.5071   48.4346 H   0  0  0  0  0  0  0  0  0  0  0  0
   59.8087   32.2001   48.2602 H   0  0  0  0  0  0  0  0  0  0  0  0
   56.9061   29.1492   42.8923 H   0  0  0  0  0  0  0  0  0  0  0  0
   55.3514   29.7783   43.4409 H   0  0  0  0  0  0  0  0  0  0  0  0
  1  2  1  0
  2  3  1  0
  3  4  1  0
  4  5  2  0
  4  6  1  0
  6  7  2  0
  7  8  1  0
  8  9  2  0
  9 10  1  0
 10 11  2  0
 11 12  1  0
  9 13  1  0
 13 14  1  0
 14 15  1  0
 12  2  1  0
 11  6  1  0
 15  8  1  0
  1 16  1  0
  1 17  1  0
  1 18  1  0
  2 19  1  1
  3 20  1  0
  3 21  1  0
  7 22  1  0
 10 23  1  0
 12 24  1  0
 12 25  1  0
 14 26  1  0
 14 27  1  0
M  END
>  <UniqueID>  (42) 
38

>  <SMILES>  (42) 
C[C@H]1CC(=O)c2cc3c(cc2C1)OCO3

>  <Energy>  (42) 
54.992378311445584

>  <Genealogy>  (42) 
C[C@H]1CC(=O)c2cc3c(cc2C1)OCO3 (chirality)
C[C@H]1CC(=O)c2cc3c(cc2C1)OCO3 (3D coordinates assigned)
C[C@H]1CC(=O)c2cc3c(cc2C1)OCO3 (nonaromatic ring conformer: 54.992378311445584 kcal/mol)

>  <smiles>  (42) 
CC1CC(=O)c2cc3c(cc2C1)OCO3

>  <score_type>  (42) 
oracle

>  <origin>  (42) 
adg

>  <m_score__min__energy>  (42) 
-6.0499999999999998

>  <m_primary>  (42) 
energy

$$$$
42:0
     RDKit          3D

 44 46  0  0  0  0  0  0  0  0999 V2000
   57.3835   34.8805   45.4274 H   0  0  0  0  0  0  0  0  0  0  0  0
   58.0450   34.0020   45.4010 C   0  0  0  0  0  0  0  0  0  0  0  0
   57.8200   33.0990   44.4890 N   0  0  0  0  0  0  0  0  0  0  0  0
   57.7140   31.6780   44.6780 C   0  0  0  0  0  0  0  0  0  0  0  0
   58.8630   30.9470   44.9950 C   0  0  0  0  0  0  0  0  0  0  0  0
   59.8267   31.4650   45.1089 H   0  0  0  0  0  0  0  0  0  0  0  0
   58.7940   29.5620   45.1680 C   0  0  0  0  0  0  0  0  0  0  0  0
   59.7011   28.9991   45.4331 H   0  0  0  0  0  0  0  0  0  0  0  0
   57.5760   28.8840   45.0060 C   0  0  0  0  0  0  0  0  0  0  0  0
   57.5240   27.4580   45.1870 N   0  0  0  0  0  0  0  0  0  0  0  0
   58.1520   26.5680   44.2060 C   0  0  0  0  0  0  0  0  0  0  0  0
   58.1635   27.0577   43.2211 H   0  0  0  0  0  0  0  0  0  0  0  0
   59.1836   26.3479   44.5179 H   0  0  0  0  0  0  0  0  0  0  0  0
   57.3550   25.2620   44.1180 C   0  0  0  0  0  0  0  0  0  0  0  0
   56.3694   25.4701   43.6760 H   0  0  0  0  0  0  0  0  0  0  0  0
   57.9130   24.5501   43.4920 H   0  0  0  0  0  0  0  0  0  0  0  0
   57.1770   24.6940   45.4020 O   0  0  0  0  0  0  0  0  0  0  0  0
   56.3800   25.5480   46.2010 C   0  0  0  0  0  0  0  0  0  0  0  0
   55.4315   25.7471   45.6807 H   0  0  0  0  0  0  0  0  0  0  0  0
   56.1915   25.0538   47.1655 H   0  0  0  0  0  0  0  0  0  0  0  0
   57.0980   26.8760   46.4620 C   0  0  0  0  0  0  0  0  0  0  0  0
   56.4128   27.5697   46.9713 H   0  0  0  0  0  0  0  0  0  0  0  0
   57.9784   26.6989   47.0973 H   0  0  0  0  0  0  0  0  0  0  0  0
   56.4260   29.6150   44.6510 C   0  0  0  0  0  0  0  0  0  0  0  0
   55.2300   28.9930   44.4950 F   0  0  0  0  0  0  0  0  0  0  0  0
   56.5000   31.0000   44.4770 C   0  0  0  0  0  0  0  0  0  0  0  0
   55.6023   31.5625   44.1809 H   0  0  0  0  0  0  0  0  0  0  0  0
   59.1310   33.9250   46.4040 C   0  0  0  0  0  0  0  0  0  0  0  0
   60.4640   33.9350   45.9710 C   0  0  0  0  0  0  0  0  0  0  0  0
   60.6879   34.0125   44.8968 H   0  0  0  0  0  0  0  0  0  0  0  0
   61.5150   33.8470   46.8960 C   0  0  0  0  0  0  0  0  0  0  0  0
   62.9380   33.8260   46.4220 C   0  0  0  0  0  0  0  0  0  0  0  0
   63.6135   33.8160   47.2901 H   0  0  0  0  0  0  0  0  0  0  0  0
   63.1087   32.9252   45.8142 H   0  0  0  0  0  0  0  0  0  0  0  0
   63.1353   34.7213   45.8142 H   0  0  0  0  0  0  0  0  0  0  0  0
   61.2240   33.7050   48.2610 C   0  0  0  0  0  0  0  0  0  0  0  0
   62.0447   33.6102   48.9873 H   0  0  0  0  0  0  0  0  0  0  0  0
   59.8950   33.6830   48.7060 C   0  0  0  0  0  0  0  0  0  0  0  0
   59.5850   33.4920   50.1610 C   0  0  0  0  0  0  0  0  0  0  0  0
   60.3658   33.9730   50.7685 H   0  0  0  0  0  0  0  0  0  0  0  0
   58.6098   33.9461   50.3908 H   0  0  0  0  0  0  0  0  0  0  0  0
   59.5521   32.4168   50.3908 H   0  0  0  0  0  0  0  0  0  0  0  0
   58.8530   33.7660   47.7730 C   0  0  0  0  0  0  0  0  0  0  0  0
   57.8090   33.7063   48.1144 H   0  0  0  0  0  0  0  0  0  0  0  0
  1  2  1  0
  2  3  2  0
  3  4  1  0
  4  5  2  0
  5  6  1  0
  5  7  1  0
  7  8  1  0
  7  9  2  0
  9 10  1  0
 10 11  1  0
 11 12  1  0
 11 13  1  0
 11 14  1  0
 14 15  1  0
 14 16  1  0
 14 17  1  0
 17 18  1  0
 18 19  1  0
 18 20  1  0
 18 21  1  0
 21 22  1  0
 21 23  1  0
  9 24  1  0
 24 25  1  0
 24 26  2  0
 26 27  1  0
  2 28  1  0
 28 29  2  0
 29 30  1  0
 29 31  1  0
 31 32  1  0
 32 33  1  0
 32 34  1  0
 32 35  1  0
 31 36  2  0
 36 37  1  0
 36 38  1  0
 38 39  1  0
 39 40  1  0
 39 41  1  0
 39 42  1  0
 38 43  2  0
 43 44  1  0
 26  4  1  0
 43 28  1  0
 21 10  1  0
M  END
>  <UniqueID>  (43) 
39

>  <SMILES>  (43) 
Cc1cc(C)cc(/C=N\c2ccc(N3CCOCC3)c(F)c2)c1

>  <Energy>  (43) 
60.40094309472889

>  <Genealogy>  (43) 
Cc1cc(C)cc(/C=N\c2ccc(N3CCOCC3)c(F)c2)c1 (cis-trans isomerization)
Cc1cc(C)cc(/C=N\c2ccc(N3CCOCC3)c(F)c2)c1 (3D coordinates assigned)
Cc1cc(C)cc(/C=N\c2ccc(N3CCOCC3)c(F)c2)c1 (nonaromatic ring conformer: 60.40094309472889 kcal/mol)

>  <smiles>  (43) 
Cc1cc(C)cc(C=Nc2ccc(N3CCOCC3)c(F)c2)c1

>  <score_type>  (43) 
oracle

>  <origin>  (43) 
adg

>  <m_score__min__energy>  (43) 
-7.5099999999999998

>  <m_primary>  (43) 
energy

$$$$
43:0
     RDKit          3D

 43 45  0  0  0  0  0  0  0  0999 V2000
   62.6420   33.8670   48.7330 C   0  0  0  0  0  0  0  0  0  0  0  0
   61.8400   32.6460   48.3970 C   0  0  0  0  0  0  0  0  0  0  0  0
   61.9610   32.0470   47.1160 C   0  0  0  0  0  0  0  0  0  0  0  0
   61.1880   30.9210   46.7730 C   0  0  0  0  0  0  0  0  0  0  0  0
   60.2950   30.4340   47.7270 C   0  0  0  0  0  0  0  0  0  0  0  0
   60.1690   31.0150   48.9550 C   0  0  0  0  0  0  0  0  0  0  0  0
   59.2210   30.2720   49.6250 C   0  0  0  0  0  0  0  0  0  0  0  0
   58.8050   29.2750   48.8070 N   0  0  0  0  0  0  0  0  0  0  0  0
   59.4540   29.3850   47.6520 N   0  0  0  0  0  0  0  0  0  0  0  0
   59.2990   28.4470   46.5420 C   0  0  0  0  0  0  0  0  0  0  0  0
   57.8170   28.3120   46.1680 C   0  0  0  0  0  0  0  0  0  0  0  0
   57.5110   28.8920   44.7830 C   0  0  0  0  0  0  0  0  0  0  0  0
   56.3280   29.8110   44.8140 C   0  0  0  0  0  0  0  0  0  0  0  0
   55.1640   29.3310   44.8710 O   0  0  0  0  0  0  0  0  0  0  0  0
   56.5310   31.2280   44.8190 N   0  0  0  0  0  0  0  0  0  0  0  0
   57.7120   31.8760   44.2610 C   0  0  0  0  0  0  0  0  0  0  0  0
   58.2650   32.8820   45.2330 C   0  0  0  0  0  0  0  0  0  0  0  0
   57.9970   32.7710   46.6080 C   0  0  0  0  0  0  0  0  0  0  0  0
   58.4980   33.7240   47.5010 C   0  0  0  0  0  0  0  0  0  0  0  0
   59.2650   34.7920   47.0300 C   0  0  0  0  0  0  0  0  0  0  0  0
   59.5320   34.9120   45.6630 C   0  0  0  0  0  0  0  0  0  0  0  0
   59.0330   33.9620   44.7650 C   0  0  0  0  0  0  0  0  0  0  0  0
   60.9160   32.1270   49.3310 C   0  0  0  0  0  0  0  0  0  0  0  0
   62.7105   33.9714   49.8259 H   0  0  0  0  0  0  0  0  0  0  0  0
   63.6527   33.7697   48.3098 H   0  0  0  0  0  0  0  0  0  0  0  0
   62.1513   34.7559   48.3098 H   0  0  0  0  0  0  0  0  0  0  0  0
   62.6660   32.4667   46.3834 H   0  0  0  0  0  0  0  0  0  0  0  0
   61.2851   30.4425   45.7873 H   0  0  0  0  0  0  0  0  0  0  0  0
   58.8633   30.4568   50.6487 H   0  0  0  0  0  0  0  0  0  0  0  0
   59.8614   28.8169   45.6720 H   0  0  0  0  0  0  0  0  0  0  0  0
   59.6844   27.4627   46.8463 H   0  0  0  0  0  0  0  0  0  0  0  0
   57.5469   27.2457   46.1724 H   0  0  0  0  0  0  0  0  0  0  0  0
   57.2308   28.8783   46.9067 H   0  0  0  0  0  0  0  0  0  0  0  0
   58.3888   29.4532   44.4301 H   0  0  0  0  0  0  0  0  0  0  0  0
   57.2777   28.0568   44.1063 H   0  0  0  0  0  0  0  0  0  0  0  0
   58.4782   31.1151   44.0513 H   0  0  0  0  0  0  0  0  0  0  0  0
   57.4303   32.3938   43.3323 H   0  0  0  0  0  0  0  0  0  0  0  0
   57.3917   31.9326   46.9830 H   0  0  0  0  0  0  0  0  0  0  0  0
   58.2874   33.6321   48.5767 H   0  0  0  0  0  0  0  0  0  0  0  0
   59.6591   35.5389   47.7349 H   0  0  0  0  0  0  0  0  0  0  0  0
   60.1351   35.7542   45.2929 H   0  0  0  0  0  0  0  0  0  0  0  0
   59.2424   34.0608   43.6896 H   0  0  0  0  0  0  0  0  0  0  0  0
   60.7912   32.5867   50.3225 H   0  0  0  0  0  0  0  0  0  0  0  0
  1  2  1  0
  2  3  2  0
  3  4  1  0
  4  5  2  0
  5  6  1  0
  6  7  1  0
  7  8  2  0
  8  9  1  0
  9 10  1  0
 10 11  1  0
 11 12  1  0
 12 13  1  0
 13 14  2  0
 13 15  1  0
 15 16  1  0
 16 17  1  0
 17 18  2  0
 18 19  1  0
 19 20  2  0
 20 21  1  0
 21 22  2  0
  6 23  2  0
 23  2  1  0
  9  5  1  0
 22 17  1  0
  1 24  1  0
  1 25  1  0
  1 26  1  0
  3 27  1  0
  4 28  1  0
  7 29  1  0
 10 30  1  0
 10 31  1  0
 11 32  1  0
 11 33  1  0
 12 34  1  0
 12 35  1  0
 16 36  1  0
 16 37  1  0
 18 38  1  0
 19 39  1  0
 20 40  1  0
 21 41  1  0
 22 42  1  0
 23 43  1  0
M  CHG  1  15  -1
M  END
>  <UniqueID>  (44) 
40

>  <SMILES>  (44) 
Cc1ccc2c(cnn2CCCC(=O)[N-]Cc2ccccc2)c1

>  <Energy>  (44) 
74.7598499537965

>  <Genealogy>  (44) 
Cc1ccc2c(cnn2CCCC(=O)[N-]Cc2ccccc2)c1 (protonated)
Cc1ccc2c(cnn2CCCC(=O)[N-]Cc2ccccc2)c1 (3D coordinates assigned)
Cc1ccc2c(cnn2CCCC(=O)[N-]Cc2ccccc2)c1 (optimized conformer: 74.7598499537965 kcal/mol)

>  <smiles>  (44) 
Cc1ccc2c(cnn2CCCC(=O)NCc2ccccc2)c1

>  <score_type>  (44) 
oracle

>  <origin>  (44) 
adg

>  <m_score__min__energy>  (44) 
-10.199999999999999

>  <m_primary>  (44) 
energy

$$$$
44:0
     RDKit          3D

 40 41  0  0  0  0  0  0  0  0999 V2000
   64.7370   32.5840   49.6530 C   0  0  0  0  0  0  0  0  0  0  0  0
   64.3820   32.9930   48.3360 O   0  0  0  0  0  0  0  0  0  0  0  0
   63.0980   32.8640   47.7870 C   0  0  0  0  0  0  0  0  0  0  0  0
   62.3490   31.7260   48.1050 C   0  0  0  0  0  0  0  0  0  0  0  0
   61.0720   31.5430   47.5680 C   0  0  0  0  0  0  0  0  0  0  0  0
   60.5120   32.5060   46.7150 C   0  0  0  0  0  0  0  0  0  0  0  0
   59.2190   32.2620   46.1300 N   0  0  0  0  0  0  0  0  0  0  0  0
   58.3720   33.2840   45.5840 C   0  0  0  0  0  0  0  0  0  0  0  0
   58.4420   34.4680   46.0120 O   0  0  0  0  0  0  0  0  0  0  0  0
   57.4020   32.9550   44.4930 C   0  0  0  0  0  0  0  0  0  0  0  0
   58.1050   31.6630   43.4100 S   0  0  0  0  0  0  0  0  0  0  0  0
   56.5810   30.6670   43.2310 C   0  0  0  0  0  0  0  0  0  0  0  0
   56.2670   30.0030   44.5310 C   0  0  0  0  0  0  0  0  0  0  0  0
   55.1910   29.3590   44.6620 O   0  0  0  0  0  0  0  0  0  0  0  0
   57.2310   30.0450   45.5900 N   0  0  0  0  0  0  0  0  0  0  0  0
   58.2670   29.0820   45.8300 C   0  0  0  0  0  0  0  0  0  0  0  0
   58.1800   28.1400   46.8710 C   0  0  0  0  0  0  0  0  0  0  0  0
   59.2320   27.2480   47.1010 C   0  0  0  0  0  0  0  0  0  0  0  0
   60.3790   27.2970   46.3050 C   0  0  0  0  0  0  0  0  0  0  0  0
   60.4790   28.2400   45.2800 C   0  0  0  0  0  0  0  0  0  0  0  0
   59.4270   29.1320   45.0470 C   0  0  0  0  0  0  0  0  0  0  0  0
   61.2660   33.6490   46.3900 C   0  0  0  0  0  0  0  0  0  0  0  0
   62.5430   33.8300   46.9280 C   0  0  0  0  0  0  0  0  0  0  0  0
   64.1997   33.2031   50.3865 H   0  0  0  0  0  0  0  0  0  0  0  0
   64.4645   31.5278   49.7949 H   0  0  0  0  0  0  0  0  0  0  0  0
   65.8211   32.7052   49.7949 H   0  0  0  0  0  0  0  0  0  0  0  0
   62.7689   30.9688   48.7835 H   0  0  0  0  0  0  0  0  0  0  0  0
   60.5009   30.6362   47.8161 H   0  0  0  0  0  0  0  0  0  0  0  0
   58.8740   31.2760   46.0940 H   0  0  0  0  0  0  0  0  0  0  0  0
   56.4639   32.5895   44.9362 H   0  0  0  0  0  0  0  0  0  0  0  0
   57.2032   33.8590   43.8986 H   0  0  0  0  0  0  0  0  0  0  0  0
   55.7460   31.3224   42.9425 H   0  0  0  0  0  0  0  0  0  0  0  0
   56.7309   29.9023   42.4546 H   0  0  0  0  0  0  0  0  0  0  0  0
   57.2822   28.1050   47.5057 H   0  0  0  0  0  0  0  0  0  0  0  0
   59.1563   26.5065   47.9100 H   0  0  0  0  0  0  0  0  0  0  0  0
   61.2040   26.5922   46.4858 H   0  0  0  0  0  0  0  0  0  0  0  0
   61.3842   28.2814   44.6564 H   0  0  0  0  0  0  0  0  0  0  0  0
   59.5115   29.8780   44.2431 H   0  0  0  0  0  0  0  0  0  0  0  0
   60.8477   34.4044   45.7085 H   0  0  0  0  0  0  0  0  0  0  0  0
   63.1180   34.7338   46.6781 H   0  0  0  0  0  0  0  0  0  0  0  0
  1  2  1  0
  2  3  1  0
  3  4  2  0
  4  5  1  0
  5  6  2  0
  6  7  1  0
  7  8  1  0
  8  9  2  0
  8 10  1  0
 10 11  1  0
 11 12  1  0
 12 13  1  0
 13 14  2  0
 13 15  1  0
 15 16  1  0
 16 17  2  0
 17 18  1  0
 18 19  2  0
 19 20  1  0
 20 21  2  0
  6 22  1  0
 22 23  2  0
 23  3  1  0
 21 16  1  0
  1 24  1  0
  1 25  1  0
  1 26  1  0
  4 27  1  0
  5 28  1  0
  7 29  1  0
 10 30  1  0
 10 31  1  0
 12 32  1  0
 12 33  1  0
 17 34  1  0
 18 35  1  0
 19 36  1  0
 20 37  1  0
 21 38  1  0
 22 39  1  0
 23 40  1  0
M  CHG  1  15  -1
M  END
>  <UniqueID>  (45) 
41

>  <SMILES>  (45) 
COc1ccc(NC(=O)CSCC(=O)[N-]c2ccccc2)cc1

>  <Energy>  (45) 
39.257809699959644

>  <Genealogy>  (45) 
COc1ccc(NC(=O)CSCC(=O)[N-]c2ccccc2)cc1 (protonated)
COc1ccc(NC(=O)CSCC(=O)[N-]c2ccccc2)cc1 (3D coordinates assigned)
COc1ccc(NC(=O)CSCC(=O)[N-]c2ccccc2)cc1 (optimized conformer: 39.257809699959644 kcal/mol)

>  <smiles>  (45) 
COc1ccc(NC(=O)CSCC(=O)Nc2ccccc2)cc1

>  <score_type>  (45) 
oracle

>  <origin>  (45) 
adg

>  <m_score__min__energy>  (45) 
-9.1199999999999992

>  <m_primary>  (45) 
energy

$$$$
45:0
     RDKit          3D

 31 32  0  0  0  0  0  0  0  0999 V2000
   61.0784   27.1814   45.0452 H   0  0  0  0  0  0  0  0  0  0  0  0
   60.3200   27.6050   45.7200 C   0  0  0  0  0  0  0  0  0  0  0  0
   59.6530   26.6780   46.6630 C   0  0  0  0  0  0  0  0  0  0  0  0
   60.1940   26.4170   47.7720 O   0  0  0  0  0  0  0  0  0  0  0  0
   58.3970   25.9860   46.2840 C   0  0  0  0  0  0  0  0  0  0  0  0
   58.4090   24.6380   45.8620 C   0  0  0  0  0  0  0  0  0  0  0  0
   59.5730   23.9490   45.7570 F   0  0  0  0  0  0  0  0  0  0  0  0
   57.2180   24.0000   45.5030 C   0  0  0  0  0  0  0  0  0  0  0  0
   57.2359   22.9490   45.1789 H   0  0  0  0  0  0  0  0  0  0  0  0
   56.0060   24.6910   45.5540 C   0  0  0  0  0  0  0  0  0  0  0  0
   55.0712   24.1828   45.2750 H   0  0  0  0  0  0  0  0  0  0  0  0
   55.9800   26.0270   45.9590 C   0  0  0  0  0  0  0  0  0  0  0  0
   54.7700   26.7100   46.0050 O   0  0  0  0  0  0  0  0  0  0  0  0
   57.1660   26.6770   46.3200 C   0  0  0  0  0  0  0  0  0  0  0  0
   57.1090   27.9700   46.7290 F   0  0  0  0  0  0  0  0  0  0  0  0
   60.0730   28.9210   45.6230 C   0  0  0  0  0  0  0  0  0  0  0  0
   60.8365   29.6095   46.0142 H   0  0  0  0  0  0  0  0  0  0  0  0
   58.8560   29.5190   45.0320 C   0  0  0  0  0  0  0  0  0  0  0  0
   58.0780   28.8160   44.0960 C   0  0  0  0  0  0  0  0  0  0  0  0
   58.3472   27.7848   43.8236 H   0  0  0  0  0  0  0  0  0  0  0  0
   56.9630   29.4230   43.5100 C   0  0  0  0  0  0  0  0  0  0  0  0
   56.3509   28.8648   42.7863 H   0  0  0  0  0  0  0  0  0  0  0  0
   56.6250   30.7370   43.8420 C   0  0  0  0  0  0  0  0  0  0  0  0
   55.7480   31.2110   43.3769 H   0  0  0  0  0  0  0  0  0  0  0  0
   57.3990   31.4550   44.7660 C   0  0  0  0  0  0  0  0  0  0  0  0
   57.0670   32.8830   45.0800 C   0  0  0  0  0  0  0  0  0  0  0  0
   57.0350   33.0207   46.1709 H   0  0  0  0  0  0  0  0  0  0  0  0
   57.8360   33.5414   44.6497 H   0  0  0  0  0  0  0  0  0  0  0  0
   56.0864   33.1346   44.6497 H   0  0  0  0  0  0  0  0  0  0  0  0
   58.5290   30.8490   45.3380 C   0  0  0  0  0  0  0  0  0  0  0  0
   59.1629   31.4212   46.0314 H   0  0  0  0  0  0  0  0  0  0  0  0
  1  2  1  0
  2  3  1  0
  3  4  2  0
  3  5  1  0
  5  6  2  0
  6  7  1  0
  6  8  1  0
  8  9  1  0
  8 10  2  0
 10 11  1  0
 10 12  1  0
 12 13  1  0
 12 14  2  0
 14 15  1  0
  2 16  2  0
 16 17  1  0
 16 18  1  0
 18 19  2  0
 19 20  1  0
 19 21  1  0
 21 22  1  0
 21 23  2  0
 23 24  1  0
 23 25  1  0
 25 26  1  0
 26 27  1  0
 26 28  1  0
 26 29  1  0
 25 30  2  0
 30 31  1  0
 14  5  1  0
 30 18  1  0
M  CHG  1  13  -1
M  END
>  <UniqueID>  (46) 
42

>  <SMILES>  (46) 
Cc1cccc(/C=C\C(=O)c2c(F)ccc([O-])c2F)c1

>  <Energy>  (46) 
43.6209869257547

>  <Genealogy>  (46) 
Cc1cccc(C=CC(=O)c2c(F)ccc([O-])c2F)c1 (protonated)
Cc1cccc(/C=C\C(=O)c2c(F)ccc([O-])c2F)c1 (cis-trans isomerization)
Cc1cccc(/C=C\C(=O)c2c(F)ccc([O-])c2F)c1 (3D coordinates assigned)
Cc1cccc(/C=C\C(=O)c2c(F)ccc([O-])c2F)c1 (optimized conformer: 43.6209869257547 kcal/mol)

>  <smiles>  (46) 
Cc1cccc(C=CC(=O)c2c(F)ccc(O)c2F)c1

>  <score_type>  (46) 
oracle

>  <origin>  (46) 
adg

>  <m_score__min__energy>  (46) 
-11.1

>  <m_primary>  (46) 
energy

$$$$
46:0
     RDKit          3D

 41 43  0  0  0  0  0  0  0  0999 V2000
   62.8770   33.4970   46.6960 C   0  0  0  0  0  0  0  0  0  0  0  0
   61.5820   33.3830   47.0280 C   0  0  0  0  0  0  0  0  0  0  0  0
   60.9360   32.0360   47.0890 C   0  0  0  0  0  0  0  0  0  0  0  0
   59.4070   32.0940   47.4160 C   0  0  2  0  0  0  0  0  0  0  0  0
   58.9020   30.6750   47.0310 C   0  0  0  0  0  0  0  0  0  0  0  0
   59.2340   29.6090   47.7920 C   0  0  0  0  0  0  0  0  0  0  0  0
   58.4600   30.3490   45.6160 C   0  0  0  0  0  0  0  0  0  0  0  0
   57.8310   31.5140   44.8590 C   0  0  0  0  0  0  0  0  0  0  0  0
   58.6020   32.8140   45.0730 C   0  0  0  0  0  0  0  0  0  0  0  0
   58.6770   33.2270   46.5720 C   0  0  1  0  0  0  0  0  0  0  0  0
   57.2220   33.4550   47.0870 C   0  0  0  0  0  0  0  0  0  0  0  0
   59.4350   34.6060   46.6590 C   0  0  0  0  0  0  0  0  0  0  0  0
   60.7700   34.5760   47.4260 C   0  0  1  0  0  0  0  0  0  0  0  0
   60.5870   34.5880   48.9490 C   0  0  0  0  0  0  0  0  0  0  0  0
   59.7550   33.4790   49.5540 C   0  0  0  0  0  0  0  0  0  0  0  0
   59.1980   32.4080   48.9290 C   0  0  0  0  0  0  0  0  0  0  0  0
   58.1690   31.6580   49.7600 C   0  0  0  0  0  0  0  0  0  0  0  0
   63.3482   34.4900   46.6523 H   0  0  0  0  0  0  0  0  0  0  0  0
   63.4674   32.5975   46.4675 H   0  0  0  0  0  0  0  0  0  0  0  0
   61.0656   31.5428   46.1144 H   0  0  0  0  0  0  0  0  0  0  0  0
   61.4215   31.4798   47.9045 H   0  0  0  0  0  0  0  0  0  0  0  0
   58.8762   28.6054   47.5188 H   0  0  0  0  0  0  0  0  0  0  0  0
   59.8621   29.7448   48.6848 H   0  0  0  0  0  0  0  0  0  0  0  0
   59.3412   30.0098   45.0516 H   0  0  0  0  0  0  0  0  0  0  0  0
   57.6793   29.5792   45.7046 H   0  0  0  0  0  0  0  0  0  0  0  0
   57.8236   31.2776   43.7847 H   0  0  0  0  0  0  0  0  0  0  0  0
   56.8092   31.6567   45.2405 H   0  0  0  0  0  0  0  0  0  0  0  0
   59.6257   32.6830   44.6922 H   0  0  0  0  0  0  0  0  0  0  0  0
   58.0671   33.6104   44.5348 H   0  0  0  0  0  0  0  0  0  0  0  0
   57.2183   33.4556   48.1870 H   0  0  0  0  0  0  0  0  0  0  0  0
   56.8500   34.4224   46.7186 H   0  0  0  0  0  0  0  0  0  0  0  0
   56.5719   32.6478   46.7186 H   0  0  0  0  0  0  0  0  0  0  0  0
   59.6400   34.9464   45.6333 H   0  0  0  0  0  0  0  0  0  0  0  0
   58.7749   35.2808   47.2237 H   0  0  0  0  0  0  0  0  0  0  0  0
   61.3021   35.4988   47.1516 H   0  0  0  0  0  0  0  0  0  0  0  0
   61.5876   34.5363   49.4030 H   0  0  0  0  0  0  0  0  0  0  0  0
   60.0263   35.5105   49.1600 H   0  0  0  0  0  0  0  0  0  0  0  0
   59.5782   33.5480   50.6375 H   0  0  0  0  0  0  0  0  0  0  0  0
   58.3789   31.8110   50.8289 H   0  0  0  0  0  0  0  0  0  0  0  0
   57.1628   32.0360   49.5261 H   0  0  0  0  0  0  0  0  0  0  0  0
   58.2208   30.5844   49.5261 H   0  0  0  0  0  0  0  0  0  0  0  0
  1  2  2  0
  2  3  1  0
  4  3  1  1
  4  5  1  0
  5  6  2  0
  5  7  1  0
  7  8  1  0
  8  9  1  0
  9 10  1  0
 10 11  1  1
 10 12  1  0
 12 13  1  0
 13 14  1  0
 14 15  1  0
 15 16  2  0
 16 17  1  0
 13  2  1  0
 10  4  1  0
 16  4  1  0
  1 18  1  0
  1 19  1  0
  3 20  1  0
  3 21  1  0
  6 22  1  0
  6 23  1  0
  7 24  1  0
  7 25  1  0
  8 26  1  0
  8 27  1  0
  9 28  1  0
  9 29  1  0
 11 30  1  0
 11 31  1  0
 11 32  1  0
 12 33  1  0
 12 34  1  0
 13 35  1  6
 14 36  1  0
 14 37  1  0
 15 38  1  0
 17 39  1  0
 17 40  1  0
 17 41  1  0
M  END
>  <UniqueID>  (47) 
43

>  <SMILES>  (47) 
C=C1C[C@]23C(=C)CCC[C@]2(C)CC1CC=C3C

>  <Energy>  (47) 
65.3184595232631

>  <Genealogy>  (47) 
C=C1C[C@]23C(=C)CCC[C@]2(C)CC1CC=C3C (chirality)
C=C1C[C@]23C(=C)CCC[C@]2(C)CC1CC=C3C (3D coordinates assigned)
C=C1C[C@]23C(=C)CCC[C@]2(C)CC1CC=C3C (nonaromatic ring conformer: 65.3184595232631 kcal/mol)

>  <smiles>  (47) 
C=C1CC23C(=C)CCCC2(C)CC1CC=C3C

>  <score_type>  (47) 
oracle

>  <origin>  (47) 
adg

>  <m_score__min__energy>  (47) 
-6.04

>  <m_primary>  (47) 
energy

$$$$
47:0
     RDKit          3D

 19 20  0  0  0  0  0  0  0  0999 V2000
   56.5210   27.1060   45.8880 O   0  0  0  0  0  0  0  0  0  0  0  0
   55.7470   26.1240   46.0390 C   0  0  0  0  0  0  0  0  0  0  0  0
   54.3740   26.3330   45.9930 O   0  0  0  0  0  0  0  0  0  0  0  0
   56.3000   24.7830   46.3380 C   0  0  0  0  0  0  0  0  0  0  0  0
   56.5760   24.4690   47.6790 C   0  0  0  0  0  0  0  0  0  0  0  0
   57.0260   23.1930   48.0230 C   0  0  0  0  0  0  0  0  0  0  0  0
   57.2580   22.9080   49.2270 O   0  0  0  0  0  0  0  0  0  0  0  0
   57.2090   22.2540   47.0620 N   0  0  0  0  0  0  0  0  0  0  0  0
   56.9800   22.5140   45.7480 C   0  0  0  0  0  0  0  0  0  0  0  0
   57.2060   21.5110   44.8000 C   0  0  0  0  0  0  0  0  0  0  0  0
   57.0120   21.7700   43.4420 C   0  0  0  0  0  0  0  0  0  0  0  0
   56.6050   23.0370   43.0240 C   0  0  0  0  0  0  0  0  0  0  0  0
   56.3710   24.0490   43.9610 C   0  0  0  0  0  0  0  0  0  0  0  0
   56.5300   23.7980   45.3420 C   0  0  0  0  0  0  0  0  0  0  0  0
   56.4372   25.2307   48.4604 H   0  0  0  0  0  0  0  0  0  0  0  0
   57.5379   20.5141   45.1256 H   0  0  0  0  0  0  0  0  0  0  0  0
   57.1802   20.9745   42.7012 H   0  0  0  0  0  0  0  0  0  0  0  0
   56.4673   23.2414   41.9520 H   0  0  0  0  0  0  0  0  0  0  0  0
   56.0609   25.0477   43.6199 H   0  0  0  0  0  0  0  0  0  0  0  0
  1  2  2  0
  2  3  1  0
  2  4  1  0
  4  5  2  0
  5  6  1  0
  6  7  2  0
  6  8  1  0
  8  9  1  0
  9 10  2  0
 10 11  1  0
 11 12  2  0
 12 13  1  0
 13 14  2  0
 14  4  1  0
 14  9  1  0
  5 15  1  0
 10 16  1  0
 11 17  1  0
 12 18  1  0
 13 19  1  0
M  CHG  2   3  -1   8  -1
M  END
>  <UniqueID>  (48) 
44

>  <SMILES>  (48) 
O=C([O-])c1cc(=O)[n-]c2ccccc12

>  <Energy>  (48) 
30.381609739608255

>  <Genealogy>  (48) 
O=C([O-])c1cc(=O)[n-]c2ccccc12 (protonated)
O=C([O-])c1cc(=O)[n-]c2ccccc12 (3D coordinates assigned)
O=C([O-])c1cc(=O)[n-]c2ccccc12 (optimized conformer: 30.381609739608255 kcal/mol)

>  <smiles>  (48) 
O=C(O)c1cc(=O)[nH]c2ccccc12

>  <score_type>  (48) 
oracle

>  <origin>  (48) 
adg

>  <m_score__min__energy>  (48) 
-9.8499999999999996

>  <m_primary>  (48) 
energy

$$$$
