0:0
     RDKit          3D

 39 40  0  0  0  0  0  0  0  0999 V2000
   60.1500   30.6520   46.4500 C   0  0  0  0  0  0  0  0  0  0  0  0
   58.7870   30.4880   47.1110 C   0  0  0  0  0  0  0  0  0  0  0  0
   57.7880   31.2220   46.4030 O   0  0  0  0  0  0  0  0  0  0  0  0
   57.5780   31.2000   45.0130 C   0  0  0  0  0  0  0  0  0  0  0  0
   56.9940   30.0920   44.3630 C   0  0  0  0  0  0  0  0  0  0  0  0
   56.7590   30.1200   42.9870 C   0  0  0  0  0  0  0  0  0  0  0  0
   57.1020   31.2460   42.2410 C   0  0  0  0  0  0  0  0  0  0  0  0
   57.6900   32.3460   42.8650 C   0  0  0  0  0  0  0  0  0  0  0  0
   57.9480   32.3290   44.2470 C   0  0  0  0  0  0  0  0  0  0  0  0
   58.5940   33.5050   44.8670 C   0  0  0  0  0  0  0  0  0  0  0  0
   59.4410   34.1620   44.2040 O   0  0  0  0  0  0  0  0  0  0  0  0
   58.3130   33.8630   46.2300 N   0  0  0  0  0  0  0  0  0  0  0  0
   59.0700   34.8920   46.9430 C   0  0  0  0  0  0  0  0  0  0  0  0
   59.6820   34.3230   48.2300 C   0  0  0  0  0  0  0  0  0  0  0  0
   61.1010   33.8500   48.0140 C   0  0  0  0  0  0  0  0  0  0  0  0
   61.6360   33.8550   46.7120 C   0  0  0  0  0  0  0  0  0  0  0  0
   62.9630   33.4830   46.4880 C   0  0  0  0  0  0  0  0  0  0  0  0
   63.7720   33.1000   47.5580 C   0  0  0  0  0  0  0  0  0  0  0  0
   63.2570   33.0910   48.8560 C   0  0  0  0  0  0  0  0  0  0  0  0
   61.9290   33.4670   49.0940 C   0  0  0  0  0  0  0  0  0  0  0  0
   61.3430   33.4550   50.7550 Cl  0  0  0  0  0  0  0  0  0  0  0  0
   60.9247   30.7452   47.2254 H   0  0  0  0  0  0  0  0  0  0  0  0
   60.3620   29.7729   45.8237 H   0  0  0  0  0  0  0  0  0  0  0  0
   60.1474   31.5563   45.8237 H   0  0  0  0  0  0  0  0  0  0  0  0
   58.5150   29.4222   47.1168 H   0  0  0  0  0  0  0  0  0  0  0  0
   58.8454   30.8741   48.1393 H   0  0  0  0  0  0  0  0  0  0  0  0
   56.7217   29.1992   44.9450 H   0  0  0  0  0  0  0  0  0  0  0  0
   56.3020   29.2512   42.4906 H   0  0  0  0  0  0  0  0  0  0  0  0
   56.9087   31.2672   41.1583 H   0  0  0  0  0  0  0  0  0  0  0  0
   57.9539   33.2337   42.2714 H   0  0  0  0  0  0  0  0  0  0  0  0
   57.7050   33.2360   46.8030 H   0  0  0  0  0  0  0  0  0  0  0  0
   59.8765   35.2622   46.2929 H   0  0  0  0  0  0  0  0  0  0  0  0
   58.3869   35.7120   47.2094 H   0  0  0  0  0  0  0  0  0  0  0  0
   59.6814   35.1069   49.0017 H   0  0  0  0  0  0  0  0  0  0  0  0
   59.0773   33.4594   48.5440 H   0  0  0  0  0  0  0  0  0  0  0  0
   61.0031   34.1546   45.8636 H   0  0  0  0  0  0  0  0  0  0  0  0
   63.3711   33.4919   45.4665 H   0  0  0  0  0  0  0  0  0  0  0  0
   64.8165   32.8048   47.3791 H   0  0  0  0  0  0  0  0  0  0  0  0
   63.8981   32.7868   49.6965 H   0  0  0  0  0  0  0  0  0  0  0  0
  1  2  1  0
  2  3  1  0
  3  4  1  0
  4  5  2  0
  5  6  1  0
  6  7  2  0
  7  8  1  0
  8  9  2  0
  9 10  1  0
 10 11  2  0
 10 12  1  0
 12 13  1  0
 13 14  1  0
 14 15  1  0
 15 16  2  0
 16 17  1  0
 17 18  2  0
 18 19  1  0
 19 20  2  0
 20 21  1  0
  9  4  1  0
 20 15  1  0
  1 22  1  0
  1 23  1  0
  1 24  1  0
  2 25  1  0
  2 26  1  0
  5 27  1  0
  6 28  1  0
  7 29  1  0
  8 30  1  0
 12 31  1  0
 13 32  1  0
 13 33  1  0
 14 34  1  0
 14 35  1  0
 16 36  1  0
 17 37  1  0
 18 38  1  0
 19 39  1  0
M  END
>  <UniqueID>  (1) 
1

>  <SMILES>  (1) 
CCOc1ccccc1C(=O)NCCc1ccccc1Cl

>  <Energy>  (1) 
37.440288011788134

>  <Genealogy>  (1) 
CCOc1ccccc1C(=O)NCCc1ccccc1Cl (3D coordinates assigned)
CCOc1ccccc1C(=O)NCCc1ccccc1Cl (optimized conformer: 37.440288011788134 kcal/mol)

>  <smiles>  (1) 
CCOc1ccccc1C(=O)NCCc1ccccc1Cl

>  <score_type>  (1) 
oracle

>  <origin>  (1) 
adg

>  <m_score__min__energy>  (1) 
-7.29

>  <m_primary>  (1) 
energy

$$$$
1:0
     RDKit          3D

 55 54  0  0  0  0  0  0  0  0999 V2000
   60.7000   28.1510   45.2930 C   0  0  0  0  0  0  0  0  0  0  0  0
   59.7840   29.2850   44.8240 C   0  0  0  0  0  0  0  0  0  0  0  0
   59.6320   30.3410   45.8360 N   0  0  0  0  0  0  0  0  0  0  0  0
   60.8380   30.5070   46.6630 C   0  0  0  0  0  0  0  0  0  0  0  0
   60.4680   31.0490   48.0510 C   0  0  0  0  0  0  0  0  0  0  0  0
   59.5410   30.1160   48.8520 C   0  0  0  0  0  0  0  0  0  0  0  0
   59.6570   28.6450   48.4230 C   0  0  0  0  0  0  0  0  0  0  0  0
   58.4530   28.2580   47.6740 N   0  0  0  0  0  0  0  0  0  0  0  0
   58.3660   26.8020   47.4810 C   0  0  0  0  0  0  0  0  0  0  0  0
   57.0540   26.4150   46.7790 C   0  0  0  0  0  0  0  0  0  0  0  0
   57.0030   26.9200   45.3370 C   0  0  0  0  0  0  0  0  0  0  0  0
   56.0560   28.0240   45.2490 N   0  0  0  0  0  0  0  0  0  0  0  0
   56.4430   29.3780   44.9980 C   0  0  0  0  0  0  0  0  0  0  0  0
   57.0220   30.0520   45.8940 O   0  0  0  0  0  0  0  0  0  0  0  0
   56.0930   30.0040   43.6810 C   0  0  0  0  0  0  0  0  0  0  0  0
   57.0090   31.1870   43.3010 C   0  0  0  0  0  0  0  0  0  0  0  0
   57.5470   31.9290   44.4560 N   0  0  0  0  0  0  0  0  0  0  0  0
   57.9690   33.2940   44.1200 C   0  0  0  0  0  0  0  0  0  0  0  0
   57.9150   34.1850   45.3720 C   0  0  0  0  0  0  0  0  0  0  0  0
   58.5900   33.5390   46.5880 C   0  0  0  0  0  0  0  0  0  0  0  0
   58.0280   32.2190   46.8650 N   0  0  0  0  0  0  0  0  0  0  0  0
   60.7197   28.1266   46.3926 H   0  0  0  0  0  0  0  0  0  0  0  0
   60.3204   27.1916   44.9117 H   0  0  0  0  0  0  0  0  0  0  0  0
   61.7178   28.3203   44.9117 H   0  0  0  0  0  0  0  0  0  0  0  0
   60.2105   29.7288   43.9123 H   0  0  0  0  0  0  0  0  0  0  0  0
   58.7888   28.8553   44.6372 H   0  0  0  0  0  0  0  0  0  0  0  0
   58.8200   30.1110   46.4570 H   0  0  0  0  0  0  0  0  0  0  0  0
   61.3364   29.5329   46.7759 H   0  0  0  0  0  0  0  0  0  0  0  0
   61.5118   31.2229   46.1696 H   0  0  0  0  0  0  0  0  0  0  0  0
   61.3947   31.1948   48.6254 H   0  0  0  0  0  0  0  0  0  0  0  0
   59.9199   31.9896   47.8936 H   0  0  0  0  0  0  0  0  0  0  0  0
   59.8021   30.1924   49.9178 H   0  0  0  0  0  0  0  0  0  0  0  0
   58.5059   30.4350   48.6601 H   0  0  0  0  0  0  0  0  0  0  0  0
   60.5433   28.5180   47.7840 H   0  0  0  0  0  0  0  0  0  0  0  0
   59.7548   28.0089   49.3151 H   0  0  0  0  0  0  0  0  0  0  0  0
   58.5150   28.6970   46.7240 H   0  0  0  0  0  0  0  0  0  0  0  0
   59.2147   26.4697   46.8652 H   0  0  0  0  0  0  0  0  0  0  0  0
   58.3912   26.3163   48.4676 H   0  0  0  0  0  0  0  0  0  0  0  0
   56.9642   25.3187   46.7743 H   0  0  0  0  0  0  0  0  0  0  0  0
   56.2243   26.8809   47.3307 H   0  0  0  0  0  0  0  0  0  0  0  0
   58.0017   27.2669   45.0332 H   0  0  0  0  0  0  0  0  0  0  0  0
   56.6832   26.1049   44.6711 H   0  0  0  0  0  0  0  0  0  0  0  0
   56.1728   29.2358   42.8978 H   0  0  0  0  0  0  0  0  0  0  0  0
   55.0712   30.4010   43.7719 H   0  0  0  0  0  0  0  0  0  0  0  0
   57.8554   30.7948   42.7181 H   0  0  0  0  0  0  0  0  0  0  0  0
   56.3907   31.8953   42.7300 H   0  0  0  0  0  0  0  0  0  0  0  0
   58.3590   31.4120   44.8650 H   0  0  0  0  0  0  0  0  0  0  0  0
   58.9984   33.2720   43.7328 H   0  0  0  0  0  0  0  0  0  0  0  0
   57.2915   33.7034   43.3563 H   0  0  0  0  0  0  0  0  0  0  0  0
   58.4239   35.1346   45.1503 H   0  0  0  0  0  0  0  0  0  0  0  0
   56.8555   34.3402   45.6237 H   0  0  0  0  0  0  0  0  0  0  0  0
   59.6667   33.4358   46.3880 H   0  0  0  0  0  0  0  0  0  0  0  0
   58.4181   34.1816   47.4641 H   0  0  0  0  0  0  0  0  0  0  0  0
   58.5840   31.5230   46.3180 H   0  0  0  0  0  0  0  0  0  0  0  0
   57.0520   32.1860   46.4880 H   0  0  0  0  0  0  0  0  0  0  0  0
  1  2  1  0
  2  3  1  0
  3  4  1  0
  4  5  1  0
  5  6  1  0
  6  7  1  0
  7  8  1  0
  8  9  1  0
  9 10  1  0
 10 11  1  0
 11 12  1  0
 12 13  1  0
 13 14  2  0
 13 15  1  0
 15 16  1  0
 16 17  1  0
 17 18  1  0
 18 19  1  0
 19 20  1  0
 20 21  1  0
  1 22  1  0
  1 23  1  0
  1 24  1  0
  2 25  1  0
  2 26  1  0
  3 27  1  0
  4 28  1  0
  4 29  1  0
  5 30  1  0
  5 31  1  0
  6 32  1  0
  6 33  1  0
  7 34  1  0
  7 35  1  0
  8 36  1  0
  9 37  1  0
  9 38  1  0
 10 39  1  0
 10 40  1  0
 11 41  1  0
 11 42  1  0
 15 43  1  0
 15 44  1  0
 16 45  1  0
 16 46  1  0
 17 47  1  0
 18 48  1  0
 18 49  1  0
 19 50  1  0
 19 51  1  0
 20 52  1  0
 20 53  1  0
 21 54  1  0
 21 55  1  0
M  CHG  1  12  -1
M  END
>  <UniqueID>  (2) 
2

>  <SMILES>  (2) 
CCNCCCCNCCC[N-]C(=O)CCNCCCN

>  <Energy>  (2) 
30.96796885681701

>  <Genealogy>  (2) 
CCNCCCCNCCC[N-]C(=O)CCNCCCN (protonated)
CCNCCCCNCCC[N-]C(=O)CCNCCCN (3D coordinates assigned)
CCNCCCCNCCC[N-]C(=O)CCNCCCN (optimized conformer: 30.96796885681701 kcal/mol)

>  <smiles>  (2) 
CCNCCCCNCCCNC(=O)CCNCCCN

>  <score_type>  (2) 
oracle

>  <origin>  (2) 
adg

>  <m_score__min__energy>  (2) 
-6.0800000000000001

>  <m_primary>  (2) 
energy

$$$$
2:0
     RDKit          3D

 80 83  0  0  0  0  0  0  0  0999 V2000
   59.6670   33.4740   49.7290 C   0  0  0  0  0  0  0  0  0  0  0  0
   59.8010   32.9080   48.3130 C   0  0  0  0  0  0  0  0  0  0  0  0
   61.1200   33.2760   47.7480 N   0  0  0  0  0  0  0  0  0  0  0  0
   60.9950   33.8180   46.3750 C   0  0  0  0  0  0  0  0  0  0  0  0
   59.6730   34.5640   46.2140 C   0  0  0  0  0  0  0  0  0  0  0  0
   61.8500   34.2160   48.6330 C   0  0  0  0  0  0  0  0  0  0  0  0
   63.3620   33.9850   48.4730 C   0  0  0  0  0  0  0  0  0  0  0  0
   63.7300   32.5700   48.2620 N   0  0  0  0  0  0  0  0  0  0  0  0
   64.0130   31.8560   49.5050 C   0  0  0  0  0  0  0  0  0  0  0  0
   65.2210   32.0850   50.2290 C   0  0  0  0  0  0  0  0  0  0  0  0
   66.2140   33.0030   49.7900 C   0  0  0  0  0  0  0  0  0  0  0  0
   67.4190   33.1490   50.4700 C   0  0  0  0  0  0  0  0  0  0  0  0
   67.6790   32.3850   51.5950 C   0  0  0  0  0  0  0  0  0  0  0  0
   66.7160   31.5060   52.0760 C   0  0  0  0  0  0  0  0  0  0  0  0
   65.4510   31.3790   51.4450 C   0  0  0  0  0  0  0  0  0  0  0  0
   64.4640   30.5850   51.9890 N   0  0  0  0  0  0  0  0  0  0  0  0
   64.5600   30.1530   53.4020 C   0  0  0  0  0  0  0  0  0  0  0  0
   63.3600   30.2380   51.2390 C   0  0  0  0  0  0  0  0  0  0  0  0
   62.4760   29.2170   51.6720 C   0  0  0  0  0  0  0  0  0  0  0  0
   61.2850   28.9390   50.9910 C   0  0  0  0  0  0  0  0  0  0  0  0
   60.3680   27.9740   51.4410 O   0  0  0  0  0  0  0  0  0  0  0  0
   60.7170   26.7940   52.1560 C   0  0  0  0  0  0  0  0  0  0  0  0
   60.9730   29.6530   49.8370 C   0  0  0  0  0  0  0  0  0  0  0  0
   59.7250   29.4110   49.2390 O   0  0  0  0  0  0  0  0  0  0  0  0
   59.5010   28.9970   47.8930 C   0  0  0  0  0  0  0  0  0  0  0  0
   58.5880   29.9640   47.0900 C   0  0  0  0  0  0  0  0  0  0  0  0
   58.6810   29.9340   45.5860 N   0  0  0  0  0  0  0  0  0  0  0  0
   60.0910   29.5670   45.2670 C   0  0  0  0  0  0  0  0  0  0  0  0
   58.4360   31.3020   45.0160 C   0  0  0  0  0  0  0  0  0  0  0  0
   57.9840   31.2650   43.5470 C   0  0  0  0  0  0  0  0  0  0  0  0
   56.6440   30.5250   43.4050 C   0  0  0  0  0  0  0  0  0  0  0  0
   56.4460   29.4360   44.4730 C   0  0  0  0  0  0  0  0  0  0  0  0
   57.7930   28.8840   44.9770 C   0  0  0  0  0  0  0  0  0  0  0  0
   61.8860   30.5890   49.3290 C   0  0  0  0  0  0  0  0  0  0  0  0
   63.0870   30.8980   50.0110 C   0  0  0  0  0  0  0  0  0  0  0  0
   59.8559   32.6761   50.4622 H   0  0  0  0  0  0  0  0  0  0  0  0
   60.3984   34.2832   49.8711 H   0  0  0  0  0  0  0  0  0  0  0  0
   58.6504   33.8694   49.8711 H   0  0  0  0  0  0  0  0  0  0  0  0
   59.7116   31.8122   48.3478 H   0  0  0  0  0  0  0  0  0  0  0  0
   59.0051   33.3250   47.6785 H   0  0  0  0  0  0  0  0  0  0  0  0
   61.8275   34.5106   46.1819 H   0  0  0  0  0  0  0  0  0  0  0  0
   61.0226   32.9835   45.6588 H   0  0  0  0  0  0  0  0  0  0  0  0
   59.2602   34.7969   47.2066 H   0  0  0  0  0  0  0  0  0  0  0  0
   59.8445   35.4985   45.6597 H   0  0  0  0  0  0  0  0  0  0  0  0
   58.9617   33.9341   45.6597 H   0  0  0  0  0  0  0  0  0  0  0  0
   61.6038   35.2512   48.3541 H   0  0  0  0  0  0  0  0  0  0  0  0
   61.5571   34.0438   49.6792 H   0  0  0  0  0  0  0  0  0  0  0  0
   63.7121   34.5671   47.6078 H   0  0  0  0  0  0  0  0  0  0  0  0
   63.8358   34.3024   49.4136 H   0  0  0  0  0  0  0  0  0  0  0  0
   62.9580   32.0890   47.7470 H   0  0  0  0  0  0  0  0  0  0  0  0
   64.5030   32.5170   47.5690 H   0  0  0  0  0  0  0  0  0  0  0  0
   66.0254   33.6112   48.8930 H   0  0  0  0  0  0  0  0  0  0  0  0
   68.1665   33.8728   50.1132 H   0  0  0  0  0  0  0  0  0  0  0  0
   68.6479   32.4738   52.1081 H   0  0  0  0  0  0  0  0  0  0  0  0
   66.9387   30.8962   52.9640 H   0  0  0  0  0  0  0  0  0  0  0  0
   64.3691   31.0121   54.0619 H   0  0  0  0  0  0  0  0  0  0  0  0
   63.8144   29.3681   53.5969 H   0  0  0  0  0  0  0  0  0  0  0  0
   65.5679   29.7578   53.5969 H   0  0  0  0  0  0  0  0  0  0  0  0
   62.7327   28.6288   52.5654 H   0  0  0  0  0  0  0  0  0  0  0  0
   60.6591   26.9896   53.2369 H   0  0  0  0  0  0  0  0  0  0  0  0
   60.0195   25.9854   51.8919 H   0  0  0  0  0  0  0  0  0  0  0  0
   61.7421   26.4949   51.8919 H   0  0  0  0  0  0  0  0  0  0  0  0
   60.4732   28.9320   47.3825 H   0  0  0  0  0  0  0  0  0  0  0  0
   58.9856   28.0262   47.9351 H   0  0  0  0  0  0  0  0  0  0  0  0
   57.5471   29.7311   47.3588 H   0  0  0  0  0  0  0  0  0  0  0  0
   58.9374   30.9692   47.3685 H   0  0  0  0  0  0  0  0  0  0  0  0
   60.6523   29.4209   46.2017 H   0  0  0  0  0  0  0  0  0  0  0  0
   60.1041   28.6355   44.6820 H   0  0  0  0  0  0  0  0  0  0  0  0
   60.5565   30.3739   44.6820 H   0  0  0  0  0  0  0  0  0  0  0  0
   57.6540   31.7957   45.6117 H   0  0  0  0  0  0  0  0  0  0  0  0
   59.3880   31.8516   45.0551 H   0  0  0  0  0  0  0  0  0  0  0  0
   57.8673   32.2953   43.1798 H   0  0  0  0  0  0  0  0  0  0  0  0
   58.7447   30.7316   42.9581 H   0  0  0  0  0  0  0  0  0  0  0  0
   55.8276   31.2568   43.4943 H   0  0  0  0  0  0  0  0  0  0  0  0
   56.6431   30.0288   42.4233 H   0  0  0  0  0  0  0  0  0  0  0  0
   55.8958   29.8656   45.3231 H   0  0  0  0  0  0  0  0  0  0  0  0
   55.8830   28.6073   44.0189 H   0  0  0  0  0  0  0  0  0  0  0  0
   57.5917   28.1147   45.7370 H   0  0  0  0  0  0  0  0  0  0  0  0
   58.3238   28.4781   44.1032 H   0  0  0  0  0  0  0  0  0  0  0  0
   61.6632   31.0948   48.3780 H   0  0  0  0  0  0  0  0  0  0  0  0
  1  2  1  0
  2  3  1  0
  3  4  1  0
  4  5  1  0
  3  6  1  0
  6  7  1  0
  7  8  1  0
  8  9  1  0
  9 10  2  0
 10 11  1  0
 11 12  2  0
 12 13  1  0
 13 14  2  0
 14 15  1  0
 15 16  2  0
 16 17  1  0
 16 18  1  0
 18 19  2  0
 19 20  1  0
 20 21  1  0
 21 22  1  0
 20 23  2  0
 23 24  1  0
 24 25  1  0
 25 26  1  0
 26 27  1  0
 27 28  1  0
 27 29  1  0
 29 30  1  0
 30 31  1  0
 31 32  1  0
 32 33  1  0
 23 34  1  0
 34 35  2  0
 35  9  1  0
 15 10  1  0
 35 18  1  0
 33 27  1  0
  1 36  1  0
  1 37  1  0
  1 38  1  0
  2 39  1  0
  2 40  1  0
  4 41  1  0
  4 42  1  0
  5 43  1  0
  5 44  1  0
  5 45  1  0
  6 46  1  0
  6 47  1  0
  7 48  1  0
  7 49  1  0
  8 50  1  0
  8 51  1  0
 11 52  1  0
 12 53  1  0
 13 54  1  0
 14 55  1  0
 17 56  1  0
 17 57  1  0
 17 58  1  0
 19 59  1  0
 22 60  1  0
 22 61  1  0
 22 62  1  0
 25 63  1  0
 25 64  1  0
 26 65  1  0
 26 66  1  0
 28 67  1  0
 28 68  1  0
 28 69  1  0
 29 70  1  0
 29 71  1  0
 30 72  1  0
 30 73  1  0
 31 74  1  0
 31 75  1  0
 32 76  1  0
 32 77  1  0
 33 78  1  0
 33 79  1  0
 34 80  1  0
M  CHG  3   8   1  16   1  27   1
M  END
>  <UniqueID>  (3) 
3

>  <SMILES>  (3) 
CCN(CC)CC[NH2+]c1c2ccccc2[n+](C)c2cc(OC)c(OCC[N+]3(C)CCCCC3)cc12

>  <Energy>  (3) 
128.4621262729884

>  <Genealogy>  (3) 
CCN(CC)CC[NH2+]c1c2ccccc2[n+](C)c2cc(OC)c(OCC[N+]3(C)CCCCC3)cc12 (protonated)
CCN(CC)CC[NH2+]c1c2ccccc2[n+](C)c2cc(OC)c(OCC[N+]3(C)CCCCC3)cc12 (3D coordinates assigned)
CCN(CC)CC[NH2+]c1c2ccccc2[n+](C)c2cc(OC)c(OCC[N+]3(C)CCCCC3)cc12 (nonaromatic ring conformer: 128.4621262729884 kcal/mol)

>  <smiles>  (3) 
CCN(CC)CCNc1c2ccccc2[n+](C)c2cc(OC)c(OCC[N+]3(C)CCCCC3)cc12

>  <score_type>  (3) 
oracle

>  <origin>  (3) 
adg

>  <m_score__min__energy>  (3) 
-3.4700000000000002

>  <m_primary>  (3) 
energy

$$$$
3:0
     RDKit          3D

 48 50  0  0  0  0  0  0  0  0999 V2000
   63.4980   32.1330   47.8220 C   0  0  0  0  0  0  0  0  0  0  0  0
   62.1550   31.6730   47.7070 O   0  0  0  0  0  0  0  0  0  0  0  0
   61.0180   32.4890   47.5760 C   0  0  0  0  0  0  0  0  0  0  0  0
   60.9840   33.7340   48.2280 C   0  0  0  0  0  0  0  0  0  0  0  0
   59.9270   34.6060   48.0380 C   0  0  0  0  0  0  0  0  0  0  0  0
   58.9200   34.2900   47.1410 C   0  0  0  0  0  0  0  0  0  0  0  0
   58.9240   33.0670   46.4290 C   0  0  0  0  0  0  0  0  0  0  0  0
   59.9170   32.0910   46.7460 C   0  0  0  0  0  0  0  0  0  0  0  0
   59.7650   30.7690   46.2180 C   0  0  0  0  0  0  0  0  0  0  0  0
   60.5980   29.6670   46.6840 N   0  0  0  0  0  0  0  0  0  0  0  0
   60.2890   29.1440   48.0440 C   0  0  0  0  0  0  0  0  0  0  0  0
   59.7520   27.6930   48.1260 C   0  0  0  0  0  0  0  0  0  0  0  0
   59.5580   27.1110   46.7780 N   0  0  0  0  0  0  0  0  0  0  0  0
   58.3610   26.2520   46.7320 C   0  0  0  0  0  0  0  0  0  0  0  0
   60.7390   26.3330   46.3710 C   0  0  0  0  0  0  0  0  0  0  0  0
   58.6920   30.5040   45.3220 C   0  0  0  0  0  0  0  0  0  0  0  0
   58.5170   29.2250   44.7320 C   0  0  0  0  0  0  0  0  0  0  0  0
   57.4340   28.9570   43.9000 C   0  0  0  0  0  0  0  0  0  0  0  0
   56.4960   29.9430   43.6410 C   0  0  0  0  0  0  0  0  0  0  0  0
   56.6570   31.2160   44.1770 C   0  0  0  0  0  0  0  0  0  0  0  0
   57.7790   31.5390   44.9870 C   0  0  0  0  0  0  0  0  0  0  0  0
   57.9750   32.8180   45.4580 N   0  0  0  0  0  0  0  0  0  0  0  0
   57.2040   33.9420   44.8750 C   0  0  0  0  0  0  0  0  0  0  0  0
   63.7645   32.2243   48.8853 H   0  0  0  0  0  0  0  0  0  0  0  0
   64.1744   31.4153   47.3348 H   0  0  0  0  0  0  0  0  0  0  0  0
   63.5923   33.1147   47.3348 H   0  0  0  0  0  0  0  0  0  0  0  0
   61.8087   34.0185   48.8980 H   0  0  0  0  0  0  0  0  0  0  0  0
   59.8862   35.5509   48.5996 H   0  0  0  0  0  0  0  0  0  0  0  0
   58.0998   35.0048   46.9786 H   0  0  0  0  0  0  0  0  0  0  0  0
   60.6250   28.8940   45.9860 H   0  0  0  0  0  0  0  0  0  0  0  0
   61.6010   29.9550   46.6560 H   0  0  0  0  0  0  0  0  0  0  0  0
   61.2140   29.1911   48.6374 H   0  0  0  0  0  0  0  0  0  0  0  0
   59.4706   29.7767   48.4180 H   0  0  0  0  0  0  0  0  0  0  0  0
   60.4729   27.0756   48.6819 H   0  0  0  0  0  0  0  0  0  0  0  0
   58.7784   27.7128   48.6376 H   0  0  0  0  0  0  0  0  0  0  0  0
   58.0370   26.0195   47.7571 H   0  0  0  0  0  0  0  0  0  0  0  0
   57.5527   26.7775   46.2023 H   0  0  0  0  0  0  0  0  0  0  0  0
   58.6000   25.3181   46.2023 H   0  0  0  0  0  0  0  0  0  0  0  0
   61.2728   25.9814   47.2662 H   0  0  0  0  0  0  0  0  0  0  0  0
   60.4194   25.4680   45.7713 H   0  0  0  0  0  0  0  0  0  0  0  0
   61.4076   26.9681   45.7713 H   0  0  0  0  0  0  0  0  0  0  0  0
   59.2507   28.4312   44.9360 H   0  0  0  0  0  0  0  0  0  0  0  0
   57.3226   27.9607   43.4473 H   0  0  0  0  0  0  0  0  0  0  0  0
   55.6229   29.7187   43.0107 H   0  0  0  0  0  0  0  0  0  0  0  0
   55.9012   31.9879   43.9700 H   0  0  0  0  0  0  0  0  0  0  0  0
   56.7826   34.5563   45.6843 H   0  0  0  0  0  0  0  0  0  0  0  0
   57.8693   34.5599   44.2540 H   0  0  0  0  0  0  0  0  0  0  0  0
   56.3880   33.5438   44.2540 H   0  0  0  0  0  0  0  0  0  0  0  0
  1  2  1  0
  2  3  1  0
  3  4  2  0
  4  5  1  0
  5  6  2  0
  6  7  1  0
  7  8  2  0
  8  9  1  0
  9 10  1  0
 10 11  1  0
 11 12  1  0
 12 13  1  0
 13 14  1  0
 13 15  1  0
  9 16  2  0
 16 17  1  0
 17 18  2  0
 18 19  1  0
 19 20  2  0
 20 21  1  0
 21 22  2  0
 22 23  1  0
  8  3  1  0
 21 16  1  0
 22  7  1  0
  1 24  1  0
  1 25  1  0
  1 26  1  0
  4 27  1  0
  5 28  1  0
  6 29  1  0
 10 30  1  0
 10 31  1  0
 11 32  1  0
 11 33  1  0
 12 34  1  0
 12 35  1  0
 14 36  1  0
 14 37  1  0
 14 38  1  0
 15 39  1  0
 15 40  1  0
 15 41  1  0
 17 42  1  0
 18 43  1  0
 19 44  1  0
 20 45  1  0
 23 46  1  0
 23 47  1  0
 23 48  1  0
M  CHG  2  10   1  22   1
M  END
>  <UniqueID>  (4) 
4

>  <SMILES>  (4) 
COc1cccc2c1c([NH2+]CCN(C)C)c1ccccc1[n+]2C

>  <Energy>  (4) 
88.67294058840844

>  <Genealogy>  (4) 
COc1cccc2c1c([NH2+]CCN(C)C)c1ccccc1[n+]2C (protonated)
COc1cccc2c1c([NH2+]CCN(C)C)c1ccccc1[n+]2C (3D coordinates assigned)
COc1cccc2c1c([NH2+]CCN(C)C)c1ccccc1[n+]2C (optimized conformer: 88.67294058840844 kcal/mol)

>  <smiles>  (4) 
COc1cccc2c1c(NCCN(C)C)c1ccccc1[n+]2C

>  <score_type>  (4) 
oracle

>  <origin>  (4) 
adg

>  <m_score__min__energy>  (4) 
-3.3999999999999999

>  <m_primary>  (4) 
energy

$$$$
4:0
     RDKit          3D

 58 61  0  0  0  0  0  0  0  0999 V2000
   63.7720   32.9010   47.6980 C   0  0  0  0  0  0  0  0  0  0  0  0
   62.7920   33.8760   48.0240 O   0  0  0  0  0  0  0  0  0  0  0  0
   61.4560   33.7690   47.6200 C   0  0  0  0  0  0  0  0  0  0  0  0
   61.0860   34.1860   46.3370 C   0  0  0  0  0  0  0  0  0  0  0  0
   59.7580   34.1230   45.9270 C   0  0  0  0  0  0  0  0  0  0  0  0
   58.7580   33.6380   46.7880 C   0  0  0  0  0  0  0  0  0  0  0  0
   57.3310   33.6360   46.2820 C   0  0  0  0  0  0  0  0  0  0  0  0
   57.0210   32.3480   45.6420 N   0  0  0  0  0  0  0  0  0  0  0  0
   57.9340   32.0800   44.5200 C   0  0  0  0  0  0  0  0  0  0  0  0
   57.1670   31.5480   43.2950 C   0  0  0  0  0  0  0  0  0  0  0  0
   56.2750   30.3550   43.6590 C   0  0  0  0  0  0  0  0  0  0  0  0
   56.5530   29.9150   45.0350 N   0  0  0  0  0  0  0  0  0  0  0  0
   56.9790   28.5090   45.1040 C   0  0  0  0  0  0  0  0  0  0  0  0
   57.9850   28.2710   46.2010 C   0  0  0  0  0  0  0  0  0  0  0  0
   58.0910   26.9910   46.7970 C   0  0  0  0  0  0  0  0  0  0  0  0
   58.9770   26.7630   47.8640 C   0  0  0  0  0  0  0  0  0  0  0  0
   59.7680   27.8300   48.2990 C   0  0  0  0  0  0  0  0  0  0  0  0
   59.6700   29.0700   47.7230 C   0  0  0  0  0  0  0  0  0  0  0  0
   60.5190   29.9170   48.4060 C   0  0  0  0  0  0  0  0  0  0  0  0
   61.0970   29.1320   49.4010 C   0  0  0  0  0  0  0  0  0  0  0  0
   60.6570   27.8530   49.3150 N   0  0  0  0  0  0  0  0  0  0  0  0
   60.9340   26.7950   50.2790 C   0  0  0  0  0  0  0  0  0  0  0  0
   58.8030   29.3250   46.6620 C   0  0  0  0  0  0  0  0  0  0  0  0
   59.1210   33.1690   48.0780 C   0  0  0  0  0  0  0  0  0  0  0  0
   58.1760   32.6000   48.9590 C   0  0  0  0  0  0  0  0  0  0  0  0
   58.5600   32.1620   50.2290 C   0  0  0  0  0  0  0  0  0  0  0  0
   59.8850   32.2770   50.6450 C   0  0  0  0  0  0  0  0  0  0  0  0
   60.8410   32.8230   49.7880 C   0  0  0  0  0  0  0  0  0  0  0  0
   60.4800   33.2630   48.5010 C   0  0  0  0  0  0  0  0  0  0  0  0
   64.1937   32.4814   48.6232 H   0  0  0  0  0  0  0  0  0  0  0  0
   63.3072   32.0965   47.1091 H   0  0  0  0  0  0  0  0  0  0  0  0
   64.5741   33.3699   47.1091 H   0  0  0  0  0  0  0  0  0  0  0  0
   61.8521   34.5673   45.6459 H   0  0  0  0  0  0  0  0  0  0  0  0
   59.4866   34.4574   44.9148 H   0  0  0  0  0  0  0  0  0  0  0  0
   56.6455   33.7961   47.1272 H   0  0  0  0  0  0  0  0  0  0  0  0
   57.2108   34.4421   45.5433 H   0  0  0  0  0  0  0  0  0  0  0  0
   57.1740   31.5950   46.3520 H   0  0  0  0  0  0  0  0  0  0  0  0
   58.4480   33.0127   44.2446 H   0  0  0  0  0  0  0  0  0  0  0  0
   58.6603   31.3166   44.8357 H   0  0  0  0  0  0  0  0  0  0  0  0
   56.5369   32.3542   42.8911 H   0  0  0  0  0  0  0  0  0  0  0  0
   57.9024   31.2116   42.5493 H   0  0  0  0  0  0  0  0  0  0  0  0
   55.2191   30.6528   43.5789 H   0  0  0  0  0  0  0  0  0  0  0  0
   56.4843   29.5256   42.9674 H   0  0  0  0  0  0  0  0  0  0  0  0
   55.6960   30.0660   45.6200 H   0  0  0  0  0  0  0  0  0  0  0  0
   56.0960   27.8803   45.2909 H   0  0  0  0  0  0  0  0  0  0  0  0
   57.4572   28.2541   44.1467 H   0  0  0  0  0  0  0  0  0  0  0  0
   57.4716   26.1639   46.4199 H   0  0  0  0  0  0  0  0  0  0  0  0
   59.0458   25.7748   48.3422 H   0  0  0  0  0  0  0  0  0  0  0  0
   60.7004   30.9836   48.2072 H   0  0  0  0  0  0  0  0  0  0  0  0
   61.8115   29.4993   50.1524 H   0  0  0  0  0  0  0  0  0  0  0  0
   60.8300   27.1923   51.2995 H   0  0  0  0  0  0  0  0  0  0  0  0
   60.2216   25.9697   50.1325 H   0  0  0  0  0  0  0  0  0  0  0  0
   61.9594   26.4247   50.1325 H   0  0  0  0  0  0  0  0  0  0  0  0
   58.7574   30.3206   46.1965 H   0  0  0  0  0  0  0  0  0  0  0  0
   57.1272   32.5005   48.6426 H   0  0  0  0  0  0  0  0  0  0  0  0
   57.8113   31.7234   50.9051 H   0  0  0  0  0  0  0  0  0  0  0  0
   60.1773   31.9371   51.6495 H   0  0  0  0  0  0  0  0  0  0  0  0
   61.8857   32.9103   50.1211 H   0  0  0  0  0  0  0  0  0  0  0  0
  1  2  1  0
  2  3  1  0
  3  4  2  0
  4  5  1  0
  5  6  2  0
  6  7  1  0
  7  8  1  0
  8  9  1  0
  9 10  1  0
 10 11  1  0
 11 12  1  0
 12 13  1  0
 13 14  1  0
 14 15  2  0
 15 16  1  0
 16 17  2  0
 17 18  1  0
 18 19  1  0
 19 20  2  0
 20 21  1  0
 21 22  1  0
 18 23  2  0
  6 24  1  0
 24 25  2  0
 25 26  1  0
 26 27  2  0
 27 28  1  0
 28 29  2  0
 29  3  1  0
 23 14  1  0
 29 24  1  0
 21 17  1  0
  1 30  1  0
  1 31  1  0
  1 32  1  0
  4 33  1  0
  5 34  1  0
  7 35  1  0
  7 36  1  0
  8 37  1  0
  9 38  1  0
  9 39  1  0
 10 40  1  0
 10 41  1  0
 11 42  1  0
 11 43  1  0
 12 44  1  0
 13 45  1  0
 13 46  1  0
 15 47  1  0
 16 48  1  0
 19 49  1  0
 20 50  1  0
 22 51  1  0
 22 52  1  0
 22 53  1  0
 23 54  1  0
 25 55  1  0
 26 56  1  0
 27 57  1  0
 28 58  1  0
M  END
>  <UniqueID>  (5) 
5

>  <SMILES>  (5) 
COc1ccc(CNCCCNCc2ccc3c(ccn3C)c2)c2ccccc12

>  <Energy>  (5) 
104.622338064675

>  <Genealogy>  (5) 
COc1ccc(CNCCCNCc2ccc3c(ccn3C)c2)c2ccccc12 (3D coordinates assigned)
COc1ccc(CNCCCNCc2ccc3c(ccn3C)c2)c2ccccc12 (optimized conformer: 104.622338064675 kcal/mol)

>  <smiles>  (5) 
COc1ccc(CNCCCNCc2ccc3c(ccn3C)c2)c2ccccc12

>  <score_type>  (5) 
oracle

>  <origin>  (5) 
adg

>  <m_score__min__energy>  (5) 
-7.6799999999999997

>  <m_primary>  (5) 
energy

$$$$
5:0
     RDKit          3D

 48 50  0  0  0  0  0  0  0  0999 V2000
   58.5490   24.7030   46.6180 C   0  0  0  0  0  0  0  0  0  0  0  0
   58.0540   25.9700   45.9850 C   0  0  0  0  0  0  0  0  0  0  0  0
   56.7330   26.4010   46.1890 C   0  0  0  0  0  0  0  0  0  0  0  0
   56.2920   27.6030   45.6230 C   0  0  0  0  0  0  0  0  0  0  0  0
   57.1670   28.4050   44.8700 C   0  0  0  0  0  0  0  0  0  0  0  0
   56.7220   29.6990   44.2980 C   0  0  0  0  0  0  0  0  0  0  0  0
   55.5690   30.1280   44.5640 O   0  0  0  0  0  0  0  0  0  0  0  0
   57.5830   30.4560   43.4290 N   0  0  0  0  0  0  0  0  0  0  0  0
   57.2820   31.8310   43.0330 C   0  0  0  0  0  0  0  0  0  0  0  0
   57.7820   32.8330   44.0790 C   0  0  0  0  0  0  0  0  0  0  0  0
   58.3570   32.1380   45.2800 C   0  0  0  0  0  0  0  0  0  0  0  0
   59.2300   31.1120   45.1870 N   0  0  0  0  0  0  0  0  0  0  0  0
   59.5450   30.7590   46.4260 N   0  0  0  0  0  0  0  0  0  0  0  0
   58.8660   31.5810   47.2530 C   0  0  0  0  0  0  0  0  0  0  0  0
   58.9390   31.4550   49.0420 S   0  0  0  0  0  0  0  0  0  0  0  0
   59.8320   33.0330   49.2850 C   0  0  0  0  0  0  0  0  0  0  0  0
   61.1330   33.0540   48.5140 C   0  0  0  0  0  0  0  0  0  0  0  0
   62.1910   32.2310   48.9460 C   0  0  0  0  0  0  0  0  0  0  0  0
   63.4020   32.2000   48.2520 C   0  0  0  0  0  0  0  0  0  0  0  0
   63.5770   32.9950   47.1210 C   0  0  0  0  0  0  0  0  0  0  0  0
   62.5460   33.8340   46.6900 C   0  0  0  0  0  0  0  0  0  0  0  0
   61.3210   33.8670   47.3700 C   0  0  0  0  0  0  0  0  0  0  0  0
   60.0740   34.9550   46.7690 Cl  0  0  0  0  0  0  0  0  0  0  0  0
   58.0970   32.4490   46.5680 N   0  0  0  0  0  0  0  0  0  0  0  0
   57.2900   33.5450   47.1070 C   0  0  0  0  0  0  0  0  0  0  0  0
   58.4830   27.9540   44.6530 C   0  0  0  0  0  0  0  0  0  0  0  0
   58.9210   26.7480   45.2080 C   0  0  0  0  0  0  0  0  0  0  0  0
   58.5107   24.8009   47.7130 H   0  0  0  0  0  0  0  0  0  0  0  0
   57.9130   23.8627   46.3026 H   0  0  0  0  0  0  0  0  0  0  0  0
   59.5862   24.5164   46.3026 H   0  0  0  0  0  0  0  0  0  0  0  0
   56.0441   25.7934   46.7942 H   0  0  0  0  0  0  0  0  0  0  0  0
   55.2498   27.9233   45.7690 H   0  0  0  0  0  0  0  0  0  0  0  0
   58.4010   29.9880   42.9820 H   0  0  0  0  0  0  0  0  0  0  0  0
   57.7720   32.0424   42.0711 H   0  0  0  0  0  0  0  0  0  0  0  0
   56.1906   31.9362   42.9448 H   0  0  0  0  0  0  0  0  0  0  0  0
   58.5602   33.4642   43.6253 H   0  0  0  0  0  0  0  0  0  0  0  0
   56.9268   33.4406   44.4098 H   0  0  0  0  0  0  0  0  0  0  0  0
   59.1966   33.8611   48.9379 H   0  0  0  0  0  0  0  0  0  0  0  0
   60.0616   33.1401   50.3554 H   0  0  0  0  0  0  0  0  0  0  0  0
   62.0617   31.6049   49.8412 H   0  0  0  0  0  0  0  0  0  0  0  0
   64.2178   31.5482   48.5979 H   0  0  0  0  0  0  0  0  0  0  0  0
   64.5269   32.9621   46.5674 H   0  0  0  0  0  0  0  0  0  0  0  0
   62.6973   34.4746   45.8087 H   0  0  0  0  0  0  0  0  0  0  0  0
   57.3143   33.5120   48.2062 H   0  0  0  0  0  0  0  0  0  0  0  0
   57.6979   34.5058   46.7599 H   0  0  0  0  0  0  0  0  0  0  0  0
   56.2514   33.4407   46.7599 H   0  0  0  0  0  0  0  0  0  0  0  0
   59.1720   28.5554   44.0419 H   0  0  0  0  0  0  0  0  0  0  0  0
   59.9526   26.4083   45.0333 H   0  0  0  0  0  0  0  0  0  0  0  0
  1  2  1  0
  2  3  2  0
  3  4  1  0
  4  5  2  0
  5  6  1  0
  6  7  2  0
  6  8  1  0
  8  9  1  0
  9 10  1  0
 10 11  1  0
 11 12  2  0
 12 13  1  0
 13 14  2  0
 14 15  1  0
 15 16  1  0
 16 17  1  0
 17 18  2  0
 18 19  1  0
 19 20  2  0
 20 21  1  0
 21 22  2  0
 22 23  1  0
 14 24  1  0
 24 25  1  0
  5 26  1  0
 26 27  2  0
 27  2  1  0
 24 11  1  0
 22 17  1  0
  1 28  1  0
  1 29  1  0
  1 30  1  0
  3 31  1  0
  4 32  1  0
  8 33  1  0
  9 34  1  0
  9 35  1  0
 10 36  1  0
 10 37  1  0
 16 38  1  0
 16 39  1  0
 18 40  1  0
 19 41  1  0
 20 42  1  0
 21 43  1  0
 25 44  1  0
 25 45  1  0
 25 46  1  0
 26 47  1  0
 27 48  1  0
M  END
>  <UniqueID>  (6) 
6

>  <SMILES>  (6) 
Cc1ccc(C(=O)NCCc2nnc(SCc3ccccc3Cl)n2C)cc1

>  <Energy>  (6) 
75.35939251994816

>  <Genealogy>  (6) 
Cc1ccc(C(=O)NCCc2nnc(SCc3ccccc3Cl)n2C)cc1 (3D coordinates assigned)
Cc1ccc(C(=O)NCCc2nnc(SCc3ccccc3Cl)n2C)cc1 (optimized conformer: 75.35939251994816 kcal/mol)

>  <smiles>  (6) 
Cc1ccc(C(=O)NCCc2nnc(SCc3ccccc3Cl)n2C)cc1

>  <score_type>  (6) 
oracle

>  <origin>  (6) 
adg

>  <m_score__min__energy>  (6) 
-8.75

>  <m_primary>  (6) 
energy

$$$$
6:0
     RDKit          3D

 72 76  0  0  0  0  0  0  0  0999 V2000
   63.7770   33.0200   47.1400 C   0  0  0  0  0  0  0  0  0  0  0  0
   62.9320   32.2300   48.1350 C   0  0  0  0  0  0  0  0  0  0  0  0
   62.6890   33.0180   49.3620 N   0  0  0  0  0  0  0  0  0  0  0  0
   63.8770   33.1750   50.2310 C   0  0  0  0  0  0  0  0  0  0  0  0
   64.8400   31.9870   50.1880 C   0  0  0  0  0  0  0  0  0  0  0  0
   61.8570   34.2390   49.2210 C   0  0  0  0  0  0  0  0  0  0  0  0
   60.3380   34.0230   49.4430 C   0  0  0  0  0  0  0  0  0  0  0  0
   60.0430   32.6830   49.9850 N   0  0  0  0  0  0  0  0  0  0  0  0
   59.5430   31.7980   48.9580 C   0  0  0  0  0  0  0  0  0  0  0  0
   58.7730   32.3330   47.9660 N   0  0  0  0  0  0  0  0  0  0  0  0
   58.3280   31.5540   46.9570 C   0  0  0  0  0  0  0  0  0  0  0  0
   57.5930   31.9700   45.9150 N   0  0  0  0  0  0  0  0  0  0  0  0
   57.1670   33.3340   45.6080 C   0  0  0  0  0  0  0  0  0  0  0  0
   58.0410   33.9560   44.5090 C   0  0  0  0  0  0  0  0  0  0  0  0
   59.0620   34.9540   45.0680 C   0  0  0  0  0  0  0  0  0  0  0  0
   59.5980   34.4670   46.2850 O   0  0  0  0  0  0  0  0  0  0  0  0
   60.8450   33.8460   46.0620 C   0  0  0  0  0  0  0  0  0  0  0  0
   57.3650   30.9170   45.1440 N   0  0  0  0  0  0  0  0  0  0  0  0
   57.9740   29.8660   45.7430 C   0  0  0  0  0  0  0  0  0  0  0  0
   57.8200   28.4950   45.2410 C   0  0  0  0  0  0  0  0  0  0  0  0
   58.2890   28.1620   43.9640 C   0  0  0  0  0  0  0  0  0  0  0  0
   58.1410   26.8610   43.4760 C   0  0  0  0  0  0  0  0  0  0  0  0
   57.5050   25.8820   44.2570 C   0  0  0  0  0  0  0  0  0  0  0  0
   57.3600   24.5710   43.7800 C   0  0  0  0  0  0  0  0  0  0  0  0
   56.7240   23.6050   44.5670 C   0  0  0  0  0  0  0  0  0  0  0  0
   56.2270   23.9420   45.8290 C   0  0  0  0  0  0  0  0  0  0  0  0
   56.3650   25.2440   46.3160 C   0  0  0  0  0  0  0  0  0  0  0  0
   57.0050   26.2230   45.5390 C   0  0  0  0  0  0  0  0  0  0  0  0
   57.1600   27.5320   46.0190 C   0  0  0  0  0  0  0  0  0  0  0  0
   58.6080   30.2460   46.8890 N   0  0  0  0  0  0  0  0  0  0  0  0
   59.4130   29.6300   47.8080 C   0  0  0  0  0  0  0  0  0  0  0  0
   59.8330   28.2900   47.6850 C   0  0  0  0  0  0  0  0  0  0  0  0
   60.6550   27.7150   48.6530 C   0  0  0  0  0  0  0  0  0  0  0  0
   61.0890   28.4640   49.7440 C   0  0  0  0  0  0  0  0  0  0  0  0
   60.7200   29.8030   49.8700 C   0  0  0  0  0  0  0  0  0  0  0  0
   59.8920   30.4130   48.9030 C   0  0  0  0  0  0  0  0  0  0  0  0
   64.4741   33.6717   47.6871 H   0  0  0  0  0  0  0  0  0  0  0  0
   64.3464   32.3228   46.5078 H   0  0  0  0  0  0  0  0  0  0  0  0
   63.1197   33.6350   46.5078 H   0  0  0  0  0  0  0  0  0  0  0  0
   61.9669   31.9806   47.6699 H   0  0  0  0  0  0  0  0  0  0  0  0
   63.4750   31.3130   48.4076 H   0  0  0  0  0  0  0  0  0  0  0  0
   64.4231   34.0748   49.9113 H   0  0  0  0  0  0  0  0  0  0  0  0
   63.5080   33.2487   51.2647 H   0  0  0  0  0  0  0  0  0  0  0  0
   65.0891   31.6796   51.2144 H   0  0  0  0  0  0  0  0  0  0  0  0
   64.3639   31.1480   49.6594 H   0  0  0  0  0  0  0  0  0  0  0  0
   65.7593   32.2792   49.6594 H   0  0  0  0  0  0  0  0  0  0  0  0
   62.2080   34.9784   49.9559 H   0  0  0  0  0  0  0  0  0  0  0  0
   61.9722   34.5722   48.1790 H   0  0  0  0  0  0  0  0  0  0  0  0
   59.9714   34.7809   50.1510 H   0  0  0  0  0  0  0  0  0  0  0  0
   59.8363   34.1129   48.4682 H   0  0  0  0  0  0  0  0  0  0  0  0
   60.9000   32.2760   50.4260 H   0  0  0  0  0  0  0  0  0  0  0  0
   59.3370   32.7630   50.7540 H   0  0  0  0  0  0  0  0  0  0  0  0
   56.1214   33.3149   45.2668 H   0  0  0  0  0  0  0  0  0  0  0  0
   57.2674   33.9430   46.5185 H   0  0  0  0  0  0  0  0  0  0  0  0
   58.5818   33.1509   43.9900 H   0  0  0  0  0  0  0  0  0  0  0  0
   57.3778   34.5038   43.8233 H   0  0  0  0  0  0  0  0  0  0  0  0
   59.8754   35.0895   44.3400 H   0  0  0  0  0  0  0  0  0  0  0  0
   58.5627   35.9166   45.2525 H   0  0  0  0  0  0  0  0  0  0  0  0
   61.3158   33.6115   47.0281 H   0  0  0  0  0  0  0  0  0  0  0  0
   60.6954   32.9172   45.4920 H   0  0  0  0  0  0  0  0  0  0  0  0
   61.4961   34.5251   45.4920 H   0  0  0  0  0  0  0  0  0  0  0  0
   58.7760   28.9279   43.3425 H   0  0  0  0  0  0  0  0  0  0  0  0
   58.5236   26.6029   42.4775 H   0  0  0  0  0  0  0  0  0  0  0  0
   57.7468   24.3021   42.7860 H   0  0  0  0  0  0  0  0  0  0  0  0
   56.6147   22.5769   44.1913 H   0  0  0  0  0  0  0  0  0  0  0  0
   55.7249   23.1786   46.4415 H   0  0  0  0  0  0  0  0  0  0  0  0
   55.9716   25.5028   47.3101 H   0  0  0  0  0  0  0  0  0  0  0  0
   56.7630   27.8041   47.0081 H   0  0  0  0  0  0  0  0  0  0  0  0
   59.5098   27.6938   46.8189 H   0  0  0  0  0  0  0  0  0  0  0  0
   60.9626   26.6635   48.5545 H   0  0  0  0  0  0  0  0  0  0  0  0
   61.7258   27.9973   50.5099 H   0  0  0  0  0  0  0  0  0  0  0  0
   61.0771   30.3886   50.7300 H   0  0  0  0  0  0  0  0  0  0  0  0
  1  2  1  0
  2  3  1  0
  3  4  1  0
  4  5  1  0
  3  6  1  0
  6  7  1  0
  7  8  1  0
  8  9  1  0
  9 10  2  0
 10 11  1  0
 11 12  1  0
 12 13  1  0
 13 14  1  0
 14 15  1  0
 15 16  1  0
 16 17  1  0
 12 18  1  0
 18 19  2  0
 19 20  1  0
 20 21  2  0
 21 22  1  0
 22 23  2  0
 23 24  1  0
 24 25  2  0
 25 26  1  0
 26 27  2  0
 27 28  1  0
 28 29  2  0
 19 30  1  0
 30 31  1  0
 31 32  2  0
 32 33  1  0
 33 34  2  0
 34 35  1  0
 35 36  2  0
 36  9  1  0
 30 11  2  0
 36 31  1  0
 29 20  1  0
 28 23  1  0
  1 37  1  0
  1 38  1  0
  1 39  1  0
  2 40  1  0
  2 41  1  0
  4 42  1  0
  4 43  1  0
  5 44  1  0
  5 45  1  0
  5 46  1  0
  6 47  1  0
  6 48  1  0
  7 49  1  0
  7 50  1  0
  8 51  1  0
  8 52  1  0
 13 53  1  0
 13 54  1  0
 14 55  1  0
 14 56  1  0
 15 57  1  0
 15 58  1  0
 17 59  1  0
 17 60  1  0
 17 61  1  0
 21 62  1  0
 22 63  1  0
 24 64  1  0
 25 65  1  0
 26 66  1  0
 27 67  1  0
 29 68  1  0
 32 69  1  0
 33 70  1  0
 34 71  1  0
 35 72  1  0
M  CHG  2   8   1  30   1
M  END
>  <UniqueID>  (7) 
7

>  <SMILES>  (7) 
CCN(CC)CC[NH2+]c1nc2n(CCCOC)nc(-c3ccc4ccccc4c3)[n+]2c2ccccc12

>  <Energy>  (7) 
140.12644858678618

>  <Genealogy>  (7) 
CCN(CC)CC[NH2+]c1nc2n(CCCOC)nc(-c3ccc4ccccc4c3)[n+]2c2ccccc12 (protonated)
CCN(CC)CC[NH2+]c1nc2n(CCCOC)nc(-c3ccc4ccccc4c3)[n+]2c2ccccc12 (3D coordinates assigned)
CCN(CC)CC[NH2+]c1nc2n(CCCOC)nc(-c3ccc4ccccc4c3)[n+]2c2ccccc12 (optimized conformer: 140.12644858678618 kcal/mol)

>  <smiles>  (7) 
CCN(CC)CCNc1nc2n(CCCOC)nc(-c3ccc4ccccc4c3)[n+]2c2ccccc12

>  <score_type>  (7) 
oracle

>  <origin>  (7) 
adg

>  <m_score__min__energy>  (7) 
-6.6699999999999999

>  <m_primary>  (7) 
energy

$$$$
7:0
     RDKit          3D

 51 53  0  0  0  0  0  0  0  0999 V2000
   52.4320   30.2250   50.5040 C   0  0  0  0  0  0  0  0  0  0  0  0
   53.2250   30.8180   51.6650 C   0  0  0  0  0  0  0  0  0  0  0  0
   54.6580   30.8410   51.3370 N   0  0  0  0  0  0  0  0  0  0  0  0
   55.4590   30.1570   52.3650 C   0  0  0  0  0  0  0  0  0  0  0  0
   56.6550   31.0240   52.7540 C   0  0  0  0  0  0  0  0  0  0  0  0
   57.1040   31.8150   51.5980 N   0  0  0  0  0  0  0  0  0  0  0  0
   57.6560   33.1150   52.0060 C   0  0  0  0  0  0  0  0  0  0  0  0
   59.1290   33.2350   51.5770 C   0  0  0  0  0  0  0  0  0  0  0  0
   59.4490   32.2940   50.5010 N   0  0  0  0  0  0  0  0  0  0  0  0
   60.4210   32.6080   49.4850 C   0  0  0  0  0  0  0  0  0  0  0  0
   60.0050   33.0370   48.2100 C   0  0  0  0  0  0  0  0  0  0  0  0
   58.6340   33.0890   47.8700 C   0  0  0  0  0  0  0  0  0  0  0  0
   58.2280   33.4980   46.6030 C   0  0  0  0  0  0  0  0  0  0  0  0
   59.1750   33.8530   45.6500 C   0  0  0  0  0  0  0  0  0  0  0  0
   60.5320   33.8270   45.9660 C   0  0  0  0  0  0  0  0  0  0  0  0
   60.9770   33.4550   47.2600 C   0  0  0  0  0  0  0  0  0  0  0  0
   62.3140   33.4890   47.6070 N   0  0  0  0  0  0  0  0  0  0  0  0
   63.2860   34.1960   46.7390 C   0  0  0  0  0  0  0  0  0  0  0  0
   62.7430   32.8790   48.7710 C   0  0  0  0  0  0  0  0  0  0  0  0
   64.1190   32.6380   49.0250 C   0  0  0  0  0  0  0  0  0  0  0  0
   64.5420   32.0470   50.2160 C   0  0  0  0  0  0  0  0  0  0  0  0
   66.4020   31.7360   50.5250 Br  0  0  0  0  0  0  0  0  0  0  0  0
   63.6070   31.6570   51.1700 C   0  0  0  0  0  0  0  0  0  0  0  0
   62.2470   31.8430   50.9330 C   0  0  0  0  0  0  0  0  0  0  0  0
   61.7970   32.4520   49.7410 C   0  0  0  0  0  0  0  0  0  0  0  0
   51.6095   29.6100   50.8980 H   0  0  0  0  0  0  0  0  0  0  0  0
   52.0195   31.0381   49.8885 H   0  0  0  0  0  0  0  0  0  0  0  0
   53.0953   29.5995   49.8885 H   0  0  0  0  0  0  0  0  0  0  0  0
   52.8787   31.8445   51.8557 H   0  0  0  0  0  0  0  0  0  0  0  0
   53.0701   30.1988   52.5609 H   0  0  0  0  0  0  0  0  0  0  0  0
   54.9640   31.8430   51.3050 H   0  0  0  0  0  0  0  0  0  0  0  0
   54.8354   29.9762   53.2529 H   0  0  0  0  0  0  0  0  0  0  0  0
   55.8213   29.1989   51.9639 H   0  0  0  0  0  0  0  0  0  0  0  0
   56.3622   31.7035   53.5680 H   0  0  0  0  0  0  0  0  0  0  0  0
   57.4777   30.3738   53.0864 H   0  0  0  0  0  0  0  0  0  0  0  0
   56.2750   31.9860   50.9800 H   0  0  0  0  0  0  0  0  0  0  0  0
   57.0745   33.9197   51.5323 H   0  0  0  0  0  0  0  0  0  0  0  0
   57.5971   33.1980   53.1013 H   0  0  0  0  0  0  0  0  0  0  0  0
   59.3170   34.2598   51.2243 H   0  0  0  0  0  0  0  0  0  0  0  0
   59.7632   32.9990   52.4442 H   0  0  0  0  0  0  0  0  0  0  0  0
   58.8270   31.4630   50.3750 H   0  0  0  0  0  0  0  0  0  0  0  0
   57.8783   32.8026   48.6162 H   0  0  0  0  0  0  0  0  0  0  0  0
   57.1569   33.5402   46.3560 H   0  0  0  0  0  0  0  0  0  0  0  0
   58.8524   34.1555   44.6428 H   0  0  0  0  0  0  0  0  0  0  0  0
   61.2709   34.0998   45.1982 H   0  0  0  0  0  0  0  0  0  0  0  0
   64.0174   34.7280   47.3651 H   0  0  0  0  0  0  0  0  0  0  0  0
   63.8092   33.4659   46.1039 H   0  0  0  0  0  0  0  0  0  0  0  0
   62.7526   34.9186   46.1039 H   0  0  0  0  0  0  0  0  0  0  0  0
   64.8654   32.9225   48.2687 H   0  0  0  0  0  0  0  0  0  0  0  0
   63.9425   31.2009   52.1131 H   0  0  0  0  0  0  0  0  0  0  0  0
   61.5145   31.5114   51.6836 H   0  0  0  0  0  0  0  0  0  0  0  0
  1  2  1  0
  2  3  1  0
  3  4  1  0
  4  5  1  0
  5  6  1  0
  6  7  1  0
  7  8  1  0
  8  9  1  0
  9 10  1  0
 10 11  2  0
 11 12  1  0
 12 13  2  0
 13 14  1  0
 14 15  2  0
 15 16  1  0
 16 17  2  0
 17 18  1  0
 17 19  1  0
 19 20  2  0
 20 21  1  0
 21 22  1  0
 21 23  2  0
 23 24  1  0
 24 25  2  0
 25 10  1  0
 16 11  1  0
 25 19  1  0
  1 26  1  0
  1 27  1  0
  1 28  1  0
  2 29  1  0
  2 30  1  0
  3 31  1  0
  4 32  1  0
  4 33  1  0
  5 34  1  0
  5 35  1  0
  6 36  1  0
  7 37  1  0
  7 38  1  0
  8 39  1  0
  8 40  1  0
  9 41  1  0
 12 42  1  0
 13 43  1  0
 14 44  1  0
 15 45  1  0
 18 46  1  0
 18 47  1  0
 18 48  1  0
 20 49  1  0
 23 50  1  0
 24 51  1  0
M  CHG  1  17   1
M  END
>  <UniqueID>  (8) 
8

>  <SMILES>  (8) 
CCNCCNCCNc1c2ccccc2[n+](C)c2cc(Br)ccc12

>  <Energy>  (8) 
70.8279438673638

>  <Genealogy>  (8) 
CCNCCNCCNc1c2ccccc2[n+](C)c2cc(Br)ccc12 (3D coordinates assigned)
CCNCCNCCNc1c2ccccc2[n+](C)c2cc(Br)ccc12 (optimized conformer: 70.8279438673638 kcal/mol)

>  <smiles>  (8) 
CCNCCNCCNc1c2ccccc2[n+](C)c2cc(Br)ccc12

>  <score_type>  (8) 
oracle

>  <origin>  (8) 
adg

>  <m_score__min__energy>  (8) 
-5.9199999999999999

>  <m_primary>  (8) 
energy

$$$$
8:0
     RDKit          3D

 48 51  0  0  0  0  0  0  0  0999 V2000
   55.2130   31.1540   52.0040 C   0  0  0  0  0  0  0  0  0  0  0  0
   56.7170   31.0720   52.2400 C   0  0  0  0  0  0  0  0  0  0  0  0
   57.4290   31.9330   51.2830 N   0  0  0  0  0  0  0  0  0  0  0  0
   58.1780   33.0180   51.9420 C   0  0  0  0  0  0  0  0  0  0  0  0
   59.7060   32.8890   51.7670 C   0  0  0  0  0  0  0  0  0  0  0  0
   60.0590   31.8340   50.8000 N   0  0  0  0  0  0  0  0  0  0  0  0
   60.9130   32.3710   49.7600 C   0  0  0  0  0  0  0  0  0  0  0  0
   60.3580   32.8310   48.5600 C   0  0  0  0  0  0  0  0  0  0  0  0
   61.1690   33.3020   47.5310 C   0  0  0  0  0  0  0  0  0  0  0  0
   62.5300   33.3540   47.6220 N   0  0  0  0  0  0  0  0  0  0  0  0
   63.3330   33.8170   46.4750 C   0  0  0  0  0  0  0  0  0  0  0  0
   63.1230   32.9920   48.8200 C   0  0  0  0  0  0  0  0  0  0  0  0
   64.5220   33.1140   49.0090 C   0  0  0  0  0  0  0  0  0  0  0  0
   65.1190   32.7620   50.2160 C   0  0  0  0  0  0  0  0  0  0  0  0
   64.3470   32.2940   51.2700 C   0  0  0  0  0  0  0  0  0  0  0  0
   62.9680   32.1670   51.1290 C   0  0  0  0  0  0  0  0  0  0  0  0
   62.3260   32.4980   49.9130 C   0  0  0  0  0  0  0  0  0  0  0  0
   60.2700   33.7100   46.4480 C   0  0  0  0  0  0  0  0  0  0  0  0
   60.3740   34.2170   45.2460 O   0  0  0  0  0  0  0  0  0  0  0  0
   59.1340   34.3450   44.7860 C   0  0  0  0  0  0  0  0  0  0  0  0
   58.2140   33.9150   45.7490 C   0  0  0  0  0  0  0  0  0  0  0  0
   56.7300   33.8170   45.6220 C   0  0  0  0  0  0  0  0  0  0  0  0
   58.9980   33.5040   46.7940 C   0  0  0  0  0  0  0  0  0  0  0  0
   58.9420   32.9430   48.1290 C   0  0  0  0  0  0  0  0  0  0  0  0
   57.9020   32.6650   48.7820 O   0  0  0  0  0  0  0  0  0  0  0  0
   54.6910   31.1825   52.9718 H   0  0  0  0  0  0  0  0  0  0  0  0
   54.9803   32.0662   51.4349 H   0  0  0  0  0  0  0  0  0  0  0  0
   54.8825   30.2725   51.4349 H   0  0  0  0  0  0  0  0  0  0  0  0
   56.9427   31.4032   53.2644 H   0  0  0  0  0  0  0  0  0  0  0  0
   57.0460   30.0317   52.1006 H   0  0  0  0  0  0  0  0  0  0  0  0
   56.7400   32.3300   50.6040 H   0  0  0  0  0  0  0  0  0  0  0  0
   57.8558   33.9778   51.5119 H   0  0  0  0  0  0  0  0  0  0  0  0
   57.9641   32.9582   53.0193 H   0  0  0  0  0  0  0  0  0  0  0  0
   60.1056   33.8490   51.4083 H   0  0  0  0  0  0  0  0  0  0  0  0
   60.1402   32.6193   52.7410 H   0  0  0  0  0  0  0  0  0  0  0  0
   60.5200   31.0290   51.2780 H   0  0  0  0  0  0  0  0  0  0  0  0
   59.1960   31.4330   50.3720 H   0  0  0  0  0  0  0  0  0  0  0  0
   64.2314   34.3350   46.8417 H   0  0  0  0  0  0  0  0  0  0  0  0
   63.6319   32.9526   45.8639 H   0  0  0  0  0  0  0  0  0  0  0  0
   62.7346   34.5087   45.8639 H   0  0  0  0  0  0  0  0  0  0  0  0
   65.1472   33.4936   48.1874 H   0  0  0  0  0  0  0  0  0  0  0  0
   66.2085   32.8553   50.3351 H   0  0  0  0  0  0  0  0  0  0  0  0
   64.8272   32.0221   52.2216 H   0  0  0  0  0  0  0  0  0  0  0  0
   62.3683   31.8036   51.9765 H   0  0  0  0  0  0  0  0  0  0  0  0
   58.8688   34.7331   43.7915 H   0  0  0  0  0  0  0  0  0  0  0  0
   56.2774   33.7871   46.6241 H   0  0  0  0  0  0  0  0  0  0  0  0
   56.3503   34.6920   45.0741 H   0  0  0  0  0  0  0  0  0  0  0  0
   56.4687   32.8996   45.0741 H   0  0  0  0  0  0  0  0  0  0  0  0
  1  2  1  0
  2  3  1  0
  3  4  1  0
  4  5  1  0
  5  6  1  0
  6  7  1  0
  7  8  2  0
  8  9  1  0
  9 10  2  0
 10 11  1  0
 10 12  1  0
 12 13  2  0
 13 14  1  0
 14 15  2  0
 15 16  1  0
 16 17  2  0
  9 18  1  0
 18 19  1  0
 19 20  1  0
 20 21  2  0
 21 22  1  0
 21 23  1  0
 23 24  1  0
 24 25  2  0
 17  7  1  0
 23 18  2  0
 24  8  1  0
 17 12  1  0
  1 26  1  0
  1 27  1  0
  1 28  1  0
  2 29  1  0
  2 30  1  0
  3 31  1  0
  4 32  1  0
  4 33  1  0
  5 34  1  0
  5 35  1  0
  6 36  1  0
  6 37  1  0
 11 38  1  0
 11 39  1  0
 11 40  1  0
 13 41  1  0
 14 42  1  0
 15 43  1  0
 16 44  1  0
 20 45  1  0
 22 46  1  0
 22 47  1  0
 22 48  1  0
M  CHG  2   6   1  10   1
M  END
>  <UniqueID>  (9) 
9

>  <SMILES>  (9) 
CCNCC[NH2+]c1c2c([n+](C)c3ccccc13)-c1occ(C)c1C2=O

>  <Energy>  (9) 
143.71557994897012

>  <Genealogy>  (9) 
CCNCC[NH2+]c1c2c([n+](C)c3ccccc13)-c1occ(C)c1C2=O (protonated)
CCNCC[NH2+]c1c2c([n+](C)c3ccccc13)-c1occ(C)c1C2=O (3D coordinates assigned)
CCNCC[NH2+]c1c2c([n+](C)c3ccccc13)-c1occ(C)c1C2=O (nonaromatic ring conformer: 143.71557994897012 kcal/mol)

>  <smiles>  (9) 
CCNCCNc1c2c([n+](C)c3ccccc13)-c1occ(C)c1C2=O

>  <score_type>  (9) 
oracle

>  <origin>  (9) 
adg

>  <m_score__min__energy>  (9) 
-4.1799999999999997

>  <m_primary>  (9) 
energy

$$$$
9:0
     RDKit          3D

 38 38  0  0  0  0  0  0  0  0999 V2000
   58.7290   27.8510   46.1630 C   0  0  0  0  0  0  0  0  0  0  0  0
   59.4070   28.3380   44.8680 C   0  0  0  0  0  0  0  0  0  0  0  0
   60.7810   28.9330   45.2020 C   0  0  0  0  0  0  0  0  0  0  0  0
   58.5670   29.3330   44.1550 N   0  0  0  0  0  0  0  0  0  0  0  0
   57.3070   28.7580   43.6330 C   0  0  0  0  0  0  0  0  0  0  0  0
   56.1090   29.7150   43.7620 C   0  0  0  0  0  0  0  0  0  0  0  0
   56.3490   30.7010   44.8270 N   0  0  0  0  0  0  0  0  0  0  0  0
   57.0030   31.9220   44.3360 C   0  0  0  0  0  0  0  0  0  0  0  0
   57.0980   32.9830   45.4430 C   0  0  0  0  0  0  0  0  0  0  0  0
   58.5060   33.1140   45.9720 C   0  0  0  0  0  0  0  0  0  0  0  0
   59.1530   34.3610   45.9700 C   0  0  0  0  0  0  0  0  0  0  0  0
   60.4830   34.4670   46.3860 C   0  0  0  0  0  0  0  0  0  0  0  0
   61.1780   33.3290   46.8100 C   0  0  0  0  0  0  0  0  0  0  0  0
   63.0020   33.4730   47.3560 Br  0  0  0  0  0  0  0  0  0  0  0  0
   60.5370   32.0860   46.8280 C   0  0  0  0  0  0  0  0  0  0  0  0
   59.2070   31.9770   46.4110 C   0  0  0  0  0  0  0  0  0  0  0  0
   59.2756   28.2436   47.0331 H   0  0  0  0  0  0  0  0  0  0  0  0
   57.6897   28.2103   46.1902 H   0  0  0  0  0  0  0  0  0  0  0  0
   58.7376   26.7514   46.1902 H   0  0  0  0  0  0  0  0  0  0  0  0
   59.5350   27.4761   44.1966 H   0  0  0  0  0  0  0  0  0  0  0  0
   60.9022   28.9855   46.2940 H   0  0  0  0  0  0  0  0  0  0  0  0
   61.5699   28.2959   44.7757 H   0  0  0  0  0  0  0  0  0  0  0  0
   60.8561   29.9443   44.7757 H   0  0  0  0  0  0  0  0  0  0  0  0
   58.3330   30.1170   44.8090 H   0  0  0  0  0  0  0  0  0  0  0  0
   59.1030   29.7650   43.3660 H   0  0  0  0  0  0  0  0  0  0  0  0
   57.4474   28.5139   42.5696 H   0  0  0  0  0  0  0  0  0  0  0  0
   57.0800   27.8648   44.2335 H   0  0  0  0  0  0  0  0  0  0  0  0
   55.9622   30.2417   42.8075 H   0  0  0  0  0  0  0  0  0  0  0  0
   55.2123   29.1301   44.0145 H   0  0  0  0  0  0  0  0  0  0  0  0
   55.4240   30.9700   45.2380 H   0  0  0  0  0  0  0  0  0  0  0  0
   58.0169   31.6721   43.9902 H   0  0  0  0  0  0  0  0  0  0  0  0
   56.4025   32.3317   43.5105 H   0  0  0  0  0  0  0  0  0  0  0  0
   56.7788   33.9534   45.0350 H   0  0  0  0  0  0  0  0  0  0  0  0
   56.4475   32.6712   46.2734 H   0  0  0  0  0  0  0  0  0  0  0  0
   58.6100   35.2586   45.6393 H   0  0  0  0  0  0  0  0  0  0  0  0
   60.9841   35.4462   46.3801 H   0  0  0  0  0  0  0  0  0  0  0  0
   61.0801   31.1929   47.1707 H   0  0  0  0  0  0  0  0  0  0  0  0
   58.7068   30.9974   46.4264 H   0  0  0  0  0  0  0  0  0  0  0  0
  1  2  1  0
  2  3  1  0
  2  4  1  0
  4  5  1  0
  5  6  1  0
  6  7  1  0
  7  8  1  0
  8  9  1  0
  9 10  1  0
 10 11  2  0
 11 12  1  0
 12 13  2  0
 13 14  1  0
 13 15  1  0
 15 16  2  0
 16 10  1  0
  1 17  1  0
  1 18  1  0
  1 19  1  0
  2 20  1  0
  3 21  1  0
  3 22  1  0
  3 23  1  0
  4 24  1  0
  4 25  1  0
  5 26  1  0
  5 27  1  0
  6 28  1  0
  6 29  1  0
  7 30  1  0
  8 31  1  0
  8 32  1  0
  9 33  1  0
  9 34  1  0
 11 35  1  0
 12 36  1  0
 15 37  1  0
 16 38  1  0
M  CHG  1   4   1
M  END
>  <UniqueID>  (10) 
10

>  <SMILES>  (10) 
CC(C)[NH2+]CCNCCc1ccc(Br)cc1

>  <Energy>  (10) 
29.467919153629747

>  <Genealogy>  (10) 
CC(C)[NH2+]CCNCCc1ccc(Br)cc1 (protonated)
CC(C)[NH2+]CCNCCc1ccc(Br)cc1 (3D coordinates assigned)
CC(C)[NH2+]CCNCCc1ccc(Br)cc1 (optimized conformer: 29.467919153629747 kcal/mol)

>  <smiles>  (10) 
CC(C)NCCNCCc1ccc(Br)cc1

>  <score_type>  (10) 
oracle

>  <origin>  (10) 
adg

>  <m_score__min__energy>  (10) 
-5.3600000000000003

>  <m_primary>  (10) 
energy

$$$$
10:0
     RDKit          3D

 83 85  0  0  0  0  0  0  0  0999 V2000
   59.6370   29.3140   50.5210 C   0  0  0  0  0  0  0  0  0  0  0  0
   58.5900   29.6810   51.5680 C   0  0  0  0  0  0  0  0  0  0  0  0
   57.5460   30.5490   50.9720 N   0  0  0  0  0  0  0  0  0  0  0  0
   56.6990   31.1670   52.0190 C   0  0  0  0  0  0  0  0  0  0  0  0
   55.2850   30.5910   51.9800 C   0  0  0  0  0  0  0  0  0  0  0  0
   58.1410   31.5790   50.0840 C   0  0  0  0  0  0  0  0  0  0  0  0
   58.9040   32.6090   50.9140 C   0  0  0  0  0  0  0  0  0  0  0  0
   60.1480   32.8920   50.3110 O   0  0  0  0  0  0  0  0  0  0  0  0
   60.0820   34.0990   49.5710 C   0  0  0  0  0  0  0  0  0  0  0  0
   61.3970   34.3100   48.8230 C   0  0  0  0  0  0  0  0  0  0  0  0
   62.5530   34.6140   49.7870 C   0  0  0  0  0  0  0  0  0  0  0  0
   63.5390   33.5260   49.7540 N   0  0  0  0  0  0  0  0  0  0  0  0
   63.5950   32.8710   48.4380 C   0  0  0  0  0  0  0  0  0  0  0  0
   62.9760   31.4580   48.5150 C   0  0  2  0  0  0  0  0  0  0  0  0
   62.0360   31.2060   47.3050 C   0  0  0  0  0  0  0  0  0  0  0  0
   60.6340   31.1850   47.7220 N   0  0  0  0  0  0  0  0  0  0  0  0
   59.5780   31.0160   46.7590 C   0  0  0  0  0  0  0  0  0  0  0  0
   59.0170   32.1310   46.1100 C   0  0  0  0  0  0  0  0  0  0  0  0
   59.4240   33.4430   46.4350 C   0  0  0  0  0  0  0  0  0  0  0  0
   58.8440   34.5460   45.8150 C   0  0  0  0  0  0  0  0  0  0  0  0
   57.8360   34.3660   44.8780 C   0  0  0  0  0  0  0  0  0  0  0  0
   57.4240   33.0810   44.5290 C   0  0  0  0  0  0  0  0  0  0  0  0
   58.0280   31.9340   45.1080 C   0  0  0  0  0  0  0  0  0  0  0  0
   57.6660   30.6540   44.7310 N   0  0  0  0  0  0  0  0  0  0  0  0
   56.8610   30.4430   43.5070 C   0  0  0  0  0  0  0  0  0  0  0  0
   58.0660   29.5710   45.4920 C   0  0  0  0  0  0  0  0  0  0  0  0
   57.4940   28.2830   45.3170 C   0  0  0  0  0  0  0  0  0  0  0  0
   57.9300   27.1930   46.0700 C   0  0  0  0  0  0  0  0  0  0  0  0
   58.9210   27.3580   47.0310 C   0  0  0  0  0  0  0  0  0  0  0  0
   59.4690   28.6180   47.2580 C   0  0  0  0  0  0  0  0  0  0  0  0
   59.0540   29.7350   46.5000 C   0  0  0  0  0  0  0  0  0  0  0  0
   62.2140   31.3000   49.7720 N   0  0  0  0  0  0  0  0  0  0  0  0
   62.8350   30.3170   50.6820 C   0  0  0  0  0  0  0  0  0  0  0  0
   63.8030   30.9820   51.6800 C   0  0  0  0  0  0  0  0  0  0  0  0
   63.0660   31.8760   52.6860 C   0  0  0  0  0  0  0  0  0  0  0  0
   61.8450   32.4230   52.1030 N   0  0  0  0  0  0  0  0  0  0  0  0
   60.5604   28.9903   51.0236 H   0  0  0  0  0  0  0  0  0  0  0  0
   59.2557   28.4959   49.8922 H   0  0  0  0  0  0  0  0  0  0  0  0
   59.8499   30.1911   49.8922 H   0  0  0  0  0  0  0  0  0  0  0  0
   58.1223   28.7619   51.9507 H   0  0  0  0  0  0  0  0  0  0  0  0
   59.0809   30.2249   52.3885 H   0  0  0  0  0  0  0  0  0  0  0  0
   57.1425   30.9685   53.0058 H   0  0  0  0  0  0  0  0  0  0  0  0
   56.6445   32.2502   51.8356 H   0  0  0  0  0  0  0  0  0  0  0  0
   54.9210   30.4427   53.0074 H   0  0  0  0  0  0  0  0  0  0  0  0
   54.6190   31.2895   51.4523 H   0  0  0  0  0  0  0  0  0  0  0  0
   55.2966   29.6259   51.4523 H   0  0  0  0  0  0  0  0  0  0  0  0
   58.8327   31.0956   49.3784 H   0  0  0  0  0  0  0  0  0  0  0  0
   57.3367   32.0862   49.5310 H   0  0  0  0  0  0  0  0  0  0  0  0
   58.3124   33.5341   50.9793 H   0  0  0  0  0  0  0  0  0  0  0  0
   59.0763   32.2032   51.9218 H   0  0  0  0  0  0  0  0  0  0  0  0
   59.2544   34.0415   48.8487 H   0  0  0  0  0  0  0  0  0  0  0  0
   59.9114   34.9413   50.2576 H   0  0  0  0  0  0  0  0  0  0  0  0
   61.6355   33.3981   48.2559 H   0  0  0  0  0  0  0  0  0  0  0  0
   61.2753   35.1710   48.1492 H   0  0  0  0  0  0  0  0  0  0  0  0
   63.0389   35.5542   49.4870 H   0  0  0  0  0  0  0  0  0  0  0  0
   62.1545   34.7070   50.8080 H   0  0  0  0  0  0  0  0  0  0  0  0
   63.2490   32.8050   50.4570 H   0  0  0  0  0  0  0  0  0  0  0  0
   63.0338   33.4736   47.7087 H   0  0  0  0  0  0  0  0  0  0  0  0
   64.6463   32.7843   48.1262 H   0  0  0  0  0  0  0  0  0  0  0  0
   63.7948   30.7238   48.4909 H   0  0  0  0  0  0  0  0  0  0  0  0
   62.1789   32.0082   46.5660 H   0  0  0  0  0  0  0  0  0  0  0  0
   62.2848   30.2279   46.8674 H   0  0  0  0  0  0  0  0  0  0  0  0
   60.3870   31.4970   48.6870 H   0  0  0  0  0  0  0  0  0  0  0  0
   60.2105   33.5958   47.1887 H   0  0  0  0  0  0  0  0  0  0  0  0
   59.1847   35.5609   46.0678 H   0  0  0  0  0  0  0  0  0  0  0  0
   57.3607   35.2403   44.4093 H   0  0  0  0  0  0  0  0  0  0  0  0
   56.6171   32.9534   43.7924 H   0  0  0  0  0  0  0  0  0  0  0  0
   55.8320   30.1733   43.7869 H   0  0  0  0  0  0  0  0  0  0  0  0
   56.8487   31.3683   42.9122 H   0  0  0  0  0  0  0  0  0  0  0  0
   57.3041   29.6307   42.9122 H   0  0  0  0  0  0  0  0  0  0  0  0
   56.6939   28.1427   44.5753 H   0  0  0  0  0  0  0  0  0  0  0  0
   57.4883   26.1995   45.9030 H   0  0  0  0  0  0  0  0  0  0  0  0
   59.2724   26.4928   47.6124 H   0  0  0  0  0  0  0  0  0  0  0  0
   60.2347   28.7448   48.0375 H   0  0  0  0  0  0  0  0  0  0  0  0
   62.1200   32.2140   50.2740 H   0  0  0  0  0  0  0  0  0  0  0  0
   62.0414   29.8044   51.2455 H   0  0  0  0  0  0  0  0  0  0  0  0
   63.4126   29.6075   50.0712 H   0  0  0  0  0  0  0  0  0  0  0  0
   64.3408   30.1961   52.2306 H   0  0  0  0  0  0  0  0  0  0  0  0
   64.4986   31.6145   51.1089 H   0  0  0  0  0  0  0  0  0  0  0  0
   62.8055   31.2802   53.5732 H   0  0  0  0  0  0  0  0  0  0  0  0
   63.7267   32.7108   52.9628 H   0  0  0  0  0  0  0  0  0  0  0  0
   62.1170   33.0080   51.2780 H   0  0  0  0  0  0  0  0  0  0  0  0
   61.2700   31.6330   51.7330 H   0  0  0  0  0  0  0  0  0  0  0  0
  1  2  1  0
  2  3  1  0
  3  4  1  0
  4  5  1  0
  3  6  1  0
  6  7  1  0
  7  8  1  0
  8  9  1  0
  9 10  1  0
 10 11  1  0
 11 12  1  0
 12 13  1  0
 13 14  1  0
 14 15  1  0
 15 16  1  0
 16 17  1  0
 17 18  2  0
 18 19  1  0
 19 20  2  0
 20 21  1  0
 21 22  2  0
 22 23  1  0
 23 24  2  0
 24 25  1  0
 24 26  1  0
 26 27  2  0
 27 28  1  0
 28 29  2  0
 29 30  1  0
 30 31  2  0
 14 32  1  0
 32 33  1  0
 33 34  1  0
 34 35  1  0
 35 36  1  0
 31 17  1  0
 23 18  1  0
 31 26  1  0
  1 37  1  0
  1 38  1  0
  1 39  1  0
  2 40  1  0
  2 41  1  0
  4 42  1  0
  4 43  1  0
  5 44  1  0
  5 45  1  0
  5 46  1  0
  6 47  1  0
  6 48  1  0
  7 49  1  0
  7 50  1  0
  9 51  1  0
  9 52  1  0
 10 53  1  0
 10 54  1  0
 11 55  1  0
 11 56  1  0
 12 57  1  0
 13 58  1  0
 13 59  1  0
 14 60  1  1
 15 61  1  0
 15 62  1  0
 16 63  1  0
 19 64  1  0
 20 65  1  0
 21 66  1  0
 22 67  1  0
 25 68  1  0
 25 69  1  0
 25 70  1  0
 27 71  1  0
 28 72  1  0
 29 73  1  0
 30 74  1  0
 32 75  1  0
 33 76  1  0
 33 77  1  0
 34 78  1  0
 34 79  1  0
 35 80  1  0
 35 81  1  0
 36 82  1  0
 36 83  1  0
M  CHG  1  24   1
M  END
>  <UniqueID>  (11) 
11

>  <SMILES>  (11) 
CCN(CC)CCOCCCNC[C@H](CNc1c2ccccc2[n+](C)c2ccccc12)NCCCN

>  <Energy>  (11) 
98.53430725884145

>  <Genealogy>  (11) 
CCN(CC)CCOCCCNC[C@H](CNc1c2ccccc2[n+](C)c2ccccc12)NCCCN (chirality)
CCN(CC)CCOCCCNC[C@H](CNc1c2ccccc2[n+](C)c2ccccc12)NCCCN (3D coordinates assigned)
CCN(CC)CCOCCCNC[C@H](CNc1c2ccccc2[n+](C)c2ccccc12)NCCCN (optimized conformer: 98.53430725884145 kcal/mol)

>  <smiles>  (11) 
CCN(CC)CCOCCCNCC(CNc1c2ccccc2[n+](C)c2ccccc12)NCCCN

>  <score_type>  (11) 
oracle

>  <origin>  (11) 
adg

>  <m_score__min__energy>  (11) 
-5.9400000000000004

>  <m_primary>  (11) 
energy

$$$$
11:0
     RDKit          3D

 48 50  0  0  0  0  0  0  0  0999 V2000
   57.5970   26.9630   45.6150 C   0  0  0  0  0  0  0  0  0  0  0  0
   58.0800   26.8220   47.0610 C   0  0  0  0  0  0  0  0  0  0  0  0
   59.5410   26.9400   47.1840 N   0  0  0  0  0  0  0  0  0  0  0  0
   60.1950   27.1400   45.8840 C   0  0  0  0  0  0  0  0  0  0  0  0
   60.7080   28.5790   45.7780 C   0  0  0  0  0  0  0  0  0  0  0  0
   60.4730   29.3140   47.0300 N   0  0  0  0  0  0  0  0  0  0  0  0
   60.3520   30.7420   46.7690 C   0  0  0  0  0  0  0  0  0  0  0  0
   61.3740   31.6410   47.1740 C   0  0  0  0  0  0  0  0  0  0  0  0
   62.4760   31.2120   47.9560 C   0  0  0  0  0  0  0  0  0  0  0  0
   63.5210   32.0790   48.2620 C   0  0  0  0  0  0  0  0  0  0  0  0
   63.5010   33.3840   47.7970 C   0  0  0  0  0  0  0  0  0  0  0  0
   62.4090   33.8490   47.0690 C   0  0  0  0  0  0  0  0  0  0  0  0
   61.2980   33.0100   46.7910 C   0  0  0  0  0  0  0  0  0  0  0  0
   60.1730   33.4960   46.1570 N   0  0  0  0  0  0  0  0  0  0  0  0
   59.9700   34.9600   46.0360 C   0  0  0  0  0  0  0  0  0  0  0  0
   59.2070   32.6300   45.6880 C   0  0  0  0  0  0  0  0  0  0  0  0
   58.1690   33.0760   44.8290 C   0  0  0  0  0  0  0  0  0  0  0  0
   57.1390   32.2280   44.4370 C   0  0  0  0  0  0  0  0  0  0  0  0
   57.1140   30.9110   44.8790 C   0  0  0  0  0  0  0  0  0  0  0  0
   55.7560   29.8340   44.4130 S   0  0  0  0  0  0  0  0  0  0  0  0
   56.2830   29.7210   42.6740 C   0  0  0  0  0  0  0  0  0  0  0  0
   58.1480   30.4270   45.6780 C   0  0  0  0  0  0  0  0  0  0  0  0
   59.2390   31.2530   46.0480 C   0  0  0  0  0  0  0  0  0  0  0  0
   56.5411   27.2712   45.6095 H   0  0  0  0  0  0  0  0  0  0  0  0
   58.2031   27.7217   45.0983 H   0  0  0  0  0  0  0  0  0  0  0  0
   57.6998   25.9974   45.0983 H   0  0  0  0  0  0  0  0  0  0  0  0
   57.6107   27.6105   47.6676 H   0  0  0  0  0  0  0  0  0  0  0  0
   57.7965   25.8182   47.4103 H   0  0  0  0  0  0  0  0  0  0  0  0
   59.9230   26.0720   47.6280 H   0  0  0  0  0  0  0  0  0  0  0  0
   61.0406   26.4428   45.7894 H   0  0  0  0  0  0  0  0  0  0  0  0
   59.4688   26.9528   45.0792 H   0  0  0  0  0  0  0  0  0  0  0  0
   61.7876   28.5618   45.5678 H   0  0  0  0  0  0  0  0  0  0  0  0
   60.1662   29.0861   44.9660 H   0  0  0  0  0  0  0  0  0  0  0  0
   61.2340   29.1200   47.7170 H   0  0  0  0  0  0  0  0  0  0  0  0
   59.6260   28.9470   47.5160 H   0  0  0  0  0  0  0  0  0  0  0  0
   62.5057   30.1769   48.3270 H   0  0  0  0  0  0  0  0  0  0  0  0
   64.3645   31.7274   48.8743 H   0  0  0  0  0  0  0  0  0  0  0  0
   64.3490   34.0536   48.0032 H   0  0  0  0  0  0  0  0  0  0  0  0
   62.4071   34.8861   46.7023 H   0  0  0  0  0  0  0  0  0  0  0  0
   59.9082   35.4058   47.0397 H   0  0  0  0  0  0  0  0  0  0  0  0
   60.8153   35.4034   45.4893 H   0  0  0  0  0  0  0  0  0  0  0  0
   59.0360   35.1567   45.4893 H   0  0  0  0  0  0  0  0  0  0  0  0
   58.1795   34.1142   44.4657 H   0  0  0  0  0  0  0  0  0  0  0  0
   56.3427   32.6005   43.7759 H   0  0  0  0  0  0  0  0  0  0  0  0
   57.3577   29.4906   42.6308 H   0  0  0  0  0  0  0  0  0  0  0  0
   55.7165   28.9239   42.1703 H   0  0  0  0  0  0  0  0  0  0  0  0
   56.0931   30.6803   42.1703 H   0  0  0  0  0  0  0  0  0  0  0  0
   58.1171   29.3847   46.0281 H   0  0  0  0  0  0  0  0  0  0  0  0
  1  2  1  0
  2  3  1  0
  3  4  1  0
  4  5  1  0
  5  6  1  0
  6  7  1  0
  7  8  2  0
  8  9  1  0
  9 10  2  0
 10 11  1  0
 11 12  2  0
 12 13  1  0
 13 14  2  0
 14 15  1  0
 14 16  1  0
 16 17  2  0
 17 18  1  0
 18 19  2  0
 19 20  1  0
 20 21  1  0
 19 22  1  0
 22 23  2  0
 23  7  1  0
 13  8  1  0
 23 16  1  0
  1 24  1  0
  1 25  1  0
  1 26  1  0
  2 27  1  0
  2 28  1  0
  3 29  1  0
  4 30  1  0
  4 31  1  0
  5 32  1  0
  5 33  1  0
  6 34  1  0
  6 35  1  0
  9 36  1  0
 10 37  1  0
 11 38  1  0
 12 39  1  0
 15 40  1  0
 15 41  1  0
 15 42  1  0
 17 43  1  0
 18 44  1  0
 21 45  1  0
 21 46  1  0
 21 47  1  0
 22 48  1  0
M  CHG  2   6   1  14   1
M  END
>  <UniqueID>  (12) 
12

>  <SMILES>  (12) 
CCNCC[NH2+]c1c2ccccc2[n+](C)c2ccc(SC)cc12

>  <Energy>  (12) 
69.40728455304392

>  <Genealogy>  (12) 
CCNCC[NH2+]c1c2ccccc2[n+](C)c2ccc(SC)cc12 (protonated)
CCNCC[NH2+]c1c2ccccc2[n+](C)c2ccc(SC)cc12 (3D coordinates assigned)
CCNCC[NH2+]c1c2ccccc2[n+](C)c2ccc(SC)cc12 (optimized conformer: 69.40728455304392 kcal/mol)

>  <smiles>  (12) 
CCNCCNc1c2ccccc2[n+](C)c2ccc(SC)cc12

>  <score_type>  (12) 
oracle

>  <origin>  (12) 
adg

>  <m_score__min__energy>  (12) 
-4.2000000000000002

>  <m_primary>  (12) 
energy

$$$$
12:0
     RDKit          3D

 46 48  0  0  0  0  0  0  0  0999 V2000
   56.2780   29.7360   42.7610 C   0  0  0  0  0  0  0  0  0  0  0  0
   56.0190   30.1290   44.2110 C   0  0  0  0  0  0  0  0  0  0  0  0
   55.5550   28.9800   44.9790 N   0  0  0  0  0  0  0  0  0  0  0  0
   56.4230   27.9570   45.4810 C   0  0  0  0  0  0  0  0  0  0  0  0
   55.9820   26.7930   45.6780 O   0  0  0  0  0  0  0  0  0  0  0  0
   57.8840   28.2470   45.7050 C   0  0  1  0  0  0  0  0  0  0  0  0
   58.6120   27.1860   46.5540 C   0  0  0  0  0  0  0  0  0  0  0  0
   59.8580   27.9420   47.0410 C   0  0  0  0  0  0  0  0  0  0  0  0
   59.6840   29.3410   46.4040 C   0  0  1  0  0  0  0  0  0  0  0  0
   60.4920   30.4450   47.0680 C   0  0  0  0  0  0  0  0  0  0  0  0
   61.6560   30.6220   46.7280 O   0  0  0  0  0  0  0  0  0  0  0  0
   59.8960   31.3130   48.0680 N   0  0  1  0  0  0  0  0  0  0  0  0
   60.3840   30.9310   49.4050 C   0  0  0  0  0  0  0  0  0  0  0  0
   60.2070   32.7260   47.7540 C   0  0  0  0  0  0  0  0  0  0  0  0
   59.3320   33.2570   46.6540 C   0  0  0  0  0  0  0  0  0  0  0  0
   59.6700   34.2580   45.7530 C   0  0  0  0  0  0  0  0  0  0  0  0
   58.6300   34.5750   44.8700 C   0  0  0  0  0  0  0  0  0  0  0  0
   57.4750   33.8330   45.0780 C   0  0  0  0  0  0  0  0  0  0  0  0
   57.7450   32.7810   46.3630 S   0  0  0  0  0  0  0  0  0  0  0  0
   59.9270   29.2170   44.8830 C   0  0  0  0  0  0  0  0  0  0  0  0
   58.6740   28.4680   44.3990 C   0  0  0  0  0  0  0  0  0  0  0  0
   58.1800   29.5200   46.4750 C   0  0  0  0  0  0  0  0  0  0  0  0
   56.8831   28.8178   42.7324 H   0  0  0  0  0  0  0  0  0  0  0  0
   55.3190   29.5591   42.2521 H   0  0  0  0  0  0  0  0  0  0  0  0
   56.8188   30.5475   42.2521 H   0  0  0  0  0  0  0  0  0  0  0  0
   56.9514   30.5079   44.6549 H   0  0  0  0  0  0  0  0  0  0  0  0
   55.2426   30.9079   44.2341 H   0  0  0  0  0  0  0  0  0  0  0  0
   58.8901   26.3130   45.9453 H   0  0  0  0  0  0  0  0  0  0  0  0
   57.9970   26.7840   47.3726 H   0  0  0  0  0  0  0  0  0  0  0  0
   60.7792   27.4571   46.6857 H   0  0  0  0  0  0  0  0  0  0  0  0
   59.9475   27.9717   48.1370 H   0  0  0  0  0  0  0  0  0  0  0  0
   58.8570   31.1920   48.0600 H   0  0  0  0  0  0  0  0  0  0  0  0
   59.7645   31.4159   50.1738 H   0  0  0  0  0  0  0  0  0  0  0  0
   60.3223   29.8387   49.5196 H   0  0  0  0  0  0  0  0  0  0  0  0
   61.4295   31.2532   49.5196 H   0  0  0  0  0  0  0  0  0  0  0  0
   60.0523   33.3342   48.6574 H   0  0  0  0  0  0  0  0  0  0  0  0
   61.2525   32.7799   47.4164 H   0  0  0  0  0  0  0  0  0  0  0  0
   60.6531   34.7511   45.7346 H   0  0  0  0  0  0  0  0  0  0  0  0
   58.7199   35.3403   44.0850 H   0  0  0  0  0  0  0  0  0  0  0  0
   56.5424   33.9184   44.5010 H   0  0  0  0  0  0  0  0  0  0  0  0
   60.8396   28.6399   44.6731 H   0  0  0  0  0  0  0  0  0  0  0  0
   60.0751   30.1864   44.3847 H   0  0  0  0  0  0  0  0  0  0  0  0
   58.9414   27.5094   43.9304 H   0  0  0  0  0  0  0  0  0  0  0  0
   58.1062   29.0172   43.6335 H   0  0  0  0  0  0  0  0  0  0  0  0
   57.7903   29.5044   47.5035 H   0  0  0  0  0  0  0  0  0  0  0  0
   57.7505   30.4629   46.1056 H   0  0  0  0  0  0  0  0  0  0  0  0
  1  2  1  0
  2  3  1  0
  3  4  1  0
  4  5  2  0
  6  4  1  6
  6  7  1  0
  7  8  1  0
  8  9  1  0
  9 10  1  1
 10 11  2  0
 10 12  1  0
 12 13  1  0
 12 14  1  0
 14 15  1  0
 15 16  2  0
 16 17  1  0
 17 18  2  0
 18 19  1  0
  9 20  1  0
 20 21  1  0
  9 22  1  0
 21  6  1  0
 22  6  1  0
 19 15  1  0
  1 23  1  0
  1 24  1  0
  1 25  1  0
  2 26  1  0
  2 27  1  0
  7 28  1  0
  7 29  1  0
  8 30  1  0
  8 31  1  0
 12 32  1  1
 13 33  1  0
 13 34  1  0
 13 35  1  0
 14 36  1  0
 14 37  1  0
 16 38  1  0
 17 39  1  0
 18 40  1  0
 20 41  1  0
 20 42  1  0
 21 43  1  0
 21 44  1  0
 22 45  1  0
 22 46  1  0
M  CHG  2   3  -1  12   1
M  END
>  <UniqueID>  (13) 
13

>  <SMILES>  (13) 
CC[N-]C(=O)C12CCC(C(=O)[N@@H+](C)Cc3cccs3)(CC1)C2

>  <Energy>  (13) 
92.23548922523933

>  <Genealogy>  (13) 
CC[N-]C(=O)C12CCC(C(=O)[NH+](C)Cc3cccs3)(CC1)C2 (protonated)
CC[N-]C(=O)C12CCC(C(=O)[N@@H+](C)Cc3cccs3)(CC1)C2 (chirality)
CC[N-]C(=O)C12CCC(C(=O)[N@@H+](C)Cc3cccs3)(CC1)C2 (3D coordinates assigned)
CC[N-]C(=O)C12CCC(C(=O)[N@@H+](C)Cc3cccs3)(CC1)C2 (nonaromatic ring conformer: 92.23548922523933 kcal/mol)

>  <smiles>  (13) 
CCNC(=O)C12CCC(C(=O)N(C)Cc3cccs3)(CC1)C2

>  <score_type>  (13) 
oracle

>  <origin>  (13) 
adg

>  <m_score__min__energy>  (13) 
-8.8000000000000007

>  <m_primary>  (13) 
energy

$$$$
13:0
     RDKit          3D

 52 54  0  0  0  0  0  0  0  0999 V2000
   56.9960   25.6860   46.3750 C   0  0  0  0  0  0  0  0  0  0  0  0
   57.3090   27.1320   45.9630 C   0  0  0  0  0  0  0  0  0  0  0  0
   58.7530   27.4400   45.8190 N   0  0  0  0  0  0  0  0  0  0  0  0
   59.2490   27.5160   44.4290 C   0  0  0  0  0  0  0  0  0  0  0  0
   58.1100   27.4260   43.4140 C   0  0  0  0  0  0  0  0  0  0  0  0
   59.6430   26.7970   46.8160 C   0  0  0  0  0  0  0  0  0  0  0  0
   59.5790   27.4180   48.2270 C   0  0  0  0  0  0  0  0  0  0  0  0
   59.9300   28.9220   48.2180 C   0  0  0  0  0  0  0  0  0  0  0  0
   60.5510   29.3800   46.9580 N   0  0  0  0  0  0  0  0  0  0  0  0
   60.3380   30.7970   46.7090 C   0  0  0  0  0  0  0  0  0  0  0  0
   61.1920   31.8190   47.2380 C   0  0  0  0  0  0  0  0  0  0  0  0
   62.3630   31.5170   47.9770 C   0  0  0  0  0  0  0  0  0  0  0  0
   63.1720   32.5250   48.4950 C   0  0  0  0  0  0  0  0  0  0  0  0
   62.8440   33.8580   48.2940 C   0  0  0  0  0  0  0  0  0  0  0  0
   61.7100   34.1970   47.5680 C   0  0  0  0  0  0  0  0  0  0  0  0
   60.8610   33.2030   47.0200 C   0  0  0  0  0  0  0  0  0  0  0  0
   59.7350   33.5520   46.2940 N   0  0  0  0  0  0  0  0  0  0  0  0
   59.3790   34.9680   46.0780 C   0  0  0  0  0  0  0  0  0  0  0  0
   58.9580   32.5600   45.7690 C   0  0  0  0  0  0  0  0  0  0  0  0
   57.5610   32.7330   44.8310 S   0  0  0  0  0  0  0  0  0  0  0  0
   57.2950   31.0840   44.6490 C   0  0  0  0  0  0  0  0  0  0  0  0
   56.2080   30.5080   43.9180 N   0  0  0  0  0  0  0  0  0  0  0  0
   55.1980   30.0830   44.5150 O   0  0  0  0  0  0  0  0  0  0  0  0
   56.2690   30.4210   42.5470 O   0  0  0  0  0  0  0  0  0  0  0  0
   58.2860   30.3730   45.3150 C   0  0  0  0  0  0  0  0  0  0  0  0
   59.2260   31.2100   45.9500 C   0  0  0  0  0  0  0  0  0  0  0  0
   56.9801   25.6127   47.4724 H   0  0  0  0  0  0  0  0  0  0  0  0
   56.0140   25.3948   45.9738 H   0  0  0  0  0  0  0  0  0  0  0  0
   57.7697   25.0148   45.9738 H   0  0  0  0  0  0  0  0  0  0  0  0
   56.8199   27.3259   44.9970 H   0  0  0  0  0  0  0  0  0  0  0  0
   56.9356   27.7728   46.7754 H   0  0  0  0  0  0  0  0  0  0  0  0
   59.7747   28.4723   44.2904 H   0  0  0  0  0  0  0  0  0  0  0  0
   59.9252   26.6649   44.2603 H   0  0  0  0  0  0  0  0  0  0  0  0
   57.1501   27.3502   43.9458 H   0  0  0  0  0  0  0  0  0  0  0  0
   58.1093   28.3269   42.7828 H   0  0  0  0  0  0  0  0  0  0  0  0
   58.2508   26.5362   42.7828 H   0  0  0  0  0  0  0  0  0  0  0  0
   59.3612   25.7366   46.8944 H   0  0  0  0  0  0  0  0  0  0  0  0
   60.6722   26.9437   46.4565 H   0  0  0  0  0  0  0  0  0  0  0  0
   58.5602   27.2942   48.6228 H   0  0  0  0  0  0  0  0  0  0  0  0
   60.3183   26.9021   48.8573 H   0  0  0  0  0  0  0  0  0  0  0  0
   59.0049   29.4954   48.3776 H   0  0  0  0  0  0  0  0  0  0  0  0
   60.6680   29.0844   49.0174 H   0  0  0  0  0  0  0  0  0  0  0  0
   60.1290   28.8370   46.1700 H   0  0  0  0  0  0  0  0  0  0  0  0
   61.5500   29.0960   46.9330 H   0  0  0  0  0  0  0  0  0  0  0  0
   62.6383   30.4653   48.1447 H   0  0  0  0  0  0  0  0  0  0  0  0
   64.0750   32.2633   49.0660 H   0  0  0  0  0  0  0  0  0  0  0  0
   63.4845   34.6490   48.7112 H   0  0  0  0  0  0  0  0  0  0  0  0
   61.4655   35.2585   47.4150 H   0  0  0  0  0  0  0  0  0  0  0  0
   59.2536   35.4670   47.0503 H   0  0  0  0  0  0  0  0  0  0  0  0
   60.1801   35.4652   45.5114 H   0  0  0  0  0  0  0  0  0  0  0  0
   58.4380   35.0272   45.5114 H   0  0  0  0  0  0  0  0  0  0  0  0
   58.3321   29.2743   45.3436 H   0  0  0  0  0  0  0  0  0  0  0  0
  1  2  1  0
  2  3  1  0
  3  4  1  0
  4  5  1  0
  3  6  1  0
  6  7  1  0
  7  8  1  0
  8  9  1  0
  9 10  1  0
 10 11  2  0
 11 12  1  0
 12 13  2  0
 13 14  1  0
 14 15  2  0
 15 16  1  0
 16 17  2  0
 17 18  1  0
 17 19  1  0
 19 20  1  0
 20 21  1  0
 21 22  1  0
 22 23  2  0
 22 24  1  0
 21 25  2  0
 25 26  1  0
 26 10  1  0
 16 11  1  0
 26 19  2  0
  1 27  1  0
  1 28  1  0
  1 29  1  0
  2 30  1  0
  2 31  1  0
  4 32  1  0
  4 33  1  0
  5 34  1  0
  5 35  1  0
  5 36  1  0
  6 37  1  0
  6 38  1  0
  7 39  1  0
  7 40  1  0
  8 41  1  0
  8 42  1  0
  9 43  1  0
  9 44  1  0
 12 45  1  0
 13 46  1  0
 14 47  1  0
 15 48  1  0
 18 49  1  0
 18 50  1  0
 18 51  1  0
 25 52  1  0
M  CHG  4   9   1  17   1  22   1  24  -1
M  END
>  <UniqueID>  (14) 
14

>  <SMILES>  (14) 
CCN(CC)CCC[NH2+]c1c2ccccc2[n+](C)c2sc([N+](=O)[O-])cc12

>  <Energy>  (14) 
105.11554024191763

>  <Genealogy>  (14) 
CCN(CC)CCC[NH2+]c1c2ccccc2[n+](C)c2sc([N+](=O)[O-])cc12 (protonated)
CCN(CC)CCC[NH2+]c1c2ccccc2[n+](C)c2sc([N+](=O)[O-])cc12 (3D coordinates assigned)
CCN(CC)CCC[NH2+]c1c2ccccc2[n+](C)c2sc([N+](=O)[O-])cc12 (optimized conformer: 105.11554024191763 kcal/mol)

>  <smiles>  (14) 
CCN(CC)CCCNc1c2ccccc2[n+](C)c2sc([N+](=O)[O-])cc12

>  <score_type>  (14) 
oracle

>  <origin>  (14) 
adg

>  <m_score__min__energy>  (14) 
-5.1200000000000001

>  <m_primary>  (14) 
energy

$$$$
14:0
     RDKit          3D

 79 82  0  0  0  0  0  0  0  0999 V2000
   63.3530   33.7960   46.5890 C   0  0  0  0  0  0  0  0  0  0  0  0
   63.2100   33.0930   47.9370 C   0  0  0  0  0  0  0  0  0  0  0  0
   62.3560   33.8870   48.9500 C   0  0  0  0  0  0  0  0  0  0  0  0
   61.6520   33.0510   49.9630 N   0  0  1  0  0  0  0  0  0  0  0  0
   60.2130   33.3900   50.1280 C   0  0  0  0  0  0  0  0  0  0  0  0
   59.7100   34.4920   49.1820 C   0  0  0  0  0  0  0  0  0  0  0  0
   61.8230   31.6030   49.6640 C   0  0  0  0  0  0  0  0  0  0  0  0
   60.5750   30.9920   49.0060 C   0  0  0  0  0  0  0  0  0  0  0  0
   60.7630   30.8700   47.5610 N   0  0  0  0  0  0  0  0  0  0  0  0
   59.6490   30.9020   46.6490 C   0  0  0  0  0  0  0  0  0  0  0  0
   59.2710   32.1050   46.0280 C   0  0  0  0  0  0  0  0  0  0  0  0
   59.9860   33.3010   46.2580 C   0  0  0  0  0  0  0  0  0  0  0  0
   59.5620   34.5020   45.6950 C   0  0  0  0  0  0  0  0  0  0  0  0
   58.4280   34.5360   44.8940 C   0  0  0  0  0  0  0  0  0  0  0  0
   57.7330   33.3610   44.6180 C   0  0  0  0  0  0  0  0  0  0  0  0
   58.1670   32.1150   45.1350 C   0  0  0  0  0  0  0  0  0  0  0  0
   57.5510   30.9300   44.7810 N   0  0  0  0  0  0  0  0  0  0  0  0
   56.6380   30.8990   43.6150 C   0  0  0  0  0  0  0  0  0  0  0  0
   57.8320   29.7670   45.4730 C   0  0  0  0  0  0  0  0  0  0  0  0
   57.0590   28.5910   45.2980 C   0  0  0  0  0  0  0  0  0  0  0  0
   57.4290   27.3800   45.9040 C   0  0  0  0  0  0  0  0  0  0  0  0
   56.7720   26.1700   45.6400 O   0  0  0  0  0  0  0  0  0  0  0  0
   56.6990   25.0630   46.5370 C   0  0  0  0  0  0  0  0  0  0  0  0
   57.8690   24.0830   46.3140 C   0  0  0  0  0  0  0  0  0  0  0  0
   57.7810   23.2030   45.0940 N   0  0  0  0  0  0  0  0  0  0  0  0
   59.1570   22.6840   44.8520 C   0  0  0  0  0  0  0  0  0  0  0  0
   56.8750   22.0380   45.3440 C   0  0  0  0  0  0  0  0  0  0  0  0
   56.7440   21.0940   44.1290 C   0  0  0  0  0  0  0  0  0  0  0  0
   56.6120   21.8530   42.7950 C   0  0  0  0  0  0  0  0  0  0  0  0
   56.2860   23.3310   43.0090 C   0  0  0  0  0  0  0  0  0  0  0  0
   57.3540   24.0110   43.8910 C   0  0  0  0  0  0  0  0  0  0  0  0
   58.5080   27.3590   46.7840 C   0  0  0  0  0  0  0  0  0  0  0  0
   59.2330   28.5200   47.0420 C   0  0  0  0  0  0  0  0  0  0  0  0
   58.9160   29.7280   46.3910 C   0  0  0  0  0  0  0  0  0  0  0  0
   63.5698   34.8619   46.7526 H   0  0  0  0  0  0  0  0  0  0  0  0
   64.1762   33.3372   46.0217 H   0  0  0  0  0  0  0  0  0  0  0  0
   62.4160   33.6953   46.0217 H   0  0  0  0  0  0  0  0  0  0  0  0
   62.7365   32.1139   47.7722 H   0  0  0  0  0  0  0  0  0  0  0  0
   64.2191   32.9973   48.3644 H   0  0  0  0  0  0  0  0  0  0  0  0
   63.0180   34.5854   49.4828 H   0  0  0  0  0  0  0  0  0  0  0  0
   61.5725   34.3924   48.3663 H   0  0  0  0  0  0  0  0  0  0  0  0
   62.1010   33.2320   50.8890 H   0  0  0  0  0  0  0  0  0  0  0  0
   59.6216   32.4811   49.9433 H   0  0  0  0  0  0  0  0  0  0  0  0
   60.0957   33.7759   51.1514 H   0  0  0  0  0  0  0  0  0  0  0  0
   59.3250   35.3356   49.7737 H   0  0  0  0  0  0  0  0  0  0  0  0
   60.5396   34.8375   48.5476 H   0  0  0  0  0  0  0  0  0  0  0  0
   58.9055   34.0916   48.5476 H   0  0  0  0  0  0  0  0  0  0  0  0
   62.6779   31.4810   48.9826 H   0  0  0  0  0  0  0  0  0  0  0  0
   61.9913   31.0801   50.6170 H   0  0  0  0  0  0  0  0  0  0  0  0
   60.3931   29.9945   49.4325 H   0  0  0  0  0  0  0  0  0  0  0  0
   59.7147   31.6502   49.1975 H   0  0  0  0  0  0  0  0  0  0  0  0
   61.6930   30.5590   47.2070 H   0  0  0  0  0  0  0  0  0  0  0  0
   60.8872   33.2837   46.8885 H   0  0  0  0  0  0  0  0  0  0  0  0
   60.1269   35.4265   45.8853 H   0  0  0  0  0  0  0  0  0  0  0  0
   58.0783   35.4920   44.4771 H   0  0  0  0  0  0  0  0  0  0  0  0
   56.8321   33.4009   43.9881 H   0  0  0  0  0  0  0  0  0  0  0  0
   55.5961   30.8636   43.9660 H   0  0  0  0  0  0  0  0  0  0  0  0
   56.7895   31.8028   43.0066 H   0  0  0  0  0  0  0  0  0  0  0  0
   56.8504   30.0076   43.0066 H   0  0  0  0  0  0  0  0  0  0  0  0
   56.1526   28.6284   44.6758 H   0  0  0  0  0  0  0  0  0  0  0  0
   56.7365   25.4365   47.5710 H   0  0  0  0  0  0  0  0  0  0  0  0
   55.7567   24.5269   46.3509 H   0  0  0  0  0  0  0  0  0  0  0  0
   58.7919   24.6761   46.2333 H   0  0  0  0  0  0  0  0  0  0  0  0
   57.8434   23.3962   47.1729 H   0  0  0  0  0  0  0  0  0  0  0  0
   59.6531   22.4969   45.8158 H   0  0  0  0  0  0  0  0  0  0  0  0
   59.0998   21.7457   44.2808 H   0  0  0  0  0  0  0  0  0  0  0  0
   59.7337   23.4264   44.2808 H   0  0  0  0  0  0  0  0  0  0  0  0
   57.2731   21.4619   46.1923 H   0  0  0  0  0  0  0  0  0  0  0  0
   55.8735   22.4429   45.5513 H   0  0  0  0  0  0  0  0  0  0  0  0
   57.6379   20.4547   44.0827 H   0  0  0  0  0  0  0  0  0  0  0  0
   55.8264   20.5031   44.2661 H   0  0  0  0  0  0  0  0  0  0  0  0
   57.5618   21.7744   42.2458 H   0  0  0  0  0  0  0  0  0  0  0  0
   55.7860   21.4010   42.2263 H   0  0  0  0  0  0  0  0  0  0  0  0
   56.2507   23.8366   42.0327 H   0  0  0  0  0  0  0  0  0  0  0  0
   55.3131   23.4052   43.5169 H   0  0  0  0  0  0  0  0  0  0  0  0
   58.2427   24.1992   43.2707 H   0  0  0  0  0  0  0  0  0  0  0  0
   56.8973   24.9331   44.2799 H   0  0  0  0  0  0  0  0  0  0  0  0
   58.7900   26.4182   47.2793 H   0  0  0  0  0  0  0  0  0  0  0  0
   60.0633   28.4931   47.7630 H   0  0  0  0  0  0  0  0  0  0  0  0
  1  2  1  0
  2  3  1  0
  3  4  1  0
  4  5  1  0
  5  6  1  0
  4  7  1  0
  7  8  1  0
  8  9  1  0
  9 10  1  0
 10 11  2  0
 11 12  1  0
 12 13  2  0
 13 14  1  0
 14 15  2  0
 15 16  1  0
 16 17  2  0
 17 18  1  0
 17 19  1  0
 19 20  2  0
 20 21  1  0
 21 22  1  0
 22 23  1  0
 23 24  1  0
 24 25  1  0
 25 26  1  0
 25 27  1  0
 27 28  1  0
 28 29  1  0
 29 30  1  0
 30 31  1  0
 21 32  2  0
 32 33  1  0
 33 34  2  0
 34 10  1  0
 16 11  1  0
 34 19  1  0
 31 25  1  0
  1 35  1  0
  1 36  1  0
  1 37  1  0
  2 38  1  0
  2 39  1  0
  3 40  1  0
  3 41  1  0
  4 42  1  1
  5 43  1  0
  5 44  1  0
  6 45  1  0
  6 46  1  0
  6 47  1  0
  7 48  1  0
  7 49  1  0
  8 50  1  0
  8 51  1  0
  9 52  1  0
 12 53  1  0
 13 54  1  0
 14 55  1  0
 15 56  1  0
 18 57  1  0
 18 58  1  0
 18 59  1  0
 20 60  1  0
 23 61  1  0
 23 62  1  0
 24 63  1  0
 24 64  1  0
 26 65  1  0
 26 66  1  0
 26 67  1  0
 27 68  1  0
 27 69  1  0
 28 70  1  0
 28 71  1  0
 29 72  1  0
 29 73  1  0
 30 74  1  0
 30 75  1  0
 31 76  1  0
 31 77  1  0
 32 78  1  0
 33 79  1  0
M  CHG  3   4   1  17   1  25   1
M  END
>  <UniqueID>  (15) 
15

>  <SMILES>  (15) 
CCC[N@@H+](CC)CCNc1c2ccccc2[n+](C)c2cc(OCC[N+]3(C)CCCCC3)ccc12

>  <Energy>  (15) 
127.00885827492336

>  <Genealogy>  (15) 
CCC[NH+](CC)CCNc1c2ccccc2[n+](C)c2cc(OCC[N+]3(C)CCCCC3)ccc12 (protonated)
CCC[N@@H+](CC)CCNc1c2ccccc2[n+](C)c2cc(OCC[N+]3(C)CCCCC3)ccc12 (chirality)
CCC[N@@H+](CC)CCNc1c2ccccc2[n+](C)c2cc(OCC[N+]3(C)CCCCC3)ccc12 (3D coordinates assigned)
CCC[N@@H+](CC)CCNc1c2ccccc2[n+](C)c2cc(OCC[N+]3(C)CCCCC3)ccc12 (nonaromatic ring conformer: 127.00885827492336 kcal/mol)

>  <smiles>  (15) 
CCCN(CC)CCNc1c2ccccc2[n+](C)c2cc(OCC[N+]3(C)CCCCC3)ccc12

>  <score_type>  (15) 
oracle

>  <origin>  (15) 
adg

>  <m_score__min__energy>  (15) 
-4.1900000000000004

>  <m_primary>  (15) 
energy

$$$$
15:0
     RDKit          3D

 58 60  0  0  0  0  0  0  0  0999 V2000
   59.9330   34.1450   46.3460 C   0  0  0  0  0  0  0  0  0  0  0  0
   58.1150   34.2230   46.3930 S   0  0  0  0  0  0  0  0  0  0  0  0
   57.9090   32.6770   45.5060 C   0  0  0  0  0  0  0  0  0  0  0  0
   58.9770   31.7820   45.4010 C   0  0  0  0  0  0  0  0  0  0  0  0
   58.8170   30.5770   44.7100 C   0  0  0  0  0  0  0  0  0  0  0  0
   57.5810   30.2540   44.1230 C   0  0  0  0  0  0  0  0  0  0  0  0
   57.4070   28.9470   43.3740 C   0  0  0  0  0  0  0  0  0  0  0  0
   57.4700   27.7360   44.2350 N   0  0  2  0  0  0  0  0  0  0  0  0
   56.9260   28.0040   45.5890 C   0  0  0  0  0  0  0  0  0  0  0  0
   57.2310   26.9050   46.6320 C   0  0  0  0  0  0  0  0  0  0  0  0
   58.6530   26.9570   47.2180 C   0  0  0  0  0  0  0  0  0  0  0  0
   59.5220   27.9800   46.5940 N   0  0  0  0  0  0  0  0  0  0  0  0
   60.4510   28.7000   47.4880 C   0  0  0  0  0  0  0  0  0  0  0  0
   59.7280   29.5470   48.5060 C   0  0  0  0  0  0  0  0  0  0  0  0
   59.2820   28.9850   49.7100 C   0  0  0  0  0  0  0  0  0  0  0  0
   58.6870   29.7880   50.6880 C   0  0  0  0  0  0  0  0  0  0  0  0
   58.5170   31.1710   50.4800 C   0  0  0  0  0  0  0  0  0  0  0  0
   57.9300   32.0110   51.5050 N   0  0  0  0  0  0  0  0  0  0  0  0
   58.5640   33.2790   51.8850 C   0  0  0  0  0  0  0  0  0  0  0  0
   56.6790   31.6150   52.1640 C   0  0  0  0  0  0  0  0  0  0  0  0
   58.9380   31.7190   49.2520 C   0  0  0  0  0  0  0  0  0  0  0  0
   59.5290   30.9140   48.2750 C   0  0  0  0  0  0  0  0  0  0  0  0
   59.8560   27.9180   45.1540 C   0  0  0  0  0  0  0  0  0  0  0  0
   58.8370   27.1630   44.2630 C   0  0  0  0  0  0  0  0  0  0  0  0
   56.5190   31.1680   44.2160 C   0  0  0  0  0  0  0  0  0  0  0  0
   56.6820   32.3720   44.9070 C   0  0  0  0  0  0  0  0  0  0  0  0
   60.3260   34.1281   47.3733 H   0  0  0  0  0  0  0  0  0  0  0  0
   60.2473   33.2325   45.8182 H   0  0  0  0  0  0  0  0  0  0  0  0
   60.3243   35.0272   45.8182 H   0  0  0  0  0  0  0  0  0  0  0  0
   59.9452   32.0258   45.8627 H   0  0  0  0  0  0  0  0  0  0  0  0
   59.6624   29.8783   44.6252 H   0  0  0  0  0  0  0  0  0  0  0  0
   56.4272   28.9640   42.8742 H   0  0  0  0  0  0  0  0  0  0  0  0
   58.2462   28.8749   42.6665 H   0  0  0  0  0  0  0  0  0  0  0  0
   56.8370   27.0640   43.7520 H   0  0  0  0  0  0  0  0  0  0  0  0
   57.3558   28.9497   45.9508 H   0  0  0  0  0  0  0  0  0  0  0  0
   55.8316   28.0407   45.4845 H   0  0  0  0  0  0  0  0  0  0  0  0
   56.5144   27.0090   47.4600 H   0  0  0  0  0  0  0  0  0  0  0  0
   57.1448   25.9427   46.1062 H   0  0  0  0  0  0  0  0  0  0  0  0
   58.5767   27.1766   48.2932 H   0  0  0  0  0  0  0  0  0  0  0  0
   59.1165   25.9796   47.0183 H   0  0  0  0  0  0  0  0  0  0  0  0
   61.0729   27.9638   48.0184 H   0  0  0  0  0  0  0  0  0  0  0  0
   61.0626   29.3708   46.8667 H   0  0  0  0  0  0  0  0  0  0  0  0
   59.4007   27.9058   49.8867 H   0  0  0  0  0  0  0  0  0  0  0  0
   58.3476   29.3345   51.6309 H   0  0  0  0  0  0  0  0  0  0  0  0
   58.6023   33.3556   52.9817 H   0  0  0  0  0  0  0  0  0  0  0  0
   59.5858   33.3142   51.4791 H   0  0  0  0  0  0  0  0  0  0  0  0
   57.9791   34.1175   51.4791 H   0  0  0  0  0  0  0  0  0  0  0  0
   56.8104   31.6566   53.2553 H   0  0  0  0  0  0  0  0  0  0  0  0
   55.8737   32.3021   51.8652 H   0  0  0  0  0  0  0  0  0  0  0  0
   56.4158   30.5896   51.8652 H   0  0  0  0  0  0  0  0  0  0  0  0
   58.7997   32.7933   49.0603 H   0  0  0  0  0  0  0  0  0  0  0  0
   59.8403   31.3570   47.3175 H   0  0  0  0  0  0  0  0  0  0  0  0
   59.9340   28.9494   44.7798 H   0  0  0  0  0  0  0  0  0  0  0  0
   60.7949   27.3488   45.0867 H   0  0  0  0  0  0  0  0  0  0  0  0
   59.2243   27.1585   43.2334 H   0  0  0  0  0  0  0  0  0  0  0  0
   58.7361   26.1593   44.7016 H   0  0  0  0  0  0  0  0  0  0  0  0
   55.5538   30.9352   43.7426 H   0  0  0  0  0  0  0  0  0  0  0  0
   55.8441   33.0810   44.9800 H   0  0  0  0  0  0  0  0  0  0  0  0
  1  2  1  0
  2  3  1  0
  3  4  2  0
  4  5  1  0
  5  6  2  0
  6  7  1  0
  7  8  1  0
  8  9  1  0
  9 10  1  0
 10 11  1  0
 11 12  1  0
 12 13  1  0
 13 14  1  0
 14 15  2  0
 15 16  1  0
 16 17  2  0
 17 18  1  0
 18 19  1  0
 18 20  1  0
 17 21  1  0
 21 22  2  0
 12 23  1  0
 23 24  1  0
  6 25  1  0
 25 26  2  0
 26  3  1  0
 24  8  1  0
 22 14  1  0
  1 27  1  0
  1 28  1  0
  1 29  1  0
  4 30  1  0
  5 31  1  0
  7 32  1  0
  7 33  1  0
  8 34  1  6
  9 35  1  0
  9 36  1  0
 10 37  1  0
 10 38  1  0
 11 39  1  0
 11 40  1  0
 13 41  1  0
 13 42  1  0
 15 43  1  0
 16 44  1  0
 19 45  1  0
 19 46  1  0
 19 47  1  0
 20 48  1  0
 20 49  1  0
 20 50  1  0
 21 51  1  0
 22 52  1  0
 23 53  1  0
 23 54  1  0
 24 55  1  0
 24 56  1  0
 25 57  1  0
 26 58  1  0
M  CHG  1   8   1
M  END
>  <UniqueID>  (16) 
16

>  <SMILES>  (16) 
CSc1ccc(C[N@@H+]2CCCN(Cc3ccc(N(C)C)cc3)CC2)cc1

>  <Energy>  (16) 
81.4236265392281

>  <Genealogy>  (16) 
CSc1ccc(C[NH+]2CCCN(Cc3ccc(N(C)C)cc3)CC2)cc1 (protonated)
CSc1ccc(C[N@@H+]2CCCN(Cc3ccc(N(C)C)cc3)CC2)cc1 (chirality)
CSc1ccc(C[N@@H+]2CCCN(Cc3ccc(N(C)C)cc3)CC2)cc1 (3D coordinates assigned)
CSc1ccc(C[N@@H+]2CCCN(Cc3ccc(N(C)C)cc3)CC2)cc1 (nonaromatic ring conformer: 81.4236265392281 kcal/mol)

>  <smiles>  (16) 
CSc1ccc(CN2CCCN(Cc3ccc(N(C)C)cc3)CC2)cc1

>  <score_type>  (16) 
oracle

>  <origin>  (16) 
adg

>  <m_score__min__energy>  (16) 
-3.6000000000000001

>  <m_primary>  (16) 
energy

$$$$
16:0
     RDKit          3D

 36 36  0  0  0  0  0  0  0  0999 V2000
   58.7650   33.8100   44.8540 C   0  0  0  0  0  0  0  0  0  0  0  0
   57.3640   33.5850   45.4290 C   0  0  0  0  0  0  0  0  0  0  0  0
   56.7220   32.3720   44.8920 N   0  0  0  0  0  0  0  0  0  0  0  0
   57.4010   31.8420   43.6990 C   0  0  0  0  0  0  0  0  0  0  0  0
   56.8570   30.4510   43.3490 C   0  0  0  0  0  0  0  0  0  0  0  0
   56.2910   29.7520   44.5580 C   0  0  0  0  0  0  0  0  0  0  0  0
   55.1350   29.2550   44.4970 O   0  0  0  0  0  0  0  0  0  0  0  0
   57.0790   29.5130   45.7320 N   0  0  0  0  0  0  0  0  0  0  0  0
   58.5000   29.6670   45.8180 C   0  0  0  0  0  0  0  0  0  0  0  0
   59.4420   28.8940   45.1690 C   0  0  0  0  0  0  0  0  0  0  0  0
   59.1770   27.8390   44.1460 C   0  0  0  0  0  0  0  0  0  0  0  0
   60.6670   29.3060   45.5470 N   0  0  0  0  0  0  0  0  0  0  0  0
   60.5340   30.2840   46.4330 N   0  0  0  0  0  0  0  0  0  0  0  0
   61.6530   30.9150   47.1250 C   0  0  0  0  0  0  0  0  0  0  0  0
   59.2190   30.5140   46.6480 C   0  0  0  0  0  0  0  0  0  0  0  0
   58.6730   31.4580   47.6750 C   0  0  0  0  0  0  0  0  0  0  0  0
   59.4851   33.9256   45.6775 H   0  0  0  0  0  0  0  0  0  0  0  0
   59.0507   32.9462   44.2357 H   0  0  0  0  0  0  0  0  0  0  0  0
   58.7658   34.7198   44.2357 H   0  0  0  0  0  0  0  0  0  0  0  0
   57.4425   33.4883   46.5219 H   0  0  0  0  0  0  0  0  0  0  0  0
   56.7428   34.4466   45.1430 H   0  0  0  0  0  0  0  0  0  0  0  0
   56.7030   31.6320   45.6320 H   0  0  0  0  0  0  0  0  0  0  0  0
   57.2293   32.5223   42.8518 H   0  0  0  0  0  0  0  0  0  0  0  0
   58.4782   31.7624   43.9069 H   0  0  0  0  0  0  0  0  0  0  0  0
   56.0630   30.5583   42.5953 H   0  0  0  0  0  0  0  0  0  0  0  0
   57.6896   29.8453   42.9619 H   0  0  0  0  0  0  0  0  0  0  0  0
   58.9388   26.8909   44.6503 H   0  0  0  0  0  0  0  0  0  0  0  0
   58.3274   28.1433   43.5171 H   0  0  0  0  0  0  0  0  0  0  0  0
   60.0696   27.7057   43.5171 H   0  0  0  0  0  0  0  0  0  0  0  0
   61.5790   28.9190   45.2150 H   0  0  0  0  0  0  0  0  0  0  0  0
   61.5058   30.8320   48.2119 H   0  0  0  0  0  0  0  0  0  0  0  0
   62.5896   30.4120   46.8424 H   0  0  0  0  0  0  0  0  0  0  0  0
   61.7072   31.9767   46.8424 H   0  0  0  0  0  0  0  0  0  0  0  0
   58.8953   31.0736   48.6814 H   0  0  0  0  0  0  0  0  0  0  0  0
   59.1388   32.4465   47.5489 H   0  0  0  0  0  0  0  0  0  0  0  0
   57.5839   31.5471   47.5489 H   0  0  0  0  0  0  0  0  0  0  0  0
  1  2  1  0
  2  3  1  0
  3  4  1  0
  4  5  1  0
  5  6  1  0
  6  7  2  0
  6  8  1  0
  8  9  1  0
  9 10  1  0
 10 11  1  0
 10 12  2  0
 12 13  1  0
 13 14  1  0
 13 15  1  0
 15 16  1  0
 15  9  2  0
  1 17  1  0
  1 18  1  0
  1 19  1  0
  2 20  1  0
  2 21  1  0
  3 22  1  0
  4 23  1  0
  4 24  1  0
  5 25  1  0
  5 26  1  0
 11 27  1  0
 11 28  1  0
 11 29  1  0
 12 30  1  0
 14 31  1  0
 14 32  1  0
 14 33  1  0
 16 34  1  0
 16 35  1  0
 16 36  1  0
M  CHG  2   8  -1  12   1
M  END
>  <UniqueID>  (17) 
17

>  <SMILES>  (17) 
CCNCCC(=O)[N-]c1c(C)[nH+]n(C)c1C

>  <Energy>  (17) 
64.55992670639273

>  <Genealogy>  (17) 
CCNCCC(=O)[N-]c1c(C)[nH+]n(C)c1C (protonated)
CCNCCC(=O)[N-]c1c(C)[nH+]n(C)c1C (3D coordinates assigned)
CCNCCC(=O)[N-]c1c(C)[nH+]n(C)c1C (optimized conformer: 64.55992670639273 kcal/mol)

>  <smiles>  (17) 
CCNCCC(=O)Nc1c(C)nn(C)c1C

>  <score_type>  (17) 
oracle

>  <origin>  (17) 
adg

>  <m_score__min__energy>  (17) 
-6.3499999999999996

>  <m_primary>  (17) 
energy

$$$$
17:0
     RDKit          3D

 55 57  0  0  0  0  0  0  0  0999 V2000
   63.7480   32.9890   47.0970 C   0  0  0  0  0  0  0  0  0  0  0  0
   62.8790   33.9470   47.9060 C   0  0  0  0  0  0  0  0  0  0  0  0
   61.5590   33.3500   48.1910 N   0  0  0  0  0  0  0  0  0  0  0  0
   61.3660   32.6500   49.4780 C   0  0  0  0  0  0  0  0  0  0  0  0
   61.0850   31.1240   49.3310 C   0  0  0  0  0  0  0  0  0  0  0  0
   60.3420   30.6970   48.1180 N   0  0  0  0  0  0  0  0  0  0  0  0
   58.9460   30.2790   48.4110 C   0  0  0  0  0  0  0  0  0  0  0  0
   58.3410   29.3720   47.3200 C   0  0  0  0  0  0  0  0  0  0  0  0
   58.9630   29.6370   46.0180 N   0  0  0  0  0  0  0  0  0  0  0  0
   58.1570   30.0360   44.8950 C   0  0  0  0  0  0  0  0  0  0  0  0
   58.5190   31.1710   44.1530 C   0  0  0  0  0  0  0  0  0  0  0  0
   57.7620   31.5660   43.0480 C   0  0  0  0  0  0  0  0  0  0  0  0
   56.6380   30.8300   42.6750 C   0  0  0  0  0  0  0  0  0  0  0  0
   56.2630   29.7000   43.4060 C   0  0  0  0  0  0  0  0  0  0  0  0
   57.0160   29.2940   44.5260 C   0  0  0  0  0  0  0  0  0  0  0  0
   56.6520   28.1800   45.2980 O   0  0  0  0  0  0  0  0  0  0  0  0
   57.3450   26.9360   45.3000 C   0  0  0  0  0  0  0  0  0  0  0  0
   60.4270   29.6120   45.9000 C   0  0  0  0  0  0  0  0  0  0  0  0
   61.0830   29.7230   47.2850 C   0  0  0  0  0  0  0  0  0  0  0  0
   60.4080   33.6730   47.3610 C   0  0  0  0  0  0  0  0  0  0  0  0
   59.0990   33.5530   47.8700 C   0  0  0  0  0  0  0  0  0  0  0  0
   57.9890   33.8510   47.0760 C   0  0  0  0  0  0  0  0  0  0  0  0
   58.1630   34.2800   45.7610 C   0  0  0  0  0  0  0  0  0  0  0  0
   59.4490   34.4140   45.2390 C   0  0  0  0  0  0  0  0  0  0  0  0
   60.5630   34.1160   46.0290 C   0  0  0  0  0  0  0  0  0  0  0  0
   64.3264   32.3514   47.7818 H   0  0  0  0  0  0  0  0  0  0  0  0
   63.1069   32.3590   46.4629 H   0  0  0  0  0  0  0  0  0  0  0  0
   64.4373   33.5658   46.4629 H   0  0  0  0  0  0  0  0  0  0  0  0
   63.3836   34.1752   48.8564 H   0  0  0  0  0  0  0  0  0  0  0  0
   62.7294   34.8655   47.3194 H   0  0  0  0  0  0  0  0  0  0  0  0
   62.2765   32.7779   50.0818 H   0  0  0  0  0  0  0  0  0  0  0  0
   60.4786   33.0938   49.9529 H   0  0  0  0  0  0  0  0  0  0  0  0
   62.0549   30.6051   49.3278 H   0  0  0  0  0  0  0  0  0  0  0  0
   60.4300   30.8676   50.1767 H   0  0  0  0  0  0  0  0  0  0  0  0
   60.2630   31.5690   47.5380 H   0  0  0  0  0  0  0  0  0  0  0  0
   58.9381   29.7312   49.3649 H   0  0  0  0  0  0  0  0  0  0  0  0
   58.3338   31.1919   48.4533 H   0  0  0  0  0  0  0  0  0  0  0  0
   58.5087   28.3195   47.5922 H   0  0  0  0  0  0  0  0  0  0  0  0
   57.2637   29.5812   47.2451 H   0  0  0  0  0  0  0  0  0  0  0  0
   59.4055   31.7537   44.4440 H   0  0  0  0  0  0  0  0  0  0  0  0
   58.0522   32.4572   42.4722 H   0  0  0  0  0  0  0  0  0  0  0  0
   56.0445   31.1401   41.8023 H   0  0  0  0  0  0  0  0  0  0  0  0
   55.3752   29.1241   43.1058 H   0  0  0  0  0  0  0  0  0  0  0  0
   57.5227   26.6170   46.3376 H   0  0  0  0  0  0  0  0  0  0  0  0
   56.7392   26.1780   44.7820 H   0  0  0  0  0  0  0  0  0  0  0  0
   58.3084   27.0521   44.7820 H   0  0  0  0  0  0  0  0  0  0  0  0
   60.7356   28.6673   45.4284 H   0  0  0  0  0  0  0  0  0  0  0  0
   60.7480   30.4664   45.2860 H   0  0  0  0  0  0  0  0  0  0  0  0
   61.0683   28.7384   47.7753 H   0  0  0  0  0  0  0  0  0  0  0  0
   62.1219   30.0646   47.1668 H   0  0  0  0  0  0  0  0  0  0  0  0
   58.9494   33.2198   48.9076 H   0  0  0  0  0  0  0  0  0  0  0  0
   56.9750   33.7469   47.4894 H   0  0  0  0  0  0  0  0  0  0  0  0
   57.2877   34.5123   45.1366 H   0  0  0  0  0  0  0  0  0  0  0  0
   59.5873   34.7552   44.2024 H   0  0  0  0  0  0  0  0  0  0  0  0
   61.5730   34.2279   45.6079 H   0  0  0  0  0  0  0  0  0  0  0  0
  1  2  1  0
  2  3  1  0
  3  4  1  0
  4  5  1  0
  5  6  1  0
  6  7  1  0
  7  8  1  0
  8  9  1  0
  9 10  1  0
 10 11  2  0
 11 12  1  0
 12 13  2  0
 13 14  1  0
 14 15  2  0
 15 16  1  0
 16 17  1  0
  9 18  1  0
 18 19  1  0
  3 20  1  0
 20 21  2  0
 21 22  1  0
 22 23  2  0
 23 24  1  0
 24 25  2  0
 19  6  1  0
 25 20  1  0
 15 10  1  0
  1 26  1  0
  1 27  1  0
  1 28  1  0
  2 29  1  0
  2 30  1  0
  4 31  1  0
  4 32  1  0
  5 33  1  0
  5 34  1  0
  6 35  1  0
  7 36  1  0
  7 37  1  0
  8 38  1  0
  8 39  1  0
 11 40  1  0
 12 41  1  0
 13 42  1  0
 14 43  1  0
 17 44  1  0
 17 45  1  0
 17 46  1  0
 18 47  1  0
 18 48  1  0
 19 49  1  0
 19 50  1  0
 21 51  1  0
 22 52  1  0
 23 53  1  0
 24 54  1  0
 25 55  1  0
M  CHG  1   6   1
M  END
>  <UniqueID>  (18) 
18

>  <SMILES>  (18) 
CCN(CC[NH+]1CCN(c2ccccc2OC)CC1)c1ccccc1

>  <Energy>  (18) 
73.88983498555042

>  <Genealogy>  (18) 
CCN(CC[NH+]1CCN(c2ccccc2OC)CC1)c1ccccc1 (protonated)
CCN(CC[NH+]1CCN(c2ccccc2OC)CC1)c1ccccc1 (3D coordinates assigned)
CCN(CC[NH+]1CCN(c2ccccc2OC)CC1)c1ccccc1 (nonaromatic ring conformer: 73.88983498555042 kcal/mol)

>  <smiles>  (18) 
CCN(CCN1CCN(c2ccccc2OC)CC1)c1ccccc1

>  <score_type>  (18) 
oracle

>  <origin>  (18) 
adg

>  <m_score__min__energy>  (18) 
-5.5

>  <m_primary>  (18) 
energy

$$$$
18:0
     RDKit          3D

 73 76  0  0  0  0  0  0  0  0999 V2000
   57.8580   32.6750   51.8710 C   0  0  0  0  0  0  0  0  0  0  0  0
   57.0560   31.5400   51.2440 C   0  0  0  0  0  0  0  0  0  0  0  0
   57.8130   30.2720   51.3620 N   0  0  0  0  0  0  0  0  0  0  0  0
   57.2570   29.3780   52.4020 C   0  0  0  0  0  0  0  0  0  0  0  0
   55.8050   29.7250   52.7330 C   0  0  0  0  0  0  0  0  0  0  0  0
   59.2760   30.5000   51.4590 C   0  0  0  0  0  0  0  0  0  0  0  0
   60.1360   29.3530   50.8730 C   0  0  0  0  0  0  0  0  0  0  0  0
   60.0190   29.2610   49.3430 C   0  0  0  0  0  0  0  0  0  0  0  0
   58.6110   29.2470   48.9110 N   0  0  0  0  0  0  0  0  0  0  0  0
   58.4960   29.7410   47.5520 C   0  0  0  0  0  0  0  0  0  0  0  0
   58.2270   28.8920   46.4430 C   0  0  0  0  0  0  0  0  0  0  0  0
   58.0460   27.4980   46.6010 C   0  0  0  0  0  0  0  0  0  0  0  0
   57.8140   26.6610   45.5020 C   0  0  0  0  0  0  0  0  0  0  0  0
   57.6080   25.2500   45.7270 N   0  0  0  0  0  0  0  0  0  0  0  0
   58.2690   24.1700   44.9890 C   0  0  0  0  0  0  0  0  0  0  0  0
   57.4330   23.7140   43.7870 C   0  0  0  0  0  0  0  0  0  0  0  0
   56.0700   24.2580   43.8560 N   0  0  0  0  0  0  0  0  0  0  0  0
   55.3000   23.5940   44.9150 C   0  0  0  0  0  0  0  0  0  0  0  0
   54.3300   24.5820   45.5710 C   0  0  0  0  0  0  0  0  0  0  0  0
   54.9530   25.8160   45.8120 O   0  0  0  0  0  0  0  0  0  0  0  0
   57.7930   27.2180   44.2180 C   0  0  0  0  0  0  0  0  0  0  0  0
   57.9360   28.5900   44.0380 C   0  0  0  0  0  0  0  0  0  0  0  0
   58.1150   29.4620   45.1360 C   0  0  0  0  0  0  0  0  0  0  0  0
   58.1740   30.8340   44.9550 N   0  0  0  0  0  0  0  0  0  0  0  0
   57.6390   31.4350   43.7180 C   0  0  0  0  0  0  0  0  0  0  0  0
   58.5850   31.6300   46.0020 C   0  0  0  0  0  0  0  0  0  0  0  0
   58.6650   31.1030   47.2900 C   0  0  0  0  0  0  0  0  0  0  0  0
   59.0040   32.3250   48.4070 S   0  0  0  0  0  0  0  0  0  0  0  0
   59.1300   33.5350   47.2550 C   0  0  0  0  0  0  0  0  0  0  0  0
   59.4820   34.8640   47.4800 C   0  0  0  0  0  0  0  0  0  0  0  0
   59.6680   35.7000   46.3730 C   0  0  0  0  0  0  0  0  0  0  0  0
   59.5360   35.1870   45.0730 C   0  0  0  0  0  0  0  0  0  0  0  0
   59.1850   33.8430   44.8660 C   0  0  0  0  0  0  0  0  0  0  0  0
   58.9230   33.0150   45.9760 C   0  0  0  0  0  0  0  0  0  0  0  0
   57.8048   32.5996   52.9671 H   0  0  0  0  0  0  0  0  0  0  0  0
   58.9074   32.6038   51.5491 H   0  0  0  0  0  0  0  0  0  0  0  0
   57.4404   33.6404   51.5491 H   0  0  0  0  0  0  0  0  0  0  0  0
   56.0925   31.4410   51.7655 H   0  0  0  0  0  0  0  0  0  0  0  0
   56.8786   31.7619   50.1813 H   0  0  0  0  0  0  0  0  0  0  0  0
   57.3013   28.3402   52.0401 H   0  0  0  0  0  0  0  0  0  0  0  0
   57.8554   29.5041   53.3164 H   0  0  0  0  0  0  0  0  0  0  0  0
   55.6752   29.7560   53.8249 H   0  0  0  0  0  0  0  0  0  0  0  0
   55.5564   30.7078   52.3061 H   0  0  0  0  0  0  0  0  0  0  0  0
   55.1389   28.9608   52.3061 H   0  0  0  0  0  0  0  0  0  0  0  0
   59.5180   31.4253   50.9156 H   0  0  0  0  0  0  0  0  0  0  0  0
   59.5167   30.5607   52.5306 H   0  0  0  0  0  0  0  0  0  0  0  0
   61.1890   29.5294   51.1375 H   0  0  0  0  0  0  0  0  0  0  0  0
   59.7692   28.4064   51.2966 H   0  0  0  0  0  0  0  0  0  0  0  0
   60.5228   30.1291   48.8928 H   0  0  0  0  0  0  0  0  0  0  0  0
   60.4906   28.3226   49.0158 H   0  0  0  0  0  0  0  0  0  0  0  0
   58.0180   29.8060   49.5650 H   0  0  0  0  0  0  0  0  0  0  0  0
   58.2290   28.2780   48.9710 H   0  0  0  0  0  0  0  0  0  0  0  0
   58.0884   27.0614   47.6097 H   0  0  0  0  0  0  0  0  0  0  0  0
   56.8800   24.9610   46.4200 H   0  0  0  0  0  0  0  0  0  0  0  0
   59.2450   24.5283   44.6297 H   0  0  0  0  0  0  0  0  0  0  0  0
   58.3909   23.3134   45.6683 H   0  0  0  0  0  0  0  0  0  0  0  0
   57.9134   24.0639   42.8614 H   0  0  0  0  0  0  0  0  0  0  0  0
   57.3727   22.6157   43.7989 H   0  0  0  0  0  0  0  0  0  0  0  0
   56.1490   25.2680   44.1200 H   0  0  0  0  0  0  0  0  0  0  0  0
   54.7290   22.7607   44.4796 H   0  0  0  0  0  0  0  0  0  0  0  0
   55.9960   23.2174   45.6790 H   0  0  0  0  0  0  0  0  0  0  0  0
   53.4698   24.7380   44.9034 H   0  0  0  0  0  0  0  0  0  0  0  0
   54.0011   24.1625   46.5332 H   0  0  0  0  0  0  0  0  0  0  0  0
   55.5040   26.0160   45.0120 H   0  0  0  0  0  0  0  0  0  0  0  0
   57.6622   26.5645   43.3429 H   0  0  0  0  0  0  0  0  0  0  0  0
   57.9092   29.0051   43.0197 H   0  0  0  0  0  0  0  0  0  0  0  0
   56.9280   32.2337   43.9761 H   0  0  0  0  0  0  0  0  0  0  0  0
   58.4659   31.8568   43.1279 H   0  0  0  0  0  0  0  0  0  0  0  0
   57.1242   30.6625   43.1279 H   0  0  0  0  0  0  0  0  0  0  0  0
   59.6107   35.2471   48.5031 H   0  0  0  0  0  0  0  0  0  0  0  0
   59.9180   36.7608   46.5219 H   0  0  0  0  0  0  0  0  0  0  0  0
   59.7092   35.8441   44.2080 H   0  0  0  0  0  0  0  0  0  0  0  0
   59.1151   33.4395   43.8451 H   0  0  0  0  0  0  0  0  0  0  0  0
  1  2  1  0
  2  3  1  0
  3  4  1  0
  4  5  1  0
  3  6  1  0
  6  7  1  0
  7  8  1  0
  8  9  1  0
  9 10  1  0
 10 11  2  0
 11 12  1  0
 12 13  2  0
 13 14  1  0
 14 15  1  0
 15 16  1  0
 16 17  1  0
 17 18  1  0
 18 19  1  0
 19 20  1  0
 13 21  1  0
 21 22  2  0
 22 23  1  0
 23 24  2  0
 24 25  1  0
 24 26  1  0
 26 27  2  0
 27 28  1  0
 28 29  1  0
 29 30  2  0
 30 31  1  0
 31 32  2  0
 32 33  1  0
 33 34  2  0
 27 10  1  0
 34 29  1  0
 23 11  1  0
 34 26  1  0
  1 35  1  0
  1 36  1  0
  1 37  1  0
  2 38  1  0
  2 39  1  0
  4 40  1  0
  4 41  1  0
  5 42  1  0
  5 43  1  0
  5 44  1  0
  6 45  1  0
  6 46  1  0
  7 47  1  0
  7 48  1  0
  8 49  1  0
  8 50  1  0
  9 51  1  0
  9 52  1  0
 12 53  1  0
 14 54  1  0
 15 55  1  0
 15 56  1  0
 16 57  1  0
 16 58  1  0
 17 59  1  0
 18 60  1  0
 18 61  1  0
 19 62  1  0
 19 63  1  0
 20 64  1  0
 21 65  1  0
 22 66  1  0
 25 67  1  0
 25 68  1  0
 25 69  1  0
 30 70  1  0
 31 71  1  0
 32 72  1  0
 33 73  1  0
M  CHG  2   9   1  24   1
M  END
>  <UniqueID>  (19) 
19

>  <SMILES>  (19) 
CCN(CC)CCC[NH2+]c1c2cc(NCCNCCO)ccc2[n+](C)c2c1sc1ccccc12

>  <Energy>  (19) 
130.97356103568566

>  <Genealogy>  (19) 
CCN(CC)CCC[NH2+]c1c2cc(NCCNCCO)ccc2[n+](C)c2c1sc1ccccc12 (protonated)
CCN(CC)CCC[NH2+]c1c2cc(NCCNCCO)ccc2[n+](C)c2c1sc1ccccc12 (3D coordinates assigned)
CCN(CC)CCC[NH2+]c1c2cc(NCCNCCO)ccc2[n+](C)c2c1sc1ccccc12 (optimized conformer: 130.97356103568566 kcal/mol)

>  <smiles>  (19) 
CCN(CC)CCCNc1c2cc(NCCNCCO)ccc2[n+](C)c2c1sc1ccccc12

>  <score_type>  (19) 
oracle

>  <origin>  (19) 
adg

>  <m_score__min__energy>  (19) 
-6.3399999999999999

>  <m_primary>  (19) 
energy

$$$$
19:0
     RDKit          3D

 55 57  0  0  0  0  0  0  0  0999 V2000
   63.2310   33.9410   46.3840 C   0  0  0  0  0  0  0  0  0  0  0  0
   63.6790   32.6440   47.0630 C   0  0  0  0  0  0  0  0  0  0  0  0
   63.1120   32.5110   48.4260 N   0  0  0  0  0  0  0  0  0  0  0  0
   64.1530   32.0460   49.3680 C   0  0  0  0  0  0  0  0  0  0  0  0
   62.5690   33.8160   48.8670 C   0  0  0  0  0  0  0  0  0  0  0  0
   61.2840   33.6670   49.7070 C   0  0  0  0  0  0  0  0  0  0  0  0
   61.0930   32.3190   50.2550 N   0  0  0  0  0  0  0  0  0  0  0  0
   59.6970   31.8660   50.1690 C   0  0  0  0  0  0  0  0  0  0  0  0
   59.5480   30.8210   49.0570 C   0  0  0  0  0  0  0  0  0  0  0  0
   60.4950   31.0720   47.9570 N   0  0  0  0  0  0  0  0  0  0  0  0
   59.7930   31.1750   46.6870 C   0  0  0  0  0  0  0  0  0  0  0  0
   59.4520   32.4470   46.1520 C   0  0  0  0  0  0  0  0  0  0  0  0
   59.9080   33.6510   46.7440 C   0  0  0  0  0  0  0  0  0  0  0  0
   59.4850   34.8910   46.2730 C   0  0  0  0  0  0  0  0  0  0  0  0
   58.5980   34.9650   45.2090 C   0  0  0  0  0  0  0  0  0  0  0  0
   58.1720   33.8020   44.5750 C   0  0  0  0  0  0  0  0  0  0  0  0
   58.6320   32.5230   44.9920 C   0  0  0  0  0  0  0  0  0  0  0  0
   58.2840   31.3780   44.3060 N   0  0  0  0  0  0  0  0  0  0  0  0
   57.6790   31.4840   42.9560 C   0  0  0  0  0  0  0  0  0  0  0  0
   58.5470   30.1340   44.8460 C   0  0  0  0  0  0  0  0  0  0  0  0
   58.0000   28.9520   44.2810 C   0  0  0  0  0  0  0  0  0  0  0  0
   58.3510   27.6930   44.7570 C   0  0  0  0  0  0  0  0  0  0  0  0
   59.2440   27.5720   45.8120 C   0  0  0  0  0  0  0  0  0  0  0  0
   59.7240   25.9810   46.3760 Cl  0  0  0  0  0  0  0  0  0  0  0  0
   59.7470   28.7140   46.4330 C   0  0  0  0  0  0  0  0  0  0  0  0
   59.3690   30.0100   46.0000 C   0  0  0  0  0  0  0  0  0  0  0  0
   62.9735   34.6864   47.1509 H   0  0  0  0  0  0  0  0  0  0  0  0
   64.0477   34.3275   45.7566 H   0  0  0  0  0  0  0  0  0  0  0  0
   62.3499   33.7410   45.7566 H   0  0  0  0  0  0  0  0  0  0  0  0
   63.3463   31.7903   46.4543 H   0  0  0  0  0  0  0  0  0  0  0  0
   64.7754   32.6649   47.1497 H   0  0  0  0  0  0  0  0  0  0  0  0
   63.8080   32.2001   50.4010 H   0  0  0  0  0  0  0  0  0  0  0  0
   64.3464   30.9760   49.2018 H   0  0  0  0  0  0  0  0  0  0  0  0
   65.0790   32.6161   49.2018 H   0  0  0  0  0  0  0  0  0  0  0  0
   63.3301   34.3279   49.4742 H   0  0  0  0  0  0  0  0  0  0  0  0
   62.3147   34.3940   47.9663 H   0  0  0  0  0  0  0  0  0  0  0  0
   61.3312   34.3791   50.5440 H   0  0  0  0  0  0  0  0  0  0  0  0
   60.4353   33.8655   49.0360 H   0  0  0  0  0  0  0  0  0  0  0  0
   61.7050   31.6450   49.7380 H   0  0  0  0  0  0  0  0  0  0  0  0
   59.3998   31.4197   51.1295 H   0  0  0  0  0  0  0  0  0  0  0  0
   59.0529   32.7280   49.9407 H   0  0  0  0  0  0  0  0  0  0  0  0
   59.7413   29.8222   49.4755 H   0  0  0  0  0  0  0  0  0  0  0  0
   58.5255   30.8835   48.6562 H   0  0  0  0  0  0  0  0  0  0  0  0
   61.2230   30.3230   47.9260 H   0  0  0  0  0  0  0  0  0  0  0  0
   61.0560   31.9330   48.1400 H   0  0  0  0  0  0  0  0  0  0  0  0
   60.6087   33.6051   47.5907 H   0  0  0  0  0  0  0  0  0  0  0  0
   59.8546   35.8132   46.7452 H   0  0  0  0  0  0  0  0  0  0  0  0
   58.2312   35.9438   44.8663 H   0  0  0  0  0  0  0  0  0  0  0  0
   57.4656   33.8735   43.7348 H   0  0  0  0  0  0  0  0  0  0  0  0
   56.5996   31.6731   43.0517 H   0  0  0  0  0  0  0  0  0  0  0  0
   58.1493   32.3134   42.4075 H   0  0  0  0  0  0  0  0  0  0  0  0
   57.8393   30.5441   42.4075 H   0  0  0  0  0  0  0  0  0  0  0  0
   57.2840   29.0335   43.4499 H   0  0  0  0  0  0  0  0  0  0  0  0
   57.9199   26.7919   44.2963 H   0  0  0  0  0  0  0  0  0  0  0  0
   60.4491   28.6079   47.2732 H   0  0  0  0  0  0  0  0  0  0  0  0
  1  2  1  0
  2  3  1  0
  3  4  1  0
  3  5  1  0
  5  6  1  0
  6  7  1  0
  7  8  1  0
  8  9  1  0
  9 10  1  0
 10 11  1  0
 11 12  2  0
 12 13  1  0
 13 14  2  0
 14 15  1  0
 15 16  2  0
 16 17  1  0
 17 18  2  0
 18 19  1  0
 18 20  1  0
 20 21  2  0
 21 22  1  0
 22 23  2  0
 23 24  1  0
 23 25  1  0
 25 26  2  0
 26 11  1  0
 17 12  1  0
 26 20  1  0
  1 27  1  0
  1 28  1  0
  1 29  1  0
  2 30  1  0
  2 31  1  0
  4 32  1  0
  4 33  1  0
  4 34  1  0
  5 35  1  0
  5 36  1  0
  6 37  1  0
  6 38  1  0
  7 39  1  0
  8 40  1  0
  8 41  1  0
  9 42  1  0
  9 43  1  0
 10 44  1  0
 10 45  1  0
 13 46  1  0
 14 47  1  0
 15 48  1  0
 16 49  1  0
 19 50  1  0
 19 51  1  0
 19 52  1  0
 21 53  1  0
 22 54  1  0
 25 55  1  0
M  CHG  2  10   1  18   1
M  END
>  <UniqueID>  (20) 
20

>  <SMILES>  (20) 
CCN(C)CCNCC[NH2+]c1c2ccccc2[n+](C)c2ccc(Cl)cc12

>  <Energy>  (20) 
82.63864461068437

>  <Genealogy>  (20) 
CCN(C)CCNCC[NH2+]c1c2ccccc2[n+](C)c2ccc(Cl)cc12 (protonated)
CCN(C)CCNCC[NH2+]c1c2ccccc2[n+](C)c2ccc(Cl)cc12 (3D coordinates assigned)
CCN(C)CCNCC[NH2+]c1c2ccccc2[n+](C)c2ccc(Cl)cc12 (optimized conformer: 82.63864461068437 kcal/mol)

>  <smiles>  (20) 
CCN(C)CCNCCNc1c2ccccc2[n+](C)c2ccc(Cl)cc12

>  <score_type>  (20) 
oracle

>  <origin>  (20) 
adg

>  <m_score__min__energy>  (20) 
-3.8900000000000001

>  <m_primary>  (20) 
energy

$$$$
20:0
     RDKit          3D

 50 51  0  0  0  0  0  0  0  0999 V2000
   55.5350   29.7730   44.0950 C   0  0  0  0  0  0  0  0  0  0  0  0
   56.6160   29.9710   43.0380 C   0  0  0  0  0  0  0  0  0  0  0  0
   57.3490   31.3140   43.1710 C   0  0  0  0  0  0  0  0  0  0  0  0
   58.2330   31.3390   44.3580 N   0  0  0  0  0  0  0  0  0  0  0  0
   58.6260   30.1220   44.8410 C   0  0  0  0  0  0  0  0  0  0  0  0
   59.4410   30.0130   45.9600 C   0  0  0  0  0  0  0  0  0  0  0  0
   59.8910   31.1570   46.6130 C   0  0  0  0  0  0  0  0  0  0  0  0
   60.7290   31.0220   47.7750 N   0  0  0  0  0  0  0  0  0  0  0  0
   62.1910   31.0520   47.7050 C   0  0  0  0  0  0  0  0  0  0  0  0
   62.8030   31.7050   48.9570 C   0  0  0  0  0  0  0  0  0  0  0  0
   63.8460   32.7200   48.6180 N   0  0  0  0  0  0  0  0  0  0  0  0
   63.2560   33.8680   47.8820 C   0  0  0  0  0  0  0  0  0  0  0  0
   63.4250   33.7540   46.3610 C   0  0  0  0  0  0  0  0  0  0  0  0
   64.6350   33.1130   49.8160 C   0  0  0  0  0  0  0  0  0  0  0  0
   66.1160   32.7180   49.7660 C   0  0  0  0  0  0  0  0  0  0  0  0
   59.5070   32.4230   46.1230 C   0  0  0  0  0  0  0  0  0  0  0  0
   59.9110   33.6060   46.7740 C   0  0  0  0  0  0  0  0  0  0  0  0
   59.5200   34.8510   46.2920 C   0  0  0  0  0  0  0  0  0  0  0  0
   58.7250   34.9410   45.1560 C   0  0  0  0  0  0  0  0  0  0  0  0
   58.3020   33.7880   44.4990 C   0  0  0  0  0  0  0  0  0  0  0  0
   58.6670   32.5020   44.9710 C   0  0  0  0  0  0  0  0  0  0  0  0
   55.9822   29.8549   45.0966 H   0  0  0  0  0  0  0  0  0  0  0  0
   54.7597   30.5441   43.9754 H   0  0  0  0  0  0  0  0  0  0  0  0
   55.0833   28.7772   43.9754 H   0  0  0  0  0  0  0  0  0  0  0  0
   57.3522   29.1593   43.1336 H   0  0  0  0  0  0  0  0  0  0  0  0
   56.1203   29.9634   42.0561 H   0  0  0  0  0  0  0  0  0  0  0  0
   57.9575   31.4790   42.2696 H   0  0  0  0  0  0  0  0  0  0  0  0
   56.5951   32.1065   43.2876 H   0  0  0  0  0  0  0  0  0  0  0  0
   58.2887   29.2075   44.3312 H   0  0  0  0  0  0  0  0  0  0  0  0
   59.7320   29.0194   46.3316 H   0  0  0  0  0  0  0  0  0  0  0  0
   60.2890   30.8290   48.7030 H   0  0  0  0  0  0  0  0  0  0  0  0
   62.5659   30.0213   47.6201 H   0  0  0  0  0  0  0  0  0  0  0  0
   62.4821   31.6484   46.8278 H   0  0  0  0  0  0  0  0  0  0  0  0
   62.0012   32.1987   49.5256 H   0  0  0  0  0  0  0  0  0  0  0  0
   63.2859   30.9120   49.5468 H   0  0  0  0  0  0  0  0  0  0  0  0
   64.5330   32.2830   47.9630 H   0  0  0  0  0  0  0  0  0  0  0  0
   62.1816   33.9178   48.1128 H   0  0  0  0  0  0  0  0  0  0  0  0
   63.7873   34.7752   48.2056 H   0  0  0  0  0  0  0  0  0  0  0  0
   64.3175   33.1519   46.1354 H   0  0  0  0  0  0  0  0  0  0  0  0
   62.5370   33.2696   45.9287 H   0  0  0  0  0  0  0  0  0  0  0  0
   63.5416   34.7588   45.9287 H   0  0  0  0  0  0  0  0  0  0  0  0
   64.5754   34.2063   49.9220 H   0  0  0  0  0  0  0  0  0  0  0  0
   64.1976   32.5711   50.6675 H   0  0  0  0  0  0  0  0  0  0  0  0
   66.5028   32.6148   50.7906 H   0  0  0  0  0  0  0  0  0  0  0  0
   66.2223   31.7601   49.2358 H   0  0  0  0  0  0  0  0  0  0  0  0
   66.6852   33.4957   49.2358 H   0  0  0  0  0  0  0  0  0  0  0  0
   60.5422   33.5442   47.6728 H   0  0  0  0  0  0  0  0  0  0  0  0
   59.8409   35.7661   46.8113 H   0  0  0  0  0  0  0  0  0  0  0  0
   58.4280   35.9286   44.7733 H   0  0  0  0  0  0  0  0  0  0  0  0
   57.6748   33.8766   43.5997 H   0  0  0  0  0  0  0  0  0  0  0  0
  1  2  1  0
  2  3  1  0
  3  4  1  0
  4  5  2  0
  5  6  1  0
  6  7  2  0
  7  8  1  0
  8  9  1  0
  9 10  1  0
 10 11  1  0
 11 12  1  0
 12 13  1  0
 11 14  1  0
 14 15  1  0
  7 16  1  0
 16 17  2  0
 17 18  1  0
 18 19  2  0
 19 20  1  0
 20 21  2  0
 21  4  1  0
 21 16  1  0
  1 22  1  0
  1 23  1  0
  1 24  1  0
  2 25  1  0
  2 26  1  0
  3 27  1  0
  3 28  1  0
  5 29  1  0
  6 30  1  0
  8 31  1  0
  9 32  1  0
  9 33  1  0
 10 34  1  0
 10 35  1  0
 11 36  1  0
 12 37  1  0
 12 38  1  0
 13 39  1  0
 13 40  1  0
 13 41  1  0
 14 42  1  0
 14 43  1  0
 15 44  1  0
 15 45  1  0
 15 46  1  0
 17 47  1  0
 18 48  1  0
 19 49  1  0
 20 50  1  0
M  CHG  2   4   1  11   1
M  END
>  <UniqueID>  (21) 
21

>  <SMILES>  (21) 
CCC[n+]1ccc(NCC[NH+](CC)CC)c2ccccc21

>  <Energy>  (21) 
60.19669293854978

>  <Genealogy>  (21) 
CCC[n+]1ccc(NCC[NH+](CC)CC)c2ccccc21 (protonated)
CCC[n+]1ccc(NCC[NH+](CC)CC)c2ccccc21 (3D coordinates assigned)
CCC[n+]1ccc(NCC[NH+](CC)CC)c2ccccc21 (optimized conformer: 60.19669293854978 kcal/mol)

>  <smiles>  (21) 
CCC[n+]1ccc(NCCN(CC)CC)c2ccccc21

>  <score_type>  (21) 
oracle

>  <origin>  (21) 
adg

>  <m_score__min__energy>  (21) 
-3.7200000000000002

>  <m_primary>  (21) 
energy

$$$$
21:0
     RDKit          3D

 39 39  0  0  0  0  0  0  0  0999 V2000
   60.4410   26.6000   46.3860 C   0  0  0  0  0  0  0  0  0  0  0  0
   59.1010   27.1460   45.8760 C   0  0  0  0  0  0  0  0  0  0  0  0
   59.1300   28.5810   45.5100 N   0  0  0  0  0  0  0  0  0  0  0  0
   60.4530   29.0050   45.0190 C   0  0  0  0  0  0  0  0  0  0  0  0
   58.6370   29.4550   46.5950 C   0  0  0  0  0  0  0  0  0  0  0  0
   58.4390   30.8620   46.0840 C   0  0  0  0  0  0  0  0  0  0  0  0
   59.3180   31.8700   46.5130 C   0  0  0  0  0  0  0  0  0  0  0  0
   59.1580   33.1850   46.0720 C   0  0  0  0  0  0  0  0  0  0  0  0
   60.3650   34.5450   46.6580 Br  0  0  0  0  0  0  0  0  0  0  0  0
   58.1130   33.5060   45.2040 C   0  0  0  0  0  0  0  0  0  0  0  0
   57.2240   32.5170   44.7790 C   0  0  0  0  0  0  0  0  0  0  0  0
   57.3740   31.1850   45.2150 C   0  0  0  0  0  0  0  0  0  0  0  0
   56.4860   30.1670   44.8240 O   0  0  0  0  0  0  0  0  0  0  0  0
   55.8670   30.0420   43.5430 C   0  0  0  0  0  0  0  0  0  0  0  0
   56.6550   29.0910   42.6260 C   0  0  0  0  0  0  0  0  0  0  0  0
   57.6860   28.3170   43.3410 N   0  0  0  0  0  0  0  0  0  0  0  0
   58.0120   27.0550   42.6680 C   0  0  0  0  0  0  0  0  0  0  0  0
   60.4420   26.5996   47.4860 H   0  0  0  0  0  0  0  0  0  0  0  0
   60.5820   25.5727   46.0188 H   0  0  0  0  0  0  0  0  0  0  0  0
   61.2598   27.2362   46.0188 H   0  0  0  0  0  0  0  0  0  0  0  0
   58.8095   26.5688   44.9861 H   0  0  0  0  0  0  0  0  0  0  0  0
   58.3831   27.0452   46.7033 H   0  0  0  0  0  0  0  0  0  0  0  0
   61.1113   29.2160   45.8746 H   0  0  0  0  0  0  0  0  0  0  0  0
   60.8918   28.2025   44.4079 H   0  0  0  0  0  0  0  0  0  0  0  0
   60.3436   29.9131   44.4079 H   0  0  0  0  0  0  0  0  0  0  0  0
   57.6780   29.0657   46.9674 H   0  0  0  0  0  0  0  0  0  0  0  0
   59.3781   29.4700   47.4077 H   0  0  0  0  0  0  0  0  0  0  0  0
   60.1389   31.6215   47.2018 H   0  0  0  0  0  0  0  0  0  0  0  0
   57.9896   34.5414   44.8538 H   0  0  0  0  0  0  0  0  0  0  0  0
   56.4003   32.7792   44.0988 H   0  0  0  0  0  0  0  0  0  0  0  0
   54.8483   29.6485   43.6752 H   0  0  0  0  0  0  0  0  0  0  0  0
   55.8450   31.0358   43.0721 H   0  0  0  0  0  0  0  0  0  0  0  0
   55.9483   28.3871   42.1621 H   0  0  0  0  0  0  0  0  0  0  0  0
   57.1713   29.7109   41.8782 H   0  0  0  0  0  0  0  0  0  0  0  0
   57.3830   28.1220   44.3240 H   0  0  0  0  0  0  0  0  0  0  0  0
   58.5560   28.8960   43.3840 H   0  0  0  0  0  0  0  0  0  0  0  0
   58.2125   26.2789   43.4213 H   0  0  0  0  0  0  0  0  0  0  0  0
   57.1644   26.7453   42.0390 H   0  0  0  0  0  0  0  0  0  0  0  0
   58.9036   27.1945   42.0390 H   0  0  0  0  0  0  0  0  0  0  0  0
  1  2  1  0
  2  3  1  0
  3  4  1  0
  3  5  1  0
  5  6  1  0
  6  7  2  0
  7  8  1  0
  8  9  1  0
  8 10  2  0
 10 11  1  0
 11 12  2  0
 12 13  1  0
 13 14  1  0
 14 15  1  0
 15 16  1  0
 16 17  1  0
 12  6  1  0
  1 18  1  0
  1 19  1  0
  1 20  1  0
  2 21  1  0
  2 22  1  0
  4 23  1  0
  4 24  1  0
  4 25  1  0
  5 26  1  0
  5 27  1  0
  7 28  1  0
 10 29  1  0
 11 30  1  0
 14 31  1  0
 14 32  1  0
 15 33  1  0
 15 34  1  0
 16 35  1  0
 16 36  1  0
 17 37  1  0
 17 38  1  0
 17 39  1  0
M  CHG  1  16   1
M  END
>  <UniqueID>  (22) 
22

>  <SMILES>  (22) 
CCN(C)Cc1cc(Br)ccc1OCC[NH2+]C

>  <Energy>  (22) 
36.14643157904475

>  <Genealogy>  (22) 
CCN(C)Cc1cc(Br)ccc1OCC[NH2+]C (protonated)
CCN(C)Cc1cc(Br)ccc1OCC[NH2+]C (3D coordinates assigned)
CCN(C)Cc1cc(Br)ccc1OCC[NH2+]C (optimized conformer: 36.14643157904475 kcal/mol)

>  <smiles>  (22) 
CCN(C)Cc1cc(Br)ccc1OCCNC

>  <score_type>  (22) 
oracle

>  <origin>  (22) 
adg

>  <m_score__min__energy>  (22) 
-3.8399999999999999

>  <m_primary>  (22) 
energy

$$$$
22:0
     RDKit          3D

 65 67  0  0  0  0  0  0  0  0999 V2000
   56.4530   24.3770   44.6600 C   0  0  0  0  0  0  0  0  0  0  0  0
   55.4900   25.0200   45.6520 C   0  0  0  0  0  0  0  0  0  0  0  0
   56.2070   25.4500   46.8610 N   0  0  0  0  0  0  0  0  0  0  0  0
   57.3940   24.6200   47.1080 C   0  0  0  0  0  0  0  0  0  0  0  0
   58.6560   25.3820   46.6980 C   0  0  0  0  0  0  0  0  0  0  0  0
   58.6250   26.7180   47.1990 O   0  0  0  0  0  0  0  0  0  0  0  0
   58.5850   27.8840   46.4150 C   0  0  0  0  0  0  0  0  0  0  0  0
   59.7390   28.5990   46.0570 C   0  0  0  0  0  0  0  0  0  0  0  0
   59.6400   29.7560   45.2860 C   0  0  0  0  0  0  0  0  0  0  0  0
   58.3880   30.2360   44.8650 C   0  0  0  0  0  0  0  0  0  0  0  0
   58.3080   31.5210   44.0570 C   0  0  0  0  0  0  0  0  0  0  0  0
   57.9240   32.7110   44.8530 N   0  0  0  0  0  0  0  0  0  0  0  0
   58.6420   33.9560   44.4890 C   0  0  0  0  0  0  0  0  0  0  0  0
   59.6450   34.3710   45.5740 C   0  0  0  0  0  0  0  0  0  0  0  0
   58.9730   34.6220   46.8710 N   0  0  0  0  0  0  0  0  0  0  0  0
   59.9400   34.5120   47.9840 C   0  0  0  0  0  0  0  0  0  0  0  0
   60.2570   33.0670   48.2650 C   0  0  0  0  0  0  0  0  0  0  0  0
   59.5540   32.3590   49.2500 C   0  0  0  0  0  0  0  0  0  0  0  0
   59.8600   31.0190   49.5090 C   0  0  0  0  0  0  0  0  0  0  0  0
   60.8660   30.3670   48.7880 C   0  0  0  0  0  0  0  0  0  0  0  0
   61.1330   29.0230   49.0850 O   0  0  0  0  0  0  0  0  0  0  0  0
   60.5070   28.2900   50.1340 C   0  0  0  0  0  0  0  0  0  0  0  0
   61.5700   31.0760   47.7970 C   0  0  0  0  0  0  0  0  0  0  0  0
   61.2690   32.4180   47.5420 C   0  0  0  0  0  0  0  0  0  0  0  0
   57.7700   33.7740   47.0910 C   0  0  0  0  0  0  0  0  0  0  0  0
   57.8410   32.4560   46.3080 C   0  0  0  0  0  0  0  0  0  0  0  0
   57.2270   29.4990   45.1830 C   0  0  0  0  0  0  0  0  0  0  0  0
   55.9830   29.9490   44.7090 O   0  0  0  0  0  0  0  0  0  0  0  0
   55.5080   29.7650   43.3790 C   0  0  0  0  0  0  0  0  0  0  0  0
   57.3400   28.3330   45.9670 C   0  0  0  0  0  0  0  0  0  0  0  0
   57.2457   23.8477   45.2090 H   0  0  0  0  0  0  0  0  0  0  0  0
   55.9053   23.6628   44.0277 H   0  0  0  0  0  0  0  0  0  0  0  0
   56.9027   25.1567   44.0277 H   0  0  0  0  0  0  0  0  0  0  0  0
   55.0164   25.8944   45.1818 H   0  0  0  0  0  0  0  0  0  0  0  0
   54.7258   24.2814   45.9355 H   0  0  0  0  0  0  0  0  0  0  0  0
   56.5390   26.4330   46.7040 H   0  0  0  0  0  0  0  0  0  0  0  0
   57.4493   24.3716   48.1782 H   0  0  0  0  0  0  0  0  0  0  0  0
   57.3199   23.6962   46.5155 H   0  0  0  0  0  0  0  0  0  0  0  0
   59.5378   24.8647   47.1040 H   0  0  0  0  0  0  0  0  0  0  0  0
   58.7058   25.4177   45.5997 H   0  0  0  0  0  0  0  0  0  0  0  0
   60.7266   28.2442   46.3867 H   0  0  0  0  0  0  0  0  0  0  0  0
   60.5533   30.3002   45.0035 H   0  0  0  0  0  0  0  0  0  0  0  0
   59.2943   31.7090   43.6077 H   0  0  0  0  0  0  0  0  0  0  0  0
   57.5201   31.3745   43.3035 H   0  0  0  0  0  0  0  0  0  0  0  0
   59.1844   33.7920   43.5462 H   0  0  0  0  0  0  0  0  0  0  0  0
   57.8999   34.7609   44.3822 H   0  0  0  0  0  0  0  0  0  0  0  0
   60.3833   33.5660   45.7044 H   0  0  0  0  0  0  0  0  0  0  0  0
   60.1328   35.3033   45.2532 H   0  0  0  0  0  0  0  0  0  0  0  0
   60.8661   35.0398   47.7126 H   0  0  0  0  0  0  0  0  0  0  0  0
   59.4981   34.9616   48.8855 H   0  0  0  0  0  0  0  0  0  0  0  0
   58.7585   32.8595   49.8215 H   0  0  0  0  0  0  0  0  0  0  0  0
   59.3049   30.4732   50.2862 H   0  0  0  0  0  0  0  0  0  0  0  0
   60.8418   28.6820   51.1057 H   0  0  0  0  0  0  0  0  0  0  0  0
   59.4149   28.3943   50.0531 H   0  0  0  0  0  0  0  0  0  0  0  0
   60.7809   27.2277   50.0531 H   0  0  0  0  0  0  0  0  0  0  0  0
   62.3602   30.5728   47.2205 H   0  0  0  0  0  0  0  0  0  0  0  0
   61.8287   32.9673   46.7706 H   0  0  0  0  0  0  0  0  0  0  0  0
   57.6889   33.5451   48.1639 H   0  0  0  0  0  0  0  0  0  0  0  0
   56.8922   34.3327   46.7343 H   0  0  0  0  0  0  0  0  0  0  0  0
   58.7319   31.8950   46.6269 H   0  0  0  0  0  0  0  0  0  0  0  0
   56.9289   31.8760   46.5120 H   0  0  0  0  0  0  0  0  0  0  0  0
   54.4826   29.3678   43.4075 H   0  0  0  0  0  0  0  0  0  0  0  0
   55.5128   30.7300   42.8511 H   0  0  0  0  0  0  0  0  0  0  0  0
   56.1617   29.0550   42.8511 H   0  0  0  0  0  0  0  0  0  0  0  0
   56.4338   27.7677   46.2302 H   0  0  0  0  0  0  0  0  0  0  0  0
  1  2  1  0
  2  3  1  0
  3  4  1  0
  4  5  1  0
  5  6  1  0
  6  7  1  0
  7  8  2  0
  8  9  1  0
  9 10  2  0
 10 11  1  0
 11 12  1  0
 12 13  1  0
 13 14  1  0
 14 15  1  0
 15 16  1  0
 16 17  1  0
 17 18  2  0
 18 19  1  0
 19 20  2  0
 20 21  1  0
 21 22  1  0
 20 23  1  0
 23 24  2  0
 15 25  1  0
 25 26  1  0
 10 27  1  0
 27 28  1  0
 28 29  1  0
 27 30  2  0
 30  7  1  0
 26 12  1  0
 24 17  1  0
  1 31  1  0
  1 32  1  0
  1 33  1  0
  2 34  1  0
  2 35  1  0
  3 36  1  0
  4 37  1  0
  4 38  1  0
  5 39  1  0
  5 40  1  0
  8 41  1  0
  9 42  1  0
 11 43  1  0
 11 44  1  0
 13 45  1  0
 13 46  1  0
 14 47  1  0
 14 48  1  0
 16 49  1  0
 16 50  1  0
 18 51  1  0
 19 52  1  0
 22 53  1  0
 22 54  1  0
 22 55  1  0
 23 56  1  0
 24 57  1  0
 25 58  1  0
 25 59  1  0
 26 60  1  0
 26 61  1  0
 29 62  1  0
 29 63  1  0
 29 64  1  0
 30 65  1  0
M  END
>  <UniqueID>  (23) 
23

>  <SMILES>  (23) 
CCNCCOc1ccc(CN2CCN(Cc3ccc(OC)cc3)CC2)c(OC)c1

>  <Energy>  (23) 
75.04683623732053

>  <Genealogy>  (23) 
CCNCCOc1ccc(CN2CCN(Cc3ccc(OC)cc3)CC2)c(OC)c1 (3D coordinates assigned)
CCNCCOc1ccc(CN2CCN(Cc3ccc(OC)cc3)CC2)c(OC)c1 (nonaromatic ring conformer: 75.04683623732053 kcal/mol)

>  <smiles>  (23) 
CCNCCOc1ccc(CN2CCN(Cc3ccc(OC)cc3)CC2)c(OC)c1

>  <score_type>  (23) 
oracle

>  <origin>  (23) 
adg

>  <m_score__min__energy>  (23) 
-8.1799999999999997

>  <m_primary>  (23) 
energy

$$$$
23:0
     RDKit          3D

 62 65  0  0  0  0  0  0  0  0999 V2000
   58.0360   32.6240   41.1190 C   0  0  0  0  0  0  0  0  0  0  0  0
   58.2590   32.5860   42.6280 C   0  0  0  0  0  0  0  0  0  0  0  0
   57.6050   31.3900   43.2090 N   0  0  0  0  0  0  0  0  0  0  0  0
   56.6460   30.7960   42.2500 C   0  0  0  0  0  0  0  0  0  0  0  0
   56.3400   29.3470   42.6230 C   0  0  0  0  0  0  0  0  0  0  0  0
   56.9370   31.7150   44.4890 C   0  0  0  0  0  0  0  0  0  0  0  0
   57.9170   31.6270   45.6400 C   0  0  0  0  0  0  0  0  0  0  0  0
   58.4960   32.7150   46.2880 C   0  0  0  0  0  0  0  0  0  0  0  0
   58.2850   34.1700   45.9790 C   0  0  0  0  0  0  0  0  0  0  0  0
   58.6020   34.9400   47.0820 F   0  0  0  0  0  0  0  0  0  0  0  0
   56.9630   34.4060   45.6440 F   0  0  0  0  0  0  0  0  0  0  0  0
   59.0850   34.5370   44.9130 F   0  0  0  0  0  0  0  0  0  0  0  0
   59.2610   32.2680   47.3050 N   0  0  0  0  0  0  0  0  0  0  0  0
   59.1430   30.9210   47.2720 C   0  0  0  0  0  0  0  0  0  0  0  0
   59.7540   30.0390   48.1330 N   0  0  0  0  0  0  0  0  0  0  0  0
   60.6190   30.5320   49.2290 C   0  0  0  0  0  0  0  0  0  0  0  0
   61.5740   31.5990   48.7490 C   0  0  0  0  0  0  0  0  0  0  0  0
   61.6410   32.8350   49.4170 C   0  0  0  0  0  0  0  0  0  0  0  0
   62.5000   33.8400   48.9620 C   0  0  0  0  0  0  0  0  0  0  0  0
   63.2910   33.6260   47.8290 C   0  0  0  0  0  0  0  0  0  0  0  0
   64.1230   34.6010   47.3880 F   0  0  0  0  0  0  0  0  0  0  0  0
   63.2200   32.4080   47.1490 C   0  0  0  0  0  0  0  0  0  0  0  0
   62.3610   31.4000   47.5990 C   0  0  0  0  0  0  0  0  0  0  0  0
   59.5590   28.6810   47.9330 C   0  0  0  0  0  0  0  0  0  0  0  0
   60.2010   27.6690   48.8670 C   0  0  0  0  0  0  0  0  0  0  0  0
   58.7280   28.2330   46.8650 C   0  0  0  0  0  0  0  0  0  0  0  0
   58.5180   26.7960   46.5790 C   0  0  0  0  0  0  0  0  0  0  0  0
   59.5970   25.9880   46.1890 C   0  0  0  0  0  0  0  0  0  0  0  0
   59.3960   24.6280   45.9260 C   0  0  0  0  0  0  0  0  0  0  0  0
   58.1200   24.0710   46.0570 C   0  0  0  0  0  0  0  0  0  0  0  0
   57.0440   24.8710   46.4520 C   0  0  0  0  0  0  0  0  0  0  0  0
   57.2410   26.2300   46.7160 C   0  0  0  0  0  0  0  0  0  0  0  0
   58.1060   29.1830   46.0410 C   0  0  0  0  0  0  0  0  0  0  0  0
   57.3580   28.8090   45.0980 O   0  0  0  0  0  0  0  0  0  0  0  0
   58.3420   30.5010   46.2740 N   0  0  0  0  0  0  0  0  0  0  0  0
   56.9714   32.8054   40.9101 H   0  0  0  0  0  0  0  0  0  0  0  0
   58.6388   33.4324   40.6795 H   0  0  0  0  0  0  0  0  0  0  0  0
   58.3371   31.6616   40.6795 H   0  0  0  0  0  0  0  0  0  0  0  0
   59.3386   32.5473   42.8355 H   0  0  0  0  0  0  0  0  0  0  0  0
   57.8235   33.4897   43.0793 H   0  0  0  0  0  0  0  0  0  0  0  0
   55.7126   31.3779   42.2649 H   0  0  0  0  0  0  0  0  0  0  0  0
   57.0915   30.8167   41.2445 H   0  0  0  0  0  0  0  0  0  0  0  0
   56.3189   29.2469   43.7182 H   0  0  0  0  0  0  0  0  0  0  0  0
   55.3616   29.0608   42.2097 H   0  0  0  0  0  0  0  0  0  0  0  0
   57.1191   28.6896   42.2097 H   0  0  0  0  0  0  0  0  0  0  0  0
   56.5323   32.7365   44.4362 H   0  0  0  0  0  0  0  0  0  0  0  0
   56.1255   30.9921   44.6586 H   0  0  0  0  0  0  0  0  0  0  0  0
   59.8260   32.8640   47.9480 H   0  0  0  0  0  0  0  0  0  0  0  0
   59.9841   30.9526   50.0227 H   0  0  0  0  0  0  0  0  0  0  0  0
   61.2116   29.6853   49.6059 H   0  0  0  0  0  0  0  0  0  0  0  0
   61.0136   33.0121   50.3030 H   0  0  0  0  0  0  0  0  0  0  0  0
   62.5536   34.8002   49.4960 H   0  0  0  0  0  0  0  0  0  0  0  0
   63.8415   32.2410   46.2569 H   0  0  0  0  0  0  0  0  0  0  0  0
   62.3002   30.4477   47.0519 H   0  0  0  0  0  0  0  0  0  0  0  0
   60.0144   27.9631   49.9104 H   0  0  0  0  0  0  0  0  0  0  0  0
   59.7683   26.6745   48.6834 H   0  0  0  0  0  0  0  0  0  0  0  0
   61.2851   27.6368   48.6834 H   0  0  0  0  0  0  0  0  0  0  0  0
   60.6020   26.4240   46.0898 H   0  0  0  0  0  0  0  0  0  0  0  0
   60.2421   23.9971   45.6161 H   0  0  0  0  0  0  0  0  0  0  0  0
   57.9629   23.0023   45.8490 H   0  0  0  0  0  0  0  0  0  0  0  0
   56.0411   24.4310   46.5553 H   0  0  0  0  0  0  0  0  0  0  0  0
   56.3937   26.8565   47.0316 H   0  0  0  0  0  0  0  0  0  0  0  0
  1  2  1  0
  2  3  1  0
  3  4  1  0
  4  5  1  0
  3  6  1  0
  6  7  1  0
  7  8  2  0
  8  9  1  0
  9 10  1  0
  9 11  1  0
  9 12  1  0
  8 13  1  0
 13 14  2  0
 14 15  1  0
 15 16  1  0
 16 17  1  0
 17 18  2  0
 18 19  1  0
 19 20  2  0
 20 21  1  0
 20 22  1  0
 22 23  2  0
 15 24  1  0
 24 25  1  0
 24 26  2  0
 26 27  1  0
 27 28  2  0
 28 29  1  0
 29 30  2  0
 30 31  1  0
 31 32  2  0
 26 33  1  0
 33 34  2  0
 33 35  1  0
 35  7  1  0
 35 14  1  0
 23 17  1  0
 32 27  1  0
  1 36  1  0
  1 37  1  0
  1 38  1  0
  2 39  1  0
  2 40  1  0
  4 41  1  0
  4 42  1  0
  5 43  1  0
  5 44  1  0
  5 45  1  0
  6 46  1  0
  6 47  1  0
 13 48  1  0
 16 49  1  0
 16 50  1  0
 18 51  1  0
 19 52  1  0
 22 53  1  0
 23 54  1  0
 25 55  1  0
 25 56  1  0
 25 57  1  0
 28 58  1  0
 29 59  1  0
 30 60  1  0
 31 61  1  0
 32 62  1  0
M  CHG  1  13   1
M  END
>  <UniqueID>  (24) 
24

>  <SMILES>  (24) 
CCN(CC)Cc1c(C(F)(F)F)[nH+]c2n(Cc3ccc(F)cc3)c(C)c(-c3ccccc3)c(=O)n12

>  <Energy>  (24) 
117.51292749975798

>  <Genealogy>  (24) 
CCN(CC)Cc1c(C(F)(F)F)[nH+]c2n(Cc3ccc(F)cc3)c(C)c(-c3ccccc3)c(=O)n12 (protonated)
CCN(CC)Cc1c(C(F)(F)F)[nH+]c2n(Cc3ccc(F)cc3)c(C)c(-c3ccccc3)c(=O)n12 (3D coordinates assigned)
CCN(CC)Cc1c(C(F)(F)F)[nH+]c2n(Cc3ccc(F)cc3)c(C)c(-c3ccccc3)c(=O)n12 (optimized conformer: 117.51292749975798 kcal/mol)

>  <smiles>  (24) 
CCN(CC)Cc1c(C(F)(F)F)nc2n(Cc3ccc(F)cc3)c(C)c(-c3ccccc3)c(=O)n12

>  <score_type>  (24) 
oracle

>  <origin>  (24) 
adg

>  <m_score__min__energy>  (24) 
-6.9199999999999999

>  <m_primary>  (24) 
energy

$$$$
24:0
     RDKit          3D

 32 34  0  0  0  0  0  0  0  0999 V2000
   64.5020   33.1040   49.3260 C   0  0  0  0  0  0  0  0  0  0  0  0
   63.2670   32.6420   48.6670 N   0  0  0  0  0  0  0  0  0  0  0  0
   62.0970   33.2990   49.2780 C   0  0  0  0  0  0  0  0  0  0  0  0
   60.8110   32.8080   48.6080 C   0  0  0  0  0  0  0  0  0  0  0  0
   60.8930   32.9830   47.1560 N   0  0  0  0  0  0  0  0  0  0  0  0
   59.6970   32.8970   46.3710 C   0  0  0  0  0  0  0  0  0  0  0  0
   59.0340   34.0670   45.9390 C   0  0  0  0  0  0  0  0  0  0  0  0
   59.6470   35.6600   46.3680 Cl  0  0  0  0  0  0  0  0  0  0  0  0
   57.8690   33.9740   45.1510 C   0  0  0  0  0  0  0  0  0  0  0  0
   57.3470   32.7230   44.7930 C   0  0  0  0  0  0  0  0  0  0  0  0
   58.0160   31.5830   45.2310 C   0  0  0  0  0  0  0  0  0  0  0  0
   57.6190   29.9780   44.9490 S   0  0  0  0  0  0  0  0  0  0  0  0
   58.9200   29.3420   45.8210 C   0  0  0  0  0  0  0  0  0  0  0  0
   59.6720   30.3890   46.3470 C   0  0  0  0  0  0  0  0  0  0  0  0
   59.1640   31.6500   46.0050 C   0  0  0  0  0  0  0  0  0  0  0  0
   62.1270   33.4770   46.5440 C   0  0  0  0  0  0  0  0  0  0  0  0
   63.3560   32.8050   47.1870 C   0  0  0  0  0  0  0  0  0  0  0  0
   64.3749   33.0565   50.4176 H   0  0  0  0  0  0  0  0  0  0  0  0
   65.3410   32.4589   49.0261 H   0  0  0  0  0  0  0  0  0  0  0  0
   64.7116   34.1414   49.0261 H   0  0  0  0  0  0  0  0  0  0  0  0
   62.0634   33.0586   50.3509 H   0  0  0  0  0  0  0  0  0  0  0  0
   62.1821   34.3872   49.1417 H   0  0  0  0  0  0  0  0  0  0  0  0
   60.6672   31.7418   48.8371 H   0  0  0  0  0  0  0  0  0  0  0  0
   59.9628   33.3945   48.9908 H   0  0  0  0  0  0  0  0  0  0  0  0
   57.3647   34.8916   44.8138 H   0  0  0  0  0  0  0  0  0  0  0  0
   56.4348   32.6443   44.1834 H   0  0  0  0  0  0  0  0  0  0  0  0
   59.1377   28.2717   45.9520 H   0  0  0  0  0  0  0  0  0  0  0  0
   60.5697   30.2423   46.9655 H   0  0  0  0  0  0  0  0  0  0  0  0
   62.1128   33.2509   45.4676 H   0  0  0  0  0  0  0  0  0  0  0  0
   62.1923   34.5635   46.7028 H   0  0  0  0  0  0  0  0  0  0  0  0
   63.4769   31.8081   46.7380 H   0  0  0  0  0  0  0  0  0  0  0  0
   64.2119   33.4689   46.9958 H   0  0  0  0  0  0  0  0  0  0  0  0
  1  2  1  0
  2  3  1  0
  3  4  1  0
  4  5  1  0
  5  6  1  0
  6  7  2  0
  7  8  1  0
  7  9  1  0
  9 10  2  0
 10 11  1  0
 11 12  1  0
 12 13  1  0
 13 14  2  0
 14 15  1  0
  5 16  1  0
 16 17  1  0
 17  2  1  0
 15  6  1  0
 15 11  2  0
  1 18  1  0
  1 19  1  0
  1 20  1  0
  3 21  1  0
  3 22  1  0
  4 23  1  0
  4 24  1  0
  9 25  1  0
 10 26  1  0
 13 27  1  0
 14 28  1  0
 16 29  1  0
 16 30  1  0
 17 31  1  0
 17 32  1  0
M  END
>  <UniqueID>  (25) 
25

>  <SMILES>  (25) 
CN1CCN(c2c(Cl)ccc3sccc23)CC1

>  <Energy>  (25) 
75.16233749827423

>  <Genealogy>  (25) 
CN1CCN(c2c(Cl)ccc3sccc23)CC1 (3D coordinates assigned)
CN1CCN(c2c(Cl)ccc3sccc23)CC1 (nonaromatic ring conformer: 75.16233749827423 kcal/mol)

>  <smiles>  (25) 
CN1CCN(c2c(Cl)ccc3sccc23)CC1

>  <score_type>  (25) 
oracle

>  <origin>  (25) 
adg

>  <m_score__min__energy>  (25) 
-6.3200000000000003

>  <m_primary>  (25) 
energy

$$$$
25:0
     RDKit          3D

 56 60  0  0  0  0  0  0  0  0999 V2000
   69.0080   33.8140   50.8650 C   0  0  0  0  0  0  0  0  0  0  0  0
   67.7630   33.0390   50.9970 N   0  0  0  0  0  0  0  0  0  0  0  0
   67.9800   31.9330   51.9470 C   0  0  0  0  0  0  0  0  0  0  0  0
   66.6630   33.9270   51.4330 C   0  0  0  0  0  0  0  0  0  0  0  0
   65.4230   33.8360   50.5170 C   0  0  0  0  0  0  0  0  0  0  0  0
   65.4380   32.6740   49.6020 N   0  0  0  0  0  0  0  0  0  0  0  0
   64.1660   31.9650   49.5670 C   0  0  0  0  0  0  0  0  0  0  0  0
   63.2640   32.1730   48.4880 C   0  0  0  0  0  0  0  0  0  0  0  0
   62.0080   31.5190   48.4960 C   0  0  0  0  0  0  0  0  0  0  0  0
   61.7840   30.4730   49.3600 N   0  0  0  0  0  0  0  0  0  0  0  0
   60.7820   29.4410   49.0280 C   0  0  0  0  0  0  0  0  0  0  0  0
   62.5780   30.3190   50.4750 C   0  0  0  0  0  0  0  0  0  0  0  0
   62.2080   29.4250   51.5110 C   0  0  0  0  0  0  0  0  0  0  0  0
   63.0010   29.2660   52.6430 C   0  0  0  0  0  0  0  0  0  0  0  0
   64.1720   29.9930   52.7770 C   0  0  0  0  0  0  0  0  0  0  0  0
   64.5620   30.8840   51.7820 C   0  0  0  0  0  0  0  0  0  0  0  0
   63.7800   31.0720   50.6120 C   0  0  0  0  0  0  0  0  0  0  0  0
   60.9690   32.0400   47.5560 C   0  0  0  0  0  0  0  0  0  0  0  0
   59.6280   31.8240   47.6080 N   0  0  0  0  0  0  0  0  0  0  0  0
   59.0850   32.6720   46.7140 C   0  0  0  0  0  0  0  0  0  0  0  0
   57.7270   32.8690   46.4580 C   0  0  0  0  0  0  0  0  0  0  0  0
   57.3690   33.8860   45.5540 C   0  0  0  0  0  0  0  0  0  0  0  0
   58.3630   34.6910   44.9520 C   0  0  0  0  0  0  0  0  0  0  0  0
   59.7210   34.4830   45.2460 C   0  0  0  0  0  0  0  0  0  0  0  0
   60.0460   33.4480   46.1210 C   0  0  0  0  0  0  0  0  0  0  0  0
   61.2530   33.0530   46.6540 C   0  0  0  0  0  0  0  0  0  0  0  0
   62.5420   33.8000   46.6440 C   0  0  0  0  0  0  0  0  0  0  0  0
   63.6680   32.9260   47.2120 C   0  0  0  0  0  0  0  0  0  0  0  0
   69.3970   34.0561   51.8650 H   0  0  0  0  0  0  0  0  0  0  0  0
   69.7532   33.2199   50.3157 H   0  0  0  0  0  0  0  0  0  0  0  0
   68.8039   34.7449   50.3157 H   0  0  0  0  0  0  0  0  0  0  0  0
   67.9053   32.3138   52.9763 H   0  0  0  0  0  0  0  0  0  0  0  0
   67.2170   31.1570   51.7868 H   0  0  0  0  0  0  0  0  0  0  0  0
   68.9797   31.5029   51.7868 H   0  0  0  0  0  0  0  0  0  0  0  0
   66.3672   33.6450   52.4543 H   0  0  0  0  0  0  0  0  0  0  0  0
   67.0340   34.9615   51.3871 H   0  0  0  0  0  0  0  0  0  0  0  0
   64.5277   33.7652   51.1521 H   0  0  0  0  0  0  0  0  0  0  0  0
   65.4240   34.7381   49.8876 H   0  0  0  0  0  0  0  0  0  0  0  0
   65.6670   33.0050   48.6380 H   0  0  0  0  0  0  0  0  0  0  0  0
   66.2510   32.0620   49.8180 H   0  0  0  0  0  0  0  0  0  0  0  0
   60.3707   29.0173   49.9561 H   0  0  0  0  0  0  0  0  0  0  0  0
   59.9700   29.8940   48.4403 H   0  0  0  0  0  0  0  0  0  0  0  0
   61.2587   28.6427   48.4403 H   0  0  0  0  0  0  0  0  0  0  0  0
   61.2770   28.8465   51.4182 H   0  0  0  0  0  0  0  0  0  0  0  0
   62.6976   28.5623   53.4322 H   0  0  0  0  0  0  0  0  0  0  0  0
   64.7963   29.8656   53.6736 H   0  0  0  0  0  0  0  0  0  0  0  0
   65.4948   31.4541   51.9043 H   0  0  0  0  0  0  0  0  0  0  0  0
   59.0850   31.2340   48.2740 H   0  0  0  0  0  0  0  0  0  0  0  0
   56.9613   32.2491   46.9473 H   0  0  0  0  0  0  0  0  0  0  0  0
   56.3090   34.0558   45.3142 H   0  0  0  0  0  0  0  0  0  0  0  0
   58.0714   35.4852   44.2490 H   0  0  0  0  0  0  0  0  0  0  0  0
   60.5022   35.1163   44.8002 H   0  0  0  0  0  0  0  0  0  0  0  0
   62.7891   34.0837   45.6103 H   0  0  0  0  0  0  0  0  0  0  0  0
   62.4387   34.7005   47.2673 H   0  0  0  0  0  0  0  0  0  0  0  0
   63.9579   32.1893   46.4483 H   0  0  0  0  0  0  0  0  0  0  0  0
   64.4996   33.5955   47.4769 H   0  0  0  0  0  0  0  0  0  0  0  0
  1  2  1  0
  2  3  1  0
  2  4  1  0
  4  5  1  0
  5  6  1  0
  6  7  1  0
  7  8  2  0
  8  9  1  0
  9 10  2  0
 10 11  1  0
 10 12  1  0
 12 13  2  0
 13 14  1  0
 14 15  2  0
 15 16  1  0
 16 17  2  0
  9 18  1  0
 18 19  1  0
 19 20  1  0
 20 21  2  0
 21 22  1  0
 22 23  2  0
 23 24  1  0
 24 25  2  0
 25 26  1  0
 26 27  1  0
 27 28  1  0
 17  7  1  0
 26 18  2  0
 28  8  1  0
 17 12  1  0
 25 20  1  0
  1 29  1  0
  1 30  1  0
  1 31  1  0
  3 32  1  0
  3 33  1  0
  3 34  1  0
  4 35  1  0
  4 36  1  0
  5 37  1  0
  5 38  1  0
  6 39  1  0
  6 40  1  0
 11 41  1  0
 11 42  1  0
 11 43  1  0
 13 44  1  0
 14 45  1  0
 15 46  1  0
 16 47  1  0
 19 48  1  0
 21 49  1  0
 22 50  1  0
 23 51  1  0
 24 52  1  0
 27 53  1  0
 27 54  1  0
 28 55  1  0
 28 56  1  0
M  CHG  2   6   1  10   1
M  END
>  <UniqueID>  (26) 
26

>  <SMILES>  (26) 
CN(C)CC[NH2+]c1c2c([n+](C)c3ccccc13)-c1[nH]c3ccccc3c1CC2

>  <Energy>  (26) 
129.4366818674417

>  <Genealogy>  (26) 
CN(C)CC[NH2+]c1c2c([n+](C)c3ccccc13)-c1[nH]c3ccccc3c1CC2 (protonated)
CN(C)CC[NH2+]c1c2c([n+](C)c3ccccc13)-c1[nH]c3ccccc3c1CC2 (3D coordinates assigned)
CN(C)CC[NH2+]c1c2c([n+](C)c3ccccc13)-c1[nH]c3ccccc3c1CC2 (nonaromatic ring conformer: 129.4366818674417 kcal/mol)

>  <smiles>  (26) 
CN(C)CCNc1c2c([n+](C)c3ccccc13)-c1[nH]c3ccccc3c1CC2

>  <score_type>  (26) 
oracle

>  <origin>  (26) 
adg

>  <m_score__min__energy>  (26) 
-5.0199999999999996

>  <m_primary>  (26) 
energy

$$$$
26:0
     RDKit          3D

 40 41  0  0  0  0  0  0  0  0999 V2000
   59.5670   34.8690   47.9170 C   0  0  0  0  0  0  0  0  0  0  0  0
   59.9900   35.1650   46.4820 C   0  0  0  0  0  0  0  0  0  0  0  0
   58.9080   34.9400   45.5780 O   0  0  0  0  0  0  0  0  0  0  0  0
   58.4140   33.6830   45.1910 C   0  0  0  0  0  0  0  0  0  0  0  0
   58.1910   32.7270   46.1890 C   0  0  0  0  0  0  0  0  0  0  0  0
   57.6960   31.4620   45.8620 C   0  0  0  0  0  0  0  0  0  0  0  0
   57.4200   31.1340   44.5290 C   0  0  0  0  0  0  0  0  0  0  0  0
   56.7610   29.5500   44.1180 S   0  0  0  0  0  0  0  0  0  0  0  0
   56.4300   29.5130   42.6510 O   0  0  0  0  0  0  0  0  0  0  0  0
   55.4850   29.3340   44.8820 O   0  0  0  0  0  0  0  0  0  0  0  0
   57.9020   28.2760   44.4910 N   0  0  0  0  0  0  0  0  0  0  0  0
   59.2020   28.8410   44.9380 C   0  0  0  0  0  0  0  0  0  0  0  0
   60.2840   27.8050   45.3220 C   0  0  0  0  0  0  0  0  0  0  0  0
   60.2830   27.3340   46.7990 C   0  0  0  0  0  0  0  0  0  0  0  0
   58.9650   26.7200   47.3010 C   0  0  0  0  0  0  0  0  0  0  0  0
   57.7000   27.4850   46.8660 C   0  0  0  0  0  0  0  0  0  0  0  0
   57.2750   27.2960   45.4010 C   0  0  0  0  0  0  0  0  0  0  0  0
   57.6500   32.0820   43.5250 C   0  0  0  0  0  0  0  0  0  0  0  0
   58.1450   33.3490   43.8500 C   0  0  0  0  0  0  0  0  0  0  0  0
   60.2648   35.3573   48.6131 H   0  0  0  0  0  0  0  0  0  0  0  0
   58.5506   35.2540   48.0865 H   0  0  0  0  0  0  0  0  0  0  0  0
   59.5805   33.7822   48.0865 H   0  0  0  0  0  0  0  0  0  0  0  0
   60.3083   36.2154   46.4092 H   0  0  0  0  0  0  0  0  0  0  0  0
   60.8193   34.4942   46.2133 H   0  0  0  0  0  0  0  0  0  0  0  0
   58.4072   32.9737   47.2390 H   0  0  0  0  0  0  0  0  0  0  0  0
   57.5223   30.7202   46.6555 H   0  0  0  0  0  0  0  0  0  0  0  0
   59.6009   29.4600   44.1208 H   0  0  0  0  0  0  0  0  0  0  0  0
   58.9850   29.4045   45.8575 H   0  0  0  0  0  0  0  0  0  0  0  0
   60.1413   26.9186   44.6864 H   0  0  0  0  0  0  0  0  0  0  0  0
   61.2473   28.3153   45.1751 H   0  0  0  0  0  0  0  0  0  0  0  0
   61.0736   26.5778   46.9134 H   0  0  0  0  0  0  0  0  0  0  0  0
   60.4420   28.2394   47.4032 H   0  0  0  0  0  0  0  0  0  0  0  0
   58.8953   25.6923   46.9151 H   0  0  0  0  0  0  0  0  0  0  0  0
   58.9964   26.7643   48.3997 H   0  0  0  0  0  0  0  0  0  0  0  0
   56.8682   27.1525   47.5044 H   0  0  0  0  0  0  0  0  0  0  0  0
   57.9452   28.5522   46.9708 H   0  0  0  0  0  0  0  0  0  0  0  0
   57.5627   26.2841   45.0796 H   0  0  0  0  0  0  0  0  0  0  0  0
   56.1866   27.4469   45.3503 H   0  0  0  0  0  0  0  0  0  0  0  0
   57.4404   31.8291   42.4752 H   0  0  0  0  0  0  0  0  0  0  0  0
   58.3249   34.0874   43.0548 H   0  0  0  0  0  0  0  0  0  0  0  0
  1  2  1  0
  2  3  1  0
  3  4  1  0
  4  5  2  0
  5  6  1  0
  6  7  2  0
  7  8  1  0
  8  9  2  0
  8 10  2  0
  8 11  1  0
 11 12  1  0
 12 13  1  0
 13 14  1  0
 14 15  1  0
 15 16  1  0
 16 17  1  0
  7 18  1  0
 18 19  2  0
 19  4  1  0
 17 11  1  0
  1 20  1  0
  1 21  1  0
  1 22  1  0
  2 23  1  0
  2 24  1  0
  5 25  1  0
  6 26  1  0
 12 27  1  0
 12 28  1  0
 13 29  1  0
 13 30  1  0
 14 31  1  0
 14 32  1  0
 15 33  1  0
 15 34  1  0
 16 35  1  0
 16 36  1  0
 17 37  1  0
 17 38  1  0
 18 39  1  0
 19 40  1  0
M  END
>  <UniqueID>  (27) 
27

>  <SMILES>  (27) 
CCOc1ccc(S(=O)(=O)N2CCCCCC2)cc1

>  <Energy>  (27) 
48.399350456668195

>  <Genealogy>  (27) 
CCOc1ccc(S(=O)(=O)N2CCCCCC2)cc1 (3D coordinates assigned)
CCOc1ccc(S(=O)(=O)N2CCCCCC2)cc1 (nonaromatic ring conformer: 48.399350456668195 kcal/mol)

>  <smiles>  (27) 
CCOc1ccc(S(=O)(=O)N2CCCCCC2)cc1

>  <score_type>  (27) 
oracle

>  <origin>  (27) 
adg

>  <m_score__min__energy>  (27) 
-5

>  <m_primary>  (27) 
energy

$$$$
27:0
     RDKit          3D

 52 54  0  0  0  0  0  0  0  0999 V2000
   57.4510   25.2890   44.0220 C   0  0  0  0  0  0  0  0  0  0  0  0
   58.0720   26.6050   44.4890 C   0  0  0  0  0  0  0  0  0  0  0  0
   57.6240   26.9600   45.8540 N   0  0  0  0  0  0  0  0  0  0  0  0
   56.3390   26.3170   46.1850 C   0  0  0  0  0  0  0  0  0  0  0  0
   58.6530   26.6270   46.8680 C   0  0  0  0  0  0  0  0  0  0  0  0
   59.9970   27.2730   46.5010 C   0  0  0  0  0  0  0  0  0  0  0  0
   60.1590   28.7020   47.0660 C   0  0  0  0  0  0  0  0  0  0  0  0
   58.8790   29.4280   47.2030 N   0  0  0  0  0  0  0  0  0  0  0  0
   58.9080   30.7200   46.5230 C   0  0  0  0  0  0  0  0  0  0  0  0
   59.6160   31.8110   47.1030 C   0  0  0  0  0  0  0  0  0  0  0  0
   60.3440   31.6710   48.3150 C   0  0  0  0  0  0  0  0  0  0  0  0
   61.0870   32.7250   48.8390 C   0  0  0  0  0  0  0  0  0  0  0  0
   61.1350   33.9390   48.1730 C   0  0  0  0  0  0  0  0  0  0  0  0
   60.4110   34.1200   47.0000 C   0  0  0  0  0  0  0  0  0  0  0  0
   59.6060   33.0810   46.4630 C   0  0  0  0  0  0  0  0  0  0  0  0
   58.8350   33.2870   45.3400 N   0  0  0  0  0  0  0  0  0  0  0  0
   58.5530   34.6670   44.8820 C   0  0  0  0  0  0  0  0  0  0  0  0
   58.2990   32.2130   44.6600 C   0  0  0  0  0  0  0  0  0  0  0  0
   57.7750   32.3720   43.3530 C   0  0  0  0  0  0  0  0  0  0  0  0
   57.1730   31.3150   42.6810 C   0  0  0  0  0  0  0  0  0  0  0  0
   57.0800   30.0660   43.2820 C   0  0  0  0  0  0  0  0  0  0  0  0
   56.4450   28.9870   42.5900 N   0  0  0  0  0  0  0  0  0  0  0  0
   57.6290   29.8670   44.5510 C   0  0  0  0  0  0  0  0  0  0  0  0
   58.2770   30.9180   45.2560 C   0  0  0  0  0  0  0  0  0  0  0  0
   57.1668   24.6867   44.8974 H   0  0  0  0  0  0  0  0  0  0  0  0
   56.5574   25.4998   43.4162 H   0  0  0  0  0  0  0  0  0  0  0  0
   58.1819   24.7333   43.4162 H   0  0  0  0  0  0  0  0  0  0  0  0
   59.1674   26.5043   44.4869 H   0  0  0  0  0  0  0  0  0  0  0  0
   57.7515   27.4018   43.8017 H   0  0  0  0  0  0  0  0  0  0  0  0
   56.2277   26.2613   47.2779 H   0  0  0  0  0  0  0  0  0  0  0  0
   55.5135   26.9082   45.7620 H   0  0  0  0  0  0  0  0  0  0  0  0
   56.3173   25.3018   45.7620 H   0  0  0  0  0  0  0  0  0  0  0  0
   58.3278   27.0005   47.8502 H   0  0  0  0  0  0  0  0  0  0  0  0
   58.7800   25.5349   46.9013 H   0  0  0  0  0  0  0  0  0  0  0  0
   60.8074   26.6452   46.9000 H   0  0  0  0  0  0  0  0  0  0  0  0
   60.0352   27.3485   45.4043 H   0  0  0  0  0  0  0  0  0  0  0  0
   60.6288   28.6334   48.0583 H   0  0  0  0  0  0  0  0  0  0  0  0
   60.7768   29.2655   46.3513 H   0  0  0  0  0  0  0  0  0  0  0  0
   58.1100   28.8460   46.8020 H   0  0  0  0  0  0  0  0  0  0  0  0
   58.5940   29.4800   48.1970 H   0  0  0  0  0  0  0  0  0  0  0  0
   60.3200   30.7102   48.8501 H   0  0  0  0  0  0  0  0  0  0  0  0
   61.6366   32.5940   49.7828 H   0  0  0  0  0  0  0  0  0  0  0  0
   61.7469   34.7609   48.5730 H   0  0  0  0  0  0  0  0  0  0  0  0
   60.4628   35.0868   46.4779 H   0  0  0  0  0  0  0  0  0  0  0  0
   58.4190   35.3228   45.7549 H   0  0  0  0  0  0  0  0  0  0  0  0
   59.3953   35.0314   44.2755 H   0  0  0  0  0  0  0  0  0  0  0  0
   57.6353   34.6717   44.2755 H   0  0  0  0  0  0  0  0  0  0  0  0
   57.8463   33.3527   42.8600 H   0  0  0  0  0  0  0  0  0  0  0  0
   56.7687   31.4679   41.6695 H   0  0  0  0  0  0  0  0  0  0  0  0
   56.6610   27.9940   42.8340 H   0  0  0  0  0  0  0  0  0  0  0  0
   55.7500   29.1680   41.8330 H   0  0  0  0  0  0  0  0  0  0  0  0
   57.5582   28.8728   45.0163 H   0  0  0  0  0  0  0  0  0  0  0  0
  1  2  1  0
  2  3  1  0
  3  4  1  0
  3  5  1  0
  5  6  1  0
  6  7  1  0
  7  8  1  0
  8  9  1  0
  9 10  2  0
 10 11  1  0
 11 12  2  0
 12 13  1  0
 13 14  2  0
 14 15  1  0
 15 16  2  0
 16 17  1  0
 16 18  1  0
 18 19  2  0
 19 20  1  0
 20 21  2  0
 21 22  1  0
 21 23  1  0
 23 24  2  0
 24  9  1  0
 15 10  1  0
 24 18  1  0
  1 25  1  0
  1 26  1  0
  1 27  1  0
  2 28  1  0
  2 29  1  0
  4 30  1  0
  4 31  1  0
  4 32  1  0
  5 33  1  0
  5 34  1  0
  6 35  1  0
  6 36  1  0
  7 37  1  0
  7 38  1  0
  8 39  1  0
  8 40  1  0
 11 41  1  0
 12 42  1  0
 13 43  1  0
 14 44  1  0
 17 45  1  0
 17 46  1  0
 17 47  1  0
 19 48  1  0
 20 49  1  0
 22 50  1  0
 22 51  1  0
 23 52  1  0
M  CHG  2   8   1  16   1
M  END
>  <UniqueID>  (28) 
28

>  <SMILES>  (28) 
CCN(C)CCC[NH2+]c1c2ccccc2[n+](C)c2ccc(N)cc12

>  <Energy>  (28) 
82.50737301923863

>  <Genealogy>  (28) 
CCN(C)CCC[NH2+]c1c2ccccc2[n+](C)c2ccc(N)cc12 (protonated)
CCN(C)CCC[NH2+]c1c2ccccc2[n+](C)c2ccc(N)cc12 (3D coordinates assigned)
CCN(C)CCC[NH2+]c1c2ccccc2[n+](C)c2ccc(N)cc12 (optimized conformer: 82.50737301923863 kcal/mol)

>  <smiles>  (28) 
CCN(C)CCCNc1c2ccccc2[n+](C)c2ccc(N)cc12

>  <score_type>  (28) 
oracle

>  <origin>  (28) 
adg

>  <m_score__min__energy>  (28) 
-4.5800000000000001

>  <m_primary>  (28) 
energy

$$$$
28:0
     RDKit          3D

 56 57  0  0  0  0  0  0  0  0999 V2000
   60.9040   28.5920   44.8700 C   0  0  0  0  0  0  0  0  0  0  0  0
   60.4870   29.6970   45.8530 C   0  0  0  0  0  0  0  0  0  0  0  0
   59.0560   30.0960   45.7430 N   0  0  0  0  0  0  0  0  0  0  0  0
   58.6000   30.6870   47.0310 C   0  0  0  0  0  0  0  0  0  0  0  0
   59.5700   30.4250   48.1910 C   0  0  0  0  0  0  0  0  0  0  0  0
   58.2170   28.9230   45.3600 C   0  0  0  0  0  0  0  0  0  0  0  0
   57.2490   29.1450   44.1700 C   0  0  0  0  0  0  0  0  0  0  0  0
   56.6400   30.5550   44.0550 C   0  0  0  0  0  0  0  0  0  0  0  0
   57.3890   31.4770   43.0760 C   0  0  0  0  0  0  0  0  0  0  0  0
   58.2210   32.4530   43.7940 N   0  0  0  0  0  0  0  0  0  0  0  0
   57.4720   33.1120   44.8730 C   0  0  0  0  0  0  0  0  0  0  0  0
   58.1750   34.4100   45.2710 C   0  0  0  0  0  0  0  0  0  0  0  0
   59.6900   34.2110   45.4140 C   0  0  0  0  0  0  0  0  0  0  0  0
   60.0550   33.9440   46.8600 C   0  0  0  0  0  0  0  0  0  0  0  0
   59.0340   34.0190   47.8240 C   0  0  0  0  0  0  0  0  0  0  0  0
   59.3080   33.8200   49.1750 C   0  0  0  0  0  0  0  0  0  0  0  0
   60.6080   33.5550   49.5970 C   0  0  0  0  0  0  0  0  0  0  0  0
   61.6530   33.4890   48.6660 C   0  0  0  0  0  0  0  0  0  0  0  0
   62.9640   33.2380   49.1040 C   0  0  0  0  0  0  0  0  0  0  0  0
   64.0140   33.1790   48.1870 C   0  0  0  0  0  0  0  0  0  0  0  0
   63.7670   33.3670   46.8280 C   0  0  0  0  0  0  0  0  0  0  0  0
   62.4690   33.6160   46.3740 C   0  0  0  0  0  0  0  0  0  0  0  0
   61.3890   33.6830   47.2810 C   0  0  0  0  0  0  0  0  0  0  0  0
   61.2377   27.7076   45.4326 H   0  0  0  0  0  0  0  0  0  0  0  0
   60.0461   28.3216   44.2369 H   0  0  0  0  0  0  0  0  0  0  0  0
   61.7267   28.9558   44.2369 H   0  0  0  0  0  0  0  0  0  0  0  0
   60.6680   29.3363   46.8763 H   0  0  0  0  0  0  0  0  0  0  0  0
   61.0857   30.5861   45.6057 H   0  0  0  0  0  0  0  0  0  0  0  0
   58.9840   30.8230   44.9970 H   0  0  0  0  0  0  0  0  0  0  0  0
   58.4966   31.7743   46.9000 H   0  0  0  0  0  0  0  0  0  0  0  0
   57.6431   30.2102   47.2898 H   0  0  0  0  0  0  0  0  0  0  0  0
   59.0450   30.5668   49.1472 H   0  0  0  0  0  0  0  0  0  0  0  0
   59.9460   29.3931   48.1287 H   0  0  0  0  0  0  0  0  0  0  0  0
   60.4144   31.1273   48.1287 H   0  0  0  0  0  0  0  0  0  0  0  0
   58.8931   28.0967   45.0953 H   0  0  0  0  0  0  0  0  0  0  0  0
   57.5772   28.7167   46.2307 H   0  0  0  0  0  0  0  0  0  0  0  0
   57.8026   28.9398   43.2419 H   0  0  0  0  0  0  0  0  0  0  0  0
   56.4008   28.4667   44.3445 H   0  0  0  0  0  0  0  0  0  0  0  0
   55.5996   30.4565   43.7117 H   0  0  0  0  0  0  0  0  0  0  0  0
   56.7127   31.0177   45.0503 H   0  0  0  0  0  0  0  0  0  0  0  0
   58.0332   30.8644   42.4282 H   0  0  0  0  0  0  0  0  0  0  0  0
   56.6465   32.0260   42.4782 H   0  0  0  0  0  0  0  0  0  0  0  0
   58.5150   33.1920   43.1130 H   0  0  0  0  0  0  0  0  0  0  0  0
   56.4537   33.3397   44.5249 H   0  0  0  0  0  0  0  0  0  0  0  0
   57.4237   32.4423   45.7443 H   0  0  0  0  0  0  0  0  0  0  0  0
   57.9861   35.1697   44.4982 H   0  0  0  0  0  0  0  0  0  0  0  0
   57.7769   34.7324   46.2444 H   0  0  0  0  0  0  0  0  0  0  0  0
   60.0026   33.3552   44.7976 H   0  0  0  0  0  0  0  0  0  0  0  0
   60.2024   35.1254   45.0803 H   0  0  0  0  0  0  0  0  0  0  0  0
   58.0039   34.2380   47.5065 H   0  0  0  0  0  0  0  0  0  0  0  0
   58.4933   33.8725   49.9122 H   0  0  0  0  0  0  0  0  0  0  0  0
   60.8155   33.3968   50.6656 H   0  0  0  0  0  0  0  0  0  0  0  0
   63.1637   33.0872   50.1752 H   0  0  0  0  0  0  0  0  0  0  0  0
   65.0384   32.9838   48.5370 H   0  0  0  0  0  0  0  0  0  0  0  0
   64.5982   33.3191   46.1091 H   0  0  0  0  0  0  0  0  0  0  0  0
   62.2868   33.7613   45.2990 H   0  0  0  0  0  0  0  0  0  0  0  0
  1  2  1  0
  2  3  1  0
  3  4  1  0
  4  5  1  0
  3  6  1  0
  6  7  1  0
  7  8  1  0
  8  9  1  0
  9 10  1  0
 10 11  1  0
 11 12  1  0
 12 13  1  0
 13 14  1  0
 14 15  2  0
 15 16  1  0
 16 17  2  0
 17 18  1  0
 18 19  2  0
 19 20  1  0
 20 21  2  0
 21 22  1  0
 22 23  2  0
 23 14  1  0
 23 18  1  0
  1 24  1  0
  1 25  1  0
  1 26  1  0
  2 27  1  0
  2 28  1  0
  3 29  1  0
  4 30  1  0
  4 31  1  0
  5 32  1  0
  5 33  1  0
  5 34  1  0
  6 35  1  0
  6 36  1  0
  7 37  1  0
  7 38  1  0
  8 39  1  0
  8 40  1  0
  9 41  1  0
  9 42  1  0
 10 43  1  0
 11 44  1  0
 11 45  1  0
 12 46  1  0
 12 47  1  0
 13 48  1  0
 13 49  1  0
 15 50  1  0
 16 51  1  0
 17 52  1  0
 19 53  1  0
 20 54  1  0
 21 55  1  0
 22 56  1  0
M  CHG  1   3   1
M  END
>  <UniqueID>  (29) 
29

>  <SMILES>  (29) 
CC[NH+](CC)CCCCNCCCc1cccc2ccccc12

>  <Energy>  (29) 
53.966487871473674

>  <Genealogy>  (29) 
CC[NH+](CC)CCCCNCCCc1cccc2ccccc12 (protonated)
CC[NH+](CC)CCCCNCCCc1cccc2ccccc12 (3D coordinates assigned)
CC[NH+](CC)CCCCNCCCc1cccc2ccccc12 (optimized conformer: 53.966487871473674 kcal/mol)

>  <smiles>  (29) 
CCN(CC)CCCCNCCCc1cccc2ccccc12

>  <score_type>  (29) 
oracle

>  <origin>  (29) 
adg

>  <m_score__min__energy>  (29) 
-5.6799999999999997

>  <m_primary>  (29) 
energy

$$$$
29:0
     RDKit          3D

 53 55  0  0  0  0  0  0  0  0999 V2000
   54.3260   23.7640   45.5270 C   0  0  0  0  0  0  0  0  0  0  0  0
   55.5030   24.1370   44.6270 C   0  0  0  0  0  0  0  0  0  0  0  0
   56.7060   24.4320   45.4240 N   0  0  0  0  0  0  0  0  0  0  0  0
   57.8940   23.5790   45.2550 C   0  0  0  0  0  0  0  0  0  0  0  0
   57.6680   22.5540   44.1490 C   0  0  0  0  0  0  0  0  0  0  0  0
   56.6960   25.5580   46.3380 C   0  0  0  0  0  0  0  0  0  0  0  0
   55.7040   26.3380   46.3560 O   0  0  0  0  0  0  0  0  0  0  0  0
   57.8420   25.8600   47.2660 C   0  0  0  0  0  0  0  0  0  0  0  0
   59.3700   26.2740   46.3540 S   0  0  0  0  0  0  0  0  0  0  0  0
   59.6340   27.8790   47.1250 C   0  0  0  0  0  0  0  0  0  0  0  0
   59.9300   28.0120   48.4330 N   0  0  0  0  0  0  0  0  0  0  0  0
   59.9390   29.3110   48.6760 N   0  0  0  0  0  0  0  0  0  0  0  0
   59.6400   29.9580   47.5350 C   0  0  0  0  0  0  0  0  0  0  0  0
   59.4720   31.4490   47.4600 C   0  0  0  0  0  0  0  0  0  0  0  0
   60.7980   32.1070   47.2390 C   0  0  0  0  0  0  0  0  0  0  0  0
   60.9940   33.4160   46.8130 C   0  0  0  0  0  0  0  0  0  0  0  0
   62.3430   33.7860   46.7710 C   0  0  0  0  0  0  0  0  0  0  0  0
   63.2100   32.7800   47.1760 C   0  0  0  0  0  0  0  0  0  0  0  0
   62.2970   31.4300   47.5880 S   0  0  0  0  0  0  0  0  0  0  0  0
   59.4490   29.0790   46.5240 N   0  0  0  0  0  0  0  0  0  0  0  0
   59.0810   29.3360   45.1260 C   0  0  0  0  0  0  0  0  0  0  0  0
   57.6060   28.9820   44.8500 C   0  0  2  0  0  0  0  0  0  0  0  0
   57.3760   28.6130   43.3820 C   0  0  0  0  0  0  0  0  0  0  0  0
   56.4890   29.7100   42.8740 C   0  0  0  0  0  0  0  0  0  0  0  0
   55.8550   30.2370   44.1400 C   0  0  0  0  0  0  0  0  0  0  0  0
   56.7690   30.0660   45.1930 O   0  0  0  0  0  0  0  0  0  0  0  0
   54.6259   23.8590   46.5811 H   0  0  0  0  0  0  0  0  0  0  0  0
   53.4810   24.4384   45.3239 H   0  0  0  0  0  0  0  0  0  0  0  0
   54.0237   22.7260   45.3239 H   0  0  0  0  0  0  0  0  0  0  0  0
   55.7176   23.2974   43.9495 H   0  0  0  0  0  0  0  0  0  0  0  0
   55.2338   25.0365   44.0539 H   0  0  0  0  0  0  0  0  0  0  0  0
   58.7567   24.2091   44.9927 H   0  0  0  0  0  0  0  0  0  0  0  0
   58.0839   23.0458   46.1982 H   0  0  0  0  0  0  0  0  0  0  0  0
   57.4517   21.5729   44.5969 H   0  0  0  0  0  0  0  0  0  0  0  0
   56.8176   22.8682   43.5261 H   0  0  0  0  0  0  0  0  0  0  0  0
   58.5717   22.4814   43.5261 H   0  0  0  0  0  0  0  0  0  0  0  0
   57.5671   26.7128   47.9041 H   0  0  0  0  0  0  0  0  0  0  0  0
   58.0384   24.9602   47.8675 H   0  0  0  0  0  0  0  0  0  0  0  0
   60.1210   29.7370   49.6130 H   0  0  0  0  0  0  0  0  0  0  0  0
   58.7993   31.6976   46.6259 H   0  0  0  0  0  0  0  0  0  0  0  0
   59.0447   31.8106   48.4069 H   0  0  0  0  0  0  0  0  0  0  0  0
   60.1717   34.0925   46.5369 H   0  0  0  0  0  0  0  0  0  0  0  0
   62.6844   34.7804   46.4475 H   0  0  0  0  0  0  0  0  0  0  0  0
   64.3067   32.8538   47.2198 H   0  0  0  0  0  0  0  0  0  0  0  0
   59.2388   30.4022   44.9061 H   0  0  0  0  0  0  0  0  0  0  0  0
   59.7113   28.7034   44.4838 H   0  0  0  0  0  0  0  0  0  0  0  0
   57.3591   28.1079   45.4704 H   0  0  0  0  0  0  0  0  0  0  0  0
   58.3270   28.5902   42.8297 H   0  0  0  0  0  0  0  0  0  0  0  0
   56.9319   27.6143   43.2582 H   0  0  0  0  0  0  0  0  0  0  0  0
   57.0748   30.4918   42.3685 H   0  0  0  0  0  0  0  0  0  0  0  0
   55.7562   29.3688   42.1279 H   0  0  0  0  0  0  0  0  0  0  0  0
   55.6190   31.3048   44.0216 H   0  0  0  0  0  0  0  0  0  0  0  0
   54.9234   29.6924   44.3534 H   0  0  0  0  0  0  0  0  0  0  0  0
  1  2  1  0
  2  3  1  0
  3  4  1  0
  4  5  1  0
  3  6  1  0
  6  7  2  0
  6  8  1  0
  8  9  1  0
  9 10  1  0
 10 11  2  0
 11 12  1  0
 12 13  2  0
 13 14  1  0
 14 15  1  0
 15 16  2  0
 16 17  1  0
 17 18  2  0
 18 19  1  0
 13 20  1  0
 20 21  1  0
 21 22  1  0
 22 23  1  0
 23 24  1  0
 24 25  1  0
 25 26  1  0
 20 10  1  0
 26 22  1  0
 19 15  1  0
  1 27  1  0
  1 28  1  0
  1 29  1  0
  2 30  1  0
  2 31  1  0
  4 32  1  0
  4 33  1  0
  5 34  1  0
  5 35  1  0
  5 36  1  0
  8 37  1  0
  8 38  1  0
 12 39  1  0
 14 40  1  0
 14 41  1  0
 16 42  1  0
 17 43  1  0
 18 44  1  0
 21 45  1  0
 21 46  1  0
 22 47  1  1
 23 48  1  0
 23 49  1  0
 24 50  1  0
 24 51  1  0
 25 52  1  0
 25 53  1  0
M  CHG  1  12   1
M  END
>  <UniqueID>  (30) 
30

>  <SMILES>  (30) 
CCN(CC)C(=O)CSc1n[nH+]c(Cc2cccs2)n1C[C@@H]1CCCO1

>  <Energy>  (30) 
100.44781439088976

>  <Genealogy>  (30) 
CCN(CC)C(=O)CSc1n[nH+]c(Cc2cccs2)n1CC1CCCO1 (protonated)
CCN(CC)C(=O)CSc1n[nH+]c(Cc2cccs2)n1C[C@@H]1CCCO1 (chirality)
CCN(CC)C(=O)CSc1n[nH+]c(Cc2cccs2)n1C[C@@H]1CCCO1 (3D coordinates assigned)
CCN(CC)C(=O)CSc1n[nH+]c(Cc2cccs2)n1C[C@@H]1CCCO1 (nonaromatic ring conformer: 100.44781439088976 kcal/mol)

>  <smiles>  (30) 
CCN(CC)C(=O)CSc1nnc(Cc2cccs2)n1CC1CCCO1

>  <score_type>  (30) 
oracle

>  <origin>  (30) 
adg

>  <m_score__min__energy>  (30) 
-6.4800000000000004

>  <m_primary>  (30) 
energy

$$$$
30:0
     RDKit          3D

 47 50  0  0  1  0  0  0  0  0999 V2000
   61.0010   31.3890   47.7150 C   0  0  0  0  0  0  0  0  0  0  0  0
   60.0490   30.3920   47.2720 N   0  0  0  0  0  0  0  0  0  0  0  0
   59.3750   30.5640   46.1190 N   0  0  0  0  0  0  0  0  0  0  0  0
   58.5570   29.5160   45.9250 C   0  0  0  0  0  0  0  0  0  0  0  0
   57.6670   29.2050   44.9210 C   0  0  0  0  0  0  0  0  0  0  0  0
   57.5260   30.0050   43.9370 N   0  0  0  0  0  0  0  0  0  0  0  0
   56.8770   31.2730   43.9830 C   0  0  0  0  0  0  0  0  0  0  0  0
   57.9200   32.3710   43.9540 C   0  0  0  0  0  0  0  0  0  0  0  0
   57.5890   33.4720   44.8230 N   0  0  0  0  0  0  0  0  0  0  0  0
   58.5810   34.5100   44.8500 C   0  0  0  0  0  0  0  0  0  0  0  0
   59.8020   34.1350   45.6440 C   0  0  0  0  0  0  0  0  0  0  0  0
   59.5120   33.9080   46.9760 O   0  0  0  0  0  0  0  0  0  0  0  0
   58.1310   33.8750   47.1710 C   0  0  0  0  0  0  0  0  0  0  0  0
   57.4920   32.9440   46.1720 C   0  0  0  0  0  0  0  0  0  0  0  0
   56.9480   28.0740   44.9590 N   0  0  0  0  0  0  0  0  0  0  0  0
   57.1230   27.2370   46.0190 C   0  0  0  0  0  0  0  0  0  0  0  0
   56.3640   25.9790   46.1070 C   0  0  0  0  0  0  0  0  0  0  0  0
   56.7760   24.7810   46.6940 C   0  0  0  0  0  0  0  0  0  0  0  0
   55.7350   23.8900   46.5310 C   0  0  0  0  0  0  0  0  0  0  0  0
   54.7230   24.5800   45.8490 C   0  0  0  0  0  0  0  0  0  0  0  0
   53.0140   23.8540   45.3320 Br  0  0  0  0  0  0  0  0  0  0  0  0
   55.1470   25.8160   45.6210 O   0  0  0  0  0  0  0  0  0  0  0  0
   58.0010   27.5380   47.0150 N   0  0  0  0  0  0  0  0  0  0  0  0
   58.7290   28.6650   46.9940 C   0  0  0  0  0  0  0  0  0  0  0  0
   59.6840   29.2380   47.8460 C   0  0  0  0  0  0  0  0  0  0  0  0
   60.1100   28.5830   49.0830 C   0  0  0  0  0  0  0  0  0  0  0  0
   60.0760   27.2010   48.9890 F   0  0  0  0  0  0  0  0  0  0  0  0
   59.1980   28.9570   50.0800 F   0  0  0  0  0  0  0  0  0  0  0  0
   61.3350   28.9620   49.5070 F   0  0  0  0  0  0  0  0  0  0  0  0
   61.0229   31.4120   48.8145 H   0  0  0  0  0  0  0  0  0  0  0  0
   62.0012   31.1360   47.3335 H   0  0  0  0  0  0  0  0  0  0  0  0
   60.7021   32.3765   47.3335 H   0  0  0  0  0  0  0  0  0  0  0  0
   56.2105   31.3763   43.1140 H   0  0  0  0  0  0  0  0  0  0  0  0
   56.2858   31.3509   44.9074 H   0  0  0  0  0  0  0  0  0  0  0  0
   58.8849   31.9490   44.2717 H   0  0  0  0  0  0  0  0  0  0  0  0
   57.9664   32.7598   42.9260 H   0  0  0  0  0  0  0  0  0  0  0  0
   58.8882   34.7283   43.8166 H   0  0  0  0  0  0  0  0  0  0  0  0
   58.1277   35.3859   45.3372 H   0  0  0  0  0  0  0  0  0  0  0  0
   60.2353   33.2193   45.2153 H   0  0  0  0  0  0  0  0  0  0  0  0
   60.5087   34.9763   45.5921 H   0  0  0  0  0  0  0  0  0  0  0  0
   57.9152   33.5202   48.1896 H   0  0  0  0  0  0  0  0  0  0  0  0
   57.7225   34.8872   47.0345 H   0  0  0  0  0  0  0  0  0  0  0  0
   58.0012   31.9698   46.2131 H   0  0  0  0  0  0  0  0  0  0  0  0
   56.4275   32.8373   46.4278 H   0  0  0  0  0  0  0  0  0  0  0  0
   56.2940   27.8590   44.2060 H   0  0  0  0  0  0  0  0  0  0  0  0
   57.7392   24.5861   47.1883 H   0  0  0  0  0  0  0  0  0  0  0  0
   55.7051   22.8439   46.8697 H   0  0  0  0  0  0  0  0  0  0  0  0
  1  2  1  0
  2  3  1  0
  3  4  2  0
  4  5  1  0
  5  6  2  0
  6  7  1  0
  7  8  1  0
  8  9  1  0
  9 10  1  0
 10 11  1  0
 11 12  1  0
 12 13  1  0
 13 14  1  0
  5 15  1  0
 15 16  1  0
 16 17  1  0
 17 18  2  0
 18 19  1  0
 19 20  2  0
 20 21  1  0
 20 22  1  0
 16 23  2  0
 23 24  1  0
 24 25  2  0
 25 26  1  0
 26 27  1  0
 26 28  1  0
 26 29  1  0
 25  2  1  0
 24  4  1  0
 14  9  1  0
 22 17  1  0
  1 30  1  0
  1 31  1  0
  1 32  1  0
  7 33  1  0
  7 34  1  0
  8 35  1  0
  8 36  1  0
 10 37  1  0
 10 38  1  0
 11 39  1  0
 11 40  1  0
 13 41  1  0
 13 42  1  0
 14 43  1  0
 14 44  1  0
 15 45  1  0
 18 46  1  0
 19 47  1  0
M  END
>  <smiles>  (31) 
Cn1nc2c(=NCCN3CCOCC3)[nH]c(-c3ccc(Br)o3)nc2c1C(F)(F)F

>  <score_type>  (31) 
oracle

>  <origin>  (31) 
adg

>  <m_score__min__energy>  (31) 
-8.4100000000000001

>  <m_primary>  (31) 
energy

$$$$
31:0
     RDKit          3D

 40 42  0  0  0  0  0  0  0  0999 V2000
   58.8090   34.9960   44.6060 O   0  0  0  0  0  0  0  0  0  0  0  0
   58.7790   33.8810   45.1960 C   0  0  0  0  0  0  0  0  0  0  0  0
   58.0680   32.7470   44.5630 C   0  0  0  0  0  0  0  0  0  0  0  0
   58.0540   32.5910   43.1670 C   0  0  0  0  0  0  0  0  0  0  0  0
   57.3900   31.5090   42.5880 C   0  0  0  0  0  0  0  0  0  0  0  0
   56.7500   30.5810   43.4110 C   0  0  0  0  0  0  0  0  0  0  0  0
   56.7820   30.7320   44.7620 N   0  0  0  0  0  0  0  0  0  0  0  0
   57.4230   31.7770   45.3490 C   0  0  0  0  0  0  0  0  0  0  0  0
   59.4140   33.7450   46.4800 N   0  0  0  0  0  0  0  0  0  0  0  0
   59.2950   34.8440   47.4510 C   0  0  0  0  0  0  0  0  0  0  0  0
   60.1320   34.5750   48.7050 C   0  0  0  0  0  0  0  0  0  0  0  0
   59.9500   33.1820   49.1300 N   0  0  0  0  0  0  0  0  0  0  0  0
   59.5040   32.8770   50.4660 C   0  0  0  0  0  0  0  0  0  0  0  0
   60.3560   33.0760   51.5620 C   0  0  0  0  0  0  0  0  0  0  0  0
   59.9110   32.7700   52.8470 C   0  0  0  0  0  0  0  0  0  0  0  0
   58.6130   32.2800   53.0450 C   0  0  0  0  0  0  0  0  0  0  0  0
   58.1370   31.8950   54.4230 C   0  0  0  0  0  0  0  0  0  0  0  0
   58.2530   32.9650   55.2950 F   0  0  0  0  0  0  0  0  0  0  0  0
   56.8110   31.5110   54.3570 F   0  0  0  0  0  0  0  0  0  0  0  0
   58.8860   30.8450   54.9240 F   0  0  0  0  0  0  0  0  0  0  0  0
   57.8020   32.0610   51.9200 C   0  0  0  0  0  0  0  0  0  0  0  0
   58.2540   32.3670   50.6730 N   0  0  0  0  0  0  0  0  0  0  0  0
   60.1460   32.0930   48.1590 C   0  0  0  0  0  0  0  0  0  0  0  0
   60.3410   32.6330   46.7360 C   0  0  0  0  0  0  0  0  0  0  0  0
   58.5682   33.3242   42.5282 H   0  0  0  0  0  0  0  0  0  0  0  0
   57.3711   31.3887   41.4948 H   0  0  0  0  0  0  0  0  0  0  0  0
   56.2191   29.7264   42.9662 H   0  0  0  0  0  0  0  0  0  0  0  0
   57.4369   31.8639   46.4455 H   0  0  0  0  0  0  0  0  0  0  0  0
   59.6433   35.7757   46.9814 H   0  0  0  0  0  0  0  0  0  0  0  0
   58.2400   34.9284   47.7506 H   0  0  0  0  0  0  0  0  0  0  0  0
   61.1941   34.7535   48.4813 H   0  0  0  0  0  0  0  0  0  0  0  0
   59.8070   35.2482   49.5120 H   0  0  0  0  0  0  0  0  0  0  0  0
   61.3708   33.4717   51.4083 H   0  0  0  0  0  0  0  0  0  0  0  0
   60.5804   32.9135   53.7080 H   0  0  0  0  0  0  0  0  0  0  0  0
   56.7941   31.6391   52.0472 H   0  0  0  0  0  0  0  0  0  0  0  0
   57.6290   32.1730   49.8600 H   0  0  0  0  0  0  0  0  0  0  0  0
   61.0364   31.5145   48.4464 H   0  0  0  0  0  0  0  0  0  0  0  0
   59.2467   31.4597   48.1663 H   0  0  0  0  0  0  0  0  0  0  0  0
   61.3754   32.9894   46.6218 H   0  0  0  0  0  0  0  0  0  0  0  0
   60.1386   31.8259   46.0165 H   0  0  0  0  0  0  0  0  0  0  0  0
  1  2  2  0
  2  3  1  0
  3  4  2  0
  4  5  1  0
  5  6  2  0
  6  7  1  0
  7  8  2  0
  2  9  1  0
  9 10  1  0
 10 11  1  0
 11 12  1  0
 12 13  1  0
 13 14  2  0
 14 15  1  0
 15 16  2  0
 16 17  1  0
 17 18  1  0
 17 19  1  0
 17 20  1  0
 16 21  1  0
 21 22  2  0
 12 23  1  0
 23 24  1  0
  8  3  1  0
 24  9  1  0
 22 13  1  0
  4 25  1  0
  5 26  1  0
  6 27  1  0
  8 28  1  0
 10 29  1  0
 10 30  1  0
 11 31  1  0
 11 32  1  0
 14 33  1  0
 15 34  1  0
 21 35  1  0
 22 36  1  0
 23 37  1  0
 23 38  1  0
 24 39  1  0
 24 40  1  0
M  CHG  1  22   1
M  END
>  <UniqueID>  (32) 
31

>  <SMILES>  (32) 
O=C(c1cccnc1)N1CCN(c2ccc(C(F)(F)F)c[nH+]2)CC1

>  <Energy>  (32) 
51.97365690981772

>  <Genealogy>  (32) 
O=C(c1cccnc1)N1CCN(c2ccc(C(F)(F)F)c[nH+]2)CC1 (protonated)
O=C(c1cccnc1)N1CCN(c2ccc(C(F)(F)F)c[nH+]2)CC1 (3D coordinates assigned)
O=C(c1cccnc1)N1CCN(c2ccc(C(F)(F)F)c[nH+]2)CC1 (nonaromatic ring conformer: 51.97365690981772 kcal/mol)

>  <smiles>  (32) 
O=C(c1cccnc1)N1CCN(c2ccc(C(F)(F)F)cn2)CC1

>  <score_type>  (32) 
oracle

>  <origin>  (32) 
adg

>  <m_score__min__energy>  (32) 
-5.0899999999999999

>  <m_primary>  (32) 
energy

$$$$
32:0
     RDKit          3D

 71 73  0  0  0  0  0  0  0  0999 V2000
   57.0630   29.4490   43.8140 C   0  0  0  0  0  0  0  0  0  0  0  0
   56.4650   30.8250   44.1070 C   0  0  0  0  0  0  0  0  0  0  0  0
   57.5170   31.8480   44.3300 N   0  0  0  0  0  0  0  0  0  0  0  0
   58.1400   32.3690   43.0870 C   0  0  0  0  0  0  0  0  0  0  0  0
   57.3860   31.9960   41.8000 C   0  0  0  0  0  0  0  0  0  0  0  0
   57.0450   32.9320   45.2220 C   0  0  0  0  0  0  0  0  0  0  0  0
   58.0630   34.0820   45.2750 C   0  0  0  0  0  0  0  0  0  0  0  0
   59.2620   33.7780   46.1920 C   0  0  0  0  0  0  0  0  0  0  0  0
   59.7290   32.4020   46.0120 N   0  0  0  0  0  0  0  0  0  0  0  0
   60.2730   31.6300   47.0990 C   0  0  0  0  0  0  0  0  0  0  0  0
   59.7600   30.3530   47.3960 C   0  0  0  0  0  0  0  0  0  0  0  0
   58.6340   29.8460   46.7100 C   0  0  0  0  0  0  0  0  0  0  0  0
   58.1670   28.5580   46.9600 C   0  0  0  0  0  0  0  0  0  0  0  0
   58.8130   27.7510   47.8870 C   0  0  0  0  0  0  0  0  0  0  0  0
   59.9000   28.2460   48.6100 C   0  0  0  0  0  0  0  0  0  0  0  0
   60.3660   29.5730   48.4180 C   0  0  0  0  0  0  0  0  0  0  0  0
   61.3850   30.1040   49.1860 N   0  0  0  0  0  0  0  0  0  0  0  0
   61.8280   29.4050   50.4140 C   0  0  0  0  0  0  0  0  0  0  0  0
   61.9660   31.3080   48.8300 C   0  0  0  0  0  0  0  0  0  0  0  0
   63.1770   31.7510   49.4160 C   0  0  0  0  0  0  0  0  0  0  0  0
   63.7460   32.9900   49.0760 C   0  0  0  0  0  0  0  0  0  0  0  0
   64.9740   33.4330   49.5980 O   0  0  0  0  0  0  0  0  0  0  0  0
   66.0370   32.5900   50.0470 C   0  0  0  0  0  0  0  0  0  0  0  0
   66.4280   32.9330   51.5060 C   0  0  0  0  0  0  0  0  0  0  0  0
   67.6460   33.7850   51.6530 N   0  0  0  0  0  0  0  0  0  0  0  0
   67.2110   35.1600   51.9990 C   0  0  0  0  0  0  0  0  0  0  0  0
   68.4160   33.8540   50.3850 C   0  0  0  0  0  0  0  0  0  0  0  0
   68.5200   33.2830   52.7410 C   0  0  0  0  0  0  0  0  0  0  0  0
   63.0780   33.8230   48.1860 C   0  0  0  0  0  0  0  0  0  0  0  0
   61.9070   33.3970   47.5660 C   0  0  0  0  0  0  0  0  0  0  0  0
   61.3700   32.1210   47.8310 C   0  0  0  0  0  0  0  0  0  0  0  0
   57.2857   28.9366   44.7616 H   0  0  0  0  0  0  0  0  0  0  0  0
   56.3431   28.8521   43.2348 H   0  0  0  0  0  0  0  0  0  0  0  0
   57.9905   29.5681   43.2348 H   0  0  0  0  0  0  0  0  0  0  0  0
   55.8447   31.1328   43.2523 H   0  0  0  0  0  0  0  0  0  0  0  0
   55.8638   30.7477   45.0249 H   0  0  0  0  0  0  0  0  0  0  0  0
   58.1828   33.4660   43.1562 H   0  0  0  0  0  0  0  0  0  0  0  0
   59.1359   31.9074   43.0150 H   0  0  0  0  0  0  0  0  0  0  0  0
   56.4281   31.5221   42.0605 H   0  0  0  0  0  0  0  0  0  0  0  0
   57.1970   32.9045   41.2094 H   0  0  0  0  0  0  0  0  0  0  0  0
   57.9935   31.2945   41.2094 H   0  0  0  0  0  0  0  0  0  0  0  0
   56.0862   33.3170   44.8445 H   0  0  0  0  0  0  0  0  0  0  0  0
   56.9231   32.5240   46.2362 H   0  0  0  0  0  0  0  0  0  0  0  0
   58.4373   34.2668   44.2573 H   0  0  0  0  0  0  0  0  0  0  0  0
   57.5467   34.9617   45.6869 H   0  0  0  0  0  0  0  0  0  0  0  0
   60.0825   34.4700   45.9515 H   0  0  0  0  0  0  0  0  0  0  0  0
   58.9428   33.9043   47.2371 H   0  0  0  0  0  0  0  0  0  0  0  0
   59.5510   31.9290   45.0970 H   0  0  0  0  0  0  0  0  0  0  0  0
   58.1198   30.4762   45.9694 H   0  0  0  0  0  0  0  0  0  0  0  0
   57.2852   28.1795   46.4223 H   0  0  0  0  0  0  0  0  0  0  0  0
   58.4677   26.7197   48.0521 H   0  0  0  0  0  0  0  0  0  0  0  0
   60.4039   27.5965   49.3409 H   0  0  0  0  0  0  0  0  0  0  0  0
   61.4773   29.9583   51.2976 H   0  0  0  0  0  0  0  0  0  0  0  0
   61.4093   28.3879   50.4283 H   0  0  0  0  0  0  0  0  0  0  0  0
   62.9265   29.3495   50.4283 H   0  0  0  0  0  0  0  0  0  0  0  0
   63.6833   31.1110   50.1536 H   0  0  0  0  0  0  0  0  0  0  0  0
   65.7112   31.5405   49.9976 H   0  0  0  0  0  0  0  0  0  0  0  0
   66.9120   32.7486   49.3995 H   0  0  0  0  0  0  0  0  0  0  0  0
   65.5832   33.4638   51.9692 H   0  0  0  0  0  0  0  0  0  0  0  0
   66.6642   31.9752   51.9926 H   0  0  0  0  0  0  0  0  0  0  0  0
   67.1764   35.2693   53.0930 H   0  0  0  0  0  0  0  0  0  0  0  0
   67.9233   35.8862   51.5803 H   0  0  0  0  0  0  0  0  0  0  0  0
   66.2106   35.3444   51.5803 H   0  0  0  0  0  0  0  0  0  0  0  0
   69.4881   33.9501   50.6118 H   0  0  0  0  0  0  0  0  0  0  0  0
   68.2453   32.9370   49.8020 H   0  0  0  0  0  0  0  0  0  0  0  0
   68.0850   34.7261   49.8020 H   0  0  0  0  0  0  0  0  0  0  0  0
   68.0763   33.5378   53.7148 H   0  0  0  0  0  0  0  0  0  0  0  0
   68.6186   32.1906   52.6576 H   0  0  0  0  0  0  0  0  0  0  0  0
   69.5133   33.7482   52.6576 H   0  0  0  0  0  0  0  0  0  0  0  0
   63.4773   34.8250   47.9704 H   0  0  0  0  0  0  0  0  0  0  0  0
   61.3934   34.0654   46.8593 H   0  0  0  0  0  0  0  0  0  0  0  0
  1  2  1  0
  2  3  1  0
  3  4  1  0
  4  5  1  0
  3  6  1  0
  6  7  1  0
  7  8  1  0
  8  9  1  0
  9 10  1  0
 10 11  2  0
 11 12  1  0
 12 13  2  0
 13 14  1  0
 14 15  2  0
 15 16  1  0
 16 17  2  0
 17 18  1  0
 17 19  1  0
 19 20  2  0
 20 21  1  0
 21 22  1  0
 22 23  1  0
 23 24  1  0
 24 25  1  0
 25 26  1  0
 25 27  1  0
 25 28  1  0
 21 29  2  0
 29 30  1  0
 30 31  2  0
 31 10  1  0
 16 11  1  0
 31 19  1  0
  1 32  1  0
  1 33  1  0
  1 34  1  0
  2 35  1  0
  2 36  1  0
  4 37  1  0
  4 38  1  0
  5 39  1  0
  5 40  1  0
  5 41  1  0
  6 42  1  0
  6 43  1  0
  7 44  1  0
  7 45  1  0
  8 46  1  0
  8 47  1  0
  9 48  1  0
 12 49  1  0
 13 50  1  0
 14 51  1  0
 15 52  1  0
 18 53  1  0
 18 54  1  0
 18 55  1  0
 20 56  1  0
 23 57  1  0
 23 58  1  0
 24 59  1  0
 24 60  1  0
 26 61  1  0
 26 62  1  0
 26 63  1  0
 27 64  1  0
 27 65  1  0
 27 66  1  0
 28 67  1  0
 28 68  1  0
 28 69  1  0
 29 70  1  0
 30 71  1  0
M  CHG  2  17   1  25   1
M  END
>  <UniqueID>  (33) 
32

>  <SMILES>  (33) 
CCN(CC)CCCNc1c2ccccc2[n+](C)c2cc(OCC[N+](C)(C)C)ccc12

>  <Energy>  (33) 
101.03095584433704

>  <Genealogy>  (33) 
CCN(CC)CCCNc1c2ccccc2[n+](C)c2cc(OCC[N+](C)(C)C)ccc12 (3D coordinates assigned)
CCN(CC)CCCNc1c2ccccc2[n+](C)c2cc(OCC[N+](C)(C)C)ccc12 (optimized conformer: 101.03095584433704 kcal/mol)

>  <smiles>  (33) 
CCN(CC)CCCNc1c2ccccc2[n+](C)c2cc(OCC[N+](C)(C)C)ccc12

>  <score_type>  (33) 
oracle

>  <origin>  (33) 
adg

>  <m_score__min__energy>  (33) 
-4.46

>  <m_primary>  (33) 
energy

$$$$
