0:0
     RDKit          3D

 31 32  0  0  1  0  0  0  0  0999 V2000
   56.5850   29.5760   43.1450 O   0  0  0  0  0  0  0  0  0  0  0  0
   56.5040   29.9200   44.6640 S   0  0  0  0  0  0  0  0  0  0  0  0
   55.1530   29.3430   44.8650 O   0  0  0  0  0  0  0  0  0  0  0  0
   56.7030   31.5800   44.5360 N   0  0  0  0  0  0  0  0  0  0  0  0
   57.6070   32.1650   43.8520 C   0  0  0  0  0  0  0  0  0  0  0  0
   58.1560   31.6010   42.6720 O   0  0  0  0  0  0  0  0  0  0  0  0
   58.0480   33.4260   44.3390 N   0  0  0  0  0  0  0  0  0  0  0  0
   58.5690   33.5000   45.6470 C   0  0  0  0  0  0  0  0  0  0  0  0
   58.8250   34.6240   46.3850 C   0  0  0  0  0  0  0  0  0  0  0  0
   59.2790   34.6060   47.6890 C   0  0  0  0  0  0  0  0  0  0  0  0
   59.5070   33.4120   48.3360 C   0  0  0  0  0  0  0  0  0  0  0  0
   60.0770   33.4230   49.9700 Cl  0  0  0  0  0  0  0  0  0  0  0  0
   59.2610   32.2580   47.6210 C   0  0  0  0  0  0  0  0  0  0  0  0
   58.8070   32.2750   46.3210 C   0  0  0  0  0  0  0  0  0  0  0  0
   57.8390   28.9630   45.2140 C   0  0  0  0  0  0  0  0  0  0  0  0
   59.1390   29.2270   44.7440 C   0  0  0  0  0  0  0  0  0  0  0  0
   60.2170   28.4570   45.1450 C   0  0  0  0  0  0  0  0  0  0  0  0
   60.0840   27.4060   46.0110 C   0  0  0  0  0  0  0  0  0  0  0  0
   58.8170   27.1320   46.4800 C   0  0  0  0  0  0  0  0  0  0  0  0
   57.7430   27.9010   46.0790 C   0  0  0  0  0  0  0  0  0  0  0  0
   58.1420   30.5690   42.6260 H   0  0  0  0  0  0  0  0  0  0  0  0
   58.0030   34.2690   43.6830 H   0  0  0  0  0  0  0  0  0  0  0  0
   58.6588   35.6021   45.9100 H   0  0  0  0  0  0  0  0  0  0  0  0
   59.4602   35.5544   48.2159 H   0  0  0  0  0  0  0  0  0  0  0  0
   59.4342   31.2870   48.1081 H   0  0  0  0  0  0  0  0  0  0  0  0
   58.6263   31.3245   45.7976 H   0  0  0  0  0  0  0  0  0  0  0  0
   59.3014   30.0607   44.0450 H   0  0  0  0  0  0  0  0  0  0  0  0
   61.2162   28.6986   44.7536 H   0  0  0  0  0  0  0  0  0  0  0  0
   60.9518   26.8048   46.3200 H   0  0  0  0  0  0  0  0  0  0  0  0
   58.6609   26.2960   47.1776 H   0  0  0  0  0  0  0  0  0  0  0  0
   56.7493   27.6474   46.4769 H   0  0  0  0  0  0  0  0  0  0  0  0
  1  2  2  0
  2  3  2  0
  2  4  1  0
  4  5  2  0
  5  6  1  0
  5  7  1  0
  7  8  1  0
  8  9  2  0
  9 10  1  0
 10 11  2  0
 11 12  1  0
 11 13  1  0
 13 14  2  0
  2 15  1  0
 15 16  2  0
 16 17  1  0
 17 18  2  0
 18 19  1  0
 19 20  2  0
 14  8  1  0
 20 15  1  0
  6 21  1  0
  7 22  1  0
  9 23  1  0
 10 24  1  0
 13 25  1  0
 14 26  1  0
 16 27  1  0
 17 28  1  0
 18 29  1  0
 19 30  1  0
 20 31  1  0
M  END
>  <smiles>  (1) 
O=S(=O)(N=C(O)Nc1ccc(Cl)cc1)c1ccccc1

>  <score_type>  (1) 
oracle

>  <origin>  (1) 
adg

>  <m_score__min__energy>  (1) 
-8.1099999999999994

>  <m_primary>  (1) 
energy

$$$$
1:0
     RDKit          3D

 46 48  0  0  0  0  0  0  0  0999 V2000
   56.6500   25.0450   45.6060 C   0  0  0  0  0  0  0  0  0  0  0  0
   57.1010   26.4420   45.5000 N   0  0  0  0  0  0  0  0  0  0  0  0
   57.5600   26.9530   46.8200 C   0  0  0  0  0  0  0  0  0  0  0  0
   58.5430   28.1420   46.7070 C   0  0  0  0  0  0  0  0  0  0  0  0
   58.3990   28.8330   45.4220 N   0  0  0  0  0  0  0  0  0  0  0  0
   58.2560   30.2610   45.3890 C   0  0  0  0  0  0  0  0  0  0  0  0
   59.2400   31.0490   46.0060 C   0  0  0  0  0  0  0  0  0  0  0  0
   59.1210   32.4460   46.0510 C   0  0  0  0  0  0  0  0  0  0  0  0
   60.1340   33.2470   46.6940 N   0  0  0  0  0  0  0  0  0  0  0  0
   59.7930   34.5380   47.3080 C   0  0  0  0  0  0  0  0  0  0  0  0
   60.2510   34.5770   48.7740 C   0  0  0  0  0  0  0  0  0  0  0  0
   61.5930   33.8500   49.0180 C   0  0  0  0  0  0  0  0  0  0  0  0
   62.3720   33.5930   47.7230 C   0  0  0  0  0  0  0  0  0  0  0  0
   61.5250   32.7670   46.7440 C   0  0  0  0  0  0  0  0  0  0  0  0
   57.9900   33.0510   45.4850 C   0  0  0  0  0  0  0  0  0  0  0  0
   57.0080   32.2780   44.8620 C   0  0  0  0  0  0  0  0  0  0  0  0
   57.1320   30.8790   44.7900 C   0  0  0  0  0  0  0  0  0  0  0  0
   56.1310   30.1180   44.0890 N   0  0  0  0  0  0  0  0  0  0  0  0
   56.0420   30.1720   42.8430 O   0  0  0  0  0  0  0  0  0  0  0  0
   55.1620   29.4370   44.7910 O   0  0  0  0  0  0  0  0  0  0  0  0
   58.3310   28.0700   44.1710 C   0  0  0  0  0  0  0  0  0  0  0  0
   58.1360   26.5820   44.4630 C   0  0  0  0  0  0  0  0  0  0  0  0
   56.5606   24.7681   46.6668 H   0  0  0  0  0  0  0  0  0  0  0  0
   55.6715   24.9374   45.1152 H   0  0  0  0  0  0  0  0  0  0  0  0
   57.3809   24.3855   45.1152 H   0  0  0  0  0  0  0  0  0  0  0  0
   56.6800   27.2806   47.3929 H   0  0  0  0  0  0  0  0  0  0  0  0
   58.0968   26.1324   47.3186 H   0  0  0  0  0  0  0  0  0  0  0  0
   58.3397   28.8534   47.5210 H   0  0  0  0  0  0  0  0  0  0  0  0
   59.5690   27.7517   46.7779 H   0  0  0  0  0  0  0  0  0  0  0  0
   60.1167   30.5644   46.4606 H   0  0  0  0  0  0  0  0  0  0  0  0
   60.2913   35.3457   46.7519 H   0  0  0  0  0  0  0  0  0  0  0  0
   58.7015   34.6698   47.2737 H   0  0  0  0  0  0  0  0  0  0  0  0
   60.3644   35.6287   49.0759 H   0  0  0  0  0  0  0  0  0  0  0  0
   59.4862   34.0540   49.3669 H   0  0  0  0  0  0  0  0  0  0  0  0
   62.2122   34.4689   49.6840 H   0  0  0  0  0  0  0  0  0  0  0  0
   61.3638   32.8722   49.4668 H   0  0  0  0  0  0  0  0  0  0  0  0
   62.6286   34.5559   47.2572 H   0  0  0  0  0  0  0  0  0  0  0  0
   63.2880   33.0331   47.9627 H   0  0  0  0  0  0  0  0  0  0  0  0
   61.9653   32.8428   45.7388 H   0  0  0  0  0  0  0  0  0  0  0  0
   61.5170   31.7232   47.0911 H   0  0  0  0  0  0  0  0  0  0  0  0
   57.8752   34.1440   45.5321 H   0  0  0  0  0  0  0  0  0  0  0  0
   56.1273   32.7690   44.4225 H   0  0  0  0  0  0  0  0  0  0  0  0
   57.4854   28.4350   43.5696 H   0  0  0  0  0  0  0  0  0  0  0  0
   59.2734   28.2045   43.6199 H   0  0  0  0  0  0  0  0  0  0  0  0
   57.8166   26.0628   43.5473 H   0  0  0  0  0  0  0  0  0  0  0  0
   59.0808   26.1389   44.8108 H   0  0  0  0  0  0  0  0  0  0  0  0
  1  2  1  0
  2  3  1  0
  3  4  1  0
  4  5  1  0
  5  6  1  0
  6  7  2  0
  7  8  1  0
  8  9  1  0
  9 10  1  0
 10 11  1  0
 11 12  1  0
 12 13  1  0
 13 14  1  0
  8 15  2  0
 15 16  1  0
 16 17  2  0
 17 18  1  0
 18 19  2  0
 18 20  1  0
  5 21  1  0
 21 22  1  0
 22  2  1  0
 17  6  1  0
 14  9  1  0
  1 23  1  0
  1 24  1  0
  1 25  1  0
  3 26  1  0
  3 27  1  0
  4 28  1  0
  4 29  1  0
  7 30  1  0
 10 31  1  0
 10 32  1  0
 11 33  1  0
 11 34  1  0
 12 35  1  0
 12 36  1  0
 13 37  1  0
 13 38  1  0
 14 39  1  0
 14 40  1  0
 15 41  1  0
 16 42  1  0
 21 43  1  0
 21 44  1  0
 22 45  1  0
 22 46  1  0
M  CHG  2  18   1  20  -1
M  END
>  <UniqueID>  (2) 
1

>  <SMILES>  (2) 
CN1CCN(c2cc(N3CCCCC3)ccc2[N+](=O)[O-])CC1

>  <Energy>  (2) 
64.8940822645473

>  <Genealogy>  (2) 
CN1CCN(c2cc(N3CCCCC3)ccc2[N+](=O)[O-])CC1 (3D coordinates assigned)
CN1CCN(c2cc(N3CCCCC3)ccc2[N+](=O)[O-])CC1 (nonaromatic ring conformer: 64.8940822645473 kcal/mol)

>  <smiles>  (2) 
CN1CCN(c2cc(N3CCCCC3)ccc2[N+](=O)[O-])CC1

>  <score_type>  (2) 
oracle

>  <origin>  (2) 
adg

>  <m_score__min__energy>  (2) 
-7.8099999999999996

>  <m_primary>  (2) 
energy

$$$$
2:0
     RDKit          3D

 56 55  0  0  0  0  0  0  0  0999 V2000
   63.6940   33.2750   46.9330 C   0  0  0  0  0  0  0  0  0  0  0  0
   62.5080   33.7710   47.7530 C   0  0  0  0  0  0  0  0  0  0  0  0
   61.1810   33.3450   47.1160 C   0  0  0  0  0  0  0  0  0  0  0  0
   60.0820   34.3770   47.3950 C   0  0  0  0  0  0  0  0  0  0  0  0
   59.8680   35.3490   46.2200 C   0  0  0  0  0  0  0  0  0  0  0  0
   58.9030   34.8100   45.1420 C   0  0  0  0  0  0  0  0  0  0  0  0
   57.8860   33.8050   45.7110 C   0  0  0  0  0  0  0  0  0  0  0  0
   58.2080   32.3510   45.2940 C   0  0  0  0  0  0  0  0  0  0  0  0
   57.3730   31.8480   44.1040 C   0  0  0  0  0  0  0  0  0  0  0  0
   56.6690   30.5170   44.3950 C   0  0  0  0  0  0  0  0  0  0  0  0
   57.6780   29.3710   44.5510 C   0  0  0  0  0  0  0  0  0  0  0  0
   57.6410   28.3800   43.3750 C   0  0  0  0  0  0  0  0  0  0  0  0
   58.5180   27.1280   43.5910 C   0  0  0  0  0  0  0  0  0  0  0  0
   57.7310   25.9640   44.2140 C   0  0  0  0  0  0  0  0  0  0  0  0
   57.5710   26.1590   45.7260 C   0  0  0  0  0  0  0  0  0  0  0  0
   56.3540   27.0280   46.0670 C   0  0  0  0  0  0  0  0  0  0  0  0
   55.1100   26.2730   45.9580 N   0  0  0  0  0  0  0  0  0  0  0  0
   55.0460   24.8430   45.9750 C   0  0  0  0  0  0  0  0  0  0  0  0
   55.5200   24.1950   46.9470 O   0  0  0  0  0  0  0  0  0  0  0  0
   54.4310   24.1120   44.8290 C   0  0  0  0  0  0  0  0  0  0  0  0
   55.6980   23.3200   43.8560 Cl  0  0  0  0  0  0  0  0  0  0  0  0
   64.4937   32.9405   47.6102 H   0  0  0  0  0  0  0  0  0  0  0  0
   63.3754   32.4347   46.2986 H   0  0  0  0  0  0  0  0  0  0  0  0
   64.0685   34.0919   46.2986 H   0  0  0  0  0  0  0  0  0  0  0  0
   62.5712   33.3501   48.7673 H   0  0  0  0  0  0  0  0  0  0  0  0
   62.5422   34.8699   47.7880 H   0  0  0  0  0  0  0  0  0  0  0  0
   61.3179   33.2501   46.0287 H   0  0  0  0  0  0  0  0  0  0  0  0
   60.8763   32.3818   47.5512 H   0  0  0  0  0  0  0  0  0  0  0  0
   59.1391   33.8439   47.5871 H   0  0  0  0  0  0  0  0  0  0  0  0
   60.3974   34.9716   48.2651 H   0  0  0  0  0  0  0  0  0  0  0  0
   59.4569   36.2891   46.6164 H   0  0  0  0  0  0  0  0  0  0  0  0
   60.8456   35.4919   45.7365 H   0  0  0  0  0  0  0  0  0  0  0  0
   58.3547   35.6571   44.7040 H   0  0  0  0  0  0  0  0  0  0  0  0
   59.5056   34.2844   44.3866 H   0  0  0  0  0  0  0  0  0  0  0  0
   57.8994   33.8702   46.8090 H   0  0  0  0  0  0  0  0  0  0  0  0
   56.8952   34.0612   45.3077 H   0  0  0  0  0  0  0  0  0  0  0  0
   59.2717   32.2963   45.0193 H   0  0  0  0  0  0  0  0  0  0  0  0
   57.9619   31.7091   46.1527 H   0  0  0  0  0  0  0  0  0  0  0  0
   56.6109   32.6041   43.8644 H   0  0  0  0  0  0  0  0  0  0  0  0
   58.0611   31.6826   43.2619 H   0  0  0  0  0  0  0  0  0  0  0  0
   56.0912   30.6140   45.3260 H   0  0  0  0  0  0  0  0  0  0  0  0
   56.0082   30.2828   43.5474 H   0  0  0  0  0  0  0  0  0  0  0  0
   58.6889   29.7995   44.6179 H   0  0  0  0  0  0  0  0  0  0  0  0
   57.4095   28.8149   45.4613 H   0  0  0  0  0  0  0  0  0  0  0  0
   56.6007   28.0542   43.2280 H   0  0  0  0  0  0  0  0  0  0  0  0
   58.0436   28.9071   42.4975 H   0  0  0  0  0  0  0  0  0  0  0  0
   58.9177   26.8042   42.6187 H   0  0  0  0  0  0  0  0  0  0  0  0
   59.3251   27.3990   44.2875 H   0  0  0  0  0  0  0  0  0  0  0  0
   56.7349   25.9136   43.7500 H   0  0  0  0  0  0  0  0  0  0  0  0
   58.2852   25.0305   44.0368 H   0  0  0  0  0  0  0  0  0  0  0  0
   57.4483   25.1741   46.2002 H   0  0  0  0  0  0  0  0  0  0  0  0
   58.4699   26.6710   46.0998 H   0  0  0  0  0  0  0  0  0  0  0  0
   56.4575   27.3995   47.0972 H   0  0  0  0  0  0  0  0  0  0  0  0
   56.3148   27.8627   45.3517 H   0  0  0  0  0  0  0  0  0  0  0  0
   53.7379   23.3494   45.2138 H   0  0  0  0  0  0  0  0  0  0  0  0
   53.8861   24.8280   44.1962 H   0  0  0  0  0  0  0  0  0  0  0  0
  1  2  1  0
  2  3  1  0
  3  4  1  0
  4  5  1  0
  5  6  1  0
  6  7  1  0
  7  8  1  0
  8  9  1  0
  9 10  1  0
 10 11  1  0
 11 12  1  0
 12 13  1  0
 13 14  1  0
 14 15  1  0
 15 16  1  0
 16 17  1  0
 17 18  1  0
 18 19  2  0
 18 20  1  0
 20 21  1  0
  1 22  1  0
  1 23  1  0
  1 24  1  0
  2 25  1  0
  2 26  1  0
  3 27  1  0
  3 28  1  0
  4 29  1  0
  4 30  1  0
  5 31  1  0
  5 32  1  0
  6 33  1  0
  6 34  1  0
  7 35  1  0
  7 36  1  0
  8 37  1  0
  8 38  1  0
  9 39  1  0
  9 40  1  0
 10 41  1  0
 10 42  1  0
 11 43  1  0
 11 44  1  0
 12 45  1  0
 12 46  1  0
 13 47  1  0
 13 48  1  0
 14 49  1  0
 14 50  1  0
 15 51  1  0
 15 52  1  0
 16 53  1  0
 16 54  1  0
 20 55  1  0
 20 56  1  0
M  CHG  1  17  -1
M  END
>  <UniqueID>  (3) 
2

>  <SMILES>  (3) 
CCCCCCCCCCCCCCCC[N-]C(=O)CCl

>  <Energy>  (3) 
20.843053314998212

>  <Genealogy>  (3) 
CCCCCCCCCCCCCCCC[N-]C(=O)CCl (protonated)
CCCCCCCCCCCCCCCC[N-]C(=O)CCl (3D coordinates assigned)
CCCCCCCCCCCCCCCC[N-]C(=O)CCl (optimized conformer: 20.843053314998212 kcal/mol)

>  <smiles>  (3) 
CCCCCCCCCCCCCCCCNC(=O)CCl

>  <score_type>  (3) 
oracle

>  <origin>  (3) 
adg

>  <m_score__min__energy>  (3) 
-8.3300000000000001

>  <m_primary>  (3) 
energy

$$$$
3:0
     RDKit          3D

 51 54  0  0  1  0  0  0  0  0999 V2000
   55.5730   25.2760   45.9280 C   0  0  0  0  0  0  0  0  0  0  0  0
   55.4580   26.7020   45.9910 O   0  0  0  0  0  0  0  0  0  0  0  0
   56.6050   27.4130   45.6200 C   0  0  0  0  0  0  0  0  0  0  0  0
   57.8420   26.7890   45.6250 C   0  0  0  0  0  0  0  0  0  0  0  0
   58.9880   27.4860   45.2580 C   0  0  0  0  0  0  0  0  0  0  0  0
   58.8720   28.8110   44.8880 C   0  0  0  0  0  0  0  0  0  0  0  0
   57.6360   29.4670   44.8730 C   0  0  0  0  0  0  0  0  0  0  0  0
   57.6480   30.8540   44.4650 C   0  0  0  0  0  0  0  0  0  0  0  0
   57.4280   31.2340   43.1350 C   0  0  0  0  0  0  0  0  0  0  0  0
   57.5200   32.5760   43.0980 N   0  0  0  0  0  0  0  0  0  0  0  0
   57.7790   33.0350   44.3090 N   0  0  0  0  0  0  0  0  0  0  0  0
   57.8640   32.0110   45.1770 C   0  0  0  0  0  0  0  0  0  0  0  0
   58.1320   32.1150   46.6390 C   0  0  2  0  0  0  0  0  0  0  0  0
   58.4480   33.5580   46.9730 C   0  0  0  0  0  0  0  0  0  0  0  0
   59.6640   33.9720   46.1660 C   0  0  0  0  0  0  0  0  0  0  0  0
   60.8330   33.0600   46.4040 C   0  0  0  0  0  0  0  0  0  0  0  0
   60.5290   31.9490   47.1930 N   0  0  0  0  0  0  0  0  0  0  0  0
   61.5000   31.4130   48.0630 C   0  0  0  0  0  0  0  0  0  0  0  0
   62.1710   32.3340   48.9760 C   0  0  0  0  0  0  0  0  0  0  0  0
   63.5230   32.5590   48.8120 C   0  0  0  0  0  0  0  0  0  0  0  0
   64.1920   33.4190   49.6490 C   0  0  0  0  0  0  0  0  0  0  0  0
   63.5690   34.1010   50.6840 C   0  0  0  0  0  0  0  0  0  0  0  0
   64.2530   34.9470   51.4980 F   0  0  0  0  0  0  0  0  0  0  0  0
   62.2120   33.8770   50.8520 C   0  0  0  0  0  0  0  0  0  0  0  0
   61.5370   33.0080   50.0060 C   0  0  0  0  0  0  0  0  0  0  0  0
   59.3160   31.2800   47.0500 C   0  0  0  0  0  0  0  0  0  0  0  0
   56.5320   28.7470   45.2410 C   0  0  0  0  0  0  0  0  0  0  0  0
   55.6061   24.8654   46.9480 H   0  0  0  0  0  0  0  0  0  0  0  0
   54.7054   24.8614   45.3938 H   0  0  0  0  0  0  0  0  0  0  0  0
   56.4959   25.0058   45.3938 H   0  0  0  0  0  0  0  0  0  0  0  0
   57.9183   25.7326   45.9220 H   0  0  0  0  0  0  0  0  0  0  0  0
   59.9699   26.9902   45.2624 H   0  0  0  0  0  0  0  0  0  0  0  0
   59.7759   29.3663   44.5970 H   0  0  0  0  0  0  0  0  0  0  0  0
   57.2205   30.5658   42.2862 H   0  0  0  0  0  0  0  0  0  0  0  0
   57.4140   33.2070   42.2750 H   0  0  0  0  0  0  0  0  0  0  0  0
   57.2400   31.7554   47.1729 H   0  0  0  0  0  0  0  0  0  0  0  0
   57.5918   34.1974   46.7121 H   0  0  0  0  0  0  0  0  0  0  0  0
   58.6496   33.6652   48.0490 H   0  0  0  0  0  0  0  0  0  0  0  0
   59.4061   33.9475   45.0969 H   0  0  0  0  0  0  0  0  0  0  0  0
   59.9531   34.9852   46.4819 H   0  0  0  0  0  0  0  0  0  0  0  0
   61.1991   32.7039   45.4298 H   0  0  0  0  0  0  0  0  0  0  0  0
   61.5889   33.6436   46.9499 H   0  0  0  0  0  0  0  0  0  0  0  0
   61.0052   30.6446   48.6752 H   0  0  0  0  0  0  0  0  0  0  0  0
   62.2974   31.0461   47.4000 H   0  0  0  0  0  0  0  0  0  0  0  0
   64.0684   32.0464   48.0059 H   0  0  0  0  0  0  0  0  0  0  0  0
   65.2696   33.5736   49.4914 H   0  0  0  0  0  0  0  0  0  0  0  0
   61.6677   34.3897   51.6588 H   0  0  0  0  0  0  0  0  0  0  0  0
   60.4594   32.8490   50.1594 H   0  0  0  0  0  0  0  0  0  0  0  0
   59.4535   30.4978   46.2889 H   0  0  0  0  0  0  0  0  0  0  0  0
   59.0716   30.9029   48.0540 H   0  0  0  0  0  0  0  0  0  0  0  0
   55.5503   29.2433   45.2364 H   0  0  0  0  0  0  0  0  0  0  0  0
  1  2  1  0
  2  3  1  0
  3  4  2  0
  4  5  1  0
  5  6  2  0
  6  7  1  0
  7  8  1  0
  8  9  2  0
  9 10  1  0
 10 11  1  0
 11 12  2  0
 12 13  1  0
 13 14  1  0
 14 15  1  0
 15 16  1  0
 16 17  1  0
 17 18  1  0
 18 19  1  0
 19 20  2  0
 20 21  1  0
 21 22  2  0
 22 23  1  0
 22 24  1  0
 24 25  2  0
 17 26  1  0
  7 27  2  0
 27  3  1  0
 12  8  1  0
 26 13  1  0
 25 19  1  0
  1 28  1  0
  1 29  1  0
  1 30  1  0
  4 31  1  0
  5 32  1  0
  6 33  1  0
  9 34  1  0
 10 35  1  0
 13 36  1  1
 14 37  1  0
 14 38  1  0
 15 39  1  0
 15 40  1  0
 16 41  1  0
 16 42  1  0
 18 43  1  0
 18 44  1  0
 20 45  1  0
 21 46  1  0
 24 47  1  0
 25 48  1  0
 26 49  1  0
 26 50  1  0
 27 51  1  0
M  END
>  <smiles>  (4) 
COc1cccc(-c2c[nH]nc2C2CCCN(Cc3ccc(F)cc3)C2)c1

>  <score_type>  (4) 
oracle

>  <origin>  (4) 
adg

>  <m_score__min__energy>  (4) 
-8.9800000000000004

>  <m_primary>  (4) 
energy

$$$$
4:0
     RDKit          3D

 43 45  0  0  0  0  0  0  0  0999 V2000
   67.1660   29.9070   50.7770 O   0  0  0  0  0  0  0  0  0  0  0  0
   66.6190   31.1980   51.3220 S   0  0  0  0  0  0  0  0  0  0  0  0
   67.4200   31.6220   52.5210 O   0  0  0  0  0  0  0  0  0  0  0  0
   64.9090   30.9990   51.7760 C   0  0  0  0  0  0  0  0  0  0  0  0
   64.0330   31.1760   50.5310 C   0  0  0  0  0  0  0  0  0  0  0  0
   64.0810   32.6030   49.8730 C   0  0  0  0  0  0  0  0  0  0  0  0
   63.8000   32.5500   48.3950 N   0  0  0  0  0  0  0  0  0  0  0  0
   63.4180   33.8940   47.8520 C   0  0  0  0  0  0  0  0  0  0  0  0
   62.4270   33.8410   46.6810 C   0  0  0  0  0  0  0  0  0  0  0  0
   61.2150   33.1290   47.1020 N   0  0  0  0  0  0  0  0  0  0  0  0
   59.9180   33.4790   46.5680 C   0  0  0  0  0  0  0  0  0  0  0  0
   58.7370   33.0780   47.2240 C   0  0  0  0  0  0  0  0  0  0  0  0
   57.4840   33.4180   46.7020 C   0  0  0  0  0  0  0  0  0  0  0  0
   57.3960   34.1620   45.5230 C   0  0  0  0  0  0  0  0  0  0  0  0
   58.5580   34.5680   44.8650 C   0  0  0  0  0  0  0  0  0  0  0  0
   59.8130   34.2310   45.3820 C   0  0  0  0  0  0  0  0  0  0  0  0
   61.3580   32.0080   48.0370 C   0  0  0  0  0  0  0  0  0  0  0  0
   62.8040   31.4950   48.0260 C   0  0  0  0  0  0  0  0  0  0  0  0
   65.4250   33.3470   50.2040 C   0  0  0  0  0  0  0  0  0  0  0  0
   66.6670   32.4610   50.0680 C   0  0  0  0  0  0  0  0  0  0  0  0
   64.7542   29.9937   52.1949 H   0  0  0  0  0  0  0  0  0  0  0  0
   64.6367   31.7526   52.5296 H   0  0  0  0  0  0  0  0  0  0  0  0
   64.3602   30.4436   49.7783 H   0  0  0  0  0  0  0  0  0  0  0  0
   62.9954   31.0303   50.8659 H   0  0  0  0  0  0  0  0  0  0  0  0
   63.2715   33.1985   50.3203 H   0  0  0  0  0  0  0  0  0  0  0  0
   64.6970   32.2780   47.9260 H   0  0  0  0  0  0  0  0  0  0  0  0
   62.9606   34.4772   48.6649 H   0  0  0  0  0  0  0  0  0  0  0  0
   64.3401   34.3524   47.4652 H   0  0  0  0  0  0  0  0  0  0  0  0
   62.1643   34.8646   46.3756 H   0  0  0  0  0  0  0  0  0  0  0  0
   62.8876   33.3138   45.8326 H   0  0  0  0  0  0  0  0  0  0  0  0
   58.8006   32.4932   48.1535 H   0  0  0  0  0  0  0  0  0  0  0  0
   56.5677   33.0992   47.2204 H   0  0  0  0  0  0  0  0  0  0  0  0
   56.4105   34.4280   45.1130 H   0  0  0  0  0  0  0  0  0  0  0  0
   58.4865   35.1546   43.9372 H   0  0  0  0  0  0  0  0  0  0  0  0
   60.7244   34.5556   44.8586 H   0  0  0  0  0  0  0  0  0  0  0  0
   61.0990   32.3449   49.0516 H   0  0  0  0  0  0  0  0  0  0  0  0
   60.6844   31.1943   47.7300 H   0  0  0  0  0  0  0  0  0  0  0  0
   62.8878   30.6666   48.7448 H   0  0  0  0  0  0  0  0  0  0  0  0
   63.0313   31.1714   46.9995 H   0  0  0  0  0  0  0  0  0  0  0  0
   65.5290   34.1992   49.5163 H   0  0  0  0  0  0  0  0  0  0  0  0
   65.3679   33.6624   51.2563 H   0  0  0  0  0  0  0  0  0  0  0  0
   66.6784   31.9923   49.0729 H   0  0  0  0  0  0  0  0  0  0  0  0
   67.5739   33.0714   50.1902 H   0  0  0  0  0  0  0  0  0  0  0  0
  1  2  2  0
  2  3  2  0
  2  4  1  0
  4  5  1  0
  5  6  1  0
  6  7  1  0
  7  8  1  0
  8  9  1  0
  9 10  1  0
 10 11  1  0
 11 12  2  0
 12 13  1  0
 13 14  2  0
 14 15  1  0
 15 16  2  0
 10 17  1  0
 17 18  1  0
  6 19  1  0
 19 20  1  0
 20  2  1  0
 18  7  1  0
 16 11  1  0
  4 21  1  0
  4 22  1  0
  5 23  1  0
  5 24  1  0
  6 25  1  0
  7 26  1  0
  8 27  1  0
  8 28  1  0
  9 29  1  0
  9 30  1  0
 12 31  1  0
 13 32  1  0
 14 33  1  0
 15 34  1  0
 16 35  1  0
 17 36  1  0
 17 37  1  0
 18 38  1  0
 18 39  1  0
 19 40  1  0
 19 41  1  0
 20 42  1  0
 20 43  1  0
M  CHG  1   7   1
M  END
>  <UniqueID>  (5) 
3

>  <SMILES>  (5) 
O=S1(=O)CCC([NH+]2CCN(c3ccccc3)CC2)CC1

>  <Energy>  (5) 
59.91529100347265

>  <Genealogy>  (5) 
O=S1(=O)CCC([NH+]2CCN(c3ccccc3)CC2)CC1 (protonated)
O=S1(=O)CCC([NH+]2CCN(c3ccccc3)CC2)CC1 (3D coordinates assigned)
O=S1(=O)CCC([NH+]2CCN(c3ccccc3)CC2)CC1 (nonaromatic ring conformer: 59.91529100347265 kcal/mol)

>  <smiles>  (5) 
O=S1(=O)CCC(N2CCN(c3ccccc3)CC2)CC1

>  <score_type>  (5) 
oracle

>  <origin>  (5) 
adg

>  <m_score__min__energy>  (5) 
-5.6900000000000004

>  <m_primary>  (5) 
energy

$$$$
5:0
     RDKit          3D

 37 39  0  0  0  0  0  0  0  0999 V2000
   60.1320   30.6560   45.4100 H   0  0  0  0  0  0  0  0  0  0  0  0
   59.8770   29.8410   44.8690 O   0  0  0  0  0  0  0  0  0  0  0  0
   58.6480   29.2040   45.0350 C   0  0  0  0  0  0  0  0  0  0  0  0
   58.4760   27.9670   45.6250 C   0  0  0  0  0  0  0  0  0  0  0  0
   57.1280   27.7150   45.6270 C   0  0  0  0  0  0  0  0  0  0  0  0
   56.5230   28.8050   45.0370 C   0  0  0  0  0  0  0  0  0  0  0  0
   55.1530   28.9680   44.8640 O   0  0  0  0  0  0  0  0  0  0  0  0
   57.4500   29.7120   44.6560 N   0  0  0  0  0  0  0  0  0  0  0  0
   57.1860   31.0200   44.0560 C   0  0  0  0  0  0  0  0  0  0  0  0
   56.2453   30.9757   43.4875 H   0  0  0  0  0  0  0  0  0  0  0  0
   58.0181   31.2818   43.3859 H   0  0  0  0  0  0  0  0  0  0  0  0
   57.0680   32.0880   45.1460 C   0  0  0  0  0  0  0  0  0  0  0  0
   56.0201   32.1555   45.4735 H   0  0  0  0  0  0  0  0  0  0  0  0
   57.4020   33.0519   44.7344 H   0  0  0  0  0  0  0  0  0  0  0  0
   57.9090   31.7500   46.2940 N   0  0  0  0  0  0  0  0  0  0  0  0
   59.0810   32.2590   46.5350 C   0  0  0  0  0  0  0  0  0  0  0  0
   60.0760   31.5040   47.0800 N   0  0  0  0  0  0  0  0  0  0  0  0
   61.3100   32.0130   47.3380 C   0  0  0  0  0  0  0  0  0  0  0  0
   62.0858   31.3701   47.7793 H   0  0  0  0  0  0  0  0  0  0  0  0
   61.5990   33.3550   47.0440 C   0  0  0  0  0  0  0  0  0  0  0  0
   62.9020   33.9020   47.3130 N   0  0  0  0  0  0  0  0  0  0  0  0
   63.6330   34.2950   46.3810 O   0  0  0  0  0  0  0  0  0  0  0  0
   63.3640   34.0030   48.6060 O   0  0  0  0  0  0  0  0  0  0  0  0
   60.5850   34.1460   46.4780 C   0  0  0  0  0  0  0  0  0  0  0  0
   60.7842   35.2001   46.2348 H   0  0  0  0  0  0  0  0  0  0  0  0
   59.3260   33.6000   46.2230 C   0  0  0  0  0  0  0  0  0  0  0  0
   58.5325   34.2198   45.7800 H   0  0  0  0  0  0  0  0  0  0  0  0
   56.5030   26.4960   46.2240 C   0  0  0  0  0  0  0  0  0  0  0  0
   55.8935   25.9956   45.4571 H   0  0  0  0  0  0  0  0  0  0  0  0
   55.8827   26.8104   47.0763 H   0  0  0  0  0  0  0  0  0  0  0  0
   57.5490   25.5230   46.7330 C   0  0  0  0  0  0  0  0  0  0  0  0
   57.2051   24.5558   47.1282 H   0  0  0  0  0  0  0  0  0  0  0  0
   58.8780   25.7710   46.7310 C   0  0  0  0  0  0  0  0  0  0  0  0
   59.5492   24.9927   47.1231 H   0  0  0  0  0  0  0  0  0  0  0  0
   59.5000   27.0570   46.2210 C   0  0  0  0  0  0  0  0  0  0  0  0
   60.2485   26.8111   45.4534 H   0  0  0  0  0  0  0  0  0  0  0  0
   59.9649   27.5748   47.0729 H   0  0  0  0  0  0  0  0  0  0  0  0
  1  2  1  0
  2  3  1  0
  3  4  2  0
  4  5  1  0
  5  6  2  0
  6  7  1  0
  6  8  1  0
  8  9  1  0
  9 10  1  0
  9 11  1  0
  9 12  1  0
 12 13  1  0
 12 14  1  0
 12 15  1  0
 15 16  2  0
 16 17  1  0
 17 18  1  0
 18 19  1  0
 18 20  2  0
 20 21  1  0
 21 22  2  0
 21 23  1  0
 20 24  1  0
 24 25  1  0
 24 26  2  0
 26 27  1  0
  5 28  1  0
 28 29  1  0
 28 30  1  0
 28 31  1  0
 31 32  1  0
 31 33  2  0
 33 34  1  0
 33 35  1  0
 35 36  1  0
 35 37  1  0
  8  3  1  0
 26 16  1  0
 35  4  1  0
M  CHG  4   7  -1  17  -1  21   1  23  -1
M  END
>  <UniqueID>  (6) 
4

>  <SMILES>  (6) 
O=[N+]([O-])c1cc/c(=N/CCn2c([O-])c3c(c2O)CC=CC3)[n-]c1

>  <Energy>  (6) 
69.92329981425974

>  <Genealogy>  (6) 
O=[N+]([O-])c1ccc(=NCCn2c([O-])c3c(c2O)CC=CC3)[n-]c1 (protonated)
O=[N+]([O-])c1cc/c(=N/CCn2c([O-])c3c(c2O)CC=CC3)[n-]c1 (cis-trans isomerization)
O=[N+]([O-])c1cc/c(=N/CCn2c([O-])c3c(c2O)CC=CC3)[n-]c1 (3D coordinates assigned)
O=[N+]([O-])c1cc/c(=N/CCn2c([O-])c3c(c2O)CC=CC3)[n-]c1 (nonaromatic ring conformer: 69.92329981425974 kcal/mol)

>  <smiles>  (6) 
O=[N+]([O-])c1ccc(=NCCn2c(O)c3c(c2O)CC=CC3)[nH]c1

>  <score_type>  (6) 
oracle

>  <origin>  (6) 
adg

>  <m_score__min__energy>  (6) 
-11.800000000000001

>  <m_primary>  (6) 
energy

$$$$
6:0
     RDKit          3D

 33 34  0  0  1  0  0  0  0  0999 V2000
   63.3330   32.2500   47.2140 C   0  0  0  0  0  0  0  0  0  0  0  0
   63.2860   33.7740   47.3400 C   0  0  0  0  0  0  0  0  0  0  0  0
   62.4460   34.1400   48.4070 O   0  0  0  0  0  0  0  0  0  0  0  0
   61.0870   33.8600   48.2720 C   0  0  0  0  0  0  0  0  0  0  0  0
   60.3700   34.3700   47.2220 C   0  0  0  0  0  0  0  0  0  0  0  0
   59.0250   34.0970   47.0810 C   0  0  0  0  0  0  0  0  0  0  0  0
   58.3530   34.5710   46.1020 N   0  0  0  0  0  0  0  0  0  0  0  0
   58.4670   34.0260   44.7750 C   0  0  0  0  0  0  0  0  0  0  0  0
   57.7240   32.7400   44.6520 C   0  0  0  0  0  0  0  0  0  0  0  0
   57.0710   31.9680   45.2510 N   0  0  0  0  0  0  0  0  0  0  0  0
   56.5590   30.8840   44.7680 N   0  0  0  0  0  0  0  0  0  0  0  0
   56.6510   30.4930   43.6830 C   0  0  0  0  0  0  0  0  0  0  0  0
   56.2670   29.3880   42.7350 C   0  0  0  0  0  0  0  0  0  0  0  0
   57.7340   31.9080   42.9520 S   0  0  0  0  0  0  0  0  0  0  0  0
   58.4270   33.3050   48.0210 N   0  0  0  0  0  0  0  0  0  0  0  0
   59.1590   32.8090   49.0560 C   0  0  0  0  0  0  0  0  0  0  0  0
   58.4660   31.9430   50.0670 C   0  0  0  0  0  0  0  0  0  0  0  0
   60.4770   33.0950   49.1650 N   0  0  0  0  0  0  0  0  0  0  0  0
   63.3469   31.7994   48.2174 H   0  0  0  0  0  0  0  0  0  0  0  0
   62.4452   31.8998   46.6670 H   0  0  0  0  0  0  0  0  0  0  0  0
   64.2407   31.9551   46.6670 H   0  0  0  0  0  0  0  0  0  0  0  0
   64.3005   34.1561   47.5267 H   0  0  0  0  0  0  0  0  0  0  0  0
   62.8934   34.2028   46.4062 H   0  0  0  0  0  0  0  0  0  0  0  0
   60.8742   35.0067   46.4802 H   0  0  0  0  0  0  0  0  0  0  0  0
   58.0552   34.7480   44.0545 H   0  0  0  0  0  0  0  0  0  0  0  0
   59.5303   33.8337   44.5689 H   0  0  0  0  0  0  0  0  0  0  0  0
   55.9592   28.5021   43.3099 H   0  0  0  0  0  0  0  0  0  0  0  0
   55.4323   29.7221   42.1013 H   0  0  0  0  0  0  0  0  0  0  0  0
   57.1290   29.1325   42.1013 H   0  0  0  0  0  0  0  0  0  0  0  0
   58.7332   32.2769   51.0805 H   0  0  0  0  0  0  0  0  0  0  0  0
   57.3772   32.0198   49.9308 H   0  0  0  0  0  0  0  0  0  0  0  0
   58.7797   30.8975   49.9308 H   0  0  0  0  0  0  0  0  0  0  0  0
   60.9620   32.6640   50.0050 H   0  0  0  0  0  0  0  0  0  0  0  0
  1  2  1  0
  2  3  1  0
  3  4  1  0
  4  5  2  0
  5  6  1  0
  6  7  2  0
  7  8  1  0
  8  9  1  0
  9 10  2  0
 10 11  1  0
 11 12  2  0
 12 13  1  0
 12 14  1  0
  6 15  1  0
 15 16  2  0
 16 17  1  0
 16 18  1  0
 18  4  1  0
 14  9  1  0
  1 19  1  0
  1 20  1  0
  1 21  1  0
  2 22  1  0
  2 23  1  0
  5 24  1  0
  8 25  1  0
  8 26  1  0
 13 27  1  0
 13 28  1  0
 13 29  1  0
 17 30  1  0
 17 31  1  0
 17 32  1  0
 18 33  1  0
M  END
>  <smiles>  (7) 
CCOc1cc(=NCc2nnc(C)s2)nc(C)[nH]1

>  <score_type>  (7) 
oracle

>  <origin>  (7) 
adg

>  <m_score__min__energy>  (7) 
-6.4199999999999999

>  <m_primary>  (7) 
energy

$$$$
7:0
     RDKit          3D

 29 31  0  0  1  0  0  0  0  0999 V2000
   59.1500   34.6540   46.6080 C   0  0  0  0  0  0  0  0  0  0  0  0
   58.1430   33.9440   47.1750 N   0  0  0  0  0  0  0  0  0  0  0  0
   57.3960   33.0820   46.4250 C   0  0  0  0  0  0  0  0  0  0  0  0
   57.7260   32.9880   45.1030 C   0  0  0  0  0  0  0  0  0  0  0  0
   57.0250   32.1180   44.1920 N   0  0  0  0  0  0  0  0  0  0  0  0
   56.8120   30.8840   44.5020 C   0  0  0  0  0  0  0  0  0  0  0  0
   55.6650   30.1690   44.4300 N   0  0  0  0  0  0  0  0  0  0  0  0
   55.8670   28.9370   44.8420 N   0  0  0  0  0  0  0  0  0  0  0  0
   57.1680   28.7680   45.2120 C   0  0  0  0  0  0  0  0  0  0  0  0
   57.7490   30.0030   44.9920 C   0  0  0  0  0  0  0  0  0  0  0  0
   59.2130   30.0970   45.3250 C   0  0  0  0  0  0  0  0  0  0  0  0
   59.9520   28.8710   44.8340 C   0  0  0  0  0  0  0  0  0  0  0  0
   59.3540   27.5760   45.2580 C   0  0  0  0  0  0  0  0  0  0  0  0
   57.9400   27.6380   45.7350 C   0  0  0  0  0  0  0  0  0  0  0  0
   58.7640   33.7260   44.5440 C   0  0  0  0  0  0  0  0  0  0  0  0
   59.4760   34.5660   45.3170 N   0  0  0  0  0  0  0  0  0  0  0  0
   59.7284   35.3384   47.2460 H   0  0  0  0  0  0  0  0  0  0  0  0
   56.5739   32.4956   46.8612 H   0  0  0  0  0  0  0  0  0  0  0  0
   54.7640   30.5730   44.0900 H   0  0  0  0  0  0  0  0  0  0  0  0
   55.1490   28.1560   44.8960 H   0  0  0  0  0  0  0  0  0  0  0  0
   59.6363   30.9909   44.8436 H   0  0  0  0  0  0  0  0  0  0  0  0
   59.3241   30.1636   46.4173 H   0  0  0  0  0  0  0  0  0  0  0  0
   59.9683   28.8977   43.7344 H   0  0  0  0  0  0  0  0  0  0  0  0
   60.9560   28.9121   45.2816 H   0  0  0  0  0  0  0  0  0  0  0  0
   59.3905   26.8901   44.3988 H   0  0  0  0  0  0  0  0  0  0  0  0
   59.9465   27.2423   46.1226 H   0  0  0  0  0  0  0  0  0  0  0  0
   57.4351   26.7086   45.4328 H   0  0  0  0  0  0  0  0  0  0  0  0
   57.9850   27.7701   46.8261 H   0  0  0  0  0  0  0  0  0  0  0  0
   59.0017   33.6234   43.4749 H   0  0  0  0  0  0  0  0  0  0  0  0
  1  2  2  0
  2  3  1  0
  3  4  2  0
  4  5  1  0
  5  6  2  0
  6  7  1  0
  7  8  1  0
  8  9  1  0
  9 10  2  0
 10 11  1  0
 11 12  1  0
 12 13  1  0
 13 14  1  0
  4 15  1  0
 15 16  2  0
 16  1  1  0
 10  6  1  0
 14  9  1  0
  1 17  1  0
  3 18  1  0
  7 19  1  0
  8 20  1  0
 11 21  1  0
 11 22  1  0
 12 23  1  0
 12 24  1  0
 13 25  1  0
 13 26  1  0
 14 27  1  0
 14 28  1  0
 15 29  1  0
M  END
>  <smiles>  (8) 
c1ncc(N=c2[nH][nH]c3c2CCCC3)cn1

>  <score_type>  (8) 
oracle

>  <origin>  (8) 
adg

>  <m_score__min__energy>  (8) 
-6.9800000000000004

>  <m_primary>  (8) 
energy

$$$$
8:0
     RDKit          3D

 49 51  0  0  1  0  0  0  0  0999 V2000
   58.0580   27.5570   45.0170 C   0  0  0  0  0  0  0  0  0  0  0  0
   59.1220   27.9960   44.2670 C   0  0  0  0  0  0  0  0  0  0  0  0
   59.9230   28.9740   44.8610 C   0  0  0  0  0  0  0  0  0  0  0  0
   59.6400   29.4540   46.1270 C   0  0  0  0  0  0  0  0  0  0  0  0
   60.4990   30.5060   46.7770 C   0  0  0  0  0  0  0  0  0  0  0  0
   59.9560   30.7340   48.1530 C   0  0  0  0  0  0  0  0  0  0  0  0
   60.3550   32.0920   48.6830 C   0  0  0  0  0  0  0  0  0  0  0  0
   59.3140   33.1440   48.5200 C   0  0  0  0  0  0  0  0  0  0  0  0
   59.0380   33.3950   47.1490 N   0  0  0  0  0  0  0  0  0  0  0  0
   59.2720   34.7740   46.8540 C   0  0  0  0  0  0  0  0  0  0  0  0
   59.2760   34.9300   45.3330 C   0  0  0  0  0  0  0  0  0  0  0  0
   57.8600   34.5970   44.9020 C   0  0  0  0  0  0  0  0  0  0  0  0
   57.5390   33.1750   45.2490 C   0  0  1  0  0  0  0  0  0  0  0  0
   58.2070   32.1620   44.3680 C   0  0  0  0  0  0  0  0  0  0  0  0
   57.1840   31.1510   43.9900 C   0  0  0  0  0  0  0  0  0  0  0  0
   56.9260   30.5940   42.7560 C   0  0  0  0  0  0  0  0  0  0  0  0
   55.8920   29.7140   42.8840 N   0  0  0  0  0  0  0  0  0  0  0  0
   55.5410   29.7490   44.1870 C   0  0  0  0  0  0  0  0  0  0  0  0
   56.3150   30.6110   44.8610 N   0  0  0  0  0  0  0  0  0  0  0  0
   57.8170   32.8370   46.6820 C   0  0  0  0  0  0  0  0  0  0  0  0
   58.5620   28.9860   46.8490 C   0  0  0  0  0  0  0  0  0  0  0  0
   57.7590   28.0190   46.2790 C   0  0  0  0  0  0  0  0  0  0  0  0
   57.4034   26.7876   44.5816 H   0  0  0  0  0  0  0  0  0  0  0  0
   59.3302   27.6019   43.2614 H   0  0  0  0  0  0  0  0  0  0  0  0
   60.7919   29.3684   44.3138 H   0  0  0  0  0  0  0  0  0  0  0  0
   61.5408   30.1580   46.8360 H   0  0  0  0  0  0  0  0  0  0  0  0
   60.4841   31.4377   46.1924 H   0  0  0  0  0  0  0  0  0  0  0  0
   58.8583   30.6706   48.1200 H   0  0  0  0  0  0  0  0  0  0  0  0
   60.3704   29.9650   48.8215 H   0  0  0  0  0  0  0  0  0  0  0  0
   60.5778   31.9913   49.7555 H   0  0  0  0  0  0  0  0  0  0  0  0
   61.2254   32.4165   48.0938 H   0  0  0  0  0  0  0  0  0  0  0  0
   58.3898   32.8123   49.0158 H   0  0  0  0  0  0  0  0  0  0  0  0
   59.6889   34.0738   48.9726 H   0  0  0  0  0  0  0  0  0  0  0  0
   58.4738   35.3914   47.2918 H   0  0  0  0  0  0  0  0  0  0  0  0
   60.2333   35.1007   47.2773 H   0  0  0  0  0  0  0  0  0  0  0  0
   59.5340   35.9613   45.0505 H   0  0  0  0  0  0  0  0  0  0  0  0
   60.0193   34.2772   44.8520 H   0  0  0  0  0  0  0  0  0  0  0  0
   57.1555   35.2657   45.4181 H   0  0  0  0  0  0  0  0  0  0  0  0
   57.7731   34.7313   43.8137 H   0  0  0  0  0  0  0  0  0  0  0  0
   56.4549   33.1137   45.0729 H   0  0  0  0  0  0  0  0  0  0  0  0
   58.6017   32.6518   43.4656 H   0  0  0  0  0  0  0  0  0  0  0  0
   59.0459   31.6844   44.8955 H   0  0  0  0  0  0  0  0  0  0  0  0
   57.4640   30.8212   41.8239 H   0  0  0  0  0  0  0  0  0  0  0  0
   55.4480   29.1240   42.1450 H   0  0  0  0  0  0  0  0  0  0  0  0
   54.7318   29.1527   44.6338 H   0  0  0  0  0  0  0  0  0  0  0  0
   56.9938   33.2232   47.3010 H   0  0  0  0  0  0  0  0  0  0  0  0
   57.9015   31.7427   46.7555 H   0  0  0  0  0  0  0  0  0  0  0  0
   58.3473   29.3744   47.8555 H   0  0  0  0  0  0  0  0  0  0  0  0
   56.8910   27.6224   46.8261 H   0  0  0  0  0  0  0  0  0  0  0  0
  1  2  2  0
  2  3  1  0
  3  4  2  0
  4  5  1  0
  5  6  1  0
  6  7  1  0
  7  8  1  0
  8  9  1  0
  9 10  1  0
 10 11  1  0
 11 12  1  0
 12 13  1  0
 13 14  1  0
 14 15  1  0
 15 16  2  0
 16 17  1  0
 17 18  1  0
 18 19  2  0
 13 20  1  0
  4 21  1  0
 21 22  2  0
 22  1  1  0
 20  9  1  0
 19 15  1  0
  1 23  1  0
  2 24  1  0
  3 25  1  0
  5 26  1  0
  5 27  1  0
  6 28  1  0
  6 29  1  0
  7 30  1  0
  7 31  1  0
  8 32  1  0
  8 33  1  0
 10 34  1  0
 10 35  1  0
 11 36  1  0
 11 37  1  0
 12 38  1  0
 12 39  1  0
 13 40  1  1
 14 41  1  0
 14 42  1  0
 16 43  1  0
 17 44  1  0
 18 45  1  0
 20 46  1  0
 20 47  1  0
 21 48  1  0
 22 49  1  0
M  END
>  <smiles>  (9) 
c1ccc(CCCCN2CCCC(Cc3c[nH]cn3)C2)cc1

>  <score_type>  (9) 
oracle

>  <origin>  (9) 
adg

>  <m_score__min__energy>  (9) 
-7.9400000000000004

>  <m_primary>  (9) 
energy

$$$$
9:0
     RDKit          3D

 49 51  0  0  0  0  0  0  0  0999 V2000
   64.1350   29.6590   51.9560 C   0  0  0  0  0  0  0  0  0  0  0  0
   64.5220   30.8380   51.1120 C   0  0  0  0  0  0  0  0  0  0  0  0
   65.8730   31.1480   50.9090 C   0  0  0  0  0  0  0  0  0  0  0  0
   66.2320   32.2710   50.1600 C   0  0  0  0  0  0  0  0  0  0  0  0
   65.2470   33.0960   49.6150 C   0  0  0  0  0  0  0  0  0  0  0  0
   63.8850   32.8020   49.8090 C   0  0  0  0  0  0  0  0  0  0  0  0
   62.8290   33.6860   49.2600 C   0  0  0  0  0  0  0  0  0  0  0  0
   62.8420   34.9110   49.5620 O   0  0  0  0  0  0  0  0  0  0  0  0
   61.7570   33.1820   48.3660 C   0  0  0  0  0  0  0  0  0  0  0  0
   61.7790   31.8690   47.8740 C   0  0  0  0  0  0  0  0  0  0  0  0
   60.7750   31.4140   47.0770 N   0  0  0  0  0  0  0  0  0  0  0  0
   59.7140   32.1980   46.7350 C   0  0  0  0  0  0  0  0  0  0  0  0
   58.6770   31.6520   45.9050 N   0  0  0  0  0  0  0  0  0  0  0  0
   58.3740   32.2950   44.6210 C   0  0  0  0  0  0  0  0  0  0  0  0
   57.0930   31.7200   44.0070 C   0  0  0  0  0  0  0  0  0  0  0  0
   57.1560   30.1780   43.8770 C   0  0  0  0  0  0  0  0  0  0  0  0
   55.7500   29.5920   43.6470 C   0  0  0  0  0  0  0  0  0  0  0  0
   55.1660   29.2050   44.8630 O   0  0  0  0  0  0  0  0  0  0  0  0
   57.8520   29.4930   45.0900 C   0  0  0  0  0  0  0  0  0  0  0  0
   57.9840   30.4200   46.3010 C   0  0  0  0  0  0  0  0  0  0  0  0
   59.6510   33.5290   47.1970 C   0  0  0  0  0  0  0  0  0  0  0  0
   58.5080   34.4370   46.8320 C   0  0  0  0  0  0  0  0  0  0  0  0
   60.6710   34.0020   48.0340 C   0  0  0  0  0  0  0  0  0  0  0  0
   63.5310   31.6800   50.5790 C   0  0  0  0  0  0  0  0  0  0  0  0
   64.2224   29.9251   53.0197 H   0  0  0  0  0  0  0  0  0  0  0  0
   63.0961   29.3740   51.7334 H   0  0  0  0  0  0  0  0  0  0  0  0
   64.8028   28.8137   51.7334 H   0  0  0  0  0  0  0  0  0  0  0  0
   66.6538   30.5048   51.3410 H   0  0  0  0  0  0  0  0  0  0  0  0
   67.2945   32.5059   49.9992 H   0  0  0  0  0  0  0  0  0  0  0  0
   65.5373   33.9813   49.0303 H   0  0  0  0  0  0  0  0  0  0  0  0
   62.6142   31.2022   48.1345 H   0  0  0  0  0  0  0  0  0  0  0  0
   60.8170   30.4270   46.7390 H   0  0  0  0  0  0  0  0  0  0  0  0
   58.2422   33.3752   44.7820 H   0  0  0  0  0  0  0  0  0  0  0  0
   59.2087   32.1071   43.9296 H   0  0  0  0  0  0  0  0  0  0  0  0
   56.2401   31.9882   44.6478 H   0  0  0  0  0  0  0  0  0  0  0  0
   56.9794   32.1426   42.9978 H   0  0  0  0  0  0  0  0  0  0  0  0
   57.7802   29.9618   42.9974 H   0  0  0  0  0  0  0  0  0  0  0  0
   55.1160   30.3530   43.1686 H   0  0  0  0  0  0  0  0  0  0  0  0
   55.8388   28.7061   43.0010 H   0  0  0  0  0  0  0  0  0  0  0  0
   55.1430   28.2120   44.8700 H   0  0  0  0  0  0  0  0  0  0  0  0
   57.2602   28.6135   45.3838 H   0  0  0  0  0  0  0  0  0  0  0  0
   58.8683   29.2149   44.7742 H   0  0  0  0  0  0  0  0  0  0  0  0
   56.9827   30.6695   46.6819 H   0  0  0  0  0  0  0  0  0  0  0  0
   58.5615   29.9129   47.0879 H   0  0  0  0  0  0  0  0  0  0  0  0
   58.0325   34.8147   47.7492 H   0  0  0  0  0  0  0  0  0  0  0  0
   58.8866   35.2833   46.2400 H   0  0  0  0  0  0  0  0  0  0  0  0
   57.7693   33.8768   46.2400 H   0  0  0  0  0  0  0  0  0  0  0  0
   60.6182   35.0256   48.4334 H   0  0  0  0  0  0  0  0  0  0  0  0
   62.4696   31.4595   50.7657 H   0  0  0  0  0  0  0  0  0  0  0  0
  1  2  1  0
  2  3  2  0
  3  4  1  0
  4  5  2  0
  5  6  1  0
  6  7  1  0
  7  8  2  0
  7  9  1  0
  9 10  2  0
 10 11  1  0
 11 12  2  0
 12 13  1  0
 13 14  1  0
 14 15  1  0
 15 16  1  0
 16 17  1  0
 17 18  1  0
 16 19  1  0
 19 20  1  0
 12 21  1  0
 21 22  1  0
 21 23  2  0
  6 24  2  0
 24  2  1  0
 23  9  1  0
 20 13  1  0
  1 25  1  0
  1 26  1  0
  1 27  1  0
  3 28  1  0
  4 29  1  0
  5 30  1  0
 10 31  1  0
 11 32  1  0
 14 33  1  0
 14 34  1  0
 15 35  1  0
 15 36  1  0
 16 37  1  0
 17 38  1  0
 17 39  1  0
 18 40  1  0
 19 41  1  0
 19 42  1  0
 20 43  1  0
 20 44  1  0
 22 45  1  0
 22 46  1  0
 22 47  1  0
 23 48  1  0
 24 49  1  0
M  CHG  1  11   1
M  END
>  <UniqueID>  (10) 
5

>  <SMILES>  (10) 
Cc1cccc(C(=O)c2c[nH+]c(N3CCC(CO)CC3)c(C)c2)c1

>  <Energy>  (10) 
60.93848428446228

>  <Genealogy>  (10) 
Cc1cccc(C(=O)c2c[nH+]c(N3CCC(CO)CC3)c(C)c2)c1 (protonated)
Cc1cccc(C(=O)c2c[nH+]c(N3CCC(CO)CC3)c(C)c2)c1 (3D coordinates assigned)
Cc1cccc(C(=O)c2c[nH+]c(N3CCC(CO)CC3)c(C)c2)c1 (nonaromatic ring conformer: 60.93848428446228 kcal/mol)

>  <smiles>  (10) 
Cc1cccc(C(=O)c2cnc(N3CCC(CO)CC3)c(C)c2)c1

>  <score_type>  (10) 
oracle

>  <origin>  (10) 
adg

>  <m_score__min__energy>  (10) 
-7.04

>  <m_primary>  (10) 
energy

$$$$
10:0
     RDKit          3D

 30 32  0  0  0  0  0  0  0  0999 V2000
   54.4180   30.6010   44.8790 H   0  0  0  0  0  0  0  0  0  0  0  0
   55.2260   30.3650   44.2640 N   0  0  0  0  0  0  0  0  0  0  0  0
   56.2200   29.6330   44.6580 C   0  0  0  0  0  0  0  0  0  0  0  0
   56.0430   28.4260   45.2460 N   0  0  0  0  0  0  0  0  0  0  0  0
   55.1440   27.9380   45.4570 H   0  0  0  0  0  0  0  0  0  0  0  0
   57.2920   27.9960   45.4850 C   0  0  0  0  0  0  0  0  0  0  0  0
   57.6880   26.7960   46.0690 C   0  0  0  0  0  0  0  0  0  0  0  0
   56.9475   26.0586   46.4123 H   0  0  0  0  0  0  0  0  0  0  0  0
   59.0680   26.5590   46.2050 C   0  0  0  0  0  0  0  0  0  0  0  0
   59.4192   25.6222   46.6621 H   0  0  0  0  0  0  0  0  0  0  0  0
   60.0060   27.5170   45.7580 C   0  0  0  0  0  0  0  0  0  0  0  0
   61.0824   27.3203   45.8704 H   0  0  0  0  0  0  0  0  0  0  0  0
   59.5740   28.7210   45.1700 C   0  0  0  0  0  0  0  0  0  0  0  0
   60.2954   29.4723   44.8163 H   0  0  0  0  0  0  0  0  0  0  0  0
   58.1960   28.9290   45.0510 C   0  0  0  0  0  0  0  0  0  0  0  0
   57.5310   29.9820   44.5260 N   0  0  0  0  0  0  0  0  0  0  0  0
   58.0950   31.1780   43.8890 C   0  0  0  0  0  0  0  0  0  0  0  0
   59.0767   30.9306   43.4589 H   0  0  0  0  0  0  0  0  0  0  0  0
   57.4101   31.5173   43.0979 H   0  0  0  0  0  0  0  0  0  0  0  0
   58.2600   32.2830   44.8990 C   0  0  0  0  0  0  0  0  0  0  0  0
   58.0510   32.0280   46.2650 C   0  0  0  0  0  0  0  0  0  0  0  0
   57.7570   31.0207   46.5951 H   0  0  0  0  0  0  0  0  0  0  0  0
   58.2150   33.0490   47.2070 C   0  0  0  0  0  0  0  0  0  0  0  0
   58.0502   32.8433   48.2750 H   0  0  0  0  0  0  0  0  0  0  0  0
   58.5880   34.3300   46.7920 C   0  0  0  0  0  0  0  0  0  0  0  0
   58.7180   35.1316   47.5339 H   0  0  0  0  0  0  0  0  0  0  0  0
   58.7960   34.5940   45.4360 C   0  0  0  0  0  0  0  0  0  0  0  0
   59.0889   35.6033   45.1113 H   0  0  0  0  0  0  0  0  0  0  0  0
   58.6320   33.5750   44.4900 C   0  0  0  0  0  0  0  0  0  0  0  0
   58.7949   33.7864   43.4229 H   0  0  0  0  0  0  0  0  0  0  0  0
  1  2  1  0
  2  3  2  0
  3  4  1  0
  4  5  1  0
  4  6  1  0
  6  7  2  0
  7  8  1  0
  7  9  1  0
  9 10  1  0
  9 11  2  0
 11 12  1  0
 11 13  1  0
 13 14  1  0
 13 15  2  0
 15 16  1  0
 16 17  1  0
 17 18  1  0
 17 19  1  0
 17 20  1  0
 20 21  2  0
 21 22  1  0
 21 23  1  0
 23 24  1  0
 23 25  2  0
 25 26  1  0
 25 27  1  0
 27 28  1  0
 27 29  2  0
 29 30  1  0
 16  3  1  0
 29 20  1  0
 15  6  1  0
M  END
>  <UniqueID>  (11) 
6

>  <SMILES>  (11) 
[H]/N=c1/[nH]c2ccccc2n1Cc1ccccc1

>  <Energy>  (11) 
72.09522783383456

>  <Genealogy>  (11) 
[H]/N=c1/[nH]c2ccccc2n1Cc1ccccc1 (cis-trans isomerization)
[H]/N=c1/[nH]c2ccccc2n1Cc1ccccc1 (3D coordinates assigned)
[H]/N=c1/[nH]c2ccccc2n1Cc1ccccc1 (optimized conformer: 72.09522783383456 kcal/mol)

>  <smiles>  (11) 
N=c1[nH]c2ccccc2n1Cc1ccccc1

>  <score_type>  (11) 
oracle

>  <origin>  (11) 
adg

>  <m_score__min__energy>  (11) 
-7.1200000000000001

>  <m_primary>  (11) 
energy

$$$$
11:0
     RDKit          3D

 30 31  0  0  0  0  0  0  0  0999 V2000
   55.1430   29.1990   44.8890 O   0  0  0  0  0  0  0  0  0  0  0  0
   56.2800   29.7250   44.7480 C   0  0  0  0  0  0  0  0  0  0  0  0
   56.3940   31.1310   44.5200 N   0  0  0  0  0  0  0  0  0  0  0  0
   57.9020   31.8910   44.1370 S   0  0  0  0  0  0  0  0  0  0  0  0
   58.8940   30.8320   43.7440 O   0  0  0  0  0  0  0  0  0  0  0  0
   57.7030   32.8320   42.9830 O   0  0  0  0  0  0  0  0  0  0  0  0
   58.4860   32.7990   45.5270 C   0  0  0  0  0  0  0  0  0  0  0  0
   58.3850   32.2630   46.8190 C   0  0  0  0  0  0  0  0  0  0  0  0
   58.8520   32.9890   47.9200 C   0  0  0  0  0  0  0  0  0  0  0  0
   59.4230   34.2520   47.7350 C   0  0  0  0  0  0  0  0  0  0  0  0
   59.8750   34.9560   48.8020 F   0  0  0  0  0  0  0  0  0  0  0  0
   59.5300   34.7880   46.4470 C   0  0  0  0  0  0  0  0  0  0  0  0
   59.0660   34.0630   45.3460 C   0  0  0  0  0  0  0  0  0  0  0  0
   57.4660   28.9200   44.7680 N   0  0  0  0  0  0  0  0  0  0  0  0
   57.4970   27.5350   45.1560 C   0  0  0  0  0  0  0  0  0  0  0  0
   57.2860   27.1390   46.4900 C   0  0  0  0  0  0  0  0  0  0  0  0
   57.3460   25.7860   46.8420 C   0  0  0  0  0  0  0  0  0  0  0  0
   57.6290   24.8220   45.8720 C   0  0  0  0  0  0  0  0  0  0  0  0
   57.8620   25.2080   44.5500 C   0  0  0  0  0  0  0  0  0  0  0  0
   57.8040   26.5580   44.1940 C   0  0  0  0  0  0  0  0  0  0  0  0
   57.9374   31.2692   46.9671 H   0  0  0  0  0  0  0  0  0  0  0  0
   58.7699   32.5659   48.9321 H   0  0  0  0  0  0  0  0  0  0  0  0
   59.9798   35.7811   46.3008 H   0  0  0  0  0  0  0  0  0  0  0  0
   59.1560   34.4851   44.3342 H   0  0  0  0  0  0  0  0  0  0  0  0
   58.3420   29.3470   44.3920 H   0  0  0  0  0  0  0  0  0  0  0  0
   57.0731   27.8962   47.2590 H   0  0  0  0  0  0  0  0  0  0  0  0
   57.1700   25.4813   47.8842 H   0  0  0  0  0  0  0  0  0  0  0  0
   57.6684   23.7582   46.1492 H   0  0  0  0  0  0  0  0  0  0  0  0
   58.0914   24.4484   43.7882 H   0  0  0  0  0  0  0  0  0  0  0  0
   57.9999   26.8578   43.1539 H   0  0  0  0  0  0  0  0  0  0  0  0
  1  2  2  0
  2  3  1  0
  3  4  1  0
  4  5  2  0
  4  6  2  0
  4  7  1  0
  7  8  2  0
  8  9  1  0
  9 10  2  0
 10 11  1  0
 10 12  1  0
 12 13  2  0
  2 14  1  0
 14 15  1  0
 15 16  2  0
 16 17  1  0
 17 18  2  0
 18 19  1  0
 19 20  2  0
 13  7  1  0
 20 15  1  0
  8 21  1  0
  9 22  1  0
 12 23  1  0
 13 24  1  0
 14 25  1  0
 16 26  1  0
 17 27  1  0
 18 28  1  0
 19 29  1  0
 20 30  1  0
M  CHG  1   3  -1
M  END
>  <UniqueID>  (12) 
7

>  <SMILES>  (12) 
O=C([N-]S(=O)(=O)c1ccc(F)cc1)Nc1ccccc1

>  <Energy>  (12) 
35.7711215165151

>  <Genealogy>  (12) 
O=C([N-]S(=O)(=O)c1ccc(F)cc1)Nc1ccccc1 (protonated)
O=C([N-]S(=O)(=O)c1ccc(F)cc1)Nc1ccccc1 (3D coordinates assigned)
O=C([N-]S(=O)(=O)c1ccc(F)cc1)Nc1ccccc1 (optimized conformer: 35.7711215165151 kcal/mol)

>  <smiles>  (12) 
O=C(Nc1ccccc1)NS(=O)(=O)c1ccc(F)cc1

>  <score_type>  (12) 
oracle

>  <origin>  (12) 
adg

>  <m_score__min__energy>  (12) 
-8.6199999999999992

>  <m_primary>  (12) 
energy

$$$$
12:0
     RDKit          3D

 36 37  0  0  0  0  0  0  0  0999 V2000
   57.4280   31.9660   41.8990 C   0  0  0  0  0  0  0  0  0  0  0  0
   56.7050   30.9310   42.3240 C   0  0  0  0  0  0  0  0  0  0  0  0
   56.7920   30.3730   43.6890 C   0  0  0  0  0  0  0  0  0  0  0  0
   55.8610   30.6310   44.4990 O   0  0  0  0  0  0  0  0  0  0  0  0
   57.8840   29.5350   44.1030 N   0  0  0  0  0  0  0  0  0  0  0  0
   58.0270   29.1180   45.4980 C   0  0  0  0  0  0  0  0  0  0  0  0
   59.3360   29.6560   46.0980 C   0  0  0  0  0  0  0  0  0  0  0  0
   59.4100   31.1650   46.3150 C   0  0  0  0  0  0  0  0  0  0  0  0
   58.3190   32.0080   46.0010 C   0  0  0  0  0  0  0  0  0  0  0  0
   58.3920   33.3840   46.2010 C   0  0  0  0  0  0  0  0  0  0  0  0
   59.5480   33.9610   46.7150 C   0  0  0  0  0  0  0  0  0  0  0  0
   60.6510   33.1640   47.0390 C   0  0  0  0  0  0  0  0  0  0  0  0
   61.8110   33.7590   47.5590 C   0  0  0  0  0  0  0  0  0  0  0  0
   62.9260   32.9850   47.8910 C   0  0  0  0  0  0  0  0  0  0  0  0
   64.0570   33.6350   48.4060 O   0  0  0  0  0  0  0  0  0  0  0  0
   64.9070   33.0940   49.4130 C   0  0  0  0  0  0  0  0  0  0  0  0
   62.8780   31.5960   47.7000 C   0  0  0  0  0  0  0  0  0  0  0  0
   61.7300   30.9890   47.1840 C   0  0  0  0  0  0  0  0  0  0  0  0
   60.5950   31.7570   46.8430 C   0  0  0  0  0  0  0  0  0  0  0  0
   57.3128   32.3308   40.8677 H   0  0  0  0  0  0  0  0  0  0  0  0
   58.1402   32.4558   42.5794 H   0  0  0  0  0  0  0  0  0  0  0  0
   56.0025   30.4648   41.6175 H   0  0  0  0  0  0  0  0  0  0  0  0
   58.5610   29.1790   43.3930 H   0  0  0  0  0  0  0  0  0  0  0  0
   57.1777   29.5064   46.0792 H   0  0  0  0  0  0  0  0  0  0  0  0
   58.0474   28.0189   45.5367 H   0  0  0  0  0  0  0  0  0  0  0  0
   59.4824   29.1695   47.0736 H   0  0  0  0  0  0  0  0  0  0  0  0
   60.1148   29.4277   45.3555 H   0  0  0  0  0  0  0  0  0  0  0  0
   57.3970   31.5693   45.5918 H   0  0  0  0  0  0  0  0  0  0  0  0
   57.5293   34.0189   45.9507 H   0  0  0  0  0  0  0  0  0  0  0  0
   59.5954   35.0493   46.8676 H   0  0  0  0  0  0  0  0  0  0  0  0
   61.8428   34.8485   47.7071 H   0  0  0  0  0  0  0  0  0  0  0  0
   64.5073   33.3484   50.4057 H   0  0  0  0  0  0  0  0  0  0  0  0
   64.9528   32.0002   49.3054 H   0  0  0  0  0  0  0  0  0  0  0  0
   65.9173   33.5156   49.3054 H   0  0  0  0  0  0  0  0  0  0  0  0
   63.7515   30.9795   47.9586 H   0  0  0  0  0  0  0  0  0  0  0  0
   61.7101   29.8984   47.0415 H   0  0  0  0  0  0  0  0  0  0  0  0
  1  2  2  0
  2  3  1  0
  3  4  2  0
  3  5  1  0
  5  6  1  0
  6  7  1  0
  7  8  1  0
  8  9  2  0
  9 10  1  0
 10 11  2  0
 11 12  1  0
 12 13  2  0
 13 14  1  0
 14 15  1  0
 15 16  1  0
 14 17  2  0
 17 18  1  0
 18 19  2  0
 19  8  1  0
 19 12  1  0
  1 20  1  0
  1 21  1  0
  2 22  1  0
  5 23  1  0
  6 24  1  0
  6 25  1  0
  7 26  1  0
  7 27  1  0
  9 28  1  0
 10 29  1  0
 11 30  1  0
 13 31  1  0
 16 32  1  0
 16 33  1  0
 16 34  1  0
 17 35  1  0
 18 36  1  0
M  END
>  <UniqueID>  (13) 
8

>  <SMILES>  (13) 
C=CC(=O)NCCc1cccc2cc(OC)ccc12

>  <Energy>  (13) 
40.472589049591654

>  <Genealogy>  (13) 
C=CC(=O)NCCc1cccc2cc(OC)ccc12 (3D coordinates assigned)
C=CC(=O)NCCc1cccc2cc(OC)ccc12 (optimized conformer: 40.472589049591654 kcal/mol)

>  <smiles>  (13) 
C=CC(=O)NCCc1cccc2cc(OC)ccc12

>  <score_type>  (13) 
oracle

>  <origin>  (13) 
adg

>  <m_score__min__energy>  (13) 
-7.2300000000000004

>  <m_primary>  (13) 
energy

$$$$
13:0
     RDKit          3D

 26 27  0  0  0  0  0  0  0  0999 V2000
   55.1590   29.3450   44.6530 N   0  0  0  0  0  0  0  0  0  0  0  0
   56.5590   29.3420   44.9330 C   0  0  0  0  0  0  0  0  0  0  0  0
   57.4360   28.5810   44.1550 C   0  0  0  0  0  0  0  0  0  0  0  0
   58.8020   28.5900   44.4500 C   0  0  0  0  0  0  0  0  0  0  0  0
   59.5900   27.8980   43.7500 O   0  0  0  0  0  0  0  0  0  0  0  0
   59.2860   29.3630   45.5210 C   0  0  0  0  0  0  0  0  0  0  0  0
   60.6870   29.3610   45.8380 N   0  0  0  0  0  0  0  0  0  0  0  0
   58.3660   30.1250   46.2730 C   0  0  0  0  0  0  0  0  0  0  0  0
   58.8840   31.1700   47.6380 S   0  0  0  0  0  0  0  0  0  0  0  0
   58.8890   32.6490   46.6250 C   0  0  0  0  0  0  0  0  0  0  0  0
   57.8780   32.8520   45.6770 C   0  0  0  0  0  0  0  0  0  0  0  0
   57.8820   34.0030   44.8830 C   0  0  0  0  0  0  0  0  0  0  0  0
   58.8930   34.9560   45.0380 C   0  0  0  0  0  0  0  0  0  0  0  0
   59.9010   34.7590   45.9870 C   0  0  0  0  0  0  0  0  0  0  0  0
   59.8990   33.6090   46.7820 C   0  0  0  0  0  0  0  0  0  0  0  0
   57.0420   30.0870   45.9610 N   0  0  0  0  0  0  0  0  0  0  0  0
   54.5550   30.1470   44.9450 H   0  0  0  0  0  0  0  0  0  0  0  0
   54.7210   28.5420   44.1520 H   0  0  0  0  0  0  0  0  0  0  0  0
   57.0540   27.9796   43.3169 H   0  0  0  0  0  0  0  0  0  0  0  0
   61.3850   28.8500   45.2550 H   0  0  0  0  0  0  0  0  0  0  0  0
   61.0550   29.8960   46.6560 H   0  0  0  0  0  0  0  0  0  0  0  0
   57.0797   32.1048   45.5570 H   0  0  0  0  0  0  0  0  0  0  0  0
   57.0895   34.1586   44.1362 H   0  0  0  0  0  0  0  0  0  0  0  0
   58.8956   35.8613   44.4131 H   0  0  0  0  0  0  0  0  0  0  0  0
   60.6961   35.5094   46.1081 H   0  0  0  0  0  0  0  0  0  0  0  0
   60.6901   33.4572   47.5311 H   0  0  0  0  0  0  0  0  0  0  0  0
  1  2  1  0
  2  3  2  0
  3  4  1  0
  4  5  2  0
  4  6  1  0
  6  7  1  0
  6  8  2  0
  8  9  1  0
  9 10  1  0
 10 11  2  0
 11 12  1  0
 12 13  2  0
 13 14  1  0
 14 15  2  0
  8 16  1  0
 16  2  1  0
 15 10  1  0
  1 17  1  0
  1 18  1  0
  3 19  1  0
  7 20  1  0
  7 21  1  0
 11 22  1  0
 12 23  1  0
 13 24  1  0
 14 25  1  0
 15 26  1  0
M  CHG  1  16  -1
M  END
>  <UniqueID>  (14) 
9

>  <SMILES>  (14) 
Nc1cc(=O)c(N)c(Sc2ccccc2)[n-]1

>  <Energy>  (14) 
23.17010159206121

>  <Genealogy>  (14) 
Nc1cc(=O)c(N)c(Sc2ccccc2)[n-]1 (protonated)
Nc1cc(=O)c(N)c(Sc2ccccc2)[n-]1 (3D coordinates assigned)
Nc1cc(=O)c(N)c(Sc2ccccc2)[n-]1 (optimized conformer: 23.17010159206121 kcal/mol)

>  <smiles>  (14) 
Nc1cc(=O)c(N)c(Sc2ccccc2)[nH]1

>  <score_type>  (14) 
oracle

>  <origin>  (14) 
adg

>  <m_score__min__energy>  (14) 
-8.1699999999999999

>  <m_primary>  (14) 
energy

$$$$
14:0
     RDKit          3D

 42 45  0  0  0  0  0  0  0  0999 V2000
   59.1020   25.6290   46.1150 C   0  0  0  0  0  0  0  0  0  0  0  0
   58.1230   26.6620   45.7550 N   0  0  0  0  0  0  0  0  0  0  0  0
   56.7740   26.4710   45.9550 C   0  0  0  0  0  0  0  0  0  0  0  0
   56.3450   25.3860   46.4320 O   0  0  0  0  0  0  0  0  0  0  0  0
   55.8800   27.4570   45.6390 N   0  0  0  0  0  0  0  0  0  0  0  0
   56.2820   28.6590   45.1370 C   0  0  0  0  0  0  0  0  0  0  0  0
   55.4280   29.5370   44.8490 O   0  0  0  0  0  0  0  0  0  0  0  0
   57.6490   28.8660   44.9640 C   0  0  0  0  0  0  0  0  0  0  0  0
   58.5260   27.8730   45.2730 C   0  0  0  0  0  0  0  0  0  0  0  0
   59.7920   28.2560   45.0170 N   0  0  0  0  0  0  0  0  0  0  0  0
   59.6350   29.5190   44.5430 C   0  0  0  0  0  0  0  0  0  0  0  0
   58.3410   29.9320   44.5140 N   0  0  0  0  0  0  0  0  0  0  0  0
   57.8550   31.2130   43.9900 C   0  0  0  0  0  0  0  0  0  0  0  0
   57.7860   32.2480   45.0810 C   0  0  0  0  0  0  0  0  0  0  0  0
   56.7220   32.9150   45.2020 O   0  0  0  0  0  0  0  0  0  0  0  0
   58.9300   32.5190   45.9960 C   0  0  0  0  0  0  0  0  0  0  0  0
   59.2340   31.6110   47.0280 C   0  0  0  0  0  0  0  0  0  0  0  0
   60.2980   31.8520   47.9010 C   0  0  0  0  0  0  0  0  0  0  0  0
   61.0870   33.0070   47.7660 C   0  0  0  0  0  0  0  0  0  0  0  0
   62.2160   33.2640   48.6950 C   0  0  0  0  0  0  0  0  0  0  0  0
   63.5090   32.7940   48.3960 C   0  0  0  0  0  0  0  0  0  0  0  0
   64.5710   33.0380   49.2730 C   0  0  0  0  0  0  0  0  0  0  0  0
   64.3560   33.7510   50.4530 C   0  0  0  0  0  0  0  0  0  0  0  0
   63.0790   34.2230   50.7610 C   0  0  0  0  0  0  0  0  0  0  0  0
   62.0130   33.9820   49.8880 C   0  0  0  0  0  0  0  0  0  0  0  0
   60.7880   33.9130   46.7350 C   0  0  0  0  0  0  0  0  0  0  0  0
   59.7260   33.6730   45.8600 C   0  0  0  0  0  0  0  0  0  0  0  0
   59.1716   25.5556   47.2103 H   0  0  0  0  0  0  0  0  0  0  0  0
   58.7821   24.6609   45.7022 H   0  0  0  0  0  0  0  0  0  0  0  0
   60.0859   25.8965   45.7022 H   0  0  0  0  0  0  0  0  0  0  0  0
   60.4755   30.1477   44.2139 H   0  0  0  0  0  0  0  0  0  0  0  0
   58.5397   31.5636   43.2037 H   0  0  0  0  0  0  0  0  0  0  0  0
   56.8445   31.0650   43.5814 H   0  0  0  0  0  0  0  0  0  0  0  0
   58.6271   30.7015   47.1484 H   0  0  0  0  0  0  0  0  0  0  0  0
   60.5201   31.1309   48.7014 H   0  0  0  0  0  0  0  0  0  0  0  0
   63.6851   32.2316   47.4672 H   0  0  0  0  0  0  0  0  0  0  0  0
   65.5781   32.6669   49.0319 H   0  0  0  0  0  0  0  0  0  0  0  0
   65.1932   33.9412   51.1408 H   0  0  0  0  0  0  0  0  0  0  0  0
   62.9108   34.7852   51.6914 H   0  0  0  0  0  0  0  0  0  0  0  0
   61.0088   34.3564   50.1359 H   0  0  0  0  0  0  0  0  0  0  0  0
   61.3968   34.8213   46.6154 H   0  0  0  0  0  0  0  0  0  0  0  0
   59.5092   34.3925   45.0567 H   0  0  0  0  0  0  0  0  0  0  0  0
  1  2  1  0
  2  3  1  0
  3  4  2  0
  3  5  1  0
  5  6  1  0
  6  7  2  0
  6  8  1  0
  8  9  2  0
  9 10  1  0
 10 11  2  0
 11 12  1  0
 12 13  1  0
 13 14  1  0
 14 15  2  0
 14 16  1  0
 16 17  2  0
 17 18  1  0
 18 19  2  0
 19 20  1  0
 20 21  2  0
 21 22  1  0
 22 23  2  0
 23 24  1  0
 24 25  2  0
 19 26  1  0
 26 27  2  0
  9  2  1  0
 27 16  1  0
 12  8  1  0
 25 20  1  0
  1 28  1  0
  1 29  1  0
  1 30  1  0
 11 31  1  0
 13 32  1  0
 13 33  1  0
 17 34  1  0
 18 35  1  0
 21 36  1  0
 22 37  1  0
 23 38  1  0
 24 39  1  0
 25 40  1  0
 26 41  1  0
 27 42  1  0
M  CHG  1   5  -1
M  END
>  <UniqueID>  (15) 
10

>  <SMILES>  (15) 
Cn1c(=O)[n-]c(=O)c2c1ncn2CC(=O)c1ccc(-c2ccccc2)cc1

>  <Energy>  (15) 
96.48218483278063

>  <Genealogy>  (15) 
Cn1c(=O)[n-]c(=O)c2c1ncn2CC(=O)c1ccc(-c2ccccc2)cc1 (protonated)
Cn1c(=O)[n-]c(=O)c2c1ncn2CC(=O)c1ccc(-c2ccccc2)cc1 (3D coordinates assigned)
Cn1c(=O)[n-]c(=O)c2c1ncn2CC(=O)c1ccc(-c2ccccc2)cc1 (optimized conformer: 96.48218483278063 kcal/mol)

>  <smiles>  (15) 
Cn1c(=O)[nH]c(=O)c2c1ncn2CC(=O)c1ccc(-c2ccccc2)cc1

>  <score_type>  (15) 
oracle

>  <origin>  (15) 
adg

>  <m_score__min__energy>  (15) 
-10.15

>  <m_primary>  (15) 
energy

$$$$
15:0
     RDKit          3D

 57 60  0  0  0  0  0  0  0  0999 V2000
   61.1230   30.5080   51.2270 C   0  0  0  0  0  0  0  0  0  0  0  0
   61.8930   30.8900   50.0940 O   0  0  0  0  0  0  0  0  0  0  0  0
   63.2110   31.3720   50.1470 C   0  0  0  0  0  0  0  0  0  0  0  0
   64.1900   30.7630   50.9590 C   0  0  0  0  0  0  0  0  0  0  0  0
   65.4830   31.2850   51.0160 C   0  0  0  0  0  0  0  0  0  0  0  0
   65.8170   32.4150   50.2700 C   0  0  0  0  0  0  0  0  0  0  0  0
   64.8590   33.0240   49.4580 C   0  0  0  0  0  0  0  0  0  0  0  0
   63.5570   32.5060   49.3810 C   0  0  0  0  0  0  0  0  0  0  0  0
   62.5840   33.1540   48.5410 N   0  0  0  0  0  0  0  0  0  0  0  0
   61.7800   34.2680   49.0560 C   0  0  0  0  0  0  0  0  0  0  0  0
   60.3780   34.2460   48.4300 C   0  0  0  0  0  0  0  0  0  0  0  0
   60.3750   34.0900   46.9430 N   0  0  0  0  0  0  0  0  0  0  0  0
   59.6050   35.1560   46.2380 C   0  0  0  0  0  0  0  0  0  0  0  0
   58.7740   34.7130   45.0100 C   0  0  0  0  0  0  0  0  0  0  0  0
   58.3890   33.3050   45.0680 N   0  0  0  0  0  0  0  0  0  0  0  0
   57.8320   32.5860   46.1650 C   0  0  0  0  0  0  0  0  0  0  0  0
   57.7400   33.0500   47.3320 O   0  0  0  0  0  0  0  0  0  0  0  0
   57.3950   31.2740   45.8100 N   0  0  0  0  0  0  0  0  0  0  0  0
   57.5710   31.1800   44.5290 C   0  0  0  0  0  0  0  0  0  0  0  0
   57.4330   29.8940   43.7780 C   0  0  0  0  0  0  0  0  0  0  0  0
   58.2450   28.8280   44.4620 C   0  0  0  0  0  0  0  0  0  0  0  0
   57.6740   27.5800   44.7640 C   0  0  0  0  0  0  0  0  0  0  0  0
   58.4120   26.6160   45.4550 C   0  0  0  0  0  0  0  0  0  0  0  0
   59.7180   26.8950   45.8680 C   0  0  0  0  0  0  0  0  0  0  0  0
   60.2890   28.1380   45.5840 C   0  0  0  0  0  0  0  0  0  0  0  0
   59.5560   29.1030   44.8850 C   0  0  0  0  0  0  0  0  0  0  0  0
   58.1450   32.4100   43.9970 C   0  0  0  0  0  0  0  0  0  0  0  0
   58.3730   32.6640   42.7850 O   0  0  0  0  0  0  0  0  0  0  0  0
   61.7080   33.8390   46.3440 C   0  0  0  0  0  0  0  0  0  0  0  0
   62.4710   32.7690   47.1300 C   0  0  0  0  0  0  0  0  0  0  0  0
   61.6646   30.7767   52.1459 H   0  0  0  0  0  0  0  0  0  0  0  0
   60.1552   31.0305   51.2057 H   0  0  0  0  0  0  0  0  0  0  0  0
   60.9536   29.4213   51.2057 H   0  0  0  0  0  0  0  0  0  0  0  0
   63.9332   29.8719   51.5505 H   0  0  0  0  0  0  0  0  0  0  0  0
   66.2411   30.8037   51.6513 H   0  0  0  0  0  0  0  0  0  0  0  0
   66.8358   32.8265   50.3216 H   0  0  0  0  0  0  0  0  0  0  0  0
   65.1266   33.9169   48.8739 H   0  0  0  0  0  0  0  0  0  0  0  0
   61.6912   34.1770   50.1486 H   0  0  0  0  0  0  0  0  0  0  0  0
   62.2735   35.2161   48.7962 H   0  0  0  0  0  0  0  0  0  0  0  0
   59.8181   33.4058   48.8665 H   0  0  0  0  0  0  0  0  0  0  0  0
   59.9187   35.2216   48.6472 H   0  0  0  0  0  0  0  0  0  0  0  0
   59.8300   33.2110   46.7580 H   0  0  0  0  0  0  0  0  0  0  0  0
   58.9124   35.6041   46.9656 H   0  0  0  0  0  0  0  0  0  0  0  0
   60.3631   35.8473   45.8413 H   0  0  0  0  0  0  0  0  0  0  0  0
   57.8616   35.3257   44.9629 H   0  0  0  0  0  0  0  0  0  0  0  0
   59.4020   34.8492   44.1172 H   0  0  0  0  0  0  0  0  0  0  0  0
   56.3752   29.5929   43.7566 H   0  0  0  0  0  0  0  0  0  0  0  0
   57.7952   30.0285   42.7481 H   0  0  0  0  0  0  0  0  0  0  0  0
   56.6412   27.3612   44.4549 H   0  0  0  0  0  0  0  0  0  0  0  0
   57.9645   25.6354   45.6746 H   0  0  0  0  0  0  0  0  0  0  0  0
   60.2958   26.1363   46.4163 H   0  0  0  0  0  0  0  0  0  0  0  0
   61.3161   28.3582   45.9104 H   0  0  0  0  0  0  0  0  0  0  0  0
   60.0082   30.0814   44.6656 H   0  0  0  0  0  0  0  0  0  0  0  0
   61.5775   33.4983   45.3063 H   0  0  0  0  0  0  0  0  0  0  0  0
   62.2866   34.7741   46.3731 H   0  0  0  0  0  0  0  0  0  0  0  0
   61.9322   31.8127   47.0573 H   0  0  0  0  0  0  0  0  0  0  0  0
   63.4809   32.6672   46.7060 H   0  0  0  0  0  0  0  0  0  0  0  0
  1  2  1  0
  2  3  1  0
  3  4  2  0
  4  5  1  0
  5  6  2  0
  6  7  1  0
  7  8  2  0
  8  9  1  0
  9 10  1  0
 10 11  1  0
 11 12  1  0
 12 13  1  0
 13 14  1  0
 14 15  1  0
 15 16  1  0
 16 17  2  0
 16 18  1  0
 18 19  2  0
 19 20  1  0
 20 21  1  0
 21 22  2  0
 22 23  1  0
 23 24  2  0
 24 25  1  0
 25 26  2  0
 19 27  1  0
 27 28  2  0
 12 29  1  0
 29 30  1  0
  8  3  1  0
 30  9  1  0
 27 15  1  0
 26 21  1  0
  1 31  1  0
  1 32  1  0
  1 33  1  0
  4 34  1  0
  5 35  1  0
  6 36  1  0
  7 37  1  0
 10 38  1  0
 10 39  1  0
 11 40  1  0
 11 41  1  0
 12 42  1  0
 13 43  1  0
 13 44  1  0
 14 45  1  0
 14 46  1  0
 20 47  1  0
 20 48  1  0
 22 49  1  0
 23 50  1  0
 24 51  1  0
 25 52  1  0
 26 53  1  0
 29 54  1  0
 29 55  1  0
 30 56  1  0
 30 57  1  0
M  CHG  1  12   1
M  END
>  <UniqueID>  (16) 
11

>  <SMILES>  (16) 
COc1ccccc1N1CC[NH+](CCN2C(=O)N=C(Cc3ccccc3)C2=O)CC1

>  <Energy>  (16) 
98.0909506081512

>  <Genealogy>  (16) 
COc1ccccc1N1CC[NH+](CCN2C(=O)N=C(Cc3ccccc3)C2=O)CC1 (protonated)
COc1ccccc1N1CC[NH+](CCN2C(=O)N=C(Cc3ccccc3)C2=O)CC1 (3D coordinates assigned)
COc1ccccc1N1CC[NH+](CCN2C(=O)N=C(Cc3ccccc3)C2=O)CC1 (nonaromatic ring conformer: 98.0909506081512 kcal/mol)

>  <smiles>  (16) 
COc1ccccc1N1CCN(CCN2C(=O)N=C(Cc3ccccc3)C2=O)CC1

>  <score_type>  (16) 
oracle

>  <origin>  (16) 
adg

>  <m_score__min__energy>  (16) 
-6.7999999999999998

>  <m_primary>  (16) 
energy

$$$$
16:0
     RDKit          3D

 53 55  0  0  0  0  0  0  0  0999 V2000
   60.1130   29.9020   48.9650 C   0  0  0  0  0  0  0  0  0  0  0  0
   59.3760   30.2320   47.6720 C   0  0  0  0  0  0  0  0  0  0  0  0
   58.2910   29.3280   47.4630 O   0  0  0  0  0  0  0  0  0  0  0  0
   58.3640   28.1030   46.7740 C   0  0  0  0  0  0  0  0  0  0  0  0
   59.3880   27.1630   47.0090 C   0  0  0  0  0  0  0  0  0  0  0  0
   59.4230   25.9640   46.2940 C   0  0  0  0  0  0  0  0  0  0  0  0
   58.4460   25.6910   45.3370 C   0  0  0  0  0  0  0  0  0  0  0  0
   57.4260   26.6130   45.0960 C   0  0  0  0  0  0  0  0  0  0  0  0
   57.3650   27.8110   45.8290 C   0  0  0  0  0  0  0  0  0  0  0  0
   56.3420   28.7850   45.5720 N   0  0  0  0  0  0  0  0  0  0  0  0
   56.2430   29.6310   44.4190 C   0  0  0  0  0  0  0  0  0  0  0  0
   55.1300   29.7370   43.8400 O   0  0  0  0  0  0  0  0  0  0  0  0
   57.4430   30.3550   43.8610 C   0  0  0  0  0  0  0  0  0  0  0  0
   58.0410   31.3400   44.8730 C   0  0  0  0  0  0  0  0  0  0  0  0
   58.3460   32.6270   44.2380 N   0  0  0  0  0  0  0  0  0  0  0  0
   58.2320   33.9350   45.3790 S   0  0  0  0  0  0  0  0  0  0  0  0
   56.8270   34.0430   45.9040 O   0  0  0  0  0  0  0  0  0  0  0  0
   58.5840   35.2220   44.6890 O   0  0  0  0  0  0  0  0  0  0  0  0
   59.3620   33.6700   46.7060 C   0  0  0  0  0  0  0  0  0  0  0  0
   58.9470   33.8070   48.0310 C   0  0  0  0  0  0  0  0  0  0  0  0
   59.8420   33.5730   49.0730 C   0  0  0  0  0  0  0  0  0  0  0  0
   61.1740   33.1960   48.8210 C   0  0  0  0  0  0  0  0  0  0  0  0
   61.6070   33.0790   47.4680 C   0  0  0  0  0  0  0  0  0  0  0  0
   60.6800   33.3010   46.4310 C   0  0  0  0  0  0  0  0  0  0  0  0
   63.0200   32.7110   47.0800 C   0  0  0  0  0  0  0  0  0  0  0  0
   64.0540   33.5070   47.8830 C   0  0  0  0  0  0  0  0  0  0  0  0
   64.4560   32.7750   49.1610 C   0  0  0  0  0  0  0  0  0  0  0  0
   63.2830   32.2640   49.9450 C   0  0  0  0  0  0  0  0  0  0  0  0
   63.4600   31.2870   50.7210 O   0  0  0  0  0  0  0  0  0  0  0  0
   62.0210   32.9420   49.9640 N   0  0  0  0  0  0  0  0  0  0  0  0
   59.4874   30.1821   49.8254 H   0  0  0  0  0  0  0  0  0  0  0  0
   60.3246   28.8232   49.0013 H   0  0  0  0  0  0  0  0  0  0  0  0
   61.0587   30.4626   49.0013 H   0  0  0  0  0  0  0  0  0  0  0  0
   58.9842   31.2581   47.7318 H   0  0  0  0  0  0  0  0  0  0  0  0
   60.0794   30.1395   46.8313 H   0  0  0  0  0  0  0  0  0  0  0  0
   60.1636   27.3752   47.7596 H   0  0  0  0  0  0  0  0  0  0  0  0
   60.2227   25.2335   46.4860 H   0  0  0  0  0  0  0  0  0  0  0  0
   58.4792   24.7481   44.7715 H   0  0  0  0  0  0  0  0  0  0  0  0
   56.6665   26.4012   44.3290 H   0  0  0  0  0  0  0  0  0  0  0  0
   58.2101   29.6147   43.5900 H   0  0  0  0  0  0  0  0  0  0  0  0
   57.1153   30.9284   42.9813 H   0  0  0  0  0  0  0  0  0  0  0  0
   57.3186   31.5026   45.6865 H   0  0  0  0  0  0  0  0  0  0  0  0
   58.9755   30.9135   45.2665 H   0  0  0  0  0  0  0  0  0  0  0  0
   57.9105   34.1005   48.2536 H   0  0  0  0  0  0  0  0  0  0  0  0
   59.5007   33.6852   50.1127 H   0  0  0  0  0  0  0  0  0  0  0  0
   61.0004   33.1815   45.3855 H   0  0  0  0  0  0  0  0  0  0  0  0
   63.1729   31.6378   47.2668 H   0  0  0  0  0  0  0  0  0  0  0  0
   63.1560   32.9491   46.0147 H   0  0  0  0  0  0  0  0  0  0  0  0
   64.9490   33.6588   47.2617 H   0  0  0  0  0  0  0  0  0  0  0  0
   63.6041   34.4704   48.1647 H   0  0  0  0  0  0  0  0  0  0  0  0
   65.0930   31.9206   48.8886 H   0  0  0  0  0  0  0  0  0  0  0  0
   64.9846   33.4986   49.7990 H   0  0  0  0  0  0  0  0  0  0  0  0
   61.5860   33.0330   50.9090 H   0  0  0  0  0  0  0  0  0  0  0  0
  1  2  1  0
  2  3  1  0
  3  4  1  0
  4  5  2  0
  5  6  1  0
  6  7  2  0
  7  8  1  0
  8  9  2  0
  9 10  1  0
 10 11  1  0
 11 12  2  0
 11 13  1  0
 13 14  1  0
 14 15  1  0
 15 16  1  0
 16 17  2  0
 16 18  2  0
 16 19  1  0
 19 20  2  0
 20 21  1  0
 21 22  2  0
 22 23  1  0
 23 24  2  0
 23 25  1  0
 25 26  1  0
 26 27  1  0
 27 28  1  0
 28 29  2  0
 28 30  1  0
  9  4  1  0
 24 19  1  0
 30 22  1  0
  1 31  1  0
  1 32  1  0
  1 33  1  0
  2 34  1  0
  2 35  1  0
  5 36  1  0
  6 37  1  0
  7 38  1  0
  8 39  1  0
 13 40  1  0
 13 41  1  0
 14 42  1  0
 14 43  1  0
 20 44  1  0
 21 45  1  0
 24 46  1  0
 25 47  1  0
 25 48  1  0
 26 49  1  0
 26 50  1  0
 27 51  1  0
 27 52  1  0
 30 53  1  0
M  CHG  2  10  -1  15  -1
M  END
>  <UniqueID>  (17) 
12

>  <SMILES>  (17) 
CCOc1ccccc1[N-]C(=O)CC[N-]S(=O)(=O)c1ccc2c(c1)CCCC(=O)N2

>  <Energy>  (17) 
66.88302520351844

>  <Genealogy>  (17) 
CCOc1ccccc1[N-]C(=O)CC[N-]S(=O)(=O)c1ccc2c(c1)CCCC(=O)N2 (protonated)
CCOc1ccccc1[N-]C(=O)CC[N-]S(=O)(=O)c1ccc2c(c1)CCCC(=O)N2 (3D coordinates assigned)
CCOc1ccccc1[N-]C(=O)CC[N-]S(=O)(=O)c1ccc2c(c1)CCCC(=O)N2 (nonaromatic ring conformer: 66.88302520351844 kcal/mol)

>  <smiles>  (17) 
CCOc1ccccc1NC(=O)CCNS(=O)(=O)c1ccc2c(c1)CCCC(=O)N2

>  <score_type>  (17) 
oracle

>  <origin>  (17) 
adg

>  <m_score__min__energy>  (17) 
-10.640000000000001

>  <m_primary>  (17) 
energy

$$$$
17:0
     RDKit          3D

 36 37  0  0  0  0  0  0  0  0999 V2000
   55.4750   25.3420   45.7390 C   0  0  0  0  0  0  0  0  0  0  0  0
   55.7240   26.7290   45.9250 O   0  0  0  0  0  0  0  0  0  0  0  0
   57.0150   27.2640   45.9790 C   0  0  0  0  0  0  0  0  0  0  0  0
   57.4140   27.8530   47.0210 O   0  0  0  0  0  0  0  0  0  0  0  0
   57.9620   27.1160   44.8120 C   0  0  2  0  0  0  0  0  0  0  0  0
   59.4400   26.9290   45.2420 C   0  0  0  0  0  0  0  0  0  0  0  0
   60.2940   28.1910   45.0510 C   0  0  0  0  0  0  0  0  0  0  0  0
   59.4600   29.4580   45.2470 C   0  0  0  0  0  0  0  0  0  0  0  0
   58.3890   29.5720   44.2280 N   0  0  2  0  0  0  0  0  0  0  0  0
   57.3820   30.5110   44.6870 C   0  0  0  0  0  0  0  0  0  0  0  0
   56.1830   30.1440   44.8170 O   0  0  0  0  0  0  0  0  0  0  0  0
   57.7330   31.8900   45.0850 C   0  0  0  0  0  0  0  0  0  0  0  0
   56.8720   32.9690   45.2080 C   0  0  0  0  0  0  0  0  0  0  0  0
   57.6570   34.0360   45.5880 C   0  0  0  0  0  0  0  0  0  0  0  0
   58.9440   33.5420   45.6760 C   0  0  0  0  0  0  0  0  0  0  0  0
   60.1550   34.3330   46.0370 C   0  0  0  0  0  0  0  0  0  0  0  0
   58.9600   32.2670   45.3670 O   0  0  0  0  0  0  0  0  0  0  0  0
   57.7940   28.2710   43.7960 C   0  0  0  0  0  0  0  0  0  0  0  0
   55.3868   24.8506   46.7192 H   0  0  0  0  0  0  0  0  0  0  0  0
   54.5387   25.2097   45.1769 H   0  0  0  0  0  0  0  0  0  0  0  0
   56.3068   24.8923   45.1769 H   0  0  0  0  0  0  0  0  0  0  0  0
   57.6812   26.1816   44.3040 H   0  0  0  0  0  0  0  0  0  0  0  0
   59.4613   26.6511   46.3061 H   0  0  0  0  0  0  0  0  0  0  0  0
   59.8689   26.1458   44.5997 H   0  0  0  0  0  0  0  0  0  0  0  0
   61.1137   28.1840   45.7845 H   0  0  0  0  0  0  0  0  0  0  0  0
   60.6914   28.1907   44.0253 H   0  0  0  0  0  0  0  0  0  0  0  0
   59.0003   29.4313   46.2460 H   0  0  0  0  0  0  0  0  0  0  0  0
   60.1264   30.3270   45.1431 H   0  0  0  0  0  0  0  0  0  0  0  0
   58.8270   29.9770   43.3680 H   0  0  0  0  0  0  0  0  0  0  0  0
   55.7853   32.9729   45.0374 H   0  0  0  0  0  0  0  0  0  0  0  0
   57.3271   35.0674   45.7812 H   0  0  0  0  0  0  0  0  0  0  0  0
   60.2426   34.3902   47.1320 H   0  0  0  0  0  0  0  0  0  0  0  0
   61.0491   33.8443   45.6227 H   0  0  0  0  0  0  0  0  0  0  0  0
   60.0668   35.3482   45.6227 H   0  0  0  0  0  0  0  0  0  0  0  0
   56.7181   28.4253   43.6269 H   0  0  0  0  0  0  0  0  0  0  0  0
   58.3348   27.9677   42.8874 H   0  0  0  0  0  0  0  0  0  0  0  0
  1  2  1  0
  2  3  1  0
  3  4  2  0
  3  5  1  0
  5  6  1  0
  6  7  1  0
  7  8  1  0
  8  9  1  0
  9 10  1  0
 10 11  2  0
 10 12  1  0
 12 13  2  0
 13 14  1  0
 14 15  2  0
 15 16  1  0
 15 17  1  0
  9 18  1  0
 18  5  1  0
 17 12  1  0
  1 19  1  0
  1 20  1  0
  1 21  1  0
  5 22  1  6
  6 23  1  0
  6 24  1  0
  7 25  1  0
  7 26  1  0
  8 27  1  0
  8 28  1  0
  9 29  1  6
 13 30  1  0
 14 31  1  0
 16 32  1  0
 16 33  1  0
 16 34  1  0
 18 35  1  0
 18 36  1  0
M  CHG  1   9   1
M  END
>  <UniqueID>  (18) 
13

>  <SMILES>  (18) 
COC(=O)[C@@H]1CCC[N@H+](C(=O)c2ccc(C)o2)C1

>  <Energy>  (18) 
69.00513472299008

>  <Genealogy>  (18) 
COC(=O)C1CCC[NH+](C(=O)c2ccc(C)o2)C1 (protonated)
COC(=O)[C@@H]1CCC[N@H+](C(=O)c2ccc(C)o2)C1 (chirality)
COC(=O)[C@@H]1CCC[N@H+](C(=O)c2ccc(C)o2)C1 (3D coordinates assigned)
COC(=O)[C@@H]1CCC[N@H+](C(=O)c2ccc(C)o2)C1 (nonaromatic ring conformer: 69.00513472299008 kcal/mol)

>  <smiles>  (18) 
COC(=O)C1CCCN(C(=O)c2ccc(C)o2)C1

>  <score_type>  (18) 
oracle

>  <origin>  (18) 
adg

>  <m_score__min__energy>  (18) 
-5.6200000000000001

>  <m_primary>  (18) 
energy

$$$$
18:0
     RDKit          3D

 35 37  0  0  0  0  0  0  0  0999 V2000
   56.6400   30.8240   42.6240 C   0  0  0  0  0  0  0  0  0  0  0  0
   56.9880   30.1930   43.9350 C   0  0  0  0  0  0  0  0  0  0  0  0
   56.1020   30.1740   44.8480 O   0  0  0  0  0  0  0  0  0  0  0  0
   58.2850   29.6220   44.1700 N   0  0  0  0  0  0  0  0  0  0  0  0
   58.6230   29.0160   45.4230 C   0  0  0  0  0  0  0  0  0  0  0  0
   58.9230   29.9020   46.4610 C   0  0  0  0  0  0  0  0  0  0  0  0
   59.2600   29.3580   47.7040 C   0  0  0  0  0  0  0  0  0  0  0  0
   59.2870   27.9720   47.8770 C   0  0  0  0  0  0  0  0  0  0  0  0
   58.9890   27.1110   46.8440 C   0  0  0  0  0  0  0  0  0  0  0  0
   59.0120   25.7380   47.0000 O   0  0  0  0  0  0  0  0  0  0  0  0
   58.4120   24.8150   46.1920 C   0  0  0  0  0  0  0  0  0  0  0  0
   59.0310   23.7670   45.5660 C   0  0  0  0  0  0  0  0  0  0  0  0
   58.3300   22.8690   44.7530 C   0  0  0  0  0  0  0  0  0  0  0  0
   56.9720   23.0170   44.5540 C   0  0  0  0  0  0  0  0  0  0  0  0
   56.2100   22.1350   43.7390 N   0  0  0  0  0  0  0  0  0  0  0  0
   55.8150   22.5860   42.6230 O   0  0  0  0  0  0  0  0  0  0  0  0
   55.9040   20.8390   44.1290 O   0  0  0  0  0  0  0  0  0  0  0  0
   56.3410   24.0720   45.1820 C   0  0  0  0  0  0  0  0  0  0  0  0
   55.0080   24.4920   45.1870 C   0  0  0  0  0  0  0  0  0  0  0  0
   54.9350   25.5910   45.9730 N   0  0  0  0  0  0  0  0  0  0  0  0
   56.1450   25.8620   46.4430 N   0  0  0  0  0  0  0  0  0  0  0  0
   57.0360   24.9550   45.9830 C   0  0  0  0  0  0  0  0  0  0  0  0
   58.6530   27.6560   45.6020 C   0  0  0  0  0  0  0  0  0  0  0  0
   56.1158   31.7745   42.8022 H   0  0  0  0  0  0  0  0  0  0  0  0
   57.5606   31.0145   42.0529 H   0  0  0  0  0  0  0  0  0  0  0  0
   55.9877   30.1470   42.0529 H   0  0  0  0  0  0  0  0  0  0  0  0
   59.0050   29.6520   43.3880 H   0  0  0  0  0  0  0  0  0  0  0  0
   58.8950   30.9906   46.3054 H   0  0  0  0  0  0  0  0  0  0  0  0
   59.5041   30.0218   48.5465 H   0  0  0  0  0  0  0  0  0  0  0  0
   59.5525   27.5586   48.8612 H   0  0  0  0  0  0  0  0  0  0  0  0
   60.1129   23.6262   45.7062 H   0  0  0  0  0  0  0  0  0  0  0  0
   58.8653   22.0389   44.2689 H   0  0  0  0  0  0  0  0  0  0  0  0
   54.1729   24.0171   44.6512 H   0  0  0  0  0  0  0  0  0  0  0  0
   56.3130   26.6830   47.0800 H   0  0  0  0  0  0  0  0  0  0  0  0
   58.4106   26.9895   44.7612 H   0  0  0  0  0  0  0  0  0  0  0  0
  1  2  1  0
  2  3  2  0
  2  4  1  0
  4  5  1  0
  5  6  2  0
  6  7  1  0
  7  8  2  0
  8  9  1  0
  9 10  1  0
 10 11  1  0
 11 12  2  0
 12 13  1  0
 13 14  2  0
 14 15  1  0
 15 16  2  0
 15 17  1  0
 14 18  1  0
 18 19  1  0
 19 20  2  0
 20 21  1  0
 21 22  1  0
  9 23  2  0
 23  5  1  0
 22 11  1  0
 22 18  2  0
  1 24  1  0
  1 25  1  0
  1 26  1  0
  4 27  1  0
  6 28  1  0
  7 29  1  0
  8 30  1  0
 12 31  1  0
 13 32  1  0
 19 33  1  0
 21 34  1  0
 23 35  1  0
M  CHG  2  15   1  17  -1
M  END
>  <smiles>  (19) 
CC(=O)Nc1cccc(Oc2ccc([N+](=O)[O-])c3cn[nH]c23)c1

>  <score_type>  (19) 
oracle

>  <origin>  (19) 
adg

>  <m_score__min__energy>  (19) 
-8.3599999999999994

>  <m_primary>  (19) 
energy

$$$$
19:0
     RDKit          3D

 52 55  0  0  0  0  0  0  0  0999 V2000
   57.6740   28.6260   43.7580 C   0  0  0  0  0  0  0  0  0  0  0  0
   56.8730   30.2120   43.7950 S   0  0  0  0  0  0  0  0  0  0  0  0
   56.2630   30.4910   42.4500 O   0  0  0  0  0  0  0  0  0  0  0  0
   55.8020   30.2030   44.8490 O   0  0  0  0  0  0  0  0  0  0  0  0
   58.0470   31.4280   44.1670 N   0  0  0  0  0  0  0  0  0  0  0  0
   58.2120   31.9570   45.4850 C   0  0  0  0  0  0  0  0  0  0  0  0
   57.1960   32.3010   46.1500 O   0  0  0  0  0  0  0  0  0  0  0  0
   59.5740   32.1130   46.0600 C   0  0  0  0  0  0  0  0  0  0  0  0
   60.2650   31.0700   46.5860 C   0  0  0  0  0  0  0  0  0  0  0  0
   59.7780   29.6770   46.4930 C   0  0  0  0  0  0  0  0  0  0  0  0
   58.6460   29.2770   47.2170 C   0  0  0  0  0  0  0  0  0  0  0  0
   58.1940   27.9570   47.1430 C   0  0  0  0  0  0  0  0  0  0  0  0
   58.8710   27.0280   46.3450 C   0  0  0  0  0  0  0  0  0  0  0  0
   58.3030   25.3710   46.2540 Cl  0  0  0  0  0  0  0  0  0  0  0  0
   60.0000   27.4230   45.6190 C   0  0  0  0  0  0  0  0  0  0  0  0
   60.4560   28.7420   45.6940 C   0  0  0  0  0  0  0  0  0  0  0  0
   61.6780   31.2830   47.0960 C   0  0  0  0  0  0  0  0  0  0  0  0
   61.8070   32.6280   47.8760 C   0  0  1  0  0  0  0  0  0  0  0  0
   60.8990   32.7010   49.1510 C   0  0  0  0  0  0  0  0  0  0  0  0
   60.5030   33.9920   49.5890 C   0  0  0  0  0  0  0  0  0  0  0  0
   59.5290   34.1750   50.5640 C   0  0  0  0  0  0  0  0  0  0  0  0
   58.9290   33.0820   51.1650 C   0  0  0  0  0  0  0  0  0  0  0  0
   59.3620   31.7900   50.8640 C   0  0  0  0  0  0  0  0  0  0  0  0
   58.7810   30.7080   51.5440 C   0  0  0  0  0  0  0  0  0  0  0  0
   59.2460   29.4130   51.3370 C   0  0  0  0  0  0  0  0  0  0  0  0
   60.3150   29.1930   50.4780 C   0  0  0  0  0  0  0  0  0  0  0  0
   60.8970   30.2570   49.7850 C   0  0  0  0  0  0  0  0  0  0  0  0
   60.4000   31.5770   49.9040 C   0  0  0  0  0  0  0  0  0  0  0  0
   63.2880   32.9350   48.2400 C   0  0  0  0  0  0  0  0  0  0  0  0
   64.0240   33.1420   47.0850 F   0  0  0  0  0  0  0  0  0  0  0  0
   63.4210   34.0510   49.0390 F   0  0  0  0  0  0  0  0  0  0  0  0
   63.8410   31.8620   48.9180 F   0  0  0  0  0  0  0  0  0  0  0  0
   61.3730   33.6580   46.9100 N   0  0  0  0  0  0  0  0  0  0  0  0
   60.1990   33.4580   46.1100 C   0  0  0  0  0  0  0  0  0  0  0  0
   59.7110   34.4290   45.4720 O   0  0  0  0  0  0  0  0  0  0  0  0
   57.8490   28.2795   44.7872 H   0  0  0  0  0  0  0  0  0  0  0  0
   57.0327   27.9035   43.2319 H   0  0  0  0  0  0  0  0  0  0  0  0
   58.6361   28.7133   43.2319 H   0  0  0  0  0  0  0  0  0  0  0  0
   58.1119   30.0049   47.8454 H   0  0  0  0  0  0  0  0  0  0  0  0
   57.3052   27.6478   47.7125 H   0  0  0  0  0  0  0  0  0  0  0  0
   60.5297   26.6941   44.9880 H   0  0  0  0  0  0  0  0  0  0  0  0
   61.3471   29.0482   45.1264 H   0  0  0  0  0  0  0  0  0  0  0  0
   61.9447   30.4534   47.7673 H   0  0  0  0  0  0  0  0  0  0  0  0
   62.3558   31.3193   46.2304 H   0  0  0  0  0  0  0  0  0  0  0  0
   60.9822   34.8758   49.1426 H   0  0  0  0  0  0  0  0  0  0  0  0
   59.2339   35.1928   50.8591 H   0  0  0  0  0  0  0  0  0  0  0  0
   58.1084   33.2323   51.8820 H   0  0  0  0  0  0  0  0  0  0  0  0
   57.9523   30.8852   52.2454 H   0  0  0  0  0  0  0  0  0  0  0  0
   58.7686   28.5663   51.8520 H   0  0  0  0  0  0  0  0  0  0  0  0
   60.7060   28.1738   50.3425 H   0  0  0  0  0  0  0  0  0  0  0  0
   61.7611   30.0648   49.1320 H   0  0  0  0  0  0  0  0  0  0  0  0
   61.8570   34.5830   46.8580 H   0  0  0  0  0  0  0  0  0  0  0  0
  1  2  1  0
  2  3  2  0
  2  4  2  0
  2  5  1  0
  5  6  1  0
  6  7  2  0
  6  8  1  0
  8  9  2  0
  9 10  1  0
 10 11  2  0
 11 12  1  0
 12 13  2  0
 13 14  1  0
 13 15  1  0
 15 16  2  0
  9 17  1  0
 17 18  1  0
 18 19  1  0
 19 20  2  0
 20 21  1  0
 21 22  2  0
 22 23  1  0
 23 24  2  0
 24 25  1  0
 25 26  2  0
 26 27  1  0
 27 28  2  0
 18 29  1  1
 29 30  1  0
 29 31  1  0
 29 32  1  0
 18 33  1  0
 33 34  1  0
 34 35  2  0
 34  8  1  0
 16 10  1  0
 28 19  1  0
 28 23  1  0
  1 36  1  0
  1 37  1  0
  1 38  1  0
 11 39  1  0
 12 40  1  0
 15 41  1  0
 16 42  1  0
 17 43  1  0
 17 44  1  0
 20 45  1  0
 21 46  1  0
 22 47  1  0
 24 48  1  0
 25 49  1  0
 26 50  1  0
 27 51  1  0
 33 52  1  0
M  CHG  1   5  -1
M  END
>  <UniqueID>  (20) 
14

>  <SMILES>  (20) 
CS(=O)(=O)[N-]C(=O)C1=C(c2ccc(Cl)cc2)C[C@@](c2cccc3ccccc23)(C(F)(F)F)NC1=O

>  <Energy>  (20) 
87.53751238400599

>  <Genealogy>  (20) 
CS(=O)(=O)[N-]C(=O)C1=C(c2ccc(Cl)cc2)CC(c2cccc3ccccc23)(C(F)(F)F)NC1=O (protonated)
CS(=O)(=O)[N-]C(=O)C1=C(c2ccc(Cl)cc2)C[C@@](c2cccc3ccccc23)(C(F)(F)F)NC1=O (chirality)
CS(=O)(=O)[N-]C(=O)C1=C(c2ccc(Cl)cc2)C[C@@](c2cccc3ccccc23)(C(F)(F)F)NC1=O (3D coordinates assigned)
CS(=O)(=O)[N-]C(=O)C1=C(c2ccc(Cl)cc2)C[C@@](c2cccc3ccccc23)(C(F)(F)F)NC1=O (nonaromatic ring conformer: 87.53751238400599 kcal/mol)

>  <smiles>  (20) 
CS(=O)(=O)NC(=O)C1=C(c2ccc(Cl)cc2)CC(c2cccc3ccccc23)(C(F)(F)F)NC1=O

>  <score_type>  (20) 
oracle

>  <origin>  (20) 
adg

>  <m_score__min__energy>  (20) 
-11.09

>  <m_primary>  (20) 
energy

$$$$
20:0
     RDKit          3D

 37 40  0  0  0  0  0  0  0  0999 V2000
   59.6135   35.5697   46.1024 H   0  0  0  0  0  0  0  0  0  0  0  0
   59.1150   34.6310   45.8190 C   0  0  0  0  0  0  0  0  0  0  0  0
   58.4600   33.8680   46.7880 C   0  0  0  0  0  0  0  0  0  0  0  0
   58.4465   34.2036   47.8355 H   0  0  0  0  0  0  0  0  0  0  0  0
   57.8210   32.6770   46.4270 C   0  0  0  0  0  0  0  0  0  0  0  0
   57.3155   32.0741   47.1957 H   0  0  0  0  0  0  0  0  0  0  0  0
   57.8200   32.2450   45.0900 C   0  0  0  0  0  0  0  0  0  0  0  0
   57.1670   31.0120   44.7410 N   0  0  0  0  0  0  0  0  0  0  0  0
   55.8700   30.9040   44.4940 N   0  0  0  0  0  0  0  0  0  0  0  0
   55.6000   29.6650   44.1050 N   0  0  0  0  0  0  0  0  0  0  0  0
   56.7220   28.9630   44.0870 N   0  0  0  0  0  0  0  0  0  0  0  0
   56.8090   27.9650   43.7940 H   0  0  0  0  0  0  0  0  0  0  0  0
   57.6970   29.7970   44.4810 C   0  0  0  0  0  0  0  0  0  0  0  0
   59.4400   29.3650   44.4870 S   0  0  0  0  0  0  0  0  0  0  0  0
   59.1520   27.7120   45.1960 C   0  0  0  0  0  0  0  0  0  0  0  0
   60.1127   27.2685   45.4967 H   0  0  0  0  0  0  0  0  0  0  0  0
   58.6723   27.0670   44.4451 H   0  0  0  0  0  0  0  0  0  0  0  0
   58.2650   27.8360   46.3890 C   0  0  0  0  0  0  0  0  0  0  0  0
   57.0340   27.5880   46.2750 O   0  0  0  0  0  0  0  0  0  0  0  0
   58.8220   28.2830   47.6350 N   0  0  0  0  0  0  0  0  0  0  0  0
   59.4560   29.3990   47.8340 C   0  0  0  0  0  0  0  0  0  0  0  0
   60.5950   29.7540   47.1850 N   0  0  0  0  0  0  0  0  0  0  0  0
   61.0220   30.9720   47.6040 C   0  0  0  0  0  0  0  0  0  0  0  0
   62.1670   31.6140   47.1250 C   0  0  0  0  0  0  0  0  0  0  0  0
   62.7961   31.1400   46.3572 H   0  0  0  0  0  0  0  0  0  0  0  0
   62.4990   32.8780   47.6440 C   0  0  0  0  0  0  0  0  0  0  0  0
   63.3967   33.3995   47.2804 H   0  0  0  0  0  0  0  0  0  0  0  0
   61.6890   33.4810   48.6270 C   0  0  0  0  0  0  0  0  0  0  0  0
   61.9585   34.4700   49.0261 H   0  0  0  0  0  0  0  0  0  0  0  0
   60.5400   32.8270   49.1000 C   0  0  0  0  0  0  0  0  0  0  0  0
   59.9003   33.2895   49.8661 H   0  0  0  0  0  0  0  0  0  0  0  0
   60.2340   31.5760   48.5710 C   0  0  0  0  0  0  0  0  0  0  0  0
   58.9400   30.5710   48.9400 S   0  0  0  0  0  0  0  0  0  0  0  0
   58.4980   33.0130   44.1260 C   0  0  0  0  0  0  0  0  0  0  0  0
   58.5256   32.6759   43.0793 H   0  0  0  0  0  0  0  0  0  0  0  0
   59.1370   34.2020   44.4900 C   0  0  0  0  0  0  0  0  0  0  0  0
   59.6580   34.8007   43.7284 H   0  0  0  0  0  0  0  0  0  0  0  0
  1  2  1  0
  2  3  2  0
  3  4  1  0
  3  5  1  0
  5  6  1  0
  5  7  2  0
  7  8  1  0
  8  9  1  0
  9 10  2  0
 10 11  1  0
 11 12  1  0
 11 13  2  0
 13 14  1  0
 14 15  1  0
 15 16  1  0
 15 17  1  0
 15 18  1  0
 18 19  2  0
 18 20  1  0
 20 21  2  0
 21 22  1  0
 22 23  1  0
 23 24  2  0
 24 25  1  0
 24 26  1  0
 26 27  1  0
 26 28  2  0
 28 29  1  0
 28 30  1  0
 30 31  1  0
 30 32  2  0
 32 33  1  0
  7 34  1  0
 34 35  1  0
 34 36  2  0
 36 37  1  0
 36  2  1  0
 13  8  1  0
 33 21  1  0
 32 23  1  0
M  CHG  2  11   1  22  -1
M  END
>  <UniqueID>  (21) 
15

>  <SMILES>  (21) 
O=C(CSc1[nH+]nnn1-c1ccccc1)/N=c1\[n-]c2ccccc2s1

>  <Energy>  (21) 
119.75645131834658

>  <Genealogy>  (21) 
O=C(CSc1[nH+]nnn1-c1ccccc1)N=c1[n-]c2ccccc2s1 (protonated)
O=C(CSc1[nH+]nnn1-c1ccccc1)/N=c1\[n-]c2ccccc2s1 (cis-trans isomerization)
O=C(CSc1[nH+]nnn1-c1ccccc1)/N=c1\[n-]c2ccccc2s1 (3D coordinates assigned)
O=C(CSc1[nH+]nnn1-c1ccccc1)/N=c1\[n-]c2ccccc2s1 (optimized conformer: 119.75645131834658 kcal/mol)

>  <smiles>  (21) 
O=C(CSc1nnnn1-c1ccccc1)N=c1[nH]c2ccccc2s1

>  <score_type>  (21) 
oracle

>  <origin>  (21) 
adg

>  <m_score__min__energy>  (21) 
-9.3200000000000003

>  <m_primary>  (21) 
energy

$$$$
21:0
     RDKit          3D

 34 35  0  0  0  0  0  0  0  0999 V2000
   59.9110   26.6650   46.0270 C   0  0  0  0  0  0  0  0  0  0  0  0
   59.0990   27.9040   45.7540 C   0  0  0  0  0  0  0  0  0  0  0  0
   59.7640   29.1310   45.5930 C   0  0  0  0  0  0  0  0  0  0  0  0
   59.0470   30.3000   45.3390 C   0  0  0  0  0  0  0  0  0  0  0  0
   57.6550   30.2730   45.2460 C   0  0  0  0  0  0  0  0  0  0  0  0
   56.9620   31.4940   44.9540 N   0  0  0  0  0  0  0  0  0  0  0  0
   57.7020   33.0580   44.8360 S   0  0  0  0  0  0  0  0  0  0  0  0
   58.4160   33.1630   43.5180 O   0  0  0  0  0  0  0  0  0  0  0  0
   56.6360   34.1150   44.9040 O   0  0  0  0  0  0  0  0  0  0  0  0
   58.8250   33.2940   46.1720 C   0  0  0  0  0  0  0  0  0  0  0  0
   58.4490   32.9360   47.4740 C   0  0  0  0  0  0  0  0  0  0  0  0
   59.3480   33.0900   48.5330 C   0  0  0  0  0  0  0  0  0  0  0  0
   60.6260   33.6070   48.2980 C   0  0  0  0  0  0  0  0  0  0  0  0
   61.8560   33.8100   49.7440 Br  0  0  0  0  0  0  0  0  0  0  0  0
   61.0030   33.9730   47.0020 C   0  0  0  0  0  0  0  0  0  0  0  0
   60.1060   33.8180   45.9410 C   0  0  0  0  0  0  0  0  0  0  0  0
   56.9780   29.0560   45.4330 C   0  0  0  0  0  0  0  0  0  0  0  0
   57.6850   27.8700   45.6880 C   0  0  0  0  0  0  0  0  0  0  0  0
   56.7750   26.3620   45.8860 S   0  0  0  0  0  0  0  0  0  0  0  0
   57.0460   25.3420   44.5170 N   0  0  0  0  0  0  0  0  0  0  0  0
   55.3040   26.6510   45.9950 O   0  0  0  0  0  0  0  0  0  0  0  0
   57.2150   25.6590   47.1380 O   0  0  0  0  0  0  0  0  0  0  0  0
   60.0056   26.5206   47.1134 H   0  0  0  0  0  0  0  0  0  0  0  0
   59.4090   25.7925   45.5835 H   0  0  0  0  0  0  0  0  0  0  0  0
   60.9114   26.7771   45.5835 H   0  0  0  0  0  0  0  0  0  0  0  0
   60.8607   29.1701   45.6680 H   0  0  0  0  0  0  0  0  0  0  0  0
   59.5836   31.2517   45.2109 H   0  0  0  0  0  0  0  0  0  0  0  0
   57.4432   32.5326   47.6629 H   0  0  0  0  0  0  0  0  0  0  0  0
   59.0500   32.8042   49.5526 H   0  0  0  0  0  0  0  0  0  0  0  0
   62.0067   34.3834   46.8172 H   0  0  0  0  0  0  0  0  0  0  0  0
   60.4051   34.1075   44.9228 H   0  0  0  0  0  0  0  0  0  0  0  0
   55.8796   29.0321   45.3789 H   0  0  0  0  0  0  0  0  0  0  0  0
   56.6990   25.8570   43.6780 H   0  0  0  0  0  0  0  0  0  0  0  0
   58.0820   25.2480   44.4070 H   0  0  0  0  0  0  0  0  0  0  0  0
  1  2  1  0
  2  3  2  0
  3  4  1  0
  4  5  2  0
  5  6  1  0
  6  7  1  0
  7  8  2  0
  7  9  2  0
  7 10  1  0
 10 11  2  0
 11 12  1  0
 12 13  2  0
 13 14  1  0
 13 15  1  0
 15 16  2  0
  5 17  1  0
 17 18  2  0
 18 19  1  0
 19 20  1  0
 19 21  2  0
 19 22  2  0
 18  2  1  0
 16 10  1  0
  1 23  1  0
  1 24  1  0
  1 25  1  0
  3 26  1  0
  4 27  1  0
 11 28  1  0
 12 29  1  0
 15 30  1  0
 16 31  1  0
 17 32  1  0
 20 33  1  0
 20 34  1  0
M  CHG  1   6  -1
M  END
>  <UniqueID>  (22) 
16

>  <SMILES>  (22) 
Cc1ccc([N-]S(=O)(=O)c2ccc(Br)cc2)cc1S(N)(=O)=O

>  <Energy>  (22) 
36.79619555580388

>  <Genealogy>  (22) 
Cc1ccc([N-]S(=O)(=O)c2ccc(Br)cc2)cc1S(N)(=O)=O (protonated)
Cc1ccc([N-]S(=O)(=O)c2ccc(Br)cc2)cc1S(N)(=O)=O (3D coordinates assigned)
Cc1ccc([N-]S(=O)(=O)c2ccc(Br)cc2)cc1S(N)(=O)=O (optimized conformer: 36.79619555580388 kcal/mol)

>  <smiles>  (22) 
Cc1ccc(NS(=O)(=O)c2ccc(Br)cc2)cc1S(N)(=O)=O

>  <score_type>  (22) 
oracle

>  <origin>  (22) 
adg

>  <m_score__min__energy>  (22) 
-10.029999999999999

>  <m_primary>  (22) 
energy

$$$$
22:0
     RDKit          3D

 48 51  0  0  0  0  0  0  0  0999 V2000
   60.8480   29.1530   45.5340 C   0  0  0  0  0  0  0  0  0  0  0  0
   59.5600   28.4480   45.8380 C   0  0  0  0  0  0  0  0  0  0  0  0
   59.4820   27.3920   46.6710 N   0  0  0  0  0  0  0  0  0  0  0  0
   58.1880   27.0320   46.6870 C   0  0  0  0  0  0  0  0  0  0  0  0
   57.4880   27.8920   45.8660 C   0  0  0  0  0  0  0  0  0  0  0  0
   56.0760   27.8060   45.6140 N   0  0  0  0  0  0  0  0  0  0  0  0
   55.5230   28.6770   44.9100 O   0  0  0  0  0  0  0  0  0  0  0  0
   55.3450   26.7100   45.9990 O   0  0  0  0  0  0  0  0  0  0  0  0
   58.3510   28.7920   45.3260 N   0  0  0  0  0  0  0  0  0  0  0  0
   58.1020   29.8370   44.3220 C   0  0  0  0  0  0  0  0  0  0  0  0
   57.1000   30.8780   44.8280 C   0  0  0  0  0  0  0  0  0  0  0  0
   57.7080   32.5830   44.5580 S   0  0  0  0  0  0  0  0  0  0  0  0
   58.6490   32.6660   46.0780 C   0  0  0  0  0  0  0  0  0  0  0  0
   58.0760   32.8110   47.2900 N   0  0  0  0  0  0  0  0  0  0  0  0
   59.1180   32.8160   48.1420 C   0  0  0  0  0  0  0  0  0  0  0  0
   58.9500   32.8570   49.6100 C   0  0  0  0  0  0  0  0  0  0  0  0
   58.1390   31.9040   50.2460 C   0  0  0  0  0  0  0  0  0  0  0  0
   57.9870   31.9210   51.6360 C   0  0  0  0  0  0  0  0  0  0  0  0
   58.6540   32.8800   52.4020 C   0  0  0  0  0  0  0  0  0  0  0  0
   59.4780   33.8210   51.7790 C   0  0  0  0  0  0  0  0  0  0  0  0
   59.6330   33.8080   50.3890 C   0  0  0  0  0  0  0  0  0  0  0  0
   60.2940   32.6840   47.4170 C   0  0  0  0  0  0  0  0  0  0  0  0
   61.6850   32.7270   47.9160 C   0  0  0  0  0  0  0  0  0  0  0  0
   62.0600   31.9200   49.0040 C   0  0  0  0  0  0  0  0  0  0  0  0
   63.3770   31.9370   49.4760 C   0  0  0  0  0  0  0  0  0  0  0  0
   64.3310   32.7480   48.8570 C   0  0  0  0  0  0  0  0  0  0  0  0
   63.9740   33.5350   47.7600 C   0  0  0  0  0  0  0  0  0  0  0  0
   62.6600   33.5210   47.2860 C   0  0  0  0  0  0  0  0  0  0  0  0
   59.9930   32.5800   46.1100 N   0  0  0  0  0  0  0  0  0  0  0  0
   61.3474   29.4263   46.4752 H   0  0  0  0  0  0  0  0  0  0  0  0
   61.5020   28.4871   44.9519 H   0  0  0  0  0  0  0  0  0  0  0  0
   60.6395   30.0628   44.9519 H   0  0  0  0  0  0  0  0  0  0  0  0
   60.2640   26.9340   47.1910 H   0  0  0  0  0  0  0  0  0  0  0  0
   57.7596   26.1946   47.2573 H   0  0  0  0  0  0  0  0  0  0  0  0
   59.0516   30.3402   44.0875 H   0  0  0  0  0  0  0  0  0  0  0  0
   57.6786   29.3593   43.4262 H   0  0  0  0  0  0  0  0  0  0  0  0
   56.1487   30.7487   44.2910 H   0  0  0  0  0  0  0  0  0  0  0  0
   56.9636   30.7280   45.9091 H   0  0  0  0  0  0  0  0  0  0  0  0
   57.6205   31.1401   49.6480 H   0  0  0  0  0  0  0  0  0  0  0  0
   57.3412   31.1781   52.1270 H   0  0  0  0  0  0  0  0  0  0  0  0
   58.5307   32.8944   53.4950 H   0  0  0  0  0  0  0  0  0  0  0  0
   60.0059   34.5736   52.3831 H   0  0  0  0  0  0  0  0  0  0  0  0
   60.2911   34.5438   49.9037 H   0  0  0  0  0  0  0  0  0  0  0  0
   61.3141   31.2716   49.4869 H   0  0  0  0  0  0  0  0  0  0  0  0
   63.6613   31.3114   50.3350 H   0  0  0  0  0  0  0  0  0  0  0  0
   65.3643   32.7668   49.2339 H   0  0  0  0  0  0  0  0  0  0  0  0
   64.7285   34.1668   47.2685 H   0  0  0  0  0  0  0  0  0  0  0  0
   62.3863   34.1345   46.4150 H   0  0  0  0  0  0  0  0  0  0  0  0
  1  2  1  0
  2  3  2  0
  3  4  1  0
  4  5  2  0
  5  6  1  0
  6  7  2  0
  6  8  1  0
  5  9  1  0
  9 10  1  0
 10 11  1  0
 11 12  1  0
 12 13  1  0
 13 14  2  0
 14 15  1  0
 15 16  1  0
 16 17  2  0
 17 18  1  0
 18 19  2  0
 19 20  1  0
 20 21  2  0
 15 22  2  0
 22 23  1  0
 23 24  2  0
 24 25  1  0
 25 26  2  0
 26 27  1  0
 27 28  2  0
 22 29  1  0
  9  2  1  0
 29 13  1  0
 21 16  1  0
 28 23  1  0
  1 30  1  0
  1 31  1  0
  1 32  1  0
  3 33  1  0
  4 34  1  0
 10 35  1  0
 10 36  1  0
 11 37  1  0
 11 38  1  0
 17 39  1  0
 18 40  1  0
 19 41  1  0
 20 42  1  0
 21 43  1  0
 24 44  1  0
 25 45  1  0
 26 46  1  0
 27 47  1  0
 28 48  1  0
M  CHG  4   3   1   6   1   8  -1  29  -1
M  END
>  <UniqueID>  (23) 
17

>  <SMILES>  (23) 
Cc1[nH+]cc([N+](=O)[O-])n1CCSc1nc(-c2ccccc2)c(-c2ccccc2)[n-]1

>  <Energy>  (23) 
114.43544898183286

>  <Genealogy>  (23) 
Cc1[nH+]cc([N+](=O)[O-])n1CCSc1nc(-c2ccccc2)c(-c2ccccc2)[n-]1 (protonated)
Cc1[nH+]cc([N+](=O)[O-])n1CCSc1nc(-c2ccccc2)c(-c2ccccc2)[n-]1 (3D coordinates assigned)
Cc1[nH+]cc([N+](=O)[O-])n1CCSc1nc(-c2ccccc2)c(-c2ccccc2)[n-]1 (optimized conformer: 114.43544898183286 kcal/mol)

>  <smiles>  (23) 
Cc1ncc([N+](=O)[O-])n1CCSc1nc(-c2ccccc2)c(-c2ccccc2)[nH]1

>  <score_type>  (23) 
oracle

>  <origin>  (23) 
adg

>  <m_score__min__energy>  (23) 
-9.1799999999999997

>  <m_primary>  (23) 
energy

$$$$
23:0
     RDKit          3D

 26 27  0  0  0  0  0  0  0  0999 V2000
   58.3989   26.2348   46.0817 H   0  0  0  0  0  0  0  0  0  0  0  0
   57.7340   27.0270   45.7070 C   0  0  0  0  0  0  0  0  0  0  0  0
   56.3530   27.0750   45.7820 C   0  0  0  0  0  0  0  0  0  0  0  0
   55.5100   26.0810   46.3680 N   0  0  0  0  0  0  0  0  0  0  0  0
   55.8100   24.8470   46.3110 N   0  0  0  0  0  0  0  0  0  0  0  0
   55.6350   24.0910   45.1360 N   0  0  0  0  0  0  0  0  0  0  0  0
   56.6160   23.5560   44.3890 C   0  0  0  0  0  0  0  0  0  0  0  0
   58.0750   23.7010   44.6700 C   0  0  0  0  0  0  0  0  0  0  0  0
   58.2391   23.7173   45.7576 H   0  0  0  0  0  0  0  0  0  0  0  0
   58.6193   22.8525   44.2297 H   0  0  0  0  0  0  0  0  0  0  0  0
   58.4417   24.6400   44.2297 H   0  0  0  0  0  0  0  0  0  0  0  0
   56.1130   22.9100   43.3170 N   0  0  0  0  0  0  0  0  0  0  0  0
   54.7910   23.0210   43.3790 N   0  0  0  0  0  0  0  0  0  0  0  0
   54.5080   23.7370   44.4840 C   0  0  0  0  0  0  0  0  0  0  0  0
   52.9790   24.1130   44.9360 S   0  0  0  0  0  0  0  0  0  0  0  0
   55.8930   28.1780   45.2390 O   0  0  0  0  0  0  0  0  0  0  0  0
   56.9170   28.8750   44.8020 C   0  0  0  0  0  0  0  0  0  0  0  0
   56.7950   30.2020   44.1280 C   0  0  0  0  0  0  0  0  0  0  0  0
   56.7222   30.9939   44.8880 H   0  0  0  0  0  0  0  0  0  0  0  0
   57.6808   30.3770   43.4998 H   0  0  0  0  0  0  0  0  0  0  0  0
   55.8921   30.2125   43.4998 H   0  0  0  0  0  0  0  0  0  0  0  0
   58.0940   28.1910   45.0590 C   0  0  0  0  0  0  0  0  0  0  0  0
   59.4860   28.6540   44.7770 C   0  0  0  0  0  0  0  0  0  0  0  0
   60.0134   28.8294   45.7262 H   0  0  0  0  0  0  0  0  0  0  0  0
   60.0183   27.8845   44.1986 H   0  0  0  0  0  0  0  0  0  0  0  0
   59.4513   29.5890   44.1986 H   0  0  0  0  0  0  0  0  0  0  0  0
  1  2  1  0
  2  3  2  0
  3  4  1  0
  4  5  2  0
  5  6  1  0
  6  7  1  0
  7  8  1  0
  8  9  1  0
  8 10  1  0
  8 11  1  0
  7 12  2  0
 12 13  1  0
 13 14  1  0
 14 15  2  0
  3 16  1  0
 16 17  1  0
 17 18  1  0
 18 19  1  0
 18 20  1  0
 18 21  1  0
 17 22  2  0
 22 23  1  0
 23 24  1  0
 23 25  1  0
 23 26  1  0
 22  2  1  0
 14  6  1  0
M  CHG  1  13  -1
M  END
>  <UniqueID>  (24) 
18

>  <SMILES>  (24) 
Cc1cc(/N=N/n2c(C)n[n-]c2=S)oc1C

>  <Energy>  (24) 
87.20817777351672

>  <Genealogy>  (24) 
Cc1cc(N=Nn2c(C)n[n-]c2=S)oc1C (protonated)
Cc1cc(/N=N/n2c(C)n[n-]c2=S)oc1C (cis-trans isomerization)
Cc1cc(/N=N/n2c(C)n[n-]c2=S)oc1C (3D coordinates assigned)
Cc1cc(/N=N/n2c(C)n[n-]c2=S)oc1C (optimized conformer: 87.20817777351672 kcal/mol)

>  <smiles>  (24) 
Cc1cc(N=Nn2c(C)n[nH]c2=S)oc1C

>  <score_type>  (24) 
oracle

>  <origin>  (24) 
adg

>  <m_score__min__energy>  (24) 
-8

>  <m_primary>  (24) 
energy

$$$$
24:0
     RDKit          3D

 48 50  0  0  0  0  0  0  0  0999 V2000
   55.8760   29.7890   44.1330 C   0  0  0  0  0  0  0  0  0  0  0  0
   57.2670   30.2280   43.6900 C   0  0  0  0  0  0  0  0  0  0  0  0
   58.3050   29.8050   44.6940 C   0  0  0  0  0  0  0  0  0  0  0  0
   59.0470   28.6300   44.4950 C   0  0  0  0  0  0  0  0  0  0  0  0
   60.0310   28.2540   45.4140 C   0  0  0  0  0  0  0  0  0  0  0  0
   60.2910   29.0540   46.5290 C   0  0  0  0  0  0  0  0  0  0  0  0
   59.5730   30.2420   46.7290 C   0  0  0  0  0  0  0  0  0  0  0  0
   59.8320   31.0680   47.8760 N   0  0  0  0  0  0  0  0  0  0  0  0
   58.9310   30.9540   49.0280 C   0  0  0  0  0  0  0  0  0  0  0  0
   58.9480   32.2210   49.8790 C   0  0  0  0  0  0  0  0  0  0  0  0
   60.3820   32.5780   50.2760 C   0  0  0  0  0  0  0  0  0  0  0  0
   61.2850   32.8460   49.0490 C   0  0  2  0  0  0  0  0  0  0  0  0
   61.0770   34.2010   48.4780 N   0  0  0  0  0  0  0  0  0  0  0  0
   59.6540   34.5890   48.3900 C   0  0  0  0  0  0  0  0  0  0  0  0
   59.0620   34.2750   47.0360 C   0  0  0  0  0  0  0  0  0  0  0  0
   57.7510   33.7820   46.9270 C   0  0  0  0  0  0  0  0  0  0  0  0
   57.2030   33.5090   45.6700 C   0  0  0  0  0  0  0  0  0  0  0  0
   57.9580   33.7250   44.5150 C   0  0  0  0  0  0  0  0  0  0  0  0
   59.2630   34.2150   44.6130 C   0  0  0  0  0  0  0  0  0  0  0  0
   59.8150   34.4900   45.8690 C   0  0  0  0  0  0  0  0  0  0  0  0
   61.0760   31.7940   47.9820 C   0  0  0  0  0  0  0  0  0  0  0  0
   61.9830   31.6190   47.1230 O   0  0  0  0  0  0  0  0  0  0  0  0
   58.5790   30.6120   45.8110 C   0  0  0  0  0  0  0  0  0  0  0  0
   55.8288   29.7741   45.2319 H   0  0  0  0  0  0  0  0  0  0  0  0
   55.1274   30.4946   43.7434 H   0  0  0  0  0  0  0  0  0  0  0  0
   55.6680   28.7816   43.7434 H   0  0  0  0  0  0  0  0  0  0  0  0
   57.4976   29.7688   42.7174 H   0  0  0  0  0  0  0  0  0  0  0  0
   57.2815   31.3249   43.6081 H   0  0  0  0  0  0  0  0  0  0  0  0
   58.8533   28.0027   43.6124 H   0  0  0  0  0  0  0  0  0  0  0  0
   60.6015   27.3264   45.2587 H   0  0  0  0  0  0  0  0  0  0  0  0
   61.0618   28.7511   47.2530 H   0  0  0  0  0  0  0  0  0  0  0  0
   57.9071   30.7808   48.6652 H   0  0  0  0  0  0  0  0  0  0  0  0
   59.2727   30.1148   49.6516 H   0  0  0  0  0  0  0  0  0  0  0  0
   58.5144   33.0510   49.3019 H   0  0  0  0  0  0  0  0  0  0  0  0
   58.3584   32.0461   50.7910 H   0  0  0  0  0  0  0  0  0  0  0  0
   60.3603   33.4818   50.9026 H   0  0  0  0  0  0  0  0  0  0  0  0
   60.8025   31.7196   50.8204 H   0  0  0  0  0  0  0  0  0  0  0  0
   62.3240   32.7932   49.4064 H   0  0  0  0  0  0  0  0  0  0  0  0
   61.5760   34.9200   49.0540 H   0  0  0  0  0  0  0  0  0  0  0  0
   61.4920   34.2560   47.5200 H   0  0  0  0  0  0  0  0  0  0  0  0
   59.0891   34.0424   49.1595 H   0  0  0  0  0  0  0  0  0  0  0  0
   59.5892   35.6762   48.5441 H   0  0  0  0  0  0  0  0  0  0  0  0
   57.1532   33.6101   47.8342 H   0  0  0  0  0  0  0  0  0  0  0  0
   56.1758   33.1236   45.5906 H   0  0  0  0  0  0  0  0  0  0  0  0
   57.5249   33.5092   43.5272 H   0  0  0  0  0  0  0  0  0  0  0  0
   59.8565   34.3846   43.7025 H   0  0  0  0  0  0  0  0  0  0  0  0
   60.8424   34.8760   45.9433 H   0  0  0  0  0  0  0  0  0  0  0  0
   58.0101   31.5405   45.9667 H   0  0  0  0  0  0  0  0  0  0  0  0
  1  2  1  0
  2  3  1  0
  3  4  2  0
  4  5  1  0
  5  6  2  0
  6  7  1  0
  7  8  1  0
  8  9  1  0
  9 10  1  0
 10 11  1  0
 11 12  1  0
 12 13  1  0
 13 14  1  0
 14 15  1  0
 15 16  2  0
 16 17  1  0
 17 18  2  0
 18 19  1  0
 19 20  2  0
 12 21  1  0
 21 22  2  0
  7 23  2  0
 23  3  1  0
 21  8  1  0
 20 15  1  0
  1 24  1  0
  1 25  1  0
  1 26  1  0
  2 27  1  0
  2 28  1  0
  4 29  1  0
  5 30  1  0
  6 31  1  0
  9 32  1  0
  9 33  1  0
 10 34  1  0
 10 35  1  0
 11 36  1  0
 11 37  1  0
 12 38  1  1
 13 39  1  0
 13 40  1  0
 14 41  1  0
 14 42  1  0
 16 43  1  0
 17 44  1  0
 18 45  1  0
 19 46  1  0
 20 47  1  0
 23 48  1  0
M  CHG  1  13   1
M  END
>  <UniqueID>  (25) 
19

>  <SMILES>  (25) 
CCc1cccc(N2CCC[C@H]([NH2+]Cc3ccccc3)C2=O)c1

>  <Energy>  (25) 
53.81572049359621

>  <Genealogy>  (25) 
CCc1cccc(N2CCCC([NH2+]Cc3ccccc3)C2=O)c1 (protonated)
CCc1cccc(N2CCC[C@H]([NH2+]Cc3ccccc3)C2=O)c1 (chirality)
CCc1cccc(N2CCC[C@H]([NH2+]Cc3ccccc3)C2=O)c1 (3D coordinates assigned)
CCc1cccc(N2CCC[C@H]([NH2+]Cc3ccccc3)C2=O)c1 (nonaromatic ring conformer: 53.81572049359621 kcal/mol)

>  <smiles>  (25) 
CCc1cccc(N2CCCC(NCc3ccccc3)C2=O)c1

>  <score_type>  (25) 
oracle

>  <origin>  (25) 
adg

>  <m_score__min__energy>  (25) 
-6.0099999999999998

>  <m_primary>  (25) 
energy

$$$$
25:0
     RDKit          3D

 29 31  0  0  0  0  0  0  0  0999 V2000
   57.2520   30.5860   43.5020 F   0  0  0  0  0  0  0  0  0  0  0  0
   57.6970   31.6080   44.2720 C   0  0  0  0  0  0  0  0  0  0  0  0
   58.0860   32.8130   43.6790 C   0  0  0  0  0  0  0  0  0  0  0  0
   58.5470   33.8680   44.4710 C   0  0  0  0  0  0  0  0  0  0  0  0
   58.6180   33.7270   45.8680 C   0  0  0  0  0  0  0  0  0  0  0  0
   59.1430   34.8570   46.7120 C   0  0  0  0  0  0  0  0  0  0  0  0
   59.9890   34.3320   47.7860 N   0  0  0  0  0  0  0  0  0  0  0  0
   59.6480   34.2510   49.0940 C   0  0  0  0  0  0  0  0  0  0  0  0
   60.7160   33.7750   49.8490 C   0  0  0  0  0  0  0  0  0  0  0  0
   61.7380   33.5750   48.9470 C   0  0  0  0  0  0  0  0  0  0  0  0
   63.0410   33.1230   49.1460 C   0  0  0  0  0  0  0  0  0  0  0  0
   63.8830   33.0300   48.0240 C   0  0  0  0  0  0  0  0  0  0  0  0
   63.4080   33.3880   46.7430 C   0  0  0  0  0  0  0  0  0  0  0  0
   62.0880   33.8410   46.5720 C   0  0  0  0  0  0  0  0  0  0  0  0
   61.2720   33.9240   47.7050 C   0  0  0  0  0  0  0  0  0  0  0  0
   58.2270   32.5130   46.4570 C   0  0  0  0  0  0  0  0  0  0  0  0
   57.7680   31.4600   45.6610 C   0  0  0  0  0  0  0  0  0  0  0  0
   58.0290   32.9308   42.5868 H   0  0  0  0  0  0  0  0  0  0  0  0
   58.8556   34.8127   43.9994 H   0  0  0  0  0  0  0  0  0  0  0  0
   59.7351   35.5371   46.0819 H   0  0  0  0  0  0  0  0  0  0  0  0
   58.2949   35.4000   47.1546 H   0  0  0  0  0  0  0  0  0  0  0  0
   58.6639   34.5235   49.5029 H   0  0  0  0  0  0  0  0  0  0  0  0
   60.7391   33.5966   50.9342 H   0  0  0  0  0  0  0  0  0  0  0  0
   63.3993   32.8478   50.1489 H   0  0  0  0  0  0  0  0  0  0  0  0
   64.9176   32.6764   48.1445 H   0  0  0  0  0  0  0  0  0  0  0  0
   64.0759   33.3118   45.8723 H   0  0  0  0  0  0  0  0  0  0  0  0
   61.7088   34.1214   45.5782 H   0  0  0  0  0  0  0  0  0  0  0  0
   58.2823   32.3908   47.5488 H   0  0  0  0  0  0  0  0  0  0  0  0
   57.4618   30.5123   46.1281 H   0  0  0  0  0  0  0  0  0  0  0  0
  1  2  1  0
  2  3  2  0
  3  4  1  0
  4  5  2  0
  5  6  1  0
  6  7  1  0
  7  8  1  0
  8  9  2  0
  9 10  1  0
 10 11  2  0
 11 12  1  0
 12 13  2  0
 13 14  1  0
 14 15  2  0
  5 16  1  0
 16 17  2  0
 17  2  1  0
 15  7  1  0
 15 10  1  0
  3 18  1  0
  4 19  1  0
  6 20  1  0
  6 21  1  0
  8 22  1  0
  9 23  1  0
 11 24  1  0
 12 25  1  0
 13 26  1  0
 14 27  1  0
 16 28  1  0
 17 29  1  0
M  END
>  <UniqueID>  (26) 
20

>  <SMILES>  (26) 
Fc1ccc(Cn2ccc3ccccc32)cc1

>  <Energy>  (26) 
63.47507191227528

>  <Genealogy>  (26) 
Fc1ccc(Cn2ccc3ccccc32)cc1 (3D coordinates assigned)
Fc1ccc(Cn2ccc3ccccc32)cc1 (optimized conformer: 63.47507191227528 kcal/mol)

>  <smiles>  (26) 
Fc1ccc(Cn2ccc3ccccc32)cc1

>  <score_type>  (26) 
oracle

>  <origin>  (26) 
adg

>  <m_score__min__energy>  (26) 
-6.2599999999999998

>  <m_primary>  (26) 
energy

$$$$
26:0
     RDKit          3D

 29 30  0  0  0  0  0  0  0  0999 V2000
   59.0365   34.8880   48.2819 H   0  0  0  0  0  0  0  0  0  0  0  0
   59.6310   34.5720   47.4120 C   0  0  0  0  0  0  0  0  0  0  0  0
   59.0260   34.5860   46.2140 C   0  0  0  0  0  0  0  0  0  0  0  0
   58.9255   35.5591   45.7109 H   0  0  0  0  0  0  0  0  0  0  0  0
   58.4830   33.4010   45.5140 C   0  0  0  0  0  0  0  0  0  0  0  0
   58.2590   33.4680   44.1310 C   0  0  0  0  0  0  0  0  0  0  0  0
   58.4710   34.4006   43.5875 H   0  0  0  0  0  0  0  0  0  0  0  0
   57.7680   32.3570   43.4390 C   0  0  0  0  0  0  0  0  0  0  0  0
   57.5698   32.4282   42.3594 H   0  0  0  0  0  0  0  0  0  0  0  0
   57.5270   31.1520   44.1150 C   0  0  0  0  0  0  0  0  0  0  0  0
   56.9630   29.9720   43.3820 C   0  0  0  0  0  0  0  0  0  0  0  0
   56.6064   29.2259   44.1074 H   0  0  0  0  0  0  0  0  0  0  0  0
   56.1241   30.2995   42.7504 H   0  0  0  0  0  0  0  0  0  0  0  0
   57.7447   29.5248   42.7504 H   0  0  0  0  0  0  0  0  0  0  0  0
   57.7630   31.0790   45.4970 C   0  0  0  0  0  0  0  0  0  0  0  0
   57.5610   30.1427   46.0378 H   0  0  0  0  0  0  0  0  0  0  0  0
   58.2530   32.1890   46.1890 C   0  0  0  0  0  0  0  0  0  0  0  0
   58.4599   32.1147   47.2668 H   0  0  0  0  0  0  0  0  0  0  0  0
   61.0330   34.1660   47.6580 C   0  0  0  0  0  0  0  0  0  0  0  0
   61.5920   34.1920   48.9490 C   0  0  0  0  0  0  0  0  0  0  0  0
   60.9753   34.4993   49.8065 H   0  0  0  0  0  0  0  0  0  0  0  0
   62.9280   33.8290   49.1470 C   0  0  0  0  0  0  0  0  0  0  0  0
   63.3552   33.8361   50.1606 H   0  0  0  0  0  0  0  0  0  0  0  0
   63.7210   33.4570   48.0570 C   0  0  0  0  0  0  0  0  0  0  0  0
   64.7696   33.1643   48.2145 H   0  0  0  0  0  0  0  0  0  0  0  0
   63.1820   33.4570   46.7680 C   0  0  0  0  0  0  0  0  0  0  0  0
   63.8090   33.1720   45.9103 H   0  0  0  0  0  0  0  0  0  0  0  0
   61.8460   33.8190   46.5670 C   0  0  0  0  0  0  0  0  0  0  0  0
   61.4300   33.8319   45.5488 H   0  0  0  0  0  0  0  0  0  0  0  0
  1  2  1  0
  2  3  2  0
  3  4  1  0
  3  5  1  0
  5  6  2  0
  6  7  1  0
  6  8  1  0
  8  9  1  0
  8 10  2  0
 10 11  1  0
 11 12  1  0
 11 13  1  0
 11 14  1  0
 10 15  1  0
 15 16  1  0
 15 17  2  0
 17 18  1  0
  2 19  1  0
 19 20  2  0
 20 21  1  0
 20 22  1  0
 22 23  1  0
 22 24  2  0
 24 25  1  0
 24 26  1  0
 26 27  1  0
 26 28  2  0
 28 29  1  0
 17  5  1  0
 28 19  1  0
M  END
>  <UniqueID>  (27) 
21

>  <SMILES>  (27) 
Cc1ccc(/C=C\c2ccccc2)cc1

>  <Energy>  (27) 
38.213668179755736

>  <Genealogy>  (27) 
Cc1ccc(/C=C\c2ccccc2)cc1 (cis-trans isomerization)
Cc1ccc(/C=C\c2ccccc2)cc1 (3D coordinates assigned)
Cc1ccc(/C=C\c2ccccc2)cc1 (optimized conformer: 38.213668179755736 kcal/mol)

>  <smiles>  (27) 
Cc1ccc(C=Cc2ccccc2)cc1

>  <score_type>  (27) 
oracle

>  <origin>  (27) 
adg

>  <m_score__min__energy>  (27) 
-6.4800000000000004

>  <m_primary>  (27) 
energy

$$$$
27:0
     RDKit          3D

 23 25  0  0  0  0  0  0  0  0999 V2000
   56.2580   30.4840   44.4990 O   0  0  0  0  0  0  0  0  0  0  0  0
   57.3960   30.5050   45.0500 C   0  0  0  0  0  0  0  0  0  0  0  0
   58.0530   29.2510   45.2610 C   0  0  0  0  0  0  0  0  0  0  0  0
   57.4240   28.0490   44.8570 C   0  0  0  0  0  0  0  0  0  0  0  0
   58.0420   26.8100   45.0520 C   0  0  0  0  0  0  0  0  0  0  0  0
   59.2980   26.7370   45.6510 C   0  0  0  0  0  0  0  0  0  0  0  0
   59.9420   27.9050   46.0600 C   0  0  0  0  0  0  0  0  0  0  0  0
   59.3280   29.1470   45.8680 C   0  0  0  0  0  0  0  0  0  0  0  0
   60.1050   30.5540   46.3620 S   0  0  0  0  0  0  0  0  0  0  0  0
   59.1950   31.9310   46.0380 C   0  0  0  0  0  0  0  0  0  0  0  0
   59.6890   33.1940   46.3830 C   0  0  0  0  0  0  0  0  0  0  0  0
   58.9360   34.3350   46.1150 C   0  0  0  0  0  0  0  0  0  0  0  0
   57.6870   34.2170   45.5030 C   0  0  0  0  0  0  0  0  0  0  0  0
   57.1900   32.9570   45.1570 C   0  0  0  0  0  0  0  0  0  0  0  0
   57.9330   31.7810   45.4160 C   0  0  0  0  0  0  0  0  0  0  0  0
   56.4328   28.0903   44.3819 H   0  0  0  0  0  0  0  0  0  0  0  0
   57.5343   25.8885   44.7310 H   0  0  0  0  0  0  0  0  0  0  0  0
   59.7809   25.7601   45.8011 H   0  0  0  0  0  0  0  0  0  0  0  0
   60.9332   27.8492   46.5337 H   0  0  0  0  0  0  0  0  0  0  0  0
   60.6729   33.2860   46.8663 H   0  0  0  0  0  0  0  0  0  0  0  0
   59.3252   35.3277   46.3853 H   0  0  0  0  0  0  0  0  0  0  0  0
   57.0921   35.1180   45.2924 H   0  0  0  0  0  0  0  0  0  0  0  0
   56.2043   32.8784   44.6751 H   0  0  0  0  0  0  0  0  0  0  0  0
  1  2  2  0
  2  3  1  0
  3  4  2  0
  4  5  1  0
  5  6  2  0
  6  7  1  0
  7  8  2  0
  8  9  1  0
  9 10  1  0
 10 11  2  0
 11 12  1  0
 12 13  2  0
 13 14  1  0
 14 15  2  0
 15  2  1  0
  8  3  1  0
 15 10  1  0
  4 16  1  0
  5 17  1  0
  6 18  1  0
  7 19  1  0
 11 20  1  0
 12 21  1  0
 13 22  1  0
 14 23  1  0
M  END
>  <UniqueID>  (28) 
22

>  <SMILES>  (28) 
O=c1c2ccccc2sc2ccccc12

>  <Energy>  (28) 
38.064170821325234

>  <Genealogy>  (28) 
O=c1c2ccccc2sc2ccccc12 (3D coordinates assigned)
O=c1c2ccccc2sc2ccccc12 (optimized conformer: 38.064170821325234 kcal/mol)

>  <smiles>  (28) 
O=c1c2ccccc2sc2ccccc12

>  <score_type>  (28) 
oracle

>  <origin>  (28) 
adg

>  <m_score__min__energy>  (28) 
-6.5999999999999996

>  <m_primary>  (28) 
energy

$$$$
28:0
     RDKit          3D

 41 43  0  0  0  0  0  0  0  0999 V2000
   65.8830   32.7770   50.1320 C   0  0  0  0  0  0  0  0  0  0  0  0
   64.8920   33.7940   50.0340 O   0  0  0  0  0  0  0  0  0  0  0  0
   63.7470   33.7110   49.2260 C   0  0  0  0  0  0  0  0  0  0  0  0
   63.7760   33.1600   47.9320 C   0  0  0  0  0  0  0  0  0  0  0  0
   62.6080   33.0980   47.1660 C   0  0  0  0  0  0  0  0  0  0  0  0
   61.3920   33.5850   47.6760 C   0  0  0  0  0  0  0  0  0  0  0  0
   60.1500   33.5180   46.8640 C   0  0  0  0  0  0  0  0  0  0  0  0
   59.6670   34.6600   46.2010 C   0  0  0  0  0  0  0  0  0  0  0  0
   58.5080   34.5910   45.4250 C   0  0  0  0  0  0  0  0  0  0  0  0
   57.8110   33.3870   45.3090 C   0  0  0  0  0  0  0  0  0  0  0  0
   58.2600   32.2440   45.9780 C   0  0  0  0  0  0  0  0  0  0  0  0
   57.5380   31.0510   45.8280 O   0  0  0  0  0  0  0  0  0  0  0  0
   58.0990   29.7850   45.5950 C   0  0  0  0  0  0  0  0  0  0  0  0
   59.2320   29.3590   46.3130 C   0  0  0  0  0  0  0  0  0  0  0  0
   59.7490   28.0780   46.1240 C   0  0  0  0  0  0  0  0  0  0  0  0
   59.1350   27.2000   45.2310 C   0  0  0  0  0  0  0  0  0  0  0  0
   58.0020   27.6020   44.5190 C   0  0  0  0  0  0  0  0  0  0  0  0
   57.4340   26.7310   43.6450 F   0  0  0  0  0  0  0  0  0  0  0  0
   57.4770   28.8990   44.6860 C   0  0  0  0  0  0  0  0  0  0  0  0
   56.2830   29.3140   43.9150 C   0  0  0  0  0  0  0  0  0  0  0  0
   56.3800   29.6520   42.5300 N   0  0  0  0  0  0  0  0  0  0  0  0
   55.1550   29.3460   44.4770 O   0  0  0  0  0  0  0  0  0  0  0  0
   59.4400   32.3080   46.7400 C   0  0  0  0  0  0  0  0  0  0  0  0
   61.3690   34.1350   48.9700 C   0  0  0  0  0  0  0  0  0  0  0  0
   62.5380   34.1950   49.7350 C   0  0  0  0  0  0  0  0  0  0  0  0
   66.0885   32.5662   51.1919 H   0  0  0  0  0  0  0  0  0  0  0  0
   65.5200   31.8626   49.6399 H   0  0  0  0  0  0  0  0  0  0  0  0
   66.8065   33.1163   49.6399 H   0  0  0  0  0  0  0  0  0  0  0  0
   64.7215   32.7763   47.5211 H   0  0  0  0  0  0  0  0  0  0  0  0
   62.6409   32.6644   46.1556 H   0  0  0  0  0  0  0  0  0  0  0  0
   60.2058   35.6144   46.2942 H   0  0  0  0  0  0  0  0  0  0  0  0
   58.1431   35.4882   44.9035 H   0  0  0  0  0  0  0  0  0  0  0  0
   56.9042   33.3371   44.6883 H   0  0  0  0  0  0  0  0  0  0  0  0
   59.7133   30.0418   47.0287 H   0  0  0  0  0  0  0  0  0  0  0  0
   60.6428   27.7592   46.6802 H   0  0  0  0  0  0  0  0  0  0  0  0
   59.5436   26.1889   45.0869 H   0  0  0  0  0  0  0  0  0  0  0  0
   55.5390   29.9890   42.0130 H   0  0  0  0  0  0  0  0  0  0  0  0
   57.2630   29.4920   41.9950 H   0  0  0  0  0  0  0  0  0  0  0  0
   59.8123   31.4041   47.2443 H   0  0  0  0  0  0  0  0  0  0  0  0
   60.4252   34.5206   49.3831 H   0  0  0  0  0  0  0  0  0  0  0  0
   62.5062   34.6268   50.7462 H   0  0  0  0  0  0  0  0  0  0  0  0
  1  2  1  0
  2  3  1  0
  3  4  2  0
  4  5  1  0
  5  6  2  0
  6  7  1  0
  7  8  2  0
  8  9  1  0
  9 10  2  0
 10 11  1  0
 11 12  1  0
 12 13  1  0
 13 14  2  0
 14 15  1  0
 15 16  2  0
 16 17  1  0
 17 18  1  0
 17 19  2  0
 19 20  1  0
 20 21  1  0
 20 22  2  0
 11 23  2  0
  6 24  1  0
 24 25  2  0
 25  3  1  0
 23  7  1  0
 19 13  1  0
  1 26  1  0
  1 27  1  0
  1 28  1  0
  4 29  1  0
  5 30  1  0
  8 31  1  0
  9 32  1  0
 10 33  1  0
 14 34  1  0
 15 35  1  0
 16 36  1  0
 21 37  1  0
 21 38  1  0
 23 39  1  0
 24 40  1  0
 25 41  1  0
M  END
>  <UniqueID>  (29) 
23

>  <SMILES>  (29) 
COc1ccc(-c2cccc(Oc3cccc(F)c3C(N)=O)c2)cc1

>  <Energy>  (29) 
58.36053427372837

>  <Genealogy>  (29) 
COc1ccc(-c2cccc(Oc3cccc(F)c3C(N)=O)c2)cc1 (3D coordinates assigned)
COc1ccc(-c2cccc(Oc3cccc(F)c3C(N)=O)c2)cc1 (optimized conformer: 58.36053427372837 kcal/mol)

>  <smiles>  (29) 
COc1ccc(-c2cccc(Oc3cccc(F)c3C(N)=O)c2)cc1

>  <score_type>  (29) 
oracle

>  <origin>  (29) 
adg

>  <m_score__min__energy>  (29) 
-8.8200000000000003

>  <m_primary>  (29) 
energy

$$$$
29:0
     RDKit          3D

 32 34  0  0  0  0  0  0  0  0999 V2000
   57.1250   32.7080   40.3720 C   0  0  0  0  0  0  0  0  0  0  0  0
   57.6440   32.7160   41.6840 O   0  0  0  0  0  0  0  0  0  0  0  0
   57.3080   31.5060   42.3270 C   0  0  0  0  0  0  0  0  0  0  0  0
   57.7160   31.5940   43.7700 C   0  0  0  0  0  0  0  0  0  0  0  0
   58.2840   32.7370   44.2690 N   0  0  0  0  0  0  0  0  0  0  0  0
   58.6910   32.8290   45.5770 C   0  0  0  0  0  0  0  0  0  0  0  0
   59.3370   34.0840   46.0820 C   0  0  0  0  0  0  0  0  0  0  0  0
   58.5620   31.7120   46.4210 C   0  0  0  0  0  0  0  0  0  0  0  0
   58.0130   30.5890   45.8980 N   0  0  0  0  0  0  0  0  0  0  0  0
   57.7830   29.3960   46.4620 C   0  0  0  0  0  0  0  0  0  0  0  0
   57.2180   28.5950   45.4810 C   0  0  0  0  0  0  0  0  0  0  0  0
   56.8000   27.1970   45.6380 C   0  0  0  0  0  0  0  0  0  0  0  0
   57.6030   26.0800   45.5010 C   0  0  0  0  0  0  0  0  0  0  0  0
   56.7800   25.0000   45.7390 C   0  0  0  0  0  0  0  0  0  0  0  0
   55.5300   25.5230   46.0050 C   0  0  0  0  0  0  0  0  0  0  0  0
   55.5740   26.8330   45.9380 O   0  0  0  0  0  0  0  0  0  0  0  0
   57.0990   29.2820   44.3180 N   0  0  0  0  0  0  0  0  0  0  0  0
   57.5980   30.4980   44.6280 C   0  0  0  0  0  0  0  0  0  0  0  0
   56.0259   32.6911   40.4126 H   0  0  0  0  0  0  0  0  0  0  0  0
   57.4584   33.6114   39.8403 H   0  0  0  0  0  0  0  0  0  0  0  0
   57.4861   31.8153   39.8403 H   0  0  0  0  0  0  0  0  0  0  0  0
   56.2226   31.3406   42.2593 H   0  0  0  0  0  0  0  0  0  0  0  0
   57.8299   30.6680   41.8419 H   0  0  0  0  0  0  0  0  0  0  0  0
   58.4130   33.5600   43.6370 H   0  0  0  0  0  0  0  0  0  0  0  0
   59.3351   34.0803   47.1820 H   0  0  0  0  0  0  0  0  0  0  0  0
   60.3735   34.1352   45.7173 H   0  0  0  0  0  0  0  0  0  0  0  0
   58.7764   34.9573   45.7173 H   0  0  0  0  0  0  0  0  0  0  0  0
   58.8949   31.7484   47.4688 H   0  0  0  0  0  0  0  0  0  0  0  0
   58.0001   29.1077   47.5011 H   0  0  0  0  0  0  0  0  0  0  0  0
   58.6746   26.0577   45.2538 H   0  0  0  0  0  0  0  0  0  0  0  0
   57.0619   23.9369   45.7207 H   0  0  0  0  0  0  0  0  0  0  0  0
   54.6327   24.9309   46.2379 H   0  0  0  0  0  0  0  0  0  0  0  0
  1  2  1  0
  2  3  1  0
  3  4  1  0
  4  5  2  0
  5  6  1  0
  6  7  1  0
  6  8  2  0
  8  9  1  0
  9 10  1  0
 10 11  2  0
 11 12  1  0
 12 13  2  0
 13 14  1  0
 14 15  2  0
 15 16  1  0
 11 17  1  0
 17 18  2  0
 18  4  1  0
 18  9  1  0
 16 12  1  0
  1 19  1  0
  1 20  1  0
  1 21  1  0
  3 22  1  0
  3 23  1  0
  5 24  1  0
  7 25  1  0
  7 26  1  0
  7 27  1  0
  8 28  1  0
 10 29  1  0
 13 30  1  0
 14 31  1  0
 15 32  1  0
M  CHG  1   5   1
M  END
>  <UniqueID>  (30) 
24

>  <SMILES>  (30) 
COCc1[nH+]c(C)cn2cc(-c3ccco3)nc12

>  <Energy>  (30) 
93.90539014265607

>  <Genealogy>  (30) 
COCc1[nH+]c(C)cn2cc(-c3ccco3)nc12 (protonated)
COCc1[nH+]c(C)cn2cc(-c3ccco3)nc12 (3D coordinates assigned)
COCc1[nH+]c(C)cn2cc(-c3ccco3)nc12 (optimized conformer: 93.90539014265607 kcal/mol)

>  <smiles>  (30) 
COCc1nc(C)cn2cc(-c3ccco3)nc12

>  <score_type>  (30) 
oracle

>  <origin>  (30) 
adg

>  <m_score__min__energy>  (30) 
-4.5599999999999996

>  <m_primary>  (30) 
energy

$$$$
30:0
     RDKit          3D

 30 32  0  0  0  0  0  0  0  0999 V2000
   54.1460   24.8360   45.6110 C   0  0  0  0  0  0  0  0  0  0  0  0
   54.7680   26.0630   45.9780 O   0  0  0  0  0  0  0  0  0  0  0  0
   56.1560   26.2280   46.0070 C   0  0  0  0  0  0  0  0  0  0  0  0
   56.9830   25.1030   45.9470 C   0  0  0  0  0  0  0  0  0  0  0  0
   58.3700   25.2690   45.9780 C   0  0  0  0  0  0  0  0  0  0  0  0
   58.9150   26.5510   46.0680 C   0  0  0  0  0  0  0  0  0  0  0  0
   58.0580   27.6550   46.1260 C   0  0  0  0  0  0  0  0  0  0  0  0
   58.5900   28.9860   46.2200 C   0  0  0  0  0  0  0  0  0  0  0  0
   59.0360   30.1030   46.2950 C   0  0  0  0  0  0  0  0  0  0  0  0
   59.5640   31.4380   46.3850 C   0  0  0  0  0  0  0  0  0  0  0  0
   60.7560   31.6620   47.0110 N   0  0  0  0  0  0  0  0  0  0  0  0
   61.2880   32.9170   47.1160 C   0  0  0  0  0  0  0  0  0  0  0  0
   60.5990   34.0110   46.5720 C   0  0  0  0  0  0  0  0  0  0  0  0
   59.4160   33.7670   45.9540 N   0  0  0  0  0  0  0  0  0  0  0  0
   58.5740   34.6300   45.3610 C   0  0  0  0  0  0  0  0  0  0  0  0
   57.4850   33.9290   44.8650 C   0  0  0  0  0  0  0  0  0  0  0  0
   57.6820   32.5890   45.1750 C   0  0  0  0  0  0  0  0  0  0  0  0
   58.8890   32.5370   45.8480 C   0  0  0  0  0  0  0  0  0  0  0  0
   56.7100   27.4700   46.0950 N   0  0  0  0  0  0  0  0  0  0  0  0
   53.8649   24.2816   46.5185 H   0  0  0  0  0  0  0  0  0  0  0  0
   53.2452   25.0453   45.0155 H   0  0  0  0  0  0  0  0  0  0  0  0
   54.8473   24.2331   45.0155 H   0  0  0  0  0  0  0  0  0  0  0  0
   56.5460   24.0960   45.8760 H   0  0  0  0  0  0  0  0  0  0  0  0
   59.0312   24.3911   45.9316 H   0  0  0  0  0  0  0  0  0  0  0  0
   60.0057   26.6914   46.0930 H   0  0  0  0  0  0  0  0  0  0  0  0
   62.2516   33.0681   47.6246 H   0  0  0  0  0  0  0  0  0  0  0  0
   61.0037   35.0313   46.6439 H   0  0  0  0  0  0  0  0  0  0  0  0
   58.7242   35.7168   45.2818 H   0  0  0  0  0  0  0  0  0  0  0  0
   56.6254   34.3546   44.3265 H   0  0  0  0  0  0  0  0  0  0  0  0
   57.0172   31.7461   44.9353 H   0  0  0  0  0  0  0  0  0  0  0  0
  1  2  1  0
  2  3  1  0
  3  4  2  0
  4  5  1  0
  5  6  2  0
  6  7  1  0
  7  8  1  0
  8  9  3  0
  9 10  1  0
 10 11  2  0
 11 12  1  0
 12 13  2  0
 13 14  1  0
 14 15  1  0
 15 16  2  0
 16 17  1  0
 17 18  2  0
  7 19  2  0
 19  3  1  0
 18 10  1  0
 18 14  1  0
  1 20  1  0
  1 21  1  0
  1 22  1  0
  4 23  1  0
  5 24  1  0
  6 25  1  0
 12 26  1  0
 13 27  1  0
 15 28  1  0
 16 29  1  0
 17 30  1  0
M  END
>  <UniqueID>  (31) 
25

>  <SMILES>  (31) 
COc1cccc(C#Cc2nccn3cccc23)n1

>  <Energy>  (31) 
59.629717763815485

>  <Genealogy>  (31) 
COc1cccc(C#Cc2nccn3cccc23)n1 (3D coordinates assigned)
COc1cccc(C#Cc2nccn3cccc23)n1 (optimized conformer: 59.629717763815485 kcal/mol)

>  <smiles>  (31) 
COc1cccc(C#Cc2nccn3cccc23)n1

>  <score_type>  (31) 
oracle

>  <origin>  (31) 
adg

>  <m_score__min__energy>  (31) 
-6.1799999999999997

>  <m_primary>  (31) 
energy

$$$$
31:0
     RDKit          3D

 33 35  0  0  0  0  0  0  0  0999 V2000
   61.1397   34.6839   47.6133 H   0  0  0  0  0  0  0  0  0  0  0  0
   60.2950   34.2490   47.0590 C   0  0  0  0  0  0  0  0  0  0  0  0
   59.6860   34.9750   46.0320 C   0  0  0  0  0  0  0  0  0  0  0  0
   60.0508   35.9818   45.7803 H   0  0  0  0  0  0  0  0  0  0  0  0
   58.6140   34.4240   45.3240 C   0  0  0  0  0  0  0  0  0  0  0  0
   58.1336   35.0013   44.5203 H   0  0  0  0  0  0  0  0  0  0  0  0
   58.1480   33.1360   45.6350 C   0  0  0  0  0  0  0  0  0  0  0  0
   57.0040   32.5360   44.8610 C   0  0  0  0  0  0  0  0  0  0  0  0
   56.7114   33.2310   44.0601 H   0  0  0  0  0  0  0  0  0  0  0  0
   56.1696   32.3652   45.5571 H   0  0  0  0  0  0  0  0  0  0  0  0
   57.3820   31.2190   44.2490 C   0  0  0  0  0  0  0  0  0  0  0  0
   58.4990   31.0890   43.6830 O   0  0  0  0  0  0  0  0  0  0  0  0
   56.4420   30.1380   44.2170 N   0  0  0  0  0  0  0  0  0  0  0  0
   56.1550   29.3940   45.2150 N   0  0  0  0  0  0  0  0  0  0  0  0
   56.8340   28.1770   45.5540 C   0  0  0  0  0  0  0  0  0  0  0  0
   56.2710   26.9640   45.9290 C   0  0  0  0  0  0  0  0  0  0  0  0
   54.9120   26.6880   46.0000 O   0  0  0  0  0  0  0  0  0  0  0  0
   57.2280   26.0740   46.2750 N   0  0  0  0  0  0  0  0  0  0  0  0
   57.0890   25.0880   46.5920 H   0  0  0  0  0  0  0  0  0  0  0  0
   58.3940   26.7350   46.1490 C   0  0  0  0  0  0  0  0  0  0  0  0
   59.6750   26.2410   46.3900 C   0  0  0  0  0  0  0  0  0  0  0  0
   59.8299   25.2052   46.7265 H   0  0  0  0  0  0  0  0  0  0  0  0
   60.7640   27.1100   46.1890 C   0  0  0  0  0  0  0  0  0  0  0  0
   61.7887   26.7515   46.3663 H   0  0  0  0  0  0  0  0  0  0  0  0
   60.5500   28.4400   45.7610 C   0  0  0  0  0  0  0  0  0  0  0  0
   61.4095   29.1098   45.6104 H   0  0  0  0  0  0  0  0  0  0  0  0
   59.2460   28.9140   45.5260 C   0  0  0  0  0  0  0  0  0  0  0  0
   59.0667   29.9470   45.1932 H   0  0  0  0  0  0  0  0  0  0  0  0
   58.1900   28.0280   45.7300 C   0  0  0  0  0  0  0  0  0  0  0  0
   58.7620   32.4140   46.6730 C   0  0  0  0  0  0  0  0  0  0  0  0
   58.4004   31.4072   46.9289 H   0  0  0  0  0  0  0  0  0  0  0  0
   59.8320   32.9720   47.3820 C   0  0  0  0  0  0  0  0  0  0  0  0
   60.3086   32.4039   48.1945 H   0  0  0  0  0  0  0  0  0  0  0  0
  1  2  1  0
  2  3  2  0
  3  4  1  0
  3  5  1  0
  5  6  1  0
  5  7  2  0
  7  8  1  0
  8  9  1  0
  8 10  1  0
  8 11  1  0
 11 12  2  0
 11 13  1  0
 13 14  2  0
 14 15  1  0
 15 16  2  0
 16 17  1  0
 16 18  1  0
 18 19  1  0
 18 20  1  0
 20 21  2  0
 21 22  1  0
 21 23  1  0
 23 24  1  0
 23 25  2  0
 25 26  1  0
 25 27  1  0
 27 28  1  0
 27 29  2  0
  7 30  1  0
 30 31  1  0
 30 32  2  0
 32 33  1  0
 32  2  1  0
 29 15  1  0
 29 20  1  0
M  CHG  1  17  -1
M  END
>  <UniqueID>  (32) 
26

>  <SMILES>  (32) 
O=C(Cc1ccccc1)/N=N\c1c([O-])[nH]c2ccccc12

>  <Energy>  (32) 
81.57745622795568

>  <Genealogy>  (32) 
O=C(Cc1ccccc1)N=Nc1c([O-])[nH]c2ccccc12 (protonated)
O=C(Cc1ccccc1)/N=N\c1c([O-])[nH]c2ccccc12 (cis-trans isomerization)
O=C(Cc1ccccc1)/N=N\c1c([O-])[nH]c2ccccc12 (3D coordinates assigned)
O=C(Cc1ccccc1)/N=N\c1c([O-])[nH]c2ccccc12 (optimized conformer: 81.57745622795568 kcal/mol)

>  <smiles>  (32) 
O=C(Cc1ccccc1)N=Nc1c(O)[nH]c2ccccc12

>  <score_type>  (32) 
oracle

>  <origin>  (32) 
adg

>  <m_score__min__energy>  (32) 
-11.98

>  <m_primary>  (32) 
energy

$$$$
32:0
     RDKit          3D

 39 42  0  0  0  0  0  0  0  0999 V2000
   60.8900   30.4360   48.9840 O   0  0  0  0  0  0  0  0  0  0  0  0
   60.2250   30.0700   47.9800 C   0  0  0  0  0  0  0  0  0  0  0  0
   60.5400   28.9750   47.2480 N   0  0  0  0  0  0  0  0  0  0  0  0
   59.6000   28.9510   46.2870 C   0  0  0  0  0  0  0  0  0  0  0  0
   59.4540   28.0310   45.2530 C   0  0  0  0  0  0  0  0  0  0  0  0
   58.3840   28.2180   44.3570 C   0  0  0  0  0  0  0  0  0  0  0  0
   58.1490   27.0930   43.0330 Cl  0  0  0  0  0  0  0  0  0  0  0  0
   57.4970   29.3080   44.5200 C   0  0  0  0  0  0  0  0  0  0  0  0
   57.6730   30.2210   45.5770 C   0  0  0  0  0  0  0  0  0  0  0  0
   58.7450   30.0090   46.4480 C   0  0  0  0  0  0  0  0  0  0  0  0
   59.1280   30.7280   47.5230 N   0  0  0  0  0  0  0  0  0  0  0  0
   58.5570   31.9700   48.0500 C   0  0  0  0  0  0  0  0  0  0  0  0
   58.5750   33.0470   46.9870 C   0  0  0  0  0  0  0  0  0  0  0  0
   57.4000   33.2670   46.2460 C   0  0  0  0  0  0  0  0  0  0  0  0
   57.3780   34.1890   45.1990 C   0  0  0  0  0  0  0  0  0  0  0  0
   58.5290   34.9010   44.8690 C   0  0  0  0  0  0  0  0  0  0  0  0
   59.7040   34.7020   45.5940 C   0  0  0  0  0  0  0  0  0  0  0  0
   59.7430   33.7880   46.6600 C   0  0  0  0  0  0  0  0  0  0  0  0
   61.0080   33.6560   47.4140 C   0  0  0  0  0  0  0  0  0  0  0  0
   62.1410   33.0970   46.7990 C   0  0  0  0  0  0  0  0  0  0  0  0
   63.3440   32.9960   47.5020 C   0  0  0  0  0  0  0  0  0  0  0  0
   63.4300   33.4650   48.8170 C   0  0  0  0  0  0  0  0  0  0  0  0
   62.3130   34.0400   49.4270 C   0  0  0  0  0  0  0  0  0  0  0  0
   61.1060   34.1440   48.7280 C   0  0  0  0  0  0  0  0  0  0  0  0
   61.3310   28.3090   47.3930 H   0  0  0  0  0  0  0  0  0  0  0  0
   60.1503   27.1870   45.1396 H   0  0  0  0  0  0  0  0  0  0  0  0
   56.6633   29.4432   43.8153 H   0  0  0  0  0  0  0  0  0  0  0  0
   56.9898   31.0724   45.7127 H   0  0  0  0  0  0  0  0  0  0  0  0
   57.5189   31.7876   48.3646 H   0  0  0  0  0  0  0  0  0  0  0  0
   59.1571   32.3042   48.9092 H   0  0  0  0  0  0  0  0  0  0  0  0
   56.4875   32.7055   46.4949 H   0  0  0  0  0  0  0  0  0  0  0  0
   56.4495   34.3541   44.6327 H   0  0  0  0  0  0  0  0  0  0  0  0
   58.5113   35.6201   44.0368 H   0  0  0  0  0  0  0  0  0  0  0  0
   60.6097   35.2668   45.3281 H   0  0  0  0  0  0  0  0  0  0  0  0
   62.0805   32.7379   45.7610 H   0  0  0  0  0  0  0  0  0  0  0  0
   64.2252   32.5468   47.0206 H   0  0  0  0  0  0  0  0  0  0  0  0
   64.3769   33.3810   49.3704 H   0  0  0  0  0  0  0  0  0  0  0  0
   62.3826   34.4121   50.4598 H   0  0  0  0  0  0  0  0  0  0  0  0
   60.2320   34.6086   49.2078 H   0  0  0  0  0  0  0  0  0  0  0  0
  1  2  2  0
  2  3  1  0
  3  4  1  0
  4  5  2  0
  5  6  1  0
  6  7  1  0
  6  8  2  0
  8  9  1  0
  9 10  2  0
 10 11  1  0
 11 12  1  0
 12 13  1  0
 13 14  2  0
 14 15  1  0
 15 16  2  0
 16 17  1  0
 17 18  2  0
 18 19  1  0
 19 20  2  0
 20 21  1  0
 21 22  2  0
 22 23  1  0
 23 24  2  0
 11  2  1  0
 18 13  1  0
 24 19  1  0
 10  4  1  0
  3 25  1  0
  5 26  1  0
  8 27  1  0
  9 28  1  0
 12 29  1  0
 12 30  1  0
 14 31  1  0
 15 32  1  0
 16 33  1  0
 17 34  1  0
 20 35  1  0
 21 36  1  0
 22 37  1  0
 23 38  1  0
 24 39  1  0
M  END
>  <UniqueID>  (33) 
27

>  <SMILES>  (33) 
O=c1[nH]c2cc(Cl)ccc2n1Cc1ccccc1-c1ccccc1

>  <Energy>  (33) 
91.37937235590819

>  <Genealogy>  (33) 
O=c1[nH]c2cc(Cl)ccc2n1Cc1ccccc1-c1ccccc1 (3D coordinates assigned)
O=c1[nH]c2cc(Cl)ccc2n1Cc1ccccc1-c1ccccc1 (optimized conformer: 91.37937235590819 kcal/mol)

>  <smiles>  (33) 
O=c1[nH]c2cc(Cl)ccc2n1Cc1ccccc1-c1ccccc1

>  <score_type>  (33) 
oracle

>  <origin>  (33) 
adg

>  <m_score__min__energy>  (33) 
-8.7200000000000006

>  <m_primary>  (33) 
energy

$$$$
33:0
     RDKit          3D

 24 25  0  0  0  0  0  0  0  0999 V2000
   59.0380   34.4330   46.7760 C   0  0  0  0  0  0  0  0  0  0  0  0
   58.4910   33.0210   46.6050 C   0  0  0  0  0  0  0  0  0  0  0  0
   58.1690   32.7520   45.1670 C   0  0  0  0  0  0  0  0  0  0  0  0
   58.5560   33.5230   44.1260 N   0  0  0  0  0  0  0  0  0  0  0  0
   58.1660   32.9390   42.9940 N   0  0  0  0  0  0  0  0  0  0  0  0
   57.5470   31.8040   43.3740 C   0  0  0  0  0  0  0  0  0  0  0  0
   56.9770   30.8330   42.5630 C   0  0  0  0  0  0  0  0  0  0  0  0
   56.4090   29.7190   43.2060 C   0  0  0  0  0  0  0  0  0  0  0  0
   56.4400   29.6240   44.6150 C   0  0  0  0  0  0  0  0  0  0  0  0
   55.8780   28.5090   45.2450 O   0  0  0  0  0  0  0  0  0  0  0  0
   56.6480   27.3790   45.6360 C   0  0  0  0  0  0  0  0  0  0  0  0
   57.0220   30.6230   45.3450 N   0  0  0  0  0  0  0  0  0  0  0  0
   57.5420   31.6640   44.7030 N   0  0  0  0  0  0  0  0  0  0  0  0
   59.1276   34.6642   47.8477 H   0  0  0  0  0  0  0  0  0  0  0  0
   60.0281   34.5026   46.3019 H   0  0  0  0  0  0  0  0  0  0  0  0
   58.3531   35.1514   46.3019 H   0  0  0  0  0  0  0  0  0  0  0  0
   59.2447   32.2971   46.9484 H   0  0  0  0  0  0  0  0  0  0  0  0
   57.5707   32.9223   47.1994 H   0  0  0  0  0  0  0  0  0  0  0  0
   59.0850   34.4220   44.1770 H   0  0  0  0  0  0  0  0  0  0  0  0
   56.9698   30.9303   41.4673 H   0  0  0  0  0  0  0  0  0  0  0  0
   55.9402   28.9210   42.6114 H   0  0  0  0  0  0  0  0  0  0  0  0
   56.6860   27.3233   46.7339 H   0  0  0  0  0  0  0  0  0  0  0  0
   56.1846   26.4641   45.2382 H   0  0  0  0  0  0  0  0  0  0  0  0
   57.6690   27.4756   45.2382 H   0  0  0  0  0  0  0  0  0  0  0  0
  1  2  1  0
  2  3  1  0
  3  4  2  0
  4  5  1  0
  5  6  2  0
  6  7  1  0
  7  8  2  0
  8  9  1  0
  9 10  1  0
 10 11  1  0
  9 12  2  0
 12 13  1  0
 13  3  1  0
 13  6  1  0
  1 14  1  0
  1 15  1  0
  1 16  1  0
  2 17  1  0
  2 18  1  0
  4 19  1  0
  7 20  1  0
  8 21  1  0
 11 22  1  0
 11 23  1  0
 11 24  1  0
M  CHG  1   4   1
M  END
>  <UniqueID>  (34) 
28

>  <SMILES>  (34) 
CCc1[nH+]nc2ccc(OC)nn12

>  <Energy>  (34) 
61.54540378980087

>  <Genealogy>  (34) 
CCc1[nH+]nc2ccc(OC)nn12 (protonated)
CCc1[nH+]nc2ccc(OC)nn12 (3D coordinates assigned)
CCc1[nH+]nc2ccc(OC)nn12 (optimized conformer: 61.54540378980087 kcal/mol)

>  <smiles>  (34) 
CCc1nnc2ccc(OC)nn12

>  <score_type>  (34) 
oracle

>  <origin>  (34) 
adg

>  <m_score__min__energy>  (34) 
-4.46

>  <m_primary>  (34) 
energy

$$$$
34:0
     RDKit          3D

 58 61  0  0  0  0  0  0  0  0999 V2000
   57.7490   25.1350   44.0290 C   0  0  0  0  0  0  0  0  0  0  0  0
   58.3510   25.1060   45.4310 C   0  0  0  0  0  0  0  0  0  0  0  0
   58.7280   26.4610   45.8640 N   0  0  0  0  0  0  0  0  0  0  0  0
   59.8300   26.7150   46.7660 C   0  0  0  0  0  0  0  0  0  0  0  0
   61.0140   26.6550   46.3340 O   0  0  0  0  0  0  0  0  0  0  0  0
   59.6220   27.0220   48.2200 C   0  0  0  0  0  0  0  0  0  0  0  0
   59.1010   28.3380   48.3660 O   0  0  0  0  0  0  0  0  0  0  0  0
   59.8530   29.4830   48.0920 C   0  0  0  0  0  0  0  0  0  0  0  0
   59.9570   29.9110   46.9090 O   0  0  0  0  0  0  0  0  0  0  0  0
   60.5680   30.1820   49.2170 C   0  0  2  0  0  0  0  0  0  0  0  0
   59.8170   31.4610   49.6390 C   0  0  0  0  0  0  0  0  0  0  0  0
   59.9870   32.4890   48.6600 O   0  0  0  0  0  0  0  0  0  0  0  0
   61.2200   32.6820   48.0300 C   0  0  0  0  0  0  0  0  0  0  0  0
   61.4770   33.8490   47.3010 C   0  0  0  0  0  0  0  0  0  0  0  0
   62.7310   34.0360   46.7080 C   0  0  0  0  0  0  0  0  0  0  0  0
   63.7200   33.0540   46.8340 C   0  0  0  0  0  0  0  0  0  0  0  0
   63.4590   31.8790   47.5500 C   0  0  0  0  0  0  0  0  0  0  0  0
   62.2040   31.6880   48.1360 C   0  0  0  0  0  0  0  0  0  0  0  0
   61.9100   30.5090   48.8310 O   0  0  0  0  0  0  0  0  0  0  0  0
   57.9140   27.5670   45.4320 C   0  0  0  0  0  0  0  0  0  0  0  0
   58.4890   28.6980   44.8180 C   0  0  0  0  0  0  0  0  0  0  0  0
   59.9170   28.7370   44.6300 N   0  0  0  0  0  0  0  0  0  0  0  0
   57.6820   29.7480   44.4250 N   0  0  0  0  0  0  0  0  0  0  0  0
   58.2520   30.9430   43.7590 C   0  0  0  0  0  0  0  0  0  0  0  0
   58.2100   32.1470   44.6690 C   0  0  0  0  0  0  0  0  0  0  0  0
   57.8440   32.0060   46.0190 C   0  0  0  0  0  0  0  0  0  0  0  0
   57.8330   33.1170   46.8680 C   0  0  0  0  0  0  0  0  0  0  0  0
   58.1980   34.3740   46.3820 C   0  0  0  0  0  0  0  0  0  0  0  0
   58.5790   34.5210   45.0460 C   0  0  0  0  0  0  0  0  0  0  0  0
   58.5930   33.4130   44.1940 C   0  0  0  0  0  0  0  0  0  0  0  0
   56.3240   29.6730   44.6370 C   0  0  0  0  0  0  0  0  0  0  0  0
   55.5590   30.6080   44.2760 O   0  0  0  0  0  0  0  0  0  0  0  0
   55.7790   28.5890   45.2380 N   0  0  0  0  0  0  0  0  0  0  0  0
   56.5350   27.5450   45.6410 C   0  0  0  0  0  0  0  0  0  0  0  0
   55.9860   26.5600   46.2010 O   0  0  0  0  0  0  0  0  0  0  0  0
   56.6527   25.1878   44.1017 H   0  0  0  0  0  0  0  0  0  0  0  0
   58.1234   26.0162   43.4873 H   0  0  0  0  0  0  0  0  0  0  0  0
   58.0370   24.2219   43.4873 H   0  0  0  0  0  0  0  0  0  0  0  0
   57.6106   24.6955   46.1333 H   0  0  0  0  0  0  0  0  0  0  0  0
   59.2528   24.4763   45.4154 H   0  0  0  0  0  0  0  0  0  0  0  0
   58.9121   26.2988   48.6478 H   0  0  0  0  0  0  0  0  0  0  0  0
   60.5852   26.9526   48.7468 H   0  0  0  0  0  0  0  0  0  0  0  0
   60.5985   29.4960   50.0764 H   0  0  0  0  0  0  0  0  0  0  0  0
   58.7457   31.2339   49.7428 H   0  0  0  0  0  0  0  0  0  0  0  0
   60.2254   31.8127   50.5979 H   0  0  0  0  0  0  0  0  0  0  0  0
   60.6962   34.6164   47.1945 H   0  0  0  0  0  0  0  0  0  0  0  0
   62.9394   34.9560   46.1422 H   0  0  0  0  0  0  0  0  0  0  0  0
   64.7054   33.2054   46.3692 H   0  0  0  0  0  0  0  0  0  0  0  0
   64.2384   31.1093   47.6510 H   0  0  0  0  0  0  0  0  0  0  0  0
   60.5980   28.5240   45.3830 H   0  0  0  0  0  0  0  0  0  0  0  0
   60.3350   28.9510   43.6990 H   0  0  0  0  0  0  0  0  0  0  0  0
   59.2971   30.7367   43.4848 H   0  0  0  0  0  0  0  0  0  0  0  0
   57.6521   31.1621   42.8634 H   0  0  0  0  0  0  0  0  0  0  0  0
   57.5648   31.0163   46.4096 H   0  0  0  0  0  0  0  0  0  0  0  0
   57.5362   33.0005   47.9208 H   0  0  0  0  0  0  0  0  0  0  0  0
   58.1856   35.2476   47.0503 H   0  0  0  0  0  0  0  0  0  0  0  0
   58.8686   35.5109   44.6637 H   0  0  0  0  0  0  0  0  0  0  0  0
   58.9055   33.5326   43.1461 H   0  0  0  0  0  0  0  0  0  0  0  0
  1  2  1  0
  2  3  1  0
  3  4  1  0
  4  5  2  0
  4  6  1  0
  6  7  1  0
  7  8  1  0
  8  9  2  0
  8 10  1  0
 10 11  1  0
 11 12  1  0
 12 13  1  0
 13 14  2  0
 14 15  1  0
 15 16  2  0
 16 17  1  0
 17 18  2  0
 18 19  1  0
  3 20  1  0
 20 21  2  0
 21 22  1  0
 21 23  1  0
 23 24  1  0
 24 25  1  0
 25 26  2  0
 26 27  1  0
 27 28  2  0
 28 29  1  0
 29 30  2  0
 23 31  1  0
 31 32  2  0
 31 33  1  0
 33 34  1  0
 34 35  2  0
 19 10  1  0
 34 20  1  0
 18 13  1  0
 30 25  1  0
  1 36  1  0
  1 37  1  0
  1 38  1  0
  2 39  1  0
  2 40  1  0
  6 41  1  0
  6 42  1  0
 10 43  1  1
 11 44  1  0
 11 45  1  0
 14 46  1  0
 15 47  1  0
 16 48  1  0
 17 49  1  0
 22 50  1  0
 22 51  1  0
 24 52  1  0
 24 53  1  0
 26 54  1  0
 27 55  1  0
 28 56  1  0
 29 57  1  0
 30 58  1  0
M  CHG  1  33  -1
M  END
>  <UniqueID>  (35) 
29

>  <SMILES>  (35) 
CCN(C(=O)COC(=O)[C@@H]1COc2ccccc2O1)c1c(N)n(Cc2ccccc2)c(=O)[n-]c1=O

>  <Energy>  (35) 
71.57194948305391

>  <Genealogy>  (35) 
CCN(C(=O)COC(=O)C1COc2ccccc2O1)c1c(N)n(Cc2ccccc2)c(=O)[n-]c1=O (protonated)
CCN(C(=O)COC(=O)[C@@H]1COc2ccccc2O1)c1c(N)n(Cc2ccccc2)c(=O)[n-]c1=O (chirality)
CCN(C(=O)COC(=O)[C@@H]1COc2ccccc2O1)c1c(N)n(Cc2ccccc2)c(=O)[n-]c1=O (3D coordinates assigned)
CCN(C(=O)COC(=O)[C@@H]1COc2ccccc2O1)c1c(N)n(Cc2ccccc2)c(=O)[n-]c1=O (nonaromatic ring conformer: 71.57194948305391 kcal/mol)

>  <smiles>  (35) 
CCN(C(=O)COC(=O)C1COc2ccccc2O1)c1c(N)n(Cc2ccccc2)c(=O)[nH]c1=O

>  <score_type>  (35) 
oracle

>  <origin>  (35) 
adg

>  <m_score__min__energy>  (35) 
-10.01

>  <m_primary>  (35) 
energy

$$$$
35:0
     RDKit          3D

 59 62  0  0  0  0  0  0  0  0999 V2000
   68.3460   33.5210   50.8750 C   0  0  0  0  0  0  0  0  0  0  0  0
   67.7670   32.2740   50.5020 O   0  0  0  0  0  0  0  0  0  0  0  0
   66.3900   32.0070   50.5060 C   0  0  0  0  0  0  0  0  0  0  0  0
   65.8300   30.9550   51.2500 C   0  0  0  0  0  0  0  0  0  0  0  0
   64.4900   30.7460   51.2110 N   0  0  0  0  0  0  0  0  0  0  0  0
   63.6720   31.5390   50.4740 C   0  0  0  0  0  0  0  0  0  0  0  0
   64.2160   32.5980   49.7320 C   0  0  0  0  0  0  0  0  0  0  0  0
   63.3740   33.4370   48.9170 N   0  0  0  0  0  0  0  0  0  0  0  0
   63.7310   33.7180   47.5220 C   0  0  0  0  0  0  0  0  0  0  0  0
   62.4700   33.8200   46.6370 C   0  0  0  0  0  0  0  0  0  0  0  0
   61.2770   32.9870   47.1950 C   0  0  0  0  0  0  0  0  0  0  0  0
   61.6530   31.4610   47.2450 C   0  0  0  0  0  0  0  0  0  0  0  0
   60.7650   30.5520   46.3730 C   0  0  0  0  0  0  0  0  0  0  0  0
   59.3190   30.8210   46.5340 N   0  0  0  0  0  0  0  0  0  0  0  0
   58.5840   29.9010   47.4320 C   0  0  0  0  0  0  0  0  0  0  0  0
   58.3740   28.5130   46.8540 C   0  0  0  0  0  0  0  0  0  0  0  0
   59.2200   27.4630   47.2540 C   0  0  0  0  0  0  0  0  0  0  0  0
   59.0260   26.1690   46.7710 C   0  0  0  0  0  0  0  0  0  0  0  0
   58.0020   25.9080   45.8630 C   0  0  0  0  0  0  0  0  0  0  0  0
   57.1850   26.9470   45.4130 C   0  0  0  0  0  0  0  0  0  0  0  0
   57.3730   28.2620   45.8860 C   0  0  0  0  0  0  0  0  0  0  0  0
   56.5960   29.3300   45.4070 O   0  0  0  0  0  0  0  0  0  0  0  0
   56.7430   29.9280   44.1240 C   0  0  0  0  0  0  0  0  0  0  0  0
   58.9160   32.2420   46.6200 C   0  0  0  0  0  0  0  0  0  0  0  0
   60.0570   33.2010   46.2580 C   0  0  0  0  0  0  0  0  0  0  0  0
   60.9200   33.5120   48.6320 C   0  0  0  0  0  0  0  0  0  0  0  0
   62.1330   34.0130   49.4390 C   0  0  0  0  0  0  0  0  0  0  0  0
   65.5660   32.7980   49.7650 N   0  0  0  0  0  0  0  0  0  0  0  0
   68.3807   33.5957   51.9719 H   0  0  0  0  0  0  0  0  0  0  0  0
   69.3668   33.5869   50.4706 H   0  0  0  0  0  0  0  0  0  0  0  0
   67.7376   34.3434   50.4706 H   0  0  0  0  0  0  0  0  0  0  0  0
   66.4740   30.3048   51.8604 H   0  0  0  0  0  0  0  0  0  0  0  0
   62.5880   31.3525   50.4584 H   0  0  0  0  0  0  0  0  0  0  0  0
   64.2804   34.6699   47.4762 H   0  0  0  0  0  0  0  0  0  0  0  0
   64.3557   32.8936   47.1476 H   0  0  0  0  0  0  0  0  0  0  0  0
   62.1656   34.8754   46.5779 H   0  0  0  0  0  0  0  0  0  0  0  0
   62.7246   33.4150   45.6465 H   0  0  0  0  0  0  0  0  0  0  0  0
   62.6934   31.3528   46.9046 H   0  0  0  0  0  0  0  0  0  0  0  0
   61.5033   31.1372   48.2856 H   0  0  0  0  0  0  0  0  0  0  0  0
   61.0343   30.7085   45.3180 H   0  0  0  0  0  0  0  0  0  0  0  0
   60.9423   29.5154   46.6957 H   0  0  0  0  0  0  0  0  0  0  0  0
   59.1527   29.8036   48.3685 H   0  0  0  0  0  0  0  0  0  0  0  0
   57.5858   30.3363   47.5868 H   0  0  0  0  0  0  0  0  0  0  0  0
   60.0433   27.6645   47.9551 H   0  0  0  0  0  0  0  0  0  0  0  0
   59.6826   25.3531   47.1075 H   0  0  0  0  0  0  0  0  0  0  0  0
   57.8371   24.8827   45.5004 H   0  0  0  0  0  0  0  0  0  0  0  0
   56.3884   26.7381   44.6837 H   0  0  0  0  0  0  0  0  0  0  0  0
   57.0041   30.9900   44.2422 H   0  0  0  0  0  0  0  0  0  0  0  0
   57.5415   29.4137   43.5691 H   0  0  0  0  0  0  0  0  0  0  0  0
   55.7971   29.8425   43.5691 H   0  0  0  0  0  0  0  0  0  0  0  0
   58.0786   32.4133   45.9276 H   0  0  0  0  0  0  0  0  0  0  0  0
   58.6283   32.4445   47.6622 H   0  0  0  0  0  0  0  0  0  0  0  0
   60.3650   33.0184   45.2179 H   0  0  0  0  0  0  0  0  0  0  0  0
   59.6992   34.2345   46.3762 H   0  0  0  0  0  0  0  0  0  0  0  0
   60.2069   34.3432   48.5286 H   0  0  0  0  0  0  0  0  0  0  0  0
   60.5014   32.6589   49.1860 H   0  0  0  0  0  0  0  0  0  0  0  0
   62.1859   35.1095   49.3686 H   0  0  0  0  0  0  0  0  0  0  0  0
   62.0128   33.7039   50.4878 H   0  0  0  0  0  0  0  0  0  0  0  0
   65.9860   33.5870   49.2220 H   0  0  0  0  0  0  0  0  0  0  0  0
  1  2  1  0
  2  3  1  0
  3  4  2  0
  4  5  1  0
  5  6  2  0
  6  7  1  0
  7  8  1  0
  8  9  1  0
  9 10  1  0
 10 11  1  0
 11 12  1  0
 12 13  1  0
 13 14  1  0
 14 15  1  0
 15 16  1  0
 16 17  2  0
 17 18  1  0
 18 19  2  0
 19 20  1  0
 20 21  2  0
 21 22  1  0
 22 23  1  0
 14 24  1  0
 24 25  1  0
 11 26  1  0
 26 27  1  0
  7 28  2  0
 28  3  1  0
 27  8  1  0
 25 11  1  0
 21 16  1  0
  1 29  1  0
  1 30  1  0
  1 31  1  0
  4 32  1  0
  6 33  1  0
  9 34  1  0
  9 35  1  0
 10 36  1  0
 10 37  1  0
 12 38  1  0
 12 39  1  0
 13 40  1  0
 13 41  1  0
 15 42  1  0
 15 43  1  0
 17 44  1  0
 18 45  1  0
 19 46  1  0
 20 47  1  0
 23 48  1  0
 23 49  1  0
 23 50  1  0
 24 51  1  0
 24 52  1  0
 25 53  1  0
 25 54  1  0
 26 55  1  0
 26 56  1  0
 27 57  1  0
 27 58  1  0
 28 59  1  0
M  CHG  1  28   1
M  END
>  <UniqueID>  (36) 
30

>  <SMILES>  (36) 
COc1cncc(N2CCC3(CCN(Cc4ccccc4OC)CC3)CC2)[nH+]1

>  <Energy>  (36) 
84.09781330030535

>  <Genealogy>  (36) 
COc1cncc(N2CCC3(CCN(Cc4ccccc4OC)CC3)CC2)[nH+]1 (protonated)
COc1cncc(N2CCC3(CCN(Cc4ccccc4OC)CC3)CC2)[nH+]1 (3D coordinates assigned)
COc1cncc(N2CCC3(CCN(Cc4ccccc4OC)CC3)CC2)[nH+]1 (nonaromatic ring conformer: 84.09781330030535 kcal/mol)

>  <smiles>  (36) 
COc1cncc(N2CCC3(CCN(Cc4ccccc4OC)CC3)CC2)n1

>  <score_type>  (36) 
oracle

>  <origin>  (36) 
adg

>  <m_score__min__energy>  (36) 
-7

>  <m_primary>  (36) 
energy

$$$$
36:0
     RDKit          3D

 18 19  0  0  0  0  0  0  0  0999 V2000
   59.4780   34.0970   45.9790 C   0  0  0  0  0  0  0  0  0  0  0  0
   59.5940   32.8020   46.4870 C   0  0  0  0  0  0  0  0  0  0  0  0
   58.7750   31.7780   45.9990 C   0  0  0  0  0  0  0  0  0  0  0  0
   57.8270   32.0440   44.9910 C   0  0  0  0  0  0  0  0  0  0  0  0
   56.9500   30.9740   44.4610 C   0  0  0  0  0  0  0  0  0  0  0  0
   56.6650   30.6870   43.1390 C   0  0  0  0  0  0  0  0  0  0  0  0
   55.8290   29.6370   43.1480 N   0  0  0  0  0  0  0  0  0  0  0  0
   55.6090   29.2950   44.4060 N   0  0  0  0  0  0  0  0  0  0  0  0
   56.2780   30.0900   45.2280 N   0  0  0  0  0  0  0  0  0  0  0  0
   57.7200   33.3540   44.4870 C   0  0  0  0  0  0  0  0  0  0  0  0
   58.5420   34.3730   44.9790 C   0  0  0  0  0  0  0  0  0  0  0  0
   60.1231   34.8997   46.3657 H   0  0  0  0  0  0  0  0  0  0  0  0
   60.3319   32.5859   47.2737 H   0  0  0  0  0  0  0  0  0  0  0  0
   58.8716   30.7600   46.4043 H   0  0  0  0  0  0  0  0  0  0  0  0
   57.0482   31.2154   42.2536 H   0  0  0  0  0  0  0  0  0  0  0  0
   55.4140   29.1600   42.3190 H   0  0  0  0  0  0  0  0  0  0  0  0
   56.9844   33.5779   43.7004 H   0  0  0  0  0  0  0  0  0  0  0  0
   58.4515   35.3933   44.5781 H   0  0  0  0  0  0  0  0  0  0  0  0
  1  2  2  0
  2  3  1  0
  3  4  2  0
  4  5  1  0
  5  6  1  0
  6  7  2  0
  7  8  1  0
  8  9  1  0
  4 10  1  0
 10 11  2  0
 11  1  1  0
  9  5  2  0
  1 12  1  0
  2 13  1  0
  3 14  1  0
  6 15  1  0
  7 16  1  0
 10 17  1  0
 11 18  1  0
M  CHG  2   7   1   8  -1
M  END
>  <UniqueID>  (37) 
31

>  <SMILES>  (37) 
c1ccc(-c2c[nH+][n-]n2)cc1

>  <Energy>  (37) 
54.3866422909683

>  <Genealogy>  (37) 
c1ccc(-c2c[nH+][n-]n2)cc1 (protonated)
c1ccc(-c2c[nH+][n-]n2)cc1 (3D coordinates assigned)
c1ccc(-c2c[nH+][n-]n2)cc1 (optimized conformer: 54.3866422909683 kcal/mol)

>  <smiles>  (37) 
c1ccc(-c2cn[nH]n2)cc1

>  <score_type>  (37) 
oracle

>  <origin>  (37) 
adg

>  <m_score__min__energy>  (37) 
-5.9100000000000001

>  <m_primary>  (37) 
energy

$$$$
37:0
     RDKit          3D

 38 40  0  0  0  0  0  0  0  0999 V2000
   57.5500   29.3290   45.7310 C   0  0  0  0  0  0  0  0  0  0  0  0
   57.1210   30.6550   45.2590 N   0  0  0  0  0  0  0  0  0  0  0  0
   56.7700   30.6290   43.8120 C   0  0  0  0  0  0  0  0  0  0  0  0
   57.7250   31.4480   42.9310 C   0  0  0  0  0  0  0  0  0  0  0  0
   57.7870   32.9070   43.4020 C   0  0  0  0  0  0  0  0  0  0  0  0
   57.8140   33.0250   44.9450 C   0  0  2  0  0  0  0  0  0  0  0  0
   58.7140   34.1510   45.4200 C   0  0  0  0  0  0  0  0  0  0  0  0
   58.6310   35.2560   44.8180 O   0  0  0  0  0  0  0  0  0  0  0  0
   59.6790   34.0290   46.5490 C   0  0  0  0  0  0  0  0  0  0  0  0
   59.2360   34.2970   47.8570 C   0  0  0  0  0  0  0  0  0  0  0  0
   60.1090   34.2030   48.9440 C   0  0  0  0  0  0  0  0  0  0  0  0
   61.4480   33.8450   48.7440 C   0  0  0  0  0  0  0  0  0  0  0  0
   62.3320   33.7460   49.8300 C   0  0  0  0  0  0  0  0  0  0  0  0
   63.6670   33.3920   49.6170 C   0  0  0  0  0  0  0  0  0  0  0  0
   64.1280   33.1350   48.3230 C   0  0  0  0  0  0  0  0  0  0  0  0
   63.2570   33.2310   47.2330 C   0  0  0  0  0  0  0  0  0  0  0  0
   61.9120   33.5850   47.4350 C   0  0  0  0  0  0  0  0  0  0  0  0
   61.0290   33.6840   46.3490 C   0  0  0  0  0  0  0  0  0  0  0  0
   58.1190   31.6800   45.6350 C   0  0  0  0  0  0  0  0  0  0  0  0
   57.5545   29.3151   46.8309 H   0  0  0  0  0  0  0  0  0  0  0  0
   56.8536   28.5638   45.3575 H   0  0  0  0  0  0  0  0  0  0  0  0
   58.5626   29.1168   45.3575 H   0  0  0  0  0  0  0  0  0  0  0  0
   56.7902   29.5843   43.4683 H   0  0  0  0  0  0  0  0  0  0  0  0
   55.7729   31.0833   43.7145 H   0  0  0  0  0  0  0  0  0  0  0  0
   58.7319   31.0086   42.9858 H   0  0  0  0  0  0  0  0  0  0  0  0
   57.3534   31.4278   41.8959 H   0  0  0  0  0  0  0  0  0  0  0  0
   58.6975   33.3716   42.9956 H   0  0  0  0  0  0  0  0  0  0  0  0
   56.8811   33.4161   43.0412 H   0  0  0  0  0  0  0  0  0  0  0  0
   56.7948   33.2972   45.2567 H   0  0  0  0  0  0  0  0  0  0  0  0
   58.1879   34.5845   48.0264 H   0  0  0  0  0  0  0  0  0  0  0  0
   59.7432   34.4109   49.9603 H   0  0  0  0  0  0  0  0  0  0  0  0
   61.9733   33.9474   50.8502 H   0  0  0  0  0  0  0  0  0  0  0  0
   64.3569   33.3154   50.4703 H   0  0  0  0  0  0  0  0  0  0  0  0
   65.1797   32.8562   48.1612 H   0  0  0  0  0  0  0  0  0  0  0  0
   63.6251   33.0292   46.2163 H   0  0  0  0  0  0  0  0  0  0  0  0
   61.3957   33.4899   45.3303 H   0  0  0  0  0  0  0  0  0  0  0  0
   59.1190   31.3377   45.3304 H   0  0  0  0  0  0  0  0  0  0  0  0
   58.0782   31.8269   46.7244 H   0  0  0  0  0  0  0  0  0  0  0  0
  1  2  1  0
  2  3  1  0
  3  4  1  0
  4  5  1  0
  5  6  1  0
  6  7  1  0
  7  8  2  0
  7  9  1  0
  9 10  2  0
 10 11  1  0
 11 12  2  0
 12 13  1  0
 13 14  2  0
 14 15  1  0
 15 16  2  0
 16 17  1  0
 17 18  2  0
  6 19  1  0
 19  2  1  0
 18  9  1  0
 17 12  1  0
  1 20  1  0
  1 21  1  0
  1 22  1  0
  3 23  1  0
  3 24  1  0
  4 25  1  0
  4 26  1  0
  5 27  1  0
  5 28  1  0
  6 29  1  1
 10 30  1  0
 11 31  1  0
 13 32  1  0
 14 33  1  0
 15 34  1  0
 16 35  1  0
 18 36  1  0
 19 37  1  0
 19 38  1  0
M  END
>  <UniqueID>  (38) 
32

>  <SMILES>  (38) 
CN1CCC[C@H](C(=O)c2ccc3ccccc3c2)C1

>  <Energy>  (38) 
54.347116769713196

>  <Genealogy>  (38) 
CN1CCC[C@H](C(=O)c2ccc3ccccc3c2)C1 (chirality)
CN1CCC[C@H](C(=O)c2ccc3ccccc3c2)C1 (3D coordinates assigned)
CN1CCC[C@H](C(=O)c2ccc3ccccc3c2)C1 (nonaromatic ring conformer: 54.347116769713196 kcal/mol)

>  <smiles>  (38) 
CN1CCCC(C(=O)c2ccc3ccccc3c2)C1

>  <score_type>  (38) 
oracle

>  <origin>  (38) 
adg

>  <m_score__min__energy>  (38) 
-8.3200000000000003

>  <m_primary>  (38) 
energy

$$$$
38:0
     RDKit          3D

 34 36  0  0  0  0  0  0  0  0999 V2000
   58.3200   30.6670   44.1160 C   0  0  0  0  0  0  0  0  0  0  0  0
   58.3120   31.8770   44.9500 N   0  0  0  0  0  0  0  0  0  0  0  0
   57.4970   32.9330   44.3210 C   0  0  0  0  0  0  0  0  0  0  0  0
   57.2370   34.1180   45.2780 C   0  0  0  0  0  0  0  0  0  0  0  0
   58.0640   34.0850   46.5000 N   0  0  0  0  0  0  0  0  0  0  0  0
   59.6890   34.6920   46.2490 S   0  0  0  0  0  0  0  0  0  0  0  0
   59.6500   36.1940   46.2110 O   0  0  0  0  0  0  0  0  0  0  0  0
   60.2000   34.2140   44.9190 O   0  0  0  0  0  0  0  0  0  0  0  0
   60.8090   34.1940   47.5200 C   0  0  0  0  0  0  0  0  0  0  0  0
   60.3960   34.1380   48.8710 C   0  0  0  0  0  0  0  0  0  0  0  0
   61.2850   33.6960   49.8790 C   0  0  0  0  0  0  0  0  0  0  0  0
   62.5980   33.3080   49.5540 C   0  0  0  0  0  0  0  0  0  0  0  0
   62.9710   33.3890   48.2160 C   0  0  0  0  0  0  0  0  0  0  0  0
   64.1370   33.0840   47.6360 N   0  0  0  0  0  0  0  0  0  0  0  0
   63.9700   33.3250   46.3620 O   0  0  0  0  0  0  0  0  0  0  0  0
   62.7720   33.7690   46.0650 N   0  0  0  0  0  0  0  0  0  0  0  0
   62.1240   33.8140   47.2430 C   0  0  0  0  0  0  0  0  0  0  0  0
   58.0290   32.7920   47.2190 C   0  0  0  0  0  0  0  0  0  0  0  0
   57.8060   31.5810   46.2960 C   0  0  0  0  0  0  0  0  0  0  0  0
   58.3259   29.7766   44.7618 H   0  0  0  0  0  0  0  0  0  0  0  0
   57.4219   30.6534   43.4810 H   0  0  0  0  0  0  0  0  0  0  0  0
   59.2182   30.6653   43.4810 H   0  0  0  0  0  0  0  0  0  0  0  0
   58.0257   33.3057   43.4313 H   0  0  0  0  0  0  0  0  0  0  0  0
   56.5240   32.4947   44.0544 H   0  0  0  0  0  0  0  0  0  0  0  0
   57.4503   35.0530   44.7392 H   0  0  0  0  0  0  0  0  0  0  0  0
   56.1869   34.0488   45.5981 H   0  0  0  0  0  0  0  0  0  0  0  0
   59.3736   34.4410   49.1410 H   0  0  0  0  0  0  0  0  0  0  0  0
   60.9471   33.6553   50.9250 H   0  0  0  0  0  0  0  0  0  0  0  0
   63.2994   32.9558   50.3247 H   0  0  0  0  0  0  0  0  0  0  0  0
   65.0080   32.7250   48.0850 H   0  0  0  0  0  0  0  0  0  0  0  0
   58.9873   32.6588   47.7424 H   0  0  0  0  0  0  0  0  0  0  0  0
   57.1761   32.8310   47.9126 H   0  0  0  0  0  0  0  0  0  0  0  0
   58.3400   30.7096   46.7027 H   0  0  0  0  0  0  0  0  0  0  0  0
   56.7291   31.3642   46.2378 H   0  0  0  0  0  0  0  0  0  0  0  0
  1  2  1  0
  2  3  1  0
  3  4  1  0
  4  5  1  0
  5  6  1  0
  6  7  2  0
  6  8  2  0
  6  9  1  0
  9 10  2  0
 10 11  1  0
 11 12  2  0
 12 13  1  0
 13 14  2  0
 14 15  1  0
 15 16  1  0
 16 17  2  0
  5 18  1  0
 18 19  1  0
 19  2  1  0
 17  9  1  0
 17 13  1  0
  1 20  1  0
  1 21  1  0
  1 22  1  0
  3 23  1  0
  3 24  1  0
  4 25  1  0
  4 26  1  0
 10 27  1  0
 11 28  1  0
 12 29  1  0
 14 30  1  0
 18 31  1  0
 18 32  1  0
 19 33  1  0
 19 34  1  0
M  CHG  1  14   1
M  END
>  <UniqueID>  (39) 
33

>  <SMILES>  (39) 
CN1CCN(S(=O)(=O)c2cccc3[nH+]onc23)CC1

>  <Energy>  (39) 
88.04442784289743

>  <Genealogy>  (39) 
CN1CCN(S(=O)(=O)c2cccc3[nH+]onc23)CC1 (protonated)
CN1CCN(S(=O)(=O)c2cccc3[nH+]onc23)CC1 (3D coordinates assigned)
CN1CCN(S(=O)(=O)c2cccc3[nH+]onc23)CC1 (nonaromatic ring conformer: 88.04442784289743 kcal/mol)

>  <smiles>  (39) 
CN1CCN(S(=O)(=O)c2cccc3nonc23)CC1

>  <score_type>  (39) 
oracle

>  <origin>  (39) 
adg

>  <m_score__min__energy>  (39) 
-6.5999999999999996

>  <m_primary>  (39) 
energy

$$$$
39:0
     RDKit          3D

 32 34  0  0  0  0  0  0  0  0999 V2000
   56.2647   33.9610   45.5279 H   0  0  0  0  0  0  0  0  0  0  0  0
   57.2920   33.6540   45.2820 C   0  0  0  0  0  0  0  0  0  0  0  0
   58.2810   34.5140   45.5660 C   0  0  0  0  0  0  0  0  0  0  0  0
   58.2590   35.4954   45.0697 H   0  0  0  0  0  0  0  0  0  0  0  0
   59.3970   34.2440   46.4940 C   0  0  0  0  0  0  0  0  0  0  0  0
   59.2630   34.4680   47.8760 C   0  0  0  0  0  0  0  0  0  0  0  0
   58.3089   34.8355   48.2819 H   0  0  0  0  0  0  0  0  0  0  0  0
   60.3390   34.2250   48.7360 C   0  0  0  0  0  0  0  0  0  0  0  0
   60.2237   34.3826   49.8185 H   0  0  0  0  0  0  0  0  0  0  0  0
   61.5610   33.7820   48.2210 C   0  0  0  0  0  0  0  0  0  0  0  0
   62.4045   33.5839   48.8986 H   0  0  0  0  0  0  0  0  0  0  0  0
   61.7100   33.5910   46.8440 C   0  0  0  0  0  0  0  0  0  0  0  0
   62.6744   33.2511   46.4384 H   0  0  0  0  0  0  0  0  0  0  0  0
   60.6360   33.8310   45.9810 C   0  0  0  0  0  0  0  0  0  0  0  0
   60.7629   33.6956   44.8968 H   0  0  0  0  0  0  0  0  0  0  0  0
   57.4780   32.3280   44.6650 C   0  0  0  0  0  0  0  0  0  0  0  0
   57.7780   32.1500   43.3640 N   0  0  0  0  0  0  0  0  0  0  0  0
   57.8780   30.8410   43.1990 N   0  0  0  0  0  0  0  0  0  0  0  0
   58.0970   30.3810   42.2880 H   0  0  0  0  0  0  0  0  0  0  0  0
   57.6420   30.2620   44.3920 C   0  0  0  0  0  0  0  0  0  0  0  0
   57.6390   28.8080   44.6700 C   0  0  0  0  0  0  0  0  0  0  0  0
   57.4080   28.3050   45.9650 C   0  0  0  0  0  0  0  0  0  0  0  0
   57.2220   29.0000   46.7971 H   0  0  0  0  0  0  0  0  0  0  0  0
   57.4140   26.9260   46.1980 C   0  0  0  0  0  0  0  0  0  0  0  0
   57.2325   26.5402   47.2120 H   0  0  0  0  0  0  0  0  0  0  0  0
   57.6500   26.0370   45.1460 C   0  0  0  0  0  0  0  0  0  0  0  0
   57.6552   24.9529   45.3324 H   0  0  0  0  0  0  0  0  0  0  0  0
   57.8790   26.5250   43.8590 C   0  0  0  0  0  0  0  0  0  0  0  0
   58.0646   25.8246   43.0314 H   0  0  0  0  0  0  0  0  0  0  0  0
   57.8730   27.9030   43.6190 C   0  0  0  0  0  0  0  0  0  0  0  0
   58.0524   28.2813   42.6018 H   0  0  0  0  0  0  0  0  0  0  0  0
   57.4010   31.1790   45.2980 O   0  0  0  0  0  0  0  0  0  0  0  0
  1  2  1  0
  2  3  2  0
  3  4  1  0
  3  5  1  0
  5  6  2  0
  6  7  1  0
  6  8  1  0
  8  9  1  0
  8 10  2  0
 10 11  1  0
 10 12  1  0
 12 13  1  0
 12 14  2  0
 14 15  1  0
  2 16  1  0
 16 17  2  0
 17 18  1  0
 18 19  1  0
 18 20  2  0
 20 21  1  0
 21 22  2  0
 22 23  1  0
 22 24  1  0
 24 25  1  0
 24 26  2  0
 26 27  1  0
 26 28  1  0
 28 29  1  0
 28 30  2  0
 30 31  1  0
 20 32  1  0
 14  5  1  0
 32 16  1  0
 30 21  1  0
M  CHG  1  18   1
M  END
>  <UniqueID>  (40) 
34

>  <SMILES>  (40) 
C(=C\c1n[nH+]c(-c2ccccc2)o1)\c1ccccc1

>  <Energy>  (40) 
76.2643556746221

>  <Genealogy>  (40) 
C(=Cc1n[nH+]c(-c2ccccc2)o1)c1ccccc1 (protonated)
C(=C\c1n[nH+]c(-c2ccccc2)o1)\c1ccccc1 (cis-trans isomerization)
C(=C\c1n[nH+]c(-c2ccccc2)o1)\c1ccccc1 (3D coordinates assigned)
C(=C\c1n[nH+]c(-c2ccccc2)o1)\c1ccccc1 (optimized conformer: 76.2643556746221 kcal/mol)

>  <smiles>  (40) 
C(=Cc1nnc(-c2ccccc2)o1)c1ccccc1

>  <score_type>  (40) 
oracle

>  <origin>  (40) 
adg

>  <m_score__min__energy>  (40) 
-6.2699999999999996

>  <m_primary>  (40) 
energy

$$$$
40:0
     RDKit          3D

 59 63  0  0  0  0  0  0  0  0999 V2000
   57.2650   27.7900   45.0270 O   0  0  0  0  0  0  0  0  0  0  0  0
   57.3200   28.9320   45.5520 C   0  0  0  0  0  0  0  0  0  0  0  0
   56.5270   29.9930   44.9990 N   0  0  0  0  0  0  0  0  0  0  0  0
   56.9540   30.9140   43.9460 C   0  0  0  0  0  0  0  0  0  0  0  0
   57.5130   32.1860   44.5330 C   0  0  0  0  0  0  0  0  0  0  0  0
   58.5270   32.8900   43.8610 C   0  0  0  0  0  0  0  0  0  0  0  0
   59.0200   34.0890   44.3850 C   0  0  0  0  0  0  0  0  0  0  0  0
   58.5080   34.5910   45.5840 C   0  0  0  0  0  0  0  0  0  0  0  0
   57.5070   33.8940   46.2650 C   0  0  0  0  0  0  0  0  0  0  0  0
   57.0170   32.6910   45.7470 C   0  0  0  0  0  0  0  0  0  0  0  0
   58.1430   29.1250   46.7530 C   0  0  0  0  0  0  0  0  0  0  0  0
   58.7940   28.1200   47.4690 C   0  0  0  0  0  0  0  0  0  0  0  0
   59.5870   28.6340   48.5030 C   0  0  0  0  0  0  0  0  0  0  0  0
   60.3810   27.9090   49.3900 C   0  0  0  0  0  0  0  0  0  0  0  0
   60.3990   26.6490   49.3480 O   0  0  0  0  0  0  0  0  0  0  0  0
   61.1340   28.6280   50.3460 C   0  0  0  0  0  0  0  0  0  0  0  0
   62.0210   27.9570   51.3260 C   0  0  0  0  0  0  0  0  0  0  0  0
   63.2110   28.5790   51.7330 C   0  0  0  0  0  0  0  0  0  0  0  0
   64.0590   27.9430   52.6420 C   0  0  0  0  0  0  0  0  0  0  0  0
   63.7180   26.6810   53.1280 C   0  0  0  0  0  0  0  0  0  0  0  0
   62.5730   26.0760   52.7130 N   0  0  0  0  0  0  0  0  0  0  0  0
   61.7290   26.6770   51.8300 C   0  0  0  0  0  0  0  0  0  0  0  0
   61.0390   29.9930   50.3760 N   0  0  0  0  0  0  0  0  0  0  0  0
   60.2710   30.6860   49.5260 N   0  0  0  0  0  0  0  0  0  0  0  0
   60.2750   32.1510   49.5970 C   0  0  0  0  0  0  0  0  0  0  0  0
   61.3670   32.7550   48.6880 C   0  0  0  0  0  0  0  0  0  0  0  0
   60.8260   33.0710   47.2780 C   0  0  0  0  0  0  0  0  0  0  0  0
   61.8890   33.7500   46.3880 C   0  0  0  0  0  0  0  0  0  0  0  0
   63.3370   33.4110   46.7870 C   0  0  0  0  0  0  0  0  0  0  0  0
   63.4420   31.9880   47.3410 C   0  0  0  0  0  0  0  0  0  0  0  0
   62.5870   31.8010   48.6100 C   0  0  0  0  0  0  0  0  0  0  0  0
   59.5460   30.0100   48.5930 C   0  0  0  0  0  0  0  0  0  0  0  0
   58.5250   30.6360   47.4080 S   0  0  0  0  0  0  0  0  0  0  0  0
   57.7299   30.4281   43.3362 H   0  0  0  0  0  0  0  0  0  0  0  0
   56.0803   31.1682   43.3278 H   0  0  0  0  0  0  0  0  0  0  0  0
   58.9347   32.4959   42.9184 H   0  0  0  0  0  0  0  0  0  0  0  0
   59.8114   34.6372   43.8529 H   0  0  0  0  0  0  0  0  0  0  0  0
   58.8937   35.5367   45.9925 H   0  0  0  0  0  0  0  0  0  0  0  0
   57.1044   34.2913   47.2084 H   0  0  0  0  0  0  0  0  0  0  0  0
   56.2391   32.1370   46.2928 H   0  0  0  0  0  0  0  0  0  0  0  0
   58.6958   27.0471   47.2470 H   0  0  0  0  0  0  0  0  0  0  0  0
   63.4765   29.5696   51.3352 H   0  0  0  0  0  0  0  0  0  0  0  0
   64.9872   28.4327   52.9716 H   0  0  0  0  0  0  0  0  0  0  0  0
   64.3766   26.1740   53.8485 H   0  0  0  0  0  0  0  0  0  0  0  0
   62.3370   25.1250   53.0760 H   0  0  0  0  0  0  0  0  0  0  0  0
   60.8135   26.1585   51.5089 H   0  0  0  0  0  0  0  0  0  0  0  0
   59.2928   32.5278   49.2756 H   0  0  0  0  0  0  0  0  0  0  0  0
   60.4854   32.4472   50.6353 H   0  0  0  0  0  0  0  0  0  0  0  0
   61.6892   33.7075   49.1340 H   0  0  0  0  0  0  0  0  0  0  0  0
   60.5105   32.1317   46.8002 H   0  0  0  0  0  0  0  0  0  0  0  0
   59.9806   33.7663   47.3870 H   0  0  0  0  0  0  0  0  0  0  0  0
   61.7301   33.4265   45.3487 H   0  0  0  0  0  0  0  0  0  0  0  0
   61.7667   34.8361   46.5122 H   0  0  0  0  0  0  0  0  0  0  0  0
   63.9829   33.4993   45.9010 H   0  0  0  0  0  0  0  0  0  0  0  0
   63.6548   34.1136   47.5715 H   0  0  0  0  0  0  0  0  0  0  0  0
   63.0971   31.2807   46.5724 H   0  0  0  0  0  0  0  0  0  0  0  0
   64.4930   31.8025   47.6075 H   0  0  0  0  0  0  0  0  0  0  0  0
   62.2189   30.7646   48.6307 H   0  0  0  0  0  0  0  0  0  0  0  0
   63.2327   32.0353   49.4691 H   0  0  0  0  0  0  0  0  0  0  0  0
  1  2  2  0
  2  3  1  0
  3  4  1  0
  4  5  1  0
  5  6  2  0
  6  7  1  0
  7  8  2  0
  8  9  1  0
  9 10  2  0
  2 11  1  0
 11 12  2  0
 12 13  1  0
 13 14  1  0
 14 15  2  0
 14 16  1  0
 16 17  1  0
 17 18  2  0
 18 19  1  0
 19 20  2  0
 20 21  1  0
 21 22  2  0
 16 23  2  0
 23 24  1  0
 24 25  1  0
 25 26  1  0
 26 27  1  0
 27 28  1  0
 28 29  1  0
 29 30  1  0
 30 31  1  0
 24 32  1  0
 32 33  1  0
 10  5  1  0
 33 11  1  0
 32 13  2  0
 22 17  1  0
 31 26  1  0
  4 34  1  0
  4 35  1  0
  6 36  1  0
  7 37  1  0
  8 38  1  0
  9 39  1  0
 10 40  1  0
 12 41  1  0
 18 42  1  0
 19 43  1  0
 20 44  1  0
 21 45  1  0
 22 46  1  0
 25 47  1  0
 25 48  1  0
 26 49  1  0
 27 50  1  0
 27 51  1  0
 28 52  1  0
 28 53  1  0
 29 54  1  0
 29 55  1  0
 30 56  1  0
 30 57  1  0
 31 58  1  0
 31 59  1  0
M  CHG  2   3  -1  21   1
M  END
>  <UniqueID>  (41) 
35

>  <SMILES>  (41) 
O=C([N-]Cc1ccccc1)c1cc2c(=O)c(-c3ccc[nH+]c3)nn(CC3CCCCC3)c2s1

>  <Energy>  (41) 
101.40516308068455

>  <Genealogy>  (41) 
O=C([N-]Cc1ccccc1)c1cc2c(=O)c(-c3ccc[nH+]c3)nn(CC3CCCCC3)c2s1 (protonated)
O=C([N-]Cc1ccccc1)c1cc2c(=O)c(-c3ccc[nH+]c3)nn(CC3CCCCC3)c2s1 (3D coordinates assigned)
O=C([N-]Cc1ccccc1)c1cc2c(=O)c(-c3ccc[nH+]c3)nn(CC3CCCCC3)c2s1 (nonaromatic ring conformer: 101.40516308068455 kcal/mol)

>  <smiles>  (41) 
O=C(NCc1ccccc1)c1cc2c(=O)c(-c3cccnc3)nn(CC3CCCCC3)c2s1

>  <score_type>  (41) 
oracle

>  <origin>  (41) 
adg

>  <m_score__min__energy>  (41) 
-9.3200000000000003

>  <m_primary>  (41) 
energy

$$$$
41:0
     RDKit          3D

 30 30  0  0  0  0  0  0  0  0999 V2000
   56.4940   30.3180   42.8520 C   0  0  0  0  0  0  0  0  0  0  0  0
   57.4100   30.0150   44.0310 C   0  0  0  0  0  0  0  0  0  0  0  0
   56.8040   28.9690   44.9100 C   0  0  0  0  0  0  0  0  0  0  0  0
   55.5690   29.0080   45.1670 O   0  0  0  0  0  0  0  0  0  0  0  0
   57.6180   27.9490   45.4190 O   0  0  0  0  0  0  0  0  0  0  0  0
   58.4990   28.0810   46.5040 C   0  0  0  0  0  0  0  0  0  0  0  0
   58.8430   29.3400   47.0320 C   0  0  0  0  0  0  0  0  0  0  0  0
   59.7370   29.4360   48.1030 C   0  0  0  0  0  0  0  0  0  0  0  0
   60.3040   28.2820   48.6470 C   0  0  0  0  0  0  0  0  0  0  0  0
   59.9840   27.0300   48.1180 C   0  0  0  0  0  0  0  0  0  0  0  0
   59.0820   26.9250   47.0510 C   0  0  0  0  0  0  0  0  0  0  0  0
   58.7000   25.3030   46.3740 S   0  0  0  0  0  0  0  0  0  0  0  0
   57.0780   25.1420   47.2070 C   0  0  0  0  0  0  0  0  0  0  0  0
   55.9150   25.1820   46.2130 C   0  0  0  0  0  0  0  0  0  0  0  0
   55.4710   26.5550   45.9910 N   0  0  0  0  0  0  0  0  0  0  0  0
   55.5115   30.6430   43.2250 H   0  0  0  0  0  0  0  0  0  0  0  0
   56.9366   31.1176   42.2398 H   0  0  0  0  0  0  0  0  0  0  0  0
   56.3725   29.4122   42.2398 H   0  0  0  0  0  0  0  0  0  0  0  0
   58.3782   29.6541   43.6537 H   0  0  0  0  0  0  0  0  0  0  0  0
   57.5504   30.9348   44.6177 H   0  0  0  0  0  0  0  0  0  0  0  0
   58.4064   30.2526   46.6000 H   0  0  0  0  0  0  0  0  0  0  0  0
   59.9938   30.4221   48.5174 H   0  0  0  0  0  0  0  0  0  0  0  0
   61.0031   28.3591   49.4927 H   0  0  0  0  0  0  0  0  0  0  0  0
   60.4415   26.1232   48.5403 H   0  0  0  0  0  0  0  0  0  0  0  0
   57.0501   24.1843   47.7475 H   0  0  0  0  0  0  0  0  0  0  0  0
   56.9647   25.9920   47.8960 H   0  0  0  0  0  0  0  0  0  0  0  0
   56.2431   24.7497   45.2562 H   0  0  0  0  0  0  0  0  0  0  0  0
   55.0767   24.6025   46.6270 H   0  0  0  0  0  0  0  0  0  0  0  0
   55.7750   26.8470   45.0340 H   0  0  0  0  0  0  0  0  0  0  0  0
   55.9830   27.1670   46.6670 H   0  0  0  0  0  0  0  0  0  0  0  0
  1  2  1  0
  2  3  1  0
  3  4  2  0
  3  5  1  0
  5  6  1  0
  6  7  2  0
  7  8  1  0
  8  9  2  0
  9 10  1  0
 10 11  2  0
 11 12  1  0
 12 13  1  0
 13 14  1  0
 14 15  1  0
 11  6  1  0
  1 16  1  0
  1 17  1  0
  1 18  1  0
  2 19  1  0
  2 20  1  0
  7 21  1  0
  8 22  1  0
  9 23  1  0
 10 24  1  0
 13 25  1  0
 13 26  1  0
 14 27  1  0
 14 28  1  0
 15 29  1  0
 15 30  1  0
M  END
>  <UniqueID>  (42) 
36

>  <SMILES>  (42) 
CCC(=O)Oc1ccccc1SCCN

>  <Energy>  (42) 
21.39841943273134

>  <Genealogy>  (42) 
CCC(=O)Oc1ccccc1SCCN (3D coordinates assigned)
CCC(=O)Oc1ccccc1SCCN (optimized conformer: 21.39841943273134 kcal/mol)

>  <smiles>  (42) 
CCC(=O)Oc1ccccc1SCCN

>  <score_type>  (42) 
oracle

>  <origin>  (42) 
adg

>  <m_score__min__energy>  (42) 
-5.5300000000000002

>  <m_primary>  (42) 
energy

$$$$
42:0
     RDKit          3D

 32 35  0  0  0  0  0  0  0  0999 V2000
   58.1780   34.1470   45.5320 C   0  0  0  0  0  0  0  0  0  0  0  0
   59.2610   34.7590   46.1590 C   0  0  0  0  0  0  0  0  0  0  0  0
   60.1490   33.8360   46.6220 N   0  0  0  0  0  0  0  0  0  0  0  0
   61.3610   34.0950   47.4170 C   0  0  0  0  0  0  0  0  0  0  0  0
   62.5940   33.4660   46.7440 C   0  0  0  0  0  0  0  0  0  0  0  0
   63.7400   33.2640   47.7530 C   0  0  0  0  0  0  0  0  0  0  0  0
   63.6330   34.1780   48.8280 O   0  0  0  0  0  0  0  0  0  0  0  0
   62.5270   33.8420   49.6530 C   0  0  0  0  0  0  0  0  0  0  0  0
   61.2230   33.5840   48.8610 C   0  0  0  0  0  0  0  0  0  0  0  0
   59.6090   32.6360   46.3170 C   0  0  0  0  0  0  0  0  0  0  0  0
   60.0980   31.3950   46.6340 N   0  0  0  0  0  0  0  0  0  0  0  0
   59.3840   30.2870   46.2500 C   0  0  0  0  0  0  0  0  0  0  0  0
   58.2120   30.4670   45.5760 N   0  0  0  0  0  0  0  0  0  0  0  0
   57.3030   29.6090   45.0940 C   0  0  0  0  0  0  0  0  0  0  0  0
   56.2840   30.2890   44.5130 N   0  0  0  0  0  0  0  0  0  0  0  0
   56.5420   31.5910   44.6250 N   0  0  0  0  0  0  0  0  0  0  0  0
   57.7170   31.6720   45.2730 C   0  0  0  0  0  0  0  0  0  0  0  0
   58.4230   32.8000   45.6470 C   0  0  0  0  0  0  0  0  0  0  0  0
   57.3171   34.6344   45.0512 H   0  0  0  0  0  0  0  0  0  0  0  0
   59.3832   35.8469   46.2663 H   0  0  0  0  0  0  0  0  0  0  0  0
   61.4940   35.1860   47.4625 H   0  0  0  0  0  0  0  0  0  0  0  0
   62.3127   32.4903   46.3211 H   0  0  0  0  0  0  0  0  0  0  0  0
   62.9432   34.1466   45.9535 H   0  0  0  0  0  0  0  0  0  0  0  0
   63.6964   32.2379   48.1470 H   0  0  0  0  0  0  0  0  0  0  0  0
   64.6964   33.4374   47.2380 H   0  0  0  0  0  0  0  0  0  0  0  0
   62.7775   32.9318   50.2176 H   0  0  0  0  0  0  0  0  0  0  0  0
   62.3409   34.7031   50.3117 H   0  0  0  0  0  0  0  0  0  0  0  0
   61.0169   32.5036   48.8447 H   0  0  0  0  0  0  0  0  0  0  0  0
   60.3967   34.1198   49.3510 H   0  0  0  0  0  0  0  0  0  0  0  0
   60.9880   31.2720   47.1630 H   0  0  0  0  0  0  0  0  0  0  0  0
   59.7494   29.2755   46.4810 H   0  0  0  0  0  0  0  0  0  0  0  0
   57.3731   28.5132   45.1600 H   0  0  0  0  0  0  0  0  0  0  0  0
  1  2  2  0
  2  3  1  0
  3  4  1  0
  4  5  1  0
  5  6  1  0
  6  7  1  0
  7  8  1  0
  8  9  1  0
  3 10  1  0
 10 11  1  0
 11 12  2  0
 12 13  1  0
 13 14  1  0
 14 15  2  0
 15 16  1  0
 16 17  2  0
 17 18  1  0
 18  1  1  0
  9  4  1  0
 18 10  2  0
 17 13  1  0
  1 19  1  0
  2 20  1  0
  4 21  1  0
  5 22  1  0
  5 23  1  0
  6 24  1  0
  6 25  1  0
  8 26  1  0
  8 27  1  0
  9 28  1  0
  9 29  1  0
 11 30  1  0
 12 31  1  0
 14 32  1  0
M  CHG  1  11   1
M  END
>  <UniqueID>  (43) 
37

>  <SMILES>  (43) 
c1cn(C2CCOCC2)c2[nH+]cn3cnnc3c12

>  <Energy>  (43) 
120.54789338430272

>  <Genealogy>  (43) 
c1cn(C2CCOCC2)c2[nH+]cn3cnnc3c12 (protonated)
c1cn(C2CCOCC2)c2[nH+]cn3cnnc3c12 (3D coordinates assigned)
c1cn(C2CCOCC2)c2[nH+]cn3cnnc3c12 (nonaromatic ring conformer: 120.54789338430272 kcal/mol)

>  <smiles>  (43) 
c1cn(C2CCOCC2)c2ncn3cnnc3c12

>  <score_type>  (43) 
oracle

>  <origin>  (43) 
adg

>  <m_score__min__energy>  (43) 
-5.54

>  <m_primary>  (43) 
energy

$$$$
43:0
     RDKit          3D

 41 42  0  0  0  0  0  0  0  0999 V2000
   59.6540   34.5580   48.1770 C   0  0  0  0  0  0  0  0  0  0  0  0
   59.4000   35.2140   46.8200 C   0  0  0  0  0  0  0  0  0  0  0  0
   59.5100   34.2380   45.7160 N   0  0  0  0  0  0  0  0  0  0  0  0
   59.8680   32.8890   46.2310 C   0  0  0  0  0  0  0  0  0  0  0  0
   58.6500   31.9650   46.3470 C   0  0  0  0  0  0  0  0  0  0  0  0
   58.0870   31.6940   44.9460 C   0  0  0  0  0  0  0  0  0  0  0  0
   56.7740   31.0470   45.0290 N   0  0  0  0  0  0  0  0  0  0  0  0
   56.4930   29.6500   44.8630 C   0  0  0  0  0  0  0  0  0  0  0  0
   55.3030   29.2470   44.8490 O   0  0  0  0  0  0  0  0  0  0  0  0
   57.5750   28.7130   44.6810 N   0  0  0  0  0  0  0  0  0  0  0  0
   57.7690   28.0750   43.3710 C   0  0  0  0  0  0  0  0  0  0  0  0
   58.4680   28.3970   45.7660 C   0  0  0  0  0  0  0  0  0  0  0  0
   59.5200   27.4820   45.5900 C   0  0  0  0  0  0  0  0  0  0  0  0
   60.3690   27.1750   46.6550 C   0  0  0  0  0  0  0  0  0  0  0  0
   60.1770   27.7650   47.9040 C   0  0  0  0  0  0  0  0  0  0  0  0
   59.1570   28.7030   48.0820 C   0  0  0  0  0  0  0  0  0  0  0  0
   58.9560   29.4990   49.6290 Cl  0  0  0  0  0  0  0  0  0  0  0  0
   58.3000   29.0110   47.0190 C   0  0  0  0  0  0  0  0  0  0  0  0
   58.0800   32.9630   44.0520 C   0  0  0  0  0  0  0  0  0  0  0  0
   58.2950   34.2630   44.8530 C   0  0  0  0  0  0  0  0  0  0  0  0
   59.3825   35.2592   48.9798 H   0  0  0  0  0  0  0  0  0  0  0  0
   59.0436   33.6470   48.2639 H   0  0  0  0  0  0  0  0  0  0  0  0
   60.7187   34.2956   48.2639 H   0  0  0  0  0  0  0  0  0  0  0  0
   58.3882   35.6456   46.8157 H   0  0  0  0  0  0  0  0  0  0  0  0
   60.1600   35.9943   46.6669 H   0  0  0  0  0  0  0  0  0  0  0  0
   60.5951   32.4304   45.5446 H   0  0  0  0  0  0  0  0  0  0  0  0
   60.2896   33.0161   47.2390 H   0  0  0  0  0  0  0  0  0  0  0  0
   58.9519   31.0150   46.8122 H   0  0  0  0  0  0  0  0  0  0  0  0
   57.8797   32.4453   46.9682 H   0  0  0  0  0  0  0  0  0  0  0  0
   58.7663   30.9894   44.4439 H   0  0  0  0  0  0  0  0  0  0  0  0
   58.0863   27.0316   43.5147 H   0  0  0  0  0  0  0  0  0  0  0  0
   56.8237   28.0967   42.8090 H   0  0  0  0  0  0  0  0  0  0  0  0
   58.5422   28.6193   42.8090 H   0  0  0  0  0  0  0  0  0  0  0  0
   59.6750   27.0063   44.6104 H   0  0  0  0  0  0  0  0  0  0  0  0
   61.1947   26.4632   46.5080 H   0  0  0  0  0  0  0  0  0  0  0  0
   60.8278   27.4922   48.7479 H   0  0  0  0  0  0  0  0  0  0  0  0
   57.4887   29.7393   47.1655 H   0  0  0  0  0  0  0  0  0  0  0  0
   58.8848   32.8723   43.3076 H   0  0  0  0  0  0  0  0  0  0  0  0
   57.0893   33.0274   43.5783 H   0  0  0  0  0  0  0  0  0  0  0  0
   58.3901   35.0975   44.1426 H   0  0  0  0  0  0  0  0  0  0  0  0
   57.4279   34.3781   45.5200 H   0  0  0  0  0  0  0  0  0  0  0  0
  1  2  1  0
  2  3  1  0
  3  4  1  0
  4  5  1  0
  5  6  1  0
  6  7  1  0
  7  8  1  0
  8  9  2  0
  8 10  1  0
 10 11  1  0
 10 12  1  0
 12 13  2  0
 13 14  1  0
 14 15  2  0
 15 16  1  0
 16 17  1  0
 16 18  2  0
  6 19  1  0
 19 20  1  0
 20  3  1  0
 18 12  1  0
  1 21  1  0
  1 22  1  0
  1 23  1  0
  2 24  1  0
  2 25  1  0
  4 26  1  0
  4 27  1  0
  5 28  1  0
  5 29  1  0
  6 30  1  0
 11 31  1  0
 11 32  1  0
 11 33  1  0
 13 34  1  0
 14 35  1  0
 15 36  1  0
 18 37  1  0
 19 38  1  0
 19 39  1  0
 20 40  1  0
 20 41  1  0
M  CHG  1   7  -1
M  END
>  <UniqueID>  (44) 
38

>  <SMILES>  (44) 
CCN1CCC([N-]C(=O)N(C)c2cccc(Cl)c2)CC1

>  <Energy>  (44) 
52.99472223251703

>  <Genealogy>  (44) 
CCN1CCC([N-]C(=O)N(C)c2cccc(Cl)c2)CC1 (protonated)
CCN1CCC([N-]C(=O)N(C)c2cccc(Cl)c2)CC1 (3D coordinates assigned)
CCN1CCC([N-]C(=O)N(C)c2cccc(Cl)c2)CC1 (nonaromatic ring conformer: 52.99472223251703 kcal/mol)

>  <smiles>  (44) 
CCN1CCC(NC(=O)N(C)c2cccc(Cl)c2)CC1

>  <score_type>  (44) 
oracle

>  <origin>  (44) 
adg

>  <m_score__min__energy>  (44) 
-8.8100000000000005

>  <m_primary>  (44) 
energy

$$$$
44:0
     RDKit          3D

 37 38  0  0  0  0  0  0  0  0999 V2000
   55.2610   29.2280   44.8590 O   0  0  0  0  0  0  0  0  0  0  0  0
   56.2510   29.8430   44.3840 C   0  0  0  0  0  0  0  0  0  0  0  0
   57.4070   29.0450   43.8240 C   0  0  0  0  0  0  0  0  0  0  0  0
   57.4600   27.6760   44.3970 N   0  0  0  0  0  0  0  0  0  0  0  0
   58.0230   27.6010   45.7690 C   0  0  0  0  0  0  0  0  0  0  0  0
   57.7460   26.2930   46.5290 C   0  0  0  0  0  0  0  0  0  0  0  0
   58.4000   25.0600   45.8870 C   0  0  0  0  0  0  0  0  0  0  0  0
   57.5130   24.4490   44.7960 C   0  0  0  0  0  0  0  0  0  0  0  0
   57.4090   25.2660   43.4930 C   0  0  0  0  0  0  0  0  0  0  0  0
   58.0540   26.6710   43.4770 C   0  0  0  0  0  0  0  0  0  0  0  0
   56.2990   31.2710   44.5030 N   0  0  0  0  0  0  0  0  0  0  0  0
   57.2520   32.0230   45.2660 C   0  0  0  0  0  0  0  0  0  0  0  0
   58.1580   31.3900   46.1340 C   0  0  0  0  0  0  0  0  0  0  0  0
   59.0850   32.1480   46.8550 C   0  0  0  0  0  0  0  0  0  0  0  0
   59.1280   33.5370   46.7000 C   0  0  0  0  0  0  0  0  0  0  0  0
   60.3940   34.5710   47.6870 Br  0  0  0  0  0  0  0  0  0  0  0  0
   58.2500   34.1670   45.8120 C   0  0  0  0  0  0  0  0  0  0  0  0
   57.3220   33.4100   45.0900 C   0  0  0  0  0  0  0  0  0  0  0  0
   57.2925   28.9701   42.7325 H   0  0  0  0  0  0  0  0  0  0  0  0
   58.3406   29.5631   44.0886 H   0  0  0  0  0  0  0  0  0  0  0  0
   56.4630   27.3710   44.5050 H   0  0  0  0  0  0  0  0  0  0  0  0
   59.1134   27.7252   45.6949 H   0  0  0  0  0  0  0  0  0  0  0  0
   57.5237   28.3951   46.3436 H   0  0  0  0  0  0  0  0  0  0  0  0
   58.1317   26.3976   47.5538 H   0  0  0  0  0  0  0  0  0  0  0  0
   56.6583   26.1304   46.5067 H   0  0  0  0  0  0  0  0  0  0  0  0
   59.3599   25.3581   45.4401 H   0  0  0  0  0  0  0  0  0  0  0  0
   58.5475   24.3033   46.6717 H   0  0  0  0  0  0  0  0  0  0  0  0
   57.9193   23.4584   44.5438 H   0  0  0  0  0  0  0  0  0  0  0  0
   56.4965   24.4167   45.2151 H   0  0  0  0  0  0  0  0  0  0  0  0
   57.8847   24.6762   42.6956 H   0  0  0  0  0  0  0  0  0  0  0  0
   56.3324   25.4509   43.3638 H   0  0  0  0  0  0  0  0  0  0  0  0
   59.1148   26.5564   43.7447 H   0  0  0  0  0  0  0  0  0  0  0  0
   57.8827   27.0622   42.4633 H   0  0  0  0  0  0  0  0  0  0  0  0
   58.1376   30.2959   46.2462 H   0  0  0  0  0  0  0  0  0  0  0  0
   59.7820   31.6509   47.5457 H   0  0  0  0  0  0  0  0  0  0  0  0
   58.2895   35.2585   45.6815 H   0  0  0  0  0  0  0  0  0  0  0  0
   56.6439   33.9067   44.3805 H   0  0  0  0  0  0  0  0  0  0  0  0
  1  2  2  0
  2  3  1  0
  3  4  1  0
  4  5  1  0
  5  6  1  0
  6  7  1  0
  7  8  1  0
  8  9  1  0
  9 10  1  0
  2 11  1  0
 11 12  1  0
 12 13  2  0
 13 14  1  0
 14 15  2  0
 15 16  1  0
 15 17  1  0
 17 18  2  0
 10  4  1  0
 18 12  1  0
  3 19  1  0
  3 20  1  0
  4 21  1  0
  5 22  1  0
  5 23  1  0
  6 24  1  0
  6 25  1  0
  7 26  1  0
  7 27  1  0
  8 28  1  0
  8 29  1  0
  9 30  1  0
  9 31  1  0
 10 32  1  0
 10 33  1  0
 13 34  1  0
 14 35  1  0
 17 36  1  0
 18 37  1  0
M  CHG  2   4   1  11  -1
M  END
>  <UniqueID>  (45) 
39

>  <SMILES>  (45) 
O=C(C[NH+]1CCCCCC1)[N-]c1ccc(Br)cc1

>  <Energy>  (45) 
51.322009246055075

>  <Genealogy>  (45) 
O=C(C[NH+]1CCCCCC1)[N-]c1ccc(Br)cc1 (protonated)
O=C(C[NH+]1CCCCCC1)[N-]c1ccc(Br)cc1 (3D coordinates assigned)
O=C(C[NH+]1CCCCCC1)[N-]c1ccc(Br)cc1 (nonaromatic ring conformer: 51.322009246055075 kcal/mol)

>  <smiles>  (45) 
O=C(CN1CCCCCC1)Nc1ccc(Br)cc1

>  <score_type>  (45) 
oracle

>  <origin>  (45) 
adg

>  <m_score__min__energy>  (45) 
-5.4000000000000004

>  <m_primary>  (45) 
energy

$$$$
45:0
     RDKit          3D

 37 38  0  0  0  0  0  0  0  0999 V2000
   57.4630   32.8740   45.6510 C   0  0  0  0  0  0  0  0  0  0  0  0
   58.3220   31.6050   45.6540 C   0  0  0  0  0  0  0  0  0  0  0  0
   58.1960   30.8210   44.3950 N   0  0  0  0  0  0  0  0  0  0  0  0
   56.9290   31.1610   43.6830 C   0  0  0  0  0  0  0  0  0  0  0  0
   56.5500   30.0530   42.7030 C   0  0  0  0  0  0  0  0  0  0  0  0
   58.2990   29.3370   44.6000 C   0  0  1  0  0  0  0  0  0  0  0  0
   59.7700   28.9600   44.9890 C   0  0  0  0  0  0  0  0  0  0  0  0
   59.9230   28.0160   46.1900 C   0  0  0  0  0  0  0  0  0  0  0  0
   58.8770   26.9440   46.1710 C   0  0  0  0  0  0  0  0  0  0  0  0
   59.2090   25.6110   46.4530 C   0  0  0  0  0  0  0  0  0  0  0  0
   58.2120   24.6390   46.5050 C   0  0  0  0  0  0  0  0  0  0  0  0
   56.8770   24.9960   46.3190 C   0  0  0  0  0  0  0  0  0  0  0  0
   56.5220   26.3270   46.0690 C   0  0  0  0  0  0  0  0  0  0  0  0
   55.1610   26.6260   45.9750 O   0  0  0  0  0  0  0  0  0  0  0  0
   57.5390   27.3100   45.9420 C   0  0  0  0  0  0  0  0  0  0  0  0
   57.2600   28.7620   45.6120 C   0  0  0  0  0  0  0  0  0  0  0  0
   57.2563   33.1793   46.6874 H   0  0  0  0  0  0  0  0  0  0  0  0
   58.0018   33.6803   45.1317 H   0  0  0  0  0  0  0  0  0  0  0  0
   56.5143   32.6733   45.1317 H   0  0  0  0  0  0  0  0  0  0  0  0
   59.3754   31.8938   45.7844 H   0  0  0  0  0  0  0  0  0  0  0  0
   57.9689   30.9677   46.4781 H   0  0  0  0  0  0  0  0  0  0  0  0
   56.1217   31.2836   44.4200 H   0  0  0  0  0  0  0  0  0  0  0  0
   57.0769   32.0956   43.1221 H   0  0  0  0  0  0  0  0  0  0  0  0
   56.2436   29.1572   43.2630 H   0  0  0  0  0  0  0  0  0  0  0  0
   55.7169   30.3925   42.0700 H   0  0  0  0  0  0  0  0  0  0  0  0
   57.4165   29.8111   42.0700 H   0  0  0  0  0  0  0  0  0  0  0  0
   58.0423   28.8596   43.6428 H   0  0  0  0  0  0  0  0  0  0  0  0
   60.2359   28.4760   44.1179 H   0  0  0  0  0  0  0  0  0  0  0  0
   60.2509   29.9032   45.2875 H   0  0  0  0  0  0  0  0  0  0  0  0
   60.9177   27.5478   46.1543 H   0  0  0  0  0  0  0  0  0  0  0  0
   59.8044   28.6030   47.1127 H   0  0  0  0  0  0  0  0  0  0  0  0
   60.2577   25.3324   46.6334 H   0  0  0  0  0  0  0  0  0  0  0  0
   58.4785   23.5885   46.6931 H   0  0  0  0  0  0  0  0  0  0  0  0
   56.0949   24.2241   46.3692 H   0  0  0  0  0  0  0  0  0  0  0  0
   54.7390   27.4680   46.3410 H   0  0  0  0  0  0  0  0  0  0  0  0
   56.2545   28.8403   45.1729 H   0  0  0  0  0  0  0  0  0  0  0  0
   57.3318   29.3437   46.5428 H   0  0  0  0  0  0  0  0  0  0  0  0
  1  2  1  0
  2  3  1  0
  3  4  1  0
  4  5  1  0
  3  6  1  0
  6  7  1  0
  7  8  1  0
  8  9  1  0
  9 10  2  0
 10 11  1  0
 11 12  2  0
 12 13  1  0
 13 14  1  0
 13 15  2  0
 15 16  1  0
 16  6  1  0
 15  9  1  0
  1 17  1  0
  1 18  1  0
  1 19  1  0
  2 20  1  0
  2 21  1  0
  4 22  1  0
  4 23  1  0
  5 24  1  0
  5 25  1  0
  5 26  1  0
  6 27  1  6
  7 28  1  0
  7 29  1  0
  8 30  1  0
  8 31  1  0
 10 32  1  0
 11 33  1  0
 12 34  1  0
 14 35  1  0
 16 36  1  0
 16 37  1  0
M  END
>  <UniqueID>  (46) 
40

>  <SMILES>  (46) 
CCN(CC)[C@H]1CCc2cccc(O)c2C1

>  <Energy>  (46) 
52.68410844724549

>  <Genealogy>  (46) 
CCN(CC)[C@H]1CCc2cccc(O)c2C1 (chirality)
CCN(CC)[C@H]1CCc2cccc(O)c2C1 (3D coordinates assigned)
CCN(CC)[C@H]1CCc2cccc(O)c2C1 (nonaromatic ring conformer: 52.68410844724549 kcal/mol)

>  <smiles>  (46) 
CCN(CC)C1CCc2cccc(O)c2C1

>  <score_type>  (46) 
oracle

>  <origin>  (46) 
adg

>  <m_score__min__energy>  (46) 
-7.8399999999999999

>  <m_primary>  (46) 
energy

$$$$
46:0
     RDKit          3D

 39 42  0  0  0  0  0  0  0  0999 V2000
   58.2200   33.6420   45.0800 C   0  0  0  0  0  0  0  0  0  0  0  0
   59.1720   34.6520   45.2400 C   0  0  0  0  0  0  0  0  0  0  0  0
   59.6590   34.9620   46.5140 C   0  0  0  0  0  0  0  0  0  0  0  0
   59.1880   34.2700   47.6410 C   0  0  0  0  0  0  0  0  0  0  0  0
   59.6960   34.6100   48.9410 N   0  0  0  0  0  0  0  0  0  0  0  0
   60.7390   33.8900   49.6120 C   0  0  0  0  0  0  0  0  0  0  0  0
   61.9880   34.2760   49.6270 O   0  0  0  0  0  0  0  0  0  0  0  0
   62.6610   33.3620   50.2940 C   0  0  0  0  0  0  0  0  0  0  0  0
   64.1180   33.4260   50.5260 C   0  0  0  0  0  0  0  0  0  0  0  0
   64.9930   32.6630   49.7340 C   0  0  0  0  0  0  0  0  0  0  0  0
   66.3730   32.7210   49.9520 C   0  0  0  0  0  0  0  0  0  0  0  0
   66.8910   33.5390   50.9590 C   0  0  0  0  0  0  0  0  0  0  0  0
   66.0280   34.3020   51.7520 C   0  0  0  0  0  0  0  0  0  0  0  0
   64.6470   34.2470   51.5380 C   0  0  0  0  0  0  0  0  0  0  0  0
   61.8720   32.3610   50.7460 N   0  0  0  0  0  0  0  0  0  0  0  0
   60.6400   32.7040   50.3210 C   0  0  0  0  0  0  0  0  0  0  0  0
   59.4250   31.9340   50.6560 C   0  0  0  0  0  0  0  0  0  0  0  0
   59.3490   30.5720   50.3290 C   0  0  0  0  0  0  0  0  0  0  0  0
   58.1970   29.8480   50.6460 C   0  0  0  0  0  0  0  0  0  0  0  0
   57.1620   30.4590   51.2810 N   0  0  0  0  0  0  0  0  0  0  0  0
   57.2140   31.7720   51.6290 C   0  0  0  0  0  0  0  0  0  0  0  0
   58.3480   32.5310   51.3310 C   0  0  0  0  0  0  0  0  0  0  0  0
   58.2460   33.2380   47.4680 C   0  0  0  0  0  0  0  0  0  0  0  0
   57.7610   32.9330   46.1920 C   0  0  0  0  0  0  0  0  0  0  0  0
   57.8321   33.4054   44.0782 H   0  0  0  0  0  0  0  0  0  0  0  0
   59.5392   35.2044   44.3625 H   0  0  0  0  0  0  0  0  0  0  0  0
   60.4150   35.7521   46.6335 H   0  0  0  0  0  0  0  0  0  0  0  0
   59.3470   35.4840   49.3970 H   0  0  0  0  0  0  0  0  0  0  0  0
   64.5906   32.0175   48.9394 H   0  0  0  0  0  0  0  0  0  0  0  0
   67.0525   32.1209   49.3289 H   0  0  0  0  0  0  0  0  0  0  0  0
   67.9770   33.5829   51.1281 H   0  0  0  0  0  0  0  0  0  0  0  0
   66.4358   34.9461   52.5449 H   0  0  0  0  0  0  0  0  0  0  0  0
   63.9715   34.8486   52.1640 H   0  0  0  0  0  0  0  0  0  0  0  0
   60.1922   30.0765   49.8255 H   0  0  0  0  0  0  0  0  0  0  0  0
   58.1274   28.7825   50.3815 H   0  0  0  0  0  0  0  0  0  0  0  0
   56.3619   32.2374   52.1460 H   0  0  0  0  0  0  0  0  0  0  0  0
   58.3972   33.5903   51.6234 H   0  0  0  0  0  0  0  0  0  0  0  0
   57.8901   32.6694   48.3397 H   0  0  0  0  0  0  0  0  0  0  0  0
   57.0167   32.1332   46.0643 H   0  0  0  0  0  0  0  0  0  0  0  0
  1  2  2  0
  2  3  1  0
  3  4  2  0
  4  5  1  0
  5  6  1  0
  6  7  1  0
  7  8  1  0
  8  9  1  0
  9 10  2  0
 10 11  1  0
 11 12  2  0
 12 13  1  0
 13 14  2  0
  8 15  2  0
 15 16  1  0
 16 17  1  0
 17 18  2  0
 18 19  1  0
 19 20  2  0
 20 21  1  0
 21 22  2  0
  4 23  1  0
 23 24  2  0
 24  1  1  0
 16  6  2  0
 22 17  1  0
 14  9  1  0
  1 25  1  0
  2 26  1  0
  3 27  1  0
  5 28  1  0
 10 29  1  0
 11 30  1  0
 12 31  1  0
 13 32  1  0
 14 33  1  0
 18 34  1  0
 19 35  1  0
 21 36  1  0
 22 37  1  0
 23 38  1  0
 24 39  1  0
M  END
>  <UniqueID>  (47) 
41

>  <SMILES>  (47) 
c1ccc(Nc2oc(-c3ccccc3)nc2-c2ccncc2)cc1

>  <Energy>  (47) 
83.56456191809981

>  <Genealogy>  (47) 
c1ccc(Nc2oc(-c3ccccc3)nc2-c2ccncc2)cc1 (3D coordinates assigned)
c1ccc(Nc2oc(-c3ccccc3)nc2-c2ccncc2)cc1 (optimized conformer: 83.56456191809981 kcal/mol)

>  <smiles>  (47) 
c1ccc(Nc2oc(-c3ccccc3)nc2-c2ccncc2)cc1

>  <score_type>  (47) 
oracle

>  <origin>  (47) 
adg

>  <m_score__min__energy>  (47) 
-7.0999999999999996

>  <m_primary>  (47) 
energy

$$$$
47:0
     RDKit          3D

 65 69  0  0  0  0  0  0  0  0999 V2000
   57.3650   20.7350   45.4220 C   0  0  0  0  0  0  0  0  0  0  0  0
   56.4550   20.7710   44.1980 C   0  0  0  0  0  0  0  0  0  0  0  0
   55.7330   22.0000   44.1430 O   0  0  0  0  0  0  0  0  0  0  0  0
   56.2980   23.2850   44.2010 C   0  0  0  0  0  0  0  0  0  0  0  0
   56.8600   23.9240   43.0800 C   0  0  0  0  0  0  0  0  0  0  0  0
   57.4100   25.2040   43.1990 C   0  0  0  0  0  0  0  0  0  0  0  0
   57.4070   25.8740   44.4360 C   0  0  0  0  0  0  0  0  0  0  0  0
   57.9970   27.2290   44.5510 C   0  0  0  0  0  0  0  0  0  0  0  0
   59.2070   27.3510   44.8890 O   0  0  0  0  0  0  0  0  0  0  0  0
   57.2240   28.3990   44.2370 N   0  0  0  0  0  0  0  0  0  0  0  0
   57.5860   29.7290   44.6490 C   0  0  0  0  0  0  0  0  0  0  0  0
   56.9090   30.8510   44.1550 C   0  0  0  0  0  0  0  0  0  0  0  0
   57.2610   32.1280   44.5840 C   0  0  0  0  0  0  0  0  0  0  0  0
   58.3100   32.3170   45.4950 C   0  0  0  0  0  0  0  0  0  0  0  0
   59.0700   31.1970   45.9420 C   0  0  0  0  0  0  0  0  0  0  0  0
   58.6600   29.9080   45.5310 C   0  0  0  0  0  0  0  0  0  0  0  0
   60.1960   31.3850   46.9830 C   0  0  2  0  0  0  0  0  0  0  0  0
   61.3320   30.3480   46.7750 C   0  0  0  0  0  0  0  0  0  0  0  0
   59.5890   31.2090   48.3940 C   0  0  0  0  0  0  0  0  0  0  0  0
   58.5070   32.2630   48.6930 C   0  0  0  0  0  0  0  0  0  0  0  0
   58.9500   33.6470   48.4070 N   0  0  0  0  0  0  0  0  0  0  0  0
   59.6480   34.2740   49.5500 C   0  0  0  0  0  0  0  0  0  0  0  0
   59.4610   33.4040   50.7980 C   0  0  0  0  0  0  0  0  0  0  0  0
   58.9390   34.1550   52.0140 C   0  0  0  0  0  0  0  0  0  0  0  0
   60.3850   33.6910   51.9730 C   0  0  0  0  0  0  0  0  0  0  0  0
   59.6260   33.8340   47.0920 C   0  0  2  0  0  0  0  0  0  0  0  0
   58.6060   33.7330   45.9410 C   0  0  0  0  0  0  0  0  0  0  0  0
   60.7720   32.8280   46.8410 C   0  0  1  0  0  0  0  0  0  0  0  0
   62.0260   33.1480   47.6850 C   0  0  0  0  0  0  0  0  0  0  0  0
   56.8560   25.2260   45.5550 C   0  0  0  0  0  0  0  0  0  0  0  0
   56.3080   23.9460   45.4340 C   0  0  0  0  0  0  0  0  0  0  0  0
   56.7523   20.7592   46.3352 H   0  0  0  0  0  0  0  0  0  0  0  0
   57.9639   19.8125   45.4066 H   0  0  0  0  0  0  0  0  0  0  0  0
   58.0349   21.6073   45.4066 H   0  0  0  0  0  0  0  0  0  0  0  0
   57.0673   20.6709   43.2897 H   0  0  0  0  0  0  0  0  0  0  0  0
   55.7363   19.9412   44.2669 H   0  0  0  0  0  0  0  0  0  0  0  0
   56.8666   23.4139   42.1054 H   0  0  0  0  0  0  0  0  0  0  0  0
   57.8494   25.6920   42.3165 H   0  0  0  0  0  0  0  0  0  0  0  0
   56.4300   28.2970   43.5640 H   0  0  0  0  0  0  0  0  0  0  0  0
   56.0960   30.7229   43.4252 H   0  0  0  0  0  0  0  0  0  0  0  0
   56.7090   32.9999   44.2033 H   0  0  0  0  0  0  0  0  0  0  0  0
   59.1959   29.0261   45.9120 H   0  0  0  0  0  0  0  0  0  0  0  0
   61.7030   30.0093   47.7536 H   0  0  0  0  0  0  0  0  0  0  0  0
   60.9435   29.4865   46.2120 H   0  0  0  0  0  0  0  0  0  0  0  0
   62.1546   30.8132   46.2120 H   0  0  0  0  0  0  0  0  0  0  0  0
   59.1385   30.2080   48.4643 H   0  0  0  0  0  0  0  0  0  0  0  0
   60.3974   31.3345   49.1293 H   0  0  0  0  0  0  0  0  0  0  0  0
   57.6239   32.0433   48.0751 H   0  0  0  0  0  0  0  0  0  0  0  0
   58.2816   32.2061   49.7682 H   0  0  0  0  0  0  0  0  0  0  0  0
   60.7203   34.3629   49.3216 H   0  0  0  0  0  0  0  0  0  0  0  0
   59.2295   35.2747   49.7328 H   0  0  0  0  0  0  0  0  0  0  0  0
   59.1800   32.4943   50.2470 H   0  0  0  0  0  0  0  0  0  0  0  0
   58.7032   35.2268   51.9388 H   0  0  0  0  0  0  0  0  0  0  0  0
   58.0982   34.0186   52.7101 H   0  0  0  0  0  0  0  0  0  0  0  0
   61.1959   34.4268   51.8679 H   0  0  0  0  0  0  0  0  0  0  0  0
   61.0243   33.0797   52.6269 H   0  0  0  0  0  0  0  0  0  0  0  0
   60.0722   34.8389   47.1241 H   0  0  0  0  0  0  0  0  0  0  0  0
   57.6641   34.1936   46.2737 H   0  0  0  0  0  0  0  0  0  0  0  0
   59.0520   34.2489   45.0779 H   0  0  0  0  0  0  0  0  0  0  0  0
   61.1562   32.9138   45.8139 H   0  0  0  0  0  0  0  0  0  0  0  0
   61.7747   33.0839   48.7540 H   0  0  0  0  0  0  0  0  0  0  0  0
   62.8201   32.4237   47.4510 H   0  0  0  0  0  0  0  0  0  0  0  0
   62.3760   34.1642   47.4510 H   0  0  0  0  0  0  0  0  0  0  0  0
   56.8561   25.7298   46.5328 H   0  0  0  0  0  0  0  0  0  0  0  0
   55.8795   23.4524   46.3187 H   0  0  0  0  0  0  0  0  0  0  0  0
  1  2  1  0
  2  3  1  0
  3  4  1  0
  4  5  2  0
  5  6  1  0
  6  7  2  0
  7  8  1  0
  8  9  2  0
  8 10  1  0
 10 11  1  0
 11 12  2  0
 12 13  1  0
 13 14  2  0
 14 15  1  0
 15 16  2  0
 15 17  1  0
 17 18  1  6
 17 19  1  0
 19 20  1  0
 20 21  1  0
 21 22  1  0
 22 23  1  0
 23 24  1  0
 24 25  1  0
 21 26  1  0
 26 27  1  0
 26 28  1  0
 28 29  1  0
  7 30  1  0
 30 31  2  0
 31  4  1  0
 16 11  1  0
 28 17  1  0
 27 14  1  0
 25 23  1  0
  1 32  1  0
  1 33  1  0
  1 34  1  0
  2 35  1  0
  2 36  1  0
  5 37  1  0
  6 38  1  0
 10 39  1  0
 12 40  1  0
 13 41  1  0
 16 42  1  0
 18 43  1  0
 18 44  1  0
 18 45  1  0
 19 46  1  0
 19 47  1  0
 20 48  1  0
 20 49  1  0
 22 50  1  0
 22 51  1  0
 23 52  1  0
 24 53  1  0
 24 54  1  0
 25 55  1  0
 25 56  1  0
 26 57  1  1
 27 58  1  0
 27 59  1  0
 28 60  1  6
 29 61  1  0
 29 62  1  0
 29 63  1  0
 30 64  1  0
 31 65  1  0
M  END
>  <UniqueID>  (48) 
42

>  <SMILES>  (48) 
CCOc1ccc(C(=O)Nc2ccc3c(c2)[C@]2(C)CCN(CC4CC4)[C@H](C3)C2C)cc1

>  <Energy>  (48) 
352.03398449059375

>  <Genealogy>  (48) 
CCOc1ccc(C(=O)Nc2ccc3c(c2)[C@]2(C)CCN(CC4CC4)[C@H](C3)C2C)cc1 (chirality)
CCOc1ccc(C(=O)Nc2ccc3c(c2)[C@]2(C)CCN(CC4CC4)[C@H](C3)C2C)cc1 (3D coordinates assigned)
CCOc1ccc(C(=O)Nc2ccc3c(c2)[C@]2(C)CCN(CC4CC4)[C@H](C3)C2C)cc1 (nonaromatic ring conformer: 352.03398449059375 kcal/mol)

>  <smiles>  (48) 
CCOc1ccc(C(=O)Nc2ccc3c(c2)C2(C)CCN(CC4CC4)C(C3)C2C)cc1

>  <score_type>  (48) 
oracle

>  <origin>  (48) 
adg

>  <m_score__min__energy>  (48) 
-9.1300000000000008

>  <m_primary>  (48) 
energy

$$$$
48:0
     RDKit          3D

 42 45  0  0  0  0  0  0  0  0999 V2000
   58.0331   27.0335   43.4746 H   0  0  0  0  0  0  0  0  0  0  0  0
   57.6890   27.1040   44.5170 C   0  0  0  0  0  0  0  0  0  0  0  0
   57.7950   28.2900   45.1340 C   0  0  0  0  0  0  0  0  0  0  0  0
   57.2250   29.8100   44.3820 S   0  0  0  0  0  0  0  0  0  0  0  0
   57.7900   30.6680   45.8670 C   0  0  0  0  0  0  0  0  0  0  0  0
   57.6890   32.0930   45.9770 N   0  0  0  0  0  0  0  0  0  0  0  0
   57.2770   32.6340   45.1840 H   0  0  0  0  0  0  0  0  0  0  0  0
   58.2260   32.9870   47.4060 S   0  0  0  0  0  0  0  0  0  0  0  0
   59.5400   33.8490   46.4880 C   0  0  0  0  0  0  0  0  0  0  0  0
   59.6218   33.4217   45.4777 H   0  0  0  0  0  0  0  0  0  0  0  0
   59.2945   34.9188   46.4159 H   0  0  0  0  0  0  0  0  0  0  0  0
   60.8470   33.6840   47.2080 C   0  0  0  0  0  0  0  0  0  0  0  0
   60.8710   33.4860   48.5980 C   0  0  0  0  0  0  0  0  0  0  0  0
   59.9294   33.4788   49.1667 H   0  0  0  0  0  0  0  0  0  0  0  0
   62.0870   33.2980   49.2620 C   0  0  0  0  0  0  0  0  0  0  0  0
   62.1005   33.1514   50.3521 H   0  0  0  0  0  0  0  0  0  0  0  0
   63.2870   33.2960   48.5420 C   0  0  0  0  0  0  0  0  0  0  0  0
   64.8110   33.0590   49.3770 Cl  0  0  0  0  0  0  0  0  0  0  0  0
   63.2680   33.4780   47.1550 C   0  0  0  0  0  0  0  0  0  0  0  0
   64.2105   33.4739   46.5878 H   0  0  0  0  0  0  0  0  0  0  0  0
   62.0540   33.6650   46.4890 C   0  0  0  0  0  0  0  0  0  0  0  0
   62.0432   33.7979   45.3971 H   0  0  0  0  0  0  0  0  0  0  0  0
   58.2940   29.9310   46.8080 N   0  0  0  0  0  0  0  0  0  0  0  0
   58.6520   30.2940   47.7170 H   0  0  0  0  0  0  0  0  0  0  0  0
   58.3150   28.5560   46.4710 C   0  0  0  0  0  0  0  0  0  0  0  0
   58.7050   27.6750   47.2820 O   0  0  0  0  0  0  0  0  0  0  0  0
   57.1410   25.8890   45.1460 C   0  0  0  0  0  0  0  0  0  0  0  0
   55.9330   25.9130   45.8680 C   0  0  0  0  0  0  0  0  0  0  0  0
   55.2070   27.0910   45.9940 O   0  0  0  0  0  0  0  0  0  0  0  0
   55.4710   24.7810   46.4620 N   0  0  0  0  0  0  0  0  0  0  0  0
   56.1520   23.6060   46.3970 C   0  0  0  0  0  0  0  0  0  0  0  0
   55.6400   22.4610   47.0200 C   0  0  0  0  0  0  0  0  0  0  0  0
   54.6812   22.5097   47.5570 H   0  0  0  0  0  0  0  0  0  0  0  0
   56.3460   21.2570   46.9600 C   0  0  0  0  0  0  0  0  0  0  0  0
   55.9411   20.3589   47.4494 H   0  0  0  0  0  0  0  0  0  0  0  0
   57.5670   21.1900   46.2790 C   0  0  0  0  0  0  0  0  0  0  0  0
   58.1187   20.2395   46.2337 H   0  0  0  0  0  0  0  0  0  0  0  0
   58.0870   22.3290   45.6560 C   0  0  0  0  0  0  0  0  0  0  0  0
   59.0480   22.2742   45.1235 H   0  0  0  0  0  0  0  0  0  0  0  0
   57.3830   23.5420   45.7100 C   0  0  0  0  0  0  0  0  0  0  0  0
   57.8760   24.6980   45.0930 C   0  0  0  0  0  0  0  0  0  0  0  0
   58.8413   24.6708   44.5662 H   0  0  0  0  0  0  0  0  0  0  0  0
  1  2  1  0
  2  3  2  0
  3  4  1  0
  4  5  1  0
  5  6  1  0
  6  7  1  0
  6  8  1  0
  8  9  1  0
  9 10  1  0
  9 11  1  0
  9 12  1  0
 12 13  2  0
 13 14  1  0
 13 15  1  0
 15 16  1  0
 15 17  2  0
 17 18  1  0
 17 19  1  0
 19 20  1  0
 19 21  2  0
 21 22  1  0
  5 23  2  0
 23 24  1  0
 23 25  1  0
 25 26  2  0
  2 27  1  0
 27 28  2  0
 28 29  1  0
 28 30  1  0
 30 31  2  0
 31 32  1  0
 32 33  1  0
 32 34  2  0
 34 35  1  0
 34 36  1  0
 36 37  1  0
 36 38  2  0
 38 39  1  0
 38 40  1  0
 40 41  2  0
 41 42  1  0
 25  3  1  0
 41 27  1  0
 21 12  1  0
 40 31  1  0
M  CHG  2  23   1  29  -1
M  END
>  <UniqueID>  (49) 
43

>  <SMILES>  (49) 
O=C1[NH+]=C(NSCc2ccc(Cl)cc2)S/C1=C/c1cc2ccccc2nc1[O-]

>  <Energy>  (49) 
72.17491484849953

>  <Genealogy>  (49) 
O=C1[NH+]=C(NSCc2ccc(Cl)cc2)SC1=Cc1cc2ccccc2nc1[O-] (protonated)
O=C1[NH+]=C(NSCc2ccc(Cl)cc2)S/C1=C/c1cc2ccccc2nc1[O-] (cis-trans isomerization)
O=C1[NH+]=C(NSCc2ccc(Cl)cc2)S/C1=C/c1cc2ccccc2nc1[O-] (3D coordinates assigned)
O=C1[NH+]=C(NSCc2ccc(Cl)cc2)S/C1=C/c1cc2ccccc2nc1[O-] (nonaromatic ring conformer: 72.17491484849953 kcal/mol)

>  <smiles>  (49) 
O=C1N=C(NSCc2ccc(Cl)cc2)SC1=Cc1cc2ccccc2nc1O

>  <score_type>  (49) 
oracle

>  <origin>  (49) 
adg

>  <m_score__min__energy>  (49) 
-12.02

>  <m_primary>  (49) 
energy

$$$$
