0:0
     RDKit          3D

 80 84  0  0  0  0  0  0  0  0999 V2000
   57.0560   33.4580   46.3190 C   0  0  0  0  0  0  0  0  0  0  0  0
   58.2900   34.1620   45.7540 C   0  0  0  0  0  0  0  0  0  0  0  0
   59.4800   33.9970   46.6200 N   0  0  0  0  0  0  0  0  0  0  0  0
   59.4900   34.8350   47.8420 C   0  0  0  0  0  0  0  0  0  0  0  0
   59.6520   34.0470   49.1520 C   0  0  0  0  0  0  0  0  0  0  0  0
   60.7970   33.8430   45.9520 C   0  0  0  0  0  0  0  0  0  0  0  0
   62.0160   34.1170   46.8430 C   0  0  0  0  0  0  0  0  0  0  0  0
   62.9070   33.0240   46.7970 O   0  0  0  0  0  0  0  0  0  0  0  0
   64.0840   33.3310   47.5110 C   0  0  0  0  0  0  0  0  0  0  0  0
   63.9690   32.7900   48.9410 C   0  0  0  0  0  0  0  0  0  0  0  0
   62.5700   32.6640   49.3960 N   0  0  0  0  0  0  0  0  0  0  0  0
   62.2040   31.2880   49.6750 C   0  0  0  0  0  0  0  0  0  0  0  0
   62.8400   30.5150   50.6870 C   0  0  0  0  0  0  0  0  0  0  0  0
   62.3840   29.1960   50.9590 C   0  0  0  0  0  0  0  0  0  0  0  0
   61.2900   28.6790   50.2930 N   0  0  0  0  0  0  0  0  0  0  0  0
   60.6080   27.4680   50.7770 C   0  0  0  0  0  0  0  0  0  0  0  0
   60.8130   29.3610   49.2050 C   0  0  0  0  0  0  0  0  0  0  0  0
   61.2080   30.6520   48.9230 C   0  0  0  0  0  0  0  0  0  0  0  0
   60.4130   31.1910   47.7680 C   0  0  0  0  0  0  0  0  0  0  0  0
   59.5640   30.0600   47.4050 N   0  0  0  0  0  0  0  0  0  0  0  0
   59.8010   28.9990   48.2050 C   0  0  0  0  0  0  0  0  0  0  0  0
   59.2320   27.7550   47.9130 C   0  0  0  0  0  0  0  0  0  0  0  0
   58.2930   27.6500   46.8600 C   0  0  0  0  0  0  0  0  0  0  0  0
   58.0010   28.8160   46.1000 C   0  0  0  0  0  0  0  0  0  0  0  0
   58.6860   30.0170   46.3690 C   0  0  0  0  0  0  0  0  0  0  0  0
   58.4950   31.0430   45.6590 O   0  0  0  0  0  0  0  0  0  0  0  0
   57.0180   28.7240   44.9630 C   0  0  0  0  0  0  0  0  0  0  0  0
   55.9790   27.8110   45.2900 O   0  0  0  0  0  0  0  0  0  0  0  0
   56.2470   26.6030   45.9340 C   0  0  0  0  0  0  0  0  0  0  0  0
   55.3280   25.7440   46.0110 O   0  0  0  0  0  0  0  0  0  0  0  0
   57.6560   26.3070   46.4460 C   0  0  1  0  0  0  0  0  0  0  0  0
   58.4130   25.7960   45.3740 O   0  0  0  0  0  0  0  0  0  0  0  0
   57.6070   25.2670   47.6230 C   0  0  0  0  0  0  0  0  0  0  0  0
   57.2700   23.8350   47.1800 C   0  0  0  0  0  0  0  0  0  0  0  0
   63.1140   28.4180   52.0410 C   0  0  0  0  0  0  0  0  0  0  0  0
   64.6410   28.5850   51.9360 C   0  0  0  0  0  0  0  0  0  0  0  0
   65.1100   30.0220   51.6150 C   0  0  0  0  0  0  0  0  0  0  0  0
   63.9710   31.0450   51.5470 C   0  0  0  0  0  0  0  0  0  0  0  0
   57.0929   33.4791   47.4182 H   0  0  0  0  0  0  0  0  0  0  0  0
   56.1486   33.9743   45.9727 H   0  0  0  0  0  0  0  0  0  0  0  0
   57.0387   32.4141   45.9727 H   0  0  0  0  0  0  0  0  0  0  0  0
   58.5136   33.7415   44.7625 H   0  0  0  0  0  0  0  0  0  0  0  0
   58.0650   35.2371   45.6944 H   0  0  0  0  0  0  0  0  0  0  0  0
   60.3246   35.5473   47.7637 H   0  0  0  0  0  0  0  0  0  0  0  0
   58.5080   35.3282   47.8921 H   0  0  0  0  0  0  0  0  0  0  0  0
   59.5127   34.7247   50.0072 H   0  0  0  0  0  0  0  0  0  0  0  0
   58.8999   33.2454   49.1931 H   0  0  0  0  0  0  0  0  0  0  0  0
   60.6594   33.6071   49.1931 H   0  0  0  0  0  0  0  0  0  0  0  0
   60.8718   32.8103   45.5807 H   0  0  0  0  0  0  0  0  0  0  0  0
   60.8254   34.5993   45.1538 H   0  0  0  0  0  0  0  0  0  0  0  0
   62.5311   35.0212   46.4865 H   0  0  0  0  0  0  0  0  0  0  0  0
   61.6782   34.2621   47.8797 H   0  0  0  0  0  0  0  0  0  0  0  0
   64.9475   32.8672   47.0117 H   0  0  0  0  0  0  0  0  0  0  0  0
   64.2209   34.4220   47.5412 H   0  0  0  0  0  0  0  0  0  0  0  0
   64.4417   31.7975   48.9800 H   0  0  0  0  0  0  0  0  0  0  0  0
   64.4698   33.5079   49.6072 H   0  0  0  0  0  0  0  0  0  0  0  0
   62.4230   33.2720   50.2330 H   0  0  0  0  0  0  0  0  0  0  0  0
   61.9290   33.0540   48.6690 H   0  0  0  0  0  0  0  0  0  0  0  0
   60.6055   27.4635   51.8770 H   0  0  0  0  0  0  0  0  0  0  0  0
   59.5718   27.4584   50.4079 H   0  0  0  0  0  0  0  0  0  0  0  0
   61.1370   26.5770   50.4079 H   0  0  0  0  0  0  0  0  0  0  0  0
   59.8089   32.0582   48.0730 H   0  0  0  0  0  0  0  0  0  0  0  0
   61.0390   31.5502   46.9379 H   0  0  0  0  0  0  0  0  0  0  0  0
   59.5122   26.8660   48.4971 H   0  0  0  0  0  0  0  0  0  0  0  0
   56.5842   29.7173   44.7755 H   0  0  0  0  0  0  0  0  0  0  0  0
   57.5403   28.3684   44.0626 H   0  0  0  0  0  0  0  0  0  0  0  0
   57.8510   25.8380   44.5560 H   0  0  0  0  0  0  0  0  0  0  0  0
   58.5912   25.2542   48.1141 H   0  0  0  0  0  0  0  0  0  0  0  0
   56.8001   25.5889   48.2978 H   0  0  0  0  0  0  0  0  0  0  0  0
   57.1211   23.2022   48.0673 H   0  0  0  0  0  0  0  0  0  0  0  0
   56.3496   23.8445   46.5778 H   0  0  0  0  0  0  0  0  0  0  0  0
   58.0981   23.4330   46.5778 H   0  0  0  0  0  0  0  0  0  0  0  0
   62.7832   28.7814   53.0251 H   0  0  0  0  0  0  0  0  0  0  0  0
   62.8777   27.3514   51.9127 H   0  0  0  0  0  0  0  0  0  0  0  0
   65.0858   28.2853   52.8964 H   0  0  0  0  0  0  0  0  0  0  0  0
   64.9665   27.9554   51.0948 H   0  0  0  0  0  0  0  0  0  0  0  0
   65.8147   30.3395   52.3976 H   0  0  0  0  0  0  0  0  0  0  0  0
   65.5729   29.9920   50.6176 H   0  0  0  0  0  0  0  0  0  0  0  0
   63.5952   31.2380   52.5626 H   0  0  0  0  0  0  0  0  0  0  0  0
   64.3521   31.9767   51.1035 H   0  0  0  0  0  0  0  0  0  0  0  0
  1  2  1  0
  2  3  1  0
  3  4  1  0
  4  5  1  0
  3  6  1  0
  6  7  1  0
  7  8  1  0
  8  9  1  0
  9 10  1  0
 10 11  1  0
 11 12  1  0
 12 13  2  0
 13 14  1  0
 14 15  2  0
 15 16  1  0
 15 17  1  0
 17 18  2  0
 18 19  1  0
 19 20  1  0
 20 21  1  0
 21 22  2  0
 22 23  1  0
 23 24  2  0
 24 25  1  0
 25 26  2  0
 24 27  1  0
 27 28  1  0
 28 29  1  0
 29 30  2  0
 29 31  1  0
 31 32  1  6
 31 33  1  0
 33 34  1  0
 14 35  1  0
 35 36  1  0
 36 37  1  0
 37 38  1  0
 18 12  1  0
 25 20  1  0
 38 13  1  0
 21 17  1  0
 31 23  1  0
  1 39  1  0
  1 40  1  0
  1 41  1  0
  2 42  1  0
  2 43  1  0
  4 44  1  0
  4 45  1  0
  5 46  1  0
  5 47  1  0
  5 48  1  0
  6 49  1  0
  6 50  1  0
  7 51  1  0
  7 52  1  0
  9 53  1  0
  9 54  1  0
 10 55  1  0
 10 56  1  0
 11 57  1  0
 11 58  1  0
 16 59  1  0
 16 60  1  0
 16 61  1  0
 19 62  1  0
 19 63  1  0
 22 64  1  0
 27 65  1  0
 27 66  1  0
 32 67  1  0
 33 68  1  0
 33 69  1  0
 34 70  1  0
 34 71  1  0
 34 72  1  0
 35 73  1  0
 35 74  1  0
 36 75  1  0
 36 76  1  0
 37 77  1  0
 37 78  1  0
 38 79  1  0
 38 80  1  0
M  CHG  2  11   1  15   1
M  END
>  <UniqueID>  (1) 
1

>  <SMILES>  (1) 
CCN(CC)CCOCC[NH2+]c1c2c([n+](C)c3c1Cn1c-3cc3c(c1=O)COC(=O)[C@]3(O)CC)CCCC2

>  <Energy>  (1) 
141.43772297606452

>  <Genealogy>  (1) 
CCN(CC)CCOCC[NH2+]c1c2c([n+](C)c3c1Cn1c-3cc3c(c1=O)COC(=O)C3(O)CC)CCCC2 (protonated)
CCN(CC)CCOCC[NH2+]c1c2c([n+](C)c3c1Cn1c-3cc3c(c1=O)COC(=O)[C@]3(O)CC)CCCC2 (chirality)
CCN(CC)CCOCC[NH2+]c1c2c([n+](C)c3c1Cn1c-3cc3c(c1=O)COC(=O)[C@]3(O)CC)CCCC2 (3D coordinates assigned)
CCN(CC)CCOCC[NH2+]c1c2c([n+](C)c3c1Cn1c-3cc3c(c1=O)COC(=O)[C@]3(O)CC)CCCC2 (nonaromatic ring conformer: 141.43772297606452 kcal/mol)

>  <smiles>  (1) 
CCN(CC)CCOCCNc1c2c([n+](C)c3c1Cn1c-3cc3c(c1=O)COC(=O)C3(O)CC)CCCC2

>  <score_type>  (1) 
oracle

>  <origin>  (1) 
adg

>  <m_score__min__energy>  (1) 
-5.21

>  <m_primary>  (1) 
energy

$$$$
1:0
     RDKit          3D

 48 51  0  0  0  0  0  0  0  0999 V2000
   58.2900   32.7640   43.9060 C   0  0  0  0  0  0  0  0  0  0  0  0
   57.7120   31.4950   44.4800 C   0  0  0  0  0  0  0  0  0  0  0  0
   56.4870   31.0210   43.9930 C   0  0  0  0  0  0  0  0  0  0  0  0
   55.9490   29.8450   44.5190 C   0  0  0  0  0  0  0  0  0  0  0  0
   54.8490   29.4090   44.0880 O   0  0  0  0  0  0  0  0  0  0  0  0
   56.5890   29.1800   45.4730 O   0  0  0  0  0  0  0  0  0  0  0  0
   57.7520   29.5840   45.9720 C   0  0  0  0  0  0  0  0  0  0  0  0
   58.3620   28.8320   46.9760 C   0  0  0  0  0  0  0  0  0  0  0  0
   59.5900   29.2320   47.5280 C   0  0  0  0  0  0  0  0  0  0  0  0
   60.2350   30.3900   47.0400 C   0  0  0  0  0  0  0  0  0  0  0  0
   59.6050   31.1560   46.0420 C   0  0  0  0  0  0  0  0  0  0  0  0
   58.3680   30.7620   45.4950 C   0  0  0  0  0  0  0  0  0  0  0  0
   61.5660   30.8710   47.5900 C   0  0  0  0  0  0  0  0  0  0  0  0
   61.7610   30.8610   49.1360 C   0  0  0  0  0  0  0  0  0  0  0  0
   60.5680   30.5220   49.9560 N   0  0  2  0  0  0  0  0  0  0  0  0
   60.6040   31.1250   51.3210 C   0  0  0  0  0  0  0  0  0  0  0  0
   59.9760   32.5310   51.3820 C   0  0  0  0  0  0  0  0  0  0  0  0
   59.9010   33.1460   50.0570 N   0  0  0  0  0  0  0  0  0  0  0  0
   60.8220   34.1470   49.5380 C   0  0  0  0  0  0  0  0  0  0  0  0
   60.2730   34.5230   48.1390 C   0  0  0  0  0  0  0  0  0  0  0  0
   59.0780   33.7130   47.9260 N   0  0  0  0  0  0  0  0  0  0  0  0
   58.9050   32.9250   49.0830 C   0  0  0  0  0  0  0  0  0  0  0  0
   57.9560   32.1090   49.2230 O   0  0  0  0  0  0  0  0  0  0  0  0
   60.2400   29.0660   49.9520 C   0  0  0  0  0  0  0  0  0  0  0  0
   60.2420   28.3760   48.5720 C   0  0  0  0  0  0  0  0  0  0  0  0
   58.5942   33.4318   44.7254 H   0  0  0  0  0  0  0  0  0  0  0  0
   59.1661   32.5207   43.2869 H   0  0  0  0  0  0  0  0  0  0  0  0
   57.5314   33.2652   43.2869 H   0  0  0  0  0  0  0  0  0  0  0  0
   55.9538   31.5705   43.2032 H   0  0  0  0  0  0  0  0  0  0  0  0
   57.8756   27.9149   47.3397 H   0  0  0  0  0  0  0  0  0  0  0  0
   60.0863   32.0777   45.6830 H   0  0  0  0  0  0  0  0  0  0  0  0
   62.3499   30.2325   47.1566 H   0  0  0  0  0  0  0  0  0  0  0  0
   61.6117   31.9344   47.3125 H   0  0  0  0  0  0  0  0  0  0  0  0
   62.5455   30.1258   49.3685 H   0  0  0  0  0  0  0  0  0  0  0  0
   62.0109   31.8984   49.4032 H   0  0  0  0  0  0  0  0  0  0  0  0
   59.7780   30.9790   49.4420 H   0  0  0  0  0  0  0  0  0  0  0  0
   60.0532   30.4663   52.0085 H   0  0  0  0  0  0  0  0  0  0  0  0
   61.6619   31.2276   51.6045 H   0  0  0  0  0  0  0  0  0  0  0  0
   58.9601   32.4504   51.7960 H   0  0  0  0  0  0  0  0  0  0  0  0
   60.6112   33.1638   52.0192 H   0  0  0  0  0  0  0  0  0  0  0  0
   60.8412   35.0297   50.1941 H   0  0  0  0  0  0  0  0  0  0  0  0
   61.8528   33.7668   49.4849 H   0  0  0  0  0  0  0  0  0  0  0  0
   60.0169   35.5923   48.1071 H   0  0  0  0  0  0  0  0  0  0  0  0
   61.0228   34.3356   47.3562 H   0  0  0  0  0  0  0  0  0  0  0  0
   60.9783   28.5530   50.5858 H   0  0  0  0  0  0  0  0  0  0  0  0
   59.2052   28.9942   50.3180 H   0  0  0  0  0  0  0  0  0  0  0  0
   61.2819   28.1778   48.2731 H   0  0  0  0  0  0  0  0  0  0  0  0
   59.6724   27.4386   48.6543 H   0  0  0  0  0  0  0  0  0  0  0  0
  1  2  1  0
  2  3  2  0
  3  4  1  0
  4  5  2  0
  4  6  1  0
  6  7  1  0
  7  8  2  0
  8  9  1  0
  9 10  2  0
 10 11  1  0
 11 12  2  0
 10 13  1  0
 13 14  1  0
 14 15  1  0
 15 16  1  0
 16 17  1  0
 17 18  1  0
 18 19  1  0
 19 20  1  0
 20 21  1  0
 21 22  1  0
 22 23  2  0
 15 24  1  0
 24 25  1  0
 12  2  1  0
 22 18  1  0
 12  7  1  0
 25  9  1  0
  1 26  1  0
  1 27  1  0
  1 28  1  0
  3 29  1  0
  8 30  1  0
 11 31  1  0
 13 32  1  0
 13 33  1  0
 14 34  1  0
 14 35  1  0
 15 36  1  6
 16 37  1  0
 16 38  1  0
 17 39  1  0
 17 40  1  0
 19 41  1  0
 19 42  1  0
 20 43  1  0
 20 44  1  0
 24 45  1  0
 24 46  1  0
 25 47  1  0
 25 48  1  0
M  CHG  2  15   1  21  -1
M  END
>  <UniqueID>  (2) 
2

>  <SMILES>  (2) 
Cc1cc(=O)oc2cc3c(cc12)CC[N@H+](CCN1CC[N-]C1=O)CC3

>  <Energy>  (2) 
86.3009699656307

>  <Genealogy>  (2) 
Cc1cc(=O)oc2cc3c(cc12)CC[NH+](CCN1CC[N-]C1=O)CC3 (protonated)
Cc1cc(=O)oc2cc3c(cc12)CC[N@H+](CCN1CC[N-]C1=O)CC3 (chirality)
Cc1cc(=O)oc2cc3c(cc12)CC[N@H+](CCN1CC[N-]C1=O)CC3 (3D coordinates assigned)
Cc1cc(=O)oc2cc3c(cc12)CC[N@H+](CCN1CC[N-]C1=O)CC3 (nonaromatic ring conformer: 86.3009699656307 kcal/mol)

>  <smiles>  (2) 
Cc1cc(=O)oc2cc3c(cc12)CCN(CCN1CCNC1=O)CC3

>  <score_type>  (2) 
oracle

>  <origin>  (2) 
adg

>  <m_score__min__energy>  (2) 
-6.6900000000000004

>  <m_primary>  (2) 
energy

$$$$
2:0
     RDKit          3D

 62 62  0  0  0  0  0  0  0  0999 V2000
   61.7380   33.3620   50.1030 C   0  0  0  0  0  0  0  0  0  0  0  0
   61.2650   34.1410   48.8700 C   0  0  0  0  0  0  0  0  0  0  0  0
   61.3460   33.3290   47.6260 N   0  0  0  0  0  0  0  0  0  0  0  0
   62.5520   32.4580   47.6500 C   0  0  0  0  0  0  0  0  0  0  0  0
   63.7870   33.1510   47.0620 C   0  0  0  0  0  0  0  0  0  0  0  0
   61.3800   34.2150   46.4270 C   0  0  0  0  0  0  0  0  0  0  0  0
   60.0120   34.8440   46.1340 C   0  0  0  0  0  0  0  0  0  0  0  0
   59.0000   33.9950   46.6310 O   0  0  0  0  0  0  0  0  0  0  0  0
   57.9920   33.8250   45.6570 C   0  0  0  0  0  0  0  0  0  0  0  0
   58.0910   32.4100   45.0920 C   0  0  0  0  0  0  0  0  0  0  0  0
   56.7170   31.8760   44.6250 C   0  0  0  0  0  0  0  0  0  0  0  0
   56.5930   30.4000   44.6750 N   0  0  0  0  0  0  0  0  0  0  0  0
   56.4140   29.7250   43.3790 C   0  0  0  0  0  0  0  0  0  0  0  0
   57.4930   29.7030   45.6250 C   0  0  0  0  0  0  0  0  0  0  0  0
   58.1390   28.4200   45.0780 C   0  0  0  0  0  0  0  0  0  0  0  0
   59.3920   28.2030   45.6920 O   0  0  0  0  0  0  0  0  0  0  0  0
   60.2520   29.2870   45.4100 C   0  0  0  0  0  0  0  0  0  0  0  0
   60.7510   29.8910   46.7210 C   0  0  0  0  0  0  0  0  0  0  0  0
   59.8660   30.9130   47.1860 O   0  0  0  0  0  0  0  0  0  0  0  0
   59.2640   30.9560   48.4510 C   0  0  0  0  0  0  0  0  0  0  0  0
   58.6350   32.1120   48.9550 C   0  0  0  0  0  0  0  0  0  0  0  0
   58.0670   32.1040   50.2350 C   0  0  0  0  0  0  0  0  0  0  0  0
   58.1150   30.9470   51.0160 C   0  0  0  0  0  0  0  0  0  0  0  0
   57.3510   30.9430   52.7670 Br  0  0  0  0  0  0  0  0  0  0  0  0
   58.7280   29.7940   50.5160 C   0  0  0  0  0  0  0  0  0  0  0  0
   59.2940   29.7990   49.2380 C   0  0  0  0  0  0  0  0  0  0  0  0
   61.4183   33.8886   51.0143 H   0  0  0  0  0  0  0  0  0  0  0  0
   61.2998   32.3531   50.0896 H   0  0  0  0  0  0  0  0  0  0  0  0
   62.8352   33.2854   50.0896 H   0  0  0  0  0  0  0  0  0  0  0  0
   60.2202   34.4485   49.0247 H   0  0  0  0  0  0  0  0  0  0  0  0
   61.9253   35.0122   48.7477 H   0  0  0  0  0  0  0  0  0  0  0  0
   60.4970   32.7170   47.5770 H   0  0  0  0  0  0  0  0  0  0  0  0
   62.7660   32.1801   48.6926 H   0  0  0  0  0  0  0  0  0  0  0  0
   62.3385   31.5734   47.0320 H   0  0  0  0  0  0  0  0  0  0  0  0
   64.4291   33.5113   47.8792 H   0  0  0  0  0  0  0  0  0  0  0  0
   64.3484   32.4362   46.4425 H   0  0  0  0  0  0  0  0  0  0  0  0
   63.4694   34.0027   46.4425 H   0  0  0  0  0  0  0  0  0  0  0  0
   62.1100   35.0192   46.6011 H   0  0  0  0  0  0  0  0  0  0  0  0
   61.6622   33.5999   45.5598 H   0  0  0  0  0  0  0  0  0  0  0  0
   59.9444   35.8256   46.6259 H   0  0  0  0  0  0  0  0  0  0  0  0
   59.8878   34.9747   45.0489 H   0  0  0  0  0  0  0  0  0  0  0  0
   57.0038   33.9714   46.1175 H   0  0  0  0  0  0  0  0  0  0  0  0
   58.1227   34.5609   44.8499 H   0  0  0  0  0  0  0  0  0  0  0  0
   58.7795   32.4174   44.2342 H   0  0  0  0  0  0  0  0  0  0  0  0
   58.4587   31.7497   45.8912 H   0  0  0  0  0  0  0  0  0  0  0  0
   55.9398   32.3101   45.2712 H   0  0  0  0  0  0  0  0  0  0  0  0
   56.6046   32.1684   43.5705 H   0  0  0  0  0  0  0  0  0  0  0  0
   56.1354   28.6744   43.5482 H   0  0  0  0  0  0  0  0  0  0  0  0
   55.6183   30.2283   42.8102 H   0  0  0  0  0  0  0  0  0  0  0  0
   57.3546   29.7679   42.8102 H   0  0  0  0  0  0  0  0  0  0  0  0
   58.2977   30.3981   45.9066 H   0  0  0  0  0  0  0  0  0  0  0  0
   56.8671   29.3960   46.4758 H   0  0  0  0  0  0  0  0  0  0  0  0
   57.4797   27.5644   45.2861 H   0  0  0  0  0  0  0  0  0  0  0  0
   58.2855   28.5272   43.9931 H   0  0  0  0  0  0  0  0  0  0  0  0
   61.1094   28.9317   44.8195 H   0  0  0  0  0  0  0  0  0  0  0  0
   59.7057   30.0509   44.8372 H   0  0  0  0  0  0  0  0  0  0  0  0
   60.8149   29.0980   47.4807 H   0  0  0  0  0  0  0  0  0  0  0  0
   61.7404   30.3385   46.5455 H   0  0  0  0  0  0  0  0  0  0  0  0
   58.5900   33.0236   48.3410 H   0  0  0  0  0  0  0  0  0  0  0  0
   57.5821   33.0106   50.6261 H   0  0  0  0  0  0  0  0  0  0  0  0
   58.7649   28.8816   51.1294 H   0  0  0  0  0  0  0  0  0  0  0  0
   59.7670   28.8859   48.8475 H   0  0  0  0  0  0  0  0  0  0  0  0
  1  2  1  0
  2  3  1  0
  3  4  1  0
  4  5  1  0
  3  6  1  0
  6  7  1  0
  7  8  1  0
  8  9  1  0
  9 10  1  0
 10 11  1  0
 11 12  1  0
 12 13  1  0
 12 14  1  0
 14 15  1  0
 15 16  1  0
 16 17  1  0
 17 18  1  0
 18 19  1  0
 19 20  1  0
 20 21  2  0
 21 22  1  0
 22 23  2  0
 23 24  1  0
 23 25  1  0
 25 26  2  0
 26 20  1  0
  1 27  1  0
  1 28  1  0
  1 29  1  0
  2 30  1  0
  2 31  1  0
  3 32  1  0
  4 33  1  0
  4 34  1  0
  5 35  1  0
  5 36  1  0
  5 37  1  0
  6 38  1  0
  6 39  1  0
  7 40  1  0
  7 41  1  0
  9 42  1  0
  9 43  1  0
 10 44  1  0
 10 45  1  0
 11 46  1  0
 11 47  1  0
 13 48  1  0
 13 49  1  0
 13 50  1  0
 14 51  1  0
 14 52  1  0
 15 53  1  0
 15 54  1  0
 17 55  1  0
 17 56  1  0
 18 57  1  0
 18 58  1  0
 21 59  1  0
 22 60  1  0
 25 61  1  0
 26 62  1  0
M  CHG  1   3   1
M  END
>  <UniqueID>  (3) 
3

>  <SMILES>  (3) 
CC[NH+](CC)CCOCCCN(C)CCOCCOc1ccc(Br)cc1

>  <Energy>  (3) 
55.629247711901286

>  <Genealogy>  (3) 
CC[NH+](CC)CCOCCCN(C)CCOCCOc1ccc(Br)cc1 (protonated)
CC[NH+](CC)CCOCCCN(C)CCOCCOc1ccc(Br)cc1 (3D coordinates assigned)
CC[NH+](CC)CCOCCCN(C)CCOCCOc1ccc(Br)cc1 (optimized conformer: 55.629247711901286 kcal/mol)

>  <smiles>  (3) 
CCN(CC)CCOCCCN(C)CCOCCOc1ccc(Br)cc1

>  <score_type>  (3) 
oracle

>  <origin>  (3) 
adg

>  <m_score__min__energy>  (3) 
-4.25

>  <m_primary>  (3) 
energy

$$$$
3:0
     RDKit          3D

 26 28  0  0  0  0  0  0  0  0999 V2000
   55.4090   29.0190   44.8640 N   0  0  0  0  0  0  0  0  0  0  0  0
   56.2350   29.7600   43.9690 C   0  0  0  0  0  0  0  0  0  0  0  0
   56.2120   29.5000   42.7370 O   0  0  0  0  0  0  0  0  0  0  0  0
   57.1110   30.8240   44.4780 C   0  0  0  0  0  0  0  0  0  0  0  0
   57.3240   32.0630   43.8830 C   0  0  0  0  0  0  0  0  0  0  0  0
   58.2140   32.8750   44.5970 C   0  0  0  0  0  0  0  0  0  0  0  0
   58.7030   32.2740   45.7540 C   0  0  0  0  0  0  0  0  0  0  0  0
   59.6510   32.8760   46.7040 C   0  0  0  0  0  0  0  0  0  0  0  0
   59.5540   34.1480   47.2580 C   0  0  0  0  0  0  0  0  0  0  0  0
   60.6040   34.4540   48.1340 C   0  0  0  0  0  0  0  0  0  0  0  0
   61.5300   33.4240   48.2690 C   0  0  0  0  0  0  0  0  0  0  0  0
   62.7360   33.4400   49.1110 C   0  0  0  0  0  0  0  0  0  0  0  0
   62.8810   34.0830   50.3370 C   0  0  0  0  0  0  0  0  0  0  0  0
   64.1510   33.9180   50.9020 C   0  0  0  0  0  0  0  0  0  0  0  0
   65.0110   33.1500   50.1300 C   0  0  0  0  0  0  0  0  0  0  0  0
   64.1900   32.6740   48.7430 S   0  0  0  0  0  0  0  0  0  0  0  0
   61.0400   32.1360   47.3010 S   0  0  0  0  0  0  0  0  0  0  0  0
   58.0280   30.7370   45.8870 S   0  0  0  0  0  0  0  0  0  0  0  0
   54.4420   29.3400   45.0900 H   0  0  0  0  0  0  0  0  0  0  0  0
   56.8413   32.3742   42.9448 H   0  0  0  0  0  0  0  0  0  0  0  0
   58.4987   33.8877   44.2755 H   0  0  0  0  0  0  0  0  0  0  0  0
   58.7339   34.8451   47.0309 H   0  0  0  0  0  0  0  0  0  0  0  0
   60.6881   35.4146   48.6633 H   0  0  0  0  0  0  0  0  0  0  0  0
   62.0775   34.6631   50.8144 H   0  0  0  0  0  0  0  0  0  0  0  0
   64.4404   34.3565   51.8684 H   0  0  0  0  0  0  0  0  0  0  0  0
   66.0512   32.8964   50.3824 H   0  0  0  0  0  0  0  0  0  0  0  0
  1  2  1  0
  2  3  2  0
  2  4  1  0
  4  5  2  0
  5  6  1  0
  6  7  2  0
  7  8  1  0
  8  9  2  0
  9 10  1  0
 10 11  2  0
 11 12  1  0
 12 13  2  0
 13 14  1  0
 14 15  2  0
 15 16  1  0
 11 17  1  0
  7 18  1  0
 18  4  1  0
 17  8  1  0
 16 12  1  0
  1 19  1  0
  5 20  1  0
  6 21  1  0
  9 22  1  0
 10 23  1  0
 13 24  1  0
 14 25  1  0
 15 26  1  0
M  CHG  1   1  -1
M  END
>  <UniqueID>  (4) 
4

>  <SMILES>  (4) 
[NH-]C(=O)c1ccc(-c2ccc(-c3cccs3)s2)s1

>  <Energy>  (4) 
104.95049926869925

>  <Genealogy>  (4) 
[NH-]C(=O)c1ccc(-c2ccc(-c3cccs3)s2)s1 (protonated)
[NH-]C(=O)c1ccc(-c2ccc(-c3cccs3)s2)s1 (3D coordinates assigned)
[NH-]C(=O)c1ccc(-c2ccc(-c3cccs3)s2)s1 (optimized conformer: 104.95049926869925 kcal/mol)

>  <smiles>  (4) 
NC(=O)c1ccc(-c2ccc(-c3cccs3)s2)s1

>  <score_type>  (4) 
oracle

>  <origin>  (4) 
adg

>  <m_score__min__energy>  (4) 
-10.08

>  <m_primary>  (4) 
energy

$$$$
4:0
     RDKit          3D

 63 66  0  0  0  0  0  0  0  0999 V2000
   55.7620   29.7840   43.6400 C   0  0  0  0  0  0  0  0  0  0  0  0
   56.5720   29.6430   44.9270 C   0  0  0  0  0  0  0  0  0  0  0  0
   57.9780   30.0550   44.6870 N   0  0  0  0  0  0  0  0  0  0  0  0
   58.8550   28.8600   44.5470 C   0  0  0  0  0  0  0  0  0  0  0  0
   59.2030   28.1340   45.8970 C   0  0  2  0  0  0  0  0  0  0  0  0
   58.4980   26.7690   46.0750 C   0  0  0  0  0  0  0  0  0  0  0  0
   57.1080   26.8590   45.7640 O   0  0  0  0  0  0  0  0  0  0  0  0
   56.1230   26.0950   46.4030 C   0  0  0  0  0  0  0  0  0  0  0  0
   56.4230   25.3140   47.3440 O   0  0  0  0  0  0  0  0  0  0  0  0
   54.7620   26.1970   45.9870 N   0  0  0  0  0  0  0  0  0  0  0  0
   53.9960   25.0350   45.5610 C   0  0  0  0  0  0  0  0  0  0  0  0
   54.3840   23.7580   46.2800 C   0  0  0  0  0  0  0  0  0  0  0  0
   54.8310   23.9900   44.8470 C   0  0  0  0  0  0  0  0  0  0  0  0
   58.9900   29.0300   47.0990 C   0  0  0  0  0  0  0  0  0  0  0  0
   58.7080   30.3790   47.0050 C   0  0  0  0  0  0  0  0  0  0  0  0
   59.0470   30.9290   48.2340 C   0  0  0  0  0  0  0  0  0  0  0  0
   59.1110   32.2860   48.5310 O   0  0  0  0  0  0  0  0  0  0  0  0
   59.4230   29.9620   49.0950 N   0  0  0  0  0  0  0  0  0  0  0  0
   59.7940   30.1330   50.5010 C   0  0  0  0  0  0  0  0  0  0  0  0
   58.5880   30.5490   51.2960 C   0  0  0  0  0  0  0  0  0  0  0  0
   57.8210   29.5850   51.9750 C   0  0  0  0  0  0  0  0  0  0  0  0
   56.6700   29.9670   52.6700 C   0  0  0  0  0  0  0  0  0  0  0  0
   56.2760   31.3090   52.6880 C   0  0  0  0  0  0  0  0  0  0  0  0
   57.0260   32.2690   52.0060 C   0  0  0  0  0  0  0  0  0  0  0  0
   58.1750   31.8910   51.3040 C   0  0  0  0  0  0  0  0  0  0  0  0
   59.4090   28.8090   48.3990 C   0  0  0  0  0  0  0  0  0  0  0  0
   59.8390   27.5900   48.9110 O   0  0  0  0  0  0  0  0  0  0  0  0
   58.5640   31.0240   45.6580 C   0  0  2  0  0  0  0  0  0  0  0  0
   57.9520   32.4550   45.5990 C   0  0  0  0  0  0  0  0  0  0  0  0
   58.9470   33.5460   45.7530 N   0  0  0  0  0  0  0  0  0  0  0  0
   58.5370   34.5100   46.7950 C   0  0  0  0  0  0  0  0  0  0  0  0
   59.2190   34.2600   44.4900 C   0  0  0  0  0  0  0  0  0  0  0  0
   54.7065   29.9677   43.8893 H   0  0  0  0  0  0  0  0  0  0  0  0
   56.1521   30.6278   43.0518 H   0  0  0  0  0  0  0  0  0  0  0  0
   55.8440   28.8581   43.0518 H   0  0  0  0  0  0  0  0  0  0  0  0
   56.1325   30.2827   45.7065 H   0  0  0  0  0  0  0  0  0  0  0  0
   56.5531   28.5927   45.2535 H   0  0  0  0  0  0  0  0  0  0  0  0
   58.3465   28.1376   43.8915 H   0  0  0  0  0  0  0  0  0  0  0  0
   59.8088   29.2231   44.1367 H   0  0  0  0  0  0  0  0  0  0  0  0
   60.2778   27.9093   45.8313 H   0  0  0  0  0  0  0  0  0  0  0  0
   58.9680   26.0330   45.4061 H   0  0  0  0  0  0  0  0  0  0  0  0
   58.5994   26.4602   47.1259 H   0  0  0  0  0  0  0  0  0  0  0  0
   53.0499   25.5554   45.3509 H   0  0  0  0  0  0  0  0  0  0  0  0
   55.1194   23.7886   47.0975 H   0  0  0  0  0  0  0  0  0  0  0  0
   53.8343   22.9626   46.8045 H   0  0  0  0  0  0  0  0  0  0  0  0
   55.8902   24.1887   44.6264 H   0  0  0  0  0  0  0  0  0  0  0  0
   54.7393   23.4324   43.9032 H   0  0  0  0  0  0  0  0  0  0  0  0
   60.1816   29.1820   50.8952 H   0  0  0  0  0  0  0  0  0  0  0  0
   60.5690   30.9094   50.5815 H   0  0  0  0  0  0  0  0  0  0  0  0
   58.1275   28.5287   51.9590 H   0  0  0  0  0  0  0  0  0  0  0  0
   56.0737   29.2118   53.2031 H   0  0  0  0  0  0  0  0  0  0  0  0
   55.3733   31.6086   53.2407 H   0  0  0  0  0  0  0  0  0  0  0  0
   56.7130   33.3234   52.0208 H   0  0  0  0  0  0  0  0  0  0  0  0
   58.7568   32.6472   50.7566 H   0  0  0  0  0  0  0  0  0  0  0  0
   59.5915   31.2634   45.3467 H   0  0  0  0  0  0  0  0  0  0  0  0
   57.4527   32.5775   44.6265 H   0  0  0  0  0  0  0  0  0  0  0  0
   57.2562   32.5379   46.4469 H   0  0  0  0  0  0  0  0  0  0  0  0
   58.7215   34.0762   47.7889 H   0  0  0  0  0  0  0  0  0  0  0  0
   59.1186   35.4373   46.6859 H   0  0  0  0  0  0  0  0  0  0  0  0
   57.4656   34.7342   46.6859 H   0  0  0  0  0  0  0  0  0  0  0  0
   59.6025   35.2666   44.7131 H   0  0  0  0  0  0  0  0  0  0  0  0
   59.9679   33.7030   43.9079 H   0  0  0  0  0  0  0  0  0  0  0  0
   58.2893   34.3425   43.9079 H   0  0  0  0  0  0  0  0  0  0  0  0
  1  2  1  0
  2  3  1  0
  3  4  1  0
  4  5  1  0
  5  6  1  0
  6  7  1  0
  7  8  1  0
  8  9  2  0
  8 10  1  0
 10 11  1  0
 11 12  1  0
 12 13  1  0
  5 14  1  0
 14 15  1  0
 15 16  2  0
 16 17  1  0
 16 18  1  0
 18 19  1  0
 19 20  1  0
 20 21  2  0
 21 22  1  0
 22 23  2  0
 23 24  1  0
 24 25  2  0
 18 26  1  0
 26 27  1  0
 15 28  1  0
 28 29  1  0
 29 30  1  0
 30 31  1  0
 30 32  1  0
 28  3  1  0
 13 11  1  0
 26 14  2  0
 25 20  1  0
  1 33  1  0
  1 34  1  0
  1 35  1  0
  2 36  1  0
  2 37  1  0
  4 38  1  0
  4 39  1  0
  5 40  1  6
  6 41  1  0
  6 42  1  0
 11 43  1  0
 12 44  1  0
 12 45  1  0
 13 46  1  0
 13 47  1  0
 19 48  1  0
 19 49  1  0
 21 50  1  0
 22 51  1  0
 23 52  1  0
 24 53  1  0
 25 54  1  0
 28 55  1  6
 29 56  1  0
 29 57  1  0
 31 58  1  0
 31 59  1  0
 31 60  1  0
 32 61  1  0
 32 62  1  0
 32 63  1  0
M  CHG  3  10  -1  17  -1  27  -1
M  END
>  <UniqueID>  (5) 
5

>  <SMILES>  (5) 
CCN1C[C@H](COC(=O)[N-]C2CC2)c2c(c([O-])n(Cc3ccccc3)c2[O-])[C@@H]1CN(C)C

>  <Energy>  (5) 
377.36230071331

>  <Genealogy>  (5) 
CCN1CC(COC(=O)[N-]C2CC2)c2c(c([O-])n(Cc3ccccc3)c2[O-])C1CN(C)C (protonated)
CCN1C[C@H](COC(=O)[N-]C2CC2)c2c(c([O-])n(Cc3ccccc3)c2[O-])[C@@H]1CN(C)C (chirality)
CCN1C[C@H](COC(=O)[N-]C2CC2)c2c(c([O-])n(Cc3ccccc3)c2[O-])[C@@H]1CN(C)C (3D coordinates assigned)
CCN1C[C@H](COC(=O)[N-]C2CC2)c2c(c([O-])n(Cc3ccccc3)c2[O-])[C@@H]1CN(C)C (nonaromatic ring conformer: 377.36230071331 kcal/mol)

>  <smiles>  (5) 
CCN1CC(COC(=O)NC2CC2)c2c(c(O)n(Cc3ccccc3)c2O)C1CN(C)C

>  <score_type>  (5) 
oracle

>  <origin>  (5) 
adg

>  <m_score__min__energy>  (5) 
-13.73

>  <m_primary>  (5) 
energy

$$$$
5:0
     RDKit          3D

 73 76  0  0  0  0  0  0  0  0999 V2000
   63.3250   31.5040   50.7130 C   0  0  0  0  0  0  0  0  0  0  0  0
   62.9490   32.6790   49.9060 N   0  0  0  0  0  0  0  0  0  0  0  0
   62.4380   33.7380   50.7980 C   0  0  0  0  0  0  0  0  0  0  0  0
   64.1230   33.1480   49.1340 C   0  0  0  0  0  0  0  0  0  0  0  0
   63.7870   33.3110   47.6410 C   0  0  0  0  0  0  0  0  0  0  0  0
   62.8530   32.2000   47.1230 C   0  0  0  0  0  0  0  0  0  0  0  0
   61.5780   32.1090   47.8680 N   0  0  0  0  0  0  0  0  0  0  0  0
   60.4690   31.7160   47.0070 C   0  0  0  0  0  0  0  0  0  0  0  0
   59.7310   32.6780   46.2560 C   0  0  0  0  0  0  0  0  0  0  0  0
   60.0390   34.0630   46.2830 C   0  0  0  0  0  0  0  0  0  0  0  0
   59.2600   34.9910   45.5970 C   0  0  0  0  0  0  0  0  0  0  0  0
   58.1510   34.5770   44.8770 C   0  0  0  0  0  0  0  0  0  0  0  0
   57.8390   33.2250   44.8010 C   0  0  0  0  0  0  0  0  0  0  0  0
   58.6390   32.2450   45.4460 C   0  0  0  0  0  0  0  0  0  0  0  0
   58.3600   30.9020   45.3090 N   0  0  0  0  0  0  0  0  0  0  0  0
   57.4740   30.4380   44.2180 C   0  0  0  0  0  0  0  0  0  0  0  0
   58.9410   29.9830   46.1550 C   0  0  0  0  0  0  0  0  0  0  0  0
   58.4460   28.6570   46.2500 C   0  0  0  0  0  0  0  0  0  0  0  0
   59.0850   27.6900   47.0420 C   0  0  0  0  0  0  0  0  0  0  0  0
   58.6170   26.3710   47.1650 O   0  0  0  0  0  0  0  0  0  0  0  0
   57.3510   25.8900   46.7080 C   0  0  0  0  0  0  0  0  0  0  0  0
   57.4440   24.3810   46.3760 C   0  0  0  0  0  0  0  0  0  0  0  0
   57.3080   24.0350   44.9230 N   0  0  0  0  0  0  0  0  0  0  0  0
   57.7190   25.2090   44.1050 C   0  0  0  0  0  0  0  0  0  0  0  0
   55.8570   23.7610   44.6810 C   0  0  0  0  0  0  0  0  0  0  0  0
   55.5350   23.3130   43.2370 C   0  0  0  0  0  0  0  0  0  0  0  0
   56.6170   22.4070   42.6330 C   0  0  0  0  0  0  0  0  0  0  0  0
   57.4720   21.7660   43.7180 C   0  0  0  0  0  0  0  0  0  0  0  0
   58.1570   22.8320   44.5960 C   0  0  0  0  0  0  0  0  0  0  0  0
   60.2360   28.0410   47.7330 C   0  0  0  0  0  0  0  0  0  0  0  0
   60.7090   29.3480   47.7100 C   0  0  0  0  0  0  0  0  0  0  0  0
   60.0500   30.3550   46.9620 C   0  0  0  0  0  0  0  0  0  0  0  0
   63.2455   31.7525   51.7816 H   0  0  0  0  0  0  0  0  0  0  0  0
   62.6496   30.6677   50.4798 H   0  0  0  0  0  0  0  0  0  0  0  0
   64.3605   31.2151   50.4798 H   0  0  0  0  0  0  0  0  0  0  0  0
   62.5834   33.4366   51.8459 H   0  0  0  0  0  0  0  0  0  0  0  0
   62.9837   34.6737   50.6065 H   0  0  0  0  0  0  0  0  0  0  0  0
   61.3660   33.8930   50.6065 H   0  0  0  0  0  0  0  0  0  0  0  0
   64.4500   34.1187   49.5350 H   0  0  0  0  0  0  0  0  0  0  0  0
   64.9210   32.3968   49.2284 H   0  0  0  0  0  0  0  0  0  0  0  0
   63.2942   34.2834   47.4942 H   0  0  0  0  0  0  0  0  0  0  0  0
   64.7291   33.2465   47.0768 H   0  0  0  0  0  0  0  0  0  0  0  0
   62.6254   32.4007   46.0657 H   0  0  0  0  0  0  0  0  0  0  0  0
   63.3786   31.2436   47.2611 H   0  0  0  0  0  0  0  0  0  0  0  0
   61.3940   32.9740   48.4080 H   0  0  0  0  0  0  0  0  0  0  0  0
   61.6830   31.4100   48.6360 H   0  0  0  0  0  0  0  0  0  0  0  0
   60.9105   34.4103   46.8573 H   0  0  0  0  0  0  0  0  0  0  0  0
   59.5263   36.0579   45.6268 H   0  0  0  0  0  0  0  0  0  0  0  0
   57.5182   35.3177   44.3661 H   0  0  0  0  0  0  0  0  0  0  0  0
   56.9543   32.9075   44.2296 H   0  0  0  0  0  0  0  0  0  0  0  0
   56.5773   29.9684   44.6485 H   0  0  0  0  0  0  0  0  0  0  0  0
   57.1764   31.2960   43.5973 H   0  0  0  0  0  0  0  0  0  0  0  0
   58.0098   29.7047   43.5973 H   0  0  0  0  0  0  0  0  0  0  0  0
   57.5405   28.3801   45.6901 H   0  0  0  0  0  0  0  0  0  0  0  0
   56.5978   26.0437   47.4948 H   0  0  0  0  0  0  0  0  0  0  0  0
   57.0624   26.4412   45.8009 H   0  0  0  0  0  0  0  0  0  0  0  0
   58.4225   24.0166   46.7220 H   0  0  0  0  0  0  0  0  0  0  0  0
   56.5919   23.9048   46.8832 H   0  0  0  0  0  0  0  0  0  0  0  0
   58.0085   26.0360   44.7700 H   0  0  0  0  0  0  0  0  0  0  0  0
   58.5738   24.9325   43.4703 H   0  0  0  0  0  0  0  0  0  0  0  0
   56.8784   25.5260   43.4703 H   0  0  0  0  0  0  0  0  0  0  0  0
   55.5354   22.9660   45.3698 H   0  0  0  0  0  0  0  0  0  0  0  0
   55.3218   24.7075   44.8478 H   0  0  0  0  0  0  0  0  0  0  0  0
   54.5823   22.7632   43.2451 H   0  0  0  0  0  0  0  0  0  0  0  0
   55.4817   24.2195   42.6162 H   0  0  0  0  0  0  0  0  0  0  0  0
   56.1326   21.6144   42.0438 H   0  0  0  0  0  0  0  0  0  0  0  0
   57.2691   23.0227   41.9960 H   0  0  0  0  0  0  0  0  0  0  0  0
   56.8316   21.1364   44.3533 H   0  0  0  0  0  0  0  0  0  0  0  0
   58.2532   21.1626   43.2325 H   0  0  0  0  0  0  0  0  0  0  0  0
   58.4515   22.3555   45.5427 H   0  0  0  0  0  0  0  0  0  0  0  0
   59.0089   23.2088   44.0109 H   0  0  0  0  0  0  0  0  0  0  0  0
   60.7806   27.2759   48.3058 H   0  0  0  0  0  0  0  0  0  0  0  0
   61.6119   29.6053   48.2833 H   0  0  0  0  0  0  0  0  0  0  0  0
  1  2  1  0
  2  3  1  0
  2  4  1  0
  4  5  1  0
  5  6  1  0
  6  7  1  0
  7  8  1  0
  8  9  2  0
  9 10  1  0
 10 11  2  0
 11 12  1  0
 12 13  2  0
 13 14  1  0
 14 15  2  0
 15 16  1  0
 15 17  1  0
 17 18  2  0
 18 19  1  0
 19 20  1  0
 20 21  1  0
 21 22  1  0
 22 23  1  0
 23 24  1  0
 23 25  1  0
 25 26  1  0
 26 27  1  0
 27 28  1  0
 28 29  1  0
 19 30  2  0
 30 31  1  0
 31 32  2  0
 32  8  1  0
 14  9  1  0
 32 17  1  0
 29 23  1  0
  1 33  1  0
  1 34  1  0
  1 35  1  0
  3 36  1  0
  3 37  1  0
  3 38  1  0
  4 39  1  0
  4 40  1  0
  5 41  1  0
  5 42  1  0
  6 43  1  0
  6 44  1  0
  7 45  1  0
  7 46  1  0
 10 47  1  0
 11 48  1  0
 12 49  1  0
 13 50  1  0
 16 51  1  0
 16 52  1  0
 16 53  1  0
 18 54  1  0
 21 55  1  0
 21 56  1  0
 22 57  1  0
 22 58  1  0
 24 59  1  0
 24 60  1  0
 24 61  1  0
 25 62  1  0
 25 63  1  0
 26 64  1  0
 26 65  1  0
 27 66  1  0
 27 67  1  0
 28 68  1  0
 28 69  1  0
 29 70  1  0
 29 71  1  0
 30 72  1  0
 31 73  1  0
M  CHG  3   7   1  15   1  23   1
M  END
>  <UniqueID>  (6) 
6

>  <SMILES>  (6) 
CN(C)CCC[NH2+]c1c2ccccc2[n+](C)c2cc(OCC[N+]3(C)CCCCC3)ccc12

>  <Energy>  (6) 
121.24572616956758

>  <Genealogy>  (6) 
CN(C)CCC[NH2+]c1c2ccccc2[n+](C)c2cc(OCC[N+]3(C)CCCCC3)ccc12 (protonated)
CN(C)CCC[NH2+]c1c2ccccc2[n+](C)c2cc(OCC[N+]3(C)CCCCC3)ccc12 (3D coordinates assigned)
CN(C)CCC[NH2+]c1c2ccccc2[n+](C)c2cc(OCC[N+]3(C)CCCCC3)ccc12 (nonaromatic ring conformer: 121.24572616956758 kcal/mol)

>  <smiles>  (6) 
CN(C)CCCNc1c2ccccc2[n+](C)c2cc(OCC[N+]3(C)CCCCC3)ccc12

>  <score_type>  (6) 
oracle

>  <origin>  (6) 
adg

>  <m_score__min__energy>  (6) 
-3.8799999999999999

>  <m_primary>  (6) 
energy

$$$$
6:0
     RDKit          3D

 27 28  0  0  0  0  0  0  0  0999 V2000
   58.9110   34.5010   45.3060 C   0  0  0  0  0  0  0  0  0  0  0  0
   58.1530   33.3020   45.8700 C   0  0  0  0  0  0  0  0  0  0  0  0
   58.9180   31.9830   45.6720 C   0  0  0  0  0  0  0  0  0  0  0  0
   58.1950   31.0650   44.7670 N   0  0  0  0  0  0  0  0  0  0  0  0
   57.3720   31.6270   43.8250 C   0  0  0  0  0  0  0  0  0  0  0  0
   56.6470   30.8370   42.9360 C   0  0  0  0  0  0  0  0  0  0  0  0
   56.7520   29.4550   43.0000 C   0  0  0  0  0  0  0  0  0  0  0  0
   57.5820   28.8640   43.9550 C   0  0  0  0  0  0  0  0  0  0  0  0
   57.6880   27.5040   44.0230 N   0  0  0  0  0  0  0  0  0  0  0  0
   58.4840   26.8970   44.9420 C   0  0  0  0  0  0  0  0  0  0  0  0
   59.2180   27.6590   45.8450 C   0  0  0  0  0  0  0  0  0  0  0  0
   59.1360   29.0490   45.8040 C   0  0  0  0  0  0  0  0  0  0  0  0
   58.3110   29.6890   44.8510 C   0  0  0  0  0  0  0  0  0  0  0  0
   59.2978   35.1129   46.1342 H   0  0  0  0  0  0  0  0  0  0  0  0
   59.7499   34.1471   44.6887 H   0  0  0  0  0  0  0  0  0  0  0  0
   58.2315   35.1070   44.6887 H   0  0  0  0  0  0  0  0  0  0  0  0
   57.9922   33.4596   46.9467 H   0  0  0  0  0  0  0  0  0  0  0  0
   57.1985   33.2222   45.3290 H   0  0  0  0  0  0  0  0  0  0  0  0
   59.9057   32.2044   45.2413 H   0  0  0  0  0  0  0  0  0  0  0  0
   59.0174   31.4927   46.6516 H   0  0  0  0  0  0  0  0  0  0  0  0
   57.2827   32.7220   43.7705 H   0  0  0  0  0  0  0  0  0  0  0  0
   55.9937   31.3070   42.1861 H   0  0  0  0  0  0  0  0  0  0  0  0
   56.1826   28.8261   42.2999 H   0  0  0  0  0  0  0  0  0  0  0  0
   57.1490   26.9010   43.3600 H   0  0  0  0  0  0  0  0  0  0  0  0
   58.5481   25.7993   44.9719 H   0  0  0  0  0  0  0  0  0  0  0  0
   59.8609   27.1657   46.5889 H   0  0  0  0  0  0  0  0  0  0  0  0
   59.7167   29.6522   46.5174 H   0  0  0  0  0  0  0  0  0  0  0  0
  1  2  1  0
  2  3  1  0
  3  4  1  0
  4  5  2  0
  5  6  1  0
  6  7  2  0
  7  8  1  0
  8  9  2  0
  9 10  1  0
 10 11  2  0
 11 12  1  0
 12 13  2  0
 13  4  1  0
 13  8  1  0
  1 14  1  0
  1 15  1  0
  1 16  1  0
  2 17  1  0
  2 18  1  0
  3 19  1  0
  3 20  1  0
  5 21  1  0
  6 22  1  0
  7 23  1  0
  9 24  1  0
 10 25  1  0
 11 26  1  0
 12 27  1  0
M  CHG  2   4   1   9   1
M  END
>  <UniqueID>  (7) 
7

>  <SMILES>  (7) 
CCC[n+]1cccc2[nH+]cccc21

>  <Energy>  (7) 
30.419090178129824

>  <Genealogy>  (7) 
CCC[n+]1cccc2[nH+]cccc21 (protonated)
CCC[n+]1cccc2[nH+]cccc21 (3D coordinates assigned)
CCC[n+]1cccc2[nH+]cccc21 (optimized conformer: 30.419090178129824 kcal/mol)

>  <smiles>  (7) 
CCC[n+]1cccc2ncccc21

>  <score_type>  (7) 
oracle

>  <origin>  (7) 
adg

>  <m_score__min__energy>  (7) 
-2.21

>  <m_primary>  (7) 
energy

$$$$
7:0
     RDKit          3D

 81 84  0  0  0  0  0  0  0  0999 V2000
   56.9500   24.3220   48.1580 C   0  0  0  0  0  0  0  0  0  0  0  0
   56.9190   24.5440   46.6490 C   0  0  0  0  0  0  0  0  0  0  0  0
   57.2160   25.9430   46.3360 N   0  0  0  0  0  0  0  0  0  0  0  0
   56.3160   26.8960   45.9950 C   0  0  0  0  0  0  0  0  0  0  0  0
   54.9420   26.6920   45.9680 O   0  0  0  0  0  0  0  0  0  0  0  0
   56.9500   28.0850   45.6740 C   0  0  0  0  0  0  0  0  0  0  0  0
   56.2860   29.2850   45.2540 N   0  0  0  0  0  0  0  0  0  0  0  0
   56.5940   29.9480   43.9840 C   0  0  0  0  0  0  0  0  0  0  0  0
   57.8970   30.7670   44.0630 C   0  0  0  0  0  0  0  0  0  0  0  0
   58.0350   31.5830   45.2910 N   0  0  0  0  0  0  0  0  0  0  0  0
   56.9410   32.5130   45.6260 C   0  0  0  0  0  0  0  0  0  0  0  0
   57.2370   33.9510   45.1780 C   0  0  0  0  0  0  0  0  0  0  0  0
   58.5900   34.4520   45.7090 C   0  0  0  0  0  0  0  0  0  0  0  0
   58.5440   34.7090   47.2350 C   0  0  0  0  0  0  0  0  0  0  0  0
   58.7710   33.4830   48.0020 N   0  0  0  0  0  0  0  0  0  0  0  0
   59.9000   33.3580   48.8780 C   0  0  0  0  0  0  0  0  0  0  0  0
   60.8060   34.2380   48.8710 O   0  0  0  0  0  0  0  0  0  0  0  0
   60.0340   32.1630   49.7780 C   0  0  0  0  0  0  0  0  0  0  0  0
   61.2280   32.3170   50.7290 C   0  0  0  0  0  0  0  0  0  0  0  0
   62.5490   31.9910   50.0240 C   0  0  0  0  0  0  0  0  0  0  0  0
   63.5770   33.1220   50.2410 C   0  0  0  0  0  0  0  0  0  0  0  0
   64.9080   32.6560   50.6940 N   0  0  0  0  0  0  0  0  0  0  0  0
   66.0110   33.0210   49.7920 C   0  0  0  0  0  0  0  0  0  0  0  0
   67.3580   32.8380   50.5180 C   0  0  0  0  0  0  0  0  0  0  0  0
   67.3360   31.7610   51.5390 N   0  0  0  0  0  0  0  0  0  0  0  0
   67.1340   32.2900   52.9000 C   0  0  0  0  0  0  0  0  0  0  0  0
   66.3700   30.6910   51.2160 C   0  0  0  0  0  0  0  0  0  0  0  0
   64.9290   31.2240   51.0540 C   0  0  0  0  0  0  0  0  0  0  0  0
   59.7080   33.4730   45.2980 C   0  0  0  0  0  0  0  0  0  0  0  0
   59.3980   32.0130   45.6710 C   0  0  0  0  0  0  0  0  0  0  0  0
   58.3110   27.8340   45.7860 C   0  0  0  0  0  0  0  0  0  0  0  0
   59.4370   28.6070   45.4860 C   0  0  0  0  0  0  0  0  0  0  0  0
   60.7040   28.0260   45.6600 C   0  0  0  0  0  0  0  0  0  0  0  0
   60.8280   26.6930   46.1030 C   0  0  0  0  0  0  0  0  0  0  0  0
   59.6830   25.9220   46.3670 C   0  0  0  0  0  0  0  0  0  0  0  0
   58.4310   26.5200   46.1960 C   0  0  0  0  0  0  0  0  0  0  0  0
   56.8156   25.2846   48.6731 H   0  0  0  0  0  0  0  0  0  0  0  0
   56.1389   23.6364   48.4445 H   0  0  0  0  0  0  0  0  0  0  0  0
   57.9179   23.8849   48.4445 H   0  0  0  0  0  0  0  0  0  0  0  0
   57.6702   23.8978   46.1715 H   0  0  0  0  0  0  0  0  0  0  0  0
   55.9157   24.2976   46.2712 H   0  0  0  0  0  0  0  0  0  0  0  0
   55.7990   29.8270   46.0040 H   0  0  0  0  0  0  0  0  0  0  0  0
   56.7019   29.1831   43.2008 H   0  0  0  0  0  0  0  0  0  0  0  0
   55.7707   30.6398   43.7528 H   0  0  0  0  0  0  0  0  0  0  0  0
   58.7454   30.0684   44.0174 H   0  0  0  0  0  0  0  0  0  0  0  0
   57.8753   31.4723   43.2191 H   0  0  0  0  0  0  0  0  0  0  0  0
   56.0215   32.1704   45.1288 H   0  0  0  0  0  0  0  0  0  0  0  0
   56.8295   32.5191   46.7203 H   0  0  0  0  0  0  0  0  0  0  0  0
   57.2524   33.9845   44.0786 H   0  0  0  0  0  0  0  0  0  0  0  0
   56.4497   34.6027   45.5847 H   0  0  0  0  0  0  0  0  0  0  0  0
   58.8163   35.4262   45.2510 H   0  0  0  0  0  0  0  0  0  0  0  0
   59.3224   35.4411   47.4960 H   0  0  0  0  0  0  0  0  0  0  0  0
   57.5426   35.0883   47.4868 H   0  0  0  0  0  0  0  0  0  0  0  0
   58.1060   32.6810   47.9210 H   0  0  0  0  0  0  0  0  0  0  0  0
   59.1140   32.0555   50.3714 H   0  0  0  0  0  0  0  0  0  0  0  0
   60.1983   31.2726   49.1533 H   0  0  0  0  0  0  0  0  0  0  0  0
   61.2635   33.3540   51.0942 H   0  0  0  0  0  0  0  0  0  0  0  0
   61.0984   31.6135   51.5647 H   0  0  0  0  0  0  0  0  0  0  0  0
   62.9534   31.0525   50.4310 H   0  0  0  0  0  0  0  0  0  0  0  0
   62.3584   31.8886   48.9455 H   0  0  0  0  0  0  0  0  0  0  0  0
   63.7052   33.6585   49.2893 H   0  0  0  0  0  0  0  0  0  0  0  0
   63.1776   33.7620   51.0416 H   0  0  0  0  0  0  0  0  0  0  0  0
   65.9846   32.3750   48.9021 H   0  0  0  0  0  0  0  0  0  0  0  0
   65.9006   34.0726   49.4886 H   0  0  0  0  0  0  0  0  0  0  0  0
   68.1268   32.5938   49.7701 H   0  0  0  0  0  0  0  0  0  0  0  0
   67.5738   33.7797   51.0440 H   0  0  0  0  0  0  0  0  0  0  0  0
   67.4253   31.5271   53.6369 H   0  0  0  0  0  0  0  0  0  0  0  0
   67.7520   33.1892   53.0393 H   0  0  0  0  0  0  0  0  0  0  0  0
   66.0739   32.5485   53.0393 H   0  0  0  0  0  0  0  0  0  0  0  0
   66.6766   30.2113   50.2748 H   0  0  0  0  0  0  0  0  0  0  0  0
   66.3701   29.9769   52.0527 H   0  0  0  0  0  0  0  0  0  0  0  0
   64.4249   30.6509   50.2619 H   0  0  0  0  0  0  0  0  0  0  0  0
   64.4124   31.1076   52.0182 H   0  0  0  0  0  0  0  0  0  0  0  0
   59.8444   33.5347   44.2082 H   0  0  0  0  0  0  0  0  0  0  0  0
   60.6173   33.7653   45.8437 H   0  0  0  0  0  0  0  0  0  0  0  0
   60.1232   31.3620   45.1609 H   0  0  0  0  0  0  0  0  0  0  0  0
   59.4672   31.9375   46.7662 H   0  0  0  0  0  0  0  0  0  0  0  0
   59.3335   29.6406   45.1241 H   0  0  0  0  0  0  0  0  0  0  0  0
   61.6078   28.6163   45.4487 H   0  0  0  0  0  0  0  0  0  0  0  0
   61.8269   26.2540   46.2428 H   0  0  0  0  0  0  0  0  0  0  0  0
   59.7696   24.8769   46.6990 H   0  0  0  0  0  0  0  0  0  0  0  0
  1  2  1  0
  2  3  1  0
  3  4  1  0
  4  5  1  0
  4  6  2  0
  6  7  1  0
  7  8  1  0
  8  9  1  0
  9 10  1  0
 10 11  1  0
 11 12  1  0
 12 13  1  0
 13 14  1  0
 14 15  1  0
 15 16  1  0
 16 17  2  0
 16 18  1  0
 18 19  1  0
 19 20  1  0
 20 21  1  0
 21 22  1  0
 22 23  1  0
 23 24  1  0
 24 25  1  0
 25 26  1  0
 25 27  1  0
 27 28  1  0
 13 29  1  0
 29 30  1  0
  6 31  1  0
 31 32  2  0
 32 33  1  0
 33 34  2  0
 34 35  1  0
 35 36  2  0
 36  3  1  0
 30 10  1  0
 36 31  1  0
 28 22  1  0
  1 37  1  0
  1 38  1  0
  1 39  1  0
  2 40  1  0
  2 41  1  0
  7 42  1  0
  8 43  1  0
  8 44  1  0
  9 45  1  0
  9 46  1  0
 11 47  1  0
 11 48  1  0
 12 49  1  0
 12 50  1  0
 13 51  1  0
 14 52  1  0
 14 53  1  0
 15 54  1  0
 18 55  1  0
 18 56  1  0
 19 57  1  0
 19 58  1  0
 20 59  1  0
 20 60  1  0
 21 61  1  0
 21 62  1  0
 23 63  1  0
 23 64  1  0
 24 65  1  0
 24 66  1  0
 26 67  1  0
 26 68  1  0
 26 69  1  0
 27 70  1  0
 27 71  1  0
 28 72  1  0
 28 73  1  0
 29 74  1  0
 29 75  1  0
 30 76  1  0
 30 77  1  0
 32 78  1  0
 33 79  1  0
 34 80  1  0
 35 81  1  0
M  CHG  1   5  -1
M  END
>  <UniqueID>  (8) 
8

>  <SMILES>  (8) 
CCn1c([O-])c(NCCN2CCC(CNC(=O)CCCCN3CCN(C)CC3)CC2)c2ccccc21

>  <Energy>  (8) 
131.2771851891262

>  <Genealogy>  (8) 
CCn1c([O-])c(NCCN2CCC(CNC(=O)CCCCN3CCN(C)CC3)CC2)c2ccccc21 (protonated)
CCn1c([O-])c(NCCN2CCC(CNC(=O)CCCCN3CCN(C)CC3)CC2)c2ccccc21 (3D coordinates assigned)
CCn1c([O-])c(NCCN2CCC(CNC(=O)CCCCN3CCN(C)CC3)CC2)c2ccccc21 (nonaromatic ring conformer: 131.2771851891262 kcal/mol)

>  <smiles>  (8) 
CCn1c(O)c(NCCN2CCC(CNC(=O)CCCCN3CCN(C)CC3)CC2)c2ccccc21

>  <score_type>  (8) 
oracle

>  <origin>  (8) 
adg

>  <m_score__min__energy>  (8) 
-13.4

>  <m_primary>  (8) 
energy

$$$$
8:0
     RDKit          3D

 54 56  0  0  0  0  0  0  0  0999 V2000
   56.6550   21.8770   43.0000 C   0  0  0  0  0  0  0  0  0  0  0  0
   55.9960   23.2530   43.0550 C   0  0  0  0  0  0  0  0  0  0  0  0
   56.7190   24.1740   44.0450 C   0  0  0  0  0  0  0  0  0  0  0  0
   55.7300   24.8200   45.0190 C   0  0  0  0  0  0  0  0  0  0  0  0
   56.3390   26.0060   45.6320 N   0  0  0  0  0  0  0  0  0  0  0  0
   57.7570   25.7660   45.9270 C   0  0  0  0  0  0  0  0  0  0  0  0
   58.2200   26.6740   47.0670 C   0  0  0  0  0  0  0  0  0  0  0  0
   58.9790   27.8150   46.5510 N   0  0  0  0  0  0  0  0  0  0  0  0
   59.0170   29.0660   47.2620 C   0  0  0  0  0  0  0  0  0  0  0  0
   59.7120   29.1390   48.4870 C   0  0  0  0  0  0  0  0  0  0  0  0
   60.2000   27.9710   49.1150 C   0  0  0  0  0  0  0  0  0  0  0  0
   60.9590   28.0490   50.2790 C   0  0  0  0  0  0  0  0  0  0  0  0
   61.2500   29.2870   50.8350 C   0  0  0  0  0  0  0  0  0  0  0  0
   60.7620   30.4530   50.2480 C   0  0  0  0  0  0  0  0  0  0  0  0
   59.9540   30.4050   49.0810 C   0  0  0  0  0  0  0  0  0  0  0  0
   59.4480   31.5520   48.5030 N   0  0  0  0  0  0  0  0  0  0  0  0
   59.4790   32.8310   49.2490 C   0  0  0  0  0  0  0  0  0  0  0  0
   58.8710   31.5020   47.2470 C   0  0  0  0  0  0  0  0  0  0  0  0
   58.6270   32.6830   46.5060 C   0  0  0  0  0  0  0  0  0  0  0  0
   57.9540   32.6490   45.2820 C   0  0  0  0  0  0  0  0  0  0  0  0
   57.7410   33.9120   44.4980 C   0  0  0  0  0  0  0  0  0  0  0  0
   57.5080   31.4290   44.7770 C   0  0  0  0  0  0  0  0  0  0  0  0
   57.7500   30.2340   45.4660 C   0  0  0  0  0  0  0  0  0  0  0  0
   57.0970   29.0430   45.0020 N   0  0  0  0  0  0  0  0  0  0  0  0
   57.6830   28.2760   44.2090 O   0  0  0  0  0  0  0  0  0  0  0  0
   55.7460   28.8850   45.2050 O   0  0  0  0  0  0  0  0  0  0  0  0
   58.5330   30.2510   46.6590 C   0  0  0  0  0  0  0  0  0  0  0  0
   56.8294   21.5128   44.0232 H   0  0  0  0  0  0  0  0  0  0  0  0
   55.9952   21.1754   42.4686 H   0  0  0  0  0  0  0  0  0  0  0  0
   57.6152   21.9513   42.4686 H   0  0  0  0  0  0  0  0  0  0  0  0
   56.0282   23.7067   42.0534 H   0  0  0  0  0  0  0  0  0  0  0  0
   54.9559   23.1283   43.3906 H   0  0  0  0  0  0  0  0  0  0  0  0
   57.4517   23.5841   44.6153 H   0  0  0  0  0  0  0  0  0  0  0  0
   57.2221   24.9709   43.4777 H   0  0  0  0  0  0  0  0  0  0  0  0
   54.8215   25.1163   44.4741 H   0  0  0  0  0  0  0  0  0  0  0  0
   55.4707   24.0968   45.8063 H   0  0  0  0  0  0  0  0  0  0  0  0
   56.2860   26.7930   44.9390 H   0  0  0  0  0  0  0  0  0  0  0  0
   57.8942   24.7149   46.2210 H   0  0  0  0  0  0  0  0  0  0  0  0
   58.3527   25.9854   45.0287 H   0  0  0  0  0  0  0  0  0  0  0  0
   57.3396   27.0443   47.6127 H   0  0  0  0  0  0  0  0  0  0  0  0
   58.8709   26.0929   47.7368 H   0  0  0  0  0  0  0  0  0  0  0  0
   59.2930   27.7880   45.5550 H   0  0  0  0  0  0  0  0  0  0  0  0
   59.9769   26.9865   48.6779 H   0  0  0  0  0  0  0  0  0  0  0  0
   61.3280   27.1301   50.7580 H   0  0  0  0  0  0  0  0  0  0  0  0
   61.8683   29.3481   51.7427 H   0  0  0  0  0  0  0  0  0  0  0  0
   61.0068   31.4272   50.6963 H   0  0  0  0  0  0  0  0  0  0  0  0
   59.4740   32.6254   50.3296 H   0  0  0  0  0  0  0  0  0  0  0  0
   60.3909   33.3870   48.9857 H   0  0  0  0  0  0  0  0  0  0  0  0
   58.5951   33.4305   48.9857 H   0  0  0  0  0  0  0  0  0  0  0  0
   58.9747   33.6484   46.9023 H   0  0  0  0  0  0  0  0  0  0  0  0
   57.5990   34.7543   45.1911 H   0  0  0  0  0  0  0  0  0  0  0  0
   58.6197   34.1028   43.8643 H   0  0  0  0  0  0  0  0  0  0  0  0
   56.8484   33.8041   43.8643 H   0  0  0  0  0  0  0  0  0  0  0  0
   56.9585   31.4044   43.8244 H   0  0  0  0  0  0  0  0  0  0  0  0
  1  2  1  0
  2  3  1  0
  3  4  1  0
  4  5  1  0
  5  6  1  0
  6  7  1  0
  7  8  1  0
  8  9  1  0
  9 10  2  0
 10 11  1  0
 11 12  2  0
 12 13  1  0
 13 14  2  0
 14 15  1  0
 15 16  2  0
 16 17  1  0
 16 18  1  0
 18 19  2  0
 19 20  1  0
 20 21  1  0
 20 22  2  0
 22 23  1  0
 23 24  1  0
 24 25  2  0
 24 26  1  0
 23 27  2  0
 27  9  1  0
 15 10  1  0
 27 18  1  0
  1 28  1  0
  1 29  1  0
  1 30  1  0
  2 31  1  0
  2 32  1  0
  3 33  1  0
  3 34  1  0
  4 35  1  0
  4 36  1  0
  5 37  1  0
  6 38  1  0
  6 39  1  0
  7 40  1  0
  7 41  1  0
  8 42  1  0
 11 43  1  0
 12 44  1  0
 13 45  1  0
 14 46  1  0
 17 47  1  0
 17 48  1  0
 17 49  1  0
 19 50  1  0
 21 51  1  0
 21 52  1  0
 21 53  1  0
 22 54  1  0
M  CHG  3  16   1  24   1  26  -1
M  END
>  <UniqueID>  (9) 
9

>  <SMILES>  (9) 
CCCCNCCNc1c2ccccc2[n+](C)c2cc(C)cc([N+](=O)[O-])c12

>  <Energy>  (9) 
79.66181880353109

>  <Genealogy>  (9) 
CCCCNCCNc1c2ccccc2[n+](C)c2cc(C)cc([N+](=O)[O-])c12 (3D coordinates assigned)
CCCCNCCNc1c2ccccc2[n+](C)c2cc(C)cc([N+](=O)[O-])c12 (optimized conformer: 79.66181880353109 kcal/mol)

>  <smiles>  (9) 
CCCCNCCNc1c2ccccc2[n+](C)c2cc(C)cc([N+](=O)[O-])c12

>  <score_type>  (9) 
oracle

>  <origin>  (9) 
adg

>  <m_score__min__energy>  (9) 
-6.8499999999999996

>  <m_primary>  (9) 
energy

$$$$
9:0
     RDKit          3D

 60 62  0  0  0  0  0  0  0  0999 V2000
   62.4640   33.8670   46.6360 C   0  0  0  0  0  0  0  0  0  0  0  0
   63.7700   33.0810   46.8020 C   0  0  0  0  0  0  0  0  0  0  0  0
   63.7970   32.2280   48.0210 N   0  0  0  0  0  0  0  0  0  0  0  0
   62.4690   31.6380   48.3570 C   0  0  0  0  0  0  0  0  0  0  0  0
   61.8030   30.8550   47.2140 C   0  0  0  0  0  0  0  0  0  0  0  0
   64.4080   32.9970   49.1390 C   0  0  0  0  0  0  0  0  0  0  0  0
   63.3990   33.7990   49.9760 C   0  0  0  0  0  0  0  0  0  0  0  0
   64.0810   34.5560   50.9610 O   0  0  0  0  0  0  0  0  0  0  0  0
   63.5810   34.2850   52.2560 C   0  0  0  0  0  0  0  0  0  0  0  0
   63.3990   32.7840   52.5050 C   0  0  0  0  0  0  0  0  0  0  0  0
   62.1590   32.5300   53.1430 O   0  0  0  0  0  0  0  0  0  0  0  0
   61.0930   33.2140   52.5130 C   0  0  0  0  0  0  0  0  0  0  0  0
   60.6140   32.4510   51.2710 C   0  0  0  0  0  0  0  0  0  0  0  0
   59.4250   33.0830   50.6940 N   0  0  0  0  0  0  0  0  0  0  0  0
   59.2170   33.2260   49.2750 C   0  0  0  0  0  0  0  0  0  0  0  0
   59.6450   34.4010   48.6340 C   0  0  0  0  0  0  0  0  0  0  0  0
   59.4780   34.5670   47.2570 C   0  0  0  0  0  0  0  0  0  0  0  0
   58.8760   33.5540   46.4910 C   0  0  0  0  0  0  0  0  0  0  0  0
   58.6950   33.6770   45.1020 C   0  0  0  0  0  0  0  0  0  0  0  0
   59.0740   34.7200   44.4980 O   0  0  0  0  0  0  0  0  0  0  0  0
   58.0920   32.6230   44.3930 C   0  0  0  0  0  0  0  0  0  0  0  0
   57.8870   32.6780   43.0020 C   0  0  0  0  0  0  0  0  0  0  0  0
   57.2920   31.6010   42.3380 C   0  0  0  0  0  0  0  0  0  0  0  0
   56.8970   30.4650   43.0500 C   0  0  0  0  0  0  0  0  0  0  0  0
   57.0930   30.3990   44.4320 C   0  0  0  0  0  0  0  0  0  0  0  0
   57.6870   31.4710   45.1100 C   0  0  0  0  0  0  0  0  0  0  0  0
   57.8710   31.3940   46.4240 O   0  0  0  0  0  0  0  0  0  0  0  0
   58.4390   32.3700   47.1280 C   0  0  0  0  0  0  0  0  0  0  0  0
   58.6060   32.2130   48.5090 C   0  0  0  0  0  0  0  0  0  0  0  0
   62.0555   34.1129   47.6273 H   0  0  0  0  0  0  0  0  0  0  0  0
   62.6629   34.7955   46.0808 H   0  0  0  0  0  0  0  0  0  0  0  0
   61.7367   33.2565   46.0808 H   0  0  0  0  0  0  0  0  0  0  0  0
   63.9021   32.4349   45.9216 H   0  0  0  0  0  0  0  0  0  0  0  0
   64.5808   33.8174   46.9036 H   0  0  0  0  0  0  0  0  0  0  0  0
   64.4400   31.4270   47.8140 H   0  0  0  0  0  0  0  0  0  0  0  0
   62.6041   30.9534   49.2073 H   0  0  0  0  0  0  0  0  0  0  0  0
   61.8027   32.4838   48.5819 H   0  0  0  0  0  0  0  0  0  0  0  0
   61.1445   30.0809   47.6349 H   0  0  0  0  0  0  0  0  0  0  0  0
   61.2098   31.5438   46.5946 H   0  0  0  0  0  0  0  0  0  0  0  0
   62.5781   30.3800   46.5946 H   0  0  0  0  0  0  0  0  0  0  0  0
   64.9226   32.2884   49.8046 H   0  0  0  0  0  0  0  0  0  0  0  0
   65.0929   33.7274   48.6836 H   0  0  0  0  0  0  0  0  0  0  0  0
   62.8380   34.4787   49.3177 H   0  0  0  0  0  0  0  0  0  0  0  0
   62.7056   33.1030   50.4708 H   0  0  0  0  0  0  0  0  0  0  0  0
   64.2873   34.6840   52.9989 H   0  0  0  0  0  0  0  0  0  0  0  0
   62.5944   34.7634   52.3435 H   0  0  0  0  0  0  0  0  0  0  0  0
   63.4257   32.2522   51.5425 H   0  0  0  0  0  0  0  0  0  0  0  0
   64.2117   32.4321   53.1574 H   0  0  0  0  0  0  0  0  0  0  0  0
   60.2573   33.3100   53.2218 H   0  0  0  0  0  0  0  0  0  0  0  0
   61.4471   34.2077   52.2014 H   0  0  0  0  0  0  0  0  0  0  0  0
   61.4181   32.4442   50.5204 H   0  0  0  0  0  0  0  0  0  0  0  0
   60.3562   31.4237   51.5680 H   0  0  0  0  0  0  0  0  0  0  0  0
   58.6870   33.4490   51.3390 H   0  0  0  0  0  0  0  0  0  0  0  0
   60.1175   35.2002   49.2240 H   0  0  0  0  0  0  0  0  0  0  0  0
   59.8186   35.4931   46.7709 H   0  0  0  0  0  0  0  0  0  0  0  0
   58.1953   33.5695   42.4362 H   0  0  0  0  0  0  0  0  0  0  0  0
   57.1341   31.6479   41.2504 H   0  0  0  0  0  0  0  0  0  0  0  0
   56.4306   29.6207   42.5211 H   0  0  0  0  0  0  0  0  0  0  0  0
   56.7801   29.5033   44.9886 H   0  0  0  0  0  0  0  0  0  0  0  0
   58.2578   31.2922   48.9999 H   0  0  0  0  0  0  0  0  0  0  0  0
  1  2  1  0
  2  3  1  0
  3  4  1  0
  4  5  1  0
  3  6  1  0
  6  7  1  0
  7  8  1  0
  8  9  1  0
  9 10  1  0
 10 11  1  0
 11 12  1  0
 12 13  1  0
 13 14  1  0
 14 15  1  0
 15 16  2  0
 16 17  1  0
 17 18  2  0
 18 19  1  0
 19 20  2  0
 19 21  1  0
 21 22  2  0
 22 23  1  0
 23 24  2  0
 24 25  1  0
 25 26  2  0
 26 27  1  0
 27 28  1  0
 28 29  2  0
 29 15  1  0
 28 18  1  0
 26 21  1  0
  1 30  1  0
  1 31  1  0
  1 32  1  0
  2 33  1  0
  2 34  1  0
  3 35  1  0
  4 36  1  0
  4 37  1  0
  5 38  1  0
  5 39  1  0
  5 40  1  0
  6 41  1  0
  6 42  1  0
  7 43  1  0
  7 44  1  0
  9 45  1  0
  9 46  1  0
 10 47  1  0
 10 48  1  0
 12 49  1  0
 12 50  1  0
 13 51  1  0
 13 52  1  0
 14 53  1  0
 16 54  1  0
 17 55  1  0
 22 56  1  0
 23 57  1  0
 24 58  1  0
 25 59  1  0
 29 60  1  0
M  CHG  1   3   1
M  END
>  <UniqueID>  (10) 
10

>  <SMILES>  (10) 
CC[NH+](CC)CCOCCOCCNc1ccc2c(=O)c3ccccc3oc2c1

>  <Energy>  (10) 
75.43972266665925

>  <Genealogy>  (10) 
CC[NH+](CC)CCOCCOCCNc1ccc2c(=O)c3ccccc3oc2c1 (protonated)
CC[NH+](CC)CCOCCOCCNc1ccc2c(=O)c3ccccc3oc2c1 (3D coordinates assigned)
CC[NH+](CC)CCOCCOCCNc1ccc2c(=O)c3ccccc3oc2c1 (optimized conformer: 75.43972266665925 kcal/mol)

>  <smiles>  (10) 
CCN(CC)CCOCCOCCNc1ccc2c(=O)c3ccccc3oc2c1

>  <score_type>  (10) 
oracle

>  <origin>  (10) 
adg

>  <m_score__min__energy>  (10) 
-4.9199999999999999

>  <m_primary>  (10) 
energy

$$$$
10:0
     RDKit          3D

 47 48  0  0  0  0  0  0  0  0999 V2000
   58.7730   28.2320   44.4020 C   0  0  0  0  0  0  0  0  0  0  0  0
   60.0280   28.6160   45.1790 C   0  0  0  0  0  0  0  0  0  0  0  0
   59.7510   29.7720   46.0620 N   0  0  0  0  0  0  0  0  0  0  0  0
   58.9050   29.3810   47.2130 C   0  0  0  0  0  0  0  0  0  0  0  0
   59.3380   28.0170   47.7400 C   0  0  0  0  0  0  0  0  0  0  0  0
   61.0070   30.4160   46.5130 C   0  0  0  0  0  0  0  0  0  0  0  0
   60.7970   31.1090   47.8600 C   0  0  0  0  0  0  0  0  0  0  0  0
   61.1290   32.4780   47.7380 O   0  0  0  0  0  0  0  0  0  0  0  0
   60.8790   33.1620   48.9510 C   0  0  0  0  0  0  0  0  0  0  0  0
   60.3750   34.5850   48.6870 C   0  0  0  0  0  0  0  0  0  0  0  0
   59.0890   34.5640   48.0640 O   0  0  0  0  0  0  0  0  0  0  0  0
   58.8020   34.0690   46.7810 C   0  0  0  0  0  0  0  0  0  0  0  0
   58.0090   32.9310   46.5590 C   0  0  0  0  0  0  0  0  0  0  0  0
   57.7870   32.4860   45.2530 C   0  0  0  0  0  0  0  0  0  0  0  0
   57.0270   31.3370   44.9890 C   0  0  0  0  0  0  0  0  0  0  0  0
   56.8390   30.8960   43.6670 C   0  0  0  0  0  0  0  0  0  0  0  0
   56.0700   29.7090   43.3980 N   0  0  0  0  0  0  0  0  0  0  0  0
   55.1680   29.3440   44.1820 O   0  0  0  0  0  0  0  0  0  0  0  0
   56.3130   28.9580   42.2710 O   0  0  0  0  0  0  0  0  0  0  0  0
   57.4170   31.6300   42.6130 C   0  0  0  0  0  0  0  0  0  0  0  0
   58.1690   32.7780   42.8730 C   0  0  0  0  0  0  0  0  0  0  0  0
   58.3600   33.2090   44.1890 C   0  0  0  0  0  0  0  0  0  0  0  0
   59.0870   34.2950   44.4330 O   0  0  0  0  0  0  0  0  0  0  0  0
   59.3190   34.7430   45.6640 C   0  0  0  0  0  0  0  0  0  0  0  0
   60.0190   35.7770   45.8220 O   0  0  0  0  0  0  0  0  0  0  0  0
   57.9661   27.9851   45.1076 H   0  0  0  0  0  0  0  0  0  0  0  0
   58.4611   29.0758   43.7690 H   0  0  0  0  0  0  0  0  0  0  0  0
   58.9867   27.3581   43.7690 H   0  0  0  0  0  0  0  0  0  0  0  0
   60.3519   27.7612   45.7909 H   0  0  0  0  0  0  0  0  0  0  0  0
   60.8201   28.8908   44.4669 H   0  0  0  0  0  0  0  0  0  0  0  0
   59.0087   30.1298   48.0121 H   0  0  0  0  0  0  0  0  0  0  0  0
   57.8558   29.3254   46.8872 H   0  0  0  0  0  0  0  0  0  0  0  0
   59.3337   28.0306   48.8399 H   0  0  0  0  0  0  0  0  0  0  0  0
   58.6403   27.2465   47.3801 H   0  0  0  0  0  0  0  0  0  0  0  0
   60.3524   27.7900   47.3801 H   0  0  0  0  0  0  0  0  0  0  0  0
   61.7897   29.6502   46.6175 H   0  0  0  0  0  0  0  0  0  0  0  0
   61.3100   31.1671   45.7687 H   0  0  0  0  0  0  0  0  0  0  0  0
   59.7440   31.0118   48.1630 H   0  0  0  0  0  0  0  0  0  0  0  0
   61.4397   30.6402   48.6197 H   0  0  0  0  0  0  0  0  0  0  0  0
   60.1181   32.6116   49.5238 H   0  0  0  0  0  0  0  0  0  0  0  0
   61.8195   33.2236   49.5182 H   0  0  0  0  0  0  0  0  0  0  0  0
   60.3032   35.1246   49.6429 H   0  0  0  0  0  0  0  0  0  0  0  0
   61.0834   35.0890   48.0131 H   0  0  0  0  0  0  0  0  0  0  0  0
   57.5648   32.3926   47.4092 H   0  0  0  0  0  0  0  0  0  0  0  0
   56.5752   30.7774   45.8213 H   0  0  0  0  0  0  0  0  0  0  0  0
   57.2748   31.2958   41.5747 H   0  0  0  0  0  0  0  0  0  0  0  0
   58.6119   33.3442   42.0404 H   0  0  0  0  0  0  0  0  0  0  0  0
  1  2  1  0
  2  3  1  0
  3  4  1  0
  4  5  1  0
  3  6  1  0
  6  7  1  0
  7  8  1  0
  8  9  1  0
  9 10  1  0
 10 11  1  0
 11 12  1  0
 12 13  2  0
 13 14  1  0
 14 15  2  0
 15 16  1  0
 16 17  1  0
 17 18  2  0
 17 19  1  0
 16 20  2  0
 20 21  1  0
 21 22  2  0
 22 23  1  0
 23 24  1  0
 24 25  2  0
 24 12  1  0
 22 14  1  0
  1 26  1  0
  1 27  1  0
  1 28  1  0
  2 29  1  0
  2 30  1  0
  4 31  1  0
  4 32  1  0
  5 33  1  0
  5 34  1  0
  5 35  1  0
  6 36  1  0
  6 37  1  0
  7 38  1  0
  7 39  1  0
  9 40  1  0
  9 41  1  0
 10 42  1  0
 10 43  1  0
 13 44  1  0
 15 45  1  0
 20 46  1  0
 21 47  1  0
M  CHG  2  17   1  19  -1
M  END
>  <UniqueID>  (11) 
11

>  <SMILES>  (11) 
CCN(CC)CCOCCOc1cc2cc([N+](=O)[O-])ccc2oc1=O

>  <Energy>  (11) 
47.05900638351167

>  <Genealogy>  (11) 
CCN(CC)CCOCCOc1cc2cc([N+](=O)[O-])ccc2oc1=O (3D coordinates assigned)
CCN(CC)CCOCCOc1cc2cc([N+](=O)[O-])ccc2oc1=O (optimized conformer: 47.05900638351167 kcal/mol)

>  <smiles>  (11) 
CCN(CC)CCOCCOc1cc2cc([N+](=O)[O-])ccc2oc1=O

>  <score_type>  (11) 
oracle

>  <origin>  (11) 
adg

>  <m_score__min__energy>  (11) 
-6.3799999999999999

>  <m_primary>  (11) 
energy

$$$$
11:0
     RDKit          3D

 49 50  0  0  0  0  0  0  0  0999 V2000
   55.6600   19.8080   45.8800 C   0  0  0  0  0  0  0  0  0  0  0  0
   56.8670   20.7300   46.0550 C   0  0  0  0  0  0  0  0  0  0  0  0
   57.7820   20.6190   44.8990 N   0  0  0  0  0  0  0  0  0  0  0  0
   57.8000   21.8650   44.1030 C   0  0  0  0  0  0  0  0  0  0  0  0
   56.6360   21.9200   43.0930 C   0  0  0  0  0  0  0  0  0  0  0  0
   55.9940   23.3280   43.0060 C   0  0  0  0  0  0  0  0  0  0  0  0
   56.7180   24.3420   43.8030 N   0  0  0  0  0  0  0  0  0  0  0  0
   56.1900   24.4710   45.1770 C   0  0  0  0  0  0  0  0  0  0  0  0
   56.6420   25.7870   45.8310 C   0  0  0  0  0  0  0  0  0  0  0  0
   57.3440   26.7210   44.9330 N   0  0  0  0  0  0  0  0  0  0  0  0
   58.0760   27.8680   45.3840 C   0  0  0  0  0  0  0  0  0  0  0  0
   58.9270   27.7430   46.4790 C   0  0  0  0  0  0  0  0  0  0  0  0
   59.6300   28.8540   46.9400 C   0  0  0  0  0  0  0  0  0  0  0  0
   59.4910   30.0770   46.3500 N   0  0  0  0  0  0  0  0  0  0  0  0
   60.3520   31.1770   46.8030 C   0  0  0  0  0  0  0  0  0  0  0  0
   58.5670   30.2660   45.3370 C   0  0  0  0  0  0  0  0  0  0  0  0
   58.3200   31.5430   44.7770 C   0  0  0  0  0  0  0  0  0  0  0  0
   57.3740   31.6980   43.7620 C   0  0  0  0  0  0  0  0  0  0  0  0
   56.6780   30.5940   43.2730 C   0  0  0  0  0  0  0  0  0  0  0  0
   56.9060   29.3300   43.8000 C   0  0  0  0  0  0  0  0  0  0  0  0
   57.8480   29.1400   44.8290 C   0  0  0  0  0  0  0  0  0  0  0  0
   55.2762   19.5148   46.8683 H   0  0  0  0  0  0  0  0  0  0  0  0
   54.8725   20.3366   45.3229 H   0  0  0  0  0  0  0  0  0  0  0  0
   55.9629   18.9092   45.3229 H   0  0  0  0  0  0  0  0  0  0  0  0
   56.5178   21.7696   46.1404 H   0  0  0  0  0  0  0  0  0  0  0  0
   57.4094   20.4333   46.9648 H   0  0  0  0  0  0  0  0  0  0  0  0
   57.4840   19.8150   44.3000 H   0  0  0  0  0  0  0  0  0  0  0  0
   58.7500   20.4160   45.2430 H   0  0  0  0  0  0  0  0  0  0  0  0
   57.7194   22.7240   44.7854 H   0  0  0  0  0  0  0  0  0  0  0  0
   58.7431   21.8943   43.5376 H   0  0  0  0  0  0  0  0  0  0  0  0
   57.0177   21.6440   42.0990 H   0  0  0  0  0  0  0  0  0  0  0  0
   55.8610   21.2191   43.4366 H   0  0  0  0  0  0  0  0  0  0  0  0
   55.9894   23.6470   41.9533 H   0  0  0  0  0  0  0  0  0  0  0  0
   54.9760   23.2520   43.4157 H   0  0  0  0  0  0  0  0  0  0  0  0
   56.6190   25.2570   43.3170 H   0  0  0  0  0  0  0  0  0  0  0  0
   55.0908   24.4482   45.1415 H   0  0  0  0  0  0  0  0  0  0  0  0
   56.5789   23.6351   45.7770 H   0  0  0  0  0  0  0  0  0  0  0  0
   55.7498   26.2968   46.2234 H   0  0  0  0  0  0  0  0  0  0  0  0
   57.3657   25.5092   46.6114 H   0  0  0  0  0  0  0  0  0  0  0  0
   57.1910   26.6180   43.9050 H   0  0  0  0  0  0  0  0  0  0  0  0
   59.0439   26.7700   46.9786 H   0  0  0  0  0  0  0  0  0  0  0  0
   60.3109   28.7433   47.7968 H   0  0  0  0  0  0  0  0  0  0  0  0
   60.3698   31.1997   47.9026 H   0  0  0  0  0  0  0  0  0  0  0  0
   61.3728   31.0240   46.4229 H   0  0  0  0  0  0  0  0  0  0  0  0
   59.9583   32.1312   46.4229 H   0  0  0  0  0  0  0  0  0  0  0  0
   58.8767   32.4179   45.1439 H   0  0  0  0  0  0  0  0  0  0  0  0
   57.1769   32.6970   43.3459 H   0  0  0  0  0  0  0  0  0  0  0  0
   55.9436   30.7249   42.4646 H   0  0  0  0  0  0  0  0  0  0  0  0
   56.3449   28.4681   43.4096 H   0  0  0  0  0  0  0  0  0  0  0  0
  1  2  1  0
  2  3  1  0
  3  4  1  0
  4  5  1  0
  5  6  1  0
  6  7  1  0
  7  8  1  0
  8  9  1  0
  9 10  1  0
 10 11  1  0
 11 12  2  0
 12 13  1  0
 13 14  2  0
 14 15  1  0
 14 16  1  0
 16 17  2  0
 17 18  1  0
 18 19  2  0
 19 20  1  0
 20 21  2  0
 21 11  1  0
 21 16  1  0
  1 22  1  0
  1 23  1  0
  1 24  1  0
  2 25  1  0
  2 26  1  0
  3 27  1  0
  3 28  1  0
  4 29  1  0
  4 30  1  0
  5 31  1  0
  5 32  1  0
  6 33  1  0
  6 34  1  0
  7 35  1  0
  8 36  1  0
  8 37  1  0
  9 38  1  0
  9 39  1  0
 10 40  1  0
 12 41  1  0
 13 42  1  0
 15 43  1  0
 15 44  1  0
 15 45  1  0
 17 46  1  0
 18 47  1  0
 19 48  1  0
 20 49  1  0
M  CHG  2   3   1  14   1
M  END
>  <UniqueID>  (12) 
12

>  <SMILES>  (12) 
CC[NH2+]CCCNCCNc1cc[n+](C)c2ccccc12

>  <Energy>  (12) 
61.34630580206528

>  <Genealogy>  (12) 
CC[NH2+]CCCNCCNc1cc[n+](C)c2ccccc12 (protonated)
CC[NH2+]CCCNCCNc1cc[n+](C)c2ccccc12 (3D coordinates assigned)
CC[NH2+]CCCNCCNc1cc[n+](C)c2ccccc12 (optimized conformer: 61.34630580206528 kcal/mol)

>  <smiles>  (12) 
CCNCCCNCCNc1cc[n+](C)c2ccccc12

>  <score_type>  (12) 
oracle

>  <origin>  (12) 
adg

>  <m_score__min__energy>  (12) 
-4.0499999999999998

>  <m_primary>  (12) 
energy

$$$$
12:0
     RDKit          3D

 55 57  0  0  0  0  0  0  0  0999 V2000
   63.1530   33.8520   49.8930 C   0  0  0  0  0  0  0  0  0  0  0  0
   64.2700   33.4300   48.9300 C   0  0  0  0  0  0  0  0  0  0  0  0
   63.7670   32.5860   47.8140 N   0  0  2  0  0  0  0  0  0  0  0  0
   63.2140   33.4560   46.7550 C   0  0  0  0  0  0  0  0  0  0  0  0
   62.7290   31.6360   48.2910 C   0  0  0  0  0  0  0  0  0  0  0  0
   61.8580   31.0770   47.1410 C   0  0  0  0  0  0  0  0  0  0  0  0
   60.5130   30.7350   47.6090 N   0  0  0  0  0  0  0  0  0  0  0  0
   59.3710   30.8160   46.7390 C   0  0  0  0  0  0  0  0  0  0  0  0
   59.0770   32.0330   46.1020 C   0  0  0  0  0  0  0  0  0  0  0  0
   59.7330   33.2250   46.4740 C   0  0  0  0  0  0  0  0  0  0  0  0
   59.4180   34.4340   45.8580 C   0  0  0  0  0  0  0  0  0  0  0  0
   58.4390   34.4770   44.8720 C   0  0  0  0  0  0  0  0  0  0  0  0
   57.7890   33.3080   44.4770 C   0  0  0  0  0  0  0  0  0  0  0  0
   58.1150   32.0580   45.0610 C   0  0  0  0  0  0  0  0  0  0  0  0
   57.5270   30.8820   44.6390 N   0  0  0  0  0  0  0  0  0  0  0  0
   56.8060   30.8420   43.3460 C   0  0  0  0  0  0  0  0  0  0  0  0
   57.6250   29.7430   45.4170 C   0  0  0  0  0  0  0  0  0  0  0  0
   56.7950   28.6200   45.1790 C   0  0  0  0  0  0  0  0  0  0  0  0
   56.9090   27.4540   45.9460 C   0  0  0  0  0  0  0  0  0  0  0  0
   56.1180   26.3170   45.7130 O   0  0  0  0  0  0  0  0  0  0  0  0
   56.6190   25.0570   45.2760 C   0  0  0  0  0  0  0  0  0  0  0  0
   57.8220   27.4110   46.9920 C   0  0  0  0  0  0  0  0  0  0  0  0
   58.6230   28.5200   47.3060 C   0  0  0  0  0  0  0  0  0  0  0  0
   59.4570   28.4980   48.4380 O   0  0  0  0  0  0  0  0  0  0  0  0
   60.4020   27.4770   48.7410 C   0  0  0  0  0  0  0  0  0  0  0  0
   58.5560   29.6860   46.4930 C   0  0  0  0  0  0  0  0  0  0  0  0
   63.4951   33.7228   50.9305 H   0  0  0  0  0  0  0  0  0  0  0  0
   62.8989   34.9081   49.7196 H   0  0  0  0  0  0  0  0  0  0  0  0
   62.2641   33.2277   49.7196 H   0  0  0  0  0  0  0  0  0  0  0  0
   64.7331   34.3342   48.5082 H   0  0  0  0  0  0  0  0  0  0  0  0
   64.9972   32.8335   49.5004 H   0  0  0  0  0  0  0  0  0  0  0  0
   64.5720   32.0540   47.4030 H   0  0  0  0  0  0  0  0  0  0  0  0
   62.6782   34.2990   47.2157 H   0  0  0  0  0  0  0  0  0  0  0  0
   64.0341   33.8401   46.1306 H   0  0  0  0  0  0  0  0  0  0  0  0
   62.5181   32.8765   46.1306 H   0  0  0  0  0  0  0  0  0  0  0  0
   63.2269   30.7952   48.7962 H   0  0  0  0  0  0  0  0  0  0  0  0
   62.0647   32.1852   48.9744 H   0  0  0  0  0  0  0  0  0  0  0  0
   61.7794   31.8367   46.3494 H   0  0  0  0  0  0  0  0  0  0  0  0
   62.3348   30.1628   46.7576 H   0  0  0  0  0  0  0  0  0  0  0  0
   60.3740   30.4550   48.6070 H   0  0  0  0  0  0  0  0  0  0  0  0
   60.5024   33.1996   47.2598 H   0  0  0  0  0  0  0  0  0  0  0  0
   59.9438   35.3545   46.1517 H   0  0  0  0  0  0  0  0  0  0  0  0
   58.1762   35.4361   44.4018 H   0  0  0  0  0  0  0  0  0  0  0  0
   57.0115   33.3566   43.7004 H   0  0  0  0  0  0  0  0  0  0  0  0
   55.7234   30.7819   43.5316 H   0  0  0  0  0  0  0  0  0  0  0  0
   57.0298   31.7539   42.7730 H   0  0  0  0  0  0  0  0  0  0  0  0
   57.1293   29.9604   42.7730 H   0  0  0  0  0  0  0  0  0  0  0  0
   56.0455   28.6648   44.3751 H   0  0  0  0  0  0  0  0  0  0  0  0
   56.8655   24.4371   46.1506 H   0  0  0  0  0  0  0  0  0  0  0  0
   55.8546   24.5487   44.6700 H   0  0  0  0  0  0  0  0  0  0  0  0
   57.5238   25.2124   44.6700 H   0  0  0  0  0  0  0  0  0  0  0  0
   57.9191   26.4901   47.5857 H   0  0  0  0  0  0  0  0  0  0  0  0
   60.4954   27.3760   49.8324 H   0  0  0  0  0  0  0  0  0  0  0  0
   60.0612   26.5230   48.3124 H   0  0  0  0  0  0  0  0  0  0  0  0
   61.3795   27.7432   48.3124 H   0  0  0  0  0  0  0  0  0  0  0  0
  1  2  1  0
  2  3  1  0
  3  4  1  0
  3  5  1  0
  5  6  1  0
  6  7  1  0
  7  8  1  0
  8  9  2  0
  9 10  1  0
 10 11  2  0
 11 12  1  0
 12 13  2  0
 13 14  1  0
 14 15  2  0
 15 16  1  0
 15 17  1  0
 17 18  2  0
 18 19  1  0
 19 20  1  0
 20 21  1  0
 19 22  2  0
 22 23  1  0
 23 24  1  0
 24 25  1  0
 23 26  2  0
 26  8  1  0
 14  9  1  0
 26 17  1  0
  1 27  1  0
  1 28  1  0
  1 29  1  0
  2 30  1  0
  2 31  1  0
  3 32  1  6
  4 33  1  0
  4 34  1  0
  4 35  1  0
  5 36  1  0
  5 37  1  0
  6 38  1  0
  6 39  1  0
  7 40  1  0
 10 41  1  0
 11 42  1  0
 12 43  1  0
 13 44  1  0
 16 45  1  0
 16 46  1  0
 16 47  1  0
 18 48  1  0
 21 49  1  0
 21 50  1  0
 21 51  1  0
 22 52  1  0
 25 53  1  0
 25 54  1  0
 25 55  1  0
M  CHG  2   3   1  15   1
M  END
>  <UniqueID>  (13) 
13

>  <SMILES>  (13) 
CC[N@H+](C)CCNc1c2ccccc2[n+](C)c2cc(OC)cc(OC)c12

>  <Energy>  (13) 
86.68698847538442

>  <Genealogy>  (13) 
CC[NH+](C)CCNc1c2ccccc2[n+](C)c2cc(OC)cc(OC)c12 (protonated)
CC[N@H+](C)CCNc1c2ccccc2[n+](C)c2cc(OC)cc(OC)c12 (chirality)
CC[N@H+](C)CCNc1c2ccccc2[n+](C)c2cc(OC)cc(OC)c12 (3D coordinates assigned)
CC[N@H+](C)CCNc1c2ccccc2[n+](C)c2cc(OC)cc(OC)c12 (optimized conformer: 86.68698847538442 kcal/mol)

>  <smiles>  (13) 
CCN(C)CCNc1c2ccccc2[n+](C)c2cc(OC)cc(OC)c12

>  <score_type>  (13) 
oracle

>  <origin>  (13) 
adg

>  <m_score__min__energy>  (13) 
-4.3399999999999999

>  <m_primary>  (13) 
energy

$$$$
13:0
     RDKit          3D

 76 79  0  0  0  0  0  0  0  0999 V2000
   56.4430   30.0860   42.8780 C   0  0  0  0  0  0  0  0  0  0  0  0
   55.6180   29.7190   44.1080 C   0  0  0  0  0  0  0  0  0  0  0  0
   56.5050   29.3240   45.2080 N   0  0  0  0  0  0  0  0  0  0  0  0
   56.6450   27.8590   45.2810 C   0  0  0  0  0  0  0  0  0  0  0  0
   57.7830   27.3750   44.3650 C   0  0  0  0  0  0  0  0  0  0  0  0
   58.8210   28.3240   44.1660 O   0  0  0  0  0  0  0  0  0  0  0  0
   60.0290   27.9830   44.8380 C   0  0  0  0  0  0  0  0  0  0  0  0
   60.1720   28.5950   46.2410 C   0  0  0  0  0  0  0  0  0  0  0  0
   59.0350   29.4530   46.5960 N   0  0  0  0  0  0  0  0  0  0  0  0
   59.1840   30.7660   47.1780 C   0  0  0  0  0  0  0  0  0  0  0  0
   58.7660   31.9180   46.4830 C   0  0  0  0  0  0  0  0  0  0  0  0
   58.3590   31.8490   45.1330 C   0  0  0  0  0  0  0  0  0  0  0  0
   57.8300   32.9660   44.4890 C   0  0  0  0  0  0  0  0  0  0  0  0
   57.6900   34.1610   45.1780 C   0  0  0  0  0  0  0  0  0  0  0  0
   58.1370   34.2670   46.4960 C   0  0  0  0  0  0  0  0  0  0  0  0
   58.7690   33.1740   47.1480 C   0  0  0  0  0  0  0  0  0  0  0  0
   59.3890   33.3120   48.3730 N   0  0  0  0  0  0  0  0  0  0  0  0
   59.6320   34.6550   48.9460 C   0  0  0  0  0  0  0  0  0  0  0  0
   59.8250   32.1890   49.0610 C   0  0  0  0  0  0  0  0  0  0  0  0
   60.3880   32.2850   50.3610 C   0  0  0  0  0  0  0  0  0  0  0  0
   60.8830   31.1540   51.0260 C   0  0  0  0  0  0  0  0  0  0  0  0
   61.5550   31.2520   52.2540 O   0  0  0  0  0  0  0  0  0  0  0  0
   62.8030   31.9290   52.4100 C   0  0  0  0  0  0  0  0  0  0  0  0
   63.7880   31.4460   51.3230 C   0  0  0  0  0  0  0  0  0  0  0  0
   63.9580   32.3650   50.1460 N   0  0  0  0  0  0  0  0  0  0  0  0
   65.3930   32.7280   50.0030 C   0  0  0  0  0  0  0  0  0  0  0  0
   63.5090   31.6010   48.9370 C   0  0  0  0  0  0  0  0  0  0  0  0
   63.4000   32.4460   47.6540 C   0  0  0  0  0  0  0  0  0  0  0  0
   62.5210   33.6750   47.8790 C   0  0  0  0  0  0  0  0  0  0  0  0
   63.0240   34.4730   49.0690 C   0  0  0  0  0  0  0  0  0  0  0  0
   63.1160   33.5910   50.3280 C   0  0  0  0  0  0  0  0  0  0  0  0
   60.7260   29.9000   50.4540 C   0  0  0  0  0  0  0  0  0  0  0  0
   60.1490   29.7670   49.1950 C   0  0  0  0  0  0  0  0  0  0  0  0
   59.7160   30.9000   48.4730 C   0  0  0  0  0  0  0  0  0  0  0  0
   57.4051   30.5140   43.1961 H   0  0  0  0  0  0  0  0  0  0  0  0
   56.6244   29.1837   42.2756 H   0  0  0  0  0  0  0  0  0  0  0  0
   55.8943   30.8249   42.2756 H   0  0  0  0  0  0  0  0  0  0  0  0
   55.0190   30.5882   44.4174 H   0  0  0  0  0  0  0  0  0  0  0  0
   54.9544   28.8777   43.8596 H   0  0  0  0  0  0  0  0  0  0  0  0
   57.4560   29.7220   45.0090 H   0  0  0  0  0  0  0  0  0  0  0  0
   56.8682   27.5688   46.3183 H   0  0  0  0  0  0  0  0  0  0  0  0
   55.7034   27.3968   44.9496 H   0  0  0  0  0  0  0  0  0  0  0  0
   58.2239   26.4719   44.8122 H   0  0  0  0  0  0  0  0  0  0  0  0
   57.3339   27.1899   43.3781 H   0  0  0  0  0  0  0  0  0  0  0  0
   60.0712   26.8881   44.9347 H   0  0  0  0  0  0  0  0  0  0  0  0
   60.8507   28.3930   44.2324 H   0  0  0  0  0  0  0  0  0  0  0  0
   60.2426   27.7800   46.9764 H   0  0  0  0  0  0  0  0  0  0  0  0
   61.0773   29.2199   46.2436 H   0  0  0  0  0  0  0  0  0  0  0  0
   58.0850   29.1560   46.2740 H   0  0  0  0  0  0  0  0  0  0  0  0
   58.4606   30.9020   44.5827 H   0  0  0  0  0  0  0  0  0  0  0  0
   57.5237   32.8996   43.4346 H   0  0  0  0  0  0  0  0  0  0  0  0
   57.2255   35.0276   44.6848 H   0  0  0  0  0  0  0  0  0  0  0  0
   57.9976   35.2132   47.0395 H   0  0  0  0  0  0  0  0  0  0  0  0
   59.6207   34.5926   50.0442 H   0  0  0  0  0  0  0  0  0  0  0  0
   60.6117   35.0253   48.6098 H   0  0  0  0  0  0  0  0  0  0  0  0
   58.8441   35.3451   48.6098 H   0  0  0  0  0  0  0  0  0  0  0  0
   60.4368   33.2660   50.8563 H   0  0  0  0  0  0  0  0  0  0  0  0
   62.6475   33.0132   52.3087 H   0  0  0  0  0  0  0  0  0  0  0  0
   63.2178   31.7103   53.4051 H   0  0  0  0  0  0  0  0  0  0  0  0
   64.7732   31.3134   51.7939 H   0  0  0  0  0  0  0  0  0  0  0  0
   63.3591   30.5168   50.9197 H   0  0  0  0  0  0  0  0  0  0  0  0
   65.8435   32.8420   51.0000 H   0  0  0  0  0  0  0  0  0  0  0  0
   65.9187   31.9346   49.4516 H   0  0  0  0  0  0  0  0  0  0  0  0
   65.4782   33.6760   49.4516 H   0  0  0  0  0  0  0  0  0  0  0  0
   64.2302   30.7906   48.7549 H   0  0  0  0  0  0  0  0  0  0  0  0
   62.4961   31.2327   49.1570 H   0  0  0  0  0  0  0  0  0  0  0  0
   64.4059   32.7738   47.3530 H   0  0  0  0  0  0  0  0  0  0  0  0
   62.9432   31.8287   46.8664 H   0  0  0  0  0  0  0  0  0  0  0  0
   62.5467   34.3088   46.9803 H   0  0  0  0  0  0  0  0  0  0  0  0
   61.4907   33.3458   48.0791 H   0  0  0  0  0  0  0  0  0  0  0  0
   64.0219   34.8737   48.8372 H   0  0  0  0  0  0  0  0  0  0  0  0
   62.3156   35.2911   49.2661 H   0  0  0  0  0  0  0  0  0  0  0  0
   63.5489   34.1916   51.1416 H   0  0  0  0  0  0  0  0  0  0  0  0
   62.0956   33.2486   50.5552 H   0  0  0  0  0  0  0  0  0  0  0  0
   61.0599   29.0050   50.9994 H   0  0  0  0  0  0  0  0  0  0  0  0
   60.0286   28.7655   48.7563 H   0  0  0  0  0  0  0  0  0  0  0  0
  1  2  1  0
  2  3  1  0
  3  4  1  0
  4  5  1  0
  5  6  1  0
  6  7  1  0
  7  8  1  0
  8  9  1  0
  9 10  1  0
 10 11  2  0
 11 12  1  0
 12 13  2  0
 13 14  1  0
 14 15  2  0
 15 16  1  0
 16 17  2  0
 17 18  1  0
 17 19  1  0
 19 20  2  0
 20 21  1  0
 21 22  1  0
 22 23  1  0
 23 24  1  0
 24 25  1  0
 25 26  1  0
 25 27  1  0
 27 28  1  0
 28 29  1  0
 29 30  1  0
 30 31  1  0
 21 32  2  0
 32 33  1  0
 33 34  2  0
 34 10  1  0
 16 11  1  0
 34 19  1  0
 31 25  1  0
  1 35  1  0
  1 36  1  0
  1 37  1  0
  2 38  1  0
  2 39  1  0
  3 40  1  0
  4 41  1  0
  4 42  1  0
  5 43  1  0
  5 44  1  0
  7 45  1  0
  7 46  1  0
  8 47  1  0
  8 48  1  0
  9 49  1  0
 12 50  1  0
 13 51  1  0
 14 52  1  0
 15 53  1  0
 18 54  1  0
 18 55  1  0
 18 56  1  0
 20 57  1  0
 23 58  1  0
 23 59  1  0
 24 60  1  0
 24 61  1  0
 26 62  1  0
 26 63  1  0
 26 64  1  0
 27 65  1  0
 27 66  1  0
 28 67  1  0
 28 68  1  0
 29 69  1  0
 29 70  1  0
 30 71  1  0
 30 72  1  0
 31 73  1  0
 31 74  1  0
 32 75  1  0
 33 76  1  0
M  CHG  2  17   1  25   1
M  END
>  <UniqueID>  (14) 
14

>  <SMILES>  (14) 
CCNCCOCCNc1c2ccccc2[n+](C)c2cc(OCC[N+]3(C)CCCCC3)ccc12

>  <Energy>  (14) 
115.8894674089651

>  <Genealogy>  (14) 
CCNCCOCCNc1c2ccccc2[n+](C)c2cc(OCC[N+]3(C)CCCCC3)ccc12 (3D coordinates assigned)
CCNCCOCCNc1c2ccccc2[n+](C)c2cc(OCC[N+]3(C)CCCCC3)ccc12 (nonaromatic ring conformer: 115.8894674089651 kcal/mol)

>  <smiles>  (14) 
CCNCCOCCNc1c2ccccc2[n+](C)c2cc(OCC[N+]3(C)CCCCC3)ccc12

>  <score_type>  (14) 
oracle

>  <origin>  (14) 
adg

>  <m_score__min__energy>  (14) 
-5.3600000000000003

>  <m_primary>  (14) 
energy

$$$$
14:0
     RDKit          3D

 50 52  0  0  0  0  0  0  0  0999 V2000
   64.1810   32.7440   49.2310 C   0  0  0  0  0  0  0  0  0  0  0  0
   63.8370   32.4330   47.8390 N   0  0  0  0  0  0  0  0  0  0  0  0
   63.7710   33.6400   46.9950 C   0  0  0  0  0  0  0  0  0  0  0  0
   62.3810   33.8420   46.3700 C   0  0  0  0  0  0  0  0  0  0  0  0
   61.3370   33.4030   47.3080 N   0  0  0  0  0  0  0  0  0  0  0  0
   60.1830   34.3250   47.3480 C   0  0  0  0  0  0  0  0  0  0  0  0
   59.0570   33.6860   48.1850 C   0  0  0  0  0  0  0  0  0  0  0  0
   58.4340   32.4800   47.4640 C   0  0  0  0  0  0  0  0  0  0  0  0
   58.2220   32.7520   46.0360 N   0  0  0  0  0  0  0  0  0  0  0  0
   57.8320   31.6700   45.1700 C   0  0  0  0  0  0  0  0  0  0  0  0
   57.3860   31.9100   43.8610 C   0  0  0  0  0  0  0  0  0  0  0  0
   57.0480   30.8310   43.0440 C   0  0  0  0  0  0  0  0  0  0  0  0
   57.1590   29.5260   43.5270 C   0  0  0  0  0  0  0  0  0  0  0  0
   57.6150   29.3110   44.8390 C   0  0  0  0  0  0  0  0  0  0  0  0
   57.7710   27.9430   45.3990 C   0  0  0  0  0  0  0  0  0  0  0  0
   58.1360   27.7780   46.7490 C   0  0  0  0  0  0  0  0  0  0  0  0
   58.2800   26.5000   47.2940 C   0  0  0  0  0  0  0  0  0  0  0  0
   58.0540   25.3700   46.5040 C   0  0  0  0  0  0  0  0  0  0  0  0
   57.6790   25.5180   45.1660 C   0  0  0  0  0  0  0  0  0  0  0  0
   57.3770   24.0990   44.1800 Cl  0  0  0  0  0  0  0  0  0  0  0  0
   57.5330   26.7960   44.6150 C   0  0  0  0  0  0  0  0  0  0  0  0
   57.9450   30.3860   45.6090 N   0  0  0  0  0  0  0  0  0  0  0  0
   58.3340   34.1330   45.5450 C   0  0  0  0  0  0  0  0  0  0  0  0
   59.7050   34.7160   45.9150 C   0  0  0  0  0  0  0  0  0  0  0  0
   63.5371   32.1619   49.9067 H   0  0  0  0  0  0  0  0  0  0  0  0
   65.2342   32.4854   49.4150 H   0  0  0  0  0  0  0  0  0  0  0  0
   64.0296   33.8179   49.4150 H   0  0  0  0  0  0  0  0  0  0  0  0
   62.8960   31.9760   47.8330 H   0  0  0  0  0  0  0  0  0  0  0  0
   64.5310   31.7520   47.4500 H   0  0  0  0  0  0  0  0  0  0  0  0
   64.0112   34.5173   47.6136 H   0  0  0  0  0  0  0  0  0  0  0  0
   64.4931   33.5158   46.1746 H   0  0  0  0  0  0  0  0  0  0  0  0
   62.2375   34.9077   46.1385 H   0  0  0  0  0  0  0  0  0  0  0  0
   62.3106   33.2462   45.4480 H   0  0  0  0  0  0  0  0  0  0  0  0
   61.0140   32.4450   47.0350 H   0  0  0  0  0  0  0  0  0  0  0  0
   60.4884   35.2661   47.8288 H   0  0  0  0  0  0  0  0  0  0  0  0
   59.4725   33.3517   49.1471 H   0  0  0  0  0  0  0  0  0  0  0  0
   58.2709   34.4400   48.3387 H   0  0  0  0  0  0  0  0  0  0  0  0
   59.1075   31.6163   47.5664 H   0  0  0  0  0  0  0  0  0  0  0  0
   57.4560   32.2732   47.9230 H   0  0  0  0  0  0  0  0  0  0  0  0
   57.3037   32.9396   43.4828 H   0  0  0  0  0  0  0  0  0  0  0  0
   56.6936   31.0087   42.0179 H   0  0  0  0  0  0  0  0  0  0  0  0
   56.8918   28.6729   42.8860 H   0  0  0  0  0  0  0  0  0  0  0  0
   58.3091   28.6626   47.3794 H   0  0  0  0  0  0  0  0  0  0  0  0
   58.5721   26.3829   48.3480 H   0  0  0  0  0  0  0  0  0  0  0  0
   58.1712   24.3647   46.9349 H   0  0  0  0  0  0  0  0  0  0  0  0
   57.2305   26.9062   43.5632 H   0  0  0  0  0  0  0  0  0  0  0  0
   58.2189   34.1404   44.4511 H   0  0  0  0  0  0  0  0  0  0  0  0
   57.5461   34.7446   46.0089 H   0  0  0  0  0  0  0  0  0  0  0  0
   60.4461   34.3501   45.1891 H   0  0  0  0  0  0  0  0  0  0  0  0
   59.6062   35.8114   45.8952 H   0  0  0  0  0  0  0  0  0  0  0  0
  1  2  1  0
  2  3  1  0
  3  4  1  0
  4  5  1  0
  5  6  1  0
  6  7  1  0
  7  8  1  0
  8  9  1  0
  9 10  1  0
 10 11  2  0
 11 12  1  0
 12 13  2  0
 13 14  1  0
 14 15  1  0
 15 16  2  0
 16 17  1  0
 17 18  2  0
 18 19  1  0
 19 20  1  0
 19 21  2  0
 14 22  2  0
  9 23  1  0
 23 24  1  0
 24  6  1  0
 22 10  1  0
 21 15  1  0
  1 25  1  0
  1 26  1  0
  1 27  1  0
  2 28  1  0
  2 29  1  0
  3 30  1  0
  3 31  1  0
  4 32  1  0
  4 33  1  0
  5 34  1  0
  6 35  1  0
  7 36  1  0
  7 37  1  0
  8 38  1  0
  8 39  1  0
 11 40  1  0
 12 41  1  0
 13 42  1  0
 16 43  1  0
 17 44  1  0
 18 45  1  0
 21 46  1  0
 23 47  1  0
 23 48  1  0
 24 49  1  0
 24 50  1  0
M  CHG  1   2   1
M  END
>  <UniqueID>  (15) 
15

>  <SMILES>  (15) 
C[NH2+]CCNC1CCN(c2cccc(-c3cccc(Cl)c3)n2)CC1

>  <Energy>  (15) 
59.87955340057287

>  <Genealogy>  (15) 
C[NH2+]CCNC1CCN(c2cccc(-c3cccc(Cl)c3)n2)CC1 (protonated)
C[NH2+]CCNC1CCN(c2cccc(-c3cccc(Cl)c3)n2)CC1 (3D coordinates assigned)
C[NH2+]CCNC1CCN(c2cccc(-c3cccc(Cl)c3)n2)CC1 (nonaromatic ring conformer: 59.87955340057287 kcal/mol)

>  <smiles>  (15) 
CNCCNC1CCN(c2cccc(-c3cccc(Cl)c3)n2)CC1

>  <score_type>  (15) 
oracle

>  <origin>  (15) 
adg

>  <m_score__min__energy>  (15) 
-7.1600000000000001

>  <m_primary>  (15) 
energy

$$$$
15:0
     RDKit          3D

 64 67  0  0  0  0  0  0  0  0999 V2000
   63.2430   33.8540   46.4120 C   0  0  0  0  0  0  0  0  0  0  0  0
   63.2040   32.4870   47.0900 C   0  0  0  0  0  0  0  0  0  0  0  0
   62.8350   32.6570   48.5150 N   0  0  0  0  0  0  0  0  0  0  0  0
   63.5650   31.7410   49.4190 C   0  0  0  0  0  0  0  0  0  0  0  0
   62.6460   30.8500   50.2690 C   0  0  0  0  0  0  0  0  0  0  0  0
   62.8610   34.0630   48.9730 C   0  0  0  0  0  0  0  0  0  0  0  0
   62.1710   34.2100   50.3360 C   0  0  0  0  0  0  0  0  0  0  0  0
   60.7640   34.1410   50.1950 O   0  0  0  0  0  0  0  0  0  0  0  0
   60.1830   33.4730   51.2960 C   0  0  0  0  0  0  0  0  0  0  0  0
   58.8400   32.8760   50.8760 C   0  0  0  0  0  0  0  0  0  0  0  0
   59.0150   31.5560   50.1170 C   0  0  0  0  0  0  0  0  0  0  0  0
   59.9120   31.7440   48.9770 N   0  0  0  0  0  0  0  0  0  0  0  0
   59.4130   31.7520   47.6290 C   0  0  0  0  0  0  0  0  0  0  0  0
   59.0270   30.5570   47.0320 C   0  0  0  0  0  0  0  0  0  0  0  0
   58.6160   30.5210   45.7140 C   0  0  0  0  0  0  0  0  0  0  0  0
   58.4370   31.6660   44.9770 N   0  0  0  0  0  0  0  0  0  0  0  0
   57.7020   31.6160   43.7010 C   0  0  0  0  0  0  0  0  0  0  0  0
   58.8830   32.8670   45.5030 C   0  0  0  0  0  0  0  0  0  0  0  0
   58.9080   34.0540   44.7300 C   0  0  0  0  0  0  0  0  0  0  0  0
   59.2870   35.2710   45.2960 C   0  0  0  0  0  0  0  0  0  0  0  0
   59.6490   35.3410   46.6370 C   0  0  0  0  0  0  0  0  0  0  0  0
   59.6770   34.1850   47.4160 C   0  0  0  0  0  0  0  0  0  0  0  0
   59.3400   32.9360   46.8590 C   0  0  0  0  0  0  0  0  0  0  0  0
   58.4040   29.1150   45.3510 C   0  0  0  0  0  0  0  0  0  0  0  0
   58.2140   28.4930   44.1050 C   0  0  0  0  0  0  0  0  0  0  0  0
   58.1310   27.0930   44.0550 C   0  0  0  0  0  0  0  0  0  0  0  0
   58.2830   26.3290   45.2250 C   0  0  0  0  0  0  0  0  0  0  0  0
   58.5460   26.9580   46.4500 C   0  0  0  0  0  0  0  0  0  0  0  0
   58.6140   28.3510   46.4880 C   0  0  0  0  0  0  0  0  0  0  0  0
   59.0190   29.1920   47.6560 C   0  0  0  0  0  0  0  0  0  0  0  0
   63.2655   34.6428   47.1783 H   0  0  0  0  0  0  0  0  0  0  0  0
   64.1436   33.9265   45.7845 H   0  0  0  0  0  0  0  0  0  0  0  0
   62.3480   33.9778   45.7845 H   0  0  0  0  0  0  0  0  0  0  0  0
   62.4585   31.8505   46.5909 H   0  0  0  0  0  0  0  0  0  0  0  0
   64.1940   32.0128   47.0200 H   0  0  0  0  0  0  0  0  0  0  0  0
   64.2104   31.0921   48.8087 H   0  0  0  0  0  0  0  0  0  0  0  0
   64.1397   32.3680   50.1165 H   0  0  0  0  0  0  0  0  0  0  0  0
   62.8386   31.0367   51.3358 H   0  0  0  0  0  0  0  0  0  0  0  0
   61.5956   31.0825   50.0399 H   0  0  0  0  0  0  0  0  0  0  0  0
   62.8459   29.7929   50.0399 H   0  0  0  0  0  0  0  0  0  0  0  0
   63.9065   34.3933   49.0615 H   0  0  0  0  0  0  0  0  0  0  0  0
   62.3227   34.6808   48.2391 H   0  0  0  0  0  0  0  0  0  0  0  0
   62.5074   33.4002   51.0002 H   0  0  0  0  0  0  0  0  0  0  0  0
   62.4359   35.1887   50.7626 H   0  0  0  0  0  0  0  0  0  0  0  0
   60.8533   32.6683   51.6325 H   0  0  0  0  0  0  0  0  0  0  0  0
   60.0270   34.1867   52.1184 H   0  0  0  0  0  0  0  0  0  0  0  0
   58.2355   32.6914   51.7763 H   0  0  0  0  0  0  0  0  0  0  0  0
   58.3428   33.5922   50.2053 H   0  0  0  0  0  0  0  0  0  0  0  0
   59.4413   30.8012   50.7942 H   0  0  0  0  0  0  0  0  0  0  0  0
   58.0339   31.2200   49.7502 H   0  0  0  0  0  0  0  0  0  0  0  0
   60.8200   32.2260   49.1620 H   0  0  0  0  0  0  0  0  0  0  0  0
   56.6230   31.5426   43.9020 H   0  0  0  0  0  0  0  0  0  0  0  0
   57.9062   32.5301   43.1242 H   0  0  0  0  0  0  0  0  0  0  0  0
   58.0281   30.7380   43.1242 H   0  0  0  0  0  0  0  0  0  0  0  0
   58.6244   34.0152   43.6679 H   0  0  0  0  0  0  0  0  0  0  0  0
   59.2997   36.1810   44.6781 H   0  0  0  0  0  0  0  0  0  0  0  0
   59.9138   36.3105   47.0840 H   0  0  0  0  0  0  0  0  0  0  0  0
   59.9650   34.2490   48.4757 H   0  0  0  0  0  0  0  0  0  0  0  0
   58.1319   29.0923   43.1863 H   0  0  0  0  0  0  0  0  0  0  0  0
   57.9458   26.5904   43.0942 H   0  0  0  0  0  0  0  0  0  0  0  0
   58.1953   25.2335   45.1793 H   0  0  0  0  0  0  0  0  0  0  0  0
   58.6959   26.3645   47.3639 H   0  0  0  0  0  0  0  0  0  0  0  0
   58.2878   29.1258   48.4751 H   0  0  0  0  0  0  0  0  0  0  0  0
   59.9723   28.8981   48.1195 H   0  0  0  0  0  0  0  0  0  0  0  0
  1  2  1  0
  2  3  1  0
  3  4  1  0
  4  5  1  0
  3  6  1  0
  6  7  1  0
  7  8  1  0
  8  9  1  0
  9 10  1  0
 10 11  1  0
 11 12  1  0
 12 13  1  0
 13 14  2  0
 14 15  1  0
 15 16  2  0
 16 17  1  0
 16 18  1  0
 18 19  2  0
 19 20  1  0
 20 21  2  0
 21 22  1  0
 22 23  2  0
 15 24  1  0
 24 25  2  0
 25 26  1  0
 26 27  2  0
 27 28  1  0
 28 29  2  0
 29 30  1  0
 23 13  1  0
 29 24  1  0
 30 14  1  0
 23 18  1  0
  1 31  1  0
  1 32  1  0
  1 33  1  0
  2 34  1  0
  2 35  1  0
  4 36  1  0
  4 37  1  0
  5 38  1  0
  5 39  1  0
  5 40  1  0
  6 41  1  0
  6 42  1  0
  7 43  1  0
  7 44  1  0
  9 45  1  0
  9 46  1  0
 10 47  1  0
 10 48  1  0
 11 49  1  0
 11 50  1  0
 12 51  1  0
 17 52  1  0
 17 53  1  0
 17 54  1  0
 19 55  1  0
 20 56  1  0
 21 57  1  0
 22 58  1  0
 25 59  1  0
 26 60  1  0
 27 61  1  0
 28 62  1  0
 30 63  1  0
 30 64  1  0
M  CHG  1  16   1
M  END
>  <UniqueID>  (16) 
16

>  <SMILES>  (16) 
CCN(CC)CCOCCCNc1c2c([n+](C)c3ccccc13)-c1ccccc1C2

>  <Energy>  (16) 
106.34640413209

>  <Genealogy>  (16) 
CCN(CC)CCOCCCNc1c2c([n+](C)c3ccccc13)-c1ccccc1C2 (3D coordinates assigned)
CCN(CC)CCOCCCNc1c2c([n+](C)c3ccccc13)-c1ccccc1C2 (nonaromatic ring conformer: 106.34640413209 kcal/mol)

>  <smiles>  (16) 
CCN(CC)CCOCCCNc1c2c([n+](C)c3ccccc13)-c1ccccc1C2

>  <score_type>  (16) 
oracle

>  <origin>  (16) 
adg

>  <m_score__min__energy>  (16) 
-6.2599999999999998

>  <m_primary>  (16) 
energy

$$$$
16:0
     RDKit          3D

 63 65  0  0  0  0  0  0  0  0999 V2000
   60.4570   33.4570   50.2210 C   0  0  0  0  0  0  0  0  0  0  0  0
   61.9370   33.2600   49.8550 C   0  0  0  0  0  0  0  0  0  0  0  0
   62.1790   32.8770   48.4410 N   0  0  0  0  0  0  0  0  0  0  0  0
   63.3110   33.6180   47.8390 C   0  0  0  0  0  0  0  0  0  0  0  0
   63.0390   33.8620   46.3590 C   0  0  0  0  0  0  0  0  0  0  0  0
   62.2490   31.4190   48.1880 C   0  0  0  0  0  0  0  0  0  0  0  0
   60.9310   30.8640   47.6220 C   0  0  0  0  0  0  0  0  0  0  0  0
   60.5180   29.7030   48.3190 O   0  0  0  0  0  0  0  0  0  0  0  0
   59.1060   29.5780   48.3330 C   0  0  0  0  0  0  0  0  0  0  0  0
   58.6810   28.1640   47.8710 C   0  0  2  0  0  0  0  0  0  0  0  0
   59.8190   27.1210   48.0420 C   0  0  0  0  0  0  0  0  0  0  0  0
   60.3860   26.6330   46.7040 C   0  0  0  0  0  0  0  0  0  0  0  0
   60.5400   27.7990   45.7290 C   0  0  0  0  0  0  0  0  0  0  0  0
   59.1860   28.5180   45.4750 C   0  0  1  0  0  0  0  0  0  0  0  0
   58.6450   28.2020   44.0730 C   0  0  0  0  0  0  0  0  0  0  0  0
   57.2550   28.6350   43.9500 N   0  0  0  0  0  0  0  0  0  0  0  0
   56.6920   29.7520   44.6480 C   0  0  0  0  0  0  0  0  0  0  0  0
   55.5740   29.6160   45.2120 O   0  0  0  0  0  0  0  0  0  0  0  0
   57.3740   31.0590   44.7070 C   0  0  0  0  0  0  0  0  0  0  0  0
   57.5740   31.8080   43.5360 C   0  0  0  0  0  0  0  0  0  0  0  0
   58.1850   33.0610   43.5910 C   0  0  0  0  0  0  0  0  0  0  0  0
   58.5980   33.5920   44.8220 C   0  0  0  0  0  0  0  0  0  0  0  0
   59.2090   34.8540   44.8880 C   0  0  0  0  0  0  0  0  0  0  0  0
   59.6130   35.3740   46.1210 C   0  0  0  0  0  0  0  0  0  0  0  0
   59.4140   34.6390   47.2940 C   0  0  0  0  0  0  0  0  0  0  0  0
   58.8040   33.3820   47.2410 C   0  0  0  0  0  0  0  0  0  0  0  0
   58.3890   32.8500   46.0100 C   0  0  0  0  0  0  0  0  0  0  0  0
   57.7680   31.5920   45.9440 C   0  0  0  0  0  0  0  0  0  0  0  0
   58.1660   28.1700   46.4870 N   0  0  0  0  0  0  0  0  0  0  0  0
   60.3488   33.4714   51.3156 H   0  0  0  0  0  0  0  0  0  0  0  0
   60.1001   34.4106   49.8047 H   0  0  0  0  0  0  0  0  0  0  0  0
   59.8631   32.6300   49.8047 H   0  0  0  0  0  0  0  0  0  0  0  0
   62.4672   34.2038   50.0502 H   0  0  0  0  0  0  0  0  0  0  0  0
   62.3016   32.4246   50.4707 H   0  0  0  0  0  0  0  0  0  0  0  0
   63.4300   34.5835   48.3526 H   0  0  0  0  0  0  0  0  0  0  0  0
   64.2315   33.0254   47.9465 H   0  0  0  0  0  0  0  0  0  0  0  0
   62.2241   34.5930   46.2516 H   0  0  0  0  0  0  0  0  0  0  0  0
   63.9481   34.2531   45.8787 H   0  0  0  0  0  0  0  0  0  0  0  0
   62.7486   32.9160   45.8787 H   0  0  0  0  0  0  0  0  0  0  0  0
   63.0552   31.2230   47.4657 H   0  0  0  0  0  0  0  0  0  0  0  0
   62.4417   30.9183   49.1483 H   0  0  0  0  0  0  0  0  0  0  0  0
   60.1501   31.6332   47.7136 H   0  0  0  0  0  0  0  0  0  0  0  0
   61.0927   30.5957   46.5676 H   0  0  0  0  0  0  0  0  0  0  0  0
   58.7377   29.7505   49.3551 H   0  0  0  0  0  0  0  0  0  0  0  0
   58.6769   30.3205   47.6441 H   0  0  0  0  0  0  0  0  0  0  0  0
   57.8574   27.8558   48.5318 H   0  0  0  0  0  0  0  0  0  0  0  0
   60.6330   27.5813   48.6213 H   0  0  0  0  0  0  0  0  0  0  0  0
   59.3924   26.2482   48.5581 H   0  0  0  0  0  0  0  0  0  0  0  0
   61.3700   26.1720   46.8748 H   0  0  0  0  0  0  0  0  0  0  0  0
   59.6917   25.8977   46.2712 H   0  0  0  0  0  0  0  0  0  0  0  0
   61.2547   28.5224   46.1484 H   0  0  0  0  0  0  0  0  0  0  0  0
   60.9012   27.3989   44.7701 H   0  0  0  0  0  0  0  0  0  0  0  0
   59.3899   29.5962   45.5525 H   0  0  0  0  0  0  0  0  0  0  0  0
   59.2551   28.7268   43.3231 H   0  0  0  0  0  0  0  0  0  0  0  0
   58.6943   27.1153   43.9098 H   0  0  0  0  0  0  0  0  0  0  0  0
   57.2461   31.4033   42.5671 H   0  0  0  0  0  0  0  0  0  0  0  0
   58.3435   33.6346   42.6659 H   0  0  0  0  0  0  0  0  0  0  0  0
   59.3702   35.4348   43.9678 H   0  0  0  0  0  0  0  0  0  0  0  0
   60.0890   36.3645   46.1688 H   0  0  0  0  0  0  0  0  0  0  0  0
   59.7383   35.0509   48.2610 H   0  0  0  0  0  0  0  0  0  0  0  0
   58.6488   32.8083   48.1666 H   0  0  0  0  0  0  0  0  0  0  0  0
   57.5894   31.0212   46.8672 H   0  0  0  0  0  0  0  0  0  0  0  0
   57.3720   28.8500   46.4210 H   0  0  0  0  0  0  0  0  0  0  0  0
  1  2  1  0
  2  3  1  0
  3  4  1  0
  4  5  1  0
  3  6  1  0
  6  7  1  0
  7  8  1  0
  8  9  1  0
  9 10  1  0
 10 11  1  0
 11 12  1  0
 12 13  1  0
 13 14  1  0
 14 15  1  0
 15 16  1  0
 16 17  1  0
 17 18  2  0
 17 19  1  0
 19 20  2  0
 20 21  1  0
 21 22  2  0
 22 23  1  0
 23 24  2  0
 24 25  1  0
 25 26  2  0
 26 27  1  0
 27 28  2  0
 14 29  1  0
 29 10  1  0
 28 19  1  0
 27 22  1  0
  1 30  1  0
  1 31  1  0
  1 32  1  0
  2 33  1  0
  2 34  1  0
  4 35  1  0
  4 36  1  0
  5 37  1  0
  5 38  1  0
  5 39  1  0
  6 40  1  0
  6 41  1  0
  7 42  1  0
  7 43  1  0
  9 44  1  0
  9 45  1  0
 10 46  1  1
 11 47  1  0
 11 48  1  0
 12 49  1  0
 12 50  1  0
 13 51  1  0
 13 52  1  0
 14 53  1  6
 15 54  1  0
 15 55  1  0
 20 56  1  0
 21 57  1  0
 23 58  1  0
 24 59  1  0
 25 60  1  0
 26 61  1  0
 28 62  1  0
 29 63  1  0
M  CHG  1  16  -1
M  END
>  <UniqueID>  (17) 
17

>  <SMILES>  (17) 
CCN(CC)CCOC[C@@H]1CCC[C@@H](C[N-]C(=O)c2ccc3ccccc3c2)N1

>  <Energy>  (17) 
80.77720400095727

>  <Genealogy>  (17) 
CCN(CC)CCOCC1CCCC(C[N-]C(=O)c2ccc3ccccc3c2)N1 (protonated)
CCN(CC)CCOC[C@@H]1CCC[C@@H](C[N-]C(=O)c2ccc3ccccc3c2)N1 (chirality)
CCN(CC)CCOC[C@@H]1CCC[C@@H](C[N-]C(=O)c2ccc3ccccc3c2)N1 (3D coordinates assigned)
CCN(CC)CCOC[C@@H]1CCC[C@@H](C[N-]C(=O)c2ccc3ccccc3c2)N1 (nonaromatic ring conformer: 80.77720400095727 kcal/mol)

>  <smiles>  (17) 
CCN(CC)CCOCC1CCCC(CNC(=O)c2ccc3ccccc3c2)N1

>  <score_type>  (17) 
oracle

>  <origin>  (17) 
adg

>  <m_score__min__energy>  (17) 
-10.01

>  <m_primary>  (17) 
energy

$$$$
17:0
     RDKit          3D

 53 55  0  0  0  0  0  0  0  0999 V2000
   56.6480   30.0740   42.9980 C   0  0  0  0  0  0  0  0  0  0  0  0
   56.2200   30.4870   44.4040 C   0  0  0  0  0  0  0  0  0  0  0  0
   57.3540   31.0600   45.1630 N   0  0  0  0  0  0  0  0  0  0  0  0
   58.5660   30.2340   45.0210 C   0  0  0  0  0  0  0  0  0  0  0  0
   57.6140   32.4960   44.8920 C   0  0  0  0  0  0  0  0  0  0  0  0
   57.2130   33.4570   46.0390 C   0  0  0  0  0  0  0  0  0  0  0  0
   58.3230   33.5930   47.0930 C   0  0  0  0  0  0  0  0  0  0  0  0
   58.9020   32.2880   47.4220 N   0  0  0  0  0  0  0  0  0  0  0  0
   59.9950   32.1530   48.3500 C   0  0  0  0  0  0  0  0  0  0  0  0
   61.2590   32.6680   48.0170 C   0  0  0  0  0  0  0  0  0  0  0  0
   61.4870   33.2620   46.7580 C   0  0  0  0  0  0  0  0  0  0  0  0
   62.7170   33.8390   46.4540 C   0  0  0  0  0  0  0  0  0  0  0  0
   63.7330   33.8480   47.4010 C   0  0  0  0  0  0  0  0  0  0  0  0
   63.5370   33.2540   48.6480 C   0  0  0  0  0  0  0  0  0  0  0  0
   62.3100   32.6190   48.9720 C   0  0  0  0  0  0  0  0  0  0  0  0
   62.1150   31.9900   50.1890 N   0  0  0  0  0  0  0  0  0  0  0  0
   63.2730   31.7050   51.0670 C   0  0  0  0  0  0  0  0  0  0  0  0
   60.8460   31.5910   50.5670 C   0  0  0  0  0  0  0  0  0  0  0  0
   60.5600   31.1720   51.8900 C   0  0  0  0  0  0  0  0  0  0  0  0
   59.2990   30.6880   52.2390 C   0  0  0  0  0  0  0  0  0  0  0  0
   58.2830   30.6060   51.2800 C   0  0  0  0  0  0  0  0  0  0  0  0
   57.0110   30.0920   51.5730 O   0  0  0  0  0  0  0  0  0  0  0  0
   55.9090   30.8750   52.0220 C   0  0  0  0  0  0  0  0  0  0  0  0
   58.5330   31.0560   49.9830 C   0  0  0  0  0  0  0  0  0  0  0  0
   59.7830   31.6040   49.6280 C   0  0  0  0  0  0  0  0  0  0  0  0
   57.4381   29.3116   43.0644 H   0  0  0  0  0  0  0  0  0  0  0  0
   55.7835   29.6601   42.4583 H   0  0  0  0  0  0  0  0  0  0  0  0
   57.0308   30.9527   42.4583 H   0  0  0  0  0  0  0  0  0  0  0  0
   55.4216   31.2399   44.3292 H   0  0  0  0  0  0  0  0  0  0  0  0
   55.8620   29.5929   44.9354 H   0  0  0  0  0  0  0  0  0  0  0  0
   58.9502   29.9722   46.0179 H   0  0  0  0  0  0  0  0  0  0  0  0
   58.3205   29.3144   44.4695 H   0  0  0  0  0  0  0  0  0  0  0  0
   59.3321   30.7988   44.4695 H   0  0  0  0  0  0  0  0  0  0  0  0
   58.6907   32.6191   44.7032 H   0  0  0  0  0  0  0  0  0  0  0  0
   56.9881   32.7663   44.0288 H   0  0  0  0  0  0  0  0  0  0  0  0
   57.0042   34.4497   45.6135 H   0  0  0  0  0  0  0  0  0  0  0  0
   56.3238   33.0406   46.5349 H   0  0  0  0  0  0  0  0  0  0  0  0
   59.1142   34.2478   46.6989 H   0  0  0  0  0  0  0  0  0  0  0  0
   57.8857   34.0212   48.0070 H   0  0  0  0  0  0  0  0  0  0  0  0
   58.5850   31.4450   46.8920 H   0  0  0  0  0  0  0  0  0  0  0  0
   60.6831   33.2694   46.0072 H   0  0  0  0  0  0  0  0  0  0  0  0
   62.8842   34.2878   45.4637 H   0  0  0  0  0  0  0  0  0  0  0  0
   64.6960   34.3254   47.1668 H   0  0  0  0  0  0  0  0  0  0  0  0
   64.3467   33.2783   49.3922 H   0  0  0  0  0  0  0  0  0  0  0  0
   62.9627   31.7814   52.1195 H   0  0  0  0  0  0  0  0  0  0  0  0
   63.6436   30.6888   50.8668 H   0  0  0  0  0  0  0  0  0  0  0  0
   64.0729   32.4331   50.8668 H   0  0  0  0  0  0  0  0  0  0  0  0
   61.3471   31.2294   52.6563 H   0  0  0  0  0  0  0  0  0  0  0  0
   59.1023   30.3692   53.2732 H   0  0  0  0  0  0  0  0  0  0  0  0
   55.8918   30.8872   53.1218 H   0  0  0  0  0  0  0  0  0  0  0  0
   56.0123   31.9034   51.6455 H   0  0  0  0  0  0  0  0  0  0  0  0
   54.9719   30.4391   51.6455 H   0  0  0  0  0  0  0  0  0  0  0  0
   57.7406   30.9819   49.2236 H   0  0  0  0  0  0  0  0  0  0  0  0
  1  2  1  0
  2  3  1  0
  3  4  1  0
  3  5  1  0
  5  6  1  0
  6  7  1  0
  7  8  1  0
  8  9  1  0
  9 10  2  0
 10 11  1  0
 11 12  2  0
 12 13  1  0
 13 14  2  0
 14 15  1  0
 15 16  2  0
 16 17  1  0
 16 18  1  0
 18 19  2  0
 19 20  1  0
 20 21  2  0
 21 22  1  0
 22 23  1  0
 21 24  1  0
 24 25  2  0
 25  9  1  0
 15 10  1  0
 25 18  1  0
  1 26  1  0
  1 27  1  0
  1 28  1  0
  2 29  1  0
  2 30  1  0
  4 31  1  0
  4 32  1  0
  4 33  1  0
  5 34  1  0
  5 35  1  0
  6 36  1  0
  6 37  1  0
  7 38  1  0
  7 39  1  0
  8 40  1  0
 11 41  1  0
 12 42  1  0
 13 43  1  0
 14 44  1  0
 17 45  1  0
 17 46  1  0
 17 47  1  0
 19 48  1  0
 20 49  1  0
 23 50  1  0
 23 51  1  0
 23 52  1  0
 24 53  1  0
M  CHG  1  16   1
M  END
>  <UniqueID>  (18) 
18

>  <SMILES>  (18) 
CCN(C)CCCNc1c2ccccc2[n+](C)c2ccc(OC)cc12

>  <Energy>  (18) 
80.7080759801014

>  <Genealogy>  (18) 
CCN(C)CCCNc1c2ccccc2[n+](C)c2ccc(OC)cc12 (3D coordinates assigned)
CCN(C)CCCNc1c2ccccc2[n+](C)c2ccc(OC)cc12 (optimized conformer: 80.7080759801014 kcal/mol)

>  <smiles>  (18) 
CCN(C)CCCNc1c2ccccc2[n+](C)c2ccc(OC)cc12

>  <score_type>  (18) 
oracle

>  <origin>  (18) 
adg

>  <m_score__min__energy>  (18) 
-5.8300000000000001

>  <m_primary>  (18) 
energy

$$$$
18:0
     RDKit          3D

 40 40  0  0  0  0  0  0  0  0999 V2000
   56.3840   29.7850   42.6660 C   0  0  0  0  0  0  0  0  0  0  0  0
   55.8530   30.0880   44.0660 C   0  0  0  0  0  0  0  0  0  0  0  0
   56.8560   30.8170   44.8710 N   0  0  0  0  0  0  0  0  0  0  0  0
   57.8300   29.9690   45.6000 C   0  0  0  0  0  0  0  0  0  0  0  0
   59.1480   29.7340   44.8560 C   0  0  0  0  0  0  0  0  0  0  0  0
   57.4260   32.0290   44.2340 C   0  0  0  0  0  0  0  0  0  0  0  0
   57.8450   33.0990   45.2140 C   0  0  0  0  0  0  0  0  0  0  0  0
   57.0460   33.4720   46.1120 O   0  0  0  0  0  0  0  0  0  0  0  0
   59.1340   33.7190   45.1020 N   0  0  0  0  0  0  0  0  0  0  0  0
   59.7880   34.3600   46.2390 C   0  0  0  0  0  0  0  0  0  0  0  0
   60.9060   33.4820   46.7430 C   0  0  0  0  0  0  0  0  0  0  0  0
   62.2340   33.8490   46.4670 C   0  0  0  0  0  0  0  0  0  0  0  0
   63.2900   33.0250   46.8560 C   0  0  0  0  0  0  0  0  0  0  0  0
   63.0350   31.8250   47.5170 C   0  0  0  0  0  0  0  0  0  0  0  0
   61.7200   31.4420   47.7900 C   0  0  0  0  0  0  0  0  0  0  0  0
   60.6410   32.2630   47.4030 C   0  0  0  0  0  0  0  0  0  0  0  0
   59.3100   31.8960   47.6560 O   0  0  0  0  0  0  0  0  0  0  0  0
   58.5430   32.3430   48.7680 C   0  0  0  0  0  0  0  0  0  0  0  0
   57.3369   29.2412   42.7450 H   0  0  0  0  0  0  0  0  0  0  0  0
   55.6536   29.1677   42.1225 H   0  0  0  0  0  0  0  0  0  0  0  0
   56.5438   30.7279   42.1225 H   0  0  0  0  0  0  0  0  0  0  0  0
   54.9454   30.7035   43.9803 H   0  0  0  0  0  0  0  0  0  0  0  0
   55.6289   29.1351   44.5678 H   0  0  0  0  0  0  0  0  0  0  0  0
   58.0590   30.4557   46.5595 H   0  0  0  0  0  0  0  0  0  0  0  0
   57.3581   28.9827   45.7204 H   0  0  0  0  0  0  0  0  0  0  0  0
   59.9595   29.5893   45.5844 H   0  0  0  0  0  0  0  0  0  0  0  0
   59.0579   28.8378   44.2246 H   0  0  0  0  0  0  0  0  0  0  0  0
   59.3732   30.6062   44.2246 H   0  0  0  0  0  0  0  0  0  0  0  0
   58.3089   31.7300   43.6500 H   0  0  0  0  0  0  0  0  0  0  0  0
   56.6318   32.4634   43.6091 H   0  0  0  0  0  0  0  0  0  0  0  0
   59.6760   33.6120   44.2150 H   0  0  0  0  0  0  0  0  0  0  0  0
   60.1987   35.3310   45.9250 H   0  0  0  0  0  0  0  0  0  0  0  0
   59.0535   34.5126   47.0435 H   0  0  0  0  0  0  0  0  0  0  0  0
   62.4421   34.7923   45.9407 H   0  0  0  0  0  0  0  0  0  0  0  0
   64.3267   33.3231   46.6405 H   0  0  0  0  0  0  0  0  0  0  0  0
   63.8704   31.1787   47.8241 H   0  0  0  0  0  0  0  0  0  0  0  0
   61.5246   30.4930   48.3107 H   0  0  0  0  0  0  0  0  0  0  0  0
   59.0456   32.0501   49.7016 H   0  0  0  0  0  0  0  0  0  0  0  0
   58.4475   33.4382   48.7310 H   0  0  0  0  0  0  0  0  0  0  0  0
   57.5430   31.8863   48.7310 H   0  0  0  0  0  0  0  0  0  0  0  0
  1  2  1  0
  2  3  1  0
  3  4  1  0
  4  5  1  0
  3  6  1  0
  6  7  1  0
  7  8  2  0
  7  9  1  0
  9 10  1  0
 10 11  1  0
 11 12  2  0
 12 13  1  0
 13 14  2  0
 14 15  1  0
 15 16  2  0
 16 17  1  0
 17 18  1  0
 16 11  1  0
  1 19  1  0
  1 20  1  0
  1 21  1  0
  2 22  1  0
  2 23  1  0
  4 24  1  0
  4 25  1  0
  5 26  1  0
  5 27  1  0
  5 28  1  0
  6 29  1  0
  6 30  1  0
  9 31  1  0
 10 32  1  0
 10 33  1  0
 12 34  1  0
 13 35  1  0
 14 36  1  0
 15 37  1  0
 18 38  1  0
 18 39  1  0
 18 40  1  0
M  END
>  <UniqueID>  (19) 
19

>  <SMILES>  (19) 
CCN(CC)CC(=O)NCc1ccccc1OC

>  <Energy>  (19) 
37.96576043668603

>  <Genealogy>  (19) 
CCN(CC)CC(=O)NCc1ccccc1OC (3D coordinates assigned)
CCN(CC)CC(=O)NCc1ccccc1OC (optimized conformer: 37.96576043668603 kcal/mol)

>  <smiles>  (19) 
CCN(CC)CC(=O)NCc1ccccc1OC

>  <score_type>  (19) 
oracle

>  <origin>  (19) 
adg

>  <m_score__min__energy>  (19) 
-5.4100000000000001

>  <m_primary>  (19) 
energy

$$$$
19:0
     RDKit          3D

 48 50  0  0  0  0  0  0  0  0999 V2000
   58.1380   27.1840   43.4180 C   0  0  0  0  0  0  0  0  0  0  0  0
   57.6190   27.9450   44.5040 O   0  0  0  0  0  0  0  0  0  0  0  0
   58.3530   28.8980   45.2280 C   0  0  0  0  0  0  0  0  0  0  0  0
   58.1540   30.2880   45.0470 C   0  0  0  0  0  0  0  0  0  0  0  0
   58.9220   31.1640   45.8060 C   0  0  0  0  0  0  0  0  0  0  0  0
   58.9720   32.5410   45.8160 C   0  0  0  0  0  0  0  0  0  0  0  0
   59.9170   32.8830   46.7710 C   0  0  0  0  0  0  0  0  0  0  0  0
   60.4660   31.7690   47.3200 N   0  0  0  0  0  0  0  0  0  0  0  0
   61.5870   31.7120   48.2640 C   0  0  0  0  0  0  0  0  0  0  0  0
   62.9170   31.6880   47.5040 C   0  0  0  0  0  0  0  0  0  0  0  0
   63.6140   32.9870   47.6340 N   0  0  0  0  0  0  0  0  0  0  0  0
   63.1390   33.7250   48.8170 C   0  0  0  0  0  0  0  0  0  0  0  0
   63.3980   33.8040   46.4300 C   0  0  0  0  0  0  0  0  0  0  0  0
   59.8500   30.7240   46.7180 C   0  0  0  0  0  0  0  0  0  0  0  0
   60.0800   29.3610   46.9120 C   0  0  0  0  0  0  0  0  0  0  0  0
   59.3180   28.4340   46.1590 C   0  0  0  0  0  0  0  0  0  0  0  0
   59.4880   27.0480   46.3000 O   0  0  0  0  0  0  0  0  0  0  0  0
   60.7510   26.3960   46.3820 C   0  0  0  0  0  0  0  0  0  0  0  0
   60.3500   34.3030   47.0150 C   0  0  0  0  0  0  0  0  0  0  0  0
   59.3120   35.2980   46.4590 C   0  0  0  0  0  0  0  0  0  0  0  0
   58.8450   34.9080   45.0420 C   0  0  0  0  0  0  0  0  0  0  0  0
   58.1630   33.5270   45.0310 C   0  0  0  0  0  0  0  0  0  0  0  0
   58.7173   26.3346   43.8092 H   0  0  0  0  0  0  0  0  0  0  0  0
   57.3068   26.8087   42.8030 H   0  0  0  0  0  0  0  0  0  0  0  0
   58.7908   27.8208   42.8030 H   0  0  0  0  0  0  0  0  0  0  0  0
   57.4129   30.6642   44.3264 H   0  0  0  0  0  0  0  0  0  0  0  0
   61.5575   32.5966   48.9172 H   0  0  0  0  0  0  0  0  0  0  0  0
   61.5018   30.7966   48.8680 H   0  0  0  0  0  0  0  0  0  0  0  0
   63.5549   30.8924   47.9165 H   0  0  0  0  0  0  0  0  0  0  0  0
   62.7141   31.4991   46.4395 H   0  0  0  0  0  0  0  0  0  0  0  0
   63.4715   33.2083   49.7294 H   0  0  0  0  0  0  0  0  0  0  0  0
   63.5506   34.7450   48.8025 H   0  0  0  0  0  0  0  0  0  0  0  0
   62.0401   33.7728   48.8025 H   0  0  0  0  0  0  0  0  0  0  0  0
   63.1272   34.8283   46.7257 H   0  0  0  0  0  0  0  0  0  0  0  0
   64.3210   33.8269   45.8320 H   0  0  0  0  0  0  0  0  0  0  0  0
   62.5843   33.3678   45.8320 H   0  0  0  0  0  0  0  0  0  0  0  0
   60.8353   29.0147   47.6328 H   0  0  0  0  0  0  0  0  0  0  0  0
   61.0232   26.2555   47.4385 H   0  0  0  0  0  0  0  0  0  0  0  0
   60.6908   25.4163   45.8854 H   0  0  0  0  0  0  0  0  0  0  0  0
   61.5148   27.0125   45.8854 H   0  0  0  0  0  0  0  0  0  0  0  0
   60.4603   34.4649   48.0974 H   0  0  0  0  0  0  0  0  0  0  0  0
   61.3082   34.4713   46.5017 H   0  0  0  0  0  0  0  0  0  0  0  0
   58.4399   35.3141   47.1292 H   0  0  0  0  0  0  0  0  0  0  0  0
   59.7857   36.2891   46.4017 H   0  0  0  0  0  0  0  0  0  0  0  0
   58.1302   35.6623   44.6813 H   0  0  0  0  0  0  0  0  0  0  0  0
   59.7288   34.8610   44.3887 H   0  0  0  0  0  0  0  0  0  0  0  0
   57.1620   33.6132   45.4788 H   0  0  0  0  0  0  0  0  0  0  0  0
   58.0822   33.1763   43.9915 H   0  0  0  0  0  0  0  0  0  0  0  0
  1  2  1  0
  2  3  1  0
  3  4  2  0
  4  5  1  0
  5  6  1  0
  6  7  2  0
  7  8  1  0
  8  9  1  0
  9 10  1  0
 10 11  1  0
 11 12  1  0
 11 13  1  0
  8 14  1  0
 14 15  1  0
 15 16  2  0
 16 17  1  0
 17 18  1  0
  7 19  1  0
 19 20  1  0
 20 21  1  0
 21 22  1  0
 16  3  1  0
 14  5  2  0
 22  6  1  0
  1 23  1  0
  1 24  1  0
  1 25  1  0
  4 26  1  0
  9 27  1  0
  9 28  1  0
 10 29  1  0
 10 30  1  0
 12 31  1  0
 12 32  1  0
 12 33  1  0
 13 34  1  0
 13 35  1  0
 13 36  1  0
 15 37  1  0
 18 38  1  0
 18 39  1  0
 18 40  1  0
 19 41  1  0
 19 42  1  0
 20 43  1  0
 20 44  1  0
 21 45  1  0
 21 46  1  0
 22 47  1  0
 22 48  1  0
M  END
>  <UniqueID>  (20) 
20

>  <SMILES>  (20) 
COc1cc2c3c(n(CCN(C)C)c2cc1OC)CCCC3

>  <Energy>  (20) 
78.33597381254668

>  <Genealogy>  (20) 
COc1cc2c3c(n(CCN(C)C)c2cc1OC)CCCC3 (3D coordinates assigned)
COc1cc2c3c(n(CCN(C)C)c2cc1OC)CCCC3 (nonaromatic ring conformer: 78.33597381254668 kcal/mol)

>  <smiles>  (20) 
COc1cc2c3c(n(CCN(C)C)c2cc1OC)CCCC3

>  <score_type>  (20) 
oracle

>  <origin>  (20) 
adg

>  <m_score__min__energy>  (20) 
-6.3899999999999997

>  <m_primary>  (20) 
energy

$$$$
20:0
     RDKit          3D

 59 61  0  0  0  0  0  0  0  0999 V2000
   61.8300   34.2220   50.1300 C   0  0  0  0  0  0  0  0  0  0  0  0
   62.9420   33.2940   49.6180 C   0  0  0  0  0  0  0  0  0  0  0  0
   62.4540   31.9910   49.1050 N   0  0  0  0  0  0  0  0  0  0  0  0
   62.9250   31.6590   47.7400 C   0  0  0  0  0  0  0  0  0  0  0  0
   63.4150   32.9040   47.0050 C   0  0  0  0  0  0  0  0  0  0  0  0
   62.6630   30.8770   50.0630 C   0  0  0  0  0  0  0  0  0  0  0  0
   61.6330   30.9620   51.1880 C   0  0  0  0  0  0  0  0  0  0  0  0
   60.5090   30.1660   50.8650 O   0  0  0  0  0  0  0  0  0  0  0  0
   59.3120   30.9060   51.0120 C   0  0  0  0  0  0  0  0  0  0  0  0
   58.7980   31.3550   49.6400 C   0  0  0  0  0  0  0  0  0  0  0  0
   59.7280   30.9760   48.5740 N   0  0  0  0  0  0  0  0  0  0  0  0
   59.4150   31.2130   47.1930 C   0  0  0  0  0  0  0  0  0  0  0  0
   59.3880   32.5360   46.7190 C   0  0  0  0  0  0  0  0  0  0  0  0
   59.9070   33.5950   47.4950 C   0  0  0  0  0  0  0  0  0  0  0  0
   59.9050   34.9020   47.0110 C   0  0  0  0  0  0  0  0  0  0  0  0
   59.4020   35.1730   45.7450 C   0  0  0  0  0  0  0  0  0  0  0  0
   58.8810   34.1430   44.9620 C   0  0  0  0  0  0  0  0  0  0  0  0
   58.8400   32.8090   45.4420 C   0  0  0  0  0  0  0  0  0  0  0  0
   58.2880   31.7860   44.7000 N   0  0  0  0  0  0  0  0  0  0  0  0
   57.4150   32.1050   43.5470 C   0  0  0  0  0  0  0  0  0  0  0  0
   58.5370   30.4690   45.0430 C   0  0  0  0  0  0  0  0  0  0  0  0
   58.2550   29.4170   44.1360 C   0  0  0  0  0  0  0  0  0  0  0  0
   58.4680   28.0830   44.4780 C   0  0  0  0  0  0  0  0  0  0  0  0
   58.1170   26.9930   43.5070 C   0  0  0  0  0  0  0  0  0  0  0  0
   58.9780   27.7700   45.7330 C   0  0  0  0  0  0  0  0  0  0  0  0
   59.3240   28.7720   46.6420 C   0  0  0  0  0  0  0  0  0  0  0  0
   60.2030   28.1120   48.2240 Br  0  0  0  0  0  0  0  0  0  0  0  0
   59.1020   30.1460   46.3150 C   0  0  0  0  0  0  0  0  0  0  0  0
   61.8300   34.2220   51.2300 H   0  0  0  0  0  0  0  0  0  0  0  0
   62.0074   35.2438   49.7633 H   0  0  0  0  0  0  0  0  0  0  0  0
   60.8564   33.8647   49.7633 H   0  0  0  0  0  0  0  0  0  0  0  0
   63.4740   33.8085   48.8042 H   0  0  0  0  0  0  0  0  0  0  0  0
   63.5922   33.0734   50.4774 H   0  0  0  0  0  0  0  0  0  0  0  0
   63.7514   30.9366   47.8118 H   0  0  0  0  0  0  0  0  0  0  0  0
   62.0828   31.2315   47.1762 H   0  0  0  0  0  0  0  0  0  0  0  0
   63.7156   33.6677   47.7374 H   0  0  0  0  0  0  0  0  0  0  0  0
   64.2770   32.6418   46.3740 H   0  0  0  0  0  0  0  0  0  0  0  0
   62.6055   33.2996   46.3740 H   0  0  0  0  0  0  0  0  0  0  0  0
   62.5511   29.9173   49.5372 H   0  0  0  0  0  0  0  0  0  0  0  0
   63.6741   30.9500   50.4900 H   0  0  0  0  0  0  0  0  0  0  0  0
   62.0824   30.5980   52.1237 H   0  0  0  0  0  0  0  0  0  0  0  0
   61.3155   32.0077   51.3137 H   0  0  0  0  0  0  0  0  0  0  0  0
   58.5519   30.2757   51.4967 H   0  0  0  0  0  0  0  0  0  0  0  0
   59.5115   31.7940   51.6297 H   0  0  0  0  0  0  0  0  0  0  0  0
   57.8231   30.8821   49.4501 H   0  0  0  0  0  0  0  0  0  0  0  0
   58.7040   32.4510   49.6458 H   0  0  0  0  0  0  0  0  0  0  0  0
   60.7160   30.7460   48.8300 H   0  0  0  0  0  0  0  0  0  0  0  0
   60.3180   33.3861   48.4937 H   0  0  0  0  0  0  0  0  0  0  0  0
   60.3018   35.7189   47.6316 H   0  0  0  0  0  0  0  0  0  0  0  0
   59.4146   36.2029   45.3588 H   0  0  0  0  0  0  0  0  0  0  0  0
   58.4959   34.3688   43.9566 H   0  0  0  0  0  0  0  0  0  0  0  0
   56.4405   32.4611   43.9124 H   0  0  0  0  0  0  0  0  0  0  0  0
   57.8863   32.8890   42.9361 H   0  0  0  0  0  0  0  0  0  0  0  0
   57.2698   31.2018   42.9361 H   0  0  0  0  0  0  0  0  0  0  0  0
   57.8588   29.6592   43.1388 H   0  0  0  0  0  0  0  0  0  0  0  0
   57.8257   26.0884   44.0609 H   0  0  0  0  0  0  0  0  0  0  0  0
   57.2792   27.3213   42.8744 H   0  0  0  0  0  0  0  0  0  0  0  0
   58.9890   26.7707   42.8744 H   0  0  0  0  0  0  0  0  0  0  0  0
   59.1112   26.7151   46.0147 H   0  0  0  0  0  0  0  0  0  0  0  0
  1  2  1  0
  2  3  1  0
  3  4  1  0
  4  5  1  0
  3  6  1  0
  6  7  1  0
  7  8  1  0
  8  9  1  0
  9 10  1  0
 10 11  1  0
 11 12  1  0
 12 13  2  0
 13 14  1  0
 14 15  2  0
 15 16  1  0
 16 17  2  0
 17 18  1  0
 18 19  2  0
 19 20  1  0
 19 21  1  0
 21 22  2  0
 22 23  1  0
 23 24  1  0
 23 25  2  0
 25 26  1  0
 26 27  1  0
 26 28  2  0
 28 12  1  0
 18 13  1  0
 28 21  1  0
  1 29  1  0
  1 30  1  0
  1 31  1  0
  2 32  1  0
  2 33  1  0
  4 34  1  0
  4 35  1  0
  5 36  1  0
  5 37  1  0
  5 38  1  0
  6 39  1  0
  6 40  1  0
  7 41  1  0
  7 42  1  0
  9 43  1  0
  9 44  1  0
 10 45  1  0
 10 46  1  0
 11 47  1  0
 14 48  1  0
 15 49  1  0
 16 50  1  0
 17 51  1  0
 20 52  1  0
 20 53  1  0
 20 54  1  0
 22 55  1  0
 24 56  1  0
 24 57  1  0
 24 58  1  0
 25 59  1  0
M  CHG  1  19   1
M  END
>  <UniqueID>  (21) 
21

>  <SMILES>  (21) 
CCN(CC)CCOCCNc1c2ccccc2[n+](C)c2cc(C)cc(Br)c12

>  <Energy>  (21) 
94.0553378820811

>  <Genealogy>  (21) 
CCN(CC)CCOCCNc1c2ccccc2[n+](C)c2cc(C)cc(Br)c12 (3D coordinates assigned)
CCN(CC)CCOCCNc1c2ccccc2[n+](C)c2cc(C)cc(Br)c12 (optimized conformer: 94.0553378820811 kcal/mol)

>  <smiles>  (21) 
CCN(CC)CCOCCNc1c2ccccc2[n+](C)c2cc(C)cc(Br)c12

>  <score_type>  (21) 
oracle

>  <origin>  (21) 
adg

>  <m_score__min__energy>  (21) 
-6.4500000000000002

>  <m_primary>  (21) 
energy

$$$$
21:0
     RDKit          3D

 52 54  0  0  0  0  0  0  0  0999 V2000
   58.3940   32.4760   41.1440 C   0  0  0  0  0  0  0  0  0  0  0  0
   57.0560   31.9350   41.6330 C   0  0  0  0  0  0  0  0  0  0  0  0
   57.2510   30.9510   42.6470 O   0  0  0  0  0  0  0  0  0  0  0  0
   56.8850   31.1380   43.9860 C   0  0  0  0  0  0  0  0  0  0  0  0
   55.9560   30.4490   44.4910 O   0  0  0  0  0  0  0  0  0  0  0  0
   57.5870   32.1510   44.8050 C   0  0  0  0  0  0  0  0  0  0  0  0
   57.7530   31.9660   46.1890 C   0  0  0  0  0  0  0  0  0  0  0  0
   58.4170   32.9250   46.9590 C   0  0  0  0  0  0  0  0  0  0  0  0
   58.9300   34.0850   46.3590 C   0  0  0  0  0  0  0  0  0  0  0  0
   59.6540   35.1250   47.1850 C   0  0  0  0  0  0  0  0  0  0  0  0
   60.8150   34.5540   47.9140 N   0  0  0  0  0  0  0  0  0  0  0  0
   60.3310   33.7670   49.0810 C   0  0  0  0  0  0  0  0  0  0  0  0
   61.3830   32.7540   49.5540 C   0  0  0  0  0  0  0  0  0  0  0  0
   61.7270   31.7820   48.4910 N   0  0  0  0  0  0  0  0  0  0  0  0
   61.2510   30.4010   48.7400 C   0  0  0  0  0  0  0  0  0  0  0  0
   60.4930   29.7920   47.5760 C   0  0  0  0  0  0  0  0  0  0  0  0
   59.1460   29.4160   47.7130 C   0  0  0  0  0  0  0  0  0  0  0  0
   58.4520   28.8630   46.6340 C   0  0  0  0  0  0  0  0  0  0  0  0
   59.1000   28.6620   45.4110 C   0  0  0  0  0  0  0  0  0  0  0  0
   58.1490   27.9070   43.9380 Br  0  0  0  0  0  0  0  0  0  0  0  0
   60.4460   29.0070   45.2720 C   0  0  0  0  0  0  0  0  0  0  0  0
   61.1440   29.5610   46.3500 C   0  0  0  0  0  0  0  0  0  0  0  0
   61.4640   32.2600   47.1150 C   0  0  0  0  0  0  0  0  0  0  0  0
   61.7100   33.7720   47.0120 C   0  0  0  0  0  0  0  0  0  0  0  0
   58.7600   34.2750   44.9790 C   0  0  0  0  0  0  0  0  0  0  0  0
   58.0960   33.3170   44.2090 C   0  0  0  0  0  0  0  0  0  0  0  0
   59.0245   32.7309   42.0086 H   0  0  0  0  0  0  0  0  0  0  0  0
   58.8984   31.7111   40.5352 H   0  0  0  0  0  0  0  0  0  0  0  0
   58.2250   33.3765   40.5352 H   0  0  0  0  0  0  0  0  0  0  0  0
   56.4597   32.7633   42.0433 H   0  0  0  0  0  0  0  0  0  0  0  0
   56.5309   31.4705   40.7853 H   0  0  0  0  0  0  0  0  0  0  0  0
   57.3571   31.0592   46.6696 H   0  0  0  0  0  0  0  0  0  0  0  0
   58.5381   32.7695   48.0412 H   0  0  0  0  0  0  0  0  0  0  0  0
   60.0125   35.9216   46.5165 H   0  0  0  0  0  0  0  0  0  0  0  0
   58.9464   35.5163   47.9307 H   0  0  0  0  0  0  0  0  0  0  0  0
   61.3780   35.3490   48.3030 H   0  0  0  0  0  0  0  0  0  0  0  0
   60.1027   34.4567   49.9069 H   0  0  0  0  0  0  0  0  0  0  0  0
   59.4325   33.2121   48.7733 H   0  0  0  0  0  0  0  0  0  0  0  0
   62.2933   33.2970   49.8482 H   0  0  0  0  0  0  0  0  0  0  0  0
   60.9631   32.1966   50.4043 H   0  0  0  0  0  0  0  0  0  0  0  0
   62.1242   29.7672   48.9540 H   0  0  0  0  0  0  0  0  0  0  0  0
   60.5490   30.4532   49.5853 H   0  0  0  0  0  0  0  0  0  0  0  0
   58.6345   29.5581   48.6764 H   0  0  0  0  0  0  0  0  0  0  0  0
   57.3937   28.5851   46.7465 H   0  0  0  0  0  0  0  0  0  0  0  0
   60.9584   28.8427   44.3126 H   0  0  0  0  0  0  0  0  0  0  0  0
   62.2079   29.8176   46.2388 H   0  0  0  0  0  0  0  0  0  0  0  0
   62.1331   31.7364   46.4163 H   0  0  0  0  0  0  0  0  0  0  0  0
   60.4134   32.0536   46.8626 H   0  0  0  0  0  0  0  0  0  0  0  0
   62.7554   33.9797   47.2841 H   0  0  0  0  0  0  0  0  0  0  0  0
   61.4958   34.0781   45.9774 H   0  0  0  0  0  0  0  0  0  0  0  0
   59.1522   35.1844   44.5004 H   0  0  0  0  0  0  0  0  0  0  0  0
   57.9707   33.4768   43.1279 H   0  0  0  0  0  0  0  0  0  0  0  0
  1  2  1  0
  2  3  1  0
  3  4  1  0
  4  5  2  0
  4  6  1  0
  6  7  2  0
  7  8  1  0
  8  9  2  0
  9 10  1  0
 10 11  1  0
 11 12  1  0
 12 13  1  0
 13 14  1  0
 14 15  1  0
 15 16  1  0
 16 17  2  0
 17 18  1  0
 18 19  2  0
 19 20  1  0
 19 21  1  0
 21 22  2  0
 14 23  1  0
 23 24  1  0
  9 25  1  0
 25 26  2  0
 26  6  1  0
 24 11  1  0
 22 16  1  0
  1 27  1  0
  1 28  1  0
  1 29  1  0
  2 30  1  0
  2 31  1  0
  7 32  1  0
  8 33  1  0
 10 34  1  0
 10 35  1  0
 11 36  1  0
 12 37  1  0
 12 38  1  0
 13 39  1  0
 13 40  1  0
 15 41  1  0
 15 42  1  0
 17 43  1  0
 18 44  1  0
 21 45  1  0
 22 46  1  0
 23 47  1  0
 23 48  1  0
 24 49  1  0
 24 50  1  0
 25 51  1  0
 26 52  1  0
M  CHG  1  11   1
M  END
>  <UniqueID>  (22) 
22

>  <SMILES>  (22) 
CCOC(=O)c1ccc(C[NH+]2CCN(Cc3ccc(Br)cc3)CC2)cc1

>  <Energy>  (22) 
65.67943114995991

>  <Genealogy>  (22) 
CCOC(=O)c1ccc(C[NH+]2CCN(Cc3ccc(Br)cc3)CC2)cc1 (protonated)
CCOC(=O)c1ccc(C[NH+]2CCN(Cc3ccc(Br)cc3)CC2)cc1 (3D coordinates assigned)
CCOC(=O)c1ccc(C[NH+]2CCN(Cc3ccc(Br)cc3)CC2)cc1 (nonaromatic ring conformer: 65.67943114995991 kcal/mol)

>  <smiles>  (22) 
CCOC(=O)c1ccc(CN2CCN(Cc3ccc(Br)cc3)CC2)cc1

>  <score_type>  (22) 
oracle

>  <origin>  (22) 
adg

>  <m_score__min__energy>  (22) 
-6.46

>  <m_primary>  (22) 
energy

$$$$
22:0
     RDKit          3D

 54 55  0  0  0  0  0  0  0  0999 V2000
   58.1320   34.4580   44.8980 C   0  0  0  0  0  0  0  0  0  0  0  0
   57.8390   33.3860   45.9540 C   0  0  0  0  0  0  0  0  0  0  0  0
   59.0760   32.8940   46.6160 N   0  0  0  0  0  0  0  0  0  0  0  0
   60.3460   33.5390   46.1650 C   0  0  0  0  0  0  0  0  0  0  0  0
   61.4090   33.7680   47.2560 C   0  0  0  0  0  0  0  0  0  0  0  0
   58.9400   32.8280   48.0950 C   0  0  0  0  0  0  0  0  0  0  0  0
   58.8560   31.4020   48.6710 C   0  0  0  0  0  0  0  0  0  0  0  0
   60.1050   30.5900   48.3100 C   0  0  0  0  0  0  0  0  0  0  0  0
   59.9310   29.9330   47.0540 O   0  0  0  0  0  0  0  0  0  0  0  0
   59.0540   28.8640   46.7950 C   0  0  0  0  0  0  0  0  0  0  0  0
   59.1750   27.6320   47.4720 C   0  0  0  0  0  0  0  0  0  0  0  0
   58.2910   26.5860   47.2110 C   0  0  0  0  0  0  0  0  0  0  0  0
   57.2720   26.7440   46.2700 C   0  0  0  0  0  0  0  0  0  0  0  0
   56.1440   25.4250   45.9640 S   0  0  0  0  0  0  0  0  0  0  0  0
   54.7810   25.9940   45.6860 O   0  0  0  0  0  0  0  0  0  0  0  0
   56.0530   24.5440   47.1800 O   0  0  0  0  0  0  0  0  0  0  0  0
   56.6860   24.5100   44.5790 N   0  0  0  0  0  0  0  0  0  0  0  0
   57.7390   23.5650   44.9450 C   0  0  0  0  0  0  0  0  0  0  0  0
   57.6580   22.4190   43.9480 C   0  0  0  0  0  0  0  0  0  0  0  0
   56.2650   22.5070   43.3450 C   0  0  0  0  0  0  0  0  0  0  0  0
   55.6060   23.6960   44.0250 C   0  0  0  0  0  0  0  0  0  0  0  0
   57.1320   27.9620   45.5990 C   0  0  0  0  0  0  0  0  0  0  0  0
   58.0150   29.0320   45.8450 C   0  0  0  0  0  0  0  0  0  0  0  0
   57.8390   30.2710   45.1250 N   0  0  0  0  0  0  0  0  0  0  0  0
   58.8160   30.9130   44.6880 O   0  0  0  0  0  0  0  0  0  0  0  0
   56.5740   30.7560   44.8750 O   0  0  0  0  0  0  0  0  0  0  0  0
   58.3904   35.4035   45.3972 H   0  0  0  0  0  0  0  0  0  0  0  0
   58.9743   34.1331   44.2695 H   0  0  0  0  0  0  0  0  0  0  0  0
   57.2415   34.6066   44.2695 H   0  0  0  0  0  0  0  0  0  0  0  0
   57.1750   33.8149   46.7189 H   0  0  0  0  0  0  0  0  0  0  0  0
   57.3669   32.5325   45.4455 H   0  0  0  0  0  0  0  0  0  0  0  0
   59.1670   31.8870   46.3360 H   0  0  0  0  0  0  0  0  0  0  0  0
   60.7918   32.8992   45.3892 H   0  0  0  0  0  0  0  0  0  0  0  0
   60.0616   34.5411   45.8117 H   0  0  0  0  0  0  0  0  0  0  0  0
   60.9440   33.6678   48.2478 H   0  0  0  0  0  0  0  0  0  0  0  0
   62.2102   33.0219   47.1496 H   0  0  0  0  0  0  0  0  0  0  0  0
   61.8319   34.7779   47.1496 H   0  0  0  0  0  0  0  0  0  0  0  0
   59.8125   33.3271   48.5418 H   0  0  0  0  0  0  0  0  0  0  0  0
   57.9870   33.3190   48.3414 H   0  0  0  0  0  0  0  0  0  0  0  0
   58.7691   31.4608   49.7660 H   0  0  0  0  0  0  0  0  0  0  0  0
   57.9759   30.9014   48.2412 H   0  0  0  0  0  0  0  0  0  0  0  0
   60.9704   31.2662   48.2476 H   0  0  0  0  0  0  0  0  0  0  0  0
   60.2715   29.8303   49.0879 H   0  0  0  0  0  0  0  0  0  0  0  0
   59.9756   27.4953   48.2139 H   0  0  0  0  0  0  0  0  0  0  0  0
   58.3969   25.6323   47.7488 H   0  0  0  0  0  0  0  0  0  0  0  0
   58.7237   24.0516   44.8851 H   0  0  0  0  0  0  0  0  0  0  0  0
   57.6087   23.2046   45.9761 H   0  0  0  0  0  0  0  0  0  0  0  0
   58.4237   22.5337   43.1666 H   0  0  0  0  0  0  0  0  0  0  0  0
   57.8354   21.4454   44.4282 H   0  0  0  0  0  0  0  0  0  0  0  0
   56.3253   22.6695   42.2587 H   0  0  0  0  0  0  0  0  0  0  0  0
   55.6935   21.5796   43.4977 H   0  0  0  0  0  0  0  0  0  0  0  0
   55.0277   24.2794   43.2934 H   0  0  0  0  0  0  0  0  0  0  0  0
   54.9114   23.3684   44.8126 H   0  0  0  0  0  0  0  0  0  0  0  0
   56.3200   28.0872   44.8676 H   0  0  0  0  0  0  0  0  0  0  0  0
  1  2  1  0
  2  3  1  0
  3  4  1  0
  4  5  1  0
  3  6  1  0
  6  7  1  0
  7  8  1  0
  8  9  1  0
  9 10  1  0
 10 11  2  0
 11 12  1  0
 12 13  2  0
 13 14  1  0
 14 15  2  0
 14 16  2  0
 14 17  1  0
 17 18  1  0
 18 19  1  0
 19 20  1  0
 20 21  1  0
 13 22  1  0
 22 23  2  0
 23 24  1  0
 24 25  2  0
 24 26  1  0
 23 10  1  0
 21 17  1  0
  1 27  1  0
  1 28  1  0
  1 29  1  0
  2 30  1  0
  2 31  1  0
  3 32  1  0
  4 33  1  0
  4 34  1  0
  5 35  1  0
  5 36  1  0
  5 37  1  0
  6 38  1  0
  6 39  1  0
  7 40  1  0
  7 41  1  0
  8 42  1  0
  8 43  1  0
 11 44  1  0
 12 45  1  0
 18 46  1  0
 18 47  1  0
 19 48  1  0
 19 49  1  0
 20 50  1  0
 20 51  1  0
 21 52  1  0
 21 53  1  0
 22 54  1  0
M  CHG  3   3   1  24   1  26  -1
M  END
>  <UniqueID>  (23) 
23

>  <SMILES>  (23) 
CC[NH+](CC)CCCOc1ccc(S(=O)(=O)N2CCCC2)cc1[N+](=O)[O-]

>  <Energy>  (23) 
60.52563172635962

>  <Genealogy>  (23) 
CC[NH+](CC)CCCOc1ccc(S(=O)(=O)N2CCCC2)cc1[N+](=O)[O-] (protonated)
CC[NH+](CC)CCCOc1ccc(S(=O)(=O)N2CCCC2)cc1[N+](=O)[O-] (3D coordinates assigned)
CC[NH+](CC)CCCOc1ccc(S(=O)(=O)N2CCCC2)cc1[N+](=O)[O-] (nonaromatic ring conformer: 60.52563172635962 kcal/mol)

>  <smiles>  (23) 
CCN(CC)CCCOc1ccc(S(=O)(=O)N2CCCC2)cc1[N+](=O)[O-]

>  <score_type>  (23) 
oracle

>  <origin>  (23) 
adg

>  <m_score__min__energy>  (23) 
-6.1699999999999999

>  <m_primary>  (23) 
energy

$$$$
23:0
     RDKit          3D

 43 45  0  0  1  0  0  0  0  0999 V2000
   67.0810   33.0980   50.1330 C   0  0  0  0  0  0  0  0  0  0  0  0
   65.6370   32.9470   50.4670 C   0  0  0  0  0  0  0  0  0  0  0  0
   64.9770   32.2510   49.3680 N   0  0  0  0  0  0  0  0  0  0  0  0
   63.9640   32.7330   48.7300 C   0  0  0  0  0  0  0  0  0  0  0  0
   63.9950   32.7520   47.3510 C   0  0  0  0  0  0  0  0  0  0  0  0
   62.8880   33.2770   46.7150 C   0  0  0  0  0  0  0  0  0  0  0  0
   61.8400   33.7430   47.4310 N   0  0  0  0  0  0  0  0  0  0  0  0
   61.8240   33.7180   48.7860 C   0  0  0  0  0  0  0  0  0  0  0  0
   62.9160   33.2000   49.4310 N   0  0  0  0  0  0  0  0  0  0  0  0
   60.8520   34.1490   49.7950 C   0  0  0  0  0  0  0  0  0  0  0  0
   59.4100   33.8620   49.4600 C   0  0  0  0  0  0  0  0  0  0  0  0
   59.0830   33.6120   48.1420 N   0  0  0  0  0  0  0  0  0  0  0  0
   58.0860   32.7670   47.6850 C   0  0  0  0  0  0  0  0  0  0  0  0
   58.2420   32.0990   46.3800 C   0  0  0  0  0  0  0  0  0  0  0  0
   57.8220   32.5870   45.1730 C   0  0  0  0  0  0  0  0  0  0  0  0
   57.1190   34.1650   45.0000 Cl  0  0  0  0  0  0  0  0  0  0  0  0
   57.9910   31.8290   44.0330 C   0  0  0  0  0  0  0  0  0  0  0  0
   58.5740   30.5790   44.0390 C   0  0  0  0  0  0  0  0  0  0  0  0
   59.0020   30.0810   45.2580 C   0  0  0  0  0  0  0  0  0  0  0  0
   58.8380   30.8300   46.4050 C   0  0  0  0  0  0  0  0  0  0  0  0
   59.4030   30.1430   47.9360 Cl  0  0  0  0  0  0  0  0  0  0  0  0
   59.5540   34.6220   47.2350 C   0  0  0  0  0  0  0  0  0  0  0  0
   60.8310   34.2310   46.5320 C   0  0  0  0  0  0  0  0  0  0  0  0
   67.6676   33.1593   51.0615 H   0  0  0  0  0  0  0  0  0  0  0  0
   67.4142   32.2298   49.5454 H   0  0  0  0  0  0  0  0  0  0  0  0
   67.2274   34.0163   49.5454 H   0  0  0  0  0  0  0  0  0  0  0  0
   65.5296   32.3635   51.3933 H   0  0  0  0  0  0  0  0  0  0  0  0
   65.1794   33.9363   50.6150 H   0  0  0  0  0  0  0  0  0  0  0  0
   64.8579   32.3683   46.7869 H   0  0  0  0  0  0  0  0  0  0  0  0
   62.8582   33.3166   45.6161 H   0  0  0  0  0  0  0  0  0  0  0  0
   61.0908   33.6365   50.7386 H   0  0  0  0  0  0  0  0  0  0  0  0
   60.9396   35.2438   49.8557 H   0  0  0  0  0  0  0  0  0  0  0  0
   59.1092   32.9794   50.0436 H   0  0  0  0  0  0  0  0  0  0  0  0
   58.8837   34.7981   49.6982 H   0  0  0  0  0  0  0  0  0  0  0  0
   57.9685   31.9740   48.4383 H   0  0  0  0  0  0  0  0  0  0  0  0
   57.2288   33.4388   47.5304 H   0  0  0  0  0  0  0  0  0  0  0  0
   57.6444   32.2409   43.0737 H   0  0  0  0  0  0  0  0  0  0  0  0
   58.6943   30.0002   43.1114 H   0  0  0  0  0  0  0  0  0  0  0  0
   59.4727   29.0883   45.3119 H   0  0  0  0  0  0  0  0  0  0  0  0
   58.7774   34.8029   46.4772 H   0  0  0  0  0  0  0  0  0  0  0  0
   59.7663   35.5243   47.8272 H   0  0  0  0  0  0  0  0  0  0  0  0
   60.6013   33.4416   45.8012 H   0  0  0  0  0  0  0  0  0  0  0  0
   61.2304   35.1347   46.0484 H   0  0  0  0  0  0  0  0  0  0  0  0
  1  2  1  0
  2  3  1  0
  3  4  2  0
  4  5  1  0
  5  6  2  0
  6  7  1  0
  7  8  1  0
  8  9  2  0
  8 10  1  0
 10 11  1  0
 11 12  1  0
 12 13  1  0
 13 14  1  0
 14 15  2  0
 15 16  1  0
 15 17  1  0
 17 18  2  0
 18 19  1  0
 19 20  2  0
 20 21  1  0
 12 22  1  0
 22 23  1  0
  9  4  1  0
 20 14  1  0
 23  7  1  0
  1 24  1  0
  1 25  1  0
  1 26  1  0
  2 27  1  0
  2 28  1  0
  5 29  1  0
  6 30  1  0
 10 31  1  0
 10 32  1  0
 11 33  1  0
 11 34  1  0
 13 35  1  0
 13 36  1  0
 17 37  1  0
 18 38  1  0
 19 39  1  0
 22 40  1  0
 22 41  1  0
 23 42  1  0
 23 43  1  0
M  END
>  <smiles>  (24) 
CCN=c1ccn2c(n1)CCN(Cc1c(Cl)cccc1Cl)CC2

>  <score_type>  (24) 
oracle

>  <origin>  (24) 
adg

>  <m_score__min__energy>  (24) 
-5.9299999999999997

>  <m_primary>  (24) 
energy

$$$$
24:0
     RDKit          3D

 44 46  0  0  0  0  0  0  0  0999 V2000
   57.8440   26.5760   42.6430 C   0  0  0  0  0  0  0  0  0  0  0  0
   57.8860   27.8770   43.3870 C   0  0  0  0  0  0  0  0  0  0  0  0
   57.0220   28.9220   43.0320 C   0  0  0  0  0  0  0  0  0  0  0  0
   57.0860   30.1490   43.7000 C   0  0  0  0  0  0  0  0  0  0  0  0
   58.0250   30.3570   44.7270 C   0  0  0  0  0  0  0  0  0  0  0  0
   58.0920   31.6240   45.4180 N   0  0  0  0  0  0  0  0  0  0  0  0
   58.8350   31.7540   46.6780 C   0  0  0  0  0  0  0  0  0  0  0  0
   58.2230   32.8730   47.5320 C   0  0  0  0  0  0  0  0  0  0  0  0
   58.1740   34.1900   46.8300 N   0  0  0  0  0  0  0  0  0  0  0  0
   59.2910   35.0760   47.2420 C   0  0  0  0  0  0  0  0  0  0  0  0
   60.2870   34.3660   48.1290 C   0  0  0  0  0  0  0  0  0  0  0  0
   60.1450   34.2170   49.4970 C   0  0  0  0  0  0  0  0  0  0  0  0
   61.2720   33.5520   49.9320 C   0  0  0  0  0  0  0  0  0  0  0  0
   61.6610   33.0790   51.7410 Br  0  0  0  0  0  0  0  0  0  0  0  0
   62.0600   33.3240   48.8220 C   0  0  0  0  0  0  0  0  0  0  0  0
   63.7770   32.4700   48.8560 Br  0  0  0  0  0  0  0  0  0  0  0  0
   61.4520   33.8120   47.7190 N   0  0  0  0  0  0  0  0  0  0  0  0
   61.9990   33.8320   46.3610 C   0  0  0  0  0  0  0  0  0  0  0  0
   58.1500   34.0800   45.3460 C   0  0  0  0  0  0  0  0  0  0  0  0
   57.4340   32.8140   44.8620 C   0  0  0  0  0  0  0  0  0  0  0  0
   58.9010   29.3100   45.0660 C   0  0  0  0  0  0  0  0  0  0  0  0
   58.8360   28.0840   44.3970 C   0  0  0  0  0  0  0  0  0  0  0  0
   57.8171   25.7435   43.3614 H   0  0  0  0  0  0  0  0  0  0  0  0
   56.9444   26.5440   42.0109 H   0  0  0  0  0  0  0  0  0  0  0  0
   58.7397   26.4860   42.0109 H   0  0  0  0  0  0  0  0  0  0  0  0
   56.2900   28.7763   42.2240 H   0  0  0  0  0  0  0  0  0  0  0  0
   56.3961   30.9587   43.4200 H   0  0  0  0  0  0  0  0  0  0  0  0
   58.7848   30.8043   47.2308 H   0  0  0  0  0  0  0  0  0  0  0  0
   59.8840   32.0000   46.4563 H   0  0  0  0  0  0  0  0  0  0  0  0
   57.1972   32.5837   47.8041 H   0  0  0  0  0  0  0  0  0  0  0  0
   58.8658   32.9979   48.4159 H   0  0  0  0  0  0  0  0  0  0  0  0
   57.2770   34.6570   47.1070 H   0  0  0  0  0  0  0  0  0  0  0  0
   59.8109   35.4326   46.3406 H   0  0  0  0  0  0  0  0  0  0  0  0
   58.8643   35.9118   47.8159 H   0  0  0  0  0  0  0  0  0  0  0  0
   59.3017   34.5603   50.1143 H   0  0  0  0  0  0  0  0  0  0  0  0
   63.0972   33.8722   46.4086 H   0  0  0  0  0  0  0  0  0  0  0  0
   61.6882   32.9219   45.8271 H   0  0  0  0  0  0  0  0  0  0  0  0
   61.6225   34.7170   45.8271 H   0  0  0  0  0  0  0  0  0  0  0  0
   57.6297   34.9581   44.9357 H   0  0  0  0  0  0  0  0  0  0  0  0
   59.1922   34.0278   44.9981 H   0  0  0  0  0  0  0  0  0  0  0  0
   56.3852   32.8390   45.1929 H   0  0  0  0  0  0  0  0  0  0  0  0
   57.4764   32.7714   43.7636 H   0  0  0  0  0  0  0  0  0  0  0  0
   59.6435   29.4570   45.8642 H   0  0  0  0  0  0  0  0  0  0  0  0
   59.5342   27.2773   44.6647 H   0  0  0  0  0  0  0  0  0  0  0  0
  1  2  1  0
  2  3  2  0
  3  4  1  0
  4  5  2  0
  5  6  1  0
  6  7  1  0
  7  8  1  0
  8  9  1  0
  9 10  1  0
 10 11  1  0
 11 12  2  0
 12 13  1  0
 13 14  1  0
 13 15  2  0
 15 16  1  0
 15 17  1  0
 17 18  1  0
  9 19  1  0
 19 20  1  0
  5 21  1  0
 21 22  2  0
 22  2  1  0
 20  6  1  0
 17 11  1  0
  1 23  1  0
  1 24  1  0
  1 25  1  0
  3 26  1  0
  4 27  1  0
  7 28  1  0
  7 29  1  0
  8 30  1  0
  8 31  1  0
  9 32  1  0
 10 33  1  0
 10 34  1  0
 12 35  1  0
 18 36  1  0
 18 37  1  0
 18 38  1  0
 19 39  1  0
 19 40  1  0
 20 41  1  0
 20 42  1  0
 21 43  1  0
 22 44  1  0
M  CHG  1   9   1
M  END
>  <UniqueID>  (25) 
24

>  <SMILES>  (25) 
Cc1ccc(N2CC[NH+](Cc3cc(Br)c(Br)n3C)CC2)cc1

>  <Energy>  (25) 
82.07805247655398

>  <Genealogy>  (25) 
Cc1ccc(N2CC[NH+](Cc3cc(Br)c(Br)n3C)CC2)cc1 (protonated)
Cc1ccc(N2CC[NH+](Cc3cc(Br)c(Br)n3C)CC2)cc1 (3D coordinates assigned)
Cc1ccc(N2CC[NH+](Cc3cc(Br)c(Br)n3C)CC2)cc1 (nonaromatic ring conformer: 82.07805247655398 kcal/mol)

>  <smiles>  (25) 
Cc1ccc(N2CCN(Cc3cc(Br)c(Br)n3C)CC2)cc1

>  <score_type>  (25) 
oracle

>  <origin>  (25) 
adg

>  <m_score__min__energy>  (25) 
-5.9699999999999998

>  <m_primary>  (25) 
energy

$$$$
25:0
     RDKit          3D

 39 41  0  0  0  0  0  0  0  0999 V2000
   59.6180   34.5730   48.5540 C   0  0  0  0  0  0  0  0  0  0  0  0
   59.6380   35.0810   46.8060 S   0  0  0  0  0  0  0  0  0  0  0  0
   59.1830   33.4410   46.1920 C   0  0  0  0  0  0  0  0  0  0  0  0
   57.9860   33.2600   45.4680 C   0  0  0  0  0  0  0  0  0  0  0  0
   57.0340   34.4030   45.2360 C   0  0  0  0  0  0  0  0  0  0  0  0
   57.6960   32.0030   44.9180 C   0  0  0  0  0  0  0  0  0  0  0  0
   58.5750   30.9340   45.1170 C   0  0  0  0  0  0  0  0  0  0  0  0
   58.3240   29.6020   44.5300 C   0  0  0  0  0  0  0  0  0  0  0  0
   59.1270   28.4910   44.7290 C   0  0  0  0  0  0  0  0  0  0  0  0
   58.5120   27.4760   44.0220 C   0  0  0  0  0  0  0  0  0  0  0  0
   57.3950   27.9600   43.4480 N   0  0  0  0  0  0  0  0  0  0  0  0
   57.2680   29.2390   43.7640 N   0  0  0  0  0  0  0  0  0  0  0  0
   56.1280   30.0560   43.3550 C   0  0  0  0  0  0  0  0  0  0  0  0
   59.7190   31.1340   45.8220 N   0  0  0  0  0  0  0  0  0  0  0  0
   60.0420   32.3330   46.3780 C   0  0  0  0  0  0  0  0  0  0  0  0
   61.3070   32.4300   47.1340 C   0  0  0  0  0  0  0  0  0  0  0  0
   62.2940   33.3430   46.7270 C   0  0  0  0  0  0  0  0  0  0  0  0
   63.5050   33.4270   47.4200 C   0  0  0  0  0  0  0  0  0  0  0  0
   63.7460   32.5910   48.5140 C   0  0  0  0  0  0  0  0  0  0  0  0
   64.9220   32.6730   49.1840 F   0  0  0  0  0  0  0  0  0  0  0  0
   62.7790   31.6640   48.9110 C   0  0  0  0  0  0  0  0  0  0  0  0
   61.5660   31.5770   48.2200 C   0  0  0  0  0  0  0  0  0  0  0  0
   59.6531   35.4657   49.1957 H   0  0  0  0  0  0  0  0  0  0  0  0
   58.6969   34.0085   48.7613 H   0  0  0  0  0  0  0  0  0  0  0  0
   60.4918   33.9378   48.7613 H   0  0  0  0  0  0  0  0  0  0  0  0
   56.6999   34.8042   46.2042 H   0  0  0  0  0  0  0  0  0  0  0  0
   57.5434   35.1948   44.6671 H   0  0  0  0  0  0  0  0  0  0  0  0
   56.1632   34.0452   44.6671 H   0  0  0  0  0  0  0  0  0  0  0  0
   56.7775   31.8581   44.3303 H   0  0  0  0  0  0  0  0  0  0  0  0
   60.0523   28.4302   45.3207 H   0  0  0  0  0  0  0  0  0  0  0  0
   58.8758   26.4411   43.9413 H   0  0  0  0  0  0  0  0  0  0  0  0
   56.7210   27.4160   42.8650 H   0  0  0  0  0  0  0  0  0  0  0  0
   55.6059   30.4302   44.2480 H   0  0  0  0  0  0  0  0  0  0  0  0
   56.4831   30.9065   42.7545 H   0  0  0  0  0  0  0  0  0  0  0  0
   55.4367   29.4465   42.7545 H   0  0  0  0  0  0  0  0  0  0  0  0
   62.1131   33.9945   45.8594 H   0  0  0  0  0  0  0  0  0  0  0  0
   64.2695   34.1521   47.1040 H   0  0  0  0  0  0  0  0  0  0  0  0
   62.9718   31.0018   49.7679 H   0  0  0  0  0  0  0  0  0  0  0  0
   60.8118   30.8378   48.5280 H   0  0  0  0  0  0  0  0  0  0  0  0
  1  2  1  0
  2  3  1  0
  3  4  2  0
  4  5  1  0
  4  6  1  0
  6  7  2  0
  7  8  1  0
  8  9  2  0
  9 10  1  0
 10 11  2  0
 11 12  1  0
 12 13  1  0
  7 14  1  0
 14 15  2  0
 15 16  1  0
 16 17  2  0
 17 18  1  0
 18 19  2  0
 19 20  1  0
 19 21  1  0
 21 22  2  0
 15  3  1  0
 22 16  1  0
 12  8  1  0
  1 23  1  0
  1 24  1  0
  1 25  1  0
  5 26  1  0
  5 27  1  0
  5 28  1  0
  6 29  1  0
  9 30  1  0
 10 31  1  0
 11 32  1  0
 13 33  1  0
 13 34  1  0
 13 35  1  0
 17 36  1  0
 18 37  1  0
 21 38  1  0
 22 39  1  0
M  CHG  1  11   1
M  END
>  <UniqueID>  (26) 
25

>  <SMILES>  (26) 
CSc1c(C)cc(-c2cc[nH+]n2C)nc1-c1ccc(F)cc1

>  <Energy>  (26) 
78.95118169942805

>  <Genealogy>  (26) 
CSc1c(C)cc(-c2cc[nH+]n2C)nc1-c1ccc(F)cc1 (protonated)
CSc1c(C)cc(-c2cc[nH+]n2C)nc1-c1ccc(F)cc1 (3D coordinates assigned)
CSc1c(C)cc(-c2cc[nH+]n2C)nc1-c1ccc(F)cc1 (optimized conformer: 78.95118169942805 kcal/mol)

>  <smiles>  (26) 
CSc1c(C)cc(-c2ccnn2C)nc1-c1ccc(F)cc1

>  <score_type>  (26) 
oracle

>  <origin>  (26) 
adg

>  <m_score__min__energy>  (26) 
-7.0499999999999998

>  <m_primary>  (26) 
energy

$$$$
26:0
     RDKit          3D

 53 55  0  0  0  0  0  0  0  0999 V2000
   56.4960   30.1720   43.8640 C   0  0  0  0  0  0  0  0  0  0  0  0
   57.4080   31.3910   44.0270 C   0  0  0  0  0  0  0  0  0  0  0  0
   57.5440   31.8120   45.4300 N   0  0  0  0  0  0  0  0  0  0  0  0
   57.0210   33.1670   45.6550 C   0  0  0  0  0  0  0  0  0  0  0  0
   58.0620   34.2180   45.2610 C   0  0  0  0  0  0  0  0  0  0  0  0
   58.8930   34.6770   46.4750 C   0  0  0  0  0  0  0  0  0  0  0  0
   59.5880   33.5160   47.2220 C   0  0  0  0  0  0  0  0  0  0  0  0
   60.3440   32.5960   46.3430 N   0  0  0  0  0  0  0  0  0  0  0  0
   61.0890   31.5870   47.0890 C   0  0  0  0  0  0  0  0  0  0  0  0
   60.5670   30.2780   47.1930 C   0  0  0  0  0  0  0  0  0  0  0  0
   59.8630   29.6750   46.1260 C   0  0  0  0  0  0  0  0  0  0  0  0
   59.3270   28.3970   46.2590 C   0  0  0  0  0  0  0  0  0  0  0  0
   59.5000   27.6870   47.4410 C   0  0  0  0  0  0  0  0  0  0  0  0
   60.2110   28.2500   48.4970 C   0  0  0  0  0  0  0  0  0  0  0  0
   60.7470   29.5580   48.4000 C   0  0  0  0  0  0  0  0  0  0  0  0
   61.4200   30.1440   49.4490 N   0  0  0  0  0  0  0  0  0  0  0  0
   61.2700   29.6010   50.8160 C   0  0  0  0  0  0  0  0  0  0  0  0
   62.2350   31.2330   49.2140 C   0  0  0  0  0  0  0  0  0  0  0  0
   63.1800   31.6560   50.1770 C   0  0  0  0  0  0  0  0  0  0  0  0
   63.9860   32.7630   49.9530 C   0  0  0  0  0  0  0  0  0  0  0  0
   63.9330   33.4300   48.7410 C   0  0  0  0  0  0  0  0  0  0  0  0
   63.0620   33.0110   47.7270 C   0  0  0  0  0  0  0  0  0  0  0  0
   63.2590   33.6340   46.3690 C   0  0  0  0  0  0  0  0  0  0  0  0
   62.1340   31.9540   47.9860 C   0  0  0  0  0  0  0  0  0  0  0  0
   56.2115   29.7917   44.8562 H   0  0  0  0  0  0  0  0  0  0  0  0
   55.5915   30.4623   43.3094 H   0  0  0  0  0  0  0  0  0  0  0  0
   57.0298   29.3862   43.3094 H   0  0  0  0  0  0  0  0  0  0  0  0
   58.4051   31.1398   43.6363 H   0  0  0  0  0  0  0  0  0  0  0  0
   56.9529   32.2243   43.4716 H   0  0  0  0  0  0  0  0  0  0  0  0
   57.0310   31.1380   46.0440 H   0  0  0  0  0  0  0  0  0  0  0  0
   56.1149   33.3103   45.0481 H   0  0  0  0  0  0  0  0  0  0  0  0
   56.7856   33.2837   46.7232 H   0  0  0  0  0  0  0  0  0  0  0  0
   58.7381   33.7861   44.5085 H   0  0  0  0  0  0  0  0  0  0  0  0
   57.5315   35.0928   44.8569 H   0  0  0  0  0  0  0  0  0  0  0  0
   59.6656   35.3766   46.1234 H   0  0  0  0  0  0  0  0  0  0  0  0
   58.1961   35.1467   47.1847 H   0  0  0  0  0  0  0  0  0  0  0  0
   60.2872   33.9462   47.9541 H   0  0  0  0  0  0  0  0  0  0  0  0
   58.7915   32.9208   47.6925 H   0  0  0  0  0  0  0  0  0  0  0  0
   59.6550   32.1770   45.6860 H   0  0  0  0  0  0  0  0  0  0  0  0
   60.9690   33.1420   45.7190 H   0  0  0  0  0  0  0  0  0  0  0  0
   59.7372   30.2217   45.1798 H   0  0  0  0  0  0  0  0  0  0  0  0
   58.7653   27.9482   45.4265 H   0  0  0  0  0  0  0  0  0  0  0  0
   59.0741   26.6779   47.5424 H   0  0  0  0  0  0  0  0  0  0  0  0
   60.3589   27.6709   49.4204 H   0  0  0  0  0  0  0  0  0  0  0  0
   61.4881   30.3906   51.5502 H   0  0  0  0  0  0  0  0  0  0  0  0
   60.2394   29.2434   50.9574 H   0  0  0  0  0  0  0  0  0  0  0  0
   61.9709   28.7651   50.9574 H   0  0  0  0  0  0  0  0  0  0  0  0
   63.2779   31.0979   51.1199 H   0  0  0  0  0  0  0  0  0  0  0  0
   64.6695   33.1118   50.7412 H   0  0  0  0  0  0  0  0  0  0  0  0
   64.5836   34.3007   48.5720 H   0  0  0  0  0  0  0  0  0  0  0  0
   63.5887   34.6766   46.4882 H   0  0  0  0  0  0  0  0  0  0  0  0
   64.0224   33.0693   45.8138 H   0  0  0  0  0  0  0  0  0  0  0  0
   62.3097   33.6108   45.8138 H   0  0  0  0  0  0  0  0  0  0  0  0
  1  2  1  0
  2  3  1  0
  3  4  1  0
  4  5  1  0
  5  6  1  0
  6  7  1  0
  7  8  1  0
  8  9  1  0
  9 10  2  0
 10 11  1  0
 11 12  2  0
 12 13  1  0
 13 14  2  0
 14 15  1  0
 15 16  2  0
 16 17  1  0
 16 18  1  0
 18 19  2  0
 19 20  1  0
 20 21  2  0
 21 22  1  0
 22 23  1  0
 22 24  2  0
 24  9  1  0
 15 10  1  0
 24 18  1  0
  1 25  1  0
  1 26  1  0
  1 27  1  0
  2 28  1  0
  2 29  1  0
  3 30  1  0
  4 31  1  0
  4 32  1  0
  5 33  1  0
  5 34  1  0
  6 35  1  0
  6 36  1  0
  7 37  1  0
  7 38  1  0
  8 39  1  0
  8 40  1  0
 11 41  1  0
 12 42  1  0
 13 43  1  0
 14 44  1  0
 17 45  1  0
 17 46  1  0
 17 47  1  0
 19 48  1  0
 20 49  1  0
 21 50  1  0
 23 51  1  0
 23 52  1  0
 23 53  1  0
M  CHG  2   8   1  16   1
M  END
>  <UniqueID>  (27) 
26

>  <SMILES>  (27) 
CCNCCCC[NH2+]c1c2ccccc2[n+](C)c2cccc(C)c12

>  <Energy>  (27) 
90.9352197051688

>  <Genealogy>  (27) 
CCNCCCC[NH2+]c1c2ccccc2[n+](C)c2cccc(C)c12 (protonated)
CCNCCCC[NH2+]c1c2ccccc2[n+](C)c2cccc(C)c12 (3D coordinates assigned)
CCNCCCC[NH2+]c1c2ccccc2[n+](C)c2cccc(C)c12 (optimized conformer: 90.9352197051688 kcal/mol)

>  <smiles>  (27) 
CCNCCCCNc1c2ccccc2[n+](C)c2cccc(C)c12

>  <score_type>  (27) 
oracle

>  <origin>  (27) 
adg

>  <m_score__min__energy>  (27) 
-4.8499999999999996

>  <m_primary>  (27) 
energy

$$$$
27:0
     RDKit          3D

 51 54  0  0  1  0  0  0  0  0999 V2000
   60.5930   26.8350   47.4380 C   0  0  0  0  0  0  0  0  0  0  0  0
   60.6800   27.4300   46.1570 O   0  0  0  0  0  0  0  0  0  0  0  0
   59.8170   28.4420   45.7750 C   0  0  0  0  0  0  0  0  0  0  0  0
   58.8350   28.1030   44.8820 C   0  0  0  0  0  0  0  0  0  0  0  0
   57.9620   29.0500   44.4740 C   0  0  0  0  0  0  0  0  0  0  0  0
   57.0040   28.7000   43.5980 N   0  0  0  0  0  0  0  0  0  0  0  0
   56.1350   29.6300   43.1850 C   0  0  0  0  0  0  0  0  0  0  0  0
   56.2300   30.8760   43.6440 N   0  0  0  0  0  0  0  0  0  0  0  0
   57.1890   31.2510   44.5300 C   0  0  0  0  0  0  0  0  0  0  0  0
   57.2080   32.4150   44.9060 N   0  0  0  0  0  0  0  0  0  0  0  0
   58.0600   33.1330   45.6710 C   0  0  0  0  0  0  0  0  0  0  0  0
   57.9900   33.1100   47.0860 C   0  0  0  0  0  0  0  0  0  0  0  0
   58.7960   33.9470   47.8380 C   0  0  0  0  0  0  0  0  0  0  0  0
   59.6710   34.8070   47.2030 C   0  0  0  0  0  0  0  0  0  0  0  0
   59.7590   34.8510   45.8240 C   0  0  0  0  0  0  0  0  0  0  0  0
   58.9650   34.0260   45.0480 C   0  0  0  0  0  0  0  0  0  0  0  0
   58.1020   30.3320   44.9810 C   0  0  0  0  0  0  0  0  0  0  0  0
   59.0880   30.6550   45.8700 C   0  0  0  0  0  0  0  0  0  0  0  0
   60.0220   29.6750   46.3180 C   0  0  0  0  0  0  0  0  0  0  0  0
   60.9510   30.0800   47.1870 O   0  0  0  0  0  0  0  0  0  0  0  0
   61.1500   31.2380   47.8920 C   0  0  0  0  0  0  0  0  0  0  0  0
   61.9800   30.8850   49.1200 C   0  0  0  0  0  0  0  0  0  0  0  0
   62.5230   32.0740   49.8420 C   0  0  0  0  0  0  0  0  0  0  0  0
   63.2980   32.8790   48.9330 N   0  0  0  0  0  0  0  0  0  0  0  0
   64.6010   33.1090   49.4930 C   0  0  0  0  0  0  0  0  0  0  0  0
   63.3220   32.3170   47.5970 C   0  0  0  0  0  0  0  0  0  0  0  0
   61.9000   32.3000   47.0980 C   0  0  0  0  0  0  0  0  0  0  0  0
   60.7063   27.6098   48.2106 H   0  0  0  0  0  0  0  0  0  0  0  0
   59.6138   26.3463   47.5496 H   0  0  0  0  0  0  0  0  0  0  0  0
   61.3912   26.0864   47.5496 H   0  0  0  0  0  0  0  0  0  0  0  0
   58.7583   27.0735   44.5022 H   0  0  0  0  0  0  0  0  0  0  0  0
   56.9330   27.7070   43.2350 H   0  0  0  0  0  0  0  0  0  0  0  0
   55.3439   29.3655   42.4679 H   0  0  0  0  0  0  0  0  0  0  0  0
   57.2923   32.4242   47.5889 H   0  0  0  0  0  0  0  0  0  0  0  0
   58.7401   33.9275   48.9364 H   0  0  0  0  0  0  0  0  0  0  0  0
   60.3097   35.4692   47.8059 H   0  0  0  0  0  0  0  0  0  0  0  0
   60.4633   35.5449   45.3419 H   0  0  0  0  0  0  0  0  0  0  0  0
   59.0364   34.0636   43.9510 H   0  0  0  0  0  0  0  0  0  0  0  0
   59.1624   31.6862   46.2457 H   0  0  0  0  0  0  0  0  0  0  0  0
   60.1652   31.6572   48.1457 H   0  0  0  0  0  0  0  0  0  0  0  0
   61.3455   30.3166   49.8159 H   0  0  0  0  0  0  0  0  0  0  0  0
   62.8436   30.3026   48.7666 H   0  0  0  0  0  0  0  0  0  0  0  0
   61.6903   32.6716   50.2413 H   0  0  0  0  0  0  0  0  0  0  0  0
   63.1646   31.7372   50.6696 H   0  0  0  0  0  0  0  0  0  0  0  0
   64.5355   33.0974   50.5910 H   0  0  0  0  0  0  0  0  0  0  0  0
   65.2887   32.3184   49.1584 H   0  0  0  0  0  0  0  0  0  0  0  0
   64.9764   34.0873   49.1584 H   0  0  0  0  0  0  0  0  0  0  0  0
   63.9459   32.9381   46.9375 H   0  0  0  0  0  0  0  0  0  0  0  0
   63.7458   31.3019   47.6067 H   0  0  0  0  0  0  0  0  0  0  0  0
   61.4350   33.2845   47.2546 H   0  0  0  0  0  0  0  0  0  0  0  0
   61.8692   32.0737   46.0220 H   0  0  0  0  0  0  0  0  0  0  0  0
  1  2  1  0
  2  3  1  0
  3  4  2  0
  4  5  1  0
  5  6  1  0
  6  7  1  0
  7  8  2  0
  8  9  1  0
  9 10  2  0
 10 11  1  0
 11 12  2  0
 12 13  1  0
 13 14  2  0
 14 15  1  0
 15 16  2  0
  9 17  1  0
 17 18  1  0
 18 19  2  0
 19 20  1  0
 20 21  1  0
 21 22  1  0
 22 23  1  0
 23 24  1  0
 24 25  1  0
 24 26  1  0
 26 27  1  0
 19  3  1  0
 27 21  1  0
 17  5  2  0
 16 11  1  0
  1 28  1  0
  1 29  1  0
  1 30  1  0
  4 31  1  0
  6 32  1  0
  7 33  1  0
 12 34  1  0
 13 35  1  0
 14 36  1  0
 15 37  1  0
 16 38  1  0
 18 39  1  0
 21 40  1  0
 22 41  1  0
 22 42  1  0
 23 43  1  0
 23 44  1  0
 25 45  1  0
 25 46  1  0
 25 47  1  0
 26 48  1  0
 26 49  1  0
 27 50  1  0
 27 51  1  0
M  END
>  <smiles>  (28) 
COc1cc2[nH]cnc(=Nc3ccccc3)c2cc1OC1CCN(C)CC1

>  <score_type>  (28) 
oracle

>  <origin>  (28) 
adg

>  <m_score__min__energy>  (28) 
-8.3699999999999992

>  <m_primary>  (28) 
energy

$$$$
28:0
     RDKit          3D

 49 52  0  0  0  0  0  0  0  0999 V2000
   58.8250   32.6310   52.8830 C   0  0  0  0  0  0  0  0  0  0  0  0
   59.4820   33.0260   51.6450 N   0  0  0  0  0  0  0  0  0  0  0  0
   60.7310   33.5130   51.5310 C   0  0  0  0  0  0  0  0  0  0  0  0
   60.9490   33.8420   50.2060 C   0  0  0  0  0  0  0  0  0  0  0  0
   62.1560   34.5600   49.6480 C   0  0  0  0  0  0  0  0  0  0  0  0
   63.1280   33.6580   48.9930 N   0  0  0  0  0  0  0  0  0  0  0  0
   63.5380   32.4750   49.7850 C   0  0  0  0  0  0  0  0  0  0  0  0
   62.6690   31.2320   49.5040 C   0  0  0  0  0  0  0  0  0  0  0  0
   62.2560   31.1670   48.0980 N   0  0  0  0  0  0  0  0  0  0  0  0
   61.0850   30.4130   47.7210 C   0  0  0  0  0  0  0  0  0  0  0  0
   60.7800   30.1790   46.3660 C   0  0  0  0  0  0  0  0  0  0  0  0
   59.6280   29.4740   46.0090 C   0  0  0  0  0  0  0  0  0  0  0  0
   58.7610   29.0000   46.9970 C   0  0  0  0  0  0  0  0  0  0  0  0
   57.6410   28.3210   46.6480 F   0  0  0  0  0  0  0  0  0  0  0  0
   59.0470   29.2320   48.3440 C   0  0  0  0  0  0  0  0  0  0  0  0
   60.2000   29.9350   48.7060 C   0  0  0  0  0  0  0  0  0  0  0  0
   62.9950   31.9770   47.1280 C   0  0  0  0  0  0  0  0  0  0  0  0
   62.9110   33.4490   47.5390 C   0  0  0  0  0  0  0  0  0  0  0  0
   59.7610   33.5010   49.5620 C   0  0  0  0  0  0  0  0  0  0  0  0
   59.4180   33.6970   48.1410 C   0  0  0  0  0  0  0  0  0  0  0  0
   59.9540   34.7700   47.4090 C   0  0  0  0  0  0  0  0  0  0  0  0
   59.6170   34.9400   46.0620 C   0  0  0  0  0  0  0  0  0  0  0  0
   58.7590   34.0330   45.4340 C   0  0  0  0  0  0  0  0  0  0  0  0
   58.4340   34.1990   44.1270 F   0  0  0  0  0  0  0  0  0  0  0  0
   58.2430   32.9500   46.1500 C   0  0  0  0  0  0  0  0  0  0  0  0
   58.5760   32.7760   47.4980 C   0  0  0  0  0  0  0  0  0  0  0  0
   58.8810   33.0270   50.4670 N   0  0  0  0  0  0  0  0  0  0  0  0
   59.4152   32.9859   53.7407 H   0  0  0  0  0  0  0  0  0  0  0  0
   57.8189   33.0741   52.9217 H   0  0  0  0  0  0  0  0  0  0  0  0
   58.7445   31.5346   52.9217 H   0  0  0  0  0  0  0  0  0  0  0  0
   61.4546   33.6294   52.3513 H   0  0  0  0  0  0  0  0  0  0  0  0
   61.8113   35.2971   48.9078 H   0  0  0  0  0  0  0  0  0  0  0  0
   62.6730   35.0317   50.4966 H   0  0  0  0  0  0  0  0  0  0  0  0
   64.5833   32.2346   49.5408 H   0  0  0  0  0  0  0  0  0  0  0  0
   63.4134   32.7307   50.8476 H   0  0  0  0  0  0  0  0  0  0  0  0
   63.2483   30.3292   49.7478 H   0  0  0  0  0  0  0  0  0  0  0  0
   61.7636   31.2983   50.1252 H   0  0  0  0  0  0  0  0  0  0  0  0
   61.4545   30.5545   45.5824 H   0  0  0  0  0  0  0  0  0  0  0  0
   59.4029   29.2916   44.9478 H   0  0  0  0  0  0  0  0  0  0  0  0
   58.3636   28.8608   49.1220 H   0  0  0  0  0  0  0  0  0  0  0  0
   60.4174   30.1161   49.7690 H   0  0  0  0  0  0  0  0  0  0  0  0
   64.0479   31.6593   47.1086 H   0  0  0  0  0  0  0  0  0  0  0  0
   62.5592   31.8459   46.1265 H   0  0  0  0  0  0  0  0  0  0  0  0
   63.6772   34.0118   46.9856 H   0  0  0  0  0  0  0  0  0  0  0  0
   61.8950   33.7991   47.3040 H   0  0  0  0  0  0  0  0  0  0  0  0
   60.6403   35.4781   47.8964 H   0  0  0  0  0  0  0  0  0  0  0  0
   60.0280   35.7890   45.4961 H   0  0  0  0  0  0  0  0  0  0  0  0
   57.5735   32.2325   45.6531 H   0  0  0  0  0  0  0  0  0  0  0  0
   58.1770   31.9155   48.0551 H   0  0  0  0  0  0  0  0  0  0  0  0
  1  2  1  0
  2  3  1  0
  3  4  2  0
  4  5  1  0
  5  6  1  0
  6  7  1  0
  7  8  1  0
  8  9  1  0
  9 10  1  0
 10 11  2  0
 11 12  1  0
 12 13  2  0
 13 14  1  0
 13 15  1  0
 15 16  2  0
  9 17  1  0
 17 18  1  0
  4 19  1  0
 19 20  1  0
 20 21  2  0
 21 22  1  0
 22 23  2  0
 23 24  1  0
 23 25  1  0
 25 26  2  0
 19 27  2  0
 27  2  1  0
 18  6  1  0
 26 20  1  0
 16 10  1  0
  1 28  1  0
  1 29  1  0
  1 30  1  0
  3 31  1  0
  5 32  1  0
  5 33  1  0
  7 34  1  0
  7 35  1  0
  8 36  1  0
  8 37  1  0
 11 38  1  0
 12 39  1  0
 15 40  1  0
 16 41  1  0
 17 42  1  0
 17 43  1  0
 18 44  1  0
 18 45  1  0
 21 46  1  0
 22 47  1  0
 25 48  1  0
 26 49  1  0
M  END
>  <UniqueID>  (29) 
27

>  <SMILES>  (29) 
Cn1cc(CN2CCN(c3ccc(F)cc3)CC2)c(-c2ccc(F)cc2)n1

>  <Energy>  (29) 
97.7728731129462

>  <Genealogy>  (29) 
Cn1cc(CN2CCN(c3ccc(F)cc3)CC2)c(-c2ccc(F)cc2)n1 (3D coordinates assigned)
Cn1cc(CN2CCN(c3ccc(F)cc3)CC2)c(-c2ccc(F)cc2)n1 (nonaromatic ring conformer: 97.7728731129462 kcal/mol)

>  <smiles>  (29) 
Cn1cc(CN2CCN(c3ccc(F)cc3)CC2)c(-c2ccc(F)cc2)n1

>  <score_type>  (29) 
oracle

>  <origin>  (29) 
adg

>  <m_score__min__energy>  (29) 
-7.8399999999999999

>  <m_primary>  (29) 
energy

$$$$
29:0
     RDKit          3D

 76 79  0  0  0  0  0  0  0  0999 V2000
   61.1020   30.1400   47.1740 C   0  0  0  0  0  0  0  0  0  0  0  0
   60.1010   30.3880   48.3160 C   0  0  0  0  0  0  0  0  0  0  0  0
   60.2510   29.4890   49.4880 N   0  0  0  0  0  0  0  0  0  0  0  0
   60.3620   28.0500   49.1890 C   0  0  0  0  0  0  0  0  0  0  0  0
   59.3810   29.8030   50.6380 C   0  0  0  0  0  0  0  0  0  0  0  0
   58.8140   31.2320   50.6110 C   0  0  0  0  0  0  0  0  0  0  0  0
   59.6580   32.1750   51.4840 C   0  0  0  0  0  0  0  0  0  0  0  0
   59.8130   33.5120   50.8810 N   0  0  0  0  0  0  0  0  0  0  0  0
   60.6090   33.4770   49.6560 C   0  0  0  0  0  0  0  0  0  0  0  0
   62.0320   33.3720   49.6980 C   0  0  0  0  0  0  0  0  0  0  0  0
   62.7540   33.2970   50.9180 C   0  0  0  0  0  0  0  0  0  0  0  0
   64.1320   33.1000   50.9320 C   0  0  0  0  0  0  0  0  0  0  0  0
   64.8270   32.9580   49.7440 C   0  0  0  0  0  0  0  0  0  0  0  0
   64.1600   33.0710   48.5300 C   0  0  0  0  0  0  0  0  0  0  0  0
   62.7680   33.3390   48.4780 C   0  0  0  0  0  0  0  0  0  0  0  0
   62.1330   33.5580   47.2760 N   0  0  0  0  0  0  0  0  0  0  0  0
   62.9280   33.8860   46.0670 C   0  0  0  0  0  0  0  0  0  0  0  0
   60.7560   33.5100   47.1990 C   0  0  0  0  0  0  0  0  0  0  0  0
   60.0980   33.4470   45.9440 C   0  0  0  0  0  0  0  0  0  0  0  0
   58.7080   33.4530   45.8400 C   0  0  0  0  0  0  0  0  0  0  0  0
   58.1420   33.4090   44.5560 O   0  0  0  0  0  0  0  0  0  0  0  0
   58.4870   32.4890   43.5220 C   0  0  0  0  0  0  0  0  0  0  0  0
   57.2870   31.5710   43.2050 C   0  0  0  0  0  0  0  0  0  0  0  0
   57.1490   30.3970   44.1140 N   0  0  0  0  0  0  0  0  0  0  0  0
   55.9510   30.4880   44.7770 O   0  0  0  0  0  0  0  0  0  0  0  0
   57.2700   29.1030   43.3770 C   0  0  0  0  0  0  0  0  0  0  0  0
   57.4970   27.8890   44.3080 C   0  0  0  0  0  0  0  0  0  0  0  0
   57.2270   28.2510   45.7090 N   0  0  0  0  0  0  0  0  0  0  0  0
   57.3370   27.0710   46.5780 C   0  0  0  0  0  0  0  0  0  0  0  0
   58.1600   29.3060   46.1520 C   0  0  0  0  0  0  0  0  0  0  0  0
   58.2180   30.4770   45.1430 C   0  0  0  0  0  0  0  0  0  0  0  0
   57.9390   33.5110   47.0070 C   0  0  0  0  0  0  0  0  0  0  0  0
   58.5560   33.5350   48.2560 C   0  0  0  0  0  0  0  0  0  0  0  0
   59.9690   33.5090   48.3840 C   0  0  0  0  0  0  0  0  0  0  0  0
   62.0876   29.8958   47.5969 H   0  0  0  0  0  0  0  0  0  0  0  0
   60.7510   29.3017   46.5543 H   0  0  0  0  0  0  0  0  0  0  0  0
   61.1830   31.0452   46.5543 H   0  0  0  0  0  0  0  0  0  0  0  0
   60.2283   31.4243   48.6623 H   0  0  0  0  0  0  0  0  0  0  0  0
   59.1031   30.1862   47.8994 H   0  0  0  0  0  0  0  0  0  0  0  0
   60.4058   27.4823   50.1301 H   0  0  0  0  0  0  0  0  0  0  0  0
   59.4860   27.7278   48.6069 H   0  0  0  0  0  0  0  0  0  0  0  0
   61.2770   27.8660   48.6069 H   0  0  0  0  0  0  0  0  0  0  0  0
   58.5390   29.0951   50.6402 H   0  0  0  0  0  0  0  0  0  0  0  0
   60.0010   29.7198   51.5428 H   0  0  0  0  0  0  0  0  0  0  0  0
   58.8177   31.6012   49.5748 H   0  0  0  0  0  0  0  0  0  0  0  0
   57.7884   31.2102   51.0081 H   0  0  0  0  0  0  0  0  0  0  0  0
   59.1676   32.2837   52.4626 H   0  0  0  0  0  0  0  0  0  0  0  0
   60.6606   31.7333   51.5821 H   0  0  0  0  0  0  0  0  0  0  0  0
   58.8800   33.9570   50.7630 H   0  0  0  0  0  0  0  0  0  0  0  0
   60.2570   34.1520   51.5750 H   0  0  0  0  0  0  0  0  0  0  0  0
   62.2139   33.3965   51.8711 H   0  0  0  0  0  0  0  0  0  0  0  0
   64.6700   33.0571   51.8905 H   0  0  0  0  0  0  0  0  0  0  0  0
   65.9081   32.7556   49.7604 H   0  0  0  0  0  0  0  0  0  0  0  0
   64.7219   32.9504   47.5921 H   0  0  0  0  0  0  0  0  0  0  0  0
   63.9057   34.2894   46.3694 H   0  0  0  0  0  0  0  0  0  0  0  0
   63.0764   32.9756   45.4676 H   0  0  0  0  0  0  0  0  0  0  0  0
   62.3913   34.6362   45.4676 H   0  0  0  0  0  0  0  0  0  0  0  0
   60.7021   33.3918   45.0264 H   0  0  0  0  0  0  0  0  0  0  0  0
   58.7666   33.0477   42.6166 H   0  0  0  0  0  0  0  0  0  0  0  0
   59.3332   31.8716   43.8577 H   0  0  0  0  0  0  0  0  0  0  0  0
   56.3676   32.1706   43.2763 H   0  0  0  0  0  0  0  0  0  0  0  0
   57.4602   31.1670   42.1966 H   0  0  0  0  0  0  0  0  0  0  0  0
   56.0510   30.0920   45.6830 H   0  0  0  0  0  0  0  0  0  0  0  0
   56.3439   28.9377   42.8069 H   0  0  0  0  0  0  0  0  0  0  0  0
   58.1506   29.1814   42.7224 H   0  0  0  0  0  0  0  0  0  0  0  0
   56.8221   27.0734   44.0091 H   0  0  0  0  0  0  0  0  0  0  0  0
   58.5454   27.5675   44.2212 H   0  0  0  0  0  0  0  0  0  0  0  0
   57.3075   27.3872   47.6312 H   0  0  0  0  0  0  0  0  0  0  0  0
   56.4986   26.3879   46.3766 H   0  0  0  0  0  0  0  0  0  0  0  0
   58.2872   26.5546   46.3766 H   0  0  0  0  0  0  0  0  0  0  0  0
   57.8261   29.6912   47.1268 H   0  0  0  0  0  0  0  0  0  0  0  0
   59.1656   28.8663   46.2261 H   0  0  0  0  0  0  0  0  0  0  0  0
   58.1070   31.4227   45.6938 H   0  0  0  0  0  0  0  0  0  0  0  0
   59.1860   30.4219   44.6234 H   0  0  0  0  0  0  0  0  0  0  0  0
   56.8415   33.5378   46.9383 H   0  0  0  0  0  0  0  0  0  0  0  0
   57.9343   33.5750   49.1626 H   0  0  0  0  0  0  0  0  0  0  0  0
  1  2  1  0
  2  3  1  0
  3  4  1  0
  3  5  1  0
  5  6  1  0
  6  7  1  0
  7  8  1  0
  8  9  1  0
  9 10  2  0
 10 11  1  0
 11 12  2  0
 12 13  1  0
 13 14  2  0
 14 15  1  0
 15 16  2  0
 16 17  1  0
 16 18  1  0
 18 19  2  0
 19 20  1  0
 20 21  1  0
 21 22  1  0
 22 23  1  0
 23 24  1  0
 24 25  1  0
 24 26  1  0
 26 27  1  0
 27 28  1  0
 28 29  1  0
 28 30  1  0
 30 31  1  0
 20 32  2  0
 32 33  1  0
 33 34  2  0
 34  9  1  0
 15 10  1  0
 34 18  1  0
 31 24  1  0
  1 35  1  0
  1 36  1  0
  1 37  1  0
  2 38  1  0
  2 39  1  0
  4 40  1  0
  4 41  1  0
  4 42  1  0
  5 43  1  0
  5 44  1  0
  6 45  1  0
  6 46  1  0
  7 47  1  0
  7 48  1  0
  8 49  1  0
  8 50  1  0
 11 51  1  0
 12 52  1  0
 13 53  1  0
 14 54  1  0
 17 55  1  0
 17 56  1  0
 17 57  1  0
 19 58  1  0
 22 59  1  0
 22 60  1  0
 23 61  1  0
 23 62  1  0
 25 63  1  0
 26 64  1  0
 26 65  1  0
 27 66  1  0
 27 67  1  0
 29 68  1  0
 29 69  1  0
 29 70  1  0
 30 71  1  0
 30 72  1  0
 31 73  1  0
 31 74  1  0
 32 75  1  0
 33 76  1  0
M  CHG  3   8   1  16   1  24   1
M  END
>  <UniqueID>  (30) 
28

>  <SMILES>  (30) 
CCN(C)CCC[NH2+]c1c2ccccc2[n+](C)c2cc(OCC[N+]3(O)CCN(C)CC3)ccc12

>  <Energy>  (30) 
127.50789815549557

>  <Genealogy>  (30) 
CCN(C)CCC[NH2+]c1c2ccccc2[n+](C)c2cc(OCC[N+]3(O)CCN(C)CC3)ccc12 (protonated)
CCN(C)CCC[NH2+]c1c2ccccc2[n+](C)c2cc(OCC[N+]3(O)CCN(C)CC3)ccc12 (3D coordinates assigned)
CCN(C)CCC[NH2+]c1c2ccccc2[n+](C)c2cc(OCC[N+]3(O)CCN(C)CC3)ccc12 (nonaromatic ring conformer: 127.50789815549557 kcal/mol)

>  <smiles>  (30) 
CCN(C)CCCNc1c2ccccc2[n+](C)c2cc(OCC[N+]3([O-])CCN(C)CC3)ccc12

>  <score_type>  (30) 
oracle

>  <origin>  (30) 
adg

>  <m_score__min__energy>  (30) 
-4.1500000000000004

>  <m_primary>  (30) 
energy

$$$$
30:0
     RDKit          3D

 48 49  0  0  0  0  0  0  0  0999 V2000
   57.7230   31.9300   50.9890 C   0  0  0  0  0  0  0  0  0  0  0  0
   58.0970   30.4520   51.0000 C   0  0  0  0  0  0  0  0  0  0  0  0
   58.2940   29.9690   49.6720 O   0  0  0  0  0  0  0  0  0  0  0  0
   59.3730   30.2950   48.8310 C   0  0  0  0  0  0  0  0  0  0  0  0
   60.5220   30.9650   49.3010 C   0  0  0  0  0  0  0  0  0  0  0  0
   61.5680   31.2690   48.4260 C   0  0  0  0  0  0  0  0  0  0  0  0
   61.4810   30.9120   47.0810 C   0  0  0  0  0  0  0  0  0  0  0  0
   60.3470   30.2520   46.6030 C   0  0  0  0  0  0  0  0  0  0  0  0
   59.2860   29.9410   47.4750 C   0  0  0  0  0  0  0  0  0  0  0  0
   58.1310   29.2770   47.0340 O   0  0  0  0  0  0  0  0  0  0  0  0
   58.1270   28.0480   46.3130 C   0  0  0  0  0  0  0  0  0  0  0  0
   56.9060   27.9850   45.3990 C   0  0  0  0  0  0  0  0  0  0  0  0
   56.2990   29.3160   45.2650 N   0  0  0  0  0  0  0  0  0  0  0  0
   56.3790   29.7750   43.8740 C   0  0  0  0  0  0  0  0  0  0  0  0
   56.9050   31.2120   43.8200 C   0  0  0  0  0  0  0  0  0  0  0  0
   57.0590   31.7520   45.1340 O   0  0  0  0  0  0  0  0  0  0  0  0
   57.9010   32.8170   45.4880 C   0  0  0  0  0  0  0  0  0  0  0  0
   58.4010   33.7390   44.5460 C   0  0  0  0  0  0  0  0  0  0  0  0
   59.2430   34.7760   44.9570 C   0  0  0  0  0  0  0  0  0  0  0  0
   59.5930   34.9080   46.3020 C   0  0  0  0  0  0  0  0  0  0  0  0
   59.0930   34.0050   47.2520 C   0  0  0  0  0  0  0  0  0  0  0  0
   59.5000   34.1200   48.6910 C   0  0  0  0  0  0  0  0  0  0  0  0
   58.2620   32.9540   46.8340 C   0  0  0  0  0  0  0  0  0  0  0  0
   57.6312   32.2927   52.0234 H   0  0  0  0  0  0  0  0  0  0  0  0
   58.5047   32.5022   50.4678 H   0  0  0  0  0  0  0  0  0  0  0  0
   56.7633   32.0615   50.4678 H   0  0  0  0  0  0  0  0  0  0  0  0
   59.0263   30.3195   51.5734 H   0  0  0  0  0  0  0  0  0  0  0  0
   57.2767   29.8843   51.4634 H   0  0  0  0  0  0  0  0  0  0  0  0
   60.5948   31.2494   50.3611 H   0  0  0  0  0  0  0  0  0  0  0  0
   62.4617   31.7909   48.7989 H   0  0  0  0  0  0  0  0  0  0  0  0
   62.3072   31.1507   46.3951 H   0  0  0  0  0  0  0  0  0  0  0  0
   60.2823   29.9739   45.5407 H   0  0  0  0  0  0  0  0  0  0  0  0
   59.0413   27.9788   45.7053 H   0  0  0  0  0  0  0  0  0  0  0  0
   58.0893   27.2107   47.0254 H   0  0  0  0  0  0  0  0  0  0  0  0
   57.2143   27.6254   44.4062 H   0  0  0  0  0  0  0  0  0  0  0  0
   56.1671   27.2976   45.8366 H   0  0  0  0  0  0  0  0  0  0  0  0
   56.8540   29.9840   45.8520 H   0  0  0  0  0  0  0  0  0  0  0  0
   57.0598   29.1177   43.3132 H   0  0  0  0  0  0  0  0  0  0  0  0
   55.3741   29.7440   43.4278 H   0  0  0  0  0  0  0  0  0  0  0  0
   57.8806   31.2188   43.3119 H   0  0  0  0  0  0  0  0  0  0  0  0
   56.1793   31.8298   43.2707 H   0  0  0  0  0  0  0  0  0  0  0  0
   58.1278   33.6420   43.4849 H   0  0  0  0  0  0  0  0  0  0  0  0
   59.6317   35.4914   44.2174 H   0  0  0  0  0  0  0  0  0  0  0  0
   60.2623   35.7219   46.6176 H   0  0  0  0  0  0  0  0  0  0  0  0
   58.6420   33.8776   49.3352 H   0  0  0  0  0  0  0  0  0  0  0  0
   60.3225   33.4191   48.8966 H   0  0  0  0  0  0  0  0  0  0  0  0
   59.8340   35.1477   48.8966 H   0  0  0  0  0  0  0  0  0  0  0  0
   57.8897   32.2290   47.5728 H   0  0  0  0  0  0  0  0  0  0  0  0
  1  2  1  0
  2  3  1  0
  3  4  1  0
  4  5  2  0
  5  6  1  0
  6  7  2  0
  7  8  1  0
  8  9  2  0
  9 10  1  0
 10 11  1  0
 11 12  1  0
 12 13  1  0
 13 14  1  0
 14 15  1  0
 15 16  1  0
 16 17  1  0
 17 18  2  0
 18 19  1  0
 19 20  2  0
 20 21  1  0
 21 22  1  0
 21 23  2  0
  9  4  1  0
 23 17  1  0
  1 24  1  0
  1 25  1  0
  1 26  1  0
  2 27  1  0
  2 28  1  0
  5 29  1  0
  6 30  1  0
  7 31  1  0
  8 32  1  0
 11 33  1  0
 11 34  1  0
 12 35  1  0
 12 36  1  0
 13 37  1  0
 14 38  1  0
 14 39  1  0
 15 40  1  0
 15 41  1  0
 18 42  1  0
 19 43  1  0
 20 44  1  0
 22 45  1  0
 22 46  1  0
 22 47  1  0
 23 48  1  0
M  END
>  <UniqueID>  (31) 
29

>  <SMILES>  (31) 
CCOc1ccccc1OCCNCCOc1cccc(C)c1

>  <Energy>  (31) 
39.303534934913806

>  <Genealogy>  (31) 
CCOc1ccccc1OCCNCCOc1cccc(C)c1 (3D coordinates assigned)
CCOc1ccccc1OCCNCCOc1cccc(C)c1 (optimized conformer: 39.303534934913806 kcal/mol)

>  <smiles>  (31) 
CCOc1ccccc1OCCNCCOc1cccc(C)c1

>  <score_type>  (31) 
oracle

>  <origin>  (31) 
adg

>  <m_score__min__energy>  (31) 
-6.7800000000000002

>  <m_primary>  (31) 
energy

$$$$
