0:0
     RDKit          3D

 27 28  0  0  0  0  0  0  0  0999 V2000
   55.1450   30.4240   44.4360 O   0  0  0  0  0  0  0  0  0  0  0  0
   56.1430   29.7130   44.7250 C   0  0  0  0  0  0  0  0  0  0  0  0
   56.0340   28.4070   45.2450 N   0  0  0  0  0  0  0  0  0  0  0  0
   57.3940   27.9230   45.4640 C   0  0  0  0  0  0  0  0  0  0  0  0
   58.3460   29.0780   45.0660 C   0  0  0  0  0  0  0  0  0  0  0  0
   57.4800   30.1410   44.5790 N   0  0  0  0  0  0  0  0  0  0  0  0
   57.9230   31.4640   44.1440 C   0  0  0  0  0  0  0  0  0  0  0  0
   57.1270   32.5530   44.8640 C   0  0  0  0  0  0  0  0  0  0  0  0
   58.0350   33.3950   45.7210 C   0  0  0  0  0  0  0  0  0  0  0  0
   58.7690   34.4510   45.1530 C   0  0  0  0  0  0  0  0  0  0  0  0
   59.6360   35.2100   45.9440 C   0  0  0  0  0  0  0  0  0  0  0  0
   59.7860   34.9150   47.3020 C   0  0  0  0  0  0  0  0  0  0  0  0
   59.0700   33.8580   47.8710 C   0  0  0  0  0  0  0  0  0  0  0  0
   58.2010   33.0960   47.0830 C   0  0  0  0  0  0  0  0  0  0  0  0
   57.5374   27.6610   46.5227 H   0  0  0  0  0  0  0  0  0  0  0  0
   57.5943   27.0211   44.8670 H   0  0  0  0  0  0  0  0  0  0  0  0
   58.9221   29.4200   45.9384 H   0  0  0  0  0  0  0  0  0  0  0  0
   59.0756   28.7635   44.3053 H   0  0  0  0  0  0  0  0  0  0  0  0
   58.9919   31.5830   44.3750 H   0  0  0  0  0  0  0  0  0  0  0  0
   57.7591   31.5580   43.0603 H   0  0  0  0  0  0  0  0  0  0  0  0
   56.6364   33.1952   44.1178 H   0  0  0  0  0  0  0  0  0  0  0  0
   56.3746   32.0747   45.5083 H   0  0  0  0  0  0  0  0  0  0  0  0
   58.6606   34.6806   44.0827 H   0  0  0  0  0  0  0  0  0  0  0  0
   60.2013   36.0410   45.4970 H   0  0  0  0  0  0  0  0  0  0  0  0
   60.4676   35.5148   47.9230 H   0  0  0  0  0  0  0  0  0  0  0  0
   59.1900   33.6252   48.9394 H   0  0  0  0  0  0  0  0  0  0  0  0
   57.6456   32.2594   47.5319 H   0  0  0  0  0  0  0  0  0  0  0  0
  1  2  2  0
  2  3  1  0
  3  4  1  0
  4  5  1  0
  5  6  1  0
  6  7  1  0
  7  8  1  0
  8  9  1  0
  9 10  2  0
 10 11  1  0
 11 12  2  0
 12 13  1  0
 13 14  2  0
  6  2  1  0
 14  9  1  0
  4 15  1  0
  4 16  1  0
  5 17  1  0
  5 18  1  0
  7 19  1  0
  7 20  1  0
  8 21  1  0
  8 22  1  0
 10 23  1  0
 11 24  1  0
 12 25  1  0
 13 26  1  0
 14 27  1  0
M  CHG  1   3  -1
M  END
>  <UniqueID>  (1) 
1

>  <SMILES>  (1) 
O=C1[N-]CCN1CCc1ccccc1

>  <Energy>  (1) 
35.15836119987903

>  <Genealogy>  (1) 
O=C1[N-]CCN1CCc1ccccc1 (protonated)
O=C1[N-]CCN1CCc1ccccc1 (3D coordinates assigned)
O=C1[N-]CCN1CCc1ccccc1 (nonaromatic ring conformer: 35.15836119987903 kcal/mol)

>  <smiles>  (1) 
O=C1NCCN1CCc1ccccc1

>  <score_type>  (1) 
oracle

>  <origin>  (1) 
adg

>  <m_score__min__energy>  (1) 
-7.8799999999999999

>  <m_primary>  (1) 
energy

$$$$
1:0
     RDKit          3D

 42 44  0  0  0  0  0  0  0  0999 V2000
   57.8243   24.8858   47.5536 H   0  0  0  0  0  0  0  0  0  0  0  0
   57.5060   25.6440   46.8230 C   0  0  0  0  0  0  0  0  0  0  0  0
   58.5110   26.4620   45.7460 S   0  0  0  0  0  0  0  0  0  0  0  0
   57.2420   27.3510   45.0780 C   0  0  0  0  0  0  0  0  0  0  0  0
   57.3420   28.2350   44.1320 N   0  0  0  0  0  0  0  0  0  0  0  0
   56.4660   29.7320   44.0970 S   0  0  0  0  0  0  0  0  0  0  0  0
   55.1570   29.5530   44.8140 O   0  0  0  0  0  0  0  0  0  0  0  0
   56.1940   30.1080   42.6670 O   0  0  0  0  0  0  0  0  0  0  0  0
   57.3910   30.9930   44.9040 C   0  0  0  0  0  0  0  0  0  0  0  0
   57.2480   32.3330   44.5240 C   0  0  0  0  0  0  0  0  0  0  0  0
   56.5485   32.6028   43.7190 H   0  0  0  0  0  0  0  0  0  0  0  0
   57.9910   33.3290   45.1640 C   0  0  0  0  0  0  0  0  0  0  0  0
   57.8751   34.3785   44.8556 H   0  0  0  0  0  0  0  0  0  0  0  0
   58.8840   33.0020   46.1970 C   0  0  0  0  0  0  0  0  0  0  0  0
   59.6320   34.0550   46.8380 N   0  0  0  0  0  0  0  0  0  0  0  0
   59.1740   34.5930   47.6080 H   0  0  0  0  0  0  0  0  0  0  0  0
   61.0220   34.3920   46.5250 C   0  0  0  0  0  0  0  0  0  0  0  0
   61.1334   35.4862   46.5099 H   0  0  0  0  0  0  0  0  0  0  0  0
   61.2753   33.9684   45.5420 H   0  0  0  0  0  0  0  0  0  0  0  0
   61.9600   33.8120   47.5600 C   0  0  0  0  0  0  0  0  0  0  0  0
   63.1930   33.2800   47.1430 C   0  0  0  0  0  0  0  0  0  0  0  0
   63.4598   33.2936   46.0759 H   0  0  0  0  0  0  0  0  0  0  0  0
   64.0810   32.7350   48.0710 C   0  0  0  0  0  0  0  0  0  0  0  0
   65.0471   32.3303   47.7351 H   0  0  0  0  0  0  0  0  0  0  0  0
   63.7450   32.7030   49.4230 C   0  0  0  0  0  0  0  0  0  0  0  0
   64.4481   32.2757   50.1532 H   0  0  0  0  0  0  0  0  0  0  0  0
   62.5180   33.2120   49.8530 C   0  0  0  0  0  0  0  0  0  0  0  0
   62.2586   33.1813   50.9215 H   0  0  0  0  0  0  0  0  0  0  0  0
   61.6090   33.7650   48.9280 C   0  0  0  0  0  0  0  0  0  0  0  0
   60.3620   34.2700   49.3340 O   0  0  0  0  0  0  0  0  0  0  0  0
   59.6380   33.8160   50.4740 C   0  0  0  0  0  0  0  0  0  0  0  0
   60.1547   34.1400   51.3894 H   0  0  0  0  0  0  0  0  0  0  0  0
   58.6230   34.2397   50.4564 H   0  0  0  0  0  0  0  0  0  0  0  0
   59.5773   32.7178   50.4564 H   0  0  0  0  0  0  0  0  0  0  0  0
   59.0240   31.6540   46.5740 C   0  0  0  0  0  0  0  0  0  0  0  0
   59.7237   31.3813   47.3778 H   0  0  0  0  0  0  0  0  0  0  0  0
   58.2800   30.6590   45.9340 C   0  0  0  0  0  0  0  0  0  0  0  0
   58.3929   29.6086   46.2404 H   0  0  0  0  0  0  0  0  0  0  0  0
   56.0660   27.0390   45.6590 N   0  0  0  0  0  0  0  0  0  0  0  0
   55.1510   27.4710   45.4010 H   0  0  0  0  0  0  0  0  0  0  0  0
   56.2030   26.0940   46.6280 C   0  0  0  0  0  0  0  0  0  0  0  0
   55.3511   25.7151   47.2117 H   0  0  0  0  0  0  0  0  0  0  0  0
  1  2  1  0
  2  3  1  0
  3  4  1  0
  4  5  2  0
  5  6  1  0
  6  7  2  0
  6  8  2  0
  6  9  1  0
  9 10  2  0
 10 11  1  0
 10 12  1  0
 12 13  1  0
 12 14  2  0
 14 15  1  0
 15 16  1  0
 15 17  1  0
 17 18  1  0
 17 19  1  0
 17 20  1  0
 20 21  2  0
 21 22  1  0
 21 23  1  0
 23 24  1  0
 23 25  2  0
 25 26  1  0
 25 27  1  0
 27 28  1  0
 27 29  2  0
 29 30  1  0
 30 31  1  0
 31 32  1  0
 31 33  1  0
 31 34  1  0
 14 35  1  0
 35 36  1  0
 35 37  2  0
 37 38  1  0
  4 39  1  0
 39 40  1  0
 39 41  1  0
 41 42  1  0
 41  2  2  0
 37  9  1  0
 29 20  1  0
M  END
>  <UniqueID>  (2) 
2

>  <SMILES>  (2) 
COc1ccccc1CNc1ccc(S(=O)(=O)/N=c2/[nH]ccs2)cc1

>  <Energy>  (2) 
76.80870661863831

>  <Genealogy>  (2) 
COc1ccccc1CNc1ccc(S(=O)(=O)/N=c2/[nH]ccs2)cc1 (cis-trans isomerization)
COc1ccccc1CNc1ccc(S(=O)(=O)/N=c2/[nH]ccs2)cc1 (3D coordinates assigned)
COc1ccccc1CNc1ccc(S(=O)(=O)/N=c2/[nH]ccs2)cc1 (optimized conformer: 76.80870661863831 kcal/mol)

>  <smiles>  (2) 
COc1ccccc1CNc1ccc(S(=O)(=O)N=c2[nH]ccs2)cc1

>  <score_type>  (2) 
oracle

>  <origin>  (2) 
adg

>  <m_score__min__energy>  (2) 
-8.2799999999999994

>  <m_primary>  (2) 
energy

$$$$
2:0
     RDKit          3D

 57 59  0  0  0  0  0  0  0  0999 V2000
   63.0150   33.8730   46.4070 C   0  0  0  0  0  0  0  0  0  0  0  0
   63.6800   33.1080   47.5610 C   0  0  0  0  0  0  0  0  0  0  0  0
   62.9650   33.1840   48.8610 N   0  0  0  0  0  0  0  0  0  0  0  0
   63.7890   32.8460   50.0420 C   0  0  0  0  0  0  0  0  0  0  0  0
   65.2820   32.7080   49.7320 C   0  0  0  0  0  0  0  0  0  0  0  0
   62.0650   34.3390   49.0640 C   0  0  0  0  0  0  0  0  0  0  0  0
   60.6260   33.8750   49.3060 C   0  0  0  0  0  0  0  0  0  0  0  0
   60.0000   33.4970   48.0430 N   0  0  0  0  0  0  0  0  0  0  0  0
   59.1310   34.2710   47.3830 N   0  0  0  0  0  0  0  0  0  0  0  0
   58.7180   33.5540   46.3130 C   0  0  0  0  0  0  0  0  0  0  0  0
   57.8060   33.8800   45.3160 C   0  0  0  0  0  0  0  0  0  0  0  0
   57.5380   32.8970   44.3330 C   0  0  0  0  0  0  0  0  0  0  0  0
   58.1690   31.6100   44.3690 C   0  0  0  0  0  0  0  0  0  0  0  0
   57.8190   30.6210   43.3740 N   0  0  0  0  0  0  0  0  0  0  0  0
   56.3760   30.3190   43.3700 C   0  0  0  0  0  0  0  0  0  0  0  0
   55.9560   29.3540   44.4940 C   0  0  0  0  0  0  0  0  0  0  0  0
   57.1290   28.8770   45.2430 N   0  0  0  0  0  0  0  0  0  0  0  0
   57.0690   27.4260   45.4690 C   0  0  0  0  0  0  0  0  0  0  0  0
   57.7920   26.6770   44.3520 C   0  0  0  0  0  0  0  0  0  0  0  0
   58.2870   27.5960   43.4180 O   0  0  0  0  0  0  0  0  0  0  0  0
   59.1070   31.3360   45.4120 C   0  0  0  0  0  0  0  0  0  0  0  0
   59.3190   32.3480   46.3190 C   0  0  0  0  0  0  0  0  0  0  0  0
   60.1170   32.3100   47.4020 C   0  0  0  0  0  0  0  0  0  0  0  0
   60.8870   31.0970   47.7280 C   0  0  0  0  0  0  0  0  0  0  0  0
   60.7790   30.0380   46.8940 C   0  0  0  0  0  0  0  0  0  0  0  0
   59.8960   30.0910   45.6770 C   0  0  0  0  0  0  0  0  0  0  0  0
   59.8470   29.0990   44.9050 O   0  0  0  0  0  0  0  0  0  0  0  0
   62.3451   34.6437   46.8159 H   0  0  0  0  0  0  0  0  0  0  0  0
   63.7897   34.3508   45.7893 H   0  0  0  0  0  0  0  0  0  0  0  0
   62.4340   33.1724   45.7893 H   0  0  0  0  0  0  0  0  0  0  0  0
   63.7505   32.0490   47.2721 H   0  0  0  0  0  0  0  0  0  0  0  0
   64.6587   33.5841   47.7209 H   0  0  0  0  0  0  0  0  0  0  0  0
   63.6622   33.6400   50.7926 H   0  0  0  0  0  0  0  0  0  0  0  0
   63.4442   31.8664   50.4047 H   0  0  0  0  0  0  0  0  0  0  0  0
   65.8486   32.6556   50.6734 H   0  0  0  0  0  0  0  0  0  0  0  0
   65.4523   31.7903   49.1500 H   0  0  0  0  0  0  0  0  0  0  0  0
   65.6177   33.5789   49.1500 H   0  0  0  0  0  0  0  0  0  0  0  0
   62.4091   34.9148   49.9358 H   0  0  0  0  0  0  0  0  0  0  0  0
   62.0852   34.9634   48.1586 H   0  0  0  0  0  0  0  0  0  0  0  0
   60.6327   33.0075   49.9823 H   0  0  0  0  0  0  0  0  0  0  0  0
   60.0541   34.6988   49.7580 H   0  0  0  0  0  0  0  0  0  0  0  0
   57.3122   34.8626   45.2917 H   0  0  0  0  0  0  0  0  0  0  0  0
   56.8296   33.1258   43.5232 H   0  0  0  0  0  0  0  0  0  0  0  0
   58.3590   29.7440   43.5550 H   0  0  0  0  0  0  0  0  0  0  0  0
   58.1090   30.9430   42.4210 H   0  0  0  0  0  0  0  0  0  0  0  0
   55.8212   31.2609   43.4922 H   0  0  0  0  0  0  0  0  0  0  0  0
   56.1474   29.8265   42.4134 H   0  0  0  0  0  0  0  0  0  0  0  0
   55.2773   29.8778   45.1833 H   0  0  0  0  0  0  0  0  0  0  0  0
   55.4516   28.4871   44.0423 H   0  0  0  0  0  0  0  0  0  0  0  0
   57.9770   29.0720   44.6590 H   0  0  0  0  0  0  0  0  0  0  0  0
   57.5475   27.1900   46.4309 H   0  0  0  0  0  0  0  0  0  0  0  0
   56.0147   27.1126   45.4810 H   0  0  0  0  0  0  0  0  0  0  0  0
   58.6269   26.1009   44.7775 H   0  0  0  0  0  0  0  0  0  0  0  0
   57.0892   25.9918   43.8553 H   0  0  0  0  0  0  0  0  0  0  0  0
   58.8050   28.2640   43.9380 H   0  0  0  0  0  0  0  0  0  0  0  0
   61.5286   31.0542   48.6204 H   0  0  0  0  0  0  0  0  0  0  0  0
   61.3471   29.1210   47.1093 H   0  0  0  0  0  0  0  0  0  0  0  0
  1  2  1  0
  2  3  1  0
  3  4  1  0
  4  5  1  0
  3  6  1  0
  6  7  1  0
  7  8  1  0
  8  9  1  0
  9 10  2  0
 10 11  1  0
 11 12  2  0
 12 13  1  0
 13 14  1  0
 14 15  1  0
 15 16  1  0
 16 17  1  0
 17 18  1  0
 18 19  1  0
 19 20  1  0
 13 21  2  0
 21 22  1  0
 22 23  2  0
 23 24  1  0
 24 25  2  0
 25 26  1  0
 26 27  2  0
 23  8  1  0
 22 10  1  0
 26 21  1  0
  1 28  1  0
  1 29  1  0
  1 30  1  0
  2 31  1  0
  2 32  1  0
  4 33  1  0
  4 34  1  0
  5 35  1  0
  5 36  1  0
  5 37  1  0
  6 38  1  0
  6 39  1  0
  7 40  1  0
  7 41  1  0
 11 42  1  0
 12 43  1  0
 14 44  1  0
 14 45  1  0
 15 46  1  0
 15 47  1  0
 16 48  1  0
 16 49  1  0
 17 50  1  0
 18 51  1  0
 18 52  1  0
 19 53  1  0
 19 54  1  0
 20 55  1  0
 24 56  1  0
 25 57  1  0
M  CHG  1  14   1
M  END
>  <UniqueID>  (3) 
3

>  <SMILES>  (3) 
CCN(CC)CCn1nc2ccc([NH2+]CCNCCO)c3c2c1C=CC3=O

>  <Energy>  (3) 
109.68605423927237

>  <Genealogy>  (3) 
CCN(CC)CCn1nc2ccc([NH2+]CCNCCO)c3c2c1C=CC3=O (protonated)
CCN(CC)CCn1nc2ccc([NH2+]CCNCCO)c3c2c1C=CC3=O (3D coordinates assigned)
CCN(CC)CCn1nc2ccc([NH2+]CCNCCO)c3c2c1C=CC3=O (nonaromatic ring conformer: 109.68605423927237 kcal/mol)

>  <smiles>  (3) 
CCN(CC)CCn1nc2ccc(NCCNCCO)c3c2c1C=CC3=O

>  <score_type>  (3) 
oracle

>  <origin>  (3) 
adg

>  <m_score__min__energy>  (3) 
-5.5199999999999996

>  <m_primary>  (3) 
energy

$$$$
3:0
     RDKit          3D

 46 48  0  0  0  0  0  0  0  0999 V2000
   56.6620   20.9590   47.3670 C   0  0  0  0  0  0  0  0  0  0  0  0
   57.0470   22.3160   47.5360 O   0  0  0  0  0  0  0  0  0  0  0  0
   56.3400   23.3790   46.9680 C   0  0  0  0  0  0  0  0  0  0  0  0
   55.5240   24.0400   47.6670 O   0  0  0  0  0  0  0  0  0  0  0  0
   56.5030   23.7140   45.5410 C   0  0  0  0  0  0  0  0  0  0  0  0
   56.2000   22.6260   44.2930 S   0  0  0  0  0  0  0  0  0  0  0  0
   56.6630   23.6290   43.0320 C   0  0  0  0  0  0  0  0  0  0  0  0
   57.0640   24.8420   43.5700 C   0  0  0  0  0  0  0  0  0  0  0  0
   56.9630   24.9100   44.9710 C   0  0  0  0  0  0  0  0  0  0  0  0
   57.3640   26.3740   45.8820 S   0  0  0  0  0  0  0  0  0  0  0  0
   56.3080   27.4140   45.6230 O   0  0  0  0  0  0  0  0  0  0  0  0
   57.3740   26.0260   47.3440 O   0  0  0  0  0  0  0  0  0  0  0  0
   58.9280   27.0190   45.4140 N   0  0  0  0  0  0  0  0  0  0  0  0
   58.7820   28.0110   44.3070 C   0  0  0  0  0  0  0  0  0  0  0  0
   59.5810   29.3020   44.5220 C   0  0  0  0  0  0  0  0  0  0  0  0
   59.2810   29.8360   45.8470 N   0  0  0  0  0  0  0  0  0  0  0  0
   59.2050   31.2540   46.0470 C   0  0  0  0  0  0  0  0  0  0  0  0
   60.1780   31.8920   46.8270 C   0  0  0  0  0  0  0  0  0  0  0  0
   60.1190   33.2690   47.0350 C   0  0  0  0  0  0  0  0  0  0  0  0
   59.0920   34.0220   46.4630 C   0  0  0  0  0  0  0  0  0  0  0  0
   58.1110   33.4020   45.6710 C   0  0  0  0  0  0  0  0  0  0  0  0
   57.0190   34.2300   45.0540 C   0  0  0  0  0  0  0  0  0  0  0  0
   58.1720   32.0070   45.4590 C   0  0  0  0  0  0  0  0  0  0  0  0
   56.9800   31.2020   44.4350 Cl  0  0  0  0  0  0  0  0  0  0  0  0
   59.2650   28.9430   47.0060 C   0  0  0  0  0  0  0  0  0  0  0  0
   59.6670   27.5170   46.6020 C   0  0  0  0  0  0  0  0  0  0  0  0
   56.5290   20.4901   48.3531 H   0  0  0  0  0  0  0  0  0  0  0  0
   55.7154   20.9132   46.8085 H   0  0  0  0  0  0  0  0  0  0  0  0
   57.4435   20.4230   46.8085 H   0  0  0  0  0  0  0  0  0  0  0  0
   56.6507   23.3696   41.9631 H   0  0  0  0  0  0  0  0  0  0  0  0
   57.4291   25.6778   42.9551 H   0  0  0  0  0  0  0  0  0  0  0  0
   59.4780   26.2070   45.0500 H   0  0  0  0  0  0  0  0  0  0  0  0
   59.1262   27.5418   43.3735 H   0  0  0  0  0  0  0  0  0  0  0  0
   57.7199   28.2946   44.2697 H   0  0  0  0  0  0  0  0  0  0  0  0
   60.6569   29.0857   44.4473 H   0  0  0  0  0  0  0  0  0  0  0  0
   59.3050   30.0401   43.7545 H   0  0  0  0  0  0  0  0  0  0  0  0
   60.9916   31.3042   47.2770 H   0  0  0  0  0  0  0  0  0  0  0  0
   60.8838   33.7638   47.6516 H   0  0  0  0  0  0  0  0  0  0  0  0
   59.0505   35.1079   46.6335 H   0  0  0  0  0  0  0  0  0  0  0  0
   56.4133   34.6893   45.8491 H   0  0  0  0  0  0  0  0  0  0  0  0
   57.4649   35.0191   44.4306 H   0  0  0  0  0  0  0  0  0  0  0  0
   56.3796   33.5877   44.4306 H   0  0  0  0  0  0  0  0  0  0  0  0
   59.9735   29.3175   47.7595 H   0  0  0  0  0  0  0  0  0  0  0  0
   58.2453   28.9183   47.4177 H   0  0  0  0  0  0  0  0  0  0  0  0
   60.7432   27.5076   46.3744 H   0  0  0  0  0  0  0  0  0  0  0  0
   59.4190   26.8547   47.4445 H   0  0  0  0  0  0  0  0  0  0  0  0
  1  2  1  0
  2  3  1  0
  3  4  2  0
  3  5  1  0
  5  6  1  0
  6  7  1  0
  7  8  2  0
  8  9  1  0
  9 10  1  0
 10 11  2  0
 10 12  2  0
 10 13  1  0
 13 14  1  0
 14 15  1  0
 15 16  1  0
 16 17  1  0
 17 18  2  0
 18 19  1  0
 19 20  2  0
 20 21  1  0
 21 22  1  0
 21 23  2  0
 23 24  1  0
 16 25  1  0
 25 26  1  0
  9  5  2  0
 26 13  1  0
 23 17  1  0
  1 27  1  0
  1 28  1  0
  1 29  1  0
  7 30  1  0
  8 31  1  0
 13 32  1  0
 14 33  1  0
 14 34  1  0
 15 35  1  0
 15 36  1  0
 18 37  1  0
 19 38  1  0
 20 39  1  0
 22 40  1  0
 22 41  1  0
 22 42  1  0
 25 43  1  0
 25 44  1  0
 26 45  1  0
 26 46  1  0
M  CHG  1  13   1
M  END
>  <UniqueID>  (4) 
4

>  <SMILES>  (4) 
COC(=O)c1sccc1S(=O)(=O)[NH+]1CCN(c2cccc(C)c2Cl)CC1

>  <Energy>  (4) 
85.32064873401735

>  <Genealogy>  (4) 
COC(=O)c1sccc1S(=O)(=O)[NH+]1CCN(c2cccc(C)c2Cl)CC1 (protonated)
COC(=O)c1sccc1S(=O)(=O)[NH+]1CCN(c2cccc(C)c2Cl)CC1 (3D coordinates assigned)
COC(=O)c1sccc1S(=O)(=O)[NH+]1CCN(c2cccc(C)c2Cl)CC1 (nonaromatic ring conformer: 85.32064873401735 kcal/mol)

>  <smiles>  (4) 
COC(=O)c1sccc1S(=O)(=O)N1CCN(c2cccc(C)c2Cl)CC1

>  <score_type>  (4) 
oracle

>  <origin>  (4) 
adg

>  <m_score__min__energy>  (4) 
-7.21

>  <m_primary>  (4) 
energy

$$$$
4:0
     RDKit          3D

 35 38  0  0  0  0  0  0  0  0999 V2000
   58.7700   27.9060   46.8090 C   0  0  0  0  0  0  0  0  0  0  0  0
   59.6730   28.8340   46.2850 C   0  0  0  0  0  0  0  0  0  0  0  0
   59.2700   29.7230   45.2840 C   0  0  0  0  0  0  0  0  0  0  0  0
   57.9480   29.6860   44.7950 C   0  0  0  0  0  0  0  0  0  0  0  0
   57.0440   28.7520   45.3370 C   0  0  0  0  0  0  0  0  0  0  0  0
   57.4580   27.8610   46.3300 C   0  0  0  0  0  0  0  0  0  0  0  0
   55.7240   28.7120   44.8700 O   0  0  0  0  0  0  0  0  0  0  0  0
   55.1930   29.7400   44.0340 C   0  0  0  0  0  0  0  0  0  0  0  0
   56.2500   30.2020   43.0310 C   0  0  0  0  0  0  0  0  0  0  0  0
   57.4860   30.5640   43.7430 N   0  0  0  0  0  0  0  0  0  0  0  0
   58.2200   31.7760   43.3540 C   0  0  0  0  0  0  0  0  0  0  0  0
   58.1750   32.7900   44.4550 C   0  0  0  0  0  0  0  0  0  0  0  0
   58.9920   32.7700   45.5300 N   0  0  0  0  0  0  0  0  0  0  0  0
   58.6040   33.8880   46.1850 C   0  0  0  0  0  0  0  0  0  0  0  0
   59.1880   34.3730   47.4810 C   0  0  0  0  0  0  0  0  0  0  0  0
   60.6660   34.0520   47.6490 C   0  0  0  0  0  0  0  0  0  0  0  0
   59.6290   33.3060   48.4760 C   0  0  0  0  0  0  0  0  0  0  0  0
   57.6490   34.5190   45.5430 O   0  0  0  0  0  0  0  0  0  0  0  0
   57.3630   33.8600   44.4640 N   0  0  0  0  0  0  0  0  0  0  0  0
   59.0916   27.2108   47.5985 H   0  0  0  0  0  0  0  0  0  0  0  0
   60.7060   28.8655   46.6617 H   0  0  0  0  0  0  0  0  0  0  0  0
   59.9856   30.4527   44.8772 H   0  0  0  0  0  0  0  0  0  0  0  0
   56.7503   27.1229   46.7355 H   0  0  0  0  0  0  0  0  0  0  0  0
   54.3203   29.3509   43.4891 H   0  0  0  0  0  0  0  0  0  0  0  0
   54.8942   30.5937   44.6600 H   0  0  0  0  0  0  0  0  0  0  0  0
   56.4616   29.3880   42.3221 H   0  0  0  0  0  0  0  0  0  0  0  0
   55.8743   31.0798   42.4848 H   0  0  0  0  0  0  0  0  0  0  0  0
   59.2677   31.5138   43.1454 H   0  0  0  0  0  0  0  0  0  0  0  0
   57.7512   32.2040   42.4556 H   0  0  0  0  0  0  0  0  0  0  0  0
   58.5547   35.2695   47.5534 H   0  0  0  0  0  0  0  0  0  0  0  0
   61.2096   33.5297   46.8479 H   0  0  0  0  0  0  0  0  0  0  0  0
   61.5676   34.6389   47.8787 H   0  0  0  0  0  0  0  0  0  0  0  0
   59.4226   32.2449   48.2723 H   0  0  0  0  0  0  0  0  0  0  0  0
   59.4700   33.1305   49.5502 H   0  0  0  0  0  0  0  0  0  0  0  0
   56.6510   34.1340   43.7510 H   0  0  0  0  0  0  0  0  0  0  0  0
  1  2  2  0
  2  3  1  0
  3  4  2  0
  4  5  1  0
  5  6  2  0
  5  7  1  0
  7  8  1  0
  8  9  1  0
  9 10  1  0
 10 11  1  0
 11 12  1  0
 12 13  1  0
 13 14  2  0
 14 15  1  0
 15 16  1  0
 16 17  1  0
 14 18  1  0
 18 19  1  0
  6  1  1  0
 19 12  2  0
 10  4  1  0
 17 15  1  0
  1 20  1  0
  2 21  1  0
  3 22  1  0
  6 23  1  0
  8 24  1  0
  8 25  1  0
  9 26  1  0
  9 27  1  0
 11 28  1  0
 11 29  1  0
 15 30  1  0
 16 31  1  0
 16 32  1  0
 17 33  1  0
 17 34  1  0
 19 35  1  0
M  CHG  1  19   1
M  END
>  <UniqueID>  (5) 
5

>  <SMILES>  (5) 
c1ccc2c(c1)OCCN2Cc1nc(C2CC2)o[nH+]1

>  <Energy>  (5) 
335.90759942152874

>  <Genealogy>  (5) 
c1ccc2c(c1)OCCN2Cc1nc(C2CC2)o[nH+]1 (protonated)
c1ccc2c(c1)OCCN2Cc1nc(C2CC2)o[nH+]1 (3D coordinates assigned)
c1ccc2c(c1)OCCN2Cc1nc(C2CC2)o[nH+]1 (nonaromatic ring conformer: 335.90759942152874 kcal/mol)

>  <smiles>  (5) 
c1ccc2c(c1)OCCN2Cc1noc(C2CC2)n1

>  <score_type>  (5) 
oracle

>  <origin>  (5) 
adg

>  <m_score__min__energy>  (5) 
-5.7300000000000004

>  <m_primary>  (5) 
energy

$$$$
5:0
     RDKit          3D

 53 56  0  0  0  0  0  0  0  0999 V2000
   57.3330   31.9580   41.6850 C   0  0  0  0  0  0  0  0  0  0  0  0
   56.6500   30.8710   42.5090 C   0  0  0  0  0  0  0  0  0  0  0  0
   57.6140   30.1810   43.3650 N   0  0  0  0  0  0  0  0  0  0  0  0
   57.2280   29.6270   44.6320 C   0  0  0  0  0  0  0  0  0  0  0  0
   56.0290   29.7140   45.0140 O   0  0  0  0  0  0  0  0  0  0  0  0
   58.2380   28.9530   45.5340 C   0  0  0  0  0  0  0  0  0  0  0  0
   58.1430   29.4600   46.9930 C   0  0  0  0  0  0  0  0  0  0  0  0
   59.2370   30.4850   47.3240 C   0  0  0  0  0  0  0  0  0  0  0  0
   60.6130   29.9650   47.1000 N   0  0  0  0  0  0  0  0  0  0  0  0
   61.5720   31.0530   46.8100 C   0  0  0  0  0  0  0  0  0  0  0  0
   61.4350   32.2030   47.7810 C   0  0  0  0  0  0  0  0  0  0  0  0
   60.5320   33.2680   47.7170 C   0  0  0  0  0  0  0  0  0  0  0  0
   59.4470   33.4740   46.7370 C   0  0  0  0  0  0  0  0  0  0  0  0
   58.0970   33.3370   47.1030 C   0  0  0  0  0  0  0  0  0  0  0  0
   57.0850   33.5570   46.1650 C   0  0  0  0  0  0  0  0  0  0  0  0
   57.4100   33.9300   44.8590 C   0  0  0  0  0  0  0  0  0  0  0  0
   58.7480   34.0920   44.4910 C   0  0  0  0  0  0  0  0  0  0  0  0
   59.7640   33.8720   45.4280 C   0  0  0  0  0  0  0  0  0  0  0  0
   60.8430   34.1920   48.6590 N   0  0  0  0  0  0  0  0  0  0  0  0
   61.9210   33.6710   49.2750 C   0  0  0  0  0  0  0  0  0  0  0  0
   62.6270   34.2720   50.3150 C   0  0  0  0  0  0  0  0  0  0  0  0
   63.7620   33.6070   50.8040 C   0  0  0  0  0  0  0  0  0  0  0  0
   64.1630   32.3820   50.2430 C   0  0  0  0  0  0  0  0  0  0  0  0
   63.4160   31.8240   49.1940 C   0  0  0  0  0  0  0  0  0  0  0  0
   62.3100   32.4890   48.7630 N   0  0  0  0  0  0  0  0  0  0  0  0
   60.7020   28.8890   46.0800 C   0  0  0  0  0  0  0  0  0  0  0  0
   59.6680   29.0600   44.9630 C   0  0  0  0  0  0  0  0  0  0  0  0
   57.7952   32.6936   42.3597 H   0  0  0  0  0  0  0  0  0  0  0  0
   58.1086   31.5043   41.0506 H   0  0  0  0  0  0  0  0  0  0  0  0
   56.5877   32.4599   41.0506 H   0  0  0  0  0  0  0  0  0  0  0  0
   55.8739   31.3307   43.1386 H   0  0  0  0  0  0  0  0  0  0  0  0
   56.2031   30.1378   41.8215 H   0  0  0  0  0  0  0  0  0  0  0  0
   58.6020   30.0830   43.0420 H   0  0  0  0  0  0  0  0  0  0  0  0
   57.9872   27.8824   45.5638 H   0  0  0  0  0  0  0  0  0  0  0  0
   57.1600   29.9310   47.1409 H   0  0  0  0  0  0  0  0  0  0  0  0
   58.2776   28.5957   47.6599 H   0  0  0  0  0  0  0  0  0  0  0  0
   59.0901   31.3709   46.6887 H   0  0  0  0  0  0  0  0  0  0  0  0
   59.1479   30.7250   48.3938 H   0  0  0  0  0  0  0  0  0  0  0  0
   62.5943   30.6522   46.8763 H   0  0  0  0  0  0  0  0  0  0  0  0
   61.3583   31.4338   45.8004 H   0  0  0  0  0  0  0  0  0  0  0  0
   57.8356   33.0550   48.1336 H   0  0  0  0  0  0  0  0  0  0  0  0
   56.0310   33.4362   46.4556 H   0  0  0  0  0  0  0  0  0  0  0  0
   56.6124   34.0963   44.1200 H   0  0  0  0  0  0  0  0  0  0  0  0
   59.0031   34.3927   43.4641 H   0  0  0  0  0  0  0  0  0  0  0  0
   60.8158   34.0115   45.1378 H   0  0  0  0  0  0  0  0  0  0  0  0
   62.3057   35.2350   50.7384 H   0  0  0  0  0  0  0  0  0  0  0  0
   64.3405   34.0463   51.6300 H   0  0  0  0  0  0  0  0  0  0  0  0
   65.0559   31.8644   50.6235 H   0  0  0  0  0  0  0  0  0  0  0  0
   63.7173   30.8724   48.7317 H   0  0  0  0  0  0  0  0  0  0  0  0
   61.7083   28.9048   45.6360 H   0  0  0  0  0  0  0  0  0  0  0  0
   60.4996   27.9315   46.5823 H   0  0  0  0  0  0  0  0  0  0  0  0
   59.7989   30.0471   44.4956 H   0  0  0  0  0  0  0  0  0  0  0  0
   59.8147   28.2662   44.2158 H   0  0  0  0  0  0  0  0  0  0  0  0
  1  2  1  0
  2  3  1  0
  3  4  1  0
  4  5  2  0
  4  6  1  0
  6  7  1  0
  7  8  1  0
  8  9  1  0
  9 10  1  0
 10 11  1  0
 11 12  2  0
 12 13  1  0
 13 14  2  0
 14 15  1  0
 15 16  2  0
 16 17  1  0
 17 18  2  0
 12 19  1  0
 19 20  2  0
 20 21  1  0
 21 22  2  0
 22 23  1  0
 23 24  2  0
 24 25  1  0
  9 26  1  0
 26 27  1  0
 27  6  1  0
 25 11  1  0
 18 13  1  0
 25 20  1  0
  1 28  1  0
  1 29  1  0
  1 30  1  0
  2 31  1  0
  2 32  1  0
  3 33  1  0
  6 34  1  0
  7 35  1  0
  7 36  1  0
  8 37  1  0
  8 38  1  0
 10 39  1  0
 10 40  1  0
 14 41  1  0
 15 42  1  0
 16 43  1  0
 17 44  1  0
 18 45  1  0
 21 46  1  0
 22 47  1  0
 23 48  1  0
 24 49  1  0
 26 50  1  0
 26 51  1  0
 27 52  1  0
 27 53  1  0
M  END
>  <UniqueID>  (6) 
6

>  <SMILES>  (6) 
CCNC(=O)C1CCN(Cc2c(-c3ccccc3)nc3ccccn23)CC1

>  <Energy>  (6) 
98.93293387805942

>  <Genealogy>  (6) 
CCNC(=O)C1CCN(Cc2c(-c3ccccc3)nc3ccccn23)CC1 (3D coordinates assigned)
CCNC(=O)C1CCN(Cc2c(-c3ccccc3)nc3ccccn23)CC1 (nonaromatic ring conformer: 98.93293387805942 kcal/mol)

>  <smiles>  (6) 
CCNC(=O)C1CCN(Cc2c(-c3ccccc3)nc3ccccn23)CC1

>  <score_type>  (6) 
oracle

>  <origin>  (6) 
adg

>  <m_score__min__energy>  (6) 
-8.8599999999999994

>  <m_primary>  (6) 
energy

$$$$
6:0
     RDKit          3D

 37 40  0  0  0  0  0  0  0  0999 V2000
   56.4830   30.2360   44.8430 O   0  0  0  0  0  0  0  0  0  0  0  0
   57.6790   30.3370   45.2300 C   0  0  0  0  0  0  0  0  0  0  0  0
   58.5450   29.2230   45.2540 C   0  0  0  0  0  0  0  0  0  0  0  0
   58.1310   27.8710   44.8080 C   0  0  0  0  0  0  0  0  0  0  0  0
   58.1450   27.5140   43.4470 C   0  0  0  0  0  0  0  0  0  0  0  0
   57.7670   26.2260   43.0500 C   0  0  0  0  0  0  0  0  0  0  0  0
   57.3820   25.2820   44.0050 C   0  0  0  0  0  0  0  0  0  0  0  0
   57.3810   25.6220   45.3590 C   0  0  0  0  0  0  0  0  0  0  0  0
   57.7590   26.9070   45.7620 C   0  0  0  0  0  0  0  0  0  0  0  0
   59.8170   29.4060   45.7210 N   0  0  0  0  0  0  0  0  0  0  0  0
   60.2510   30.5990   46.1410 N   0  0  0  0  0  0  0  0  0  0  0  0
   59.4040   31.6590   46.1270 C   0  0  0  0  0  0  0  0  0  0  0  0
   58.1600   31.5310   45.6600 N   0  0  0  0  0  0  0  0  0  0  0  0
   57.4850   32.8210   45.6790 C   0  0  0  0  0  0  0  0  0  0  0  0
   58.5520   33.8080   46.2170 C   0  0  0  0  0  0  0  0  0  0  0  0
   59.7300   32.9870   46.5010 N   0  0  0  0  0  0  0  0  0  0  0  0
   60.8480   33.4210   47.2930 C   0  0  0  0  0  0  0  0  0  0  0  0
   62.1520   33.4060   46.7690 C   0  0  0  0  0  0  0  0  0  0  0  0
   63.2340   33.8090   47.5580 C   0  0  0  0  0  0  0  0  0  0  0  0
   63.0240   34.2190   48.8770 C   0  0  0  0  0  0  0  0  0  0  0  0
   61.7330   34.2200   49.4110 C   0  0  0  0  0  0  0  0  0  0  0  0
   60.6490   33.8170   48.6250 C   0  0  0  0  0  0  0  0  0  0  0  0
   58.4546   28.2508   42.6912 H   0  0  0  0  0  0  0  0  0  0  0  0
   57.7731   25.9566   41.9835 H   0  0  0  0  0  0  0  0  0  0  0  0
   57.0800   24.2721   43.6906 H   0  0  0  0  0  0  0  0  0  0  0  0
   57.0821   24.8771   46.1112 H   0  0  0  0  0  0  0  0  0  0  0  0
   57.7653   27.1650   46.8313 H   0  0  0  0  0  0  0  0  0  0  0  0
   61.2400   30.7010   46.4540 H   0  0  0  0  0  0  0  0  0  0  0  0
   57.1653   33.1077   44.6663 H   0  0  0  0  0  0  0  0  0  0  0  0
   56.5758   32.8088   46.2981 H   0  0  0  0  0  0  0  0  0  0  0  0
   58.7875   34.5708   45.4603 H   0  0  0  0  0  0  0  0  0  0  0  0
   58.2008   34.3440   47.1110 H   0  0  0  0  0  0  0  0  0  0  0  0
   62.3223   33.0758   45.7336 H   0  0  0  0  0  0  0  0  0  0  0  0
   64.2514   33.8032   47.1397 H   0  0  0  0  0  0  0  0  0  0  0  0
   63.8751   34.5410   49.4950 H   0  0  0  0  0  0  0  0  0  0  0  0
   61.5691   34.5382   50.4511 H   0  0  0  0  0  0  0  0  0  0  0  0
   59.6355   33.8102   49.0525 H   0  0  0  0  0  0  0  0  0  0  0  0
  1  2  2  0
  2  3  1  0
  3  4  1  0
  4  5  2  0
  5  6  1  0
  6  7  2  0
  7  8  1  0
  8  9  2  0
  3 10  2  0
 10 11  1  0
 11 12  2  0
 12 13  1  0
 13 14  1  0
 14 15  1  0
 15 16  1  0
 16 17  1  0
 17 18  2  0
 18 19  1  0
 19 20  2  0
 20 21  1  0
 21 22  2  0
 13  2  1  0
 22 17  1  0
  9  4  1  0
 16 12  1  0
  5 23  1  0
  6 24  1  0
  7 25  1  0
  8 26  1  0
  9 27  1  0
 11 28  1  0
 14 29  1  0
 14 30  1  0
 15 31  1  0
 15 32  1  0
 18 33  1  0
 19 34  1  0
 20 35  1  0
 21 36  1  0
 22 37  1  0
M  CHG  1  11   1
M  END
>  <UniqueID>  (7) 
7

>  <SMILES>  (7) 
O=c1c(-c2ccccc2)n[nH+]c2n1CCN2c1ccccc1

>  <Energy>  (7) 
69.19532284981447

>  <Genealogy>  (7) 
O=c1c(-c2ccccc2)n[nH+]c2n1CCN2c1ccccc1 (protonated)
O=c1c(-c2ccccc2)n[nH+]c2n1CCN2c1ccccc1 (3D coordinates assigned)
O=c1c(-c2ccccc2)n[nH+]c2n1CCN2c1ccccc1 (nonaromatic ring conformer: 69.19532284981447 kcal/mol)

>  <smiles>  (7) 
O=c1c(-c2ccccc2)nnc2n1CCN2c1ccccc1

>  <score_type>  (7) 
oracle

>  <origin>  (7) 
adg

>  <m_score__min__energy>  (7) 
-6.2599999999999998

>  <m_primary>  (7) 
energy

$$$$
7:0
     RDKit          3D

 43 45  0  0  0  0  0  0  0  0999 V2000
   60.1420   29.6200   48.6110 C   0  0  0  0  0  0  0  0  0  0  0  0
   59.1240   30.1520   49.6170 C   0  0  0  0  0  0  0  0  0  0  0  0
   58.9720   31.9340   49.5350 S   0  0  0  0  0  0  0  0  0  0  0  0
   57.7470   32.3330   50.3100 O   0  0  0  0  0  0  0  0  0  0  0  0
   60.1740   32.5890   50.1560 O   0  0  0  0  0  0  0  0  0  0  0  0
   58.8170   32.4710   47.8660 C   0  0  0  0  0  0  0  0  0  0  0  0
   59.0770   33.8000   47.5050 C   0  0  0  0  0  0  0  0  0  0  0  0
   58.9480   34.1870   46.1680 C   0  0  0  0  0  0  0  0  0  0  0  0
   58.5670   33.2490   45.2080 C   0  0  0  0  0  0  0  0  0  0  0  0
   58.4150   33.6130   43.9060 N   0  0  0  0  0  0  0  0  0  0  0  0
   58.0280   32.7180   42.9590 C   0  0  0  0  0  0  0  0  0  0  0  0
   57.7750   31.3880   43.3050 C   0  0  0  0  0  0  0  0  0  0  0  0
   57.9340   30.9700   44.6360 C   0  0  0  0  0  0  0  0  0  0  0  0
   57.6660   29.5580   45.0030 C   0  0  0  0  0  0  0  0  0  0  0  0
   58.7120   28.6570   45.2370 C   0  0  0  0  0  0  0  0  0  0  0  0
   58.4410   27.3820   45.6150 N   0  0  0  0  0  0  0  0  0  0  0  0
   57.1600   26.9450   45.7560 C   0  0  0  0  0  0  0  0  0  0  0  0
   56.8830   25.5400   46.2550 C   0  0  0  0  0  0  0  0  0  0  0  0
   57.2640   24.4940   45.1880 C   0  0  0  0  0  0  0  0  0  0  0  0
   57.7060   25.3000   47.5270 C   0  0  0  0  0  0  0  0  0  0  0  0
   55.5200   25.3970   46.5820 O   0  0  0  0  0  0  0  0  0  0  0  0
   56.1290   27.8070   45.5340 N   0  0  0  0  0  0  0  0  0  0  0  0
   56.3540   29.0900   45.1500 C   0  0  0  0  0  0  0  0  0  0  0  0
   58.3280   31.9170   45.6020 C   0  0  0  0  0  0  0  0  0  0  0  0
   58.4550   31.5730   46.9130 N   0  0  0  0  0  0  0  0  0  0  0  0
   60.9920   29.1758   49.1496 H   0  0  0  0  0  0  0  0  0  0  0  0
   59.6677   28.8545   47.9793 H   0  0  0  0  0  0  0  0  0  0  0  0
   60.4997   30.4465   47.9793 H   0  0  0  0  0  0  0  0  0  0  0  0
   58.1437   29.7013   49.4029 H   0  0  0  0  0  0  0  0  0  0  0  0
   59.4712   29.8858   50.6262 H   0  0  0  0  0  0  0  0  0  0  0  0
   59.3801   34.5326   48.2675 H   0  0  0  0  0  0  0  0  0  0  0  0
   59.1463   35.2281   45.8736 H   0  0  0  0  0  0  0  0  0  0  0  0
   57.9133   33.0426   41.9142 H   0  0  0  0  0  0  0  0  0  0  0  0
   57.4521   30.6702   42.5365 H   0  0  0  0  0  0  0  0  0  0  0  0
   59.7553   28.9832   45.1142 H   0  0  0  0  0  0  0  0  0  0  0  0
   57.6002   23.5710   45.6830 H   0  0  0  0  0  0  0  0  0  0  0  0
   56.3879   24.2750   44.5599 H   0  0  0  0  0  0  0  0  0  0  0  0
   58.0757   24.8898   44.5599 H   0  0  0  0  0  0  0  0  0  0  0  0
   57.0771   25.4834   48.4107 H   0  0  0  0  0  0  0  0  0  0  0  0
   58.0641   24.2600   47.5413 H   0  0  0  0  0  0  0  0  0  0  0  0
   58.5670   25.9845   47.5413 H   0  0  0  0  0  0  0  0  0  0  0  0
   55.1530   26.3030   46.7590 H   0  0  0  0  0  0  0  0  0  0  0  0
   55.5055   29.7621   44.9543 H   0  0  0  0  0  0  0  0  0  0  0  0
  1  2  1  0
  2  3  1  0
  3  4  2  0
  3  5  2  0
  3  6  1  0
  6  7  2  0
  7  8  1  0
  8  9  2  0
  9 10  1  0
 10 11  2  0
 11 12  1  0
 12 13  2  0
 13 14  1  0
 14 15  2  0
 15 16  1  0
 16 17  2  0
 17 18  1  0
 18 19  1  0
 18 20  1  0
 18 21  1  0
 17 22  1  0
 22 23  2  0
 13 24  1  0
 24 25  2  0
 25  6  1  0
 24  9  1  0
 23 14  1  0
  1 26  1  0
  1 27  1  0
  1 28  1  0
  2 29  1  0
  2 30  1  0
  7 31  1  0
  8 32  1  0
 11 33  1  0
 12 34  1  0
 15 35  1  0
 19 36  1  0
 19 37  1  0
 19 38  1  0
 20 39  1  0
 20 40  1  0
 20 41  1  0
 21 42  1  0
 23 43  1  0
M  END
>  <UniqueID>  (8) 
8

>  <SMILES>  (8) 
CCS(=O)(=O)c1ccc2nccc(-c3cnc(C(C)(C)O)nc3)c2n1

>  <Energy>  (8) 
47.76886770392809

>  <Genealogy>  (8) 
CCS(=O)(=O)c1ccc2nccc(-c3cnc(C(C)(C)O)nc3)c2n1 (3D coordinates assigned)
CCS(=O)(=O)c1ccc2nccc(-c3cnc(C(C)(C)O)nc3)c2n1 (optimized conformer: 47.76886770392809 kcal/mol)

>  <smiles>  (8) 
CCS(=O)(=O)c1ccc2nccc(-c3cnc(C(C)(C)O)nc3)c2n1

>  <score_type>  (8) 
oracle

>  <origin>  (8) 
adg

>  <m_score__min__energy>  (8) 
-8.3300000000000001

>  <m_primary>  (8) 
energy

$$$$
8:0
     RDKit          3D

 50 52  0  0  0  0  0  0  0  0999 V2000
   55.6570   25.7170   45.9560 C   0  0  0  0  0  0  0  0  0  0  0  0
   55.6870   27.1090   45.6570 O   0  0  0  0  0  0  0  0  0  0  0  0
   56.8430   27.8200   45.3040 C   0  0  0  0  0  0  0  0  0  0  0  0
   57.9390   27.1020   44.8110 C   0  0  0  0  0  0  0  0  0  0  0  0
   59.1140   27.7630   44.4490 C   0  0  0  0  0  0  0  0  0  0  0  0
   59.2050   29.1510   44.5720 C   0  0  0  0  0  0  0  0  0  0  0  0
   58.1150   29.8930   45.0570 C   0  0  0  0  0  0  0  0  0  0  0  0
   58.2160   31.3660   45.1930 C   0  0  0  0  0  0  0  0  0  0  0  0
   58.6830   31.9180   46.3980 C   0  0  0  0  0  0  0  0  0  0  0  0
   58.7910   33.3090   46.5650 C   0  0  0  0  0  0  0  0  0  0  0  0
   59.2770   33.8640   47.8510 C   0  0  0  0  0  0  0  0  0  0  0  0
   59.8410   34.9920   47.8610 O   0  0  0  0  0  0  0  0  0  0  0  0
   59.1040   33.1460   49.0850 N   0  0  0  0  0  0  0  0  0  0  0  0
   59.6530   33.6260   50.3520 C   0  0  0  0  0  0  0  0  0  0  0  0
   60.9660   32.9060   50.6740 C   0  0  0  0  0  0  0  0  0  0  0  0
   61.8320   32.8110   49.4470 C   0  0  0  0  0  0  0  0  0  0  0  0
   61.8290   31.6440   48.6660 C   0  0  0  0  0  0  0  0  0  0  0  0
   62.6100   31.5680   47.5080 C   0  0  0  0  0  0  0  0  0  0  0  0
   63.3900   32.6600   47.1180 C   0  0  0  0  0  0  0  0  0  0  0  0
   63.3880   33.8300   47.8840 C   0  0  0  0  0  0  0  0  0  0  0  0
   62.6090   33.9090   49.0410 C   0  0  0  0  0  0  0  0  0  0  0  0
   58.4020   34.1500   45.5110 C   0  0  0  0  0  0  0  0  0  0  0  0
   57.9430   33.6140   44.3070 C   0  0  0  0  0  0  0  0  0  0  0  0
   57.8530   32.2210   44.1300 C   0  0  0  0  0  0  0  0  0  0  0  0
   57.4270   31.6580   42.9150 O   0  0  0  0  0  0  0  0  0  0  0  0
   57.6470   32.2370   41.6330 C   0  0  0  0  0  0  0  0  0  0  0  0
   56.9370   29.2200   45.4290 C   0  0  0  0  0  0  0  0  0  0  0  0
   55.6540   25.5763   47.0470 H   0  0  0  0  0  0  0  0  0  0  0  0
   54.7490   25.2691   45.5260 H   0  0  0  0  0  0  0  0  0  0  0  0
   56.5449   25.2304   45.5260 H   0  0  0  0  0  0  0  0  0  0  0  0
   57.8738   26.0088   44.7081 H   0  0  0  0  0  0  0  0  0  0  0  0
   59.9705   27.1890   44.0658 H   0  0  0  0  0  0  0  0  0  0  0  0
   60.1346   29.6659   44.2878 H   0  0  0  0  0  0  0  0  0  0  0  0
   58.9687   31.2502   47.2241 H   0  0  0  0  0  0  0  0  0  0  0  0
   58.5550   32.2590   49.1010 H   0  0  0  0  0  0  0  0  0  0  0  0
   59.8415   34.7072   50.2785 H   0  0  0  0  0  0  0  0  0  0  0  0
   58.9287   33.4213   51.1542 H   0  0  0  0  0  0  0  0  0  0  0  0
   61.5036   33.4657   51.4536 H   0  0  0  0  0  0  0  0  0  0  0  0
   60.7362   31.8894   51.0258 H   0  0  0  0  0  0  0  0  0  0  0  0
   61.2098   30.7858   48.9661 H   0  0  0  0  0  0  0  0  0  0  0  0
   62.6102   30.6485   46.9042 H   0  0  0  0  0  0  0  0  0  0  0  0
   64.0056   32.5992   46.2084 H   0  0  0  0  0  0  0  0  0  0  0  0
   64.0009   34.6896   47.5750 H   0  0  0  0  0  0  0  0  0  0  0  0
   62.6039   34.8340   49.6362 H   0  0  0  0  0  0  0  0  0  0  0  0
   58.4594   35.2415   45.6350 H   0  0  0  0  0  0  0  0  0  0  0  0
   57.6487   34.2871   43.4883 H   0  0  0  0  0  0  0  0  0  0  0  0
   58.0353   33.2590   41.7540 H   0  0  0  0  0  0  0  0  0  0  0  0
   58.3774   31.6306   41.0773 H   0  0  0  0  0  0  0  0  0  0  0  0
   56.6982   32.2687   41.0773 H   0  0  0  0  0  0  0  0  0  0  0  0
   56.0825   29.7915   45.8206 H   0  0  0  0  0  0  0  0  0  0  0  0
  1  2  1  0
  2  3  1  0
  3  4  2  0
  4  5  1  0
  5  6  2  0
  6  7  1  0
  7  8  1  0
  8  9  2  0
  9 10  1  0
 10 11  1  0
 11 12  2  0
 11 13  1  0
 13 14  1  0
 14 15  1  0
 15 16  1  0
 16 17  2  0
 17 18  1  0
 18 19  2  0
 19 20  1  0
 20 21  2  0
 10 22  2  0
 22 23  1  0
 23 24  2  0
 24 25  1  0
 25 26  1  0
  7 27  2  0
 27  3  1  0
 24  8  1  0
 21 16  1  0
  1 28  1  0
  1 29  1  0
  1 30  1  0
  4 31  1  0
  5 32  1  0
  6 33  1  0
  9 34  1  0
 13 35  1  0
 14 36  1  0
 14 37  1  0
 15 38  1  0
 15 39  1  0
 17 40  1  0
 18 41  1  0
 19 42  1  0
 20 43  1  0
 21 44  1  0
 22 45  1  0
 23 46  1  0
 26 47  1  0
 26 48  1  0
 26 49  1  0
 27 50  1  0
M  END
>  <UniqueID>  (9) 
9

>  <SMILES>  (9) 
COc1cccc(-c2cc(C(=O)NCCc3ccccc3)ccc2OC)c1

>  <Energy>  (9) 
55.44542113958845

>  <Genealogy>  (9) 
COc1cccc(-c2cc(C(=O)NCCc3ccccc3)ccc2OC)c1 (3D coordinates assigned)
COc1cccc(-c2cc(C(=O)NCCc3ccccc3)ccc2OC)c1 (optimized conformer: 55.44542113958845 kcal/mol)

>  <smiles>  (9) 
COc1cccc(-c2cc(C(=O)NCCc3ccccc3)ccc2OC)c1

>  <score_type>  (9) 
oracle

>  <origin>  (9) 
adg

>  <m_score__min__energy>  (9) 
-8.2400000000000002

>  <m_primary>  (9) 
energy

$$$$
9:0
     RDKit          3D

 42 44  0  0  0  0  0  0  0  0999 V2000
   59.7100   33.8190   50.4350 C   0  0  0  0  0  0  0  0  0  0  0  0
   60.3360   34.2900   49.2460 O   0  0  0  0  0  0  0  0  0  0  0  0
   61.6110   33.8990   48.8020 C   0  0  0  0  0  0  0  0  0  0  0  0
   62.6390   33.5700   49.7070 C   0  0  0  0  0  0  0  0  0  0  0  0
   63.8950   33.1780   49.2400 C   0  0  0  0  0  0  0  0  0  0  0  0
   64.1420   33.1060   47.8700 C   0  0  0  0  0  0  0  0  0  0  0  0
   63.1340   33.4310   46.9600 C   0  0  0  0  0  0  0  0  0  0  0  0
   61.8670   33.8360   47.4130 C   0  0  0  0  0  0  0  0  0  0  0  0
   60.8030   34.2050   46.4000 C   0  0  0  0  0  0  0  0  0  0  0  0
   59.5040   34.5310   47.0250 N   0  0  0  0  0  0  0  0  0  0  0  0
   58.3580   34.5510   46.0950 C   0  0  0  0  0  0  0  0  0  0  0  0
   58.0380   33.1960   45.5050 C   0  0  0  0  0  0  0  0  0  0  0  0
   57.5640   32.9780   44.2110 C   0  0  0  0  0  0  0  0  0  0  0  0
   57.4230   31.6140   44.1010 C   0  0  0  0  0  0  0  0  0  0  0  0
   57.0270   30.8380   43.0140 C   0  0  0  0  0  0  0  0  0  0  0  0
   57.0000   29.4420   43.1780 C   0  0  0  0  0  0  0  0  0  0  0  0
   57.3690   28.8610   44.4090 C   0  0  0  0  0  0  0  0  0  0  0  0
   57.7640   29.6690   45.4910 C   0  0  0  0  0  0  0  0  0  0  0  0
   57.7760   31.0570   45.3040 C   0  0  0  0  0  0  0  0  0  0  0  0
   58.1260   32.0200   46.1840 N   0  0  0  0  0  0  0  0  0  0  0  0
   58.5670   31.8390   47.5690 C   0  0  0  0  0  0  0  0  0  0  0  0
   60.2408   34.2184   51.3118 H   0  0  0  0  0  0  0  0  0  0  0  0
   58.6628   34.1551   50.4559 H   0  0  0  0  0  0  0  0  0  0  0  0
   59.7428   32.7197   50.4559 H   0  0  0  0  0  0  0  0  0  0  0  0
   62.4509   33.6223   50.7895 H   0  0  0  0  0  0  0  0  0  0  0  0
   64.6918   32.9253   49.9551 H   0  0  0  0  0  0  0  0  0  0  0  0
   65.1315   32.7930   47.5056 H   0  0  0  0  0  0  0  0  0  0  0  0
   63.3333   33.3695   45.8800 H   0  0  0  0  0  0  0  0  0  0  0  0
   61.1485   35.0806   45.8309 H   0  0  0  0  0  0  0  0  0  0  0  0
   60.6474   33.3309   45.7506 H   0  0  0  0  0  0  0  0  0  0  0  0
   59.3040   33.8290   47.7760 H   0  0  0  0  0  0  0  0  0  0  0  0
   59.5830   35.4620   47.4970 H   0  0  0  0  0  0  0  0  0  0  0  0
   57.4732   34.9114   46.6401 H   0  0  0  0  0  0  0  0  0  0  0  0
   58.6303   35.2123   45.2592 H   0  0  0  0  0  0  0  0  0  0  0  0
   57.3489   33.7352   43.4427 H   0  0  0  0  0  0  0  0  0  0  0  0
   56.7444   31.3027   42.0579 H   0  0  0  0  0  0  0  0  0  0  0  0
   56.6892   28.7991   42.3413 H   0  0  0  0  0  0  0  0  0  0  0  0
   57.3478   27.7672   44.5241 H   0  0  0  0  0  0  0  0  0  0  0  0
   58.0545   29.2242   46.4542 H   0  0  0  0  0  0  0  0  0  0  0  0
   57.7702   32.1660   48.2532 H   0  0  0  0  0  0  0  0  0  0  0  0
   58.7900   30.7766   47.7469 H   0  0  0  0  0  0  0  0  0  0  0  0
   59.4720   32.4384   47.7469 H   0  0  0  0  0  0  0  0  0  0  0  0
  1  2  1  0
  2  3  1  0
  3  4  2  0
  4  5  1  0
  5  6  2  0
  6  7  1  0
  7  8  2  0
  8  9  1  0
  9 10  1  0
 10 11  1  0
 11 12  1  0
 12 13  2  0
 13 14  1  0
 14 15  2  0
 15 16  1  0
 16 17  2  0
 17 18  1  0
 18 19  2  0
 19 20  1  0
 20 21  1  0
  8  3  1  0
 20 12  1  0
 19 14  1  0
  1 22  1  0
  1 23  1  0
  1 24  1  0
  4 25  1  0
  5 26  1  0
  6 27  1  0
  7 28  1  0
  9 29  1  0
  9 30  1  0
 10 31  1  0
 10 32  1  0
 11 33  1  0
 11 34  1  0
 13 35  1  0
 15 36  1  0
 16 37  1  0
 17 38  1  0
 18 39  1  0
 21 40  1  0
 21 41  1  0
 21 42  1  0
M  CHG  1  10   1
M  END
>  <UniqueID>  (10) 
10

>  <SMILES>  (10) 
COc1ccccc1C[NH2+]Cc1cc2ccccc2n1C

>  <Energy>  (10) 
76.52467561465221

>  <Genealogy>  (10) 
COc1ccccc1C[NH2+]Cc1cc2ccccc2n1C (protonated)
COc1ccccc1C[NH2+]Cc1cc2ccccc2n1C (3D coordinates assigned)
COc1ccccc1C[NH2+]Cc1cc2ccccc2n1C (optimized conformer: 76.52467561465221 kcal/mol)

>  <smiles>  (10) 
COc1ccccc1CNCc1cc2ccccc2n1C

>  <score_type>  (10) 
oracle

>  <origin>  (10) 
adg

>  <m_score__min__energy>  (10) 
-5.5199999999999996

>  <m_primary>  (10) 
energy

$$$$
10:0
     RDKit          3D

 39 41  0  0  1  0  0  0  0  0999 V2000
   58.5660   27.2810   45.0020 C   0  0  0  0  0  0  0  0  0  0  0  0
   58.1800   27.5100   46.3230 O   0  0  0  0  0  0  0  0  0  0  0  0
   59.0460   27.8240   47.3370 C   0  0  0  0  0  0  0  0  0  0  0  0
   59.5330   26.7560   48.0930 C   0  0  0  0  0  0  0  0  0  0  0  0
   60.4080   26.9670   49.1340 C   0  0  0  0  0  0  0  0  0  0  0  0
   60.7760   28.2680   49.3900 C   0  0  0  0  0  0  0  0  0  0  0  0
   60.2950   29.3140   48.6440 C   0  0  0  0  0  0  0  0  0  0  0  0
   59.4010   29.1260   47.5770 C   0  0  0  0  0  0  0  0  0  0  0  0
   58.9480   30.2810   46.8480 C   0  0  0  0  0  0  0  0  0  0  0  0
   59.6630   31.4330   47.0010 N   0  0  0  0  0  0  0  0  0  0  0  0
   59.3500   32.5820   46.3840 C   0  0  0  0  0  0  0  0  0  0  0  0
   60.0860   33.6690   46.5920 N   0  0  0  0  0  0  0  0  0  0  0  0
   59.7320   34.8090   45.9710 C   0  0  0  0  0  0  0  0  0  0  0  0
   58.6630   34.9410   45.1350 C   0  0  0  0  0  0  0  0  0  0  0  0
   57.8670   33.7980   44.8990 C   0  0  0  0  0  0  0  0  0  0  0  0
   58.2550   32.6640   45.5360 C   0  0  0  0  0  0  0  0  0  0  0  0
   57.5450   31.5030   45.3810 C   0  0  0  0  0  0  0  0  0  0  0  0
   56.6570   31.4260   44.5010 N   0  0  0  0  0  0  0  0  0  0  0  0
   56.6420   30.8080   43.2250 C   0  0  0  0  0  0  0  0  0  0  0  0
   56.1340   29.3790   43.6880 C   0  0  0  0  0  0  0  0  0  0  0  0
   55.3430   29.6560   44.8690 N   0  0  0  0  0  0  0  0  0  0  0  0
   57.8990   30.3640   46.0280 N   0  0  0  0  0  0  0  0  0  0  0  0
   59.5120   26.7198   44.9885 H   0  0  0  0  0  0  0  0  0  0  0  0
   57.7869   26.6989   44.4880 H   0  0  0  0  0  0  0  0  0  0  0  0
   58.7034   28.2438   44.4880 H   0  0  0  0  0  0  0  0  0  0  0  0
   59.2127   25.7314   47.8531 H   0  0  0  0  0  0  0  0  0  0  0  0
   60.7964   26.1319   49.7354 H   0  0  0  0  0  0  0  0  0  0  0  0
   61.4742   28.4747   50.2145 H   0  0  0  0  0  0  0  0  0  0  0  0
   60.6207   30.3355   48.8900 H   0  0  0  0  0  0  0  0  0  0  0  0
   60.3508   35.7004   46.1511 H   0  0  0  0  0  0  0  0  0  0  0  0
   58.4283   35.9051   44.6602 H   0  0  0  0  0  0  0  0  0  0  0  0
   56.9870   33.8254   44.2396 H   0  0  0  0  0  0  0  0  0  0  0  0
   55.9411   31.2965   42.5321 H   0  0  0  0  0  0  0  0  0  0  0  0
   57.5878   30.8291   42.6637 H   0  0  0  0  0  0  0  0  0  0  0  0
   55.5186   28.9102   42.9060 H   0  0  0  0  0  0  0  0  0  0  0  0
   56.9592   28.6788   43.8849 H   0  0  0  0  0  0  0  0  0  0  0  0
   55.9050   29.7250   45.7420 H   0  0  0  0  0  0  0  0  0  0  0  0
   54.6930   30.4520   44.7500 H   0  0  0  0  0  0  0  0  0  0  0  0
   57.3150   29.5270   45.8710 H   0  0  0  0  0  0  0  0  0  0  0  0
  1  2  1  0
  2  3  1  0
  3  4  2  0
  4  5  1  0
  5  6  2  0
  6  7  1  0
  7  8  2  0
  8  9  1  0
  9 10  2  0
 10 11  1  0
 11 12  2  0
 12 13  1  0
 13 14  2  0
 14 15  1  0
 15 16  2  0
 16 17  1  0
 17 18  2  0
 18 19  1  0
 19 20  1  0
 20 21  1  0
 17 22  1  0
  8  3  1  0
 22  9  1  0
 16 11  1  0
  1 23  1  0
  1 24  1  0
  1 25  1  0
  4 26  1  0
  5 27  1  0
  6 28  1  0
  7 29  1  0
 13 30  1  0
 14 31  1  0
 15 32  1  0
 19 33  1  0
 19 34  1  0
 20 35  1  0
 20 36  1  0
 21 37  1  0
 21 38  1  0
 22 39  1  0
M  END
>  <smiles>  (11) 
COc1ccccc1-c1nc2ncccc2c(=NCCN)[nH]1

>  <score_type>  (11) 
oracle

>  <origin>  (11) 
adg

>  <m_score__min__energy>  (11) 
-6.6500000000000004

>  <m_primary>  (11) 
energy

$$$$
11:0
     RDKit          3D

 36 38  0  0  0  0  0  0  0  0999 V2000
   60.0380   34.7170   47.3230 C   0  0  0  0  0  0  0  0  0  0  0  0
   59.0760   33.8160   46.6050 C   0  0  0  0  0  0  0  0  0  0  0  0
   58.3120   34.3080   45.5360 C   0  0  0  0  0  0  0  0  0  0  0  0
   57.4440   33.4590   44.8420 C   0  0  0  0  0  0  0  0  0  0  0  0
   57.3270   32.1090   45.2130 C   0  0  0  0  0  0  0  0  0  0  0  0
   56.4700   31.2060   44.5010 N   0  0  0  0  0  0  0  0  0  0  0  0
   56.3110   29.8040   44.7570 C   0  0  0  0  0  0  0  0  0  0  0  0
   55.1450   29.3350   44.8590 O   0  0  0  0  0  0  0  0  0  0  0  0
   57.4920   28.8760   44.8660 C   0  0  0  0  0  0  0  0  0  0  0  0
   57.4570   28.0820   46.1740 C   0  0  0  0  0  0  0  0  0  0  0  0
   56.9130   26.7520   45.9320 N   0  0  0  0  0  0  0  0  0  0  0  0
   55.7520   26.3240   46.4010 N   0  0  0  0  0  0  0  0  0  0  0  0
   55.5300   25.1020   45.9450 N   0  0  0  0  0  0  0  0  0  0  0  0
   56.6020   24.8210   45.1760 C   0  0  0  0  0  0  0  0  0  0  0  0
   56.7870   23.5590   44.4490 C   0  0  0  0  0  0  0  0  0  0  0  0
   57.7400   22.5890   44.7310 C   0  0  0  0  0  0  0  0  0  0  0  0
   57.6780   21.4900   43.8660 C   0  0  0  0  0  0  0  0  0  0  0  0
   56.6790   21.5920   42.9050 C   0  0  0  0  0  0  0  0  0  0  0  0
   55.8740   23.0520   43.1320 S   0  0  0  0  0  0  0  0  0  0  0  0
   57.4750   25.8460   45.1500 N   0  0  0  0  0  0  0  0  0  0  0  0
   58.1250   31.6100   46.2490 C   0  0  0  0  0  0  0  0  0  0  0  0
   58.9930   32.4580   46.9440 C   0  0  0  0  0  0  0  0  0  0  0  0
   59.9109   34.5980   48.4091 H   0  0  0  0  0  0  0  0  0  0  0  0
   61.0680   34.4512   47.0430 H   0  0  0  0  0  0  0  0  0  0  0  0
   59.8401   35.7622   47.0430 H   0  0  0  0  0  0  0  0  0  0  0  0
   58.3960   35.3649   45.2428 H   0  0  0  0  0  0  0  0  0  0  0  0
   56.8505   33.8498   44.0023 H   0  0  0  0  0  0  0  0  0  0  0  0
   57.4748   28.1734   44.0198 H   0  0  0  0  0  0  0  0  0  0  0  0
   58.4109   29.4805   44.8515 H   0  0  0  0  0  0  0  0  0  0  0  0
   58.4780   27.9914   46.5732 H   0  0  0  0  0  0  0  0  0  0  0  0
   56.8193   28.6077   46.9000 H   0  0  0  0  0  0  0  0  0  0  0  0
   58.4690   22.6754   45.5502 H   0  0  0  0  0  0  0  0  0  0  0  0
   58.3561   20.6270   43.9399 H   0  0  0  0  0  0  0  0  0  0  0  0
   56.4533   20.8459   42.1289 H   0  0  0  0  0  0  0  0  0  0  0  0
   58.0691   30.5449   46.5180 H   0  0  0  0  0  0  0  0  0  0  0  0
   59.6131   32.0581   47.7598 H   0  0  0  0  0  0  0  0  0  0  0  0
  1  2  1  0
  2  3  2  0
  3  4  1  0
  4  5  2  0
  5  6  1  0
  6  7  1  0
  7  8  2  0
  7  9  1  0
  9 10  1  0
 10 11  1  0
 11 12  1  0
 12 13  2  0
 13 14  1  0
 14 15  1  0
 15 16  2  0
 16 17  1  0
 17 18  2  0
 18 19  1  0
 14 20  2  0
  5 21  1  0
 21 22  2  0
 22  2  1  0
 20 11  1  0
 19 15  1  0
  1 23  1  0
  1 24  1  0
  1 25  1  0
  3 26  1  0
  4 27  1  0
  9 28  1  0
  9 29  1  0
 10 30  1  0
 10 31  1  0
 16 32  1  0
 17 33  1  0
 18 34  1  0
 21 35  1  0
 22 36  1  0
M  CHG  1   6  -1
M  END
>  <UniqueID>  (12) 
11

>  <SMILES>  (12) 
Cc1ccc([N-]C(=O)CCn2nnc(-c3cccs3)n2)cc1

>  <Energy>  (12) 
102.1502909548644

>  <Genealogy>  (12) 
Cc1ccc([N-]C(=O)CCn2nnc(-c3cccs3)n2)cc1 (protonated)
Cc1ccc([N-]C(=O)CCn2nnc(-c3cccs3)n2)cc1 (3D coordinates assigned)
Cc1ccc([N-]C(=O)CCn2nnc(-c3cccs3)n2)cc1 (optimized conformer: 102.1502909548644 kcal/mol)

>  <smiles>  (12) 
Cc1ccc(NC(=O)CCn2nnc(-c3cccs3)n2)cc1

>  <score_type>  (12) 
oracle

>  <origin>  (12) 
adg

>  <m_score__min__energy>  (12) 
-10.460000000000001

>  <m_primary>  (12) 
energy

$$$$
12:0
     RDKit          3D

 28 30  0  0  0  0  0  0  0  0999 V2000
   56.5540   29.4390   42.8880 O   0  0  0  0  0  0  0  0  0  0  0  0
   56.5380   29.5510   44.3860 S   0  0  0  0  0  0  0  0  0  0  0  0
   55.1460   29.3460   44.9140 O   0  0  0  0  0  0  0  0  0  0  0  0
   57.1120   31.1040   44.8560 N   0  0  0  0  0  0  0  0  0  0  0  0
   58.2700   31.2880   45.6780 C   0  0  0  0  0  0  0  0  0  0  0  0
   58.6630   32.6820   46.0110 C   0  0  0  0  0  0  0  0  0  0  0  0
   58.8580   33.6520   45.0080 C   0  0  0  0  0  0  0  0  0  0  0  0
   59.2430   34.9540   45.3460 C   0  0  0  0  0  0  0  0  0  0  0  0
   59.4460   35.3000   46.6840 C   0  0  0  0  0  0  0  0  0  0  0  0
   59.2690   34.3430   47.6860 C   0  0  0  0  0  0  0  0  0  0  0  0
   58.8850   33.0410   47.3540 C   0  0  0  0  0  0  0  0  0  0  0  0
   59.0060   30.2450   46.1190 C   0  0  0  0  0  0  0  0  0  0  0  0
   58.7180   28.8080   45.8570 C   0  0  0  0  0  0  0  0  0  0  0  0
   59.5790   27.8400   46.4050 C   0  0  0  0  0  0  0  0  0  0  0  0
   59.3500   26.4780   46.1880 C   0  0  0  0  0  0  0  0  0  0  0  0
   58.2600   26.0650   45.4220 C   0  0  0  0  0  0  0  0  0  0  0  0
   57.3950   27.0130   44.8700 C   0  0  0  0  0  0  0  0  0  0  0  0
   57.6210   28.3790   45.0850 C   0  0  0  0  0  0  0  0  0  0  0  0
   58.7065   33.3839   43.9520 H   0  0  0  0  0  0  0  0  0  0  0  0
   59.3861   35.7066   44.5566 H   0  0  0  0  0  0  0  0  0  0  0  0
   59.7449   36.3251   46.9483 H   0  0  0  0  0  0  0  0  0  0  0  0
   59.4323   34.6150   48.7393 H   0  0  0  0  0  0  0  0  0  0  0  0
   58.7552   32.2910   48.1481 H   0  0  0  0  0  0  0  0  0  0  0  0
   59.8949   30.4773   46.7239 H   0  0  0  0  0  0  0  0  0  0  0  0
   60.4409   28.1577   47.0102 H   0  0  0  0  0  0  0  0  0  0  0  0
   60.0306   25.7308   46.6221 H   0  0  0  0  0  0  0  0  0  0  0  0
   58.0815   24.9929   45.2525 H   0  0  0  0  0  0  0  0  0  0  0  0
   56.5356   26.6867   44.2659 H   0  0  0  0  0  0  0  0  0  0  0  0
  1  2  2  0
  2  3  2  0
  2  4  1  0
  4  5  1  0
  5  6  1  0
  6  7  2  0
  7  8  1  0
  8  9  2  0
  9 10  1  0
 10 11  2  0
  5 12  2  0
 12 13  1  0
 13 14  2  0
 14 15  1  0
 15 16  2  0
 16 17  1  0
 17 18  2  0
 18  2  1  0
 11  6  1  0
 18 13  1  0
  7 19  1  0
  8 20  1  0
  9 21  1  0
 10 22  1  0
 11 23  1  0
 12 24  1  0
 14 25  1  0
 15 26  1  0
 16 27  1  0
 17 28  1  0
M  CHG  1   4  -1
M  END
>  <UniqueID>  (13) 
12

>  <SMILES>  (13) 
O=S1(=O)[N-]C(c2ccccc2)=Cc2ccccc21

>  <Energy>  (13) 
41.21095893962834

>  <Genealogy>  (13) 
O=S1(=O)[N-]C(c2ccccc2)=Cc2ccccc21 (protonated)
O=S1(=O)[N-]C(c2ccccc2)=Cc2ccccc21 (3D coordinates assigned)
O=S1(=O)[N-]C(c2ccccc2)=Cc2ccccc21 (nonaromatic ring conformer: 41.21095893962834 kcal/mol)

>  <smiles>  (13) 
O=S1(=O)NC(c2ccccc2)=Cc2ccccc21

>  <score_type>  (13) 
oracle

>  <origin>  (13) 
adg

>  <m_score__min__energy>  (13) 
-9.5199999999999996

>  <m_primary>  (13) 
energy

$$$$
13:0
     RDKit          3D

 49 52  0  0  0  0  0  0  0  0999 V2000
   54.1470   24.3090   45.7310 C   0  0  0  0  0  0  0  0  0  0  0  0
   55.4330   24.9750   45.9860 N   0  0  0  0  0  0  0  0  0  0  0  0
   56.0060   24.5210   47.2740 C   0  0  0  0  0  0  0  0  0  0  0  0
   57.5240   24.7300   47.3080 C   0  0  0  0  0  0  0  0  0  0  0  0
   58.2010   23.9030   46.2830 N   0  0  0  0  0  0  0  0  0  0  0  0
   59.5420   24.4440   45.9810 C   0  0  0  0  0  0  0  0  0  0  0  0
   59.5540   25.9420   46.1420 C   0  0  0  0  0  0  0  0  0  0  0  0
   60.1880   26.5220   47.2490 C   0  0  0  0  0  0  0  0  0  0  0  0
   60.2140   27.9110   47.4040 C   0  0  0  0  0  0  0  0  0  0  0  0
   59.5990   28.7480   46.4520 C   0  0  0  0  0  0  0  0  0  0  0  0
   59.6170   30.1850   46.5910 N   0  0  0  0  0  0  0  0  0  0  0  0
   58.5420   31.0100   46.6750 C   0  0  0  0  0  0  0  0  0  0  0  0
   59.0190   32.2930   46.7940 C   0  0  0  0  0  0  0  0  0  0  0  0
   58.3670   33.5110   46.9440 C   0  0  0  0  0  0  0  0  0  0  0  0
   59.1620   34.6600   47.0810 C   0  0  0  0  0  0  0  0  0  0  0  0
   60.5730   34.5640   47.0620 C   0  0  0  0  0  0  0  0  0  0  0  0
   61.2140   33.3140   46.8900 C   0  0  0  0  0  0  0  0  0  0  0  0
   62.6920   33.2230   46.8750 C   0  0  0  0  0  0  0  0  0  0  0  0
   63.3670   31.9860   47.1130 N   0  0  0  0  0  0  0  0  0  0  0  0
   63.3750   34.2520   46.6220 O   0  0  0  0  0  0  0  0  0  0  0  0
   60.3830   32.1900   46.7670 C   0  0  0  0  0  0  0  0  0  0  0  0
   60.7400   30.8960   46.6500 N   0  0  0  0  0  0  0  0  0  0  0  0
   58.9690   28.1590   45.3410 C   0  0  0  0  0  0  0  0  0  0  0  0
   58.9440   26.7700   45.1890 C   0  0  0  0  0  0  0  0  0  0  0  0
   57.3870   23.6990   45.0550 C   0  0  0  0  0  0  0  0  0  0  0  0
   56.3590   24.8220   44.8360 C   0  0  0  0  0  0  0  0  0  0  0  0
   53.6666   24.0602   46.6888 H   0  0  0  0  0  0  0  0  0  0  0  0
   53.4932   24.9818   45.1567 H   0  0  0  0  0  0  0  0  0  0  0  0
   54.3192   23.3867   45.1567 H   0  0  0  0  0  0  0  0  0  0  0  0
   55.5463   25.0934   48.0932 H   0  0  0  0  0  0  0  0  0  0  0  0
   55.7990   23.4467   47.3886 H   0  0  0  0  0  0  0  0  0  0  0  0
   57.7446   25.7905   47.1166 H   0  0  0  0  0  0  0  0  0  0  0  0
   57.8951   24.4296   48.2990 H   0  0  0  0  0  0  0  0  0  0  0  0
   60.2754   23.9998   46.6701 H   0  0  0  0  0  0  0  0  0  0  0  0
   59.8005   24.1954   44.9411 H   0  0  0  0  0  0  0  0  0  0  0  0
   60.6687   25.8796   48.0015 H   0  0  0  0  0  0  0  0  0  0  0  0
   60.7183   28.3538   48.2756 H   0  0  0  0  0  0  0  0  0  0  0  0
   57.4847   30.7073   46.6520 H   0  0  0  0  0  0  0  0  0  0  0  0
   57.2688   33.5726   46.9550 H   0  0  0  0  0  0  0  0  0  0  0  0
   58.6837   35.6429   47.2041 H   0  0  0  0  0  0  0  0  0  0  0  0
   61.1804   35.4732   47.1825 H   0  0  0  0  0  0  0  0  0  0  0  0
   62.8520   31.0790   47.1330 H   0  0  0  0  0  0  0  0  0  0  0  0
   64.4090   31.9620   47.1630 H   0  0  0  0  0  0  0  0  0  0  0  0
   58.4911   28.7982   44.5840 H   0  0  0  0  0  0  0  0  0  0  0  0
   58.4431   26.3240   44.3171 H   0  0  0  0  0  0  0  0  0  0  0  0
   58.0613   23.6639   44.1867 H   0  0  0  0  0  0  0  0  0  0  0  0
   56.8321   22.7568   45.1747 H   0  0  0  0  0  0  0  0  0  0  0  0
   56.8975   25.7697   44.6878 H   0  0  0  0  0  0  0  0  0  0  0  0
   55.7570   24.5577   43.9541 H   0  0  0  0  0  0  0  0  0  0  0  0
  1  2  1  0
  2  3  1  0
  3  4  1  0
  4  5  1  0
  5  6  1  0
  6  7  1  0
  7  8  2  0
  8  9  1  0
  9 10  2  0
 10 11  1  0
 11 12  1  0
 12 13  2  0
 13 14  1  0
 14 15  2  0
 15 16  1  0
 16 17  2  0
 17 18  1  0
 18 19  1  0
 18 20  2  0
 17 21  1  0
 21 22  2  0
 10 23  1  0
 23 24  2  0
  5 25  1  0
 25 26  1  0
 26  2  1  0
 24  7  1  0
 22 11  1  0
 21 13  1  0
  1 27  1  0
  1 28  1  0
  1 29  1  0
  3 30  1  0
  3 31  1  0
  4 32  1  0
  4 33  1  0
  6 34  1  0
  6 35  1  0
  8 36  1  0
  9 37  1  0
 12 38  1  0
 14 39  1  0
 15 40  1  0
 16 41  1  0
 19 42  1  0
 19 43  1  0
 23 44  1  0
 24 45  1  0
 25 46  1  0
 25 47  1  0
 26 48  1  0
 26 49  1  0
M  END
>  <UniqueID>  (14) 
13

>  <SMILES>  (14) 
CN1CCN(Cc2ccc(-n3cc4cccc(C(N)=O)c4n3)cc2)CC1

>  <Energy>  (14) 
106.56242886001897

>  <Genealogy>  (14) 
CN1CCN(Cc2ccc(-n3cc4cccc(C(N)=O)c4n3)cc2)CC1 (3D coordinates assigned)
CN1CCN(Cc2ccc(-n3cc4cccc(C(N)=O)c4n3)cc2)CC1 (nonaromatic ring conformer: 106.56242886001897 kcal/mol)

>  <smiles>  (14) 
CN1CCN(Cc2ccc(-n3cc4cccc(C(N)=O)c4n3)cc2)CC1

>  <score_type>  (14) 
oracle

>  <origin>  (14) 
adg

>  <m_score__min__energy>  (14) 
-8.1400000000000006

>  <m_primary>  (14) 
energy

$$$$
14:0
     RDKit          3D

 57 59  0  0  0  0  0  0  0  0999 V2000
   57.9360   32.3320   42.1420 C   0  0  0  0  0  0  0  0  0  0  0  0
   58.5090   31.8740   43.3680 O   0  0  0  0  0  0  0  0  0  0  0  0
   58.3900   32.5320   44.6080 C   0  0  0  0  0  0  0  0  0  0  0  0
   58.3880   33.9400   44.6800 C   0  0  0  0  0  0  0  0  0  0  0  0
   58.2500   34.5850   45.9060 C   0  0  0  0  0  0  0  0  0  0  0  0
   58.1120   33.8400   47.0750 C   0  0  0  0  0  0  0  0  0  0  0  0
   58.1100   32.4460   47.0260 C   0  0  0  0  0  0  0  0  0  0  0  0
   58.2650   31.7650   45.8000 C   0  0  0  0  0  0  0  0  0  0  0  0
   58.2530   30.2260   45.7320 C   0  0  1  0  0  0  0  0  0  0  0  0
   58.8350   29.5350   46.9590 C   0  0  0  0  0  0  0  0  0  0  0  0
   58.1400   28.6850   47.5800 O   0  0  0  0  0  0  0  0  0  0  0  0
   60.1600   29.8500   47.4540 N   0  0  0  0  0  0  0  0  0  0  0  0
   60.4460   29.6920   48.8900 C   0  0  0  0  0  0  0  0  0  0  0  0
   59.6140   30.6290   49.7310 C   0  0  0  0  0  0  0  0  0  0  0  0
   58.5070   30.1490   50.4520 C   0  0  0  0  0  0  0  0  0  0  0  0
   57.7670   31.0130   51.2650 C   0  0  0  0  0  0  0  0  0  0  0  0
   58.1180   32.3610   51.3570 C   0  0  0  0  0  0  0  0  0  0  0  0
   59.2060   32.8510   50.6320 C   0  0  0  0  0  0  0  0  0  0  0  0
   59.9500   31.9900   49.8190 C   0  0  0  0  0  0  0  0  0  0  0  0
   61.2260   30.3650   46.5720 C   0  0  0  0  0  0  0  0  0  0  0  0
   61.8470   31.6160   47.1380 C   0  0  0  0  0  0  0  0  0  0  0  0
   61.2790   32.8760   46.8750 C   0  0  0  0  0  0  0  0  0  0  0  0
   61.8360   34.0310   47.4350 C   0  0  0  0  0  0  0  0  0  0  0  0
   62.9680   33.9390   48.2510 C   0  0  0  0  0  0  0  0  0  0  0  0
   63.5510   32.6940   48.5000 C   0  0  0  0  0  0  0  0  0  0  0  0
   62.9990   31.5360   47.9410 C   0  0  0  0  0  0  0  0  0  0  0  0
   56.9320   29.6530   45.3610 N   0  0  0  0  0  0  0  0  0  0  0  0
   56.1900   30.4130   44.3400 C   0  0  0  0  0  0  0  0  0  0  0  0
   57.0320   28.2330   44.9770 C   0  0  0  0  0  0  0  0  0  0  0  0
   57.0938   33.0052   42.3598 H   0  0  0  0  0  0  0  0  0  0  0  0
   58.6973   32.8733   41.5611 H   0  0  0  0  0  0  0  0  0  0  0  0
   57.5758   31.4701   41.5611 H   0  0  0  0  0  0  0  0  0  0  0  0
   58.4963   34.5336   43.7603 H   0  0  0  0  0  0  0  0  0  0  0  0
   58.2499   35.6841   45.9517 H   0  0  0  0  0  0  0  0  0  0  0  0
   58.0041   34.3537   48.0417 H   0  0  0  0  0  0  0  0  0  0  0  0
   57.9860   31.8702   47.9550 H   0  0  0  0  0  0  0  0  0  0  0  0
   58.9418   30.0048   44.9034 H   0  0  0  0  0  0  0  0  0  0  0  0
   60.2247   28.6559   49.1857 H   0  0  0  0  0  0  0  0  0  0  0  0
   61.5066   29.9315   49.0569 H   0  0  0  0  0  0  0  0  0  0  0  0
   58.2217   29.0893   50.3763 H   0  0  0  0  0  0  0  0  0  0  0  0
   56.9066   30.6298   51.8332 H   0  0  0  0  0  0  0  0  0  0  0  0
   57.5371   33.0376   52.0011 H   0  0  0  0  0  0  0  0  0  0  0  0
   59.4781   33.9146   50.7003 H   0  0  0  0  0  0  0  0  0  0  0  0
   60.8032   32.3808   49.2452 H   0  0  0  0  0  0  0  0  0  0  0  0
   62.0047   29.5956   46.4638 H   0  0  0  0  0  0  0  0  0  0  0  0
   60.7818   30.6086   45.5956 H   0  0  0  0  0  0  0  0  0  0  0  0
   60.3937   32.9534   46.2267 H   0  0  0  0  0  0  0  0  0  0  0  0
   61.3828   35.0128   47.2331 H   0  0  0  0  0  0  0  0  0  0  0  0
   63.3995   34.8472   48.6970 H   0  0  0  0  0  0  0  0  0  0  0  0
   64.4454   32.6239   49.1365 H   0  0  0  0  0  0  0  0  0  0  0  0
   63.4679   30.5591   48.1304 H   0  0  0  0  0  0  0  0  0  0  0  0
   55.5033   31.1164   44.8336 H   0  0  0  0  0  0  0  0  0  0  0  0
   56.8990   30.9724   43.7121 H   0  0  0  0  0  0  0  0  0  0  0  0
   55.6137   29.7176   43.7121 H   0  0  0  0  0  0  0  0  0  0  0  0
   57.0758   27.6104   45.8828 H   0  0  0  0  0  0  0  0  0  0  0  0
   56.1515   27.9515   44.3809 H   0  0  0  0  0  0  0  0  0  0  0  0
   57.9433   28.0777   44.3809 H   0  0  0  0  0  0  0  0  0  0  0  0
  1  2  1  0
  2  3  1  0
  3  4  2  0
  4  5  1  0
  5  6  2  0
  6  7  1  0
  7  8  2  0
  8  9  1  0
  9 10  1  0
 10 11  2  0
 10 12  1  0
 12 13  1  0
 13 14  1  0
 14 15  2  0
 15 16  1  0
 16 17  2  0
 17 18  1  0
 18 19  2  0
 12 20  1  0
 20 21  1  0
 21 22  2  0
 22 23  1  0
 23 24  2  0
 24 25  1  0
 25 26  2  0
  9 27  1  0
 27 28  1  0
 27 29  1  0
  8  3  1  0
 19 14  1  0
 26 21  1  0
  1 30  1  0
  1 31  1  0
  1 32  1  0
  4 33  1  0
  5 34  1  0
  6 35  1  0
  7 36  1  0
  9 37  1  6
 13 38  1  0
 13 39  1  0
 15 40  1  0
 16 41  1  0
 17 42  1  0
 18 43  1  0
 19 44  1  0
 20 45  1  0
 20 46  1  0
 22 47  1  0
 23 48  1  0
 24 49  1  0
 25 50  1  0
 26 51  1  0
 28 52  1  0
 28 53  1  0
 28 54  1  0
 29 55  1  0
 29 56  1  0
 29 57  1  0
M  END
>  <UniqueID>  (15) 
14

>  <SMILES>  (15) 
COc1ccccc1[C@@H](C(=O)N(Cc1ccccc1)Cc1ccccc1)N(C)C

>  <Energy>  (15) 
66.69090637492657

>  <Genealogy>  (15) 
COc1ccccc1[C@@H](C(=O)N(Cc1ccccc1)Cc1ccccc1)N(C)C (chirality)
COc1ccccc1[C@@H](C(=O)N(Cc1ccccc1)Cc1ccccc1)N(C)C (3D coordinates assigned)
COc1ccccc1[C@@H](C(=O)N(Cc1ccccc1)Cc1ccccc1)N(C)C (optimized conformer: 66.69090637492657 kcal/mol)

>  <smiles>  (15) 
COc1ccccc1C(C(=O)N(Cc1ccccc1)Cc1ccccc1)N(C)C

>  <score_type>  (15) 
oracle

>  <origin>  (15) 
adg

>  <m_score__min__energy>  (15) 
-8.0199999999999996

>  <m_primary>  (15) 
energy

$$$$
15:0
     RDKit          3D

 28 29  0  0  0  0  0  0  0  0999 V2000
   57.7690   32.3000   41.7730 C   0  0  0  0  0  0  0  0  0  0  0  0
   57.2520   31.2260   42.5490 O   0  0  0  0  0  0  0  0  0  0  0  0
   57.0200   31.3330   43.9240 C   0  0  0  0  0  0  0  0  0  0  0  0
   56.1960   30.5680   44.4960 O   0  0  0  0  0  0  0  0  0  0  0  0
   57.7450   32.3440   44.7010 C   0  0  0  0  0  0  0  0  0  0  0  0
   58.7640   32.1060   45.5970 C   0  0  0  0  0  0  0  0  0  0  0  0
   59.1540   33.2930   46.1010 N   0  0  0  0  0  0  0  0  0  0  0  0
   60.1920   33.5280   47.0750 C   0  0  0  0  0  0  0  0  0  0  0  0
   61.5450   33.3270   46.7450 C   0  0  0  0  0  0  0  0  0  0  0  0
   62.5490   33.5560   47.6900 C   0  0  0  0  0  0  0  0  0  0  0  0
   62.2210   34.0020   48.9770 C   0  0  0  0  0  0  0  0  0  0  0  0
   63.2970   34.2080   50.0020 C   0  0  0  0  0  0  0  0  0  0  0  0
   60.8740   34.1860   49.3190 C   0  0  0  0  0  0  0  0  0  0  0  0
   59.8690   33.9590   48.3750 C   0  0  0  0  0  0  0  0  0  0  0  0
   58.3680   34.2140   45.5010 C   0  0  0  0  0  0  0  0  0  0  0  0
   57.4910   33.6660   44.6340 N   0  0  0  0  0  0  0  0  0  0  0  0
   58.1477   33.0867   42.4421 H   0  0  0  0  0  0  0  0  0  0  0  0
   58.5888   31.9324   41.1384 H   0  0  0  0  0  0  0  0  0  0  0  0
   56.9703   32.7115   41.1384 H   0  0  0  0  0  0  0  0  0  0  0  0
   59.1841   31.1226   45.8548 H   0  0  0  0  0  0  0  0  0  0  0  0
   61.8149   32.9866   45.7344 H   0  0  0  0  0  0  0  0  0  0  0  0
   63.6021   33.3852   47.4219 H   0  0  0  0  0  0  0  0  0  0  0  0
   62.8641   34.1251   51.0098 H   0  0  0  0  0  0  0  0  0  0  0  0
   64.0768   33.4428   49.8739 H   0  0  0  0  0  0  0  0  0  0  0  0
   63.7390   35.2071   49.8739 H   0  0  0  0  0  0  0  0  0  0  0  0
   60.6069   34.5107   50.3355 H   0  0  0  0  0  0  0  0  0  0  0  0
   58.8161   34.1186   48.6506 H   0  0  0  0  0  0  0  0  0  0  0  0
   58.4357   35.2941   45.6981 H   0  0  0  0  0  0  0  0  0  0  0  0
  1  2  1  0
  2  3  1  0
  3  4  2  0
  3  5  1  0
  5  6  2  0
  6  7  1  0
  7  8  1  0
  8  9  2  0
  9 10  1  0
 10 11  2  0
 11 12  1  0
 11 13  1  0
 13 14  2  0
  7 15  1  0
 15 16  2  0
 16  5  1  0
 14  8  1  0
  1 17  1  0
  1 18  1  0
  1 19  1  0
  6 20  1  0
  9 21  1  0
 10 22  1  0
 12 23  1  0
 12 24  1  0
 12 25  1  0
 13 26  1  0
 14 27  1  0
 15 28  1  0
M  END
>  <UniqueID>  (16) 
15

>  <SMILES>  (16) 
COC(=O)c1cn(-c2ccc(C)cc2)cn1

>  <Energy>  (16) 
57.05819402798877

>  <Genealogy>  (16) 
COC(=O)c1cn(-c2ccc(C)cc2)cn1 (3D coordinates assigned)
COC(=O)c1cn(-c2ccc(C)cc2)cn1 (optimized conformer: 57.05819402798877 kcal/mol)

>  <smiles>  (16) 
COC(=O)c1cn(-c2ccc(C)cc2)cn1

>  <score_type>  (16) 
oracle

>  <origin>  (16) 
adg

>  <m_score__min__energy>  (16) 
-5.6100000000000003

>  <m_primary>  (16) 
energy

$$$$
16:0
     RDKit          3D

 32 33  0  0  0  0  0  0  0  0999 V2000
   58.1770   32.7330   47.6700 C   0  0  0  0  0  0  0  0  0  0  0  0
   58.7280   32.4060   46.2860 C   0  0  0  0  0  0  0  0  0  0  0  0
   57.7570   32.8270   45.2470 N   0  0  0  0  0  0  0  0  0  0  0  0
   57.9000   34.2530   44.8710 C   0  0  0  0  0  0  0  0  0  0  0  0
   59.2650   34.8540   45.2360 C   0  0  0  0  0  0  0  0  0  0  0  0
   57.7420   31.9340   44.0670 C   0  0  0  0  0  0  0  0  0  0  0  0
   57.0030   30.6710   44.3760 C   0  0  0  0  0  0  0  0  0  0  0  0
   55.6500   30.4650   44.2180 C   0  0  0  0  0  0  0  0  0  0  0  0
   55.3880   29.2560   44.6470 O   0  0  0  0  0  0  0  0  0  0  0  0
   56.5230   28.7350   45.0590 C   0  0  0  0  0  0  0  0  0  0  0  0
   56.6450   27.3870   45.6170 C   0  0  0  0  0  0  0  0  0  0  0  0
   57.8280   26.7080   45.8360 C   0  0  0  0  0  0  0  0  0  0  0  0
   57.4610   25.4900   46.3660 C   0  0  0  0  0  0  0  0  0  0  0  0
   56.0810   25.5020   46.4380 C   0  0  0  0  0  0  0  0  0  0  0  0
   55.6250   26.6460   45.9840 O   0  0  0  0  0  0  0  0  0  0  0  0
   57.5700   29.5760   44.9170 N   0  0  0  0  0  0  0  0  0  0  0  0
   58.8539   32.3313   48.4384 H   0  0  0  0  0  0  0  0  0  0  0  0
   58.0982   33.8241   47.7849 H   0  0  0  0  0  0  0  0  0  0  0  0
   57.1815   32.2794   47.7849 H   0  0  0  0  0  0  0  0  0  0  0  0
   59.6781   32.9395   46.1357 H   0  0  0  0  0  0  0  0  0  0  0  0
   58.8959   31.3216   46.2085 H   0  0  0  0  0  0  0  0  0  0  0  0
   57.7616   34.3408   43.7833 H   0  0  0  0  0  0  0  0  0  0  0  0
   57.1408   34.8123   45.4374 H   0  0  0  0  0  0  0  0  0  0  0  0
   59.3653   34.8982   46.3305 H   0  0  0  0  0  0  0  0  0  0  0  0
   60.0657   34.2252   44.8195 H   0  0  0  0  0  0  0  0  0  0  0  0
   59.3419   35.8692   44.8195 H   0  0  0  0  0  0  0  0  0  0  0  0
   57.2465   32.4480   43.2302 H   0  0  0  0  0  0  0  0  0  0  0  0
   58.7785   31.6831   43.7972 H   0  0  0  0  0  0  0  0  0  0  0  0
   54.9246   31.1829   43.8077 H   0  0  0  0  0  0  0  0  0  0  0  0
   58.8481   27.0645   45.6306 H   0  0  0  0  0  0  0  0  0  0  0  0
   58.1315   24.6728   46.6704 H   0  0  0  0  0  0  0  0  0  0  0  0
   55.4592   24.6780   46.8180 H   0  0  0  0  0  0  0  0  0  0  0  0
  1  2  1  0
  2  3  1  0
  3  4  1  0
  4  5  1  0
  3  6  1  0
  6  7  1  0
  7  8  2  0
  8  9  1  0
  9 10  1  0
 10 11  1  0
 11 12  2  0
 12 13  1  0
 13 14  2  0
 14 15  1  0
 10 16  2  0
 16  7  1  0
 15 11  1  0
  1 17  1  0
  1 18  1  0
  1 19  1  0
  2 20  1  0
  2 21  1  0
  4 22  1  0
  4 23  1  0
  5 24  1  0
  5 25  1  0
  5 26  1  0
  6 27  1  0
  6 28  1  0
  8 29  1  0
 12 30  1  0
 13 31  1  0
 14 32  1  0
M  END
>  <UniqueID>  (17) 
16

>  <SMILES>  (17) 
CCN(CC)Cc1coc(-c2ccco2)n1

>  <Energy>  (17) 
85.75575832248221

>  <Genealogy>  (17) 
CCN(CC)Cc1coc(-c2ccco2)n1 (3D coordinates assigned)
CCN(CC)Cc1coc(-c2ccco2)n1 (optimized conformer: 85.75575832248221 kcal/mol)

>  <smiles>  (17) 
CCN(CC)Cc1coc(-c2ccco2)n1

>  <score_type>  (17) 
oracle

>  <origin>  (17) 
adg

>  <m_score__min__energy>  (17) 
-5.9100000000000001

>  <m_primary>  (17) 
energy

$$$$
17:0
     RDKit          3D

 48 50  0  0  0  0  0  0  0  0999 V2000
   56.8260   30.0270   43.7060 C   0  0  0  0  0  0  0  0  0  0  0  0
   56.9360   30.5590   45.0210 O   0  0  0  0  0  0  0  0  0  0  0  0
   57.7190   31.6720   45.3690 C   0  0  0  0  0  0  0  0  0  0  0  0
   57.2960   32.9930   45.1200 C   0  0  0  0  0  0  0  0  0  0  0  0
   58.0900   34.0760   45.5090 C   0  0  0  0  0  0  0  0  0  0  0  0
   59.3080   33.8550   46.1540 C   0  0  0  0  0  0  0  0  0  0  0  0
   59.7400   32.5500   46.4050 C   0  0  0  0  0  0  0  0  0  0  0  0
   58.9570   31.4550   46.0050 C   0  0  0  0  0  0  0  0  0  0  0  0
   59.4130   30.1170   46.2630 N   0  0  0  0  0  0  0  0  0  0  0  0
   59.4040   29.5940   47.6320 C   0  0  0  0  0  0  0  0  0  0  0  0
   59.6460   28.0770   47.6310 C   0  0  0  0  0  0  0  0  0  0  0  0
   58.9060   27.4160   46.5340 N   0  0  0  0  0  0  0  0  0  0  0  0
   57.4400   27.4740   46.7360 C   0  0  0  0  0  0  0  0  0  0  0  0
   56.7110   26.7830   45.5830 C   0  0  0  0  0  0  0  0  0  0  0  0
   55.3840   26.3590   46.0210 N   0  0  0  0  0  0  0  0  0  0  0  0
   54.8310   25.0530   45.8110 C   0  0  0  0  0  0  0  0  0  0  0  0
   53.6230   24.9560   45.4640 O   0  0  0  0  0  0  0  0  0  0  0  0
   55.6160   23.8210   46.0320 C   0  0  0  0  0  0  0  0  0  0  0  0
   55.7420   22.8750   45.0050 C   0  0  0  0  0  0  0  0  0  0  0  0
   56.4980   21.7190   45.2110 C   0  0  0  0  0  0  0  0  0  0  0  0
   57.1340   21.5260   46.4400 C   0  0  0  0  0  0  0  0  0  0  0  0
   58.0900   20.0850   46.7250 Cl  0  0  0  0  0  0  0  0  0  0  0  0
   57.0230   22.4640   47.4180 N   0  0  0  0  0  0  0  0  0  0  0  0
   56.2880   23.5950   47.2440 C   0  0  0  0  0  0  0  0  0  0  0  0
   59.3190   27.8930   45.1850 C   0  0  0  0  0  0  0  0  0  0  0  0
   59.9600   29.2960   45.1800 C   0  0  0  0  0  0  0  0  0  0  0  0
   56.6036   28.9512   43.7631 H   0  0  0  0  0  0  0  0  0  0  0  0
   56.0152   30.5411   43.1691 H   0  0  0  0  0  0  0  0  0  0  0  0
   57.7742   30.1774   43.1691 H   0  0  0  0  0  0  0  0  0  0  0  0
   56.3349   33.1732   44.6163 H   0  0  0  0  0  0  0  0  0  0  0  0
   57.7544   35.1038   45.3065 H   0  0  0  0  0  0  0  0  0  0  0  0
   59.9282   34.7087   46.4649 H   0  0  0  0  0  0  0  0  0  0  0  0
   60.6979   32.3796   46.9183 H   0  0  0  0  0  0  0  0  0  0  0  0
   60.1977   30.0866   48.2128 H   0  0  0  0  0  0  0  0  0  0  0  0
   58.4216   29.7968   48.0835 H   0  0  0  0  0  0  0  0  0  0  0  0
   60.7218   27.8857   47.5039 H   0  0  0  0  0  0  0  0  0  0  0  0
   59.2886   27.6675   48.5873 H   0  0  0  0  0  0  0  0  0  0  0  0
   57.1847   26.9694   47.6795 H   0  0  0  0  0  0  0  0  0  0  0  0
   57.1281   28.5282   46.7723 H   0  0  0  0  0  0  0  0  0  0  0  0
   56.6112   27.4842   44.7414 H   0  0  0  0  0  0  0  0  0  0  0  0
   57.2874   25.9019   45.2645 H   0  0  0  0  0  0  0  0  0  0  0  0
   55.2458   23.0432   44.0378 H   0  0  0  0  0  0  0  0  0  0  0  0
   56.5919   20.9675   44.4132 H   0  0  0  0  0  0  0  0  0  0  0  0
   56.2198   24.3349   48.0551 H   0  0  0  0  0  0  0  0  0  0  0  0
   60.0483   27.1789   44.7748 H   0  0  0  0  0  0  0  0  0  0  0  0
   58.4032   27.9614   44.5796 H   0  0  0  0  0  0  0  0  0  0  0  0
   61.0472   29.1972   45.3151 H   0  0  0  0  0  0  0  0  0  0  0  0
   59.7386   29.7835   44.2191 H   0  0  0  0  0  0  0  0  0  0  0  0
  1  2  1  0
  2  3  1  0
  3  4  2  0
  4  5  1  0
  5  6  2  0
  6  7  1  0
  7  8  2  0
  8  9  1  0
  9 10  1  0
 10 11  1  0
 11 12  1  0
 12 13  1  0
 13 14  1  0
 14 15  1  0
 15 16  1  0
 16 17  2  0
 16 18  1  0
 18 19  2  0
 19 20  1  0
 20 21  2  0
 21 22  1  0
 21 23  1  0
 23 24  2  0
 12 25  1  0
 25 26  1  0
  8  3  1  0
 26  9  1  0
 24 18  1  0
  1 27  1  0
  1 28  1  0
  1 29  1  0
  4 30  1  0
  5 31  1  0
  6 32  1  0
  7 33  1  0
 10 34  1  0
 10 35  1  0
 11 36  1  0
 11 37  1  0
 13 38  1  0
 13 39  1  0
 14 40  1  0
 14 41  1  0
 19 42  1  0
 20 43  1  0
 24 44  1  0
 25 45  1  0
 25 46  1  0
 26 47  1  0
 26 48  1  0
M  CHG  1  15  -1
M  END
>  <UniqueID>  (18) 
17

>  <SMILES>  (18) 
COc1ccccc1N1CCN(CC[N-]C(=O)c2ccc(Cl)nc2)CC1

>  <Energy>  (18) 
63.94958335724694

>  <Genealogy>  (18) 
COc1ccccc1N1CCN(CC[N-]C(=O)c2ccc(Cl)nc2)CC1 (protonated)
COc1ccccc1N1CCN(CC[N-]C(=O)c2ccc(Cl)nc2)CC1 (3D coordinates assigned)
COc1ccccc1N1CCN(CC[N-]C(=O)c2ccc(Cl)nc2)CC1 (nonaromatic ring conformer: 63.94958335724694 kcal/mol)

>  <smiles>  (18) 
COc1ccccc1N1CCN(CCNC(=O)c2ccc(Cl)nc2)CC1

>  <score_type>  (18) 
oracle

>  <origin>  (18) 
adg

>  <m_score__min__energy>  (18) 
-9.6099999999999994

>  <m_primary>  (18) 
energy

$$$$
18:0
     RDKit          3D

 45 47  0  0  0  0  0  0  0  0999 V2000
   57.7720   28.2600   46.2300 C   0  0  0  0  0  0  0  0  0  0  0  0
   57.6710   29.3450   45.1920 C   0  0  0  0  0  0  0  0  0  0  0  0
   56.9980   29.0770   43.9880 C   0  0  0  0  0  0  0  0  0  0  0  0
   56.9220   30.0470   42.9860 C   0  0  0  0  0  0  0  0  0  0  0  0
   57.5150   31.2970   43.1760 C   0  0  0  0  0  0  0  0  0  0  0  0
   58.1690   31.5860   44.3750 C   0  0  0  0  0  0  0  0  0  0  0  0
   58.2300   30.6310   45.4010 C   0  0  0  0  0  0  0  0  0  0  0  0
   58.8970   30.9730   46.6250 N   0  0  0  0  0  0  0  0  0  0  0  0
   60.2280   30.5230   46.9240 C   0  0  0  0  0  0  0  0  0  0  0  0
   60.7540   29.6220   46.2140 O   0  0  0  0  0  0  0  0  0  0  0  0
   60.9620   31.0780   48.0380 N   0  0  0  0  0  0  0  0  0  0  0  0
   62.3980   31.3620   47.9240 C   0  0  0  0  0  0  0  0  0  0  0  0
   62.6190   32.6530   47.1210 C   0  0  0  0  0  0  0  0  0  0  0  0
   61.8610   33.8570   47.7090 C   0  0  0  0  0  0  0  0  0  0  0  0
   60.4410   33.5900   48.0080 N   0  0  0  0  0  0  0  0  0  0  0  0
   59.4240   33.9150   47.0320 C   0  0  0  0  0  0  0  0  0  0  0  0
   59.7410   34.6090   45.8490 C   0  0  0  0  0  0  0  0  0  0  0  0
   58.7310   34.9010   44.9300 C   0  0  0  0  0  0  0  0  0  0  0  0
   57.4210   34.5010   45.1870 C   0  0  0  0  0  0  0  0  0  0  0  0
   57.1370   33.8070   46.3630 C   0  0  0  0  0  0  0  0  0  0  0  0
   58.1330   33.5310   47.2460 N   0  0  0  0  0  0  0  0  0  0  0  0
   60.0290   32.9880   49.2860 C   0  0  0  0  0  0  0  0  0  0  0  0
   60.2610   31.4750   49.2670 C   0  0  0  0  0  0  0  0  0  0  0  0
   57.7303   28.7079   47.2338 H   0  0  0  0  0  0  0  0  0  0  0  0
   56.9355   27.5563   46.1074 H   0  0  0  0  0  0  0  0  0  0  0  0
   58.7240   27.7228   46.1074 H   0  0  0  0  0  0  0  0  0  0  0  0
   56.5271   28.0950   43.8333 H   0  0  0  0  0  0  0  0  0  0  0  0
   56.3946   29.8262   42.0463 H   0  0  0  0  0  0  0  0  0  0  0  0
   57.4667   32.0547   42.3800 H   0  0  0  0  0  0  0  0  0  0  0  0
   58.6401   32.5699   44.5164 H   0  0  0  0  0  0  0  0  0  0  0  0
   58.3190   31.3720   47.3950 H   0  0  0  0  0  0  0  0  0  0  0  0
   62.8262   31.4816   48.9302 H   0  0  0  0  0  0  0  0  0  0  0  0
   62.8900   30.5264   47.4046 H   0  0  0  0  0  0  0  0  0  0  0  0
   63.6946   32.8835   47.1148 H   0  0  0  0  0  0  0  0  0  0  0  0
   62.2331   32.4820   46.1052 H   0  0  0  0  0  0  0  0  0  0  0  0
   62.3598   34.1562   48.6426 H   0  0  0  0  0  0  0  0  0  0  0  0
   61.8799   34.6469   46.9437 H   0  0  0  0  0  0  0  0  0  0  0  0
   60.7774   34.9192   45.6498 H   0  0  0  0  0  0  0  0  0  0  0  0
   58.9690   35.4459   44.0046 H   0  0  0  0  0  0  0  0  0  0  0  0
   56.6192   34.7303   44.4697 H   0  0  0  0  0  0  0  0  0  0  0  0
   56.1075   33.4831   46.5759 H   0  0  0  0  0  0  0  0  0  0  0  0
   60.6167   33.4339   50.1020 H   0  0  0  0  0  0  0  0  0  0  0  0
   58.9571   33.1811   49.4403 H   0  0  0  0  0  0  0  0  0  0  0  0
   60.8690   31.1909   50.1386 H   0  0  0  0  0  0  0  0  0  0  0  0
   59.2870   30.9649   49.3020 H   0  0  0  0  0  0  0  0  0  0  0  0
  1  2  1  0
  2  3  2  0
  3  4  1  0
  4  5  2  0
  5  6  1  0
  6  7  2  0
  7  8  1  0
  8  9  1  0
  9 10  2  0
  9 11  1  0
 11 12  1  0
 12 13  1  0
 13 14  1  0
 14 15  1  0
 15 16  1  0
 16 17  2  0
 17 18  1  0
 18 19  2  0
 19 20  1  0
 20 21  2  0
 15 22  1  0
 22 23  1  0
  7  2  1  0
 23 11  1  0
 21 16  1  0
  1 24  1  0
  1 25  1  0
  1 26  1  0
  3 27  1  0
  4 28  1  0
  5 29  1  0
  6 30  1  0
  8 31  1  0
 12 32  1  0
 12 33  1  0
 13 34  1  0
 13 35  1  0
 14 36  1  0
 14 37  1  0
 17 38  1  0
 18 39  1  0
 19 40  1  0
 20 41  1  0
 22 42  1  0
 22 43  1  0
 23 44  1  0
 23 45  1  0
M  END
>  <UniqueID>  (19) 
18

>  <SMILES>  (19) 
Cc1ccccc1NC(=O)N1CCCN(c2ccccn2)CC1

>  <Energy>  (19) 
57.487702327908984

>  <Genealogy>  (19) 
Cc1ccccc1NC(=O)N1CCCN(c2ccccn2)CC1 (3D coordinates assigned)
Cc1ccccc1NC(=O)N1CCCN(c2ccccn2)CC1 (nonaromatic ring conformer: 57.487702327908984 kcal/mol)

>  <smiles>  (19) 
Cc1ccccc1NC(=O)N1CCCN(c2ccccn2)CC1

>  <score_type>  (19) 
oracle

>  <origin>  (19) 
adg

>  <m_score__min__energy>  (19) 
-5.6699999999999999

>  <m_primary>  (19) 
energy

$$$$
19:0
     RDKit          3D

 44 47  0  0  0  0  0  0  0  0999 V2000
   60.8810   29.3640   45.9680 C   0  0  0  0  0  0  0  0  0  0  0  0
   61.1250   30.6190   46.5930 O   0  0  0  0  0  0  0  0  0  0  0  0
   60.4240   31.0510   47.7240 C   0  0  0  0  0  0  0  0  0  0  0  0
   60.8650   30.7340   48.9750 N   0  0  0  0  0  0  0  0  0  0  0  0
   60.1960   31.1220   50.0920 C   0  0  0  0  0  0  0  0  0  0  0  0
   59.0150   31.8560   49.9810 C   0  0  0  0  0  0  0  0  0  0  0  0
   58.5390   32.1970   48.7150 C   0  0  0  0  0  0  0  0  0  0  0  0
   59.2520   31.8110   47.5710 C   0  0  0  0  0  0  0  0  0  0  0  0
   58.7470   32.1760   46.2280 C   0  0  0  0  0  0  0  0  0  0  0  0
   58.9090   33.4940   45.7350 C   0  0  0  0  0  0  0  0  0  0  0  0
   59.7260   34.7660   46.6650 S   0  0  0  0  0  0  0  0  0  0  0  0
   59.9070   35.9740   45.7900 O   0  0  0  0  0  0  0  0  0  0  0  0
   58.8950   35.1620   47.8540 O   0  0  0  0  0  0  0  0  0  0  0  0
   61.2820   34.1980   47.2640 C   0  0  0  0  0  0  0  0  0  0  0  0
   61.5380   34.1980   48.6420 C   0  0  0  0  0  0  0  0  0  0  0  0
   62.7570   33.7190   49.1300 C   0  0  0  0  0  0  0  0  0  0  0  0
   63.7270   33.2410   48.2450 C   0  0  0  0  0  0  0  0  0  0  0  0
   63.4800   33.2460   46.8680 C   0  0  0  0  0  0  0  0  0  0  0  0
   62.2610   33.7240   46.3770 C   0  0  0  0  0  0  0  0  0  0  0  0
   58.4080   33.8100   44.4650 C   0  0  0  0  0  0  0  0  0  0  0  0
   57.7700   32.8760   43.7150 N   0  0  0  0  0  0  0  0  0  0  0  0
   57.5970   31.5990   44.1540 C   0  0  0  0  0  0  0  0  0  0  0  0
   56.9370   30.6620   43.3450 C   0  0  0  0  0  0  0  0  0  0  0  0
   56.7610   29.3490   43.7820 C   0  0  0  0  0  0  0  0  0  0  0  0
   57.2440   28.9560   45.0320 C   0  0  0  0  0  0  0  0  0  0  0  0
   57.0060   27.1560   45.6220 Br  0  0  0  0  0  0  0  0  0  0  0  0
   57.9030   29.8780   45.8510 C   0  0  0  0  0  0  0  0  0  0  0  0
   58.0850   31.2130   45.4270 C   0  0  0  0  0  0  0  0  0  0  0  0
   60.7312   28.5935   46.7387 H   0  0  0  0  0  0  0  0  0  0  0  0
   59.9800   29.4356   45.3411 H   0  0  0  0  0  0  0  0  0  0  0  0
   61.7432   29.0928   45.3411 H   0  0  0  0  0  0  0  0  0  0  0  0
   60.5863   30.8569   51.0857 H   0  0  0  0  0  0  0  0  0  0  0  0
   58.4647   32.1628   50.8827 H   0  0  0  0  0  0  0  0  0  0  0  0
   57.6046   32.7685   48.6141 H   0  0  0  0  0  0  0  0  0  0  0  0
   60.7776   34.5760   49.3412 H   0  0  0  0  0  0  0  0  0  0  0  0
   62.9531   33.7183   50.2124 H   0  0  0  0  0  0  0  0  0  0  0  0
   64.6844   32.8609   48.6309 H   0  0  0  0  0  0  0  0  0  0  0  0
   64.2452   32.8737   46.1710 H   0  0  0  0  0  0  0  0  0  0  0  0
   62.0691   33.7285   45.2939 H   0  0  0  0  0  0  0  0  0  0  0  0
   58.5336   34.8291   44.0705 H   0  0  0  0  0  0  0  0  0  0  0  0
   57.4130   33.1600   42.7740 H   0  0  0  0  0  0  0  0  0  0  0  0
   56.5555   30.9649   42.3588 H   0  0  0  0  0  0  0  0  0  0  0  0
   56.2409   28.6220   43.1409 H   0  0  0  0  0  0  0  0  0  0  0  0
   58.2828   29.5611   46.8335 H   0  0  0  0  0  0  0  0  0  0  0  0
  1  2  1  0
  2  3  1  0
  3  4  2  0
  4  5  1  0
  5  6  2  0
  6  7  1  0
  7  8  2  0
  8  9  1  0
  9 10  1  0
 10 11  1  0
 11 12  2  0
 11 13  2  0
 11 14  1  0
 14 15  2  0
 15 16  1  0
 16 17  2  0
 17 18  1  0
 18 19  2  0
 10 20  2  0
 20 21  1  0
 21 22  2  0
 22 23  1  0
 23 24  2  0
 24 25  1  0
 25 26  1  0
 25 27  2  0
 27 28  1  0
  8  3  1  0
 28  9  2  0
 19 14  1  0
 28 22  1  0
  1 29  1  0
  1 30  1  0
  1 31  1  0
  5 32  1  0
  6 33  1  0
  7 34  1  0
 15 35  1  0
 16 36  1  0
 17 37  1  0
 18 38  1  0
 19 39  1  0
 20 40  1  0
 21 41  1  0
 23 42  1  0
 24 43  1  0
 27 44  1  0
M  CHG  1  21   1
M  END
>  <UniqueID>  (20) 
19

>  <SMILES>  (20) 
COc1ncccc1-c1c(S(=O)(=O)c2ccccc2)c[nH+]c2ccc(Br)cc12

>  <Energy>  (20) 
59.98256792002783

>  <Genealogy>  (20) 
COc1ncccc1-c1c(S(=O)(=O)c2ccccc2)c[nH+]c2ccc(Br)cc12 (protonated)
COc1ncccc1-c1c(S(=O)(=O)c2ccccc2)c[nH+]c2ccc(Br)cc12 (3D coordinates assigned)
COc1ncccc1-c1c(S(=O)(=O)c2ccccc2)c[nH+]c2ccc(Br)cc12 (optimized conformer: 59.98256792002783 kcal/mol)

>  <smiles>  (20) 
COc1ncccc1-c1c(S(=O)(=O)c2ccccc2)cnc2ccc(Br)cc12

>  <score_type>  (20) 
oracle

>  <origin>  (20) 
adg

>  <m_score__min__energy>  (20) 
-7.5899999999999999

>  <m_primary>  (20) 
energy

$$$$
20:0
     RDKit          3D

 51 53  0  0  0  0  0  0  0  0999 V2000
   59.0390   30.8130   48.0010 C   0  0  0  0  0  0  0  0  0  0  0  0
   58.1780   31.3530   47.0050 O   0  0  0  0  0  0  0  0  0  0  0  0
   57.8800   30.7260   45.7850 C   0  0  0  0  0  0  0  0  0  0  0  0
   58.3660   29.4430   45.4640 C   0  0  0  0  0  0  0  0  0  0  0  0
   58.0500   28.8480   44.2350 C   0  0  0  0  0  0  0  0  0  0  0  0
   58.5370   27.4570   43.9180 C   0  0  0  0  0  0  0  0  0  0  0  0
   57.4400   26.4860   44.0480 N   0  0  0  0  0  0  0  0  0  0  0  0
   57.8870   25.2930   44.7830 C   0  0  0  0  0  0  0  0  0  0  0  0
   57.3020   24.0460   44.1730 C   0  0  0  0  0  0  0  0  0  0  0  0
   56.1360   24.1150   43.3940 C   0  0  0  0  0  0  0  0  0  0  0  0
   55.6300   22.9520   42.8100 C   0  0  0  0  0  0  0  0  0  0  0  0
   56.2700   21.7660   42.9860 N   0  0  0  0  0  0  0  0  0  0  0  0
   57.4080   21.6730   43.7240 C   0  0  0  0  0  0  0  0  0  0  0  0
   57.9490   22.8110   44.3260 C   0  0  0  0  0  0  0  0  0  0  0  0
   57.2280   29.5310   43.3310 C   0  0  0  0  0  0  0  0  0  0  0  0
   56.7450   30.8040   43.6380 C   0  0  0  0  0  0  0  0  0  0  0  0
   57.0620   31.4080   44.8710 C   0  0  0  0  0  0  0  0  0  0  0  0
   56.5830   32.6790   45.2300 O   0  0  0  0  0  0  0  0  0  0  0  0
   57.3740   33.8610   45.3640 C   0  0  0  0  0  0  0  0  0  0  0  0
   58.8580   33.5750   45.1030 C   0  0  0  0  0  0  0  0  0  0  0  0
   59.6820   33.7760   46.3480 C   0  0  0  0  0  0  0  0  0  0  0  0
   61.0580   33.4900   46.3440 C   0  0  0  0  0  0  0  0  0  0  0  0
   61.8280   33.7090   47.4910 C   0  0  0  0  0  0  0  0  0  0  0  0
   61.2310   34.2180   48.6480 C   0  0  0  0  0  0  0  0  0  0  0  0
   59.8650   34.5130   48.6580 C   0  0  0  0  0  0  0  0  0  0  0  0
   59.0920   34.2980   47.5110 C   0  0  0  0  0  0  0  0  0  0  0  0
   58.6459   31.0595   48.9983 H   0  0  0  0  0  0  0  0  0  0  0  0
   59.0911   29.7201   47.8873 H   0  0  0  0  0  0  0  0  0  0  0  0
   60.0455   31.2419   47.8873 H   0  0  0  0  0  0  0  0  0  0  0  0
   58.9989   28.9037   46.1842 H   0  0  0  0  0  0  0  0  0  0  0  0
   58.9210   27.4338   42.8874 H   0  0  0  0  0  0  0  0  0  0  0  0
   59.3354   27.1892   44.6258 H   0  0  0  0  0  0  0  0  0  0  0  0
   57.1150   26.2010   43.0950 H   0  0  0  0  0  0  0  0  0  0  0  0
   56.6460   26.9320   44.5670 H   0  0  0  0  0  0  0  0  0  0  0  0
   58.9847   25.2342   44.7439 H   0  0  0  0  0  0  0  0  0  0  0  0
   57.5477   25.3708   45.8265 H   0  0  0  0  0  0  0  0  0  0  0  0
   55.6251   25.0777   43.2449 H   0  0  0  0  0  0  0  0  0  0  0  0
   54.7115   22.9958   42.2063 H   0  0  0  0  0  0  0  0  0  0  0  0
   57.9039   20.6989   43.8472 H   0  0  0  0  0  0  0  0  0  0  0  0
   58.8750   22.7394   44.9154 H   0  0  0  0  0  0  0  0  0  0  0  0
   56.9610   29.0615   42.3727 H   0  0  0  0  0  0  0  0  0  0  0  0
   56.1134   31.3388   42.9134 H   0  0  0  0  0  0  0  0  0  0  0  0
   57.0217   34.6111   44.6407 H   0  0  0  0  0  0  0  0  0  0  0  0
   57.2694   34.2321   46.3942 H   0  0  0  0  0  0  0  0  0  0  0  0
   58.9681   32.5341   44.7647 H   0  0  0  0  0  0  0  0  0  0  0  0
   59.2160   34.2746   44.3333 H   0  0  0  0  0  0  0  0  0  0  0  0
   61.5317   33.0920   45.4345 H   0  0  0  0  0  0  0  0  0  0  0  0
   62.9040   33.4806   47.4826 H   0  0  0  0  0  0  0  0  0  0  0  0
   61.8365   34.3864   49.5508 H   0  0  0  0  0  0  0  0  0  0  0  0
   59.3966   34.9148   49.5686 H   0  0  0  0  0  0  0  0  0  0  0  0
   58.0187   34.5387   47.5204 H   0  0  0  0  0  0  0  0  0  0  0  0
  1  2  1  0
  2  3  1  0
  3  4  2  0
  4  5  1  0
  5  6  1  0
  6  7  1  0
  7  8  1  0
  8  9  1  0
  9 10  2  0
 10 11  1  0
 11 12  2  0
 12 13  1  0
 13 14  2  0
  5 15  2  0
 15 16  1  0
 16 17  2  0
 17 18  1  0
 18 19  1  0
 19 20  1  0
 20 21  1  0
 21 22  2  0
 22 23  1  0
 23 24  2  0
 24 25  1  0
 25 26  2  0
 17  3  1  0
 26 21  1  0
 14  9  1  0
  1 27  1  0
  1 28  1  0
  1 29  1  0
  4 30  1  0
  6 31  1  0
  6 32  1  0
  7 33  1  0
  7 34  1  0
  8 35  1  0
  8 36  1  0
 10 37  1  0
 11 38  1  0
 13 39  1  0
 14 40  1  0
 15 41  1  0
 16 42  1  0
 19 43  1  0
 19 44  1  0
 20 45  1  0
 20 46  1  0
 22 47  1  0
 23 48  1  0
 24 49  1  0
 25 50  1  0
 26 51  1  0
M  CHG  1   7   1
M  END
>  <UniqueID>  (21) 
20

>  <SMILES>  (21) 
COc1cc(C[NH2+]Cc2ccncc2)ccc1OCCc1ccccc1

>  <Energy>  (21) 
48.64866328499754

>  <Genealogy>  (21) 
COc1cc(C[NH2+]Cc2ccncc2)ccc1OCCc1ccccc1 (protonated)
COc1cc(C[NH2+]Cc2ccncc2)ccc1OCCc1ccccc1 (3D coordinates assigned)
COc1cc(C[NH2+]Cc2ccncc2)ccc1OCCc1ccccc1 (optimized conformer: 48.64866328499754 kcal/mol)

>  <smiles>  (21) 
COc1cc(CNCc2ccncc2)ccc1OCCc1ccccc1

>  <score_type>  (21) 
oracle

>  <origin>  (21) 
adg

>  <m_score__min__energy>  (21) 
-6.5

>  <m_primary>  (21) 
energy

$$$$
21:0
     RDKit          3D

 52 55  0  0  0  0  0  0  0  0999 V2000
   58.1300   26.5890   44.7680 C   0  0  0  0  0  0  0  0  0  0  0  0
   57.1010   27.2790   45.6560 C   0  0  0  0  0  0  0  0  0  0  0  0
   56.7480   28.6220   45.1010 C   0  0  0  0  0  0  0  0  0  0  0  0
   57.6620   29.5750   44.8210 N   0  0  0  0  0  0  0  0  0  0  0  0
   56.9040   30.5970   44.3830 C   0  0  0  0  0  0  0  0  0  0  0  0
   57.4550   31.9070   43.9120 C   0  0  0  0  0  0  0  0  0  0  0  0
   58.2850   32.5250   44.9650 N   0  0  0  0  0  0  0  0  0  0  0  0
   58.8170   33.8320   44.5250 C   0  0  0  0  0  0  0  0  0  0  0  0
   59.7320   34.4470   45.6050 C   0  0  0  0  0  0  0  0  0  0  0  0
   59.6830   33.6570   46.8490 N   0  0  0  0  0  0  0  0  0  0  0  0
   60.5590   34.1910   47.9170 C   0  0  0  0  0  0  0  0  0  0  0  0
   61.8870   33.4750   48.0360 C   0  0  0  0  0  0  0  0  0  0  0  0
   63.0560   34.1240   48.2130 N   0  0  0  0  0  0  0  0  0  0  0  0
   63.9870   33.1650   48.3720 C   0  0  0  0  0  0  0  0  0  0  0  0
   63.3710   31.9350   48.2870 C   0  0  0  0  0  0  0  0  0  0  0  0
   62.0560   32.1320   48.0650 N   0  0  0  0  0  0  0  0  0  0  0  0
   61.0760   31.0990   47.8980 C   0  0  0  0  0  0  0  0  0  0  0  0
   61.0920   30.3020   46.7420 C   0  0  0  0  0  0  0  0  0  0  0  0
   60.1410   29.2920   46.5700 C   0  0  0  0  0  0  0  0  0  0  0  0
   59.1580   29.0840   47.5410 C   0  0  0  0  0  0  0  0  0  0  0  0
   59.1190   29.8900   48.6810 C   0  0  0  0  0  0  0  0  0  0  0  0
   60.0700   30.9010   48.8590 C   0  0  0  0  0  0  0  0  0  0  0  0
   59.9900   31.7070   49.9470 F   0  0  0  0  0  0  0  0  0  0  0  0
   58.2920   33.4510   47.2860 C   0  0  0  0  0  0  0  0  0  0  0  0
   57.4970   32.6910   46.2050 C   0  0  0  0  0  0  0  0  0  0  0  0
   55.5750   30.2370   44.4130 C   0  0  0  0  0  0  0  0  0  0  0  0
   55.5140   29.0100   44.8660 O   0  0  0  0  0  0  0  0  0  0  0  0
   58.8793   26.0865   45.3973 H   0  0  0  0  0  0  0  0  0  0  0  0
   57.6264   25.8453   44.1329 H   0  0  0  0  0  0  0  0  0  0  0  0
   58.6268   27.3372   44.1329 H   0  0  0  0  0  0  0  0  0  0  0  0
   56.1939   26.6590   45.7083 H   0  0  0  0  0  0  0  0  0  0  0  0
   57.5287   27.4102   46.6609 H   0  0  0  0  0  0  0  0  0  0  0  0
   58.0712   31.7399   43.0162 H   0  0  0  0  0  0  0  0  0  0  0  0
   56.6188   32.5813   43.6753 H   0  0  0  0  0  0  0  0  0  0  0  0
   59.3956   33.6922   43.6000 H   0  0  0  0  0  0  0  0  0  0  0  0
   57.9720   34.5143   44.3507 H   0  0  0  0  0  0  0  0  0  0  0  0
   60.7665   34.4670   45.2317 H   0  0  0  0  0  0  0  0  0  0  0  0
   59.3820   35.4669   45.8226 H   0  0  0  0  0  0  0  0  0  0  0  0
   60.7555   35.2524   47.7054 H   0  0  0  0  0  0  0  0  0  0  0  0
   60.0291   34.0413   48.8693 H   0  0  0  0  0  0  0  0  0  0  0  0
   63.2110   35.1560   48.2400 H   0  0  0  0  0  0  0  0  0  0  0  0
   65.0605   33.3347   48.5415 H   0  0  0  0  0  0  0  0  0  0  0  0
   63.8680   30.9584   48.3839 H   0  0  0  0  0  0  0  0  0  0  0  0
   61.8557   30.4731   45.9690 H   0  0  0  0  0  0  0  0  0  0  0  0
   60.1665   28.6606   45.6696 H   0  0  0  0  0  0  0  0  0  0  0  0
   58.4142   28.2847   47.4075 H   0  0  0  0  0  0  0  0  0  0  0  0
   58.3393   29.7298   49.4403 H   0  0  0  0  0  0  0  0  0  0  0  0
   58.2874   32.8663   48.2178 H   0  0  0  0  0  0  0  0  0  0  0  0
   57.8211   34.4310   47.4530 H   0  0  0  0  0  0  0  0  0  0  0  0
   57.2278   31.6973   46.5925 H   0  0  0  0  0  0  0  0  0  0  0  0
   56.5972   33.2763   45.9648 H   0  0  0  0  0  0  0  0  0  0  0  0
   54.7227   30.8640   44.1122 H   0  0  0  0  0  0  0  0  0  0  0  0
  1  2  1  0
  2  3  1  0
  3  4  2  0
  4  5  1  0
  5  6  1  0
  6  7  1  0
  7  8  1  0
  8  9  1  0
  9 10  1  0
 10 11  1  0
 11 12  1  0
 12 13  2  0
 13 14  1  0
 14 15  2  0
 15 16  1  0
 16 17  1  0
 17 18  2  0
 18 19  1  0
 19 20  2  0
 20 21  1  0
 21 22  2  0
 22 23  1  0
 10 24  1  0
 24 25  1  0
  5 26  2  0
 26 27  1  0
 27  3  1  0
 25  7  1  0
 16 12  1  0
 22 17  1  0
  1 28  1  0
  1 29  1  0
  1 30  1  0
  2 31  1  0
  2 32  1  0
  6 33  1  0
  6 34  1  0
  8 35  1  0
  8 36  1  0
  9 37  1  0
  9 38  1  0
 11 39  1  0
 11 40  1  0
 13 41  1  0
 14 42  1  0
 15 43  1  0
 18 44  1  0
 19 45  1  0
 20 46  1  0
 21 47  1  0
 24 48  1  0
 24 49  1  0
 25 50  1  0
 25 51  1  0
 26 52  1  0
M  CHG  1  13   1
M  END
>  <UniqueID>  (22) 
21

>  <SMILES>  (22) 
CCc1nc(CN2CCN(Cc3[nH+]ccn3-c3ccccc3F)CC2)co1

>  <Energy>  (22) 
125.97996214290126

>  <Genealogy>  (22) 
CCc1nc(CN2CCN(Cc3[nH+]ccn3-c3ccccc3F)CC2)co1 (protonated)
CCc1nc(CN2CCN(Cc3[nH+]ccn3-c3ccccc3F)CC2)co1 (3D coordinates assigned)
CCc1nc(CN2CCN(Cc3[nH+]ccn3-c3ccccc3F)CC2)co1 (nonaromatic ring conformer: 125.97996214290126 kcal/mol)

>  <smiles>  (22) 
CCc1nc(CN2CCN(Cc3nccn3-c3ccccc3F)CC2)co1

>  <score_type>  (22) 
oracle

>  <origin>  (22) 
adg

>  <m_score__min__energy>  (22) 
-6.4900000000000002

>  <m_primary>  (22) 
energy

$$$$
22:0
     RDKit          3D

 52 54  0  0  0  0  0  0  0  0999 V2000
   57.9820   23.7930   44.5430 C   0  0  0  0  0  0  0  0  0  0  0  0
   56.6420   24.3330   44.2640 N   0  0  0  0  0  0  0  0  0  0  0  0
   55.9240   23.4970   43.2880 C   0  0  0  0  0  0  0  0  0  0  0  0
   55.8560   24.5930   45.4910 C   0  0  0  0  0  0  0  0  0  0  0  0
   56.0710   25.9940   46.1010 C   0  0  0  0  0  0  0  0  0  0  0  0
   56.8930   26.8200   45.2140 N   0  0  0  0  0  0  0  0  0  0  0  0
   57.5670   28.0080   45.6760 C   0  0  0  0  0  0  0  0  0  0  0  0
   58.2940   27.9670   46.8750 C   0  0  0  0  0  0  0  0  0  0  0  0
   58.9040   29.1110   47.3820 C   0  0  0  0  0  0  0  0  0  0  0  0
   58.8060   30.3350   46.7080 C   0  0  0  0  0  0  0  0  0  0  0  0
   58.0960   30.4040   45.4880 C   0  0  0  0  0  0  0  0  0  0  0  0
   58.0030   31.6260   44.7820 C   0  0  0  0  0  0  0  0  0  0  0  0
   57.3190   31.6700   43.5580 C   0  0  0  0  0  0  0  0  0  0  0  0
   56.7410   30.5190   43.0300 C   0  0  0  0  0  0  0  0  0  0  0  0
   56.8220   29.3110   43.7160 C   0  0  0  0  0  0  0  0  0  0  0  0
   57.4800   29.2310   44.9610 C   0  0  0  0  0  0  0  0  0  0  0  0
   58.6320   32.8520   45.3260 C   0  0  0  0  0  0  0  0  0  0  0  0
   58.5660   33.9350   44.6790 O   0  0  0  0  0  0  0  0  0  0  0  0
   59.3210   32.8090   46.5890 N   0  0  0  0  0  0  0  0  0  0  0  0
   59.9780   34.0120   47.1210 C   0  0  0  0  0  0  0  0  0  0  0  0
   61.4630   34.0250   46.7080 C   0  0  0  0  0  0  0  0  0  0  0  0
   62.3800   33.4170   47.6980 N   0  0  0  0  0  0  0  0  0  0  0  0
   63.7070   33.1130   47.1410 C   0  0  0  0  0  0  0  0  0  0  0  0
   62.4890   34.2030   48.9380 C   0  0  0  0  0  0  0  0  0  0  0  0
   59.4500   31.5470   47.2680 C   0  0  0  0  0  0  0  0  0  0  0  0
   60.1130   31.4690   48.3390 O   0  0  0  0  0  0  0  0  0  0  0  0
   58.1335   23.7319   45.6308 H   0  0  0  0  0  0  0  0  0  0  0  0
   58.0714   22.7886   44.1034 H   0  0  0  0  0  0  0  0  0  0  0  0
   58.7428   24.4547   44.1034 H   0  0  0  0  0  0  0  0  0  0  0  0
   55.2972   22.7671   43.8213 H   0  0  0  0  0  0  0  0  0  0  0  0
   55.2878   24.1348   42.6567 H   0  0  0  0  0  0  0  0  0  0  0  0
   56.6505   22.9644   42.6567 H   0  0  0  0  0  0  0  0  0  0  0  0
   54.7892   24.4847   45.2456 H   0  0  0  0  0  0  0  0  0  0  0  0
   56.1989   23.8672   46.2431 H   0  0  0  0  0  0  0  0  0  0  0  0
   55.0945   26.4794   46.2455 H   0  0  0  0  0  0  0  0  0  0  0  0
   56.5878   25.8859   47.0660 H   0  0  0  0  0  0  0  0  0  0  0  0
   56.9930   26.5350   44.2140 H   0  0  0  0  0  0  0  0  0  0  0  0
   58.3834   27.0171   47.4225 H   0  0  0  0  0  0  0  0  0  0  0  0
   59.4699   29.0530   48.3235 H   0  0  0  0  0  0  0  0  0  0  0  0
   57.2388   32.6212   43.0114 H   0  0  0  0  0  0  0  0  0  0  0  0
   56.2167   30.5647   42.0641 H   0  0  0  0  0  0  0  0  0  0  0  0
   56.3676   28.4080   43.2823 H   0  0  0  0  0  0  0  0  0  0  0  0
   59.4801   34.9071   46.7199 H   0  0  0  0  0  0  0  0  0  0  0  0
   59.9075   34.0076   48.2187 H   0  0  0  0  0  0  0  0  0  0  0  0
   61.5617   33.4713   45.7627 H   0  0  0  0  0  0  0  0  0  0  0  0
   61.7541   35.0821   46.6193 H   0  0  0  0  0  0  0  0  0  0  0  0
   64.4206   32.9495   47.9620 H   0  0  0  0  0  0  0  0  0  0  0  0
   63.6458   32.2056   46.5222 H   0  0  0  0  0  0  0  0  0  0  0  0
   64.0470   33.9565   46.5222 H   0  0  0  0  0  0  0  0  0  0  0  0
   62.3962   33.5335   49.8058 H   0  0  0  0  0  0  0  0  0  0  0  0
   63.4658   34.7080   48.9673 H   0  0  0  0  0  0  0  0  0  0  0  0
   61.6865   34.9548   48.9673 H   0  0  0  0  0  0  0  0  0  0  0  0
  1  2  1  0
  2  3  1  0
  2  4  1  0
  4  5  1  0
  5  6  1  0
  6  7  1  0
  7  8  2  0
  8  9  1  0
  9 10  2  0
 10 11  1  0
 11 12  2  0
 12 13  1  0
 13 14  2  0
 14 15  1  0
 15 16  2  0
 12 17  1  0
 17 18  2  0
 17 19  1  0
 19 20  1  0
 20 21  1  0
 21 22  1  0
 22 23  1  0
 22 24  1  0
 19 25  1  0
 25 26  2  0
 16  7  1  0
 25 10  1  0
 16 11  1  0
  1 27  1  0
  1 28  1  0
  1 29  1  0
  3 30  1  0
  3 31  1  0
  3 32  1  0
  4 33  1  0
  4 34  1  0
  5 35  1  0
  5 36  1  0
  6 37  1  0
  8 38  1  0
  9 39  1  0
 13 40  1  0
 14 41  1  0
 15 42  1  0
 20 43  1  0
 20 44  1  0
 21 45  1  0
 21 46  1  0
 23 47  1  0
 23 48  1  0
 23 49  1  0
 24 50  1  0
 24 51  1  0
 24 52  1  0
M  END
>  <UniqueID>  (23) 
22

>  <SMILES>  (23) 
CN(C)CCNc1ccc2c3c(cccc13)C(=O)N(CCN(C)C)C2=O

>  <Energy>  (23) 
66.01942418835

>  <Genealogy>  (23) 
CN(C)CCNc1ccc2c3c(cccc13)C(=O)N(CCN(C)C)C2=O (3D coordinates assigned)
CN(C)CCNc1ccc2c3c(cccc13)C(=O)N(CCN(C)C)C2=O (nonaromatic ring conformer: 66.01942418835 kcal/mol)

>  <smiles>  (23) 
CN(C)CCNc1ccc2c3c(cccc13)C(=O)N(CCN(C)C)C2=O

>  <score_type>  (23) 
oracle

>  <origin>  (23) 
adg

>  <m_score__min__energy>  (23) 
-7.5

>  <m_primary>  (23) 
energy

$$$$
23:0
     RDKit          3D

 45 47  0  0  0  0  0  0  0  0999 V2000
   59.2560   30.3930   46.8370 C   0  0  0  0  0  0  0  0  0  0  0  0
   58.7670   29.5320   45.7060 C   0  0  0  0  0  0  0  0  0  0  0  0
   59.3350   28.2610   45.5170 C   0  0  0  0  0  0  0  0  0  0  0  0
   58.8730   27.4220   44.4990 C   0  0  0  0  0  0  0  0  0  0  0  0
   57.8420   27.8440   43.6600 C   0  0  0  0  0  0  0  0  0  0  0  0
   57.2790   29.1100   43.8270 C   0  0  0  0  0  0  0  0  0  0  0  0
   57.7470   29.9710   44.8270 C   0  0  0  0  0  0  0  0  0  0  0  0
   57.1670   31.2410   44.9190 O   0  0  0  0  0  0  0  0  0  0  0  0
   57.3930   32.2760   43.9640 C   0  0  0  0  0  0  0  0  0  0  0  0
   57.7160   33.5790   44.6940 C   0  0  0  0  0  0  0  0  0  0  0  0
   58.6800   33.3350   45.7890 N   0  0  0  0  0  0  0  0  0  0  0  0
   58.1940   33.8970   47.0720 C   0  0  0  0  0  0  0  0  0  0  0  0
   59.0950   33.4360   48.2300 C   0  0  0  0  0  0  0  0  0  0  0  0
   60.5000   33.5920   47.8610 N   0  0  0  0  0  0  0  0  0  0  0  0
   60.9450   33.7320   46.6000 C   0  0  0  0  0  0  0  0  0  0  0  0
   62.2910   33.7440   46.5250 N   0  0  0  0  0  0  0  0  0  0  0  0
   62.7100   33.5700   47.7960 C   0  0  0  0  0  0  0  0  0  0  0  0
   64.1450   33.4550   48.2000 C   0  0  0  0  0  0  0  0  0  0  0  0
   61.6030   33.4780   48.6280 C   0  0  0  0  0  0  0  0  0  0  0  0
   61.6020   33.1590   50.0920 C   0  0  0  0  0  0  0  0  0  0  0  0
   60.0100   33.8890   45.4430 C   0  0  0  0  0  0  0  0  0  0  0  0
   58.9899   29.9245   47.7960 H   0  0  0  0  0  0  0  0  0  0  0  0
   60.3489   30.4987   46.7713 H   0  0  0  0  0  0  0  0  0  0  0  0
   58.7870   31.3858   46.7713 H   0  0  0  0  0  0  0  0  0  0  0  0
   60.1493   27.9236   46.1750 H   0  0  0  0  0  0  0  0  0  0  0  0
   59.3230   26.4280   44.3595 H   0  0  0  0  0  0  0  0  0  0  0  0
   57.4723   27.1785   42.8660 H   0  0  0  0  0  0  0  0  0  0  0  0
   56.4606   29.4342   43.1674 H   0  0  0  0  0  0  0  0  0  0  0  0
   58.2377   31.9993   43.3160 H   0  0  0  0  0  0  0  0  0  0  0  0
   56.4905   32.4129   43.3502 H   0  0  0  0  0  0  0  0  0  0  0  0
   58.1516   34.2947   43.9812 H   0  0  0  0  0  0  0  0  0  0  0  0
   56.7880   33.9863   45.1217 H   0  0  0  0  0  0  0  0  0  0  0  0
   58.2082   34.9955   47.0159 H   0  0  0  0  0  0  0  0  0  0  0  0
   57.1684   33.5430   47.2529 H   0  0  0  0  0  0  0  0  0  0  0  0
   58.8826   34.0443   49.1215 H   0  0  0  0  0  0  0  0  0  0  0  0
   58.8932   32.3763   48.4454 H   0  0  0  0  0  0  0  0  0  0  0  0
   62.8760   33.8380   45.6660 H   0  0  0  0  0  0  0  0  0  0  0  0
   64.2176   33.4492   49.2976 H   0  0  0  0  0  0  0  0  0  0  0  0
   64.5648   32.5203   47.7998 H   0  0  0  0  0  0  0  0  0  0  0  0
   64.7083   34.3109   47.7998 H   0  0  0  0  0  0  0  0  0  0  0  0
   61.6049   34.0942   50.6711 H   0  0  0  0  0  0  0  0  0  0  0  0
   60.7020   32.5771   50.3399 H   0  0  0  0  0  0  0  0  0  0  0  0
   62.4983   32.5715   50.3399 H   0  0  0  0  0  0  0  0  0  0  0  0
   59.9079   34.9568   45.1992 H   0  0  0  0  0  0  0  0  0  0  0  0
   60.4135   33.3458   44.5757 H   0  0  0  0  0  0  0  0  0  0  0  0
  1  2  1  0
  2  3  2  0
  3  4  1  0
  4  5  2  0
  5  6  1  0
  6  7  2  0
  7  8  1  0
  8  9  1  0
  9 10  1  0
 10 11  1  0
 11 12  1  0
 12 13  1  0
 13 14  1  0
 14 15  1  0
 15 16  2  0
 16 17  1  0
 17 18  1  0
 17 19  2  0
 19 20  1  0
 15 21  1  0
  7  2  1  0
 21 11  1  0
 19 14  1  0
  1 22  1  0
  1 23  1  0
  1 24  1  0
  3 25  1  0
  4 26  1  0
  5 27  1  0
  6 28  1  0
  9 29  1  0
  9 30  1  0
 10 31  1  0
 10 32  1  0
 12 33  1  0
 12 34  1  0
 13 35  1  0
 13 36  1  0
 16 37  1  0
 18 38  1  0
 18 39  1  0
 18 40  1  0
 20 41  1  0
 20 42  1  0
 20 43  1  0
 21 44  1  0
 21 45  1  0
M  CHG  1  16   1
M  END
>  <UniqueID>  (24) 
23

>  <SMILES>  (24) 
Cc1ccccc1OCCN1CCn2c([nH+]c(C)c2C)C1

>  <Energy>  (24) 
82.48316322080991

>  <Genealogy>  (24) 
Cc1ccccc1OCCN1CCn2c([nH+]c(C)c2C)C1 (protonated)
Cc1ccccc1OCCN1CCn2c([nH+]c(C)c2C)C1 (3D coordinates assigned)
Cc1ccccc1OCCN1CCn2c([nH+]c(C)c2C)C1 (nonaromatic ring conformer: 82.48316322080991 kcal/mol)

>  <smiles>  (24) 
Cc1ccccc1OCCN1CCn2c(nc(C)c2C)C1

>  <score_type>  (24) 
oracle

>  <origin>  (24) 
adg

>  <m_score__min__energy>  (24) 
-5.8200000000000003

>  <m_primary>  (24) 
energy

$$$$
24:0
     RDKit          3D

 37 38  0  0  0  0  0  0  0  0999 V2000
   55.5190   29.7260   43.4890 C   0  0  0  0  0  0  0  0  0  0  0  0
   56.6750   30.5670   42.9550 C   0  0  0  0  0  0  0  0  0  0  0  0
   57.6950   30.8320   44.0390 C   0  0  0  0  0  0  0  0  0  0  0  0
   57.8630   32.1460   44.5120 C   0  0  0  0  0  0  0  0  0  0  0  0
   58.7580   32.4190   45.5480 C   0  0  0  0  0  0  0  0  0  0  0  0
   59.4890   31.3850   46.1320 C   0  0  0  0  0  0  0  0  0  0  0  0
   59.3240   30.0730   45.6850 C   0  0  0  0  0  0  0  0  0  0  0  0
   58.4210   29.7800   44.6490 C   0  0  0  0  0  0  0  0  0  0  0  0
   58.2750   28.4230   44.1960 N   0  0  0  0  0  0  0  0  0  0  0  0
   58.0700   27.3060   45.0770 C   0  0  0  0  0  0  0  0  0  0  0  0
   57.4110   27.5390   46.5690 S   0  0  0  0  0  0  0  0  0  0  0  0
   58.3040   25.9780   44.5790 N   0  0  0  0  0  0  0  0  0  0  0  0
   58.2530   24.7710   45.4060 C   0  0  0  0  0  0  0  0  0  0  0  0
   57.8660   23.5790   44.5730 C   0  0  0  0  0  0  0  0  0  0  0  0
   56.8570   23.6880   43.6060 C   0  0  0  0  0  0  0  0  0  0  0  0
   56.5090   22.5790   42.8330 C   0  0  0  0  0  0  0  0  0  0  0  0
   57.1720   21.3680   43.0370 C   0  0  0  0  0  0  0  0  0  0  0  0
   58.1470   21.2710   43.9810 N   0  0  0  0  0  0  0  0  0  0  0  0
   58.5030   22.3400   44.7460 C   0  0  0  0  0  0  0  0  0  0  0  0
   55.5347   29.7374   44.5888 H   0  0  0  0  0  0  0  0  0  0  0  0
   54.5661   30.1435   43.1315 H   0  0  0  0  0  0  0  0  0  0  0  0
   55.6229   28.6909   43.1315 H   0  0  0  0  0  0  0  0  0  0  0  0
   57.1603   30.0283   42.1278 H   0  0  0  0  0  0  0  0  0  0  0  0
   56.2762   31.5304   42.6045 H   0  0  0  0  0  0  0  0  0  0  0  0
   57.2840   32.9657   44.0616 H   0  0  0  0  0  0  0  0  0  0  0  0
   58.8868   33.4517   45.9043 H   0  0  0  0  0  0  0  0  0  0  0  0
   60.1963   31.6035   46.9456 H   0  0  0  0  0  0  0  0  0  0  0  0
   59.9056   29.2619   46.1475 H   0  0  0  0  0  0  0  0  0  0  0  0
   58.3640   28.2300   43.1740 H   0  0  0  0  0  0  0  0  0  0  0  0
   58.5800   25.8660   43.5770 H   0  0  0  0  0  0  0  0  0  0  0  0
   59.2431   24.5953   45.8519 H   0  0  0  0  0  0  0  0  0  0  0  0
   57.5015   24.9123   46.1967 H   0  0  0  0  0  0  0  0  0  0  0  0
   56.3396   24.6471   43.4564 H   0  0  0  0  0  0  0  0  0  0  0  0
   55.7200   22.6588   42.0706 H   0  0  0  0  0  0  0  0  0  0  0  0
   56.9053   20.4887   42.4323 H   0  0  0  0  0  0  0  0  0  0  0  0
   58.6340   20.3590   44.1220 H   0  0  0  0  0  0  0  0  0  0  0  0
   59.2936   22.2321   45.5032 H   0  0  0  0  0  0  0  0  0  0  0  0
  1  2  1  0
  2  3  1  0
  3  4  2  0
  4  5  1  0
  5  6  2  0
  6  7  1  0
  7  8  2  0
  8  9  1  0
  9 10  1  0
 10 11  2  0
 10 12  1  0
 12 13  1  0
 13 14  1  0
 14 15  2  0
 15 16  1  0
 16 17  2  0
 17 18  1  0
 18 19  2  0
  8  3  1  0
 19 14  1  0
  1 20  1  0
  1 21  1  0
  1 22  1  0
  2 23  1  0
  2 24  1  0
  4 25  1  0
  5 26  1  0
  6 27  1  0
  7 28  1  0
  9 29  1  0
 12 30  1  0
 13 31  1  0
 13 32  1  0
 15 33  1  0
 16 34  1  0
 17 35  1  0
 18 36  1  0
 19 37  1  0
M  CHG  1  18   1
M  END
>  <UniqueID>  (25) 
24

>  <SMILES>  (25) 
CCc1ccccc1NC(=S)NCc1ccc[nH+]c1

>  <Energy>  (25) 
38.67973689993208

>  <Genealogy>  (25) 
CCc1ccccc1NC(=S)NCc1ccc[nH+]c1 (protonated)
CCc1ccccc1NC(=S)NCc1ccc[nH+]c1 (3D coordinates assigned)
CCc1ccccc1NC(=S)NCc1ccc[nH+]c1 (optimized conformer: 38.67973689993208 kcal/mol)

>  <smiles>  (25) 
CCc1ccccc1NC(=S)NCc1cccnc1

>  <score_type>  (25) 
oracle

>  <origin>  (25) 
adg

>  <m_score__min__energy>  (25) 
-6.1299999999999999

>  <m_primary>  (25) 
energy

$$$$
25:0
     RDKit          3D

 43 46  0  0  0  0  0  0  0  0999 V2000
   56.6410   23.2050   48.2680 C   0  0  0  0  0  0  0  0  0  0  0  0
   57.7130   24.0540   47.8710 O   0  0  0  0  0  0  0  0  0  0  0  0
   57.7450   24.7840   46.6740 C   0  0  0  0  0  0  0  0  0  0  0  0
   56.9740   24.4240   45.5500 C   0  0  0  0  0  0  0  0  0  0  0  0
   57.0260   25.1910   44.3820 C   0  0  0  0  0  0  0  0  0  0  0  0
   57.8550   26.3220   44.3120 C   0  0  0  0  0  0  0  0  0  0  0  0
   58.6520   26.6580   45.4250 C   0  0  0  0  0  0  0  0  0  0  0  0
   58.5760   25.9070   46.6030 C   0  0  0  0  0  0  0  0  0  0  0  0
   59.7270   28.0940   45.3230 S   0  0  0  0  0  0  0  0  0  0  0  0
   58.4230   29.0960   44.5990 C   0  0  0  0  0  0  0  0  0  0  0  0
   58.1570   30.3770   45.0880 C   0  0  0  0  0  0  0  0  0  0  0  0
   57.1450   31.1650   44.5060 C   0  0  0  0  0  0  0  0  0  0  0  0
   56.8590   32.4990   44.9680 N   0  0  0  0  0  0  0  0  0  0  0  0
   57.8110   33.6110   44.9320 C   0  0  0  0  0  0  0  0  0  0  0  0
   58.5760   33.7000   46.2270 C   0  0  0  0  0  0  0  0  0  0  0  0
   59.7000   34.5370   46.3360 C   0  0  0  0  0  0  0  0  0  0  0  0
   60.4070   34.6120   47.5410 C   0  0  0  0  0  0  0  0  0  0  0  0
   60.0040   33.8470   48.6390 C   0  0  0  0  0  0  0  0  0  0  0  0
   58.8950   33.0030   48.5330 C   0  0  0  0  0  0  0  0  0  0  0  0
   58.1850   32.9260   47.3320 C   0  0  0  0  0  0  0  0  0  0  0  0
   56.3920   30.6310   43.4480 C   0  0  0  0  0  0  0  0  0  0  0  0
   56.6360   29.3360   42.9780 C   0  0  0  0  0  0  0  0  0  0  0  0
   57.6460   28.5530   43.5560 C   0  0  0  0  0  0  0  0  0  0  0  0
   57.8540   27.1800   43.1470 N   0  0  0  0  0  0  0  0  0  0  0  0
   56.5916   23.1659   49.3662 H   0  0  0  0  0  0  0  0  0  0  0  0
   55.6940   23.6007   47.8722 H   0  0  0  0  0  0  0  0  0  0  0  0
   56.8092   22.1925   47.8722 H   0  0  0  0  0  0  0  0  0  0  0  0
   56.3279   23.5347   45.5920 H   0  0  0  0  0  0  0  0  0  0  0  0
   56.4141   24.9067   43.5132 H   0  0  0  0  0  0  0  0  0  0  0  0
   59.1733   26.2014   47.4786 H   0  0  0  0  0  0  0  0  0  0  0  0
   58.7410   30.7725   45.9321 H   0  0  0  0  0  0  0  0  0  0  0  0
   55.8950   32.7110   45.3130 H   0  0  0  0  0  0  0  0  0  0  0  0
   58.5187   33.4537   44.1047 H   0  0  0  0  0  0  0  0  0  0  0  0
   57.2542   34.5483   44.7853 H   0  0  0  0  0  0  0  0  0  0  0  0
   60.0246   35.1347   45.4715 H   0  0  0  0  0  0  0  0  0  0  0  0
   61.2814   35.2741   47.6243 H   0  0  0  0  0  0  0  0  0  0  0  0
   60.5595   33.9091   49.5864 H   0  0  0  0  0  0  0  0  0  0  0  0
   58.5806   32.3984   49.3965 H   0  0  0  0  0  0  0  0  0  0  0  0
   57.3161   32.2563   47.2515 H   0  0  0  0  0  0  0  0  0  0  0  0
   55.6010   31.2379   42.9832 H   0  0  0  0  0  0  0  0  0  0  0  0
   56.0334   28.9303   42.1520 H   0  0  0  0  0  0  0  0  0  0  0  0
   57.1120   26.8810   42.4710 H   0  0  0  0  0  0  0  0  0  0  0  0
   58.7790   27.1040   42.6670 H   0  0  0  0  0  0  0  0  0  0  0  0
  1  2  1  0
  2  3  1  0
  3  4  2  0
  4  5  1  0
  5  6  2  0
  6  7  1  0
  7  8  2  0
  7  9  1  0
  9 10  1  0
 10 11  2  0
 11 12  1  0
 12 13  1  0
 13 14  1  0
 14 15  1  0
 15 16  2  0
 16 17  1  0
 17 18  2  0
 18 19  1  0
 19 20  2  0
 12 21  2  0
 21 22  1  0
 22 23  2  0
 23 24  1  0
  8  3  1  0
 23 10  1  0
 24  6  1  0
 20 15  1  0
  1 25  1  0
  1 26  1  0
  1 27  1  0
  4 28  1  0
  5 29  1  0
  8 30  1  0
 11 31  1  0
 13 32  1  0
 14 33  1  0
 14 34  1  0
 16 35  1  0
 17 36  1  0
 18 37  1  0
 19 38  1  0
 20 39  1  0
 21 40  1  0
 22 41  1  0
 24 42  1  0
 24 43  1  0
M  CHG  1  24   1
M  END
>  <UniqueID>  (26) 
25

>  <SMILES>  (26) 
COc1ccc2c(c1)Sc1cc(NCc3ccccc3)ccc1[NH2+]2

>  <Energy>  (26) 
59.26721429516218

>  <Genealogy>  (26) 
COc1ccc2c(c1)Sc1cc(NCc3ccccc3)ccc1[NH2+]2 (protonated)
COc1ccc2c(c1)Sc1cc(NCc3ccccc3)ccc1[NH2+]2 (3D coordinates assigned)
COc1ccc2c(c1)Sc1cc(NCc3ccccc3)ccc1[NH2+]2 (nonaromatic ring conformer: 59.26721429516218 kcal/mol)

>  <smiles>  (26) 
COc1ccc2c(c1)Sc1cc(NCc3ccccc3)ccc1N2

>  <score_type>  (26) 
oracle

>  <origin>  (26) 
adg

>  <m_score__min__energy>  (26) 
-6.6799999999999997

>  <m_primary>  (26) 
energy

$$$$
26:0
     RDKit          3D

 25 27  0  0  0  0  0  0  0  0999 V2000
   58.9860   27.1310   45.0200 C   0  0  0  0  0  0  0  0  0  0  0  0
   59.8200   28.1010   45.6170 C   0  0  0  0  0  0  0  0  0  0  0  0
   59.4450   29.4570   45.6240 C   0  0  0  0  0  0  0  0  0  0  0  0
   58.2240   29.8030   45.0390 C   0  0  0  0  0  0  0  0  0  0  0  0
   57.5960   31.0270   44.8610 C   0  0  0  0  0  0  0  0  0  0  0  0
   58.0350   32.3610   45.3220 C   0  0  0  0  0  0  0  0  0  0  0  0
   58.4110   33.3550   44.4040 C   0  0  0  0  0  0  0  0  0  0  0  0
   58.8330   34.6020   44.8710 C   0  0  0  0  0  0  0  0  0  0  0  0
   58.8900   34.8470   46.2070 N   0  0  0  0  0  0  0  0  0  0  0  0
   58.5450   33.9010   47.1190 C   0  0  0  0  0  0  0  0  0  0  0  0
   58.1180   32.6400   46.6950 C   0  0  0  0  0  0  0  0  0  0  0  0
   56.4380   30.7480   44.1390 C   0  0  0  0  0  0  0  0  0  0  0  0
   56.3370   29.4240   43.8920 N   0  0  0  0  0  0  0  0  0  0  0  0
   57.4240   28.8580   44.4410 C   0  0  0  0  0  0  0  0  0  0  0  0
   57.7730   27.5090   44.4170 C   0  0  0  0  0  0  0  0  0  0  0  0
   59.2868   26.0729   45.0265 H   0  0  0  0  0  0  0  0  0  0  0  0
   60.7696   27.7945   46.0799 H   0  0  0  0  0  0  0  0  0  0  0  0
   60.0934   30.2218   46.0763 H   0  0  0  0  0  0  0  0  0  0  0  0
   58.3734   33.1528   43.3234 H   0  0  0  0  0  0  0  0  0  0  0  0
   59.1198   35.3874   44.1562 H   0  0  0  0  0  0  0  0  0  0  0  0
   58.6020   34.1283   48.1937 H   0  0  0  0  0  0  0  0  0  0  0  0
   57.8484   31.8703   47.4331 H   0  0  0  0  0  0  0  0  0  0  0  0
   55.7062   31.5024   43.8145 H   0  0  0  0  0  0  0  0  0  0  0  0
   55.5700   28.9420   43.3720 H   0  0  0  0  0  0  0  0  0  0  0  0
   57.1198   26.7628   43.9410 H   0  0  0  0  0  0  0  0  0  0  0  0
  1  2  2  0
  2  3  1  0
  3  4  2  0
  4  5  1  0
  5  6  1  0
  6  7  2  0
  7  8  1  0
  8  9  2  0
  9 10  1  0
 10 11  2  0
  5 12  2  0
 12 13  1  0
 13 14  1  0
 14 15  2  0
 15  1  1  0
 14  4  1  0
 11  6  1  0
  1 16  1  0
  2 17  1  0
  3 18  1  0
  7 19  1  0
  8 20  1  0
 10 21  1  0
 11 22  1  0
 12 23  1  0
 13 24  1  0
 15 25  1  0
M  END
>  <UniqueID>  (27) 
26

>  <SMILES>  (27) 
c1ccc2c(-c3ccncc3)c[nH]c2c1

>  <Energy>  (27) 
66.18337180919025

>  <Genealogy>  (27) 
c1ccc2c(-c3ccncc3)c[nH]c2c1 (3D coordinates assigned)
c1ccc2c(-c3ccncc3)c[nH]c2c1 (optimized conformer: 66.18337180919025 kcal/mol)

>  <smiles>  (27) 
c1ccc2c(-c3ccncc3)c[nH]c2c1

>  <score_type>  (27) 
oracle

>  <origin>  (27) 
adg

>  <m_score__min__energy>  (27) 
-6.04

>  <m_primary>  (27) 
energy

$$$$
27:0
     RDKit          3D

 38 40  0  0  0  0  0  0  0  0999 V2000
   61.6050   33.8860   48.7720 C   0  0  0  0  0  0  0  0  0  0  0  0
   60.3440   34.3580   48.3090 O   0  0  0  0  0  0  0  0  0  0  0  0
   59.7050   33.8990   47.1480 C   0  0  0  0  0  0  0  0  0  0  0  0
   59.3880   32.5400   47.0570 C   0  0  0  0  0  0  0  0  0  0  0  0
   58.7490   32.0340   45.9210 C   0  0  0  0  0  0  0  0  0  0  0  0
   58.4230   32.8850   44.8540 C   0  0  0  0  0  0  0  0  0  0  0  0
   57.7100   32.3390   43.6470 C   0  0  0  0  0  0  0  0  0  0  0  0
   57.8460   30.8850   43.5980 N   0  0  0  0  0  0  0  0  0  0  0  0
   56.9730   30.0080   44.3280 C   0  0  0  0  0  0  0  0  0  0  0  0
   55.9220   30.4710   44.8510 O   0  0  0  0  0  0  0  0  0  0  0  0
   57.2780   28.5640   44.4650 C   0  0  0  0  0  0  0  0  0  0  0  0
   57.0040   27.8740   45.6570 C   0  0  0  0  0  0  0  0  0  0  0  0
   57.2880   26.5100   45.7700 C   0  0  0  0  0  0  0  0  0  0  0  0
   57.8460   25.7990   44.6920 C   0  0  0  0  0  0  0  0  0  0  0  0
   58.1430   24.3490   44.8370 C   0  0  0  0  0  0  0  0  0  0  0  0
   57.3740   23.3250   44.2670 C   0  0  0  0  0  0  0  0  0  0  0  0
   58.1330   21.9190   44.7410 S   0  0  0  0  0  0  0  0  0  0  0  0
   59.3640   22.5900   45.6210 N   0  0  0  0  0  0  0  0  0  0  0  0
   59.2160   23.9100   45.5680 N   0  0  0  0  0  0  0  0  0  0  0  0
   58.1130   26.4920   43.4970 C   0  0  0  0  0  0  0  0  0  0  0  0
   57.8270   27.8560   43.3830 C   0  0  0  0  0  0  0  0  0  0  0  0
   58.7340   34.2500   44.9450 C   0  0  0  0  0  0  0  0  0  0  0  0
   59.3720   34.7560   46.0810 C   0  0  0  0  0  0  0  0  0  0  0  0
   61.6139   33.8827   49.8720 H   0  0  0  0  0  0  0  0  0  0  0  0
   61.7728   32.8642   48.4009 H   0  0  0  0  0  0  0  0  0  0  0  0
   62.4025   34.5465   48.4009 H   0  0  0  0  0  0  0  0  0  0  0  0
   59.6435   31.8636   47.8860 H   0  0  0  0  0  0  0  0  0  0  0  0
   58.5007   30.9639   45.8634 H   0  0  0  0  0  0  0  0  0  0  0  0
   56.6436   32.6029   43.7042 H   0  0  0  0  0  0  0  0  0  0  0  0
   58.1550   32.7728   42.7394 H   0  0  0  0  0  0  0  0  0  0  0  0
   58.5790   30.4830   42.9700 H   0  0  0  0  0  0  0  0  0  0  0  0
   56.5621   28.4115   46.5090 H   0  0  0  0  0  0  0  0  0  0  0  0
   57.0726   25.9863   46.7131 H   0  0  0  0  0  0  0  0  0  0  0  0
   56.4718   23.4266   43.6460 H   0  0  0  0  0  0  0  0  0  0  0  0
   58.5515   25.9549   42.6431 H   0  0  0  0  0  0  0  0  0  0  0  0
   58.0337   28.3792   42.4377 H   0  0  0  0  0  0  0  0  0  0  0  0
   58.4741   34.9262   44.1172 H   0  0  0  0  0  0  0  0  0  0  0  0
   59.6149   35.8271   46.1419 H   0  0  0  0  0  0  0  0  0  0  0  0
  1  2  1  0
  2  3  1  0
  3  4  2  0
  4  5  1  0
  5  6  2  0
  6  7  1  0
  7  8  1  0
  8  9  1  0
  9 10  2  0
  9 11  1  0
 11 12  2  0
 12 13  1  0
 13 14  2  0
 14 15  1  0
 15 16  2  0
 16 17  1  0
 17 18  1  0
 18 19  2  0
 14 20  1  0
 20 21  2  0
  6 22  1  0
 22 23  2  0
 23  3  1  0
 21 11  1  0
 19 15  1  0
  1 24  1  0
  1 25  1  0
  1 26  1  0
  4 27  1  0
  5 28  1  0
  7 29  1  0
  7 30  1  0
  8 31  1  0
 12 32  1  0
 13 33  1  0
 16 34  1  0
 20 35  1  0
 21 36  1  0
 22 37  1  0
 23 38  1  0
M  END
>  <UniqueID>  (28) 
27

>  <SMILES>  (28) 
COc1ccc(CNC(=O)c2ccc(-c3csnn3)cc2)cc1

>  <Energy>  (28) 
78.7289069938188

>  <Genealogy>  (28) 
COc1ccc(CNC(=O)c2ccc(-c3csnn3)cc2)cc1 (3D coordinates assigned)
COc1ccc(CNC(=O)c2ccc(-c3csnn3)cc2)cc1 (optimized conformer: 78.7289069938188 kcal/mol)

>  <smiles>  (28) 
COc1ccc(CNC(=O)c2ccc(-c3csnn3)cc2)cc1

>  <score_type>  (28) 
oracle

>  <origin>  (28) 
adg

>  <m_score__min__energy>  (28) 
-8.1099999999999994

>  <m_primary>  (28) 
energy

$$$$
28:0
     RDKit          3D

 37 38  0  0  0  0  0  0  0  0999 V2000
   57.8313   32.6421   42.5562 H   0  0  0  0  0  0  0  0  0  0  0  0
   57.4110   31.7930   43.1150 C   0  0  0  0  0  0  0  0  0  0  0  0
   56.8010   30.7750   42.4540 N   0  0  0  0  0  0  0  0  0  0  0  0
   56.2750   29.7140   43.1180 C   0  0  0  0  0  0  0  0  0  0  0  0
   55.7789   28.9036   42.5639 H   0  0  0  0  0  0  0  0  0  0  0  0
   56.3690   29.6600   44.5110 C   0  0  0  0  0  0  0  0  0  0  0  0
   55.8780   28.6430   45.1540 N   0  0  0  0  0  0  0  0  0  0  0  0
   56.6750   27.5100   45.6210 C   0  0  0  0  0  0  0  0  0  0  0  0
   56.1374   26.5750   45.4049 H   0  0  0  0  0  0  0  0  0  0  0  0
   56.8378   27.6104   46.7042 H   0  0  0  0  0  0  0  0  0  0  0  0
   58.0340   27.4860   44.9140 C   0  0  0  0  0  0  0  0  0  0  0  0
   57.9407   28.0310   43.9631 H   0  0  0  0  0  0  0  0  0  0  0  0
   58.3019   26.4293   44.7668 H   0  0  0  0  0  0  0  0  0  0  0  0
   59.1670   28.1280   45.7330 C   0  0  0  0  0  0  0  0  0  0  0  0
   59.7521   27.3283   46.2106 H   0  0  0  0  0  0  0  0  0  0  0  0
   58.7028   28.7933   46.4759 H   0  0  0  0  0  0  0  0  0  0  0  0
   60.1080   28.9780   44.8780 C   0  0  0  0  0  0  0  0  0  0  0  0
   60.7638   29.5704   45.5329 H   0  0  0  0  0  0  0  0  0  0  0  0
   60.7205   28.3210   44.2431 H   0  0  0  0  0  0  0  0  0  0  0  0
   59.5164   29.6540   44.2431 H   0  0  0  0  0  0  0  0  0  0  0  0
   56.9820   30.6800   45.1720 N   0  0  0  0  0  0  0  0  0  0  0  0
   57.5020   31.7550   44.5180 C   0  0  0  0  0  0  0  0  0  0  0  0
   58.1640   32.8340   45.2980 C   0  0  0  0  0  0  0  0  0  0  0  0
   58.6410   33.9790   44.6370 C   0  0  0  0  0  0  0  0  0  0  0  0
   58.5178   34.0714   43.5478 H   0  0  0  0  0  0  0  0  0  0  0  0
   59.2700   35.0000   45.3520 C   0  0  0  0  0  0  0  0  0  0  0  0
   59.6329   35.8949   44.8252 H   0  0  0  0  0  0  0  0  0  0  0  0
   59.4400   34.8890   46.7340 C   0  0  0  0  0  0  0  0  0  0  0  0
   59.9335   35.6979   47.2927 H   0  0  0  0  0  0  0  0  0  0  0  0
   58.9820   33.7460   47.4130 C   0  0  0  0  0  0  0  0  0  0  0  0
   59.1380   33.5820   48.7980 O   0  0  0  0  0  0  0  0  0  0  0  0
   58.9640   32.3480   49.4870 C   0  0  0  0  0  0  0  0  0  0  0  0
   58.9893   32.5271   50.5720 H   0  0  0  0  0  0  0  0  0  0  0  0
   57.9948   31.9072   49.2106 H   0  0  0  0  0  0  0  0  0  0  0  0
   59.7735   31.6564   49.2106 H   0  0  0  0  0  0  0  0  0  0  0  0
   58.3500   32.7260   46.6900 C   0  0  0  0  0  0  0  0  0  0  0  0
   57.9941   31.8283   47.2167 H   0  0  0  0  0  0  0  0  0  0  0  0
  1  2  1  0
  2  3  1  0
  3  4  2  0
  4  5  1  0
  4  6  1  0
  6  7  2  0
  7  8  1  0
  8  9  1  0
  8 10  1  0
  8 11  1  0
 11 12  1  0
 11 13  1  0
 11 14  1  0
 14 15  1  0
 14 16  1  0
 14 17  1  0
 17 18  1  0
 17 19  1  0
 17 20  1  0
  6 21  1  0
 21 22  1  0
 22 23  1  0
 23 24  2  0
 24 25  1  0
 24 26  1  0
 26 27  1  0
 26 28  2  0
 28 29  1  0
 28 30  1  0
 30 31  1  0
 31 32  1  0
 32 33  1  0
 32 34  1  0
 32 35  1  0
 30 36  2  0
 36 37  1  0
 22  2  2  0
 36 23  1  0
M  CHG  1  21  -1
M  END
>  <UniqueID>  (29) 
28

>  <SMILES>  (29) 
CCCC/N=c1/cncc(-c2cccc(OC)c2)[n-]1

>  <Energy>  (29) 
35.386356058845706

>  <Genealogy>  (29) 
CCCCN=c1cncc(-c2cccc(OC)c2)[n-]1 (protonated)
CCCC/N=c1/cncc(-c2cccc(OC)c2)[n-]1 (cis-trans isomerization)
CCCC/N=c1/cncc(-c2cccc(OC)c2)[n-]1 (3D coordinates assigned)
CCCC/N=c1/cncc(-c2cccc(OC)c2)[n-]1 (optimized conformer: 35.386356058845706 kcal/mol)

>  <smiles>  (29) 
CCCCN=c1cncc(-c2cccc(OC)c2)[nH]1

>  <score_type>  (29) 
oracle

>  <origin>  (29) 
adg

>  <m_score__min__energy>  (29) 
-8.5800000000000001

>  <m_primary>  (29) 
energy

$$$$
29:0
     RDKit          3D

 78 82  0  0  0  0  0  0  0  0999 V2000
   54.0620   30.0250   52.7230 C   0  0  0  0  0  0  0  0  0  0  0  0
   54.5900   29.9920   54.1260 C   0  0  0  0  0  0  0  0  0  0  0  0
   55.8790   30.5650   54.1680 O   0  0  0  0  0  0  0  0  0  0  0  0
   56.6620   30.7590   53.0700 C   0  0  0  0  0  0  0  0  0  0  0  0
   56.7130   31.8880   52.2930 C   0  0  0  0  0  0  0  0  0  0  0  0
   57.5550   31.9790   51.1800 C   0  0  0  0  0  0  0  0  0  0  0  0
   58.3800   30.9250   50.8090 C   0  0  0  0  0  0  0  0  0  0  0  0
   59.2340   31.0320   49.6350 C   0  0  0  0  0  0  0  0  0  0  0  0
   60.4930   31.5860   49.5330 C   0  0  0  0  0  0  0  0  0  0  0  0
   60.9520   31.4720   48.2460 N   0  0  0  0  0  0  0  0  0  0  0  0
   62.2140   31.9560   47.7640 C   0  0  0  0  0  0  0  0  0  0  0  0
   62.4670   33.3890   48.0900 C   0  0  0  0  0  0  0  0  0  0  0  0
   61.4700   34.2740   47.5920 N   0  0  0  0  0  0  0  0  0  0  0  0
   61.0730   34.0830   46.2550 C   0  0  0  0  0  0  0  0  0  0  0  0
   59.6070   33.7690   46.2760 C   0  0  0  0  0  0  0  0  0  0  0  0
   59.1450   34.5680   47.4780 C   0  0  0  0  0  0  0  0  0  0  0  0
   60.3700   34.5860   48.3930 C   0  0  0  0  0  0  0  0  0  0  0  0
   59.9880   30.8550   47.5690 C   0  0  0  0  0  0  0  0  0  0  0  0
   59.9570   30.4210   46.1180 C   0  0  0  0  0  0  0  0  0  0  0  0
   60.7360   29.1570   45.9720 C   0  0  0  0  0  0  0  0  0  0  0  0
   60.3500   28.2540   44.8590 C   0  0  0  0  0  0  0  0  0  0  0  0
   58.9360   28.1940   44.6450 N   0  0  0  0  0  0  0  0  0  0  0  0
   58.1630   27.0040   44.5980 C   0  0  0  0  0  0  0  0  0  0  0  0
   58.1040   26.3250   43.4340 N   0  0  0  0  0  0  0  0  0  0  0  0
   57.3940   25.1970   43.3080 C   0  0  0  0  0  0  0  0  0  0  0  0
   56.6980   24.6750   44.3350 N   0  0  0  0  0  0  0  0  0  0  0  0
   56.7330   25.3220   45.5040 C   0  0  0  0  0  0  0  0  0  0  0  0
   56.1060   24.9180   46.5690 N   0  0  0  0  0  0  0  0  0  0  0  0
   57.4640   26.5060   45.6780 C   0  0  0  0  0  0  0  0  0  0  0  0
   57.4770   27.2180   46.9750 C   0  0  0  0  0  0  0  0  0  0  0  0
   58.7860   27.1330   47.7120 C   0  0  0  0  0  0  0  0  0  0  0  0
   58.2480   29.4740   44.4840 C   0  0  0  0  0  0  0  0  0  0  0  0
   58.6090   30.4740   45.5170 C   0  0  0  0  0  0  0  0  0  0  0  0
   58.9450   30.5870   48.4000 N   0  0  0  0  0  0  0  0  0  0  0  0
   58.3250   29.7970   51.5910 C   0  0  0  0  0  0  0  0  0  0  0  0
   57.4980   29.7080   52.6850 C   0  0  0  0  0  0  0  0  0  0  0  0
   57.5120   28.4460   53.4790 C   0  0  0  0  0  0  0  0  0  0  0  0
   52.9644   30.0936   52.7458 H   0  0  0  0  0  0  0  0  0  0  0  0
   54.4732   30.8992   52.1970 H   0  0  0  0  0  0  0  0  0  0  0  0
   54.3611   29.1064   52.1970 H   0  0  0  0  0  0  0  0  0  0  0  0
   53.9161   30.5617   54.7828 H   0  0  0  0  0  0  0  0  0  0  0  0
   54.6467   28.9477   54.4670 H   0  0  0  0  0  0  0  0  0  0  0  0
   56.0743   32.7452   52.5522 H   0  0  0  0  0  0  0  0  0  0  0  0
   57.5641   32.9048   50.5859 H   0  0  0  0  0  0  0  0  0  0  0  0
   61.0471   32.0507   50.3619 H   0  0  0  0  0  0  0  0  0  0  0  0
   63.0140   31.3502   48.2146 H   0  0  0  0  0  0  0  0  0  0  0  0
   62.1941   31.8730   46.6673 H   0  0  0  0  0  0  0  0  0  0  0  0
   62.5092   33.4939   49.1842 H   0  0  0  0  0  0  0  0  0  0  0  0
   63.4143   33.6665   47.6047 H   0  0  0  0  0  0  0  0  0  0  0  0
   61.2555   34.9977   45.6720 H   0  0  0  0  0  0  0  0  0  0  0  0
   61.6436   33.2668   45.7879 H   0  0  0  0  0  0  0  0  0  0  0  0
   59.1104   34.1062   45.3542 H   0  0  0  0  0  0  0  0  0  0  0  0
   59.3789   32.6946   46.3366 H   0  0  0  0  0  0  0  0  0  0  0  0
   58.8596   35.5889   47.1843 H   0  0  0  0  0  0  0  0  0  0  0  0
   58.2572   34.1352   47.9623 H   0  0  0  0  0  0  0  0  0  0  0  0
   60.4960   35.5835   48.8392 H   0  0  0  0  0  0  0  0  0  0  0  0
   60.2611   33.8647   49.2163 H   0  0  0  0  0  0  0  0  0  0  0  0
   60.4750   31.1556   45.4839 H   0  0  0  0  0  0  0  0  0  0  0  0
   61.7910   29.4320   45.8259 H   0  0  0  0  0  0  0  0  0  0  0  0
   60.5293   28.5857   46.8890 H   0  0  0  0  0  0  0  0  0  0  0  0
   60.8282   28.6131   43.9358 H   0  0  0  0  0  0  0  0  0  0  0  0
   60.6825   27.2411   45.1301 H   0  0  0  0  0  0  0  0  0  0  0  0
   58.6130   26.6520   42.5770 H   0  0  0  0  0  0  0  0  0  0  0  0
   57.3790   24.6815   42.3364 H   0  0  0  0  0  0  0  0  0  0  0  0
   55.1530   25.3260   46.7740 H   0  0  0  0  0  0  0  0  0  0  0  0
   57.2544   28.2790   46.7884 H   0  0  0  0  0  0  0  0  0  0  0  0
   56.7238   26.7301   47.6111 H   0  0  0  0  0  0  0  0  0  0  0  0
   58.5981   27.1452   48.7958 H   0  0  0  0  0  0  0  0  0  0  0  0
   59.3003   26.1996   47.4395 H   0  0  0  0  0  0  0  0  0  0  0  0
   59.4167   27.9921   47.4395 H   0  0  0  0  0  0  0  0  0  0  0  0
   58.5047   29.8853   43.4966 H   0  0  0  0  0  0  0  0  0  0  0  0
   57.1707   29.2772   44.5871 H   0  0  0  0  0  0  0  0  0  0  0  0
   58.4986   31.4675   45.0578 H   0  0  0  0  0  0  0  0  0  0  0  0
   57.9347   30.2456   46.3555 H   0  0  0  0  0  0  0  0  0  0  0  0
   58.9626   28.9384   51.3336 H   0  0  0  0  0  0  0  0  0  0  0  0
   57.5093   28.6879   54.5521 H   0  0  0  0  0  0  0  0  0  0  0  0
   56.6204   27.8496   53.2353 H   0  0  0  0  0  0  0  0  0  0  0  0
   58.4166   27.8695   53.2353 H   0  0  0  0  0  0  0  0  0  0  0  0
  1  2  1  0
  2  3  1  0
  3  4  1  0
  4  5  2  0
  5  6  1  0
  6  7  2  0
  7  8  1  0
  8  9  2  0
  9 10  1  0
 10 11  1  0
 11 12  1  0
 12 13  1  0
 13 14  1  0
 14 15  1  0
 15 16  1  0
 16 17  1  0
 10 18  1  0
 18 19  1  0
 19 20  1  0
 20 21  1  0
 21 22  1  0
 22 23  1  0
 23 24  1  0
 24 25  1  0
 25 26  2  0
 26 27  1  0
 27 28  2  3
 27 29  1  0
 29 30  1  0
 30 31  1  0
 22 32  1  0
 32 33  1  0
 18 34  2  0
  7 35  1  0
 35 36  2  0
 36 37  1  0
 36  4  1  0
 34  8  1  0
 17 13  1  0
 33 19  1  0
 29 23  2  0
  1 38  1  0
  1 39  1  0
  1 40  1  0
  2 41  1  0
  2 42  1  0
  5 43  1  0
  6 44  1  0
  9 45  1  0
 11 46  1  0
 11 47  1  0
 12 48  1  0
 12 49  1  0
 14 50  1  0
 14 51  1  0
 15 52  1  0
 15 53  1  0
 16 54  1  0
 16 55  1  0
 17 56  1  0
 17 57  1  0
 19 58  1  0
 20 59  1  0
 20 60  1  0
 21 61  1  0
 21 62  1  0
 24 63  1  0
 25 64  1  0
 28 65  1  0
 30 66  1  0
 30 67  1  0
 31 68  1  0
 31 69  1  0
 31 70  1  0
 32 71  1  0
 32 72  1  0
 33 73  1  0
 33 74  1  0
 35 75  1  0
 37 76  1  0
 37 77  1  0
 37 78  1  0
M  END
>  <smiles>  (30) 
CCOc1ccc(-c2cn(CCN3CCCC3)c(C3CCN(c4[nH]cnc(=N)c4CC)CC3)n2)cc1C

>  <score_type>  (30) 
oracle

>  <origin>  (30) 
adg

>  <m_score__min__energy>  (30) 
-9.4199999999999999

>  <m_primary>  (30) 
energy

$$$$
30:0
     RDKit          3D

 44 46  0  0  0  0  0  0  0  0999 V2000
   57.4050   32.7600   47.9720 O   0  0  0  0  0  0  0  0  0  0  0  0
   58.3640   32.9130   47.2310 C   0  0  0  0  0  0  0  0  0  0  0  0
   59.5920   32.0590   47.3980 C   0  0  0  0  0  0  0  0  0  0  0  0
   60.8940   32.9220   47.4260 C   0  0  0  0  0  0  0  0  0  0  0  0
   61.0500   33.5220   48.8540 C   0  0  0  0  0  0  0  0  0  0  0  0
   62.3520   34.3310   49.0430 C   0  0  0  0  0  0  0  0  0  0  0  0
   63.5230   33.8250   48.1850 C   0  0  0  0  0  0  0  0  0  0  0  0
   63.4080   32.3300   47.8880 C   0  0  0  0  0  0  0  0  0  0  0  0
   62.1090   31.9750   47.1320 C   0  0  0  0  0  0  0  0  0  0  0  0
   60.8310   34.0880   46.3620 C   0  0  0  0  0  0  0  0  0  0  0  0
   59.6520   33.9830   45.3830 C   0  0  0  0  0  0  0  0  0  0  0  0
   58.3140   33.9470   46.1390 C   0  0  1  0  0  0  0  0  0  0  0  0
   57.2790   33.6030   45.2300 O   0  0  0  0  0  0  0  0  0  0  0  0
   57.7740   32.8850   44.1160 C   0  0  0  0  0  0  0  0  0  0  0  0
   57.5680   31.4040   44.2940 C   0  0  0  0  0  0  0  0  0  0  0  0
   58.6310   30.5760   44.6910 C   0  0  0  0  0  0  0  0  0  0  0  0
   58.4220   29.2080   44.8910 C   0  0  0  0  0  0  0  0  0  0  0  0
   57.1500   28.6590   44.6990 C   0  0  0  0  0  0  0  0  0  0  0  0
   56.0860   29.4770   44.3110 C   0  0  0  0  0  0  0  0  0  0  0  0
   56.2920   30.8460   44.1100 C   0  0  0  0  0  0  0  0  0  0  0  0
   59.5131   31.5014   48.3429 H   0  0  0  0  0  0  0  0  0  0  0  0
   59.6528   31.3728   46.5404 H   0  0  0  0  0  0  0  0  0  0  0  0
   60.1955   34.1871   49.0475 H   0  0  0  0  0  0  0  0  0  0  0  0
   61.0887   32.6773   49.5576 H   0  0  0  0  0  0  0  0  0  0  0  0
   62.1520   35.3789   48.7746 H   0  0  0  0  0  0  0  0  0  0  0  0
   62.6515   34.2176   50.0953 H   0  0  0  0  0  0  0  0  0  0  0  0
   63.5312   34.3769   47.2335 H   0  0  0  0  0  0  0  0  0  0  0  0
   64.4538   33.9901   48.7474 H   0  0  0  0  0  0  0  0  0  0  0  0
   64.2681   32.0253   47.2737 H   0  0  0  0  0  0  0  0  0  0  0  0
   63.3900   31.7986   48.8509 H   0  0  0  0  0  0  0  0  0  0  0  0
   62.3198   32.0146   46.0531 H   0  0  0  0  0  0  0  0  0  0  0  0
   61.8123   30.9750   47.4813 H   0  0  0  0  0  0  0  0  0  0  0  0
   60.7478   35.0431   46.9012 H   0  0  0  0  0  0  0  0  0  0  0  0
   61.7492   34.0173   45.7603 H   0  0  0  0  0  0  0  0  0  0  0  0
   59.6629   34.8539   44.7111 H   0  0  0  0  0  0  0  0  0  0  0  0
   59.7554   33.0521   44.8062 H   0  0  0  0  0  0  0  0  0  0  0  0
   58.1234   34.9355   46.5823 H   0  0  0  0  0  0  0  0  0  0  0  0
   57.2441   33.2157   43.2105 H   0  0  0  0  0  0  0  0  0  0  0  0
   58.8526   33.0804   44.0242 H   0  0  0  0  0  0  0  0  0  0  0  0
   59.6319   31.0055   44.8452 H   0  0  0  0  0  0  0  0  0  0  0  0
   59.2582   28.5634   45.1994 H   0  0  0  0  0  0  0  0  0  0  0  0
   56.9872   27.5822   44.8536 H   0  0  0  0  0  0  0  0  0  0  0  0
   55.0855   29.0443   44.1634 H   0  0  0  0  0  0  0  0  0  0  0  0
   55.4517   31.4879   43.8068 H   0  0  0  0  0  0  0  0  0  0  0  0
  1  2  2  0
  2  3  1  0
  3  4  1  0
  4  5  1  0
  5  6  1  0
  6  7  1  0
  7  8  1  0
  8  9  1  0
  4 10  1  0
 10 11  1  0
 11 12  1  0
 12 13  1  0
 13 14  1  0
 14 15  1  0
 15 16  2  0
 16 17  1  0
 17 18  2  0
 18 19  1  0
 19 20  2  0
 12  2  1  0
 20 15  1  0
  9  4  1  0
  3 21  1  0
  3 22  1  0
  5 23  1  0
  5 24  1  0
  6 25  1  0
  6 26  1  0
  7 27  1  0
  7 28  1  0
  8 29  1  0
  8 30  1  0
  9 31  1  0
  9 32  1  0
 10 33  1  0
 10 34  1  0
 11 35  1  0
 11 36  1  0
 12 37  1  1
 14 38  1  0
 14 39  1  0
 16 40  1  0
 17 41  1  0
 18 42  1  0
 19 43  1  0
 20 44  1  0
M  END
>  <UniqueID>  (31) 
29

>  <SMILES>  (31) 
O=C1CC2(CCCCC2)CC[C@H]1OCc1ccccc1

>  <Energy>  (31) 
56.000670631222356

>  <Genealogy>  (31) 
O=C1CC2(CCCCC2)CC[C@H]1OCc1ccccc1 (chirality)
O=C1CC2(CCCCC2)CC[C@H]1OCc1ccccc1 (3D coordinates assigned)
O=C1CC2(CCCCC2)CC[C@H]1OCc1ccccc1 (nonaromatic ring conformer: 56.000670631222356 kcal/mol)

>  <smiles>  (31) 
O=C1CC2(CCCCC2)CCC1OCc1ccccc1

>  <score_type>  (31) 
oracle

>  <origin>  (31) 
adg

>  <m_score__min__energy>  (31) 
-8.2100000000000009

>  <m_primary>  (31) 
energy

$$$$
31:0
     RDKit          3D

 43 44  0  0  0  0  0  0  0  0999 V2000
   57.8543   24.5196   44.9470 H   0  0  0  0  0  0  0  0  0  0  0  0
   57.1690   24.3570   44.1020 C   0  0  0  0  0  0  0  0  0  0  0  0
   57.5355   23.5209   43.4883 H   0  0  0  0  0  0  0  0  0  0  0  0
   57.1208   25.2686   43.4883 H   0  0  0  0  0  0  0  0  0  0  0  0
   55.7780   24.0270   44.6320 C   0  0  0  0  0  0  0  0  0  0  0  0
   55.0241   24.3736   43.9098 H   0  0  0  0  0  0  0  0  0  0  0  0
   55.6997   22.9385   44.7702 H   0  0  0  0  0  0  0  0  0  0  0  0
   55.5440   24.6990   45.9480 C   0  0  0  0  0  0  0  0  0  0  0  0
   55.5050   24.0030   46.9990 O   0  0  0  0  0  0  0  0  0  0  0  0
   55.3240   26.1180   45.9800 N   0  0  0  0  0  0  0  0  0  0  0  0
   56.2080   27.0630   45.8350 C   0  0  0  0  0  0  0  0  0  0  0  0
   55.8980   28.2420   45.2500 N   0  0  0  0  0  0  0  0  0  0  0  0
   56.9740   29.0710   45.1950 C   0  0  0  0  0  0  0  0  0  0  0  0
   58.1340   28.5650   45.7710 C   0  0  0  0  0  0  0  0  0  0  0  0
   57.8310   27.0060   46.3170 S   0  0  0  0  0  0  0  0  0  0  0  0
   59.4600   29.2610   45.7550 C   0  0  0  0  0  0  0  0  0  0  0  0
   59.9588   29.1117   46.7240 H   0  0  0  0  0  0  0  0  0  0  0  0
   60.0727   28.8403   44.9441 H   0  0  0  0  0  0  0  0  0  0  0  0
   59.2750   30.7670   45.5080 C   0  0  0  0  0  0  0  0  0  0  0  0
   58.8652   31.2331   46.4162 H   0  0  0  0  0  0  0  0  0  0  0  0
   60.2529   31.2047   45.2588 H   0  0  0  0  0  0  0  0  0  0  0  0
   58.3060   31.0190   44.3280 C   0  0  2  0  0  0  0  0  0  0  0  0
   58.7239   30.4701   43.4712 H   0  0  0  0  0  0  0  0  0  0  0  0
   58.2340   32.4700   43.9020 C   0  0  0  0  0  0  0  0  0  0  0  0
   58.1590   32.7260   42.6690 O   0  0  0  0  0  0  0  0  0  0  0  0
   58.2810   33.5610   44.8430 N   0  0  0  0  0  0  0  0  0  0  0  0
   57.1690   33.7680   45.7820 C   0  0  0  0  0  0  0  0  0  0  0  0
   56.9816   34.8474   45.8810 H   0  0  0  0  0  0  0  0  0  0  0  0
   56.2831   33.2502   45.3857 H   0  0  0  0  0  0  0  0  0  0  0  0
   57.4830   33.1900   47.1630 C   0  0  0  0  0  0  0  0  0  0  0  0
   57.1113   33.8742   47.9400 H   0  0  0  0  0  0  0  0  0  0  0  0
   56.9925   32.2113   47.2710 H   0  0  0  0  0  0  0  0  0  0  0  0
   58.5710   33.0688   47.2710 H   0  0  0  0  0  0  0  0  0  0  0  0
   59.2350   34.6520   44.5910 C   0  0  0  0  0  0  0  0  0  0  0  0
   60.1200   34.2488   44.0770 H   0  0  0  0  0  0  0  0  0  0  0  0
   58.7497   35.4141   43.9636 H   0  0  0  0  0  0  0  0  0  0  0  0
   59.6650   35.2920   45.9050 C   0  0  0  0  0  0  0  0  0  0  0  0
   59.2697   34.7036   46.7461 H   0  0  0  0  0  0  0  0  0  0  0  0
   60.7634   35.3164   45.9588 H   0  0  0  0  0  0  0  0  0  0  0  0
   59.2724   36.3181   45.9588 H   0  0  0  0  0  0  0  0  0  0  0  0
   56.8960   30.4650   44.6400 C   0  0  0  0  0  0  0  0  0  0  0  0
   56.4081   31.1188   45.3779 H   0  0  0  0  0  0  0  0  0  0  0  0
   56.3164   30.4374   43.7055 H   0  0  0  0  0  0  0  0  0  0  0  0
  1  2  1  0
  2  3  1  0
  2  4  1  0
  2  5  1  0
  5  6  1  0
  5  7  1  0
  5  8  1  0
  8  9  2  0
  8 10  1  0
 10 11  2  0
 11 12  1  0
 12 13  1  0
 13 14  2  0
 14 15  1  0
 14 16  1  0
 16 17  1  0
 16 18  1  0
 16 19  1  0
 19 20  1  0
 19 21  1  0
 19 22  1  0
 22 23  1  6
 22 24  1  0
 24 25  2  0
 24 26  1  0
 26 27  1  0
 27 28  1  0
 27 29  1  0
 27 30  1  0
 30 31  1  0
 30 32  1  0
 30 33  1  0
 26 34  1  0
 34 35  1  0
 34 36  1  0
 34 37  1  0
 37 38  1  0
 37 39  1  0
 37 40  1  0
 22 41  1  0
 41 42  1  0
 41 43  1  0
 15 11  1  0
 41 13  1  0
M  CHG  1  12  -1
M  END
>  <UniqueID>  (32) 
30

>  <SMILES>  (32) 
CCC(=O)/N=c1/[n-]c2c(s1)CC[C@H](C(=O)N(CC)CC)C2

>  <Energy>  (32) 
68.90646468624782

>  <Genealogy>  (32) 
CCC(=O)N=c1[n-]c2c(s1)CCC(C(=O)N(CC)CC)C2 (protonated)
CCC(=O)N=c1[n-]c2c(s1)CC[C@H](C(=O)N(CC)CC)C2 (chirality)
CCC(=O)/N=c1/[n-]c2c(s1)CC[C@H](C(=O)N(CC)CC)C2 (cis-trans isomerization)
CCC(=O)/N=c1/[n-]c2c(s1)CC[C@H](C(=O)N(CC)CC)C2 (3D coordinates assigned)
CCC(=O)/N=c1/[n-]c2c(s1)CC[C@H](C(=O)N(CC)CC)C2 (nonaromatic ring conformer: 68.90646468624782 kcal/mol)

>  <smiles>  (32) 
CCC(=O)N=c1[nH]c2c(s1)CCC(C(=O)N(CC)CC)C2

>  <score_type>  (32) 
oracle

>  <origin>  (32) 
adg

>  <m_score__min__energy>  (32) 
-9.4199999999999999

>  <m_primary>  (32) 
energy

$$$$
32:0
     RDKit          3D

 42 44  0  0  0  0  0  0  0  0999 V2000
   56.5310   21.7870   44.3680 Br  0  0  0  0  0  0  0  0  0  0  0  0
   56.7080   23.6360   44.8110 C   0  0  0  0  0  0  0  0  0  0  0  0
   55.7860   24.2410   45.6710 C   0  0  0  0  0  0  0  0  0  0  0  0
   55.9150   25.5950   45.9960 C   0  0  0  0  0  0  0  0  0  0  0  0
   56.9640   26.3630   45.4610 C   0  0  0  0  0  0  0  0  0  0  0  0
   57.0670   27.7540   45.8240 N   0  0  0  0  0  0  0  0  0  0  0  0
   58.0670   28.6870   45.2790 C   0  0  1  0  0  0  0  0  0  0  0  0
   57.9900   28.7360   43.7460 C   0  0  0  0  0  0  0  0  0  0  0  0
   56.6600   29.3240   43.2500 C   0  0  0  0  0  0  0  0  0  0  0  0
   56.0060   30.2820   44.2640 C   0  0  0  0  0  0  0  0  0  0  0  0
   56.9950   31.0110   45.0890 N   0  0  0  0  0  0  0  0  0  0  0  0
   57.7310   32.0470   44.3320 C   0  0  0  0  0  0  0  0  0  0  0  0
   58.3270   33.0690   45.2650 C   0  0  0  0  0  0  0  0  0  0  0  0
   59.0970   34.1300   44.7610 C   0  0  0  0  0  0  0  0  0  0  0  0
   59.6230   35.0740   45.6440 C   0  0  0  0  0  0  0  0  0  0  0  0
   59.3790   34.9570   47.0120 C   0  0  0  0  0  0  0  0  0  0  0  0
   58.6070   33.8920   47.4800 C   0  0  0  0  0  0  0  0  0  0  0  0
   58.0990   32.9780   46.6080 N   0  0  0  0  0  0  0  0  0  0  0  0
   57.8900   30.1140   45.8710 C   0  0  0  0  0  0  0  0  0  0  0  0
   57.8920   25.7400   44.6020 C   0  0  0  0  0  0  0  0  0  0  0  0
   57.7590   24.3860   44.2800 C   0  0  0  0  0  0  0  0  0  0  0  0
   54.9585   23.6512   46.0922 H   0  0  0  0  0  0  0  0  0  0  0  0
   55.1889   26.0635   46.6766 H   0  0  0  0  0  0  0  0  0  0  0  0
   56.3800   28.1120   46.5260 H   0  0  0  0  0  0  0  0  0  0  0  0
   59.0603   28.3149   45.5704 H   0  0  0  0  0  0  0  0  0  0  0  0
   58.8149   29.3588   43.3696 H   0  0  0  0  0  0  0  0  0  0  0  0
   58.0638   27.7045   43.3711 H   0  0  0  0  0  0  0  0  0  0  0  0
   56.8478   29.8765   42.3175 H   0  0  0  0  0  0  0  0  0  0  0  0
   55.9664   28.4837   43.0989 H   0  0  0  0  0  0  0  0  0  0  0  0
   55.3998   31.0159   43.7128 H   0  0  0  0  0  0  0  0  0  0  0  0
   55.3931   29.6732   44.9450 H   0  0  0  0  0  0  0  0  0  0  0  0
   58.5382   31.5689   43.7577 H   0  0  0  0  0  0  0  0  0  0  0  0
   57.0284   32.5549   43.6549 H   0  0  0  0  0  0  0  0  0  0  0  0
   59.2837   34.2161   43.6804 H   0  0  0  0  0  0  0  0  0  0  0  0
   60.2289   35.9087   45.2617 H   0  0  0  0  0  0  0  0  0  0  0  0
   59.7905   35.6961   47.7151 H   0  0  0  0  0  0  0  0  0  0  0  0
   58.4084   33.7909   48.5572 H   0  0  0  0  0  0  0  0  0  0  0  0
   57.5210   32.1940   46.9850 H   0  0  0  0  0  0  0  0  0  0  0  0
   58.8820   30.5859   45.9274 H   0  0  0  0  0  0  0  0  0  0  0  0
   57.4133   29.9832   46.8537 H   0  0  0  0  0  0  0  0  0  0  0  0
   58.7256   26.3225   44.1826 H   0  0  0  0  0  0  0  0  0  0  0  0
   58.4856   23.9096   43.6054 H   0  0  0  0  0  0  0  0  0  0  0  0
  1  2  1  0
  2  3  2  0
  3  4  1  0
  4  5  2  0
  5  6  1  0
  6  7  1  0
  7  8  1  0
  8  9  1  0
  9 10  1  0
 10 11  1  0
 11 12  1  0
 12 13  1  0
 13 14  2  0
 14 15  1  0
 15 16  2  0
 16 17  1  0
 17 18  2  0
 11 19  1  0
  5 20  1  0
 20 21  2  0
 21  2  1  0
 19  7  1  0
 18 13  1  0
  3 22  1  0
  4 23  1  0
  6 24  1  0
  7 25  1  6
  8 26  1  0
  8 27  1  0
  9 28  1  0
  9 29  1  0
 10 30  1  0
 10 31  1  0
 12 32  1  0
 12 33  1  0
 14 34  1  0
 15 35  1  0
 16 36  1  0
 17 37  1  0
 18 38  1  0
 19 39  1  0
 19 40  1  0
 20 41  1  0
 21 42  1  0
M  CHG  1  18   1
M  END
>  <UniqueID>  (33) 
31

>  <SMILES>  (33) 
Brc1ccc(N[C@H]2CCCN(Cc3cccc[nH+]3)C2)cc1

>  <Energy>  (33) 
54.27567286344352

>  <Genealogy>  (33) 
Brc1ccc(NC2CCCN(Cc3cccc[nH+]3)C2)cc1 (protonated)
Brc1ccc(N[C@H]2CCCN(Cc3cccc[nH+]3)C2)cc1 (chirality)
Brc1ccc(N[C@H]2CCCN(Cc3cccc[nH+]3)C2)cc1 (3D coordinates assigned)
Brc1ccc(N[C@H]2CCCN(Cc3cccc[nH+]3)C2)cc1 (nonaromatic ring conformer: 54.27567286344352 kcal/mol)

>  <smiles>  (33) 
Brc1ccc(NC2CCCN(Cc3ccccn3)C2)cc1

>  <score_type>  (33) 
oracle

>  <origin>  (33) 
adg

>  <m_score__min__energy>  (33) 
-6.2300000000000004

>  <m_primary>  (33) 
energy

$$$$
33:0
     RDKit          3D

 68 68  0  0  0  0  0  0  0  0999 V2000
   57.8240   32.4960   45.6300 C   0  0  0  0  0  0  0  0  0  0  0  0
   57.7370   33.9620   46.0580 C   0  0  0  0  0  0  0  0  0  0  0  0
   58.8230   34.4000   47.0770 C   0  0  2  0  0  0  0  0  0  0  0  0
   59.9410   35.1340   46.3000 C   0  0  0  0  0  0  0  0  0  0  0  0
   59.4050   33.2220   47.9250 C   0  0  0  0  0  0  0  0  0  0  0  0
   59.6190   33.5850   49.3570 N   0  0  0  0  0  0  0  0  0  0  0  0
   58.7550   32.7490   50.2340 C   0  0  0  0  0  0  0  0  0  0  0  0
   58.7320   33.2830   51.6780 C   0  0  0  0  0  0  0  0  0  0  0  0
   57.3740   33.1820   52.3870 C   0  0  0  0  0  0  0  0  0  0  0  0
   56.6670   31.9430   52.0590 N   0  0  0  0  0  0  0  0  0  0  0  0
   56.5820   30.8220   52.9520 C   0  0  0  0  0  0  0  0  0  0  0  0
   56.8930   30.9580   54.1700 O   0  0  0  0  0  0  0  0  0  0  0  0
   56.0280   29.5200   52.4410 C   0  0  0  0  0  0  0  0  0  0  0  0
   54.6920   29.1320   53.0940 C   0  0  0  0  0  0  0  0  0  0  0  0
   53.5780   30.0750   52.7070 C   0  0  0  0  0  0  0  0  0  0  0  0
   53.5520   30.6500   51.4260 C   0  0  0  0  0  0  0  0  0  0  0  0
   52.5320   31.5350   51.0710 C   0  0  0  0  0  0  0  0  0  0  0  0
   51.5260   31.8530   51.9890 C   0  0  0  0  0  0  0  0  0  0  0  0
   50.4980   32.7150   51.6240 O   0  0  0  0  0  0  0  0  0  0  0  0
   51.5550   31.3050   53.2770 C   0  0  0  0  0  0  0  0  0  0  0  0
   52.5790   30.4220   53.6370 C   0  0  0  0  0  0  0  0  0  0  0  0
   61.0550   33.4170   49.7080 C   0  0  0  0  0  0  0  0  0  0  0  0
   61.9110   32.9700   48.4980 C   0  0  0  0  0  0  0  0  0  0  0  0
   63.3710   33.2910   48.6460 N   0  0  0  0  0  0  0  0  0  0  0  0
   64.0370   32.4000   49.6210 C   0  0  0  0  0  0  0  0  0  0  0  0
   65.4990   32.7960   49.7720 C   0  0  0  0  0  0  0  0  0  0  0  0
   64.1360   33.4430   47.3860 C   0  0  0  0  0  0  0  0  0  0  0  0
   63.2410   33.8860   46.2280 C   0  0  0  0  0  0  0  0  0  0  0  0
   57.8620   31.8549   46.5231 H   0  0  0  0  0  0  0  0  0  0  0  0
   56.9397   32.2362   45.0296 H   0  0  0  0  0  0  0  0  0  0  0  0
   58.7328   32.3426   45.0296 H   0  0  0  0  0  0  0  0  0  0  0  0
   57.8360   34.5888   45.1595 H   0  0  0  0  0  0  0  0  0  0  0  0
   56.7671   34.0839   46.5623 H   0  0  0  0  0  0  0  0  0  0  0  0
   58.3516   35.0688   47.8121 H   0  0  0  0  0  0  0  0  0  0  0  0
   60.6415   35.5939   47.0125 H   0  0  0  0  0  0  0  0  0  0  0  0
   60.4812   34.4142   45.6674 H   0  0  0  0  0  0  0  0  0  0  0  0
   59.4954   35.9158   45.6674 H   0  0  0  0  0  0  0  0  0  0  0  0
   58.7030   32.3764   47.8788 H   0  0  0  0  0  0  0  0  0  0  0  0
   60.3865   32.9642   47.5005 H   0  0  0  0  0  0  0  0  0  0  0  0
   57.7300   32.7535   49.8349 H   0  0  0  0  0  0  0  0  0  0  0  0
   59.1646   31.7282   50.2500 H   0  0  0  0  0  0  0  0  0  0  0  0
   59.4663   32.7114   52.2646 H   0  0  0  0  0  0  0  0  0  0  0  0
   58.9646   34.3561   51.6120 H   0  0  0  0  0  0  0  0  0  0  0  0
   57.5389   33.2181   53.4740 H   0  0  0  0  0  0  0  0  0  0  0  0
   56.7532   34.0239   52.0467 H   0  0  0  0  0  0  0  0  0  0  0  0
   56.1380   31.8960   51.1560 H   0  0  0  0  0  0  0  0  0  0  0  0
   55.8739   29.6078   51.3554 H   0  0  0  0  0  0  0  0  0  0  0  0
   56.7552   28.7342   52.6932 H   0  0  0  0  0  0  0  0  0  0  0  0
   54.4229   28.1144   52.7745 H   0  0  0  0  0  0  0  0  0  0  0  0
   54.8190   29.1860   54.1853 H   0  0  0  0  0  0  0  0  0  0  0  0
   54.3391   30.4019   50.6987 H   0  0  0  0  0  0  0  0  0  0  0  0
   52.5197   31.9833   50.0666 H   0  0  0  0  0  0  0  0  0  0  0  0
   50.7737   31.5683   54.0051 H   0  0  0  0  0  0  0  0  0  0  0  0
   52.6038   29.9969   54.6512 H   0  0  0  0  0  0  0  0  0  0  0  0
   61.4424   34.3773   50.0791 H   0  0  0  0  0  0  0  0  0  0  0  0
   61.1227   32.6311   50.4747 H   0  0  0  0  0  0  0  0  0  0  0  0
   61.8041   31.8817   48.3789 H   0  0  0  0  0  0  0  0  0  0  0  0
   61.5452   33.5235   47.6206 H   0  0  0  0  0  0  0  0  0  0  0  0
   63.5338   32.4850   50.5955 H   0  0  0  0  0  0  0  0  0  0  0  0
   63.9787   31.3622   49.2611 H   0  0  0  0  0  0  0  0  0  0  0  0
   65.7519   32.8645   50.8403 H   0  0  0  0  0  0  0  0  0  0  0  0
   66.1356   32.0379   49.2924 H   0  0  0  0  0  0  0  0  0  0  0  0
   65.6660   33.7717   49.2924 H   0  0  0  0  0  0  0  0  0  0  0  0
   64.9231   34.1966   47.5361 H   0  0  0  0  0  0  0  0  0  0  0  0
   64.5688   32.4650   47.1288 H   0  0  0  0  0  0  0  0  0  0  0  0
   62.3225   34.3406   46.6276 H   0  0  0  0  0  0  0  0  0  0  0  0
   63.7768   34.6230   45.6117 H   0  0  0  0  0  0  0  0  0  0  0  0
   62.9799   33.0131   45.6117 H   0  0  0  0  0  0  0  0  0  0  0  0
  1  2  1  0
  2  3  1  0
  3  4  1  0
  3  5  1  0
  5  6  1  0
  6  7  1  0
  7  8  1  0
  8  9  1  0
  9 10  1  0
 10 11  1  0
 11 12  2  0
 11 13  1  0
 13 14  1  0
 14 15  1  0
 15 16  2  0
 16 17  1  0
 17 18  2  0
 18 19  1  0
 18 20  1  0
 20 21  2  0
  6 22  1  0
 22 23  1  0
 23 24  1  0
 24 25  1  0
 25 26  1  0
 24 27  1  0
 27 28  1  0
 21 15  1  0
  1 29  1  0
  1 30  1  0
  1 31  1  0
  2 32  1  0
  2 33  1  0
  3 34  1  1
  4 35  1  0
  4 36  1  0
  4 37  1  0
  5 38  1  0
  5 39  1  0
  7 40  1  0
  7 41  1  0
  8 42  1  0
  8 43  1  0
  9 44  1  0
  9 45  1  0
 10 46  1  0
 13 47  1  0
 13 48  1  0
 14 49  1  0
 14 50  1  0
 16 51  1  0
 17 52  1  0
 20 53  1  0
 21 54  1  0
 22 55  1  0
 22 56  1  0
 23 57  1  0
 23 58  1  0
 25 59  1  0
 25 60  1  0
 26 61  1  0
 26 62  1  0
 26 63  1  0
 27 64  1  0
 27 65  1  0
 28 66  1  0
 28 67  1  0
 28 68  1  0
M  CHG  1  19  -1
M  END
>  <UniqueID>  (34) 
32

>  <SMILES>  (34) 
CC[C@H](C)CN(CCCNC(=O)CCc1ccc([O-])cc1)CCN(CC)CC

>  <Energy>  (34) 
64.15506108809676

>  <Genealogy>  (34) 
CCC(C)CN(CCCNC(=O)CCc1ccc([O-])cc1)CCN(CC)CC (protonated)
CC[C@H](C)CN(CCCNC(=O)CCc1ccc([O-])cc1)CCN(CC)CC (chirality)
CC[C@H](C)CN(CCCNC(=O)CCc1ccc([O-])cc1)CCN(CC)CC (3D coordinates assigned)
CC[C@H](C)CN(CCCNC(=O)CCc1ccc([O-])cc1)CCN(CC)CC (optimized conformer: 64.15506108809676 kcal/mol)

>  <smiles>  (34) 
CCC(C)CN(CCCNC(=O)CCc1ccc(O)cc1)CCN(CC)CC

>  <score_type>  (34) 
oracle

>  <origin>  (34) 
adg

>  <m_score__min__energy>  (34) 
-12.039999999999999

>  <m_primary>  (34) 
energy

$$$$
34:0
     RDKit          3D

 21 21  0  0  0  0  0  0  0  0999 V2000
   57.7340   27.0350   44.4250 C   0  0  0  0  0  0  0  0  0  0  0  0
   57.7740   28.3650   44.4480 C   0  0  0  0  0  0  0  0  0  0  0  0
   58.9390   29.1800   44.6800 C   0  0  0  0  0  0  0  0  0  0  0  0
   60.0960   28.7520   44.9280 O   0  0  0  0  0  0  0  0  0  0  0  0
   58.6190   30.5180   44.6020 O   0  0  0  0  0  0  0  0  0  0  0  0
   57.2480   30.7110   44.2590 C   0  0  2  0  0  0  0  0  0  0  0  0
   56.6460   31.5590   45.2230 O   0  0  0  0  0  0  0  0  0  0  0  0
   57.5850   32.4770   45.7510 C   0  0  0  0  0  0  0  0  0  0  0  0
   57.2740   33.8890   45.2690 C   0  0  0  0  0  0  0  0  0  0  0  0
   56.6100   29.2830   44.2420 C   0  0  2  0  0  0  0  0  0  0  0  0
   55.6410   29.1080   45.2480 O   0  0  0  0  0  0  0  0  0  0  0  0
   56.7822   26.5165   44.2372 H   0  0  0  0  0  0  0  0  0  0  0  0
   58.6527   26.4541   44.5938 H   0  0  0  0  0  0  0  0  0  0  0  0
   57.1095   31.1952   43.2810 H   0  0  0  0  0  0  0  0  0  0  0  0
   57.5398   32.4506   46.8498 H   0  0  0  0  0  0  0  0  0  0  0  0
   58.5916   32.1958   45.4081 H   0  0  0  0  0  0  0  0  0  0  0  0
   57.1286   34.5490   46.1369 H   0  0  0  0  0  0  0  0  0  0  0  0
   58.1116   34.2617   44.6611 H   0  0  0  0  0  0  0  0  0  0  0  0
   56.3573   33.8754   44.6611 H   0  0  0  0  0  0  0  0  0  0  0  0
   56.0692   29.0924   43.3033 H   0  0  0  0  0  0  0  0  0  0  0  0
   55.8700   29.7170   45.9990 H   0  0  0  0  0  0  0  0  0  0  0  0
  1  2  2  0
  2  3  1  0
  3  4  2  0
  3  5  1  0
  5  6  1  0
  6  7  1  0
  7  8  1  0
  8  9  1  0
  6 10  1  0
 10 11  1  0
 10  2  1  0
  1 12  1  0
  1 13  1  0
  6 14  1  6
  8 15  1  0
  8 16  1  0
  9 17  1  0
  9 18  1  0
  9 19  1  0
 10 20  1  6
 11 21  1  0
M  END
>  <UniqueID>  (35) 
33

>  <SMILES>  (35) 
C=C1C(=O)O[C@H](OCC)[C@@H]1O

>  <Energy>  (35) 
34.1176859911218

>  <Genealogy>  (35) 
C=C1C(=O)O[C@H](OCC)[C@@H]1O (chirality)
C=C1C(=O)O[C@H](OCC)[C@@H]1O (3D coordinates assigned)
C=C1C(=O)O[C@H](OCC)[C@@H]1O (nonaromatic ring conformer: 34.1176859911218 kcal/mol)

>  <smiles>  (35) 
C=C1C(=O)OC(OCC)C1O

>  <score_type>  (35) 
oracle

>  <origin>  (35) 
adg

>  <m_score__min__energy>  (35) 
-5.0099999999999998

>  <m_primary>  (35) 
energy

$$$$
35:0
     RDKit          3D

 43 45  0  0  0  0  0  0  0  0999 V2000
   56.6300   29.9300   45.2390 O   0  0  0  0  0  0  0  0  0  0  0  0
   56.9300   28.7230   45.4340 C   0  0  0  0  0  0  0  0  0  0  0  0
   58.3680   28.2890   45.3760 C   0  0  0  0  0  0  0  0  0  0  0  0
   58.6010   27.0010   46.0710 N   0  0  0  0  0  0  0  0  0  0  0  0
   58.6880   27.1590   47.5380 C   0  0  0  0  0  0  0  0  0  0  0  0
   60.0510   27.6760   47.9210 C   0  0  0  0  0  0  0  0  0  0  0  0
   61.0570   26.9690   47.6430 O   0  0  0  0  0  0  0  0  0  0  0  0
   60.2410   28.9560   48.5620 N   0  0  0  0  0  0  0  0  0  0  0  0
   61.3570   29.8130   48.1960 C   0  0  0  0  0  0  0  0  0  0  0  0
   60.8670   30.9400   47.2810 C   0  0  0  0  0  0  0  0  0  0  0  0
   59.4660   31.3810   47.5080 N   0  0  0  0  0  0  0  0  0  0  0  0
   58.9280   32.4480   46.6640 C   0  0  0  0  0  0  0  0  0  0  0  0
   59.7040   33.5860   46.3380 C   0  0  0  0  0  0  0  0  0  0  0  0
   59.1680   34.5940   45.5380 C   0  0  0  0  0  0  0  0  0  0  0  0
   57.8680   34.4850   45.0600 C   0  0  0  0  0  0  0  0  0  0  0  0
   57.1160   33.3610   45.3890 C   0  0  0  0  0  0  0  0  0  0  0  0
   57.6460   32.3800   46.1710 N   0  0  0  0  0  0  0  0  0  0  0  0
   58.5480   30.7020   48.4600 C   0  0  0  0  0  0  0  0  0  0  0  0
   59.2070   29.6320   49.3280 C   0  0  0  0  0  0  0  0  0  0  0  0
   57.6060   25.9820   45.6680 C   0  0  0  0  0  0  0  0  0  0  0  0
   56.1750   26.3950   46.0430 C   0  0  0  0  0  0  0  0  0  0  0  0
   55.8940   27.7560   45.6060 N   0  0  0  0  0  0  0  0  0  0  0  0
   58.6609   28.1787   44.3214 H   0  0  0  0  0  0  0  0  0  0  0  0
   58.9694   29.0567   45.8849 H   0  0  0  0  0  0  0  0  0  0  0  0
   57.9205   27.8719   47.8737 H   0  0  0  0  0  0  0  0  0  0  0  0
   58.5248   26.1821   48.0166 H   0  0  0  0  0  0  0  0  0  0  0  0
   61.7981   30.2467   49.1056 H   0  0  0  0  0  0  0  0  0  0  0  0
   62.1139   29.2170   47.6651 H   0  0  0  0  0  0  0  0  0  0  0  0
   61.5248   31.8089   47.4304 H   0  0  0  0  0  0  0  0  0  0  0  0
   60.8956   30.5349   46.2587 H   0  0  0  0  0  0  0  0  0  0  0  0
   60.7328   33.6752   46.7169 H   0  0  0  0  0  0  0  0  0  0  0  0
   59.7746   35.4761   45.2851 H   0  0  0  0  0  0  0  0  0  0  0  0
   57.4384   35.2773   44.4293 H   0  0  0  0  0  0  0  0  0  0  0  0
   56.0862   33.2643   45.0147 H   0  0  0  0  0  0  0  0  0  0  0  0
   57.0220   31.5720   46.3770 H   0  0  0  0  0  0  0  0  0  0  0  0
   58.1177   31.4655   49.1248 H   0  0  0  0  0  0  0  0  0  0  0  0
   57.7931   30.1853   47.8491 H   0  0  0  0  0  0  0  0  0  0  0  0
   59.6566   30.1042   50.2140 H   0  0  0  0  0  0  0  0  0  0  0  0
   58.4496   28.9008   49.6469 H   0  0  0  0  0  0  0  0  0  0  0  0
   57.6614   25.8431   44.5782 H   0  0  0  0  0  0  0  0  0  0  0  0
   57.8408   25.0487   46.2007 H   0  0  0  0  0  0  0  0  0  0  0  0
   55.4640   25.7081   45.5606 H   0  0  0  0  0  0  0  0  0  0  0  0
   56.0720   26.3495   47.1372 H   0  0  0  0  0  0  0  0  0  0  0  0
  1  2  2  0
  2  3  1  0
  3  4  1  0
  4  5  1  0
  5  6  1  0
  6  7  2  0
  6  8  1  0
  8  9  1  0
  9 10  1  0
 10 11  1  0
 11 12  1  0
 12 13  2  0
 13 14  1  0
 14 15  2  0
 15 16  1  0
 16 17  2  0
 11 18  1  0
 18 19  1  0
  4 20  1  0
 20 21  1  0
 21 22  1  0
 22  2  1  0
 19  8  1  0
 17 12  1  0
  3 23  1  0
  3 24  1  0
  5 25  1  0
  5 26  1  0
  9 27  1  0
  9 28  1  0
 10 29  1  0
 10 30  1  0
 13 31  1  0
 14 32  1  0
 15 33  1  0
 16 34  1  0
 17 35  1  0
 18 36  1  0
 18 37  1  0
 19 38  1  0
 19 39  1  0
 20 40  1  0
 20 41  1  0
 21 42  1  0
 21 43  1  0
M  CHG  2  17   1  22  -1
M  END
>  <UniqueID>  (36) 
34

>  <SMILES>  (36) 
O=C1CN(CC(=O)N2CCN(c3cccc[nH+]3)CC2)CC[N-]1

>  <Energy>  (36) 
56.58713055209223

>  <Genealogy>  (36) 
O=C1CN(CC(=O)N2CCN(c3cccc[nH+]3)CC2)CC[N-]1 (protonated)
O=C1CN(CC(=O)N2CCN(c3cccc[nH+]3)CC2)CC[N-]1 (3D coordinates assigned)
O=C1CN(CC(=O)N2CCN(c3cccc[nH+]3)CC2)CC[N-]1 (nonaromatic ring conformer: 56.58713055209223 kcal/mol)

>  <smiles>  (36) 
O=C1CN(CC(=O)N2CCN(c3ccccn3)CC2)CCN1

>  <score_type>  (36) 
oracle

>  <origin>  (36) 
adg

>  <m_score__min__energy>  (36) 
-8.5299999999999994

>  <m_primary>  (36) 
energy

$$$$
36:0
     RDKit          3D

 53 55  0  0  0  0  0  0  0  0999 V2000
   55.5380   23.6530   45.9820 C   0  0  0  0  0  0  0  0  0  0  0  0
   55.9590   24.7050   46.8430 O   0  0  0  0  0  0  0  0  0  0  0  0
   56.1770   26.0140   46.3930 C   0  0  0  0  0  0  0  0  0  0  0  0
   55.2040   26.7020   45.9810 O   0  0  0  0  0  0  0  0  0  0  0  0
   57.5630   26.5560   46.3720 C   0  0  0  0  0  0  0  0  0  0  0  0
   58.1460   26.9230   47.6010 C   0  0  0  0  0  0  0  0  0  0  0  0
   59.4370   27.4690   47.6640 C   0  0  0  0  0  0  0  0  0  0  0  0
   60.0460   27.8810   48.9950 C   0  0  0  0  0  0  0  0  0  0  0  0
   60.1280   29.3510   49.2130 N   0  0  0  0  0  0  0  0  0  0  0  0
   58.7870   30.0000   49.2250 C   0  0  0  0  0  0  0  0  0  0  0  0
   58.8480   31.4790   48.8400 C   0  0  0  0  0  0  0  0  0  0  0  0
   59.4250   31.5880   47.4990 N   0  0  0  0  0  0  0  0  0  0  0  0
   58.9720   32.6150   46.6000 C   0  0  0  0  0  0  0  0  0  0  0  0
   59.5220   33.9040   46.6870 C   0  0  0  0  0  0  0  0  0  0  0  0
   59.1000   34.9140   45.8180 C   0  0  0  0  0  0  0  0  0  0  0  0
   58.1230   34.6460   44.8580 C   0  0  0  0  0  0  0  0  0  0  0  0
   57.5560   33.3710   44.7710 C   0  0  0  0  0  0  0  0  0  0  0  0
   57.9710   32.3430   45.6440 C   0  0  0  0  0  0  0  0  0  0  0  0
   57.4020   31.0580   45.6050 O   0  0  0  0  0  0  0  0  0  0  0  0
   56.9930   30.3900   44.4160 C   0  0  0  0  0  0  0  0  0  0  0  0
   60.5290   30.7020   47.1110 C   0  0  0  0  0  0  0  0  0  0  0  0
   61.1420   30.0240   48.3480 C   0  0  0  0  0  0  0  0  0  0  0  0
   60.1840   27.5760   46.4820 C   0  0  0  0  0  0  0  0  0  0  0  0
   59.6300   27.2030   45.2570 C   0  0  0  0  0  0  0  0  0  0  0  0
   58.3150   26.7140   45.1780 C   0  0  0  0  0  0  0  0  0  0  0  0
   57.7590   26.3630   43.8200 C   0  0  0  0  0  0  0  0  0  0  0  0
   55.1964   22.7994   46.5859 H   0  0  0  0  0  0  0  0  0  0  0  0
   54.7122   24.0069   45.3473 H   0  0  0  0  0  0  0  0  0  0  0  0
   56.3799   23.3395   45.3473 H   0  0  0  0  0  0  0  0  0  0  0  0
   57.5768   26.7784   48.5311 H   0  0  0  0  0  0  0  0  0  0  0  0
   59.4339   27.4488   49.8003 H   0  0  0  0  0  0  0  0  0  0  0  0
   61.0813   27.5093   48.9913 H   0  0  0  0  0  0  0  0  0  0  0  0
   60.4930   29.4540   50.1920 H   0  0  0  0  0  0  0  0  0  0  0  0
   58.1353   29.4761   48.5103 H   0  0  0  0  0  0  0  0  0  0  0  0
   58.3950   29.9378   50.2509 H   0  0  0  0  0  0  0  0  0  0  0  0
   57.8339   31.9051   48.8430 H   0  0  0  0  0  0  0  0  0  0  0  0
   59.4678   32.0306   49.5623 H   0  0  0  0  0  0  0  0  0  0  0  0
   60.2901   34.1203   47.4441 H   0  0  0  0  0  0  0  0  0  0  0  0
   59.5380   35.9204   45.8907 H   0  0  0  0  0  0  0  0  0  0  0  0
   57.7985   35.4394   44.1686 H   0  0  0  0  0  0  0  0  0  0  0  0
   56.7812   33.1679   44.0170 H   0  0  0  0  0  0  0  0  0  0  0  0
   56.4354   29.4794   44.6803 H   0  0  0  0  0  0  0  0  0  0  0  0
   56.3478   31.0563   43.8245 H   0  0  0  0  0  0  0  0  0  0  0  0
   57.8798   30.1183   43.8245 H   0  0  0  0  0  0  0  0  0  0  0  0
   60.1485   29.9292   46.4269 H   0  0  0  0  0  0  0  0  0  0  0  0
   61.3062   31.3017   46.6147 H   0  0  0  0  0  0  0  0  0  0  0  0
   61.8684   29.2704   48.0097 H   0  0  0  0  0  0  0  0  0  0  0  0
   61.6153   30.8122   48.9519 H   0  0  0  0  0  0  0  0  0  0  0  0
   61.2151   27.9571   46.5209 H   0  0  0  0  0  0  0  0  0  0  0  0
   60.2311   27.2930   44.3402 H   0  0  0  0  0  0  0  0  0  0  0  0
   56.8346   25.7794   43.9419 H   0  0  0  0  0  0  0  0  0  0  0  0
   57.5391   27.2863   43.2640 H   0  0  0  0  0  0  0  0  0  0  0  0
   58.4980   25.7674   43.2640 H   0  0  0  0  0  0  0  0  0  0  0  0
  1  2  1  0
  2  3  1  0
  3  4  2  0
  3  5  1  0
  5  6  2  0
  6  7  1  0
  7  8  1  0
  8  9  1  0
  9 10  1  0
 10 11  1  0
 11 12  1  0
 12 13  1  0
 13 14  2  0
 14 15  1  0
 15 16  2  0
 16 17  1  0
 17 18  2  0
 18 19  1  0
 19 20  1  0
 12 21  1  0
 21 22  1  0
  7 23  2  0
 23 24  1  0
 24 25  2  0
 25 26  1  0
 25  5  1  0
 22  9  1  0
 18 13  1  0
  1 27  1  0
  1 28  1  0
  1 29  1  0
  6 30  1  0
  8 31  1  0
  8 32  1  0
  9 33  1  0
 10 34  1  0
 10 35  1  0
 11 36  1  0
 11 37  1  0
 14 38  1  0
 15 39  1  0
 16 40  1  0
 17 41  1  0
 20 42  1  0
 20 43  1  0
 20 44  1  0
 21 45  1  0
 21 46  1  0
 22 47  1  0
 22 48  1  0
 23 49  1  0
 24 50  1  0
 26 51  1  0
 26 52  1  0
 26 53  1  0
M  CHG  1   9   1
M  END
>  <UniqueID>  (37) 
35

>  <SMILES>  (37) 
COC(=O)c1cc(C[NH+]2CCN(c3ccccc3OC)CC2)ccc1C

>  <Energy>  (37) 
69.27530860070621

>  <Genealogy>  (37) 
COC(=O)c1cc(C[NH+]2CCN(c3ccccc3OC)CC2)ccc1C (protonated)
COC(=O)c1cc(C[NH+]2CCN(c3ccccc3OC)CC2)ccc1C (3D coordinates assigned)
COC(=O)c1cc(C[NH+]2CCN(c3ccccc3OC)CC2)ccc1C (nonaromatic ring conformer: 69.27530860070621 kcal/mol)

>  <smiles>  (37) 
COC(=O)c1cc(CN2CCN(c3ccccc3OC)CC2)ccc1C

>  <score_type>  (37) 
oracle

>  <origin>  (37) 
adg

>  <m_score__min__energy>  (37) 
-6.25

>  <m_primary>  (37) 
energy

$$$$
37:0
     RDKit          3D

 56 60  0  0  0  0  0  0  0  0999 V2000
   60.8680   30.1010   47.1880 C   0  0  0  0  0  0  0  0  0  0  0  0
   59.9130   29.0860   46.7190 N   0  0  0  0  0  0  0  0  0  0  0  0
   60.2240   28.6860   45.3350 C   0  0  0  0  0  0  0  0  0  0  0  0
   59.3630   27.4880   44.8700 C   0  0  0  0  0  0  0  0  0  0  0  0
   58.3130   27.1080   45.8370 N   0  0  0  0  0  0  0  0  0  0  0  0
   57.0090   27.7900   45.6640 C   0  0  0  0  0  0  0  0  0  0  0  0
   57.0800   29.0280   44.8000 C   0  0  0  0  0  0  0  0  0  0  0  0
   56.6750   28.9780   43.4580 C   0  0  0  0  0  0  0  0  0  0  0  0
   56.7800   30.1080   42.6480 C   0  0  0  0  0  0  0  0  0  0  0  0
   57.2980   31.2970   43.1650 C   0  0  0  0  0  0  0  0  0  0  0  0
   57.7140   31.3700   44.5050 C   0  0  0  0  0  0  0  0  0  0  0  0
   58.2830   32.6310   45.0360 C   0  0  0  0  0  0  0  0  0  0  0  0
   58.9450   32.6160   46.2250 N   0  0  0  0  0  0  0  0  0  0  0  0
   59.4940   33.7410   46.7540 C   0  0  0  0  0  0  0  0  0  0  0  0
   60.1700   33.6930   48.0690 C   0  0  0  0  0  0  0  0  0  0  0  0
   59.3960   33.8270   49.1820 N   0  0  0  0  0  0  0  0  0  0  0  0
   59.8970   33.7390   50.4400 C   0  0  0  0  0  0  0  0  0  0  0  0
   61.2520   33.4930   50.6380 C   0  0  0  0  0  0  0  0  0  0  0  0
   62.0980   33.3650   49.5300 C   0  0  0  0  0  0  0  0  0  0  0  0
   63.4720   33.1420   49.7160 C   0  0  0  0  0  0  0  0  0  0  0  0
   64.3240   33.0520   48.6160 C   0  0  0  0  0  0  0  0  0  0  0  0
   63.8180   33.1970   47.3240 C   0  0  0  0  0  0  0  0  0  0  0  0
   62.4530   33.4170   47.1210 C   0  0  0  0  0  0  0  0  0  0  0  0
   61.5670   33.4790   48.2180 C   0  0  0  0  0  0  0  0  0  0  0  0
   59.3420   34.9560   46.0780 C   0  0  0  0  0  0  0  0  0  0  0  0
   58.6510   34.9650   44.8680 C   0  0  0  0  0  0  0  0  0  0  0  0
   58.1350   33.8130   44.3670 N   0  0  0  0  0  0  0  0  0  0  0  0
   57.5730   30.2350   45.3250 C   0  0  0  0  0  0  0  0  0  0  0  0
   58.7780   26.9570   47.2340 C   0  0  0  0  0  0  0  0  0  0  0  0
   59.9290   27.9120   47.6000 C   0  0  0  0  0  0  0  0  0  0  0  0
   60.8795   30.1132   48.2879 H   0  0  0  0  0  0  0  0  0  0  0  0
   61.8736   29.8591   46.8135 H   0  0  0  0  0  0  0  0  0  0  0  0
   60.5653   31.0900   46.8135 H   0  0  0  0  0  0  0  0  0  0  0  0
   60.0345   29.5396   44.6676 H   0  0  0  0  0  0  0  0  0  0  0  0
   61.2798   28.3794   45.2993 H   0  0  0  0  0  0  0  0  0  0  0  0
   58.8802   27.7546   43.9183 H   0  0  0  0  0  0  0  0  0  0  0  0
   60.0371   26.6248   44.7677 H   0  0  0  0  0  0  0  0  0  0  0  0
   56.3061   27.0825   45.1998 H   0  0  0  0  0  0  0  0  0  0  0  0
   56.6809   28.1138   46.6628 H   0  0  0  0  0  0  0  0  0  0  0  0
   56.2725   28.0424   43.0425 H   0  0  0  0  0  0  0  0  0  0  0  0
   56.4537   30.0626   41.5985 H   0  0  0  0  0  0  0  0  0  0  0  0
   57.3810   32.1831   42.5185 H   0  0  0  0  0  0  0  0  0  0  0  0
   59.2298   33.8625   51.3058 H   0  0  0  0  0  0  0  0  0  0  0  0
   61.6554   33.3998   51.6571 H   0  0  0  0  0  0  0  0  0  0  0  0
   63.8775   33.0380   50.7332 H   0  0  0  0  0  0  0  0  0  0  0  0
   65.3976   32.8662   48.7672 H   0  0  0  0  0  0  0  0  0  0  0  0
   64.4970   33.1378   46.4606 H   0  0  0  0  0  0  0  0  0  0  0  0
   62.0662   33.5428   46.0989 H   0  0  0  0  0  0  0  0  0  0  0  0
   59.7593   35.8853   46.4930 H   0  0  0  0  0  0  0  0  0  0  0  0
   58.5230   35.9083   44.3168 H   0  0  0  0  0  0  0  0  0  0  0  0
   57.5930   33.8620   43.4760 H   0  0  0  0  0  0  0  0  0  0  0  0
   57.8514   30.2931   46.3876 H   0  0  0  0  0  0  0  0  0  0  0  0
   57.9313   27.1567   47.9072 H   0  0  0  0  0  0  0  0  0  0  0  0
   59.1598   25.9310   47.3409 H   0  0  0  0  0  0  0  0  0  0  0  0
   59.8117   28.2392   48.6436 H   0  0  0  0  0  0  0  0  0  0  0  0
   60.8862   27.3841   47.4773 H   0  0  0  0  0  0  0  0  0  0  0  0
  1  2  1  0
  2  3  1  0
  3  4  1  0
  4  5  1  0
  5  6  1  0
  6  7  1  0
  7  8  2  0
  8  9  1  0
  9 10  2  0
 10 11  1  0
 11 12  1  0
 12 13  2  0
 13 14  1  0
 14 15  1  0
 15 16  2  0
 16 17  1  0
 17 18  2  0
 18 19  1  0
 19 20  2  0
 20 21  1  0
 21 22  2  0
 22 23  1  0
 23 24  2  0
 14 25  2  0
 25 26  1  0
 26 27  2  0
 11 28  2  0
  5 29  1  0
 29 30  1  0
 30  2  1  0
 28  7  1  0
 27 12  1  0
 24 15  1  0
 24 19  1  0
  1 31  1  0
  1 32  1  0
  1 33  1  0
  3 34  1  0
  3 35  1  0
  4 36  1  0
  4 37  1  0
  6 38  1  0
  6 39  1  0
  8 40  1  0
  9 41  1  0
 10 42  1  0
 17 43  1  0
 18 44  1  0
 20 45  1  0
 21 46  1  0
 22 47  1  0
 23 48  1  0
 25 49  1  0
 26 50  1  0
 27 51  1  0
 28 52  1  0
 29 53  1  0
 29 54  1  0
 30 55  1  0
 30 56  1  0
M  CHG  1  27   1
M  END
>  <UniqueID>  (38) 
36

>  <SMILES>  (38) 
CN1CCN(Cc2cccc(-c3nc(-c4nccc5ccccc45)cc[nH+]3)c2)CC1

>  <Energy>  (38) 
88.11273466911133

>  <Genealogy>  (38) 
CN1CCN(Cc2cccc(-c3nc(-c4nccc5ccccc45)cc[nH+]3)c2)CC1 (protonated)
CN1CCN(Cc2cccc(-c3nc(-c4nccc5ccccc45)cc[nH+]3)c2)CC1 (3D coordinates assigned)
CN1CCN(Cc2cccc(-c3nc(-c4nccc5ccccc45)cc[nH+]3)c2)CC1 (nonaromatic ring conformer: 88.11273466911133 kcal/mol)

>  <smiles>  (38) 
CN1CCN(Cc2cccc(-c3nccc(-c4nccc5ccccc45)n3)c2)CC1

>  <score_type>  (38) 
oracle

>  <origin>  (38) 
adg

>  <m_score__min__energy>  (38) 
-8.2300000000000004

>  <m_primary>  (38) 
energy

$$$$
38:0
     RDKit          3D

114115  0  0  0  0  0  0  0  0999 V2000
   63.1990   33.1370   47.1170 C   0  0  0  0  0  0  0  0  0  0  0  0
   62.0320   33.7760   46.3630 C   0  0  0  0  0  0  0  0  0  0  0  0
   60.8200   33.8990   47.2090 N   0  0  0  0  0  0  0  0  0  0  0  0
   59.8690   34.9150   46.6820 C   0  0  0  0  0  0  0  0  0  0  0  0
   59.3190   34.4790   45.3270 C   0  0  0  0  0  0  0  0  0  0  0  0
   61.2100   34.2110   48.6050 C   0  0  0  0  0  0  0  0  0  0  0  0
   59.9870   34.2800   49.5440 C   0  0  0  0  0  0  0  0  0  0  0  0
   59.9870   33.2190   50.5790 N   0  0  0  0  0  0  0  0  0  0  0  0
   61.3580   32.7840   50.9480 C   0  0  0  0  0  0  0  0  0  0  0  0
   61.6420   31.3980   50.3490 C   0  0  0  0  0  0  0  0  0  0  0  0
   60.5830   30.3390   50.7010 C   0  0  0  0  0  0  0  0  0  0  0  0
   60.0190   29.5620   49.4980 C   0  0  0  0  0  0  0  0  0  0  0  0
   59.9560   30.3350   48.1660 C   0  0  0  0  0  0  0  0  0  0  0  0
   59.0600   31.5860   48.2120 C   0  0  0  0  0  0  0  0  0  0  0  0
   58.1970   31.7620   46.9510 C   0  0  0  0  0  0  0  0  0  0  0  0
   58.0370   30.4900   46.0940 C   0  0  0  0  0  0  0  0  0  0  0  0
   58.9120   30.4890   44.8930 N   0  0  0  0  0  0  0  0  0  0  0  0
   58.2850   31.2000   43.7490 C   0  0  0  0  0  0  0  0  0  0  0  0
   56.7530   31.1540   43.8610 C   0  0  0  0  0  0  0  0  0  0  0  0
   56.1650   29.7500   43.6550 C   0  0  0  0  0  0  0  0  0  0  0  0
   55.3140   29.3710   44.7790 N   0  0  0  0  0  0  0  0  0  0  0  0
   59.2870   29.0990   44.5300 C   0  0  0  0  0  0  0  0  0  0  0  0
   60.4190   28.6070   45.4390 C   0  0  0  0  0  0  0  0  0  0  0  0
   59.9380   27.6070   46.4990 C   0  0  0  0  0  0  0  0  0  0  0  0
   59.4600   26.2780   45.8940 C   0  0  0  0  0  0  0  0  0  0  0  0
   58.0600   26.4440   45.2880 C   0  0  0  0  0  0  0  0  0  0  0  0
   57.0350   26.8910   46.3360 C   0  0  0  0  0  0  0  0  0  0  0  0
   55.8930   25.9690   46.3340 N   0  0  0  0  0  0  0  0  0  0  0  0
   56.2680   24.6600   46.8780 C   0  0  0  0  0  0  0  0  0  0  0  0
   56.5000   23.6990   45.7390 C   0  0  0  0  0  0  0  0  0  0  0  0
   56.1600   24.0890   44.4330 C   0  0  0  0  0  0  0  0  0  0  0  0
   56.3120   23.2020   43.3670 C   0  0  0  0  0  0  0  0  0  0  0  0
   56.7990   21.9150   43.5910 C   0  0  0  0  0  0  0  0  0  0  0  0
   57.1250   21.5080   44.8870 C   0  0  0  0  0  0  0  0  0  0  0  0
   56.9680   22.3890   45.9760 C   0  0  0  0  0  0  0  0  0  0  0  0
   57.2600   21.9950   47.2920 O   0  0  0  0  0  0  0  0  0  0  0  0
   56.4340   21.1490   48.0870 C   0  0  0  0  0  0  0  0  0  0  0  0
   59.2370   33.6580   51.7790 C   0  0  0  0  0  0  0  0  0  0  0  0
   58.3100   32.5630   52.2740 C   0  0  0  0  0  0  0  0  0  0  0  0
   57.4670   31.9550   51.3300 C   0  0  0  0  0  0  0  0  0  0  0  0
   56.5650   30.9780   51.7320 C   0  0  0  0  0  0  0  0  0  0  0  0
   56.5090   30.6010   53.0690 C   0  0  0  0  0  0  0  0  0  0  0  0
   57.3670   31.2010   53.9870 C   0  0  0  0  0  0  0  0  0  0  0  0
   58.2590   32.1660   53.5960 N   0  0  0  0  0  0  0  0  0  0  0  0
   59.1640   32.7280   54.6080 C   0  0  0  0  0  0  0  0  0  0  0  0
   63.0303   33.2294   48.2001 H   0  0  0  0  0  0  0  0  0  0  0  0
   63.2717   32.0732   46.8466 H   0  0  0  0  0  0  0  0  0  0  0  0
   64.1344   33.6488   46.8466 H   0  0  0  0  0  0  0  0  0  0  0  0
   62.3335   34.7793   46.0277 H   0  0  0  0  0  0  0  0  0  0  0  0
   61.7846   33.1270   45.5100 H   0  0  0  0  0  0  0  0  0  0  0  0
   59.0356   35.0327   47.3902 H   0  0  0  0  0  0  0  0  0  0  0  0
   60.4002   35.8705   46.5599 H   0  0  0  0  0  0  0  0  0  0  0  0
   58.4652   33.8022   45.4784 H   0  0  0  0  0  0  0  0  0  0  0  0
   58.9897   35.3641   44.7629 H   0  0  0  0  0  0  0  0  0  0  0  0
   60.1056   33.9564   44.7629 H   0  0  0  0  0  0  0  0  0  0  0  0
   61.8922   33.4276   48.9669 H   0  0  0  0  0  0  0  0  0  0  0  0
   61.6986   35.1965   48.6097 H   0  0  0  0  0  0  0  0  0  0  0  0
   59.9861   35.2587   50.0462 H   0  0  0  0  0  0  0  0  0  0  0  0
   59.0898   34.1336   48.9247 H   0  0  0  0  0  0  0  0  0  0  0  0
   62.0885   33.5076   50.5572 H   0  0  0  0  0  0  0  0  0  0  0  0
   61.4399   32.7304   52.0436 H   0  0  0  0  0  0  0  0  0  0  0  0
   61.6839   31.4956   49.2541 H   0  0  0  0  0  0  0  0  0  0  0  0
   62.5942   31.0531   50.7784 H   0  0  0  0  0  0  0  0  0  0  0  0
   61.0401   29.6150   51.3916 H   0  0  0  0  0  0  0  0  0  0  0  0
   59.7352   30.8847   51.1409 H   0  0  0  0  0  0  0  0  0  0  0  0
   60.6512   28.6752   49.3433 H   0  0  0  0  0  0  0  0  0  0  0  0
   58.9754   29.3299   49.7568 H   0  0  0  0  0  0  0  0  0  0  0  0
   60.9759   30.6492   47.8994 H   0  0  0  0  0  0  0  0  0  0  0  0
   59.5156   29.6543   47.4226 H   0  0  0  0  0  0  0  0  0  0  0  0
   58.3932   31.5062   49.0832 H   0  0  0  0  0  0  0  0  0  0  0  0
   59.7240   32.4605   48.2774 H   0  0  0  0  0  0  0  0  0  0  0  0
   57.1955   32.0913   47.2650 H   0  0  0  0  0  0  0  0  0  0  0  0
   58.7176   32.4972   46.3197 H   0  0  0  0  0  0  0  0  0  0  0  0
   58.2887   29.6159   46.7126 H   0  0  0  0  0  0  0  0  0  0  0  0
   56.9948   30.4566   45.7436 H   0  0  0  0  0  0  0  0  0  0  0  0
   58.6166   32.2488   43.7490 H   0  0  0  0  0  0  0  0  0  0  0  0
   58.5883   30.7063   42.8140 H   0  0  0  0  0  0  0  0  0  0  0  0
   56.4664   31.5079   44.8623 H   0  0  0  0  0  0  0  0  0  0  0  0
   56.3510   31.7934   43.0613 H   0  0  0  0  0  0  0  0  0  0  0  0
   55.5669   29.7420   42.7318 H   0  0  0  0  0  0  0  0  0  0  0  0
   56.9931   29.0295   43.5828 H   0  0  0  0  0  0  0  0  0  0  0  0
   54.7740   28.5210   44.4940 H   0  0  0  0  0  0  0  0  0  0  0  0
   54.6120   30.1310   44.9280 H   0  0  0  0  0  0  0  0  0  0  0  0
   58.4124   28.4427   44.6496 H   0  0  0  0  0  0  0  0  0  0  0  0
   59.6286   29.0785   43.4846 H   0  0  0  0  0  0  0  0  0  0  0  0
   61.1830   28.1187   44.8161 H   0  0  0  0  0  0  0  0  0  0  0  0
   60.8230   29.4825   45.9685 H   0  0  0  0  0  0  0  0  0  0  0  0
   60.7694   27.3997   47.1888 H   0  0  0  0  0  0  0  0  0  0  0  0
   59.0803   28.0615   47.0165 H   0  0  0  0  0  0  0  0  0  0  0  0
   60.1615   25.9640   45.1071 H   0  0  0  0  0  0  0  0  0  0  0  0
   59.4196   25.5169   46.6871 H   0  0  0  0  0  0  0  0  0  0  0  0
   58.1050   27.1991   44.4894 H   0  0  0  0  0  0  0  0  0  0  0  0
   57.7410   25.4684   44.8924 H   0  0  0  0  0  0  0  0  0  0  0  0
   57.5045   26.8897   47.3308 H   0  0  0  0  0  0  0  0  0  0  0  0
   56.6852   27.9056   46.0946 H   0  0  0  0  0  0  0  0  0  0  0  0
   55.1440   26.3690   46.9500 H   0  0  0  0  0  0  0  0  0  0  0  0
   57.1896   24.7579   47.4706 H   0  0  0  0  0  0  0  0  0  0  0  0
   55.4607   24.2820   47.5225 H   0  0  0  0  0  0  0  0  0  0  0  0
   55.7710   25.1014   44.2495 H   0  0  0  0  0  0  0  0  0  0  0  0
   56.0470   23.5188   42.3475 H   0  0  0  0  0  0  0  0  0  0  0  0
   56.9265   21.2204   42.7477 H   0  0  0  0  0  0  0  0  0  0  0  0
   57.5076   20.4911   45.0591 H   0  0  0  0  0  0  0  0  0  0  0  0
   56.6257   21.3453   49.1522 H   0  0  0  0  0  0  0  0  0  0  0  0
   55.3767   21.3517   47.8613 H   0  0  0  0  0  0  0  0  0  0  0  0
   56.6619   20.0968   47.8613 H   0  0  0  0  0  0  0  0  0  0  0  0
   59.9512   33.9119   52.5762 H   0  0  0  0  0  0  0  0  0  0  0  0
   58.6300   34.5351   51.5104 H   0  0  0  0  0  0  0  0  0  0  0  0
   57.5208   32.2523   50.2723 H   0  0  0  0  0  0  0  0  0  0  0  0
   55.8983   30.5049   50.9960 H   0  0  0  0  0  0  0  0  0  0  0  0
   55.7923   29.8346   53.3991 H   0  0  0  0  0  0  0  0  0  0  0  0
   57.3285   30.8958   55.0431 H   0  0  0  0  0  0  0  0  0  0  0  0
   58.7830   32.4914   55.6124 H   0  0  0  0  0  0  0  0  0  0  0  0
   60.1671   32.2937   54.4846 H   0  0  0  0  0  0  0  0  0  0  0  0
   59.2194   33.8196   54.4846 H   0  0  0  0  0  0  0  0  0  0  0  0
  1  2  1  0
  2  3  1  0
  3  4  1  0
  4  5  1  0
  3  6  1  0
  6  7  1  0
  7  8  1  0
  8  9  1  0
  9 10  1  0
 10 11  1  0
 11 12  1  0
 12 13  1  0
 13 14  1  0
 14 15  1  0
 15 16  1  0
 16 17  1  0
 17 18  1  0
 18 19  1  0
 19 20  1  0
 20 21  1  0
 17 22  1  0
 22 23  1  0
 23 24  1  0
 24 25  1  0
 25 26  1  0
 26 27  1  0
 27 28  1  0
 28 29  1  0
 29 30  1  0
 30 31  2  0
 31 32  1  0
 32 33  2  0
 33 34  1  0
 34 35  2  0
 35 36  1  0
 36 37  1  0
  8 38  1  0
 38 39  1  0
 39 40  2  0
 40 41  1  0
 41 42  2  0
 42 43  1  0
 43 44  2  0
 44 45  1  0
 35 30  1  0
 44 39  1  0
  1 46  1  0
  1 47  1  0
  1 48  1  0
  2 49  1  0
  2 50  1  0
  4 51  1  0
  4 52  1  0
  5 53  1  0
  5 54  1  0
  5 55  1  0
  6 56  1  0
  6 57  1  0
  7 58  1  0
  7 59  1  0
  9 60  1  0
  9 61  1  0
 10 62  1  0
 10 63  1  0
 11 64  1  0
 11 65  1  0
 12 66  1  0
 12 67  1  0
 13 68  1  0
 13 69  1  0
 14 70  1  0
 14 71  1  0
 15 72  1  0
 15 73  1  0
 16 74  1  0
 16 75  1  0
 18 76  1  0
 18 77  1  0
 19 78  1  0
 19 79  1  0
 20 80  1  0
 20 81  1  0
 21 82  1  0
 21 83  1  0
 22 84  1  0
 22 85  1  0
 23 86  1  0
 23 87  1  0
 24 88  1  0
 24 89  1  0
 25 90  1  0
 25 91  1  0
 26 92  1  0
 26 93  1  0
 27 94  1  0
 27 95  1  0
 28 96  1  0
 29 97  1  0
 29 98  1  0
 31 99  1  0
 32100  1  0
 33101  1  0
 34102  1  0
 37103  1  0
 37104  1  0
 37105  1  0
 38106  1  0
 38107  1  0
 40108  1  0
 41109  1  0
 42110  1  0
 43111  1  0
 45112  1  0
 45113  1  0
 45114  1  0
M  CHG  1  44   1
M  END
>  <UniqueID>  (39) 
37

>  <SMILES>  (39) 
CCN(CC)CCN(CCCCCCCCN(CCCN)CCCCCCNCc1ccccc1OC)Cc1cccc[n+]1C

>  <Energy>  (39) 
91.61245152573778

>  <Genealogy>  (39) 
CCN(CC)CCN(CCCCCCCCN(CCCN)CCCCCCNCc1ccccc1OC)Cc1cccc[n+]1C (3D coordinates assigned)
CCN(CC)CCN(CCCCCCCCN(CCCN)CCCCCCNCc1ccccc1OC)Cc1cccc[n+]1C (optimized conformer: 91.61245152573778 kcal/mol)

>  <smiles>  (39) 
CCN(CC)CCN(CCCCCCCCN(CCCN)CCCCCCNCc1ccccc1OC)Cc1cccc[n+]1C

>  <score_type>  (39) 
oracle

>  <origin>  (39) 
adg

>  <m_score__min__energy>  (39) 
-7.79

>  <m_primary>  (39) 
energy

$$$$
39:0
     RDKit          3D

 20 20  0  0  0  0  0  0  0  0999 V2000
   56.6570   30.8520   43.2340 C   0  0  0  0  0  0  0  0  0  0  0  0
   56.5780   31.2560   44.5960 O   0  0  0  0  0  0  0  0  0  0  0  0
   57.6990   31.2280   45.4310 C   0  0  0  0  0  0  0  0  0  0  0  0
   58.3740   32.4230   45.7240 C   0  0  0  0  0  0  0  0  0  0  0  0
   57.7660   34.0630   44.9210 Br  0  0  0  0  0  0  0  0  0  0  0  0
   59.4970   32.4110   46.5670 C   0  0  0  0  0  0  0  0  0  0  0  0
   60.4080   34.0590   46.9760 Br  0  0  0  0  0  0  0  0  0  0  0  0
   59.9590   31.1950   47.1040 C   0  0  0  0  0  0  0  0  0  0  0  0
   61.5060   31.1790   48.2540 Br  0  0  0  0  0  0  0  0  0  0  0  0
   59.3000   29.9900   46.7910 C   0  0  0  0  0  0  0  0  0  0  0  0
   59.9750   28.3230   47.4940 Br  0  0  0  0  0  0  0  0  0  0  0  0
   58.1580   30.0030   45.9590 C   0  0  0  0  0  0  0  0  0  0  0  0
   57.4680   28.7090   45.5810 C   0  0  0  0  0  0  0  0  0  0  0  0
   56.0940   28.9250   45.4150 O   0  0  0  0  0  0  0  0  0  0  0  0
   56.8679   29.7736   43.1831 H   0  0  0  0  0  0  0  0  0  0  0  0
   55.7006   31.0627   42.7330 H   0  0  0  0  0  0  0  0  0  0  0  0
   57.4635   31.4074   42.7330 H   0  0  0  0  0  0  0  0  0  0  0  0
   57.8931   28.3320   44.6391 H   0  0  0  0  0  0  0  0  0  0  0  0
   57.6216   27.9723   46.3833 H   0  0  0  0  0  0  0  0  0  0  0  0
   55.8640   29.7170   45.9660 H   0  0  0  0  0  0  0  0  0  0  0  0
  1  2  1  0
  2  3  1  0
  3  4  2  0
  4  5  1  0
  4  6  1  0
  6  7  1  0
  6  8  2  0
  8  9  1  0
  8 10  1  0
 10 11  1  0
 10 12  2  0
 12 13  1  0
 13 14  1  0
 12  3  1  0
  1 15  1  0
  1 16  1  0
  1 17  1  0
 13 18  1  0
 13 19  1  0
 14 20  1  0
M  END
>  <UniqueID>  (40) 
38

>  <SMILES>  (40) 
COc1c(Br)c(Br)c(Br)c(Br)c1CO

>  <Energy>  (40) 
32.17636985187292

>  <Genealogy>  (40) 
COc1c(Br)c(Br)c(Br)c(Br)c1CO (3D coordinates assigned)
COc1c(Br)c(Br)c(Br)c(Br)c1CO (optimized conformer: 32.17636985187292 kcal/mol)

>  <smiles>  (40) 
COc1c(Br)c(Br)c(Br)c(Br)c1CO

>  <score_type>  (40) 
oracle

>  <origin>  (40) 
adg

>  <m_score__min__energy>  (40) 
-6.8499999999999996

>  <m_primary>  (40) 
energy

$$$$
40:0
     RDKit          3D

 35 37  0  0  0  0  0  0  0  0999 V2000
   59.1880   34.9680   44.8860 C   0  0  0  0  0  0  0  0  0  0  0  0
   58.7800   33.6010   45.2510 N   0  0  0  0  0  0  0  0  0  0  0  0
   58.2020   33.5740   46.6130 C   0  0  0  0  0  0  0  0  0  0  0  0
   58.8350   32.4930   47.4490 C   0  0  0  0  0  0  0  0  0  0  0  0
   58.5260   32.3760   48.8130 C   0  0  0  0  0  0  0  0  0  0  0  0
   59.1150   31.3570   49.5640 C   0  0  0  0  0  0  0  0  0  0  0  0
   60.0030   30.4700   48.9560 C   0  0  0  0  0  0  0  0  0  0  0  0
   60.2910   30.6160   47.5980 C   0  0  0  0  0  0  0  0  0  0  0  0
   59.7090   31.6140   46.8770 N   0  0  0  0  0  0  0  0  0  0  0  0
   57.8990   32.9990   44.2210 C   0  0  0  0  0  0  0  0  0  0  0  0
   57.5040   31.5810   44.5260 C   0  0  0  0  0  0  0  0  0  0  0  0
   58.3800   30.6050   44.8300 N   0  0  0  0  0  0  0  0  0  0  0  0
   57.5520   29.5600   45.0310 C   0  0  0  0  0  0  0  0  0  0  0  0
   58.0150   28.2150   45.4080 C   0  0  0  0  0  0  0  0  0  0  0  0
   57.1430   27.1390   45.6460 C   0  0  0  0  0  0  0  0  0  0  0  0
   57.7950   25.9620   45.9860 C   0  0  0  0  0  0  0  0  0  0  0  0
   59.4480   26.2620   45.9880 S   0  0  0  0  0  0  0  0  0  0  0  0
   59.3590   27.8840   45.5590 C   0  0  0  0  0  0  0  0  0  0  0  0
   56.2560   29.8860   44.8580 N   0  0  0  0  0  0  0  0  0  0  0  0
   56.2680   31.1460   44.5460 O   0  0  0  0  0  0  0  0  0  0  0  0
   59.3631   35.5547   45.7998 H   0  0  0  0  0  0  0  0  0  0  0  0
   60.1135   34.9284   44.2928 H   0  0  0  0  0  0  0  0  0  0  0  0
   58.3922   35.4421   44.2928 H   0  0  0  0  0  0  0  0  0  0  0  0
   58.3731   34.5477   47.0953 H   0  0  0  0  0  0  0  0  0  0  0  0
   57.1247   33.3670   46.5315 H   0  0  0  0  0  0  0  0  0  0  0  0
   57.8262   33.0806   49.2860 H   0  0  0  0  0  0  0  0  0  0  0  0
   58.8791   31.2540   50.6334 H   0  0  0  0  0  0  0  0  0  0  0  0
   60.4713   29.6642   49.5402 H   0  0  0  0  0  0  0  0  0  0  0  0
   60.9906   29.9225   47.1085 H   0  0  0  0  0  0  0  0  0  0  0  0
   59.9430   31.7000   45.8610 H   0  0  0  0  0  0  0  0  0  0  0  0
   56.9852   33.6067   44.1458 H   0  0  0  0  0  0  0  0  0  0  0  0
   58.4666   32.9818   43.2789 H   0  0  0  0  0  0  0  0  0  0  0  0
   56.0487   27.2217   45.5701 H   0  0  0  0  0  0  0  0  0  0  0  0
   57.3132   24.9999   46.2145 H   0  0  0  0  0  0  0  0  0  0  0  0
   60.2122   28.5646   45.4216 H   0  0  0  0  0  0  0  0  0  0  0  0
  1  2  1  0
  2  3  1  0
  3  4  1  0
  4  5  2  0
  5  6  1  0
  6  7  2  0
  7  8  1  0
  8  9  2  0
  2 10  1  0
 10 11  1  0
 11 12  2  0
 12 13  1  0
 13 14  1  0
 14 15  1  0
 15 16  2  0
 16 17  1  0
 17 18  1  0
 13 19  2  0
 19 20  1  0
  9  4  1  0
 20 11  1  0
 18 14  2  0
  1 21  1  0
  1 22  1  0
  1 23  1  0
  3 24  1  0
  3 25  1  0
  5 26  1  0
  6 27  1  0
  7 28  1  0
  8 29  1  0
  9 30  1  0
 10 31  1  0
 10 32  1  0
 15 33  1  0
 16 34  1  0
 18 35  1  0
M  CHG  1   9   1
M  END
>  <UniqueID>  (41) 
39

>  <SMILES>  (41) 
CN(Cc1cccc[nH+]1)Cc1nc(-c2ccsc2)no1

>  <Energy>  (41) 
96.44122576515375

>  <Genealogy>  (41) 
CN(Cc1cccc[nH+]1)Cc1nc(-c2ccsc2)no1 (protonated)
CN(Cc1cccc[nH+]1)Cc1nc(-c2ccsc2)no1 (3D coordinates assigned)
CN(Cc1cccc[nH+]1)Cc1nc(-c2ccsc2)no1 (optimized conformer: 96.44122576515375 kcal/mol)

>  <smiles>  (41) 
CN(Cc1ccccn1)Cc1nc(-c2ccsc2)no1

>  <score_type>  (41) 
oracle

>  <origin>  (41) 
adg

>  <m_score__min__energy>  (41) 
-5.4800000000000004

>  <m_primary>  (41) 
energy

$$$$
41:0
     RDKit          3D

 35 37  0  0  0  0  0  0  0  0999 V2000
   55.4430   26.2010   46.2620 O   0  0  0  0  0  0  0  0  0  0  0  0
   56.3090   27.0720   45.9860 C   0  0  0  0  0  0  0  0  0  0  0  0
   55.9020   28.2360   45.2550 N   0  0  0  0  0  0  0  0  0  0  0  0
   56.7870   29.2230   44.7120 C   0  0  0  0  0  0  0  0  0  0  0  0
   58.0360   29.0250   44.1540 C   0  0  0  0  0  0  0  0  0  0  0  0
   58.5290   30.2310   43.8120 N   0  0  0  0  0  0  0  0  0  0  0  0
   57.6510   31.1640   44.1530 N   0  0  0  0  0  0  0  0  0  0  0  0
   57.8090   32.5860   43.8680 C   0  0  0  0  0  0  0  0  0  0  0  0
   58.3730   33.2860   45.0720 C   0  0  0  0  0  0  0  0  0  0  0  0
   58.0730   32.8250   46.3640 C   0  0  0  0  0  0  0  0  0  0  0  0
   58.5600   33.5050   47.4850 C   0  0  0  0  0  0  0  0  0  0  0  0
   59.3390   34.6530   47.3230 C   0  0  0  0  0  0  0  0  0  0  0  0
   59.6290   35.1280   46.0410 C   0  0  0  0  0  0  0  0  0  0  0  0
   59.1440   34.4510   44.9180 C   0  0  0  0  0  0  0  0  0  0  0  0
   56.5690   30.5820   44.7080 C   0  0  0  0  0  0  0  0  0  0  0  0
   57.7190   26.8440   46.3780 C   0  0  0  0  0  0  0  0  0  0  0  0
   58.3710   27.7050   47.2760 C   0  0  0  0  0  0  0  0  0  0  0  0
   59.7040   27.4760   47.6230 C   0  0  0  0  0  0  0  0  0  0  0  0
   60.3810   26.3950   47.0610 C   0  0  0  0  0  0  0  0  0  0  0  0
   59.7460   25.5780   46.1790 N   0  0  0  0  0  0  0  0  0  0  0  0
   58.4470   25.7780   45.8260 C   0  0  0  0  0  0  0  0  0  0  0  0
   58.5376   28.0560   44.0142 H   0  0  0  0  0  0  0  0  0  0  0  0
   59.4470   30.4120   43.3510 H   0  0  0  0  0  0  0  0  0  0  0  0
   58.4939   32.7141   43.0168 H   0  0  0  0  0  0  0  0  0  0  0  0
   56.8280   33.0187   43.6223 H   0  0  0  0  0  0  0  0  0  0  0  0
   57.4528   31.9260   46.4949 H   0  0  0  0  0  0  0  0  0  0  0  0
   58.3293   33.1354   48.4951 H   0  0  0  0  0  0  0  0  0  0  0  0
   59.7248   35.1840   48.2057 H   0  0  0  0  0  0  0  0  0  0  0  0
   60.2390   36.0347   45.9155 H   0  0  0  0  0  0  0  0  0  0  0  0
   59.3667   34.8315   43.9102 H   0  0  0  0  0  0  0  0  0  0  0  0
   55.6754   31.0987   45.0881 H   0  0  0  0  0  0  0  0  0  0  0  0
   57.8307   28.5610   47.7066 H   0  0  0  0  0  0  0  0  0  0  0  0
   60.2151   28.1425   48.3333 H   0  0  0  0  0  0  0  0  0  0  0  0
   61.4298   26.2027   47.3312 H   0  0  0  0  0  0  0  0  0  0  0  0
   57.9652   25.1013   45.1049 H   0  0  0  0  0  0  0  0  0  0  0  0
  1  2  2  0
  2  3  1  0
  3  4  1  0
  4  5  1  0
  5  6  2  0
  6  7  1  0
  7  8  1  0
  8  9  1  0
  9 10  2  0
 10 11  1  0
 11 12  2  0
 12 13  1  0
 13 14  2  0
  7 15  1  0
  2 16  1  0
 16 17  2  0
 17 18  1  0
 18 19  2  0
 19 20  1  0
 20 21  2  0
 15  4  2  0
 21 16  1  0
 14  9  1  0
  5 22  1  0
  6 23  1  0
  8 24  1  0
  8 25  1  0
 10 26  1  0
 11 27  1  0
 12 28  1  0
 13 29  1  0
 14 30  1  0
 15 31  1  0
 17 32  1  0
 18 33  1  0
 19 34  1  0
 21 35  1  0
M  CHG  2   3  -1   6   1
M  END
>  <UniqueID>  (42) 
40

>  <SMILES>  (42) 
O=C([N-]c1c[nH+]n(Cc2ccccc2)c1)c1cccnc1

>  <Energy>  (42) 
73.94419509524134

>  <Genealogy>  (42) 
O=C([N-]c1c[nH+]n(Cc2ccccc2)c1)c1cccnc1 (protonated)
O=C([N-]c1c[nH+]n(Cc2ccccc2)c1)c1cccnc1 (3D coordinates assigned)
O=C([N-]c1c[nH+]n(Cc2ccccc2)c1)c1cccnc1 (optimized conformer: 73.94419509524134 kcal/mol)

>  <smiles>  (42) 
O=C(Nc1cnn(Cc2ccccc2)c1)c1cccnc1

>  <score_type>  (42) 
oracle

>  <origin>  (42) 
adg

>  <m_score__min__energy>  (42) 
-8.3399999999999999

>  <m_primary>  (42) 
energy

$$$$
42:0
     RDKit          3D

 55 58  0  0  0  0  0  0  0  0999 V2000
   57.4020   30.2300   44.8470 C   0  0  0  0  0  0  0  0  0  0  0  0
   57.3210   31.5600   45.3060 O   0  0  0  0  0  0  0  0  0  0  0  0
   58.0030   32.4080   44.4040 C   0  0  0  0  0  0  0  0  0  0  0  0
   57.8000   33.8680   44.8110 C   0  0  0  0  0  0  0  0  0  0  0  0
   58.5430   34.2050   46.1090 C   0  0  0  0  0  0  0  0  0  0  0  0
   59.1130   32.9940   46.6980 N   0  0  0  0  0  0  0  0  0  0  0  0
   60.5240   32.7510   46.8430 C   0  0  0  0  0  0  0  0  0  0  0  0
   61.6320   33.8710   46.3690 S   0  0  0  0  0  0  0  0  0  0  0  0
   60.9690   31.5050   47.4100 N   0  0  0  0  0  0  0  0  0  0  0  0
   60.3210   30.2530   47.0180 C   0  0  0  0  0  0  0  0  0  0  0  0
   59.2490   29.8470   48.0420 C   0  0  0  0  0  0  0  0  0  0  0  0
   59.4070   30.4690   49.4210 C   0  0  0  0  0  0  0  0  0  0  0  0
   58.3610   30.3790   50.2700 C   0  0  0  0  0  0  0  0  0  0  0  0
   58.3340   31.2480   51.4550 C   0  0  0  0  0  0  0  0  0  0  0  0
   59.2140   32.2870   51.5930 C   0  0  0  0  0  0  0  0  0  0  0  0
   58.7360   33.0440   52.6440 C   0  0  0  0  0  0  0  0  0  0  0  0
   57.6210   32.4470   53.1130 N   0  0  0  0  0  0  0  0  0  0  0  0
   57.3680   31.3610   52.3920 N   0  0  0  0  0  0  0  0  0  0  0  0
   56.2180   30.5160   52.5710 C   0  0  0  0  0  0  0  0  0  0  0  0
   54.9880   30.8480   51.9760 C   0  0  0  0  0  0  0  0  0  0  0  0
   53.8730   30.0240   52.1520 C   0  0  0  0  0  0  0  0  0  0  0  0
   53.9790   28.8570   52.9160 C   0  0  0  0  0  0  0  0  0  0  0  0
   52.8980   28.0560   53.0810 F   0  0  0  0  0  0  0  0  0  0  0  0
   55.2010   28.5130   53.4990 C   0  0  0  0  0  0  0  0  0  0  0  0
   56.3190   29.3360   53.3240 C   0  0  0  0  0  0  0  0  0  0  0  0
   60.2690   32.5880   50.5740 C   0  0  0  0  0  0  0  0  0  0  0  0
   60.6630   31.2630   49.8530 C   0  0  2  0  0  0  0  0  0  0  0  0
   61.6790   31.4490   48.6920 C   0  0  2  0  0  0  0  0  0  0  0  0
   62.6050   32.5850   48.8770 C   0  0  0  0  0  0  0  0  0  0  0  0
   63.3290   33.4770   49.0220 N   0  0  0  0  0  0  0  0  0  0  0  0
   57.4436   29.5468   45.7081 H   0  0  0  0  0  0  0  0  0  0  0  0
   56.5163   29.9979   44.2373 H   0  0  0  0  0  0  0  0  0  0  0  0
   58.3093   30.1071   44.2373 H   0  0  0  0  0  0  0  0  0  0  0  0
   59.0769   32.1703   44.4203 H   0  0  0  0  0  0  0  0  0  0  0  0
   57.6048   32.2550   43.3901 H   0  0  0  0  0  0  0  0  0  0  0  0
   58.1756   34.5175   44.0066 H   0  0  0  0  0  0  0  0  0  0  0  0
   56.7252   34.0299   44.9800 H   0  0  0  0  0  0  0  0  0  0  0  0
   59.3522   34.9169   45.8893 H   0  0  0  0  0  0  0  0  0  0  0  0
   57.8329   34.6491   46.8222 H   0  0  0  0  0  0  0  0  0  0  0  0
   58.4510   32.2630   47.0440 H   0  0  0  0  0  0  0  0  0  0  0  0
   59.8475   30.3851   46.0339 H   0  0  0  0  0  0  0  0  0  0  0  0
   61.0833   29.4611   46.9741 H   0  0  0  0  0  0  0  0  0  0  0  0
   58.2675   30.1444   47.6442 H   0  0  0  0  0  0  0  0  0  0  0  0
   59.3537   28.7609   48.1815 H   0  0  0  0  0  0  0  0  0  0  0  0
   57.5438   29.6681   50.0782 H   0  0  0  0  0  0  0  0  0  0  0  0
   59.1852   33.9706   53.0307 H   0  0  0  0  0  0  0  0  0  0  0  0
   57.0310   32.7930   53.9030 H   0  0  0  0  0  0  0  0  0  0  0  0
   54.9029   31.7612   51.3687 H   0  0  0  0  0  0  0  0  0  0  0  0
   52.9119   30.2932   51.6897 H   0  0  0  0  0  0  0  0  0  0  0  0
   55.2845   27.5934   54.0968 H   0  0  0  0  0  0  0  0  0  0  0  0
   57.2811   29.0570   53.7785 H   0  0  0  0  0  0  0  0  0  0  0  0
   59.8786   33.3071   49.8388 H   0  0  0  0  0  0  0  0  0  0  0  0
   61.1515   33.0224   51.0665 H   0  0  0  0  0  0  0  0  0  0  0  0
   61.2048   30.6606   50.5971 H   0  0  0  0  0  0  0  0  0  0  0  0
   62.3353   30.5662   48.6943 H   0  0  0  0  0  0  0  0  0  0  0  0
  1  2  1  0
  2  3  1  0
  3  4  1  0
  4  5  1  0
  5  6  1  0
  6  7  1  0
  7  8  2  0
  7  9  1  0
  9 10  1  0
 10 11  1  0
 11 12  1  0
 12 13  2  0
 13 14  1  0
 14 15  2  0
 15 16  1  0
 16 17  2  0
 17 18  1  0
 18 19  1  0
 19 20  2  0
 20 21  1  0
 21 22  2  0
 22 23  1  0
 22 24  1  0
 24 25  2  0
 15 26  1  0
 26 27  1  0
 27 28  1  0
 28 29  1  0
 29 30  3  0
 28  9  1  0
 27 12  1  0
 18 14  1  0
 25 19  1  0
  1 31  1  0
  1 32  1  0
  1 33  1  0
  3 34  1  0
  3 35  1  0
  4 36  1  0
  4 37  1  0
  5 38  1  0
  5 39  1  0
  6 40  1  0
 10 41  1  0
 10 42  1  0
 11 43  1  0
 11 44  1  0
 13 45  1  0
 16 46  1  0
 17 47  1  0
 20 48  1  0
 21 49  1  0
 24 50  1  0
 25 51  1  0
 26 52  1  0
 26 53  1  0
 27 54  1  1
 28 55  1  6
M  CHG  1  17   1
M  END
>  <UniqueID>  (43) 
41

>  <SMILES>  (43) 
COCCCNC(=S)N1CCC2=Cc3c(c[nH+]n3-c3ccc(F)cc3)C[C@@H]2[C@@H]1C#N

>  <Energy>  (43) 
109.53953225782126

>  <Genealogy>  (43) 
COCCCNC(=S)N1CCC2=Cc3c(c[nH+]n3-c3ccc(F)cc3)CC2C1C#N (protonated)
COCCCNC(=S)N1CCC2=Cc3c(c[nH+]n3-c3ccc(F)cc3)C[C@@H]2[C@@H]1C#N (chirality)
COCCCNC(=S)N1CCC2=Cc3c(c[nH+]n3-c3ccc(F)cc3)C[C@@H]2[C@@H]1C#N (3D coordinates assigned)
COCCCNC(=S)N1CCC2=Cc3c(c[nH+]n3-c3ccc(F)cc3)C[C@@H]2[C@@H]1C#N (nonaromatic ring conformer: 109.53953225782126 kcal/mol)

>  <smiles>  (43) 
COCCCNC(=S)N1CCC2=Cc3c(cnn3-c3ccc(F)cc3)CC2C1C#N

>  <score_type>  (43) 
oracle

>  <origin>  (43) 
adg

>  <m_score__min__energy>  (43) 
-6.3600000000000003

>  <m_primary>  (43) 
energy

$$$$
43:0
     RDKit          3D

 46 49  0  0  0  0  0  0  0  0999 V2000
   59.2570   35.3400   46.5060 C   0  0  0  0  0  0  0  0  0  0  0  0
   59.2230   33.8530   46.3230 C   0  0  0  0  0  0  0  0  0  0  0  0
   60.3820   33.0770   46.5900 C   0  0  0  0  0  0  0  0  0  0  0  0
   60.3730   31.6820   46.4030 C   0  0  0  0  0  0  0  0  0  0  0  0
   59.1940   31.1050   45.9350 C   0  0  0  0  0  0  0  0  0  0  0  0
   58.0800   31.8470   45.6510 C   0  0  0  0  0  0  0  0  0  0  0  0
   58.0550   33.2270   45.8290 C   0  0  0  0  0  0  0  0  0  0  0  0
   57.0740   31.0570   45.2200 N   0  0  0  0  0  0  0  0  0  0  0  0
   57.6390   29.8230   45.2690 C   0  0  0  0  0  0  0  0  0  0  0  0
   58.9100   29.8180   45.7000 N   0  0  0  0  0  0  0  0  0  0  0  0
   59.7130   28.6050   45.8040 C   0  0  0  0  0  0  0  0  0  0  0  0
   58.8400   27.4370   46.3480 C   0  0  1  0  0  0  0  0  0  0  0  0
   58.9550   27.3860   47.8780 C   0  0  0  0  0  0  0  0  0  0  0  0
   57.4070   27.5330   45.9390 N   0  0  0  0  0  0  0  0  0  0  0  0
   56.5360   26.4240   46.2330 C   0  0  0  0  0  0  0  0  0  0  0  0
   55.3030   26.5290   45.9820 O   0  0  0  0  0  0  0  0  0  0  0  0
   57.0560   25.0930   46.7240 C   0  0  0  0  0  0  0  0  0  0  0  0
   57.9330   24.4550   45.7940 O   0  0  0  0  0  0  0  0  0  0  0  0
   57.5560   23.5650   44.7730 C   0  0  0  0  0  0  0  0  0  0  0  0
   56.5080   23.9440   43.9230 C   0  0  0  0  0  0  0  0  0  0  0  0
   56.0580   23.0810   42.9190 C   0  0  0  0  0  0  0  0  0  0  0  0
   56.6610   21.8330   42.7490 C   0  0  0  0  0  0  0  0  0  0  0  0
   57.7260   21.4540   43.5720 C   0  0  0  0  0  0  0  0  0  0  0  0
   58.1800   22.3180   44.5750 C   0  0  0  0  0  0  0  0  0  0  0  0
   56.9610   28.5400   44.9590 C   0  0  0  0  0  0  0  0  0  0  0  0
   59.2624   35.5772   47.5801 H   0  0  0  0  0  0  0  0  0  0  0  0
   60.1647   35.7466   46.0361 H   0  0  0  0  0  0  0  0  0  0  0  0
   58.3689   35.7877   46.0361 H   0  0  0  0  0  0  0  0  0  0  0  0
   61.2972   33.5718   46.9470 H   0  0  0  0  0  0  0  0  0  0  0  0
   61.2621   31.0710   46.6179 H   0  0  0  0  0  0  0  0  0  0  0  0
   57.1545   33.8129   45.5927 H   0  0  0  0  0  0  0  0  0  0  0  0
   60.1010   28.3381   44.8099 H   0  0  0  0  0  0  0  0  0  0  0  0
   60.5506   28.7832   46.4944 H   0  0  0  0  0  0  0  0  0  0  0  0
   59.2252   26.5072   45.9040 H   0  0  0  0  0  0  0  0  0  0  0  0
   58.0376   27.7928   48.3284 H   0  0  0  0  0  0  0  0  0  0  0  0
   59.0908   26.3433   48.2009 H   0  0  0  0  0  0  0  0  0  0  0  0
   59.8190   27.9853   48.2009 H   0  0  0  0  0  0  0  0  0  0  0  0
   57.6024   25.2563   47.6646 H   0  0  0  0  0  0  0  0  0  0  0  0
   56.1872   24.4324   46.8609 H   0  0  0  0  0  0  0  0  0  0  0  0
   56.0351   24.9294   44.0469 H   0  0  0  0  0  0  0  0  0  0  0  0
   55.2290   23.3852   42.2631 H   0  0  0  0  0  0  0  0  0  0  0  0
   56.2984   21.1484   41.9681 H   0  0  0  0  0  0  0  0  0  0  0  0
   58.2077   20.4752   43.4309 H   0  0  0  0  0  0  0  0  0  0  0  0
   59.0273   22.0221   45.2110 H   0  0  0  0  0  0  0  0  0  0  0  0
   57.2280   28.2141   43.9429 H   0  0  0  0  0  0  0  0  0  0  0  0
   55.8695   28.6649   45.0135 H   0  0  0  0  0  0  0  0  0  0  0  0
  1  2  1  0
  2  3  2  0
  3  4  1  0
  4  5  2  0
  5  6  1  0
  6  7  2  0
  6  8  1  0
  8  9  2  0
  9 10  1  0
 10 11  1  0
 11 12  1  0
 12 13  1  0
 12 14  1  0
 14 15  1  0
 15 16  2  0
 15 17  1  0
 17 18  1  0
 18 19  1  0
 19 20  2  0
 20 21  1  0
 21 22  2  0
 22 23  1  0
 23 24  2  0
 14 25  1  0
  7  2  1  0
 25  9  1  0
 10  5  1  0
 24 19  1  0
  1 26  1  0
  1 27  1  0
  1 28  1  0
  3 29  1  0
  4 30  1  0
  7 31  1  0
 11 32  1  0
 11 33  1  0
 12 34  1  6
 13 35  1  0
 13 36  1  0
 13 37  1  0
 17 38  1  0
 17 39  1  0
 20 40  1  0
 21 41  1  0
 22 42  1  0
 23 43  1  0
 24 44  1  0
 25 45  1  0
 25 46  1  0
M  END
>  <UniqueID>  (44) 
42

>  <SMILES>  (44) 
Cc1ccc2c(c1)nc1n2C[C@@H](C)N(C(=O)COc2ccccc2)C1

>  <Energy>  (44) 
93.2057849529814

>  <Genealogy>  (44) 
Cc1ccc2c(c1)nc1n2C[C@@H](C)N(C(=O)COc2ccccc2)C1 (chirality)
Cc1ccc2c(c1)nc1n2C[C@@H](C)N(C(=O)COc2ccccc2)C1 (3D coordinates assigned)
Cc1ccc2c(c1)nc1n2C[C@@H](C)N(C(=O)COc2ccccc2)C1 (nonaromatic ring conformer: 93.2057849529814 kcal/mol)

>  <smiles>  (44) 
Cc1ccc2c(c1)nc1n2CC(C)N(C(=O)COc2ccccc2)C1

>  <score_type>  (44) 
oracle

>  <origin>  (44) 
adg

>  <m_score__min__energy>  (44) 
-8.2100000000000009

>  <m_primary>  (44) 
energy

$$$$
44:0
     RDKit          3D

 42 44  0  0  0  0  0  0  0  0999 V2000
   56.1940   23.2270   43.0020 C   0  0  0  0  0  0  0  0  0  0  0  0
   56.1870   21.8190   43.4300 N   0  0  0  0  0  0  0  0  0  0  0  0
   57.4370   21.1710   42.9930 C   0  0  0  0  0  0  0  0  0  0  0  0
   56.0260   21.7330   44.8970 C   0  0  0  0  0  0  0  0  0  0  0  0
   57.3470   21.3520   45.5670 C   0  0  0  0  0  0  0  0  0  0  0  0
   57.9080   22.5150   46.2410 N   0  0  0  0  0  0  0  0  0  0  0  0
   58.9710   23.2970   45.6890 C   0  0  0  0  0  0  0  0  0  0  0  0
   60.0130   22.7240   45.2670 O   0  0  0  0  0  0  0  0  0  0  0  0
   58.8520   24.7720   45.6110 C   0  0  0  0  0  0  0  0  0  0  0  0
   57.8210   25.3670   44.8650 C   0  0  0  0  0  0  0  0  0  0  0  0
   57.7080   26.7580   44.7900 C   0  0  0  0  0  0  0  0  0  0  0  0
   58.6240   27.5890   45.4590 C   0  0  0  0  0  0  0  0  0  0  0  0
   58.5100   29.0670   45.3860 C   0  0  0  0  0  0  0  0  0  0  0  0
   58.3760   29.7700   44.2290 N   0  0  0  0  0  0  0  0  0  0  0  0
   58.2930   31.1080   44.4540 C   0  0  0  0  0  0  0  0  0  0  0  0
   58.1560   32.0780   43.4570 C   0  0  0  0  0  0  0  0  0  0  0  0
   58.0870   33.4300   43.8350 C   0  0  0  0  0  0  0  0  0  0  0  0
   58.1560   33.7960   45.1940 C   0  0  0  0  0  0  0  0  0  0  0  0
   58.2970   32.8140   46.1870 C   0  0  0  0  0  0  0  0  0  0  0  0
   58.3630   31.4820   45.7860 C   0  0  0  0  0  0  0  0  0  0  0  0
   58.5350   30.1060   46.7300 S   0  0  0  0  0  0  0  0  0  0  0  0
   59.6510   26.9920   46.2110 C   0  0  0  0  0  0  0  0  0  0  0  0
   59.7650   25.6010   46.2850 C   0  0  0  0  0  0  0  0  0  0  0  0
   56.1972   23.8794   43.8876 H   0  0  0  0  0  0  0  0  0  0  0  0
   57.0931   23.4225   42.3992 H   0  0  0  0  0  0  0  0  0  0  0  0
   55.2969   23.4315   42.3992 H   0  0  0  0  0  0  0  0  0  0  0  0
   58.0208   20.8683   43.8748 H   0  0  0  0  0  0  0  0  0  0  0  0
   57.1981   20.2832   42.3891 H   0  0  0  0  0  0  0  0  0  0  0  0
   58.0248   21.8779   42.3891 H   0  0  0  0  0  0  0  0  0  0  0  0
   55.6951   22.7091   45.2813 H   0  0  0  0  0  0  0  0  0  0  0  0
   55.2789   20.9585   45.1249 H   0  0  0  0  0  0  0  0  0  0  0  0
   57.1673   20.5542   46.3027 H   0  0  0  0  0  0  0  0  0  0  0  0
   58.0543   20.9969   44.8030 H   0  0  0  0  0  0  0  0  0  0  0  0
   57.0958   24.7321   44.3349 H   0  0  0  0  0  0  0  0  0  0  0  0
   56.8943   27.2072   44.2017 H   0  0  0  0  0  0  0  0  0  0  0  0
   58.3610   29.3510   43.2740 H   0  0  0  0  0  0  0  0  0  0  0  0
   58.1032   31.7889   42.3970 H   0  0  0  0  0  0  0  0  0  0  0  0
   57.9784   34.2077   43.0647 H   0  0  0  0  0  0  0  0  0  0  0  0
   58.0990   34.8571   45.4783 H   0  0  0  0  0  0  0  0  0  0  0  0
   58.3537   33.0885   47.2507 H   0  0  0  0  0  0  0  0  0  0  0  0
   60.3724   27.6264   46.7468 H   0  0  0  0  0  0  0  0  0  0  0  0
   60.5764   25.1511   46.8760 H   0  0  0  0  0  0  0  0  0  0  0  0
  1  2  1  0
  2  3  1  0
  2  4  1  0
  4  5  1  0
  5  6  1  0
  6  7  1  0
  7  8  2  0
  7  9  1  0
  9 10  2  0
 10 11  1  0
 11 12  2  0
 12 13  1  0
 13 14  2  0
 14 15  1  0
 15 16  2  0
 16 17  1  0
 17 18  2  0
 18 19  1  0
 19 20  2  0
 20 21  1  0
 12 22  1  0
 22 23  2  0
 23  9  1  0
 21 13  1  0
 20 15  1  0
  1 24  1  0
  1 25  1  0
  1 26  1  0
  3 27  1  0
  3 28  1  0
  3 29  1  0
  4 30  1  0
  4 31  1  0
  5 32  1  0
  5 33  1  0
 10 34  1  0
 11 35  1  0
 14 36  1  0
 16 37  1  0
 17 38  1  0
 18 39  1  0
 19 40  1  0
 22 41  1  0
 23 42  1  0
M  CHG  2   6  -1  14   1
M  END
>  <UniqueID>  (45) 
43

>  <SMILES>  (45) 
CN(C)CC[N-]C(=O)c1ccc(-c2[nH+]c3ccccc3s2)cc1

>  <Energy>  (45) 
78.00105381455369

>  <Genealogy>  (45) 
CN(C)CC[N-]C(=O)c1ccc(-c2[nH+]c3ccccc3s2)cc1 (protonated)
CN(C)CC[N-]C(=O)c1ccc(-c2[nH+]c3ccccc3s2)cc1 (3D coordinates assigned)
CN(C)CC[N-]C(=O)c1ccc(-c2[nH+]c3ccccc3s2)cc1 (optimized conformer: 78.00105381455369 kcal/mol)

>  <smiles>  (45) 
CN(C)CCNC(=O)c1ccc(-c2nc3ccccc3s2)cc1

>  <score_type>  (45) 
oracle

>  <origin>  (45) 
adg

>  <m_score__min__energy>  (45) 
-7.7400000000000002

>  <m_primary>  (45) 
energy

$$$$
45:0
     RDKit          3D

 34 35  0  0  0  0  0  0  0  0999 V2000
   63.3600   33.8340   46.6740 C   0  0  0  0  0  0  0  0  0  0  0  0
   62.7570   33.3080   47.9670 C   0  0  0  0  0  0  0  0  0  0  0  0
   61.9720   34.3270   48.5760 O   0  0  0  0  0  0  0  0  0  0  0  0
   60.5750   34.2630   48.6490 C   0  0  0  0  0  0  0  0  0  0  0  0
   59.9900   34.4730   49.7480 O   0  0  0  0  0  0  0  0  0  0  0  0
   59.7890   33.9490   47.4360 C   0  0  0  0  0  0  0  0  0  0  0  0
   59.6450   34.8970   46.4080 C   0  0  0  0  0  0  0  0  0  0  0  0
   58.8990   34.5940   45.2660 C   0  0  0  0  0  0  0  0  0  0  0  0
   58.2820   33.3470   45.1260 C   0  0  0  0  0  0  0  0  0  0  0  0
   57.5400   33.1000   43.9590 O   0  0  0  0  0  0  0  0  0  0  0  0
   57.7320   31.9920   43.0790 C   0  0  0  0  0  0  0  0  0  0  0  0
   57.4880   30.6910   43.7950 C   0  0  0  0  0  0  0  0  0  0  0  0
   58.5590   29.8490   44.1240 C   0  0  0  0  0  0  0  0  0  0  0  0
   58.3250   28.6490   44.8000 C   0  0  0  0  0  0  0  0  0  0  0  0
   57.0160   28.3070   45.1490 C   0  0  0  0  0  0  0  0  0  0  0  0
   56.6920   26.8070   45.9960 Cl  0  0  0  0  0  0  0  0  0  0  0  0
   55.9880   29.1380   44.8350 N   0  0  0  0  0  0  0  0  0  0  0  0
   56.1920   30.3110   44.1770 C   0  0  0  0  0  0  0  0  0  0  0  0
   58.4280   32.3940   46.1510 C   0  0  0  0  0  0  0  0  0  0  0  0
   59.1730   32.6940   47.2950 C   0  0  0  0  0  0  0  0  0  0  0  0
   64.1700   34.5405   46.9080 H   0  0  0  0  0  0  0  0  0  0  0  0
   63.7635   32.9942   46.0893 H   0  0  0  0  0  0  0  0  0  0  0  0
   62.5827   34.3478   46.0893 H   0  0  0  0  0  0  0  0  0  0  0  0
   62.1209   32.4379   47.7471 H   0  0  0  0  0  0  0  0  0  0  0  0
   63.5642   33.0097   48.6521 H   0  0  0  0  0  0  0  0  0  0  0  0
   60.1225   35.8834   46.5032 H   0  0  0  0  0  0  0  0  0  0  0  0
   58.7960   35.3446   44.4685 H   0  0  0  0  0  0  0  0  0  0  0  0
   57.0311   32.0761   42.2354 H   0  0  0  0  0  0  0  0  0  0  0  0
   58.7708   32.0055   42.7173 H   0  0  0  0  0  0  0  0  0  0  0  0
   59.5855   30.1335   43.8495 H   0  0  0  0  0  0  0  0  0  0  0  0
   59.1613   27.9813   45.0545 H   0  0  0  0  0  0  0  0  0  0  0  0
   55.3382   30.9640   43.9435 H   0  0  0  0  0  0  0  0  0  0  0  0
   57.9529   31.4069   46.0513 H   0  0  0  0  0  0  0  0  0  0  0  0
   59.2778   31.9420   48.0909 H   0  0  0  0  0  0  0  0  0  0  0  0
  1  2  1  0
  2  3  1  0
  3  4  1  0
  4  5  2  0
  4  6  1  0
  6  7  2  0
  7  8  1  0
  8  9  2  0
  9 10  1  0
 10 11  1  0
 11 12  1  0
 12 13  2  0
 13 14  1  0
 14 15  2  0
 15 16  1  0
 15 17  1  0
 17 18  2  0
  9 19  1  0
 19 20  2  0
 20  6  1  0
 18 12  1  0
  1 21  1  0
  1 22  1  0
  1 23  1  0
  2 24  1  0
  2 25  1  0
  7 26  1  0
  8 27  1  0
 11 28  1  0
 11 29  1  0
 13 30  1  0
 14 31  1  0
 18 32  1  0
 19 33  1  0
 20 34  1  0
M  END
>  <UniqueID>  (46) 
44

>  <SMILES>  (46) 
CCOC(=O)c1ccc(OCc2ccc(Cl)nc2)cc1

>  <Energy>  (46) 
30.24779363717512

>  <Genealogy>  (46) 
CCOC(=O)c1ccc(OCc2ccc(Cl)nc2)cc1 (3D coordinates assigned)
CCOC(=O)c1ccc(OCc2ccc(Cl)nc2)cc1 (optimized conformer: 30.24779363717512 kcal/mol)

>  <smiles>  (46) 
CCOC(=O)c1ccc(OCc2ccc(Cl)nc2)cc1

>  <score_type>  (46) 
oracle

>  <origin>  (46) 
adg

>  <m_score__min__energy>  (46) 
-6.6799999999999997

>  <m_primary>  (46) 
energy

$$$$
46:0
     RDKit          3D

 29 30  0  0  0  0  0  0  0  0999 V2000
   58.0840   32.4420   42.8360 C   0  0  0  0  0  0  0  0  0  0  0  0
   57.6050   32.3250   44.2170 N   0  0  0  0  0  0  0  0  0  0  0  0
   57.4570   33.5340   45.0460 C   0  0  0  0  0  0  0  0  0  0  0  0
   58.5070   33.5720   46.1260 C   0  0  0  0  0  0  0  0  0  0  0  0
   58.1480   33.4550   47.4790 C   0  0  0  0  0  0  0  0  0  0  0  0
   59.1310   33.4680   48.4720 C   0  0  0  0  0  0  0  0  0  0  0  0
   60.4780   33.6010   48.1240 C   0  0  0  0  0  0  0  0  0  0  0  0
   60.8460   33.7230   46.7780 C   0  0  0  0  0  0  0  0  0  0  0  0
   62.2330   33.8580   46.4200 C   0  0  0  0  0  0  0  0  0  0  0  0
   63.3490   33.9660   46.1310 N   0  0  0  0  0  0  0  0  0  0  0  0
   59.8610   33.7080   45.7820 C   0  0  0  0  0  0  0  0  0  0  0  0
   57.4210   31.0020   44.7680 C   0  0  0  0  0  0  0  0  0  0  0  0
   56.2650   30.4950   44.7850 O   0  0  0  0  0  0  0  0  0  0  0  0
   58.5450   30.2170   45.3170 C   0  0  0  0  0  0  0  0  0  0  0  0
   58.8160   30.1420   46.6830 C   0  0  0  0  0  0  0  0  0  0  0  0
   60.1790   29.1790   46.8790 S   0  0  0  0  0  0  0  0  0  0  0  0
   60.3790   28.9100   45.2350 C   0  0  0  0  0  0  0  0  0  0  0  0
   59.4200   29.5420   44.5240 N   0  0  0  0  0  0  0  0  0  0  0  0
   59.1526   32.7030   42.8394 H   0  0  0  0  0  0  0  0  0  0  0  0
   57.9425   31.4829   42.3163 H   0  0  0  0  0  0  0  0  0  0  0  0
   57.5163   33.2279   42.3163 H   0  0  0  0  0  0  0  0  0  0  0  0
   57.5627   34.4241   44.4083 H   0  0  0  0  0  0  0  0  0  0  0  0
   56.4640   33.5187   45.5190 H   0  0  0  0  0  0  0  0  0  0  0  0
   57.0889   33.3528   47.7579 H   0  0  0  0  0  0  0  0  0  0  0  0
   58.8441   33.3734   49.5297 H   0  0  0  0  0  0  0  0  0  0  0  0
   61.2498   33.6099   48.9077 H   0  0  0  0  0  0  0  0  0  0  0  0
   60.1501   33.8033   44.7250 H   0  0  0  0  0  0  0  0  0  0  0  0
   58.2415   30.6257   47.4867 H   0  0  0  0  0  0  0  0  0  0  0  0
   61.1827   28.3011   44.7954 H   0  0  0  0  0  0  0  0  0  0  0  0
  1  2  1  0
  2  3  1  0
  3  4  1  0
  4  5  2  0
  5  6  1  0
  6  7  2  0
  7  8  1  0
  8  9  1  0
  9 10  3  0
  8 11  2  0
  2 12  1  0
 12 13  2  0
 12 14  1  0
 14 15  2  0
 15 16  1  0
 16 17  1  0
 17 18  2  0
 11  4  1  0
 18 14  1  0
  1 19  1  0
  1 20  1  0
  1 21  1  0
  3 22  1  0
  3 23  1  0
  5 24  1  0
  6 25  1  0
  7 26  1  0
 11 27  1  0
 15 28  1  0
 17 29  1  0
M  END
>  <UniqueID>  (47) 
45

>  <SMILES>  (47) 
CN(Cc1cccc(C#N)c1)C(=O)c1cscn1

>  <Energy>  (47) 
58.00999023916201

>  <Genealogy>  (47) 
CN(Cc1cccc(C#N)c1)C(=O)c1cscn1 (3D coordinates assigned)
CN(Cc1cccc(C#N)c1)C(=O)c1cscn1 (optimized conformer: 58.00999023916201 kcal/mol)

>  <smiles>  (47) 
CN(Cc1cccc(C#N)c1)C(=O)c1cscn1

>  <score_type>  (47) 
oracle

>  <origin>  (47) 
adg

>  <m_score__min__energy>  (47) 
-6.2699999999999996

>  <m_primary>  (47) 
energy

$$$$
47:0
     RDKit          3D

 44 46  0  0  0  0  0  0  0  0999 V2000
   58.1420   32.7420   43.0650 C   0  0  0  0  0  0  0  0  0  0  0  0
   57.5870   31.4810   42.7090 O   0  0  0  0  0  0  0  0  0  0  0  0
   57.3680   30.4290   43.6110 C   0  0  0  0  0  0  0  0  0  0  0  0
   56.0770   30.0190   43.9950 C   0  0  0  0  0  0  0  0  0  0  0  0
   55.9130   28.9640   44.8980 C   0  0  0  0  0  0  0  0  0  0  0  0
   57.0260   28.2920   45.4180 C   0  0  0  0  0  0  0  0  0  0  0  0
   56.8110   27.2280   46.3570 N   0  0  0  0  0  0  0  0  0  0  0  0
   55.9010   26.1330   46.2100 C   0  0  0  0  0  0  0  0  0  0  0  0
   54.6850   26.3410   45.9500 O   0  0  0  0  0  0  0  0  0  0  0  0
   56.3720   24.8060   46.4660 N   0  0  0  0  0  0  0  0  0  0  0  0
   56.6470   23.7900   45.4870 C   0  0  0  0  0  0  0  0  0  0  0  0
   57.9640   23.4810   45.1040 C   0  0  0  0  0  0  0  0  0  0  0  0
   58.2030   22.5160   44.1270 C   0  0  0  0  0  0  0  0  0  0  0  0
   57.1240   21.8580   43.5400 C   0  0  0  0  0  0  0  0  0  0  0  0
   55.8570   22.1410   43.9380 N   0  0  0  0  0  0  0  0  0  0  0  0
   55.5840   23.0660   44.9020 C   0  0  0  0  0  0  0  0  0  0  0  0
   54.2120   23.3080   45.2680 N   0  0  0  0  0  0  0  0  0  0  0  0
   53.7160   22.9590   46.6080 C   0  0  0  0  0  0  0  0  0  0  0  0
   52.3080   22.3640   46.5130 C   0  0  0  0  0  0  0  0  0  0  0  0
   51.3180   23.3080   45.8020 C   0  0  0  0  0  0  0  0  0  0  0  0
   51.9940   24.3270   44.8660 C   0  0  0  0  0  0  0  0  0  0  0  0
   53.2740   23.7690   44.2340 C   0  0  0  0  0  0  0  0  0  0  0  0
   58.3160   28.7160   45.0520 C   0  0  0  0  0  0  0  0  0  0  0  0
   58.4800   29.7720   44.1500 C   0  0  0  0  0  0  0  0  0  0  0  0
   58.1805   32.8295   44.1608 H   0  0  0  0  0  0  0  0  0  0  0  0
   59.1593   32.8239   42.6547 H   0  0  0  0  0  0  0  0  0  0  0  0
   57.5152   33.5475   42.6547 H   0  0  0  0  0  0  0  0  0  0  0  0
   55.1944   30.5303   43.5833 H   0  0  0  0  0  0  0  0  0  0  0  0
   54.9008   28.6593   45.2025 H   0  0  0  0  0  0  0  0  0  0  0  0
   58.8090   24.0027   45.5771 H   0  0  0  0  0  0  0  0  0  0  0  0
   59.2325   22.2764   43.8226 H   0  0  0  0  0  0  0  0  0  0  0  0
   57.2988   21.1089   42.7537 H   0  0  0  0  0  0  0  0  0  0  0  0
   54.3921   22.2213   47.0648 H   0  0  0  0  0  0  0  0  0  0  0  0
   53.6801   23.8687   47.2254 H   0  0  0  0  0  0  0  0  0  0  0  0
   52.3607   21.4195   45.9516 H   0  0  0  0  0  0  0  0  0  0  0  0
   51.9417   22.2038   47.5378 H   0  0  0  0  0  0  0  0  0  0  0  0
   50.6235   22.6974   45.2063 H   0  0  0  0  0  0  0  0  0  0  0  0
   50.8054   23.8843   46.5863 H   0  0  0  0  0  0  0  0  0  0  0  0
   51.2897   24.5937   44.0642 H   0  0  0  0  0  0  0  0  0  0  0  0
   52.2684   25.2075   45.4656 H   0  0  0  0  0  0  0  0  0  0  0  0
   53.0139   22.9230   43.5808 H   0  0  0  0  0  0  0  0  0  0  0  0
   53.7566   24.5688   43.6532 H   0  0  0  0  0  0  0  0  0  0  0  0
   59.1987   28.2154   45.4765 H   0  0  0  0  0  0  0  0  0  0  0  0
   59.4929   30.0894   43.8613 H   0  0  0  0  0  0  0  0  0  0  0  0
  1  2  1  0
  2  3  1  0
  3  4  2  0
  4  5  1  0
  5  6  2  0
  6  7  1  0
  7  8  1  0
  8  9  2  0
  8 10  1  0
 10 11  1  0
 11 12  2  0
 12 13  1  0
 13 14  2  0
 14 15  1  0
 15 16  2  0
 16 17  1  0
 17 18  1  0
 18 19  1  0
 19 20  1  0
 20 21  1  0
 21 22  1  0
  6 23  1  0
 23 24  2  0
 24  3  1  0
 16 11  1  0
 22 17  1  0
  1 25  1  0
  1 26  1  0
  1 27  1  0
  4 28  1  0
  5 29  1  0
 12 30  1  0
 13 31  1  0
 14 32  1  0
 18 33  1  0
 18 34  1  0
 19 35  1  0
 19 36  1  0
 20 37  1  0
 20 38  1  0
 21 39  1  0
 21 40  1  0
 22 41  1  0
 22 42  1  0
 23 43  1  0
 24 44  1  0
M  CHG  2   7  -1  10  -1
M  END
>  <UniqueID>  (48) 
46

>  <SMILES>  (48) 
COc1ccc([N-]C(=O)[N-]c2cccnc2N2CCCCC2)cc1

>  <Energy>  (48) 
57.03517300232365

>  <Genealogy>  (48) 
COc1ccc([N-]C(=O)[N-]c2cccnc2N2CCCCC2)cc1 (protonated)
COc1ccc([N-]C(=O)[N-]c2cccnc2N2CCCCC2)cc1 (3D coordinates assigned)
COc1ccc([N-]C(=O)[N-]c2cccnc2N2CCCCC2)cc1 (nonaromatic ring conformer: 57.03517300232365 kcal/mol)

>  <smiles>  (48) 
COc1ccc(NC(=O)Nc2cccnc2N2CCCCC2)cc1

>  <score_type>  (48) 
oracle

>  <origin>  (48) 
adg

>  <m_score__min__energy>  (48) 
-10.48

>  <m_primary>  (48) 
energy

$$$$
