0:0
     RDKit          3D

 67 70  0  0  0  0  0  0  0  0999 V2000
   60.9910   27.8300   50.4630 C   0  0  0  0  0  0  0  0  0  0  0  0
   60.3720   29.1380   50.9700 C   0  0  0  0  0  0  0  0  0  0  0  0
   61.3320   30.2610   50.9870 N   0  0  0  0  0  0  0  0  0  0  0  0
   62.7390   29.8740   51.2060 C   0  0  0  0  0  0  0  0  0  0  0  0
   63.7380   30.8260   50.5300 C   0  0  0  0  0  0  0  0  0  0  0  0
   63.0940   31.4640   49.3700 N   0  0  0  0  0  0  0  0  0  0  0  0
   64.0760   32.0060   48.4190 C   0  0  0  0  0  0  0  0  0  0  0  0
   63.4540   33.1570   47.6170 C   0  0  0  0  0  0  0  0  0  0  0  0
   62.3220   33.7410   48.3530 N   0  0  0  0  0  0  0  0  0  0  0  0
   62.7480   34.5770   49.4880 C   0  0  0  0  0  0  0  0  0  0  0  0
   62.0280   34.1910   50.8020 C   0  0  0  0  0  0  0  0  0  0  0  0
   61.3400   32.8940   50.6940 N   0  0  0  0  0  0  0  0  0  0  0  0
   60.0080   32.9310   51.3170 C   0  0  0  0  0  0  0  0  0  0  0  0
   58.9180   33.0430   50.2490 C   0  0  0  0  0  0  0  0  0  0  0  0
   59.5080   33.3760   48.9510 N   0  0  0  0  0  0  0  0  0  0  0  0
   58.9610   32.9260   47.6980 C   0  0  0  0  0  0  0  0  0  0  0  0
   58.1960   33.8060   46.9110 C   0  0  0  0  0  0  0  0  0  0  0  0
   57.5870   33.3750   45.7320 C   0  0  0  0  0  0  0  0  0  0  0  0
   57.7210   32.0480   45.3120 C   0  0  0  0  0  0  0  0  0  0  0  0
   57.0890   31.6040   44.1390 C   0  0  0  0  0  0  0  0  0  0  0  0
   57.2190   30.2750   43.7250 C   0  0  0  0  0  0  0  0  0  0  0  0
   57.9900   29.3720   44.4720 C   0  0  0  0  0  0  0  0  0  0  0  0
   58.1280   28.0380   44.0600 C   0  0  0  0  0  0  0  0  0  0  0  0
   58.9010   27.1470   44.8110 C   0  0  0  0  0  0  0  0  0  0  0  0
   59.5470   27.5750   45.9740 C   0  0  0  0  0  0  0  0  0  0  0  0
   59.4180   28.9050   46.4040 C   0  0  0  0  0  0  0  0  0  0  0  0
   60.0630   29.3480   47.5670 C   0  0  0  0  0  0  0  0  0  0  0  0
   59.9250   30.6700   47.9960 C   0  0  0  0  0  0  0  0  0  0  0  0
   59.1280   31.5850   47.2750 C   0  0  0  0  0  0  0  0  0  0  0  0
   58.4960   31.1490   46.0810 C   0  0  0  0  0  0  0  0  0  0  0  0
   58.6350   29.8090   45.6530 C   0  0  0  0  0  0  0  0  0  0  0  0
   61.2857   27.2073   51.3205 H   0  0  0  0  0  0  0  0  0  0  0  0
   60.2539   27.2880   49.8524 H   0  0  0  0  0  0  0  0  0  0  0  0
   61.8775   28.0564   49.8524 H   0  0  0  0  0  0  0  0  0  0  0  0
   59.5308   29.4055   50.3136 H   0  0  0  0  0  0  0  0  0  0  0  0
   60.0452   28.9680   52.0065 H   0  0  0  0  0  0  0  0  0  0  0  0
   61.2670   30.7710   50.0730 H   0  0  0  0  0  0  0  0  0  0  0  0
   61.0430   30.9330   51.7370 H   0  0  0  0  0  0  0  0  0  0  0  0
   62.9366   29.8698   52.2881 H   0  0  0  0  0  0  0  0  0  0  0  0
   62.8792   28.8792   50.7580 H   0  0  0  0  0  0  0  0  0  0  0  0
   64.0519   31.5988   51.2471 H   0  0  0  0  0  0  0  0  0  0  0  0
   64.6193   30.2587   50.1962 H   0  0  0  0  0  0  0  0  0  0  0  0
   62.5060   32.2550   49.7240 H   0  0  0  0  0  0  0  0  0  0  0  0
   64.9506   32.3790   48.9721 H   0  0  0  0  0  0  0  0  0  0  0  0
   64.3834   31.2092   47.7258 H   0  0  0  0  0  0  0  0  0  0  0  0
   64.2149   33.9330   47.4468 H   0  0  0  0  0  0  0  0  0  0  0  0
   63.0910   32.7665   46.6548 H   0  0  0  0  0  0  0  0  0  0  0  0
   61.6990   32.9710   48.6960 H   0  0  0  0  0  0  0  0  0  0  0  0
   63.8321   34.4561   49.6296 H   0  0  0  0  0  0  0  0  0  0  0  0
   62.4882   35.6201   49.2549 H   0  0  0  0  0  0  0  0  0  0  0  0
   62.7718   34.1321   51.6103 H   0  0  0  0  0  0  0  0  0  0  0  0
   61.2708   34.9605   51.0129 H   0  0  0  0  0  0  0  0  0  0  0  0
   61.9240   32.1490   51.1440 H   0  0  0  0  0  0  0  0  0  0  0  0
   59.8537   32.0085   51.8959 H   0  0  0  0  0  0  0  0  0  0  0  0
   59.9493   33.8085   51.9777 H   0  0  0  0  0  0  0  0  0  0  0  0
   58.3875   32.0826   50.1704 H   0  0  0  0  0  0  0  0  0  0  0  0
   58.2164   33.8397   50.5372 H   0  0  0  0  0  0  0  0  0  0  0  0
   60.4540   33.8210   48.9470 H   0  0  0  0  0  0  0  0  0  0  0  0
   58.0759   34.8517   47.2306 H   0  0  0  0  0  0  0  0  0  0  0  0
   56.9984   34.0827   45.1298 H   0  0  0  0  0  0  0  0  0  0  0  0
   56.4881   32.3062   43.5424 H   0  0  0  0  0  0  0  0  0  0  0  0
   56.7140   29.9356   42.8086 H   0  0  0  0  0  0  0  0  0  0  0  0
   57.6269   27.6921   43.1439 H   0  0  0  0  0  0  0  0  0  0  0  0
   59.0013   26.1015   44.4840 H   0  0  0  0  0  0  0  0  0  0  0  0
   60.1582   26.8678   46.5540 H   0  0  0  0  0  0  0  0  0  0  0  0
   60.6831   28.6485   48.1468 H   0  0  0  0  0  0  0  0  0  0  0  0
   60.4440   31.0023   48.9072 H   0  0  0  0  0  0  0  0  0  0  0  0
  1  2  1  0
  2  3  1  0
  3  4  1  0
  4  5  1  0
  5  6  1  0
  6  7  1  0
  7  8  1  0
  8  9  1  0
  9 10  1  0
 10 11  1  0
 11 12  1  0
 12 13  1  0
 13 14  1  0
 14 15  1  0
 15 16  1  0
 16 17  2  0
 17 18  1  0
 18 19  2  0
 19 20  1  0
 20 21  2  0
 21 22  1  0
 22 23  2  0
 23 24  1  0
 24 25  2  0
 25 26  1  0
 26 27  2  0
 27 28  1  0
 28 29  2  0
 29 30  1  0
 30 31  2  0
 29 16  1  0
 30 19  1  0
 31 22  1  0
 31 26  1  0
  1 32  1  0
  1 33  1  0
  1 34  1  0
  2 35  1  0
  2 36  1  0
  3 37  1  0
  3 38  1  0
  4 39  1  0
  4 40  1  0
  5 41  1  0
  5 42  1  0
  6 43  1  0
  7 44  1  0
  7 45  1  0
  8 46  1  0
  8 47  1  0
  9 48  1  0
 10 49  1  0
 10 50  1  0
 11 51  1  0
 11 52  1  0
 12 53  1  0
 13 54  1  0
 13 55  1  0
 14 56  1  0
 14 57  1  0
 15 58  1  0
 17 59  1  0
 18 60  1  0
 20 61  1  0
 21 62  1  0
 23 63  1  0
 24 64  1  0
 25 65  1  0
 27 66  1  0
 28 67  1  0
M  CHG  1   3   1
M  END
>  <UniqueID>  (1) 
1

>  <SMILES>  (1) 
CC[NH2+]CCNCCNCCNCCNc1ccc2ccc3cccc4ccc1c2c34

>  <Energy>  (1) 
80.89602330139316

>  <Genealogy>  (1) 
CC[NH2+]CCNCCNCCNCCNc1ccc2ccc3cccc4ccc1c2c34 (protonated)
CC[NH2+]CCNCCNCCNCCNc1ccc2ccc3cccc4ccc1c2c34 (3D coordinates assigned)
CC[NH2+]CCNCCNCCNCCNc1ccc2ccc3cccc4ccc1c2c34 (optimized conformer: 80.89602330139316 kcal/mol)

>  <smiles>  (1) 
CCNCCNCCNCCNCCNc1ccc2ccc3cccc4ccc1c2c34

>  <score_type>  (1) 
oracle

>  <origin>  (1) 
adg

>  <m_score__min__energy>  (1) 
-6.9400000000000004

>  <m_primary>  (1) 
energy

$$$$
1:0
     RDKit          3D

 60 63  0  0  0  0  0  0  0  0999 V2000
   60.4880   34.5820   49.1100 C   0  0  0  0  0  0  0  0  0  0  0  0
   59.7030   34.1540   47.9060 C   0  0  0  0  0  0  0  0  0  0  0  0
   58.5920   33.3110   48.0470 C   0  0  0  0  0  0  0  0  0  0  0  0
   57.8420   32.9360   46.9300 C   0  0  0  0  0  0  0  0  0  0  0  0
   58.1900   33.4020   45.6500 C   0  0  0  0  0  0  0  0  0  0  0  0
   57.4020   32.9770   44.4270 C   0  0  0  0  0  0  0  0  0  0  0  0
   57.8490   31.6900   43.8450 N   0  0  0  0  0  0  0  0  0  0  0  0
   58.8090   30.9620   44.7030 C   0  0  0  0  0  0  0  0  0  0  0  0
   59.1190   29.5690   44.1360 C   0  0  0  0  0  0  0  0  0  0  0  0
   57.8950   28.7460   43.8950 N   0  0  0  0  0  0  0  0  0  0  0  0
   57.8860   27.4630   44.6510 C   0  0  0  0  0  0  0  0  0  0  0  0
   57.1630   27.4850   46.0160 C   0  0  0  0  0  0  0  0  0  0  0  0
   58.0650   27.5000   47.1220 O   0  0  0  0  0  0  0  0  0  0  0  0
   58.9940   28.5120   47.4110 C   0  0  0  0  0  0  0  0  0  0  0  0
   58.8090   29.4460   48.4470 C   0  0  0  0  0  0  0  0  0  0  0  0
   59.7790   30.4210   48.6990 C   0  0  0  0  0  0  0  0  0  0  0  0
   60.9490   30.4840   47.9220 C   0  0  0  0  0  0  0  0  0  0  0  0
   61.9800   31.5180   48.1930 C   0  0  0  0  0  0  0  0  0  0  0  0
   62.4780   32.3230   47.1500 C   0  0  0  0  0  0  0  0  0  0  0  0
   63.4490   33.2950   47.4080 C   0  0  0  0  0  0  0  0  0  0  0  0
   63.9350   33.4740   48.7050 C   0  0  0  0  0  0  0  0  0  0  0  0
   63.4500   32.6810   49.7470 C   0  0  0  0  0  0  0  0  0  0  0  0
   62.4780   31.7080   49.4960 C   0  0  0  0  0  0  0  0  0  0  0  0
   61.1250   29.5520   46.8840 C   0  0  0  0  0  0  0  0  0  0  0  0
   60.1560   28.5780   46.6350 C   0  0  0  0  0  0  0  0  0  0  0  0
   56.6280   29.5080   44.0110 C   0  0  0  0  0  0  0  0  0  0  0  0
   56.7500   30.8580   43.2930 C   0  0  0  0  0  0  0  0  0  0  0  0
   59.2760   34.2850   45.5200 C   0  0  0  0  0  0  0  0  0  0  0  0
   60.0280   34.6560   46.6370 C   0  0  0  0  0  0  0  0  0  0  0  0
   59.9489   34.2881   50.0227 H   0  0  0  0  0  0  0  0  0  0  0  0
   61.4754   34.0974   49.0952 H   0  0  0  0  0  0  0  0  0  0  0  0
   60.6155   35.6745   49.0952 H   0  0  0  0  0  0  0  0  0  0  0  0
   58.3089   32.9423   49.0440 H   0  0  0  0  0  0  0  0  0  0  0  0
   56.9737   32.2719   47.0525 H   0  0  0  0  0  0  0  0  0  0  0  0
   56.3442   32.8796   44.7126 H   0  0  0  0  0  0  0  0  0  0  0  0
   57.5616   33.7484   43.6592 H   0  0  0  0  0  0  0  0  0  0  0  0
   59.7431   31.5395   44.7655 H   0  0  0  0  0  0  0  0  0  0  0  0
   58.3600   30.8392   45.6997 H   0  0  0  0  0  0  0  0  0  0  0  0
   59.6521   29.6907   43.1815 H   0  0  0  0  0  0  0  0  0  0  0  0
   59.7271   29.0393   44.8841 H   0  0  0  0  0  0  0  0  0  0  0  0
   57.9480   28.4550   42.8870 H   0  0  0  0  0  0  0  0  0  0  0  0
   57.3948   26.7057   44.0224 H   0  0  0  0  0  0  0  0  0  0  0  0
   58.9402   27.2457   44.8779 H   0  0  0  0  0  0  0  0  0  0  0  0
   56.5327   28.3852   46.0649 H   0  0  0  0  0  0  0  0  0  0  0  0
   56.5668   26.5634   46.0887 H   0  0  0  0  0  0  0  0  0  0  0  0
   57.8973   29.4090   49.0613 H   0  0  0  0  0  0  0  0  0  0  0  0
   59.6253   31.1453   49.5125 H   0  0  0  0  0  0  0  0  0  0  0  0
   62.1005   32.1860   46.1259 H   0  0  0  0  0  0  0  0  0  0  0  0
   63.8311   33.9203   46.5876 H   0  0  0  0  0  0  0  0  0  0  0  0
   64.6994   34.2392   48.9056 H   0  0  0  0  0  0  0  0  0  0  0  0
   63.8338   32.8223   50.7682 H   0  0  0  0  0  0  0  0  0  0  0  0
   62.1000   31.0871   50.3216 H   0  0  0  0  0  0  0  0  0  0  0  0
   62.0326   29.5905   46.2637 H   0  0  0  0  0  0  0  0  0  0  0  0
   60.3080   27.8550   45.8200 H   0  0  0  0  0  0  0  0  0  0  0  0
   55.8124   28.9272   43.5554 H   0  0  0  0  0  0  0  0  0  0  0  0
   56.4148   29.6871   45.0752 H   0  0  0  0  0  0  0  0  0  0  0  0
   56.9457   30.6753   42.2261 H   0  0  0  0  0  0  0  0  0  0  0  0
   55.8067   31.4046   43.4393 H   0  0  0  0  0  0  0  0  0  0  0  0
   59.5359   34.6874   44.5298 H   0  0  0  0  0  0  0  0  0  0  0  0
   60.8782   35.3443   46.5212 H   0  0  0  0  0  0  0  0  0  0  0  0
  1  2  1  0
  2  3  2  0
  3  4  1  0
  4  5  2  0
  5  6  1  0
  6  7  1  0
  7  8  1  0
  8  9  1  0
  9 10  1  0
 10 11  1  0
 11 12  1  0
 12 13  1  0
 13 14  1  0
 14 15  2  0
 15 16  1  0
 16 17  2  0
 17 18  1  0
 18 19  2  0
 19 20  1  0
 20 21  2  0
 21 22  1  0
 22 23  2  0
 17 24  1  0
 24 25  2  0
 10 26  1  0
 26 27  1  0
  5 28  1  0
 28 29  2  0
 29  2  1  0
 27  7  1  0
 25 14  1  0
 23 18  1  0
  1 30  1  0
  1 31  1  0
  1 32  1  0
  3 33  1  0
  4 34  1  0
  6 35  1  0
  6 36  1  0
  8 37  1  0
  8 38  1  0
  9 39  1  0
  9 40  1  0
 10 41  1  0
 11 42  1  0
 11 43  1  0
 12 44  1  0
 12 45  1  0
 15 46  1  0
 16 47  1  0
 19 48  1  0
 20 49  1  0
 21 50  1  0
 22 51  1  0
 23 52  1  0
 24 53  1  0
 25 54  1  0
 26 55  1  0
 26 56  1  0
 27 57  1  0
 27 58  1  0
 28 59  1  0
 29 60  1  0
M  CHG  1  10   1
M  END
>  <UniqueID>  (2) 
2

>  <SMILES>  (2) 
Cc1ccc(CN2CC[NH+](CCOc3ccc(-c4ccccc4)cc3)CC2)cc1

>  <Energy>  (2) 
86.19060377632144

>  <Genealogy>  (2) 
Cc1ccc(CN2CC[NH+](CCOc3ccc(-c4ccccc4)cc3)CC2)cc1 (protonated)
Cc1ccc(CN2CC[NH+](CCOc3ccc(-c4ccccc4)cc3)CC2)cc1 (3D coordinates assigned)
Cc1ccc(CN2CC[NH+](CCOc3ccc(-c4ccccc4)cc3)CC2)cc1 (nonaromatic ring conformer: 86.19060377632144 kcal/mol)

>  <smiles>  (2) 
Cc1ccc(CN2CCN(CCOc3ccc(-c4ccccc4)cc3)CC2)cc1

>  <score_type>  (2) 
oracle

>  <origin>  (2) 
adg

>  <m_score__min__energy>  (2) 
-6.8799999999999999

>  <m_primary>  (2) 
energy

$$$$
2:0
     RDKit          3D

 61 64  0  0  0  0  0  0  0  0999 V2000
   58.5735   36.0541   47.1675 H   0  0  0  0  0  0  0  0  0  0  0  0
   59.2580   35.3190   46.7190 C   0  0  0  0  0  0  0  0  0  0  0  0
   60.0570   34.5950   47.5120 C   0  0  0  0  0  0  0  0  0  0  0  0
   59.7432   34.3842   48.5450 H   0  0  0  0  0  0  0  0  0  0  0  0
   61.3770   34.0630   47.0190 C   0  0  0  0  0  0  0  0  0  0  0  0
   61.1906   33.2722   46.2774 H   0  0  0  0  0  0  0  0  0  0  0  0
   61.9403   34.8932   46.5679 H   0  0  0  0  0  0  0  0  0  0  0  0
   62.1780   33.5030   48.1310 N   0  0  0  0  0  0  0  0  0  0  0  0
   61.3170   32.9820   49.2120 C   0  0  0  0  0  0  0  0  0  0  0  0
   60.5159   33.7111   49.4036 H   0  0  0  0  0  0  0  0  0  0  0  0
   61.9552   32.8296   50.0949 H   0  0  0  0  0  0  0  0  0  0  0  0
   60.6810   31.6410   48.8750 C   0  0  0  0  0  0  0  0  0  0  0  0
   59.5430   31.1790   49.5850 C   0  0  0  0  0  0  0  0  0  0  0  0
   58.8850   32.0140   50.6540 C   0  0  0  0  0  0  0  0  0  0  0  0
   59.1801   31.6395   51.6453 H   0  0  0  0  0  0  0  0  0  0  0  0
   59.2028   33.0618   50.5483 H   0  0  0  0  0  0  0  0  0  0  0  0
   57.7920   31.9500   50.5483 H   0  0  0  0  0  0  0  0  0  0  0  0
   58.9950   29.9250   49.2730 C   0  0  0  0  0  0  0  0  0  0  0  0
   58.0959   29.5766   49.8023 H   0  0  0  0  0  0  0  0  0  0  0  0
   59.5790   29.1170   48.2990 C   0  0  0  0  0  0  0  0  0  0  0  0
   59.1392   28.1368   48.0631 H   0  0  0  0  0  0  0  0  0  0  0  0
   60.7180   29.5480   47.6240 C   0  0  0  0  0  0  0  0  0  0  0  0
   61.1750   28.9037   46.8584 H   0  0  0  0  0  0  0  0  0  0  0  0
   61.2870   30.7960   47.9120 C   0  0  0  0  0  0  0  0  0  0  0  0
   62.4910   31.2350   47.1210 C   0  0  0  0  0  0  0  0  0  0  0  0
   62.1741   31.4632   46.0927 H   0  0  0  0  0  0  0  0  0  0  0  0
   63.2245   30.4156   47.1443 H   0  0  0  0  0  0  0  0  0  0  0  0
   63.1600   32.4780   47.7170 C   0  0  0  0  0  0  0  0  0  0  0  0
   63.8297   32.9151   46.9617 H   0  0  0  0  0  0  0  0  0  0  0  0
   63.7143   32.1632   48.6135 H   0  0  0  0  0  0  0  0  0  0  0  0
   59.2800   35.1450   45.2270 C   0  0  0  0  0  0  0  0  0  0  0  0
   60.1856   34.5901   44.9405 H   0  0  0  0  0  0  0  0  0  0  0  0
   59.2778   36.1376   44.7529 H   0  0  0  0  0  0  0  0  0  0  0  0
   58.1280   34.4220   44.7910 O   0  0  0  0  0  0  0  0  0  0  0  0
   58.0190   33.0210   44.7620 C   0  0  0  0  0  0  0  0  0  0  0  0
   58.1810   32.3190   45.9620 C   0  0  0  0  0  0  0  0  0  0  0  0
   58.3707   32.8705   46.8947 H   0  0  0  0  0  0  0  0  0  0  0  0
   58.1040   30.9240   45.9860 C   0  0  0  0  0  0  0  0  0  0  0  0
   58.2368   30.3863   46.9364 H   0  0  0  0  0  0  0  0  0  0  0  0
   57.8580   30.2020   44.8040 C   0  0  0  0  0  0  0  0  0  0  0  0
   57.7830   28.7190   44.8270 C   0  0  0  0  0  0  0  0  0  0  0  0
   57.3700   28.0410   45.9880 C   0  0  0  0  0  0  0  0  0  0  0  0
   57.1022   28.6140   46.8880 H   0  0  0  0  0  0  0  0  0  0  0  0
   57.2970   26.6460   46.0080 C   0  0  0  0  0  0  0  0  0  0  0  0
   56.9672   26.1287   46.9210 H   0  0  0  0  0  0  0  0  0  0  0  0
   57.6420   25.9010   44.8700 C   0  0  0  0  0  0  0  0  0  0  0  0
   57.5280   24.4010   44.8810 C   0  0  0  0  0  0  0  0  0  0  0  0
   57.0802   24.0801   45.8331 H   0  0  0  0  0  0  0  0  0  0  0  0
   58.5334   23.9697   44.7667 H   0  0  0  0  0  0  0  0  0  0  0  0
   56.6540   23.9170   43.7290 C   0  0  0  0  0  0  0  0  0  0  0  0
   55.7584   23.4211   44.1315 H   0  0  0  0  0  0  0  0  0  0  0  0
   56.3514   24.7761   43.1123 H   0  0  0  0  0  0  0  0  0  0  0  0
   57.2217   23.2047   43.1123 H   0  0  0  0  0  0  0  0  0  0  0  0
   58.0420   26.5730   43.7050 C   0  0  0  0  0  0  0  0  0  0  0  0
   58.2987   25.9985   42.8028 H   0  0  0  0  0  0  0  0  0  0  0  0
   58.1160   27.9690   43.6850 C   0  0  0  0  0  0  0  0  0  0  0  0
   58.4374   28.4850   42.7683 H   0  0  0  0  0  0  0  0  0  0  0  0
   57.6860   30.9090   43.6010 C   0  0  0  0  0  0  0  0  0  0  0  0
   57.4898   30.3590   42.6688 H   0  0  0  0  0  0  0  0  0  0  0  0
   57.7620   32.3040   43.5790 C   0  0  0  0  0  0  0  0  0  0  0  0
   57.6201   32.8446   42.6316 H   0  0  0  0  0  0  0  0  0  0  0  0
  1  2  1  0
  2  3  2  0
  3  4  1  0
  3  5  1  0
  5  6  1  0
  5  7  1  0
  5  8  1  0
  8  9  1  0
  9 10  1  0
  9 11  1  0
  9 12  1  0
 12 13  2  0
 13 14  1  0
 14 15  1  0
 14 16  1  0
 14 17  1  0
 13 18  1  0
 18 19  1  0
 18 20  2  0
 20 21  1  0
 20 22  1  0
 22 23  1  0
 22 24  2  0
 24 25  1  0
 25 26  1  0
 25 27  1  0
 25 28  1  0
 28 29  1  0
 28 30  1  0
  2 31  1  0
 31 32  1  0
 31 33  1  0
 31 34  1  0
 34 35  1  0
 35 36  2  0
 36 37  1  0
 36 38  1  0
 38 39  1  0
 38 40  2  0
 40 41  1  0
 41 42  2  0
 42 43  1  0
 42 44  1  0
 44 45  1  0
 44 46  2  0
 46 47  1  0
 47 48  1  0
 47 49  1  0
 47 50  1  0
 50 51  1  0
 50 52  1  0
 50 53  1  0
 46 54  1  0
 54 55  1  0
 54 56  2  0
 56 57  1  0
 40 58  1  0
 58 59  1  0
 58 60  2  0
 60 61  1  0
 28  8  1  0
 60 35  1  0
 24 12  1  0
 56 41  1  0
M  END
>  <UniqueID>  (3) 
3

>  <SMILES>  (3) 
CCc1ccc(-c2ccc(OC/C=C/CN3CCc4cccc(C)c4C3)cc2)cc1

>  <Energy>  (3) 
69.41688317668388

>  <Genealogy>  (3) 
CCc1ccc(-c2ccc(OC/C=C/CN3CCc4cccc(C)c4C3)cc2)cc1 (cis-trans isomerization)
CCc1ccc(-c2ccc(OC/C=C/CN3CCc4cccc(C)c4C3)cc2)cc1 (3D coordinates assigned)
CCc1ccc(-c2ccc(OC/C=C/CN3CCc4cccc(C)c4C3)cc2)cc1 (nonaromatic ring conformer: 69.41688317668388 kcal/mol)

>  <smiles>  (3) 
CCc1ccc(-c2ccc(OCC=CCN3CCc4cccc(C)c4C3)cc2)cc1

>  <score_type>  (3) 
oracle

>  <origin>  (3) 
adg

>  <m_score__min__energy>  (3) 
-8.4100000000000001

>  <m_primary>  (3) 
energy

$$$$
3:0
     RDKit          3D

 43 45  0  0  0  0  0  0  0  0999 V2000
   56.5550   30.1340   43.3820 C   0  0  0  0  0  0  0  0  0  0  0  0
   56.4860   30.2860   44.7960 O   0  0  0  0  0  0  0  0  0  0  0  0
   57.5590   30.6860   45.6080 C   0  0  0  0  0  0  0  0  0  0  0  0
   58.2160   29.7900   46.4730 C   0  0  0  0  0  0  0  0  0  0  0  0
   59.2880   30.2200   47.2680 C   0  0  0  0  0  0  0  0  0  0  0  0
   59.9050   29.3490   48.1160 N   0  0  0  0  0  0  0  0  0  0  0  0
   60.9360   29.7550   48.9000 C   0  0  0  0  0  0  0  0  0  0  0  0
   61.4920   28.9430   49.6850 O   0  0  0  0  0  0  0  0  0  0  0  0
   61.3740   31.0370   48.8420 N   0  0  0  0  0  0  0  0  0  0  0  0
   60.8080   31.9530   48.0110 C   0  0  0  0  0  0  0  0  0  0  0  0
   61.3500   33.2890   47.9800 N   0  0  0  0  0  0  0  0  0  0  0  0
   62.2650   33.6490   46.8780 C   0  0  0  0  0  0  0  0  0  0  0  0
   63.7480   33.3020   47.1560 C   0  0  0  0  0  0  0  0  0  0  0  0
   64.0540   32.7420   48.5550 C   0  0  0  0  0  0  0  0  0  0  0  0
   63.7930   33.7430   49.6880 C   0  0  0  0  0  0  0  0  0  0  0  0
   62.3680   33.7050   50.2600 C   0  0  0  0  0  0  0  0  0  0  0  0
   61.2800   34.0680   49.2340 C   0  0  0  0  0  0  0  0  0  0  0  0
   59.7230   31.5620   47.1960 C   0  0  0  0  0  0  0  0  0  0  0  0
   59.0530   32.4550   46.3440 C   0  0  0  0  0  0  0  0  0  0  0  0
   57.9780   32.0230   45.5470 C   0  0  0  0  0  0  0  0  0  0  0  0
   57.2980   32.8940   44.6790 O   0  0  0  0  0  0  0  0  0  0  0  0
   57.0710   34.2760   44.9360 C   0  0  0  0  0  0  0  0  0  0  0  0
   56.9985   29.1570   43.1395 H   0  0  0  0  0  0  0  0  0  0  0  0
   55.5421   30.1925   42.9571 H   0  0  0  0  0  0  0  0  0  0  0  0
   57.1777   30.9350   42.9571 H   0  0  0  0  0  0  0  0  0  0  0  0
   57.8850   28.7423   46.5256 H   0  0  0  0  0  0  0  0  0  0  0  0
   59.5850   28.3560   48.1740 H   0  0  0  0  0  0  0  0  0  0  0  0
   61.9468   33.1101   45.9734 H   0  0  0  0  0  0  0  0  0  0  0  0
   62.2091   34.7412   46.7601 H   0  0  0  0  0  0  0  0  0  0  0  0
   64.0634   32.5518   46.4159 H   0  0  0  0  0  0  0  0  0  0  0  0
   64.2948   34.2541   47.0895 H   0  0  0  0  0  0  0  0  0  0  0  0
   63.4226   31.8566   48.7209 H   0  0  0  0  0  0  0  0  0  0  0  0
   65.1270   32.5011   48.5783 H   0  0  0  0  0  0  0  0  0  0  0  0
   64.4966   33.5269   50.5055 H   0  0  0  0  0  0  0  0  0  0  0  0
   63.9284   34.7453   49.2554 H   0  0  0  0  0  0  0  0  0  0  0  0
   62.1699   32.6888   50.6315 H   0  0  0  0  0  0  0  0  0  0  0  0
   62.3218   34.4601   51.0585 H   0  0  0  0  0  0  0  0  0  0  0  0
   60.2972   33.8921   49.6957 H   0  0  0  0  0  0  0  0  0  0  0  0
   61.4389   35.1220   48.9623 H   0  0  0  0  0  0  0  0  0  0  0  0
   59.3734   33.5064   46.2995 H   0  0  0  0  0  0  0  0  0  0  0  0
   57.0429   34.4472   46.0222 H   0  0  0  0  0  0  0  0  0  0  0  0
   57.8836   34.8698   44.4922 H   0  0  0  0  0  0  0  0  0  0  0  0
   56.1111   34.5787   44.4922 H   0  0  0  0  0  0  0  0  0  0  0  0
  1  2  1  0
  2  3  1  0
  3  4  2  0
  4  5  1  0
  5  6  1  0
  6  7  1  0
  7  8  2  0
  7  9  1  0
  9 10  2  0
 10 11  1  0
 11 12  1  0
 12 13  1  0
 13 14  1  0
 14 15  1  0
 15 16  1  0
 16 17  1  0
 10 18  1  0
 18 19  1  0
 19 20  2  0
 20 21  1  0
 21 22  1  0
 20  3  1  0
 18  5  2  0
 17 11  1  0
  1 23  1  0
  1 24  1  0
  1 25  1  0
  4 26  1  0
  6 27  1  0
 12 28  1  0
 12 29  1  0
 13 30  1  0
 13 31  1  0
 14 32  1  0
 14 33  1  0
 15 34  1  0
 15 35  1  0
 16 36  1  0
 16 37  1  0
 17 38  1  0
 17 39  1  0
 19 40  1  0
 22 41  1  0
 22 42  1  0
 22 43  1  0
M  END
>  <UniqueID>  (4) 
4

>  <SMILES>  (4) 
COc1cc2[nH]c(=O)nc(N3CCCCCC3)c2cc1OC

>  <Energy>  (4) 
57.29911257122715

>  <Genealogy>  (4) 
COc1cc2[nH]c(=O)nc(N3CCCCCC3)c2cc1OC (3D coordinates assigned)
COc1cc2[nH]c(=O)nc(N3CCCCCC3)c2cc1OC (nonaromatic ring conformer: 57.29911257122715 kcal/mol)

>  <smiles>  (4) 
COc1cc2[nH]c(=O)nc(N3CCCCCC3)c2cc1OC

>  <score_type>  (4) 
oracle

>  <origin>  (4) 
adg

>  <m_score__min__energy>  (4) 
-5.2199999999999998

>  <m_primary>  (4) 
energy

$$$$
4:0
     RDKit          3D

 31 34  0  0  0  0  0  0  0  0999 V2000
   56.8040   25.4730   46.1070 O   0  0  0  0  0  0  0  0  0  0  0  0
   56.9690   26.6190   45.6160 C   0  0  0  0  0  0  0  0  0  0  0  0
   55.8960   27.5550   45.6180 N   0  0  0  0  0  0  0  0  0  0  0  0
   56.0400   28.8550   45.0460 C   0  0  0  0  0  0  0  0  0  0  0  0
   55.0670   29.6550   45.1090 O   0  0  0  0  0  0  0  0  0  0  0  0
   57.3150   29.2760   44.3330 C   0  0  0  0  0  0  0  0  0  0  0  0
   57.0270   29.5670   42.8300 C   0  0  0  0  0  0  0  0  0  0  0  0
   57.0580   31.0980   42.6450 C   0  0  0  0  0  0  0  0  0  0  0  0
   57.6300   31.6300   43.8660 N   0  0  0  0  0  0  0  0  0  0  0  0
   57.7900   33.0530   44.1650 C   0  0  0  0  0  0  0  0  0  0  0  0
   58.3880   33.2610   45.5370 C   0  0  0  0  0  0  0  0  0  0  0  0
   58.7600   34.5500   45.9480 C   0  0  0  0  0  0  0  0  0  0  0  0
   59.2800   34.7580   47.2290 C   0  0  0  0  0  0  0  0  0  0  0  0
   59.4250   33.6830   48.1100 C   0  0  0  0  0  0  0  0  0  0  0  0
   59.0520   32.3960   47.7150 C   0  0  0  0  0  0  0  0  0  0  0  0
   58.5340   32.1770   46.4320 C   0  0  0  0  0  0  0  0  0  0  0  0
   58.1620   30.8500   46.0370 N   0  0  0  0  0  0  0  0  0  0  0  0
   57.7460   30.6090   44.8330 C   0  0  0  0  0  0  0  0  0  0  0  0
   58.4460   28.2700   44.4860 C   0  0  0  0  0  0  0  0  0  0  0  0
   59.5990   28.5570   44.0650 O   0  0  0  0  0  0  0  0  0  0  0  0
   58.2300   26.9850   45.0700 N   0  0  0  0  0  0  0  0  0  0  0  0
   57.7970   29.0962   42.2012 H   0  0  0  0  0  0  0  0  0  0  0  0
   56.0491   29.1588   42.5348 H   0  0  0  0  0  0  0  0  0  0  0  0
   57.6822   31.3671   41.7802 H   0  0  0  0  0  0  0  0  0  0  0  0
   56.0532   31.5043   42.4572 H   0  0  0  0  0  0  0  0  0  0  0  0
   58.4531   33.5050   43.4127 H   0  0  0  0  0  0  0  0  0  0  0  0
   56.7974   33.5265   44.1431 H   0  0  0  0  0  0  0  0  0  0  0  0
   58.6421   35.4000   45.2598 H   0  0  0  0  0  0  0  0  0  0  0  0
   59.5755   35.7697   47.5440 H   0  0  0  0  0  0  0  0  0  0  0  0
   59.8340   33.8507   49.1173 H   0  0  0  0  0  0  0  0  0  0  0  0
   59.1652   31.5531   48.4126 H   0  0  0  0  0  0  0  0  0  0  0  0
  1  2  2  0
  2  3  1  0
  3  4  1  0
  4  5  2  0
  4  6  1  0
  6  7  1  0
  7  8  1  0
  8  9  1  0
  9 10  1  0
 10 11  1  0
 11 12  2  0
 12 13  1  0
 13 14  2  0
 14 15  1  0
 15 16  2  0
 16 17  1  0
 17 18  2  0
  6 19  1  0
 19 20  2  0
 19 21  1  0
 21  2  1  0
 18  6  1  0
 18  9  1  0
 16 11  1  0
  7 22  1  0
  7 23  1  0
  8 24  1  0
  8 25  1  0
 10 26  1  0
 10 27  1  0
 12 28  1  0
 13 29  1  0
 14 30  1  0
 15 31  1  0
M  CHG  2   3  -1  21  -1
M  END
>  <UniqueID>  (5) 
5

>  <SMILES>  (5) 
O=C1[N-]C(=O)C2(CCN3Cc4ccccc4N=C32)C(=O)[N-]1

>  <Energy>  (5) 
44.223923829515456

>  <Genealogy>  (5) 
O=C1[N-]C(=O)C2(CCN3Cc4ccccc4N=C32)C(=O)[N-]1 (protonated)
O=C1[N-]C(=O)C2(CCN3Cc4ccccc4N=C32)C(=O)[N-]1 (3D coordinates assigned)
O=C1[N-]C(=O)C2(CCN3Cc4ccccc4N=C32)C(=O)[N-]1 (nonaromatic ring conformer: 44.223923829515456 kcal/mol)

>  <smiles>  (5) 
O=C1NC(=O)C2(CCN3Cc4ccccc4N=C32)C(=O)N1

>  <score_type>  (5) 
oracle

>  <origin>  (5) 
adg

>  <m_score__min__energy>  (5) 
-11.43

>  <m_primary>  (5) 
energy

$$$$
5:0
     RDKit          3D

 43 45  0  0  0  0  0  0  0  0999 V2000
   57.3680   32.3460   40.8320 C   0  0  0  0  0  0  0  0  0  0  0  0
   58.1310   32.3050   42.1510 C   0  0  0  0  0  0  0  0  0  0  0  0
   57.4600   31.4140   43.0990 N   0  0  0  0  0  0  0  0  0  0  0  0
   56.5380   30.4880   42.7860 C   0  0  0  0  0  0  0  0  0  0  0  0
   56.1710   29.8400   43.9440 C   0  0  0  0  0  0  0  0  0  0  0  0
   56.8630   30.3460   44.9840 N   0  0  0  0  0  0  0  0  0  0  0  0
   57.6580   31.2920   44.4320 C   0  0  0  0  0  0  0  0  0  0  0  0
   58.5750   32.1710   45.2530 C   0  0  0  0  0  0  0  0  0  0  0  0
   57.7410   33.2160   46.0300 C   0  0  0  0  0  0  0  0  0  0  0  0
   58.4320   33.6560   47.3230 C   0  0  0  0  0  0  0  0  0  0  0  0
   58.6680   32.4930   48.1930 N   0  0  0  0  0  0  0  0  0  0  0  0
   58.6810   32.6680   49.6270 C   0  0  0  0  0  0  0  0  0  0  0  0
   57.7990   31.9580   50.4580 C   0  0  0  0  0  0  0  0  0  0  0  0
   57.8540   32.1680   51.8460 C   0  0  0  0  0  0  0  0  0  0  0  0
   57.0070   31.4940   52.7390 O   0  0  0  0  0  0  0  0  0  0  0  0
   55.7980   30.8410   52.3650 C   0  0  0  0  0  0  0  0  0  0  0  0
   58.7550   33.0560   52.3480 N   0  0  0  0  0  0  0  0  0  0  0  0
   59.5950   33.7430   51.5310 C   0  0  0  0  0  0  0  0  0  0  0  0
   59.5530   33.5470   50.1900 N   0  0  0  0  0  0  0  0  0  0  0  0
   58.9530   31.1790   47.5920 C   0  0  0  0  0  0  0  0  0  0  0  0
   59.5010   31.3290   46.1670 C   0  0  0  0  0  0  0  0  0  0  0  0
   56.2884   32.4040   41.0346 H   0  0  0  0  0  0  0  0  0  0  0  0
   57.6807   33.2286   40.2548 H   0  0  0  0  0  0  0  0  0  0  0  0
   57.5843   31.4349   40.2548 H   0  0  0  0  0  0  0  0  0  0  0  0
   59.1518   31.9380   41.9684 H   0  0  0  0  0  0  0  0  0  0  0  0
   58.1653   33.3190   42.5760 H   0  0  0  0  0  0  0  0  0  0  0  0
   56.1447   30.2832   41.7793 H   0  0  0  0  0  0  0  0  0  0  0  0
   55.4268   29.0327   44.0103 H   0  0  0  0  0  0  0  0  0  0  0  0
   59.2476   32.7216   44.5788 H   0  0  0  0  0  0  0  0  0  0  0  0
   57.5913   34.0978   45.3897 H   0  0  0  0  0  0  0  0  0  0  0  0
   56.7809   32.7516   46.2994 H   0  0  0  0  0  0  0  0  0  0  0  0
   59.3949   34.1282   47.0781 H   0  0  0  0  0  0  0  0  0  0  0  0
   57.7856   34.3735   47.8497 H   0  0  0  0  0  0  0  0  0  0  0  0
   57.0763   31.2485   50.0287 H   0  0  0  0  0  0  0  0  0  0  0  0
   55.2471   30.5434   53.2694 H   0  0  0  0  0  0  0  0  0  0  0  0
   55.1797   31.5278   51.7684 H   0  0  0  0  0  0  0  0  0  0  0  0
   56.0334   29.9473   51.7684 H   0  0  0  0  0  0  0  0  0  0  0  0
   58.8010   33.2180   53.3790 H   0  0  0  0  0  0  0  0  0  0  0  0
   60.3112   34.4602   51.9584 H   0  0  0  0  0  0  0  0  0  0  0  0
   59.6976   30.6556   48.2097 H   0  0  0  0  0  0  0  0  0  0  0  0
   58.0154   30.6055   47.5465 H   0  0  0  0  0  0  0  0  0  0  0  0
   60.4843   31.8193   46.2184 H   0  0  0  0  0  0  0  0  0  0  0  0
   59.5697   30.3215   45.7308 H   0  0  0  0  0  0  0  0  0  0  0  0
  1  2  1  0
  2  3  1  0
  3  4  1  0
  4  5  2  0
  5  6  1  0
  6  7  2  0
  7  8  1  0
  8  9  1  0
  9 10  1  0
 10 11  1  0
 11 12  1  0
 12 13  2  0
 13 14  1  0
 14 15  1  0
 15 16  1  0
 14 17  2  0
 17 18  1  0
 18 19  2  0
 11 20  1  0
 20 21  1  0
  7  3  1  0
 21  8  1  0
 19 12  1  0
  1 22  1  0
  1 23  1  0
  1 24  1  0
  2 25  1  0
  2 26  1  0
  4 27  1  0
  5 28  1  0
  8 29  1  0
  9 30  1  0
  9 31  1  0
 10 32  1  0
 10 33  1  0
 13 34  1  0
 16 35  1  0
 16 36  1  0
 16 37  1  0
 17 38  1  0
 18 39  1  0
 20 40  1  0
 20 41  1  0
 21 42  1  0
 21 43  1  0
M  CHG  1  17   1
M  END
>  <UniqueID>  (6) 
6

>  <SMILES>  (6) 
CCn1ccnc1C1CCN(c2cc(OC)[nH+]cn2)CC1

>  <Energy>  (6) 
73.21442189281804

>  <Genealogy>  (6) 
CCn1ccnc1C1CCN(c2cc(OC)[nH+]cn2)CC1 (protonated)
CCn1ccnc1C1CCN(c2cc(OC)[nH+]cn2)CC1 (3D coordinates assigned)
CCn1ccnc1C1CCN(c2cc(OC)[nH+]cn2)CC1 (nonaromatic ring conformer: 73.21442189281804 kcal/mol)

>  <smiles>  (6) 
CCn1ccnc1C1CCN(c2cc(OC)ncn2)CC1

>  <score_type>  (6) 
oracle

>  <origin>  (6) 
adg

>  <m_score__min__energy>  (6) 
-5.2000000000000002

>  <m_primary>  (6) 
energy

$$$$
6:0
     RDKit          3D

 55 58  0  0  0  0  0  0  0  0999 V2000
   59.6620   35.7570   45.5800 C   0  0  0  0  0  0  0  0  0  0  0  0
   58.8100   34.5450   45.7970 C   0  0  0  0  0  0  0  0  0  0  0  0
   57.4680   34.5790   45.6610 N   0  0  0  0  0  0  0  0  0  0  0  0
   57.0720   33.3200   45.9210 C   0  0  0  0  0  0  0  0  0  0  0  0
   58.1730   32.5390   46.2050 C   0  0  0  0  0  0  0  0  0  0  0  0
   58.1190   31.0530   46.5040 C   0  0  0  0  0  0  0  0  0  0  0  0
   58.1740   30.1890   45.3000 N   0  0  0  0  0  0  0  0  0  0  0  0
   58.0850   30.9590   44.0480 C   0  0  0  0  0  0  0  0  0  0  0  0
   59.3320   29.2690   45.2770 C   0  0  0  0  0  0  0  0  0  0  0  0
   58.9120   27.8510   44.9770 C   0  0  0  0  0  0  0  0  0  0  0  0
   59.2610   26.7890   45.8190 C   0  0  0  0  0  0  0  0  0  0  0  0
   58.8380   25.5320   45.5360 N   0  0  0  0  0  0  0  0  0  0  0  0
   58.0580   25.2700   44.4510 C   0  0  0  0  0  0  0  0  0  0  0  0
   57.6320   23.8740   44.1810 C   0  0  0  0  0  0  0  0  0  0  0  0
   56.6800   23.5840   43.1840 C   0  0  0  0  0  0  0  0  0  0  0  0
   56.2950   22.2620   42.9370 C   0  0  0  0  0  0  0  0  0  0  0  0
   56.8580   21.2170   43.6740 C   0  0  0  0  0  0  0  0  0  0  0  0
   57.8110   21.4920   44.6570 C   0  0  0  0  0  0  0  0  0  0  0  0
   58.2000   22.8120   44.9070 C   0  0  0  0  0  0  0  0  0  0  0  0
   57.6650   26.3010   43.6470 N   0  0  0  0  0  0  0  0  0  0  0  0
   58.0670   27.5750   43.8960 C   0  0  0  0  0  0  0  0  0  0  0  0
   59.2750   33.3240   46.1600 N   0  0  0  0  0  0  0  0  0  0  0  0
   60.6780   32.9400   46.3840 C   0  0  0  0  0  0  0  0  0  0  0  0
   61.1540   33.3330   47.7640 C   0  0  0  0  0  0  0  0  0  0  0  0
   60.2120   33.4880   48.7990 C   0  0  0  0  0  0  0  0  0  0  0  0
   60.6210   33.8460   50.0850 C   0  0  0  0  0  0  0  0  0  0  0  0
   61.9730   34.0660   50.3530 C   0  0  0  0  0  0  0  0  0  0  0  0
   62.9180   33.9310   49.3340 C   0  0  0  0  0  0  0  0  0  0  0  0
   62.5200   33.5720   48.0400 C   0  0  0  0  0  0  0  0  0  0  0  0
   63.7570   33.4530   46.7980 Cl  0  0  0  0  0  0  0  0  0  0  0  0
   59.9571   36.1768   46.5530 H   0  0  0  0  0  0  0  0  0  0  0  0
   60.5622   35.4758   45.0138 H   0  0  0  0  0  0  0  0  0  0  0  0
   59.0927   36.5088   45.0138 H   0  0  0  0  0  0  0  0  0  0  0  0
   56.0301   32.9674   45.9090 H   0  0  0  0  0  0  0  0  0  0  0  0
   58.9727   30.7997   47.1498 H   0  0  0  0  0  0  0  0  0  0  0  0
   57.1489   30.8623   46.9862 H   0  0  0  0  0  0  0  0  0  0  0  0
   57.9616   32.0267   44.2822 H   0  0  0  0  0  0  0  0  0  0  0  0
   59.0057   30.8159   43.4633 H   0  0  0  0  0  0  0  0  0  0  0  0
   57.2213   30.6096   43.4633 H   0  0  0  0  0  0  0  0  0  0  0  0
   60.0376   29.6033   44.5022 H   0  0  0  0  0  0  0  0  0  0  0  0
   59.8022   29.2844   46.2713 H   0  0  0  0  0  0  0  0  0  0  0  0
   59.8784   26.9739   46.7104 H   0  0  0  0  0  0  0  0  0  0  0  0
   56.2369   24.4016   42.5965 H   0  0  0  0  0  0  0  0  0  0  0  0
   55.5469   22.0446   42.1604 H   0  0  0  0  0  0  0  0  0  0  0  0
   56.5509   20.1787   43.4801 H   0  0  0  0  0  0  0  0  0  0  0  0
   58.2564   20.6693   45.2355 H   0  0  0  0  0  0  0  0  0  0  0  0
   58.9564   23.0211   45.6778 H   0  0  0  0  0  0  0  0  0  0  0  0
   57.0240   26.1380   42.8400 H   0  0  0  0  0  0  0  0  0  0  0  0
   57.7266   28.3934   43.2447 H   0  0  0  0  0  0  0  0  0  0  0  0
   60.7709   31.8496   46.2724 H   0  0  0  0  0  0  0  0  0  0  0  0
   61.2991   33.4674   45.6450 H   0  0  0  0  0  0  0  0  0  0  0  0
   59.1439   33.3255   48.5924 H   0  0  0  0  0  0  0  0  0  0  0  0
   59.8769   33.9548   50.8878 H   0  0  0  0  0  0  0  0  0  0  0  0
   62.2941   34.3458   51.3672 H   0  0  0  0  0  0  0  0  0  0  0  0
   63.9822   34.1078   49.5489 H   0  0  0  0  0  0  0  0  0  0  0  0
  1  2  1  0
  2  3  2  0
  3  4  1  0
  4  5  2  0
  5  6  1  0
  6  7  1  0
  7  8  1  0
  7  9  1  0
  9 10  1  0
 10 11  2  0
 11 12  1  0
 12 13  2  0
 13 14  1  0
 14 15  2  0
 15 16  1  0
 16 17  2  0
 17 18  1  0
 18 19  2  0
 13 20  1  0
 20 21  2  0
  5 22  1  0
 22 23  1  0
 23 24  1  0
 24 25  2  0
 25 26  1  0
 26 27  2  0
 27 28  1  0
 28 29  2  0
 29 30  1  0
 22  2  1  0
 29 24  1  0
 21 10  1  0
 19 14  1  0
  1 31  1  0
  1 32  1  0
  1 33  1  0
  4 34  1  0
  6 35  1  0
  6 36  1  0
  8 37  1  0
  8 38  1  0
  8 39  1  0
  9 40  1  0
  9 41  1  0
 11 42  1  0
 15 43  1  0
 16 44  1  0
 17 45  1  0
 18 46  1  0
 19 47  1  0
 20 48  1  0
 21 49  1  0
 23 50  1  0
 23 51  1  0
 25 52  1  0
 26 53  1  0
 27 54  1  0
 28 55  1  0
M  CHG  1  20   1
M  END
>  <UniqueID>  (7) 
7

>  <SMILES>  (7) 
Cc1ncc(CN(C)Cc2cnc(-c3ccccc3)[nH+]c2)n1Cc1ccccc1Cl

>  <Energy>  (7) 
95.4290943008907

>  <Genealogy>  (7) 
Cc1ncc(CN(C)Cc2cnc(-c3ccccc3)[nH+]c2)n1Cc1ccccc1Cl (protonated)
Cc1ncc(CN(C)Cc2cnc(-c3ccccc3)[nH+]c2)n1Cc1ccccc1Cl (3D coordinates assigned)
Cc1ncc(CN(C)Cc2cnc(-c3ccccc3)[nH+]c2)n1Cc1ccccc1Cl (optimized conformer: 95.4290943008907 kcal/mol)

>  <smiles>  (7) 
Cc1ncc(CN(C)Cc2cnc(-c3ccccc3)nc2)n1Cc1ccccc1Cl

>  <score_type>  (7) 
oracle

>  <origin>  (7) 
adg

>  <m_score__min__energy>  (7) 
-7.4000000000000004

>  <m_primary>  (7) 
energy

$$$$
7:0
     RDKit          3D

 39 40  0  0  0  0  0  0  0  0999 V2000
   61.4600   31.2710   47.5200 C   0  0  0  0  0  0  0  0  0  0  0  0
   60.0130   31.4770   47.6510 N   0  0  0  0  0  0  0  0  0  0  0  0
   59.3440   31.0520   48.8870 C   0  0  0  0  0  0  0  0  0  0  0  0
   59.2540   32.0920   46.5760 C   0  0  0  0  0  0  0  0  0  0  0  0
   59.6550   33.3240   46.0210 C   0  0  0  0  0  0  0  0  0  0  0  0
   58.9300   33.9050   44.9780 C   0  0  0  0  0  0  0  0  0  0  0  0
   57.7910   33.2770   44.4780 C   0  0  0  0  0  0  0  0  0  0  0  0
   57.3540   32.0640   45.0320 C   0  0  0  0  0  0  0  0  0  0  0  0
   56.2000   31.3780   44.5260 N   0  0  0  0  0  0  0  0  0  0  0  0
   56.0850   29.9670   44.3020 C   0  0  0  0  0  0  0  0  0  0  0  0
   55.1570   29.3390   44.8760 O   0  0  0  0  0  0  0  0  0  0  0  0
   56.9490   29.2810   43.3170 C   0  0  0  0  0  0  0  0  0  0  0  0
   57.7740   28.2580   43.5920 C   0  0  0  0  0  0  0  0  0  0  0  0
   58.4340   28.0200   44.8930 C   0  0  0  0  0  0  0  0  0  0  0  0
   57.7300   27.4800   45.9820 C   0  0  0  0  0  0  0  0  0  0  0  0
   58.3620   27.3050   47.2160 C   0  0  0  0  0  0  0  0  0  0  0  0
   59.7040   27.6860   47.3910 C   0  0  0  0  0  0  0  0  0  0  0  0
   60.3520   27.5040   48.6630 N   0  0  0  0  0  0  0  0  0  0  0  0
   60.4120   26.3750   49.1920 O   0  0  0  0  0  0  0  0  0  0  0  0
   60.9160   28.5750   49.3200 O   0  0  0  0  0  0  0  0  0  0  0  0
   60.3960   28.2550   46.3060 C   0  0  0  0  0  0  0  0  0  0  0  0
   59.7620   28.4290   45.0730 C   0  0  0  0  0  0  0  0  0  0  0  0
   58.0990   31.4690   46.0580 C   0  0  0  0  0  0  0  0  0  0  0  0
   61.9132   31.2065   48.5202 H   0  0  0  0  0  0  0  0  0  0  0  0
   61.6491   30.3369   46.9708 H   0  0  0  0  0  0  0  0  0  0  0  0
   61.9023   32.1152   46.9708 H   0  0  0  0  0  0  0  0  0  0  0  0
   59.9138   31.4140   49.7555 H   0  0  0  0  0  0  0  0  0  0  0  0
   58.3269   31.4699   48.9158 H   0  0  0  0  0  0  0  0  0  0  0  0
   59.2901   29.9537   48.9158 H   0  0  0  0  0  0  0  0  0  0  0  0
   60.5478   33.8330   46.4132 H   0  0  0  0  0  0  0  0  0  0  0  0
   59.2598   34.8628   44.5493 H   0  0  0  0  0  0  0  0  0  0  0  0
   57.2330   33.7332   43.6470 H   0  0  0  0  0  0  0  0  0  0  0  0
   56.9129   29.6370   42.2768 H   0  0  0  0  0  0  0  0  0  0  0  0
   57.9749   27.5391   42.7840 H   0  0  0  0  0  0  0  0  0  0  0  0
   56.6748   27.1931   45.8627 H   0  0  0  0  0  0  0  0  0  0  0  0
   57.8053   26.8658   48.0569 H   0  0  0  0  0  0  0  0  0  0  0  0
   61.4441   28.5652   46.4294 H   0  0  0  0  0  0  0  0  0  0  0  0
   60.3093   28.8903   44.2378 H   0  0  0  0  0  0  0  0  0  0  0  0
   57.7781   30.4995   46.4668 H   0  0  0  0  0  0  0  0  0  0  0  0
  1  2  1  0
  2  3  1  0
  2  4  1  0
  4  5  2  0
  5  6  1  0
  6  7  2  0
  7  8  1  0
  8  9  1  0
  9 10  1  0
 10 11  2  0
 10 12  1  0
 12 13  2  3
 13 14  1  0
 14 15  2  0
 15 16  1  0
 16 17  2  0
 17 18  1  0
 18 19  2  0
 18 20  1  0
 17 21  1  0
 21 22  2  0
  8 23  2  0
 23  4  1  0
 22 14  1  0
  1 24  1  0
  1 25  1  0
  1 26  1  0
  3 27  1  0
  3 28  1  0
  3 29  1  0
  5 30  1  0
  6 31  1  0
  7 32  1  0
 12 33  1  0
 13 34  1  0
 15 35  1  0
 16 36  1  0
 21 37  1  0
 22 38  1  0
 23 39  1  0
M  CHG  3   9  -1  18   1  20  -1
M  END
>  <UniqueID>  (8) 
8

>  <SMILES>  (8) 
CN(C)c1cccc([N-]C(=O)C=Cc2ccc([N+](=O)[O-])cc2)c1

>  <Energy>  (8) 
53.67468278107184

>  <Genealogy>  (8) 
CN(C)c1cccc([N-]C(=O)C=Cc2ccc([N+](=O)[O-])cc2)c1 (protonated)
CN(C)c1cccc([N-]C(=O)C=Cc2ccc([N+](=O)[O-])cc2)c1 (3D coordinates assigned)
CN(C)c1cccc([N-]C(=O)C=Cc2ccc([N+](=O)[O-])cc2)c1 (optimized conformer: 53.67468278107184 kcal/mol)

>  <smiles>  (8) 
CN(C)c1cccc(NC(=O)C=Cc2ccc([N+](=O)[O-])cc2)c1

>  <score_type>  (8) 
oracle

>  <origin>  (8) 
adg

>  <m_score__min__energy>  (8) 
-9.5999999999999996

>  <m_primary>  (8) 
energy

$$$$
8:0
     RDKit          3D

 44 46  0  0  0  0  0  0  0  0999 V2000
   61.1640   28.8870   44.8800 C   0  0  0  0  0  0  0  0  0  0  0  0
   60.0300   28.1730   45.5640 C   0  0  0  0  0  0  0  0  0  0  0  0
   60.3310   27.0610   46.3700 C   0  0  0  0  0  0  0  0  0  0  0  0
   59.3250   26.4070   47.0840 C   0  0  0  0  0  0  0  0  0  0  0  0
   58.0080   26.8600   47.0090 C   0  0  0  0  0  0  0  0  0  0  0  0
   57.6900   27.9520   46.1990 C   0  0  0  0  0  0  0  0  0  0  0  0
   58.6810   28.5880   45.4380 C   0  0  0  0  0  0  0  0  0  0  0  0
   58.2810   29.6730   44.5860 N   0  0  0  0  0  0  0  0  0  0  0  0
   57.3530   30.7150   44.9190 C   0  0  0  0  0  0  0  0  0  0  0  0
   56.1210   30.4820   44.8010 O   0  0  0  0  0  0  0  0  0  0  0  0
   57.7910   32.0540   45.3820 C   0  0  0  0  0  0  0  0  0  0  0  0
   57.7870   33.1230   44.4680 C   0  0  0  0  0  0  0  0  0  0  0  0
   58.1820   34.3990   44.8680 C   0  0  0  0  0  0  0  0  0  0  0  0
   58.6010   34.6220   46.1780 C   0  0  0  0  0  0  0  0  0  0  0  0
   58.6400   33.5670   47.0900 C   0  0  0  0  0  0  0  0  0  0  0  0
   58.2530   32.2690   46.6990 C   0  0  0  0  0  0  0  0  0  0  0  0
   58.3380   31.1760   47.5780 O   0  0  0  0  0  0  0  0  0  0  0  0
   59.1720   31.0940   48.7330 C   0  0  0  0  0  0  0  0  0  0  0  0
   60.5600   30.6550   48.3570 C   0  0  0  0  0  0  0  0  0  0  0  0
   60.7980   29.4180   48.2910 O   0  0  0  0  0  0  0  0  0  0  0  0
   61.6450   31.6300   48.0650 C   0  0  0  0  0  0  0  0  0  0  0  0
   61.5370   32.5580   47.0080 C   0  0  0  0  0  0  0  0  0  0  0  0
   62.5650   33.4710   46.7580 C   0  0  0  0  0  0  0  0  0  0  0  0
   63.7130   33.4700   47.5500 C   0  0  0  0  0  0  0  0  0  0  0  0
   63.8380   32.5540   48.5950 C   0  0  0  0  0  0  0  0  0  0  0  0
   62.8140   31.6380   48.8520 C   0  0  0  0  0  0  0  0  0  0  0  0
   61.8394   29.3122   45.6370 H   0  0  0  0  0  0  0  0  0  0  0  0
   61.7194   28.1754   44.2514 H   0  0  0  0  0  0  0  0  0  0  0  0
   60.7623   29.6954   44.2514 H   0  0  0  0  0  0  0  0  0  0  0  0
   61.3688   26.7029   46.4387 H   0  0  0  0  0  0  0  0  0  0  0  0
   59.5713   25.5339   47.7061 H   0  0  0  0  0  0  0  0  0  0  0  0
   57.2196   26.3569   47.5881 H   0  0  0  0  0  0  0  0  0  0  0  0
   56.6530   28.3164   46.1576 H   0  0  0  0  0  0  0  0  0  0  0  0
   57.4696   32.9510   43.4289 H   0  0  0  0  0  0  0  0  0  0  0  0
   58.1628   35.2307   44.1484 H   0  0  0  0  0  0  0  0  0  0  0  0
   58.9016   35.6319   46.4937 H   0  0  0  0  0  0  0  0  0  0  0  0
   58.9752   33.7493   48.1217 H   0  0  0  0  0  0  0  0  0  0  0  0
   59.2235   32.0829   49.2120 H   0  0  0  0  0  0  0  0  0  0  0  0
   58.7435   30.3555   49.4265 H   0  0  0  0  0  0  0  0  0  0  0  0
   60.6368   32.5630   46.3758 H   0  0  0  0  0  0  0  0  0  0  0  0
   62.4684   34.1930   45.9337 H   0  0  0  0  0  0  0  0  0  0  0  0
   64.5195   34.1910   47.3509 H   0  0  0  0  0  0  0  0  0  0  0  0
   64.7445   32.5527   49.2181 H   0  0  0  0  0  0  0  0  0  0  0  0
   62.9215   30.9170   49.6758 H   0  0  0  0  0  0  0  0  0  0  0  0
  1  2  1  0
  2  3  2  0
  3  4  1  0
  4  5  2  0
  5  6  1  0
  6  7  2  0
  7  8  1  0
  8  9  1  0
  9 10  2  0
  9 11  1  0
 11 12  2  0
 12 13  1  0
 13 14  2  0
 14 15  1  0
 15 16  2  0
 16 17  1  0
 17 18  1  0
 18 19  1  0
 19 20  2  0
 19 21  1  0
 21 22  2  0
 22 23  1  0
 23 24  2  0
 24 25  1  0
 25 26  2  0
  7  2  1  0
 16 11  1  0
 26 21  1  0
  1 27  1  0
  1 28  1  0
  1 29  1  0
  3 30  1  0
  4 31  1  0
  5 32  1  0
  6 33  1  0
 12 34  1  0
 13 35  1  0
 14 36  1  0
 15 37  1  0
 18 38  1  0
 18 39  1  0
 22 40  1  0
 23 41  1  0
 24 42  1  0
 25 43  1  0
 26 44  1  0
M  CHG  1   8  -1
M  END
>  <UniqueID>  (9) 
9

>  <SMILES>  (9) 
Cc1ccccc1[N-]C(=O)c1ccccc1OCC(=O)c1ccccc1

>  <Energy>  (9) 
57.734095356134944

>  <Genealogy>  (9) 
Cc1ccccc1[N-]C(=O)c1ccccc1OCC(=O)c1ccccc1 (protonated)
Cc1ccccc1[N-]C(=O)c1ccccc1OCC(=O)c1ccccc1 (3D coordinates assigned)
Cc1ccccc1[N-]C(=O)c1ccccc1OCC(=O)c1ccccc1 (optimized conformer: 57.734095356134944 kcal/mol)

>  <smiles>  (9) 
Cc1ccccc1NC(=O)c1ccccc1OCC(=O)c1ccccc1

>  <score_type>  (9) 
oracle

>  <origin>  (9) 
adg

>  <m_score__min__energy>  (9) 
-10.279999999999999

>  <m_primary>  (9) 
energy

$$$$
9:0
     RDKit          3D

 65 68  0  0  0  0  0  0  0  0999 V2000
   59.4590   28.8690   48.4970 C   0  0  0  0  0  0  0  0  0  0  0  0
   59.8550   29.5310   49.6920 O   0  0  0  0  0  0  0  0  0  0  0  0
   59.0740   30.4760   50.3790 C   0  0  0  0  0  0  0  0  0  0  0  0
   57.8990   30.1090   51.0640 C   0  0  0  0  0  0  0  0  0  0  0  0
   57.1310   31.0740   51.7210 C   0  0  0  0  0  0  0  0  0  0  0  0
   55.5380   30.5630   52.6420 Br  0  0  0  0  0  0  0  0  0  0  0  0
   57.5280   32.4120   51.7060 C   0  0  0  0  0  0  0  0  0  0  0  0
   58.6930   32.7890   51.0370 C   0  0  0  0  0  0  0  0  0  0  0  0
   59.4710   31.8310   50.3640 C   0  0  0  0  0  0  0  0  0  0  0  0
   60.7070   32.2530   49.6690 C   0  0  0  0  0  0  0  0  0  0  0  0
   61.9850   32.1780   50.2010 C   0  0  0  0  0  0  0  0  0  0  0  0
   62.7950   32.7740   49.2510 C   0  0  0  0  0  0  0  0  0  0  0  0
   64.2610   32.9220   49.3040 C   0  0  0  0  0  0  0  0  0  0  0  0
   64.8890   33.1200   48.2300 O   0  0  0  0  0  0  0  0  0  0  0  0
   64.9830   32.8630   50.5500 N   0  0  0  0  0  0  0  0  0  0  0  0
   64.4670   33.5490   51.7440 C   0  0  0  0  0  0  0  0  0  0  0  0
   65.6230   34.0270   52.6350 C   0  0  0  0  0  0  0  0  0  0  0  0
   66.7360   34.5220   51.8140 N   0  0  0  0  0  0  0  0  0  0  0  0
   67.3420   33.4590   50.9850 C   0  0  0  0  0  0  0  0  0  0  0  0
   66.3530   32.3440   50.5860 C   0  0  0  0  0  0  0  0  0  0  0  0
   62.0370   33.1640   48.2080 N   0  0  0  0  0  0  0  0  0  0  0  0
   60.7740   32.8540   48.4570 N   0  0  0  0  0  0  0  0  0  0  0  0
   59.7030   33.0780   47.5230 C   0  0  0  0  0  0  0  0  0  0  0  0
   59.3180   34.3820   47.1730 C   0  0  0  0  0  0  0  0  0  0  0  0
   58.2750   34.5900   46.2690 C   0  0  0  0  0  0  0  0  0  0  0  0
   57.6000   33.5010   45.7140 C   0  0  0  0  0  0  0  0  0  0  0  0
   56.5880   33.7170   44.8360 F   0  0  0  0  0  0  0  0  0  0  0  0
   57.9590   32.1920   46.0610 C   0  0  0  0  0  0  0  0  0  0  0  0
   57.2510   31.1300   45.4800 O   0  0  0  0  0  0  0  0  0  0  0  0
   57.6700   29.7670   45.5090 C   0  0  0  0  0  0  0  0  0  0  0  0
   58.4380   29.4350   44.2290 C   0  0  0  0  0  0  0  0  0  0  0  0
   59.4590   28.3920   44.4750 N   0  0  0  0  0  0  0  0  0  0  0  0
   60.6440   28.9580   45.1430 C   0  0  0  0  0  0  0  0  0  0  0  0
   58.8950   27.3180   45.3090 C   0  0  0  0  0  0  0  0  0  0  0  0
   59.0120   31.9870   46.9740 C   0  0  0  0  0  0  0  0  0  0  0  0
   58.9096   27.9506   48.7514 H   0  0  0  0  0  0  0  0  0  0  0  0
   58.8098   29.5333   47.9077 H   0  0  0  0  0  0  0  0  0  0  0  0
   60.3513   28.6112   47.9077 H   0  0  0  0  0  0  0  0  0  0  0  0
   57.5838   29.0553   51.0818 H   0  0  0  0  0  0  0  0  0  0  0  0
   56.9215   33.1705   52.2224 H   0  0  0  0  0  0  0  0  0  0  0  0
   59.0050   33.8438   51.0362 H   0  0  0  0  0  0  0  0  0  0  0  0
   62.2877   31.7416   51.1643 H   0  0  0  0  0  0  0  0  0  0  0  0
   63.8685   34.4174   51.4316 H   0  0  0  0  0  0  0  0  0  0  0  0
   63.8457   32.8447   52.3168 H   0  0  0  0  0  0  0  0  0  0  0  0
   65.2659   34.8378   53.2870 H   0  0  0  0  0  0  0  0  0  0  0  0
   65.9778   33.1805   53.2413 H   0  0  0  0  0  0  0  0  0  0  0  0
   66.3730   35.2770   51.1840 H   0  0  0  0  0  0  0  0  0  0  0  0
   67.7372   33.9177   50.0666 H   0  0  0  0  0  0  0  0  0  0  0  0
   68.1297   32.9881   51.5915 H   0  0  0  0  0  0  0  0  0  0  0  0
   66.6215   31.9610   49.5904 H   0  0  0  0  0  0  0  0  0  0  0  0
   66.4082   31.5359   51.3302 H   0  0  0  0  0  0  0  0  0  0  0  0
   62.3800   33.6150   47.3300 H   0  0  0  0  0  0  0  0  0  0  0  0
   59.8408   35.2439   47.6133 H   0  0  0  0  0  0  0  0  0  0  0  0
   57.9841   35.6143   45.9932 H   0  0  0  0  0  0  0  0  0  0  0  0
   58.3225   29.6038   46.3794 H   0  0  0  0  0  0  0  0  0  0  0  0
   56.7861   29.1163   45.5819 H   0  0  0  0  0  0  0  0  0  0  0  0
   57.7300   29.0725   43.4692 H   0  0  0  0  0  0  0  0  0  0  0  0
   58.9465   30.3461   43.8806 H   0  0  0  0  0  0  0  0  0  0  0  0
   60.5146   28.8962   46.2336 H   0  0  0  0  0  0  0  0  0  0  0  0
   61.5381   28.3897   44.8471 H   0  0  0  0  0  0  0  0  0  0  0  0
   60.7640   30.0106   44.8471 H   0  0  0  0  0  0  0  0  0  0  0  0
   59.0277   27.5707   46.3713 H   0  0  0  0  0  0  0  0  0  0  0  0
   57.8228   27.2080   45.0894 H   0  0  0  0  0  0  0  0  0  0  0  0
   59.4131   26.3728   45.0894 H   0  0  0  0  0  0  0  0  0  0  0  0
   59.2950   30.9630   47.2590 H   0  0  0  0  0  0  0  0  0  0  0  0
  1  2  1  0
  2  3  1  0
  3  4  2  0
  4  5  1  0
  5  6  1  0
  5  7  2  0
  7  8  1  0
  8  9  2  0
  9 10  1  0
 10 11  2  0
 11 12  1  0
 12 13  1  0
 13 14  2  0
 13 15  1  0
 15 16  1  0
 16 17  1  0
 17 18  1  0
 18 19  1  0
 19 20  1  0
 12 21  2  0
 21 22  1  0
 22 23  1  0
 23 24  2  0
 24 25  1  0
 25 26  2  0
 26 27  1  0
 26 28  1  0
 28 29  1  0
 29 30  1  0
 30 31  1  0
 31 32  1  0
 32 33  1  0
 32 34  1  0
 28 35  2  0
  9  3  1  0
 22 10  1  0
 35 23  1  0
 20 15  1  0
  1 36  1  0
  1 37  1  0
  1 38  1  0
  4 39  1  0
  7 40  1  0
  8 41  1  0
 11 42  1  0
 16 43  1  0
 16 44  1  0
 17 45  1  0
 17 46  1  0
 18 47  1  0
 19 48  1  0
 19 49  1  0
 20 50  1  0
 20 51  1  0
 21 52  1  0
 24 53  1  0
 25 54  1  0
 30 55  1  0
 30 56  1  0
 31 57  1  0
 31 58  1  0
 33 59  1  0
 33 60  1  0
 33 61  1  0
 34 62  1  0
 34 63  1  0
 34 64  1  0
 35 65  1  0
M  CHG  1  21   1
M  END
>  <UniqueID>  (10) 
10

>  <SMILES>  (10) 
COc1cc(Br)ccc1-c1cc(C(=O)N2CCNCC2)[nH+]n1-c1ccc(F)c(OCCN(C)C)c1

>  <Energy>  (10) 
113.38801988593653

>  <Genealogy>  (10) 
COc1cc(Br)ccc1-c1cc(C(=O)N2CCNCC2)[nH+]n1-c1ccc(F)c(OCCN(C)C)c1 (protonated)
COc1cc(Br)ccc1-c1cc(C(=O)N2CCNCC2)[nH+]n1-c1ccc(F)c(OCCN(C)C)c1 (3D coordinates assigned)
COc1cc(Br)ccc1-c1cc(C(=O)N2CCNCC2)[nH+]n1-c1ccc(F)c(OCCN(C)C)c1 (nonaromatic ring conformer: 113.38801988593653 kcal/mol)

>  <smiles>  (10) 
COc1cc(Br)ccc1-c1cc(C(=O)N2CCNCC2)nn1-c1ccc(F)c(OCCN(C)C)c1

>  <score_type>  (10) 
oracle

>  <origin>  (10) 
adg

>  <m_score__min__energy>  (10) 
-7.1399999999999997

>  <m_primary>  (10) 
energy

$$$$
10:0
     RDKit          3D

 37 39  0  0  0  0  0  0  0  0999 V2000
   56.2930   30.8400   52.2880 C   0  0  0  0  0  0  0  0  0  0  0  0
   57.2880   30.0880   51.6030 O   0  0  0  0  0  0  0  0  0  0  0  0
   58.3060   30.6490   50.8200 C   0  0  0  0  0  0  0  0  0  0  0  0
   58.4440   32.0390   50.6440 C   0  0  0  0  0  0  0  0  0  0  0  0
   59.4780   32.5510   49.8540 C   0  0  0  0  0  0  0  0  0  0  0  0
   60.3980   31.6860   49.2400 C   0  0  0  0  0  0  0  0  0  0  0  0
   61.4900   32.2180   48.3940 C   0  0  0  0  0  0  0  0  0  0  0  0
   62.8390   32.1430   48.6760 C   0  0  0  0  0  0  0  0  0  0  0  0
   63.4900   32.6350   47.6060 N   0  0  0  0  0  0  0  0  0  0  0  0
   62.5940   33.0080   46.7070 N   0  0  0  0  0  0  0  0  0  0  0  0
   61.3730   32.7690   47.1620 N   0  0  0  0  0  0  0  0  0  0  0  0
   60.1830   33.1410   46.4480 C   0  0  0  0  0  0  0  0  0  0  0  0
   60.0030   34.4560   45.9860 C   0  0  0  0  0  0  0  0  0  0  0  0
   58.8480   34.8020   45.2810 C   0  0  0  0  0  0  0  0  0  0  0  0
   57.8720   33.8380   45.0160 C   0  0  0  0  0  0  0  0  0  0  0  0
   58.0430   32.5180   45.4480 C   0  0  0  0  0  0  0  0  0  0  0  0
   57.0380   31.5850   45.1500 O   0  0  0  0  0  0  0  0  0  0  0  0
   57.0120   30.7760   43.9800 C   0  0  0  0  0  0  0  0  0  0  0  0
   59.2080   32.1720   46.1590 C   0  0  0  0  0  0  0  0  0  0  0  0
   60.2480   30.3000   49.4000 C   0  0  0  0  0  0  0  0  0  0  0  0
   59.2130   29.7890   50.1900 C   0  0  0  0  0  0  0  0  0  0  0  0
   56.4349   30.7328   53.3735 H   0  0  0  0  0  0  0  0  0  0  0  0
   56.3790   31.9008   52.0100 H   0  0  0  0  0  0  0  0  0  0  0  0
   55.2959   30.4678   52.0100 H   0  0  0  0  0  0  0  0  0  0  0  0
   57.7352   32.7254   51.1302 H   0  0  0  0  0  0  0  0  0  0  0  0
   59.5712   33.6379   49.7127 H   0  0  0  0  0  0  0  0  0  0  0  0
   63.2948   31.7552   49.5989 H   0  0  0  0  0  0  0  0  0  0  0  0
   64.5240   32.7130   47.4860 H   0  0  0  0  0  0  0  0  0  0  0  0
   60.7746   35.2155   46.1803 H   0  0  0  0  0  0  0  0  0  0  0  0
   58.7064   35.8360   44.9335 H   0  0  0  0  0  0  0  0  0  0  0  0
   56.9629   34.1186   44.4640 H   0  0  0  0  0  0  0  0  0  0  0  0
   56.9779   29.7151   44.2685 H   0  0  0  0  0  0  0  0  0  0  0  0
   56.1213   31.0226   43.3834 H   0  0  0  0  0  0  0  0  0  0  0  0
   57.9167   30.9649   43.3834 H   0  0  0  0  0  0  0  0  0  0  0  0
   59.3559   31.1338   46.4910 H   0  0  0  0  0  0  0  0  0  0  0  0
   60.9474   29.6124   48.9020 H   0  0  0  0  0  0  0  0  0  0  0  0
   59.1109   28.7012   50.3173 H   0  0  0  0  0  0  0  0  0  0  0  0
  1  2  1  0
  2  3  1  0
  3  4  2  0
  4  5  1  0
  5  6  2  0
  6  7  1  0
  7  8  2  0
  8  9  1  0
  9 10  2  0
 10 11  1  0
 11 12  1  0
 12 13  2  0
 13 14  1  0
 14 15  2  0
 15 16  1  0
 16 17  1  0
 17 18  1  0
 16 19  2  0
  6 20  1  0
 20 21  2  0
 21  3  1  0
 11  7  1  0
 19 12  1  0
  1 22  1  0
  1 23  1  0
  1 24  1  0
  4 25  1  0
  5 26  1  0
  8 27  1  0
  9 28  1  0
 13 29  1  0
 14 30  1  0
 15 31  1  0
 18 32  1  0
 18 33  1  0
 18 34  1  0
 19 35  1  0
 20 36  1  0
 21 37  1  0
M  CHG  1   9   1
M  END
>  <UniqueID>  (11) 
11

>  <SMILES>  (11) 
COc1ccc(-c2c[nH+]nn2-c2cccc(OC)c2)cc1

>  <Energy>  (11) 
82.48477243682763

>  <Genealogy>  (11) 
COc1ccc(-c2c[nH+]nn2-c2cccc(OC)c2)cc1 (protonated)
COc1ccc(-c2c[nH+]nn2-c2cccc(OC)c2)cc1 (3D coordinates assigned)
COc1ccc(-c2c[nH+]nn2-c2cccc(OC)c2)cc1 (optimized conformer: 82.48477243682763 kcal/mol)

>  <smiles>  (11) 
COc1ccc(-c2cnnn2-c2cccc(OC)c2)cc1

>  <score_type>  (11) 
oracle

>  <origin>  (11) 
adg

>  <m_score__min__energy>  (11) 
-6.04

>  <m_primary>  (11) 
energy

$$$$
11:0
     RDKit          3D

 62 65  0  0  0  0  0  0  0  0999 V2000
   56.2570   19.9730   43.7180 C   0  0  0  0  0  0  0  0  0  0  0  0
   56.0380   21.3290   43.3410 O   0  0  0  0  0  0  0  0  0  0  0  0
   56.6730   22.4290   43.9380 C   0  0  0  0  0  0  0  0  0  0  0  0
   57.2570   22.2550   45.1960 C   0  0  0  0  0  0  0  0  0  0  0  0
   57.8950   23.3190   45.8370 C   0  0  0  0  0  0  0  0  0  0  0  0
   57.9530   24.5800   45.2340 C   0  0  0  0  0  0  0  0  0  0  0  0
   58.5850   25.6250   45.9260 O   0  0  0  0  0  0  0  0  0  0  0  0
   58.4780   26.9690   45.5630 C   0  0  0  0  0  0  0  0  0  0  0  0
   59.6270   27.7020   45.2570 C   0  0  0  0  0  0  0  0  0  0  0  0
   59.5290   29.0490   44.9000 C   0  0  0  0  0  0  0  0  0  0  0  0
   58.2720   29.6770   44.8460 C   0  0  0  0  0  0  0  0  0  0  0  0
   58.1730   31.1070   44.4900 C   0  0  0  0  0  0  0  0  0  0  0  0
   58.5720   32.1090   45.3010 N   0  0  0  0  0  0  0  0  0  0  0  0
   58.3030   33.2150   44.5810 C   0  0  0  0  0  0  0  0  0  0  0  0
   58.7170   34.6010   44.9850 C   0  0  0  0  0  0  0  0  0  0  0  0
   59.6620   34.5880   46.1210 N   0  0  0  0  0  0  0  0  0  0  0  0
   59.0020   34.9050   47.4070 C   0  0  0  0  0  0  0  0  0  0  0  0
   59.6490   34.1590   48.5890 C   0  0  0  0  0  0  0  0  0  0  0  0
   60.9410   33.5410   48.2040 N   0  0  0  0  0  0  0  0  0  0  0  0
   60.8170   32.0770   48.1160 C   0  0  0  0  0  0  0  0  0  0  0  0
   62.0820   31.4790   47.4780 C   0  0  0  0  0  0  0  0  0  0  0  0
   63.3260   32.2000   47.8390 N   0  0  0  0  0  0  0  0  0  0  0  0
   63.8120   33.0640   46.7500 C   0  0  0  0  0  0  0  0  0  0  0  0
   63.2170   32.9320   49.1150 C   0  0  0  0  0  0  0  0  0  0  0  0
   62.0270   33.9190   49.1410 C   0  0  0  0  0  0  0  0  0  0  0  0
   57.7820   32.8510   43.3610 C   0  0  0  0  0  0  0  0  0  0  0  0
   57.7070   31.5440   43.3400 O   0  0  0  0  0  0  0  0  0  0  0  0
   57.1180   28.9320   45.1460 C   0  0  0  0  0  0  0  0  0  0  0  0
   57.2220   27.5830   45.5000 C   0  0  0  0  0  0  0  0  0  0  0  0
   57.3730   24.7600   43.9650 C   0  0  0  0  0  0  0  0  0  0  0  0
   56.7400   23.6910   43.3210 C   0  0  0  0  0  0  0  0  0  0  0  0
   56.2696   19.8949   44.8152 H   0  0  0  0  0  0  0  0  0  0  0  0
   55.4486   19.3452   43.3150 H   0  0  0  0  0  0  0  0  0  0  0  0
   57.2219   19.6316   43.3150 H   0  0  0  0  0  0  0  0  0  0  0  0
   57.2136   21.2709   45.6855 H   0  0  0  0  0  0  0  0  0  0  0  0
   58.3556   23.1644   46.8239 H   0  0  0  0  0  0  0  0  0  0  0  0
   60.6132   27.2165   45.2973 H   0  0  0  0  0  0  0  0  0  0  0  0
   60.4380   29.6202   44.6604 H   0  0  0  0  0  0  0  0  0  0  0  0
   59.1999   35.0916   44.1270 H   0  0  0  0  0  0  0  0  0  0  0  0
   57.8152   35.1466   45.2998 H   0  0  0  0  0  0  0  0  0  0  0  0
   60.4650   35.2400   45.9650 H   0  0  0  0  0  0  0  0  0  0  0  0
   60.0740   33.6290   46.1860 H   0  0  0  0  0  0  0  0  0  0  0  0
   59.0770   35.9876   47.5869 H   0  0  0  0  0  0  0  0  0  0  0  0
   57.9522   34.5840   47.3374 H   0  0  0  0  0  0  0  0  0  0  0  0
   59.8245   34.8721   49.4080 H   0  0  0  0  0  0  0  0  0  0  0  0
   58.9653   33.3575   48.9053 H   0  0  0  0  0  0  0  0  0  0  0  0
   60.6871   31.6611   49.1260 H   0  0  0  0  0  0  0  0  0  0  0  0
   59.9455   31.8254   47.4938 H   0  0  0  0  0  0  0  0  0  0  0  0
   62.1773   30.4340   47.8081 H   0  0  0  0  0  0  0  0  0  0  0  0
   61.9646   31.5640   46.3876 H   0  0  0  0  0  0  0  0  0  0  0  0
   64.3090   33.9476   47.1770 H   0  0  0  0  0  0  0  0  0  0  0  0
   64.5278   32.5046   46.1298 H   0  0  0  0  0  0  0  0  0  0  0  0
   62.9622   33.3852   46.1298 H   0  0  0  0  0  0  0  0  0  0  0  0
   63.0864   32.2029   49.9282 H   0  0  0  0  0  0  0  0  0  0  0  0
   64.1379   33.5209   49.2382 H   0  0  0  0  0  0  0  0  0  0  0  0
   61.6163   33.9464   50.1611 H   0  0  0  0  0  0  0  0  0  0  0  0
   62.4072   34.9018   48.8254 H   0  0  0  0  0  0  0  0  0  0  0  0
   57.4831   33.5331   42.5514 H   0  0  0  0  0  0  0  0  0  0  0  0
   56.1293   29.4121   45.1021 H   0  0  0  0  0  0  0  0  0  0  0  0
   56.3154   27.0038   45.7292 H   0  0  0  0  0  0  0  0  0  0  0  0
   57.4173   25.7449   43.4771 H   0  0  0  0  0  0  0  0  0  0  0  0
   56.2925   23.8385   42.3270 H   0  0  0  0  0  0  0  0  0  0  0  0
  1  2  1  0
  2  3  1  0
  3  4  2  0
  4  5  1  0
  5  6  2  0
  6  7  1  0
  7  8  1  0
  8  9  2  0
  9 10  1  0
 10 11  2  0
 11 12  1  0
 12 13  2  0
 13 14  1  0
 14 15  1  0
 15 16  1  0
 16 17  1  0
 17 18  1  0
 18 19  1  0
 19 20  1  0
 20 21  1  0
 21 22  1  0
 22 23  1  0
 22 24  1  0
 24 25  1  0
 14 26  2  0
 26 27  1  0
 11 28  1  0
 28 29  2  0
  6 30  1  0
 30 31  2  0
 31  3  1  0
 29  8  1  0
 27 12  1  0
 25 19  1  0
  1 32  1  0
  1 33  1  0
  1 34  1  0
  4 35  1  0
  5 36  1  0
  9 37  1  0
 10 38  1  0
 15 39  1  0
 15 40  1  0
 16 41  1  0
 16 42  1  0
 17 43  1  0
 17 44  1  0
 18 45  1  0
 18 46  1  0
 20 47  1  0
 20 48  1  0
 21 49  1  0
 21 50  1  0
 23 51  1  0
 23 52  1  0
 23 53  1  0
 24 54  1  0
 24 55  1  0
 25 56  1  0
 25 57  1  0
 26 58  1  0
 28 59  1  0
 29 60  1  0
 30 61  1  0
 31 62  1  0
M  CHG  1  16   1
M  END
>  <UniqueID>  (12) 
12

>  <SMILES>  (12) 
COc1ccc(Oc2ccc(-c3nc(C[NH2+]CCN4CCN(C)CC4)co3)cc2)cc1

>  <Energy>  (12) 
114.4379584335902

>  <Genealogy>  (12) 
COc1ccc(Oc2ccc(-c3nc(C[NH2+]CCN4CCN(C)CC4)co3)cc2)cc1 (protonated)
COc1ccc(Oc2ccc(-c3nc(C[NH2+]CCN4CCN(C)CC4)co3)cc2)cc1 (3D coordinates assigned)
COc1ccc(Oc2ccc(-c3nc(C[NH2+]CCN4CCN(C)CC4)co3)cc2)cc1 (nonaromatic ring conformer: 114.4379584335902 kcal/mol)

>  <smiles>  (12) 
COc1ccc(Oc2ccc(-c3nc(CNCCN4CCN(C)CC4)co3)cc2)cc1

>  <score_type>  (12) 
oracle

>  <origin>  (12) 
adg

>  <m_score__min__energy>  (12) 
-6.4000000000000004

>  <m_primary>  (12) 
energy

$$$$
12:0
     RDKit          3D

 44 46  0  0  0  0  0  0  0  0999 V2000
   60.3020   28.6250   44.7090 C   0  0  0  0  0  0  0  0  0  0  0  0
   59.1320   28.5340   45.6840 C   0  0  0  0  0  0  0  0  0  0  0  0
   57.8830   28.2440   44.9690 N   0  0  0  0  0  0  0  0  0  0  0  0
   57.4280   26.8890   44.8010 C   0  0  0  0  0  0  0  0  0  0  0  0
   57.7760   26.1630   43.6520 C   0  0  0  0  0  0  0  0  0  0  0  0
   57.3280   24.8510   43.4800 C   0  0  0  0  0  0  0  0  0  0  0  0
   56.5240   24.2420   44.4490 C   0  0  0  0  0  0  0  0  0  0  0  0
   56.0990   22.9230   44.2310 O   0  0  0  0  0  0  0  0  0  0  0  0
   56.7630   21.9960   43.3790 C   0  0  0  0  0  0  0  0  0  0  0  0
   56.1710   24.9680   45.6030 C   0  0  0  0  0  0  0  0  0  0  0  0
   56.6190   26.2820   45.7730 C   0  0  0  0  0  0  0  0  0  0  0  0
   56.9260   29.5630   44.3570 S   0  0  0  0  0  0  0  0  0  0  0  0
   55.5220   29.4530   44.8850 O   0  0  0  0  0  0  0  0  0  0  0  0
   56.8630   29.4950   42.8570 O   0  0  0  0  0  0  0  0  0  0  0  0
   57.6400   31.0940   44.8510 C   0  0  0  0  0  0  0  0  0  0  0  0
   57.9140   32.1010   43.8940 C   0  0  0  0  0  0  0  0  0  0  0  0
   58.4660   33.3340   44.2890 C   0  0  0  0  0  0  0  0  0  0  0  0
   58.7280   33.5270   45.6460 C   0  0  0  0  0  0  0  0  0  0  0  0
   58.4640   32.5520   46.5730 C   0  0  0  0  0  0  0  0  0  0  0  0
   58.8250   33.0440   47.8090 C   0  0  0  0  0  0  0  0  0  0  0  0
   59.3060   34.3270   47.5700 C   0  0  0  0  0  0  0  0  0  0  0  0
   59.2460   34.6150   46.2470 N   0  0  0  0  0  0  0  0  0  0  0  0
   59.6520   35.8650   45.6130 C   0  0  0  0  0  0  0  0  0  0  0  0
   57.9200   31.3220   46.2140 C   0  0  0  0  0  0  0  0  0  0  0  0
   61.2439   28.6983   45.2724 H   0  0  0  0  0  0  0  0  0  0  0  0
   60.3224   27.7257   44.0758 H   0  0  0  0  0  0  0  0  0  0  0  0
   60.1832   29.5166   44.0758 H   0  0  0  0  0  0  0  0  0  0  0  0
   59.3279   27.7306   46.4094 H   0  0  0  0  0  0  0  0  0  0  0  0
   59.0274   29.4985   46.2024 H   0  0  0  0  0  0  0  0  0  0  0  0
   58.4062   26.6303   42.8809 H   0  0  0  0  0  0  0  0  0  0  0  0
   57.6098   24.2924   42.5752 H   0  0  0  0  0  0  0  0  0  0  0  0
   57.2955   21.2526   43.9903 H   0  0  0  0  0  0  0  0  0  0  0  0
   56.0231   21.4865   42.7441 H   0  0  0  0  0  0  0  0  0  0  0  0
   57.4835   22.5325   42.7441 H   0  0  0  0  0  0  0  0  0  0  0  0
   55.5407   24.4999   46.3734 H   0  0  0  0  0  0  0  0  0  0  0  0
   56.3349   26.8434   46.6753 H   0  0  0  0  0  0  0  0  0  0  0  0
   57.6934   31.9180   42.8320 H   0  0  0  0  0  0  0  0  0  0  0  0
   58.6840   34.1205   43.5515 H   0  0  0  0  0  0  0  0  0  0  0  0
   58.7488   32.5307   48.7789 H   0  0  0  0  0  0  0  0  0  0  0  0
   59.6819   35.0111   48.3451 H   0  0  0  0  0  0  0  0  0  0  0  0
   59.8932   36.6077   46.3878 H   0  0  0  0  0  0  0  0  0  0  0  0
   60.5386   35.6874   44.9866 H   0  0  0  0  0  0  0  0  0  0  0  0
   58.8302   36.2423   44.9866 H   0  0  0  0  0  0  0  0  0  0  0  0
   57.7147   30.5509   46.9711 H   0  0  0  0  0  0  0  0  0  0  0  0
  1  2  1  0
  2  3  1  0
  3  4  1  0
  4  5  2  0
  5  6  1  0
  6  7  2  0
  7  8  1  0
  8  9  1  0
  7 10  1  0
 10 11  2  0
  3 12  1  0
 12 13  2  0
 12 14  2  0
 12 15  1  0
 15 16  2  0
 16 17  1  0
 17 18  2  0
 18 19  1  0
 19 20  1  0
 20 21  2  0
 21 22  1  0
 22 23  1  0
 19 24  2  0
 11  4  1  0
 24 15  1  0
 22 18  1  0
  1 25  1  0
  1 26  1  0
  1 27  1  0
  2 28  1  0
  2 29  1  0
  5 30  1  0
  6 31  1  0
  9 32  1  0
  9 33  1  0
  9 34  1  0
 10 35  1  0
 11 36  1  0
 16 37  1  0
 17 38  1  0
 20 39  1  0
 21 40  1  0
 23 41  1  0
 23 42  1  0
 23 43  1  0
 24 44  1  0
M  END
>  <UniqueID>  (13) 
13

>  <SMILES>  (13) 
CCN(c1ccc(OC)cc1)S(=O)(=O)c1ccc2c(ccn2C)c1

>  <Energy>  (13) 
79.17747578745407

>  <Genealogy>  (13) 
CCN(c1ccc(OC)cc1)S(=O)(=O)c1ccc2c(ccn2C)c1 (3D coordinates assigned)
CCN(c1ccc(OC)cc1)S(=O)(=O)c1ccc2c(ccn2C)c1 (optimized conformer: 79.17747578745407 kcal/mol)

>  <smiles>  (13) 
CCN(c1ccc(OC)cc1)S(=O)(=O)c1ccc2c(ccn2C)c1

>  <score_type>  (13) 
oracle

>  <origin>  (13) 
adg

>  <m_score__min__energy>  (13) 
-8.1999999999999993

>  <m_primary>  (13) 
energy

$$$$
13:0
     RDKit          3D

 54 56  0  0  0  0  0  0  0  0999 V2000
   62.9340   33.4430   46.7470 C   0  0  0  0  0  0  0  0  0  0  0  0
   62.3440   32.4840   47.7780 C   0  0  0  0  0  0  0  0  0  0  0  0
   61.5490   31.3520   47.1150 C   0  0  0  0  0  0  0  0  0  0  0  0
   60.1420   31.5810   47.2080 O   0  0  0  0  0  0  0  0  0  0  0  0
   59.3690   32.3620   46.3300 C   0  0  0  0  0  0  0  0  0  0  0  0
   59.4550   33.7700   46.3290 C   0  0  0  0  0  0  0  0  0  0  0  0
   58.7100   34.5270   45.4240 C   0  0  0  0  0  0  0  0  0  0  0  0
   57.8740   33.8950   44.5070 C   0  0  0  0  0  0  0  0  0  0  0  0
   57.7730   32.5040   44.4960 C   0  0  0  0  0  0  0  0  0  0  0  0
   58.5060   31.7200   45.4070 C   0  0  0  0  0  0  0  0  0  0  0  0
   58.3440   30.2440   45.3640 C   0  0  0  0  0  0  0  0  0  0  0  0
   58.3810   29.5320   44.2120 N   0  0  0  0  0  0  0  0  0  0  0  0
   58.1650   28.2020   44.4060 C   0  0  0  0  0  0  0  0  0  0  0  0
   58.1360   27.2490   43.2530 C   0  0  0  0  0  0  0  0  0  0  0  0
   57.9600   27.8410   45.7390 C   0  0  0  0  0  0  0  0  0  0  0  0
   57.7070   26.5190   46.2480 N   0  0  0  0  0  0  0  0  0  0  0  0
   58.4920   26.0330   47.3880 C   0  0  0  0  0  0  0  0  0  0  0  0
   59.8300   26.7740   47.4680 C   0  0  0  0  0  0  0  0  0  0  0  0
   60.7760   26.3290   46.3580 C   0  0  0  0  0  0  0  0  0  0  0  0
   56.6050   25.7310   45.7520 C   0  0  0  0  0  0  0  0  0  0  0  0
   55.4240   26.0930   46.0030 O   0  0  0  0  0  0  0  0  0  0  0  0
   56.8310   24.4960   44.9620 C   0  0  0  0  0  0  0  0  0  0  0  0
   55.8930   24.0980   43.9930 C   0  0  0  0  0  0  0  0  0  0  0  0
   56.1010   22.9370   43.2410 C   0  0  0  0  0  0  0  0  0  0  0  0
   57.2400   22.1570   43.4570 C   0  0  0  0  0  0  0  0  0  0  0  0
   57.4400   21.0320   42.7270 F   0  0  0  0  0  0  0  0  0  0  0  0
   58.1700   22.5340   44.4280 C   0  0  0  0  0  0  0  0  0  0  0  0
   57.9660   23.6940   45.1820 C   0  0  0  0  0  0  0  0  0  0  0  0
   58.0160   29.2340   46.6780 S   0  0  0  0  0  0  0  0  0  0  0  0
   63.4427   34.2698   47.2643 H   0  0  0  0  0  0  0  0  0  0  0  0
   63.6572   32.9044   46.1169 H   0  0  0  0  0  0  0  0  0  0  0  0
   62.1272   33.8457   46.1169 H   0  0  0  0  0  0  0  0  0  0  0  0
   63.1636   32.0460   48.3665 H   0  0  0  0  0  0  0  0  0  0  0  0
   61.6562   33.0538   48.4201 H   0  0  0  0  0  0  0  0  0  0  0  0
   61.8323   31.2892   46.0540 H   0  0  0  0  0  0  0  0  0  0  0  0
   61.7826   30.4123   47.6370 H   0  0  0  0  0  0  0  0  0  0  0  0
   60.1156   34.2760   47.0484 H   0  0  0  0  0  0  0  0  0  0  0  0
   58.7832   35.6245   45.4349 H   0  0  0  0  0  0  0  0  0  0  0  0
   57.2925   34.4936   43.7904 H   0  0  0  0  0  0  0  0  0  0  0  0
   57.1122   32.0133   43.7662 H   0  0  0  0  0  0  0  0  0  0  0  0
   58.1046   26.2166   43.6313 H   0  0  0  0  0  0  0  0  0  0  0  0
   57.2433   27.4422   42.6400 H   0  0  0  0  0  0  0  0  0  0  0  0
   59.0388   27.3876   42.6400 H   0  0  0  0  0  0  0  0  0  0  0  0
   57.9270   26.2033   48.3163 H   0  0  0  0  0  0  0  0  0  0  0  0
   58.6860   24.9583   47.2561 H   0  0  0  0  0  0  0  0  0  0  0  0
   59.6477   27.8545   47.3719 H   0  0  0  0  0  0  0  0  0  0  0  0
   60.2977   26.5433   48.4365 H   0  0  0  0  0  0  0  0  0  0  0  0
   61.6866   25.9006   46.8021 H   0  0  0  0  0  0  0  0  0  0  0  0
   60.2796   25.5700   45.7356 H   0  0  0  0  0  0  0  0  0  0  0  0
   61.0442   27.1954   45.7356 H   0  0  0  0  0  0  0  0  0  0  0  0
   54.9900   24.7034   43.8253 H   0  0  0  0  0  0  0  0  0  0  0  0
   55.3668   22.6376   42.4785 H   0  0  0  0  0  0  0  0  0  0  0  0
   59.0646   21.9175   44.6001 H   0  0  0  0  0  0  0  0  0  0  0  0
   58.6974   23.9812   45.9518 H   0  0  0  0  0  0  0  0  0  0  0  0
  1  2  1  0
  2  3  1  0
  3  4  1  0
  4  5  1  0
  5  6  2  0
  6  7  1  0
  7  8  2  0
  8  9  1  0
  9 10  2  0
 10 11  1  0
 11 12  2  0
 12 13  1  0
 13 14  1  0
 13 15  2  0
 15 16  1  0
 16 17  1  0
 17 18  1  0
 18 19  1  0
 16 20  1  0
 20 21  2  0
 20 22  1  0
 22 23  2  0
 23 24  1  0
 24 25  2  0
 25 26  1  0
 25 27  1  0
 27 28  2  0
 15 29  1  0
 10  5  1  0
 29 11  1  0
 28 22  1  0
  1 30  1  0
  1 31  1  0
  1 32  1  0
  2 33  1  0
  2 34  1  0
  3 35  1  0
  3 36  1  0
  6 37  1  0
  7 38  1  0
  8 39  1  0
  9 40  1  0
 14 41  1  0
 14 42  1  0
 14 43  1  0
 17 44  1  0
 17 45  1  0
 18 46  1  0
 18 47  1  0
 19 48  1  0
 19 49  1  0
 19 50  1  0
 23 51  1  0
 24 52  1  0
 27 53  1  0
 28 54  1  0
M  END
>  <UniqueID>  (14) 
14

>  <SMILES>  (14) 
CCCOc1ccccc1-c1nc(C)c(N(CCC)C(=O)c2ccc(F)cc2)s1

>  <Energy>  (14) 
86.22368158058084

>  <Genealogy>  (14) 
CCCOc1ccccc1-c1nc(C)c(N(CCC)C(=O)c2ccc(F)cc2)s1 (3D coordinates assigned)
CCCOc1ccccc1-c1nc(C)c(N(CCC)C(=O)c2ccc(F)cc2)s1 (optimized conformer: 86.22368158058084 kcal/mol)

>  <smiles>  (14) 
CCCOc1ccccc1-c1nc(C)c(N(CCC)C(=O)c2ccc(F)cc2)s1

>  <score_type>  (14) 
oracle

>  <origin>  (14) 
adg

>  <m_score__min__energy>  (14) 
-8.1799999999999997

>  <m_primary>  (14) 
energy

$$$$
14:0
     RDKit          3D

 54 56  0  0  0  0  0  0  0  0999 V2000
   57.7020   28.1080   43.9010 C   0  0  0  0  0  0  0  0  0  0  0  0
   56.8090   28.5410   45.0660 C   0  0  0  0  0  0  0  0  0  0  0  0
   56.2620   29.8940   44.8840 N   0  0  0  0  0  0  0  0  0  0  0  0
   56.6010   30.4680   43.5720 C   0  0  0  0  0  0  0  0  0  0  0  0
   57.5980   31.6370   43.7340 C   0  0  0  0  0  0  0  0  0  0  0  0
   57.7770   32.1150   45.1250 N   0  0  0  0  0  0  0  0  0  0  0  0
   57.0530   33.3510   45.4480 C   0  0  0  0  0  0  0  0  0  0  0  0
   59.1440   32.0330   45.7000 C   0  0  0  0  0  0  0  0  0  0  0  0
   59.2240   31.3230   47.0510 C   0  0  0  0  0  0  0  0  0  0  0  0
   58.9490   32.0730   48.2260 C   0  0  0  0  0  0  0  0  0  0  0  0
   58.5240   33.4110   48.1030 O   0  0  0  0  0  0  0  0  0  0  0  0
   59.3460   34.5420   47.7920 C   0  0  0  0  0  0  0  0  0  0  0  0
   60.8060   34.1820   47.8890 C   0  0  0  0  0  0  0  0  0  0  0  0
   61.4520   34.1020   49.1350 C   0  0  0  0  0  0  0  0  0  0  0  0
   62.7940   33.7140   49.2110 C   0  0  0  0  0  0  0  0  0  0  0  0
   63.5010   33.4090   48.0460 C   0  0  0  0  0  0  0  0  0  0  0  0
   62.8730   33.5010   46.8020 C   0  0  0  0  0  0  0  0  0  0  0  0
   61.5330   33.8910   46.7220 C   0  0  0  0  0  0  0  0  0  0  0  0
   59.0790   31.4640   49.4850 C   0  0  0  0  0  0  0  0  0  0  0  0
   59.4800   30.1420   49.6030 C   0  0  0  0  0  0  0  0  0  0  0  0
   59.7250   29.3710   48.4660 C   0  0  0  0  0  0  0  0  0  0  0  0
   60.1040   28.0270   48.6160 C   0  0  0  0  0  0  0  0  0  0  0  0
   60.3270   27.2300   47.4960 C   0  0  0  0  0  0  0  0  0  0  0  0
   60.1650   27.7620   46.2210 C   0  0  0  0  0  0  0  0  0  0  0  0
   59.7890   29.0970   46.0530 C   0  0  0  0  0  0  0  0  0  0  0  0
   59.5770   29.9410   47.1720 C   0  0  0  0  0  0  0  0  0  0  0  0
   58.6263   27.6598   44.2944 H   0  0  0  0  0  0  0  0  0  0  0  0
   57.1689   27.3683   43.2856 H   0  0  0  0  0  0  0  0  0  0  0  0
   57.9526   28.9846   43.2856 H   0  0  0  0  0  0  0  0  0  0  0  0
   55.9730   27.8313   45.1524 H   0  0  0  0  0  0  0  0  0  0  0  0
   57.4275   28.5502   45.9756 H   0  0  0  0  0  0  0  0  0  0  0  0
   56.6270   30.5220   45.6400 H   0  0  0  0  0  0  0  0  0  0  0  0
   57.0559   29.6889   42.9427 H   0  0  0  0  0  0  0  0  0  0  0  0
   55.6819   30.8470   43.1013 H   0  0  0  0  0  0  0  0  0  0  0  0
   58.5771   31.3059   43.3576 H   0  0  0  0  0  0  0  0  0  0  0  0
   57.1778   32.4819   43.1687 H   0  0  0  0  0  0  0  0  0  0  0  0
   56.9875   33.4628   46.5403 H   0  0  0  0  0  0  0  0  0  0  0  0
   57.5895   34.2120   45.0228 H   0  0  0  0  0  0  0  0  0  0  0  0
   56.0396   33.3041   45.0228 H   0  0  0  0  0  0  0  0  0  0  0  0
   59.7835   31.4900   44.9886 H   0  0  0  0  0  0  0  0  0  0  0  0
   59.4727   33.0686   45.8719 H   0  0  0  0  0  0  0  0  0  0  0  0
   59.1244   34.8790   46.7686 H   0  0  0  0  0  0  0  0  0  0  0  0
   59.1309   35.3445   48.5130 H   0  0  0  0  0  0  0  0  0  0  0  0
   60.8997   34.3456   50.0546 H   0  0  0  0  0  0  0  0  0  0  0  0
   63.2927   33.6491   50.1893 H   0  0  0  0  0  0  0  0  0  0  0  0
   64.5537   33.0960   48.1082 H   0  0  0  0  0  0  0  0  0  0  0  0
   63.4330   33.2665   45.8847 H   0  0  0  0  0  0  0  0  0  0  0  0
   61.0446   33.9706   45.7396 H   0  0  0  0  0  0  0  0  0  0  0  0
   58.8590   32.0455   50.3924 H   0  0  0  0  0  0  0  0  0  0  0  0
   59.6061   29.6973   50.6012 H   0  0  0  0  0  0  0  0  0  0  0  0
   60.2253   27.6018   49.6232 H   0  0  0  0  0  0  0  0  0  0  0  0
   60.6311   26.1801   47.6195 H   0  0  0  0  0  0  0  0  0  0  0  0
   60.3341   27.1271   45.3388 H   0  0  0  0  0  0  0  0  0  0  0  0
   59.6555   29.4990   45.0378 H   0  0  0  0  0  0  0  0  0  0  0  0
  1  2  1  0
  2  3  1  0
  3  4  1  0
  4  5  1  0
  5  6  1  0
  6  7  1  0
  6  8  1  0
  8  9  1  0
  9 10  2  0
 10 11  1  0
 11 12  1  0
 12 13  1  0
 13 14  2  0
 14 15  1  0
 15 16  2  0
 16 17  1  0
 17 18  2  0
 10 19  1  0
 19 20  2  0
 20 21  1  0
 21 22  2  0
 22 23  1  0
 23 24  2  0
 24 25  1  0
 25 26  2  0
 26  9  1  0
 18 13  1  0
 26 21  1  0
  1 27  1  0
  1 28  1  0
  1 29  1  0
  2 30  1  0
  2 31  1  0
  3 32  1  0
  4 33  1  0
  4 34  1  0
  5 35  1  0
  5 36  1  0
  7 37  1  0
  7 38  1  0
  7 39  1  0
  8 40  1  0
  8 41  1  0
 12 42  1  0
 12 43  1  0
 14 44  1  0
 15 45  1  0
 16 46  1  0
 17 47  1  0
 18 48  1  0
 19 49  1  0
 20 50  1  0
 22 51  1  0
 23 52  1  0
 24 53  1  0
 25 54  1  0
M  END
>  <UniqueID>  (15) 
15

>  <SMILES>  (15) 
CCNCCN(C)Cc1c(OCc2ccccc2)ccc2ccccc12

>  <Energy>  (15) 
67.79426407927775

>  <Genealogy>  (15) 
CCNCCN(C)Cc1c(OCc2ccccc2)ccc2ccccc12 (3D coordinates assigned)
CCNCCN(C)Cc1c(OCc2ccccc2)ccc2ccccc12 (optimized conformer: 67.79426407927775 kcal/mol)

>  <smiles>  (15) 
CCNCCN(C)Cc1c(OCc2ccccc2)ccc2ccccc12

>  <score_type>  (15) 
oracle

>  <origin>  (15) 
adg

>  <m_score__min__energy>  (15) 
-7.6200000000000001

>  <m_primary>  (15) 
energy

$$$$
15:0
     RDKit          3D

 28 30  0  0  0  0  0  0  0  0999 V2000
   57.2260   32.3510   40.7430 C   0  0  0  0  0  0  0  0  0  0  0  0
   57.4070   31.8910   42.1620 C   0  0  0  0  0  0  0  0  0  0  0  0
   57.0340   30.6550   42.5220 N   0  0  0  0  0  0  0  0  0  0  0  0
   57.1940   30.2390   43.7830 C   0  0  0  0  0  0  0  0  0  0  0  0
   56.8240   29.0680   44.0590 O   0  0  0  0  0  0  0  0  0  0  0  0
   57.7460   31.0770   44.7400 C   0  0  0  0  0  0  0  0  0  0  0  0
   58.1210   32.3330   44.3630 C   0  0  0  0  0  0  0  0  0  0  0  0
   57.9540   32.7310   43.0910 N   0  0  0  0  0  0  0  0  0  0  0  0
   58.7040   33.2270   45.3530 C   0  0  0  0  0  0  0  0  0  0  0  0
   59.0900   34.4980   44.9940 C   0  0  0  0  0  0  0  0  0  0  0  0
   59.6420   35.3170   45.9790 C   0  0  0  0  0  0  0  0  0  0  0  0
   60.0340   36.5840   45.6520 F   0  0  0  0  0  0  0  0  0  0  0  0
   59.8100   34.9050   47.2710 C   0  0  0  0  0  0  0  0  0  0  0  0
   59.4160   33.6300   47.6060 C   0  0  0  0  0  0  0  0  0  0  0  0
   58.8580   32.7780   46.6450 C   0  0  0  0  0  0  0  0  0  0  0  0
   58.4720   31.4350   47.1130 C   0  0  0  0  0  0  0  0  0  0  0  0
   57.8830   30.5340   46.1050 C   0  0  0  0  0  0  0  0  0  0  0  0
   56.8232   33.3746   40.7379 H   0  0  0  0  0  0  0  0  0  0  0  0
   58.1969   32.3364   40.2262 H   0  0  0  0  0  0  0  0  0  0  0  0
   56.5254   31.6787   40.2262 H   0  0  0  0  0  0  0  0  0  0  0  0
   58.2140   33.6690   42.7270 H   0  0  0  0  0  0  0  0  0  0  0  0
   58.9670   34.8573   43.9616 H   0  0  0  0  0  0  0  0  0  0  0  0
   60.2491   35.5757   48.0242 H   0  0  0  0  0  0  0  0  0  0  0  0
   59.5407   33.2761   48.6400 H   0  0  0  0  0  0  0  0  0  0  0  0
   59.3738   30.9474   47.5116 H   0  0  0  0  0  0  0  0  0  0  0  0
   57.6781   31.6013   47.8560 H   0  0  0  0  0  0  0  0  0  0  0  0
   58.5173   29.6372   46.0463 H   0  0  0  0  0  0  0  0  0  0  0  0
   56.8554   30.3435   46.4482 H   0  0  0  0  0  0  0  0  0  0  0  0
  1  2  1  0
  2  3  2  0
  3  4  1  0
  4  5  2  0
  4  6  1  0
  6  7  2  0
  7  8  1  0
  7  9  1  0
  9 10  2  0
 10 11  1  0
 11 12  1  0
 11 13  2  0
 13 14  1  0
 14 15  2  0
 15 16  1  0
 16 17  1  0
  8  2  1  0
 15  9  1  0
 17  6  1  0
  1 18  1  0
  1 19  1  0
  1 20  1  0
  8 21  1  0
 10 22  1  0
 13 23  1  0
 14 24  1  0
 16 25  1  0
 16 26  1  0
 17 27  1  0
 17 28  1  0
M  END
>  <smiles>  (16) 
Cc1nc(=O)c2c([nH]1)-c1cc(F)ccc1CC2

>  <score_type>  (16) 
oracle

>  <origin>  (16) 
adg

>  <m_score__min__energy>  (16) 
-6.5099999999999998

>  <m_primary>  (16) 
energy

$$$$
16:0
     RDKit          3D

 60 63  0  0  0  0  0  0  0  0999 V2000
   57.6640   21.4810   43.6100 C   0  0  0  0  0  0  0  0  0  0  0  0
   56.6400   22.2930   42.8160 C   0  0  0  0  0  0  0  0  0  0  0  0
   56.4560   23.6860   43.4130 C   0  0  0  0  0  0  0  0  0  0  0  0
   56.1290   23.5730   44.8270 N   0  0  0  0  0  0  0  0  0  0  0  0
   55.7330   24.6920   45.6280 C   0  0  0  0  0  0  0  0  0  0  0  0
   54.5090   24.8970   45.8520 O   0  0  0  0  0  0  0  0  0  0  0  0
   56.7560   25.6090   46.1890 C   0  0  0  0  0  0  0  0  0  0  0  0
   57.4770   25.2510   47.3340 C   0  0  0  0  0  0  0  0  0  0  0  0
   58.4470   26.1040   47.8530 C   0  0  0  0  0  0  0  0  0  0  0  0
   58.7270   27.3350   47.2320 C   0  0  0  0  0  0  0  0  0  0  0  0
   59.7080   28.1940   47.7410 C   0  0  0  0  0  0  0  0  0  0  0  0
   60.3460   27.8750   48.7850 O   0  0  0  0  0  0  0  0  0  0  0  0
   59.9720   29.3770   47.1160 N   0  0  0  0  0  0  0  0  0  0  0  0
   60.9770   30.2580   47.6570 C   0  0  0  0  0  0  0  0  0  0  0  0
   60.9860   30.5590   49.0260 C   0  0  0  0  0  0  0  0  0  0  0  0
   61.9520   31.4250   49.5490 C   0  0  0  0  0  0  0  0  0  0  0  0
   62.9130   31.9930   48.7090 C   0  0  0  0  0  0  0  0  0  0  0  0
   64.1240   33.0790   49.3710 Cl  0  0  0  0  0  0  0  0  0  0  0  0
   62.9070   31.6970   47.3430 C   0  0  0  0  0  0  0  0  0  0  0  0
   61.9420   30.8310   46.8160 C   0  0  0  0  0  0  0  0  0  0  0  0
   59.2940   29.7360   45.9810 C   0  0  0  0  0  0  0  0  0  0  0  0
   59.5930   30.8220   45.4040 O   0  0  0  0  0  0  0  0  0  0  0  0
   58.3080   28.9280   45.4600 N   0  0  0  0  0  0  0  0  0  0  0  0
   57.6130   29.3490   44.2200 C   0  0  0  0  0  0  0  0  0  0  0  0
   57.0640   30.7400   44.3690 C   0  0  0  0  0  0  0  0  0  0  0  0
   55.8900   30.9000   44.8030 O   0  0  0  0  0  0  0  0  0  0  0  0
   57.8670   31.8760   44.0160 N   0  0  0  0  0  0  0  0  0  0  0  0
   57.4770   33.2440   44.3490 C   0  0  0  0  0  0  0  0  0  0  0  0
   58.2890   33.7560   45.5090 C   0  0  0  0  0  0  0  0  0  0  0  0
   59.1820   34.8240   45.3250 C   0  0  0  0  0  0  0  0  0  0  0  0
   59.9320   35.3100   46.4020 C   0  0  0  0  0  0  0  0  0  0  0  0
   59.7920   34.7350   47.6700 C   0  0  0  0  0  0  0  0  0  0  0  0
   58.9040   33.6740   47.8610 C   0  0  0  0  0  0  0  0  0  0  0  0
   58.1540   33.1840   46.7870 C   0  0  0  0  0  0  0  0  0  0  0  0
   58.0150   27.7240   46.0740 C   0  0  0  0  0  0  0  0  0  0  0  0
   57.0240   26.8440   45.5730 C   0  0  0  0  0  0  0  0  0  0  0  0
   57.4876   21.6209   44.6867 H   0  0  0  0  0  0  0  0  0  0  0  0
   57.5625   20.4153   43.3572 H   0  0  0  0  0  0  0  0  0  0  0  0
   58.6786   21.8227   43.3572 H   0  0  0  0  0  0  0  0  0  0  0  0
   56.9878   22.3911   41.7771 H   0  0  0  0  0  0  0  0  0  0  0  0
   55.6743   21.7677   42.8542 H   0  0  0  0  0  0  0  0  0  0  0  0
   57.3875   24.2595   43.2976 H   0  0  0  0  0  0  0  0  0  0  0  0
   55.6379   24.2023   42.8894 H   0  0  0  0  0  0  0  0  0  0  0  0
   57.2757   24.2887   47.8273 H   0  0  0  0  0  0  0  0  0  0  0  0
   59.0003   25.8126   48.7580 H   0  0  0  0  0  0  0  0  0  0  0  0
   60.2315   30.1131   49.6907 H   0  0  0  0  0  0  0  0  0  0  0  0
   61.9550   31.6592   50.6238 H   0  0  0  0  0  0  0  0  0  0  0  0
   63.6622   32.1456   46.6808 H   0  0  0  0  0  0  0  0  0  0  0  0
   61.9405   30.5995   45.7406 H   0  0  0  0  0  0  0  0  0  0  0  0
   58.3249   29.3290   43.3817 H   0  0  0  0  0  0  0  0  0  0  0  0
   56.7798   28.6571   44.0275 H   0  0  0  0  0  0  0  0  0  0  0  0
   58.8020   31.7210   43.5740 H   0  0  0  0  0  0  0  0  0  0  0  0
   57.6453   33.8912   43.4756 H   0  0  0  0  0  0  0  0  0  0  0  0
   56.4130   33.2528   44.6280 H   0  0  0  0  0  0  0  0  0  0  0  0
   59.2925   35.2805   44.3303 H   0  0  0  0  0  0  0  0  0  0  0  0
   60.6323   36.1449   46.2516 H   0  0  0  0  0  0  0  0  0  0  0  0
   60.3811   35.1185   48.5161 H   0  0  0  0  0  0  0  0  0  0  0  0
   58.7943   33.2228   48.8582 H   0  0  0  0  0  0  0  0  0  0  0  0
   57.4559   32.3482   46.9423 H   0  0  0  0  0  0  0  0  0  0  0  0
   56.4504   27.1341   44.6804 H   0  0  0  0  0  0  0  0  0  0  0  0
  1  2  1  0
  2  3  1  0
  3  4  1  0
  4  5  1  0
  5  6  2  0
  5  7  1  0
  7  8  2  0
  8  9  1  0
  9 10  2  0
 10 11  1  0
 11 12  2  0
 11 13  1  0
 13 14  1  0
 14 15  2  0
 15 16  1  0
 16 17  2  0
 17 18  1  0
 17 19  1  0
 19 20  2  0
 13 21  1  0
 21 22  2  0
 21 23  1  0
 23 24  1  0
 24 25  1  0
 25 26  2  0
 25 27  1  0
 27 28  1  0
 28 29  1  0
 29 30  2  0
 30 31  1  0
 31 32  2  0
 32 33  1  0
 33 34  2  0
 23 35  1  0
 35 36  2  0
 36  7  1  0
 35 10  1  0
 20 14  1  0
 34 29  1  0
  1 37  1  0
  1 38  1  0
  1 39  1  0
  2 40  1  0
  2 41  1  0
  3 42  1  0
  3 43  1  0
  8 44  1  0
  9 45  1  0
 15 46  1  0
 16 47  1  0
 19 48  1  0
 20 49  1  0
 24 50  1  0
 24 51  1  0
 27 52  1  0
 28 53  1  0
 28 54  1  0
 30 55  1  0
 31 56  1  0
 32 57  1  0
 33 58  1  0
 34 59  1  0
 36 60  1  0
M  CHG  1   4  -1
M  END
>  <UniqueID>  (17) 
16

>  <SMILES>  (17) 
CCC[N-]C(=O)c1ccc2c(=O)n(-c3ccc(Cl)cc3)c(=O)n(CC(=O)NCc3ccccc3)c2c1

>  <Energy>  (17) 
75.75235143297489

>  <Genealogy>  (17) 
CCC[N-]C(=O)c1ccc2c(=O)n(-c3ccc(Cl)cc3)c(=O)n(CC(=O)NCc3ccccc3)c2c1 (protonated)
CCC[N-]C(=O)c1ccc2c(=O)n(-c3ccc(Cl)cc3)c(=O)n(CC(=O)NCc3ccccc3)c2c1 (3D coordinates assigned)
CCC[N-]C(=O)c1ccc2c(=O)n(-c3ccc(Cl)cc3)c(=O)n(CC(=O)NCc3ccccc3)c2c1 (optimized conformer: 75.75235143297489 kcal/mol)

>  <smiles>  (17) 
CCCNC(=O)c1ccc2c(=O)n(-c3ccc(Cl)cc3)c(=O)n(CC(=O)NCc3ccccc3)c2c1

>  <score_type>  (17) 
oracle

>  <origin>  (17) 
adg

>  <m_score__min__energy>  (17) 
-11.300000000000001

>  <m_primary>  (17) 
energy

$$$$
17:0
     RDKit          3D

 49 51  0  0  0  0  0  0  0  0999 V2000
   62.2570   30.9120   50.6660 C   0  0  0  0  0  0  0  0  0  0  0  0
   60.9050   31.1580   50.1230 N   0  0  1  0  0  0  0  0  0  0  0  0
   60.6030   32.6120   49.9700 C   0  0  0  0  0  0  0  0  0  0  0  0
   59.8240   32.9940   48.7310 C   0  0  0  0  0  0  0  0  0  0  0  0
   58.5150   32.5150   48.5360 C   0  0  0  0  0  0  0  0  0  0  0  0
   57.7920   32.8720   47.3950 C   0  0  0  0  0  0  0  0  0  0  0  0
   58.3580   33.7290   46.4450 C   0  0  0  0  0  0  0  0  0  0  0  0
   57.3700   34.2160   44.8870 Br  0  0  0  0  0  0  0  0  0  0  0  0
   59.6440   34.2390   46.6470 C   0  0  0  0  0  0  0  0  0  0  0  0
   60.3700   33.8830   47.7870 C   0  0  0  0  0  0  0  0  0  0  0  0
   60.5780   30.2610   48.9660 C   0  0  1  0  0  0  0  0  0  0  0  0
   61.6190   30.3920   47.8160 C   0  0  0  0  0  0  0  0  0  0  0  0
   60.9980   30.2690   46.4140 C   0  0  0  0  0  0  0  0  0  0  0  0
   60.3110   28.9260   46.1550 C   0  0  0  0  0  0  0  0  0  0  0  0
   59.2230   28.6820   47.1310 N   0  0  0  0  0  0  0  0  0  0  0  0
   58.0670   28.0290   46.4790 C   0  0  0  0  0  0  0  0  0  0  0  0
   57.5250   28.8930   45.3810 C   0  0  0  0  0  0  0  0  0  0  0  0
   57.6560   28.6540   44.0280 C   0  0  0  0  0  0  0  0  0  0  0  0
   57.0030   29.6950   43.4040 C   0  0  0  0  0  0  0  0  0  0  0  0
   56.5170   30.5030   44.4140 C   0  0  0  0  0  0  0  0  0  0  0  0
   56.8450   29.9980   45.5820 O   0  0  0  0  0  0  0  0  0  0  0  0
   59.7160   27.8800   48.2760 C   0  0  0  0  0  0  0  0  0  0  0  0
   60.2490   28.7920   49.3850 C   0  0  0  0  0  0  0  0  0  0  0  0
   62.2175   30.9192   51.7653 H   0  0  0  0  0  0  0  0  0  0  0  0
   62.6192   29.9332   50.3185 H   0  0  0  0  0  0  0  0  0  0  0  0
   62.9408   31.7005   50.3185 H   0  0  0  0  0  0  0  0  0  0  0  0
   60.2660   30.8450   50.8940 H   0  0  0  0  0  0  0  0  0  0  0  0
   60.0201   32.9301   50.8470 H   0  0  0  0  0  0  0  0  0  0  0  0
   61.5782   33.1123   49.8767 H   0  0  0  0  0  0  0  0  0  0  0  0
   58.0578   31.8546   49.2875 H   0  0  0  0  0  0  0  0  0  0  0  0
   56.7760   32.4786   47.2434 H   0  0  0  0  0  0  0  0  0  0  0  0
   60.0856   34.9223   45.9067 H   0  0  0  0  0  0  0  0  0  0  0  0
   61.3749   34.3006   47.9472 H   0  0  0  0  0  0  0  0  0  0  0  0
   59.6289   30.6231   48.5439 H   0  0  0  0  0  0  0  0  0  0  0  0
   62.1061   31.3749   47.8967 H   0  0  0  0  0  0  0  0  0  0  0  0
   62.3339   29.5636   47.9287 H   0  0  0  0  0  0  0  0  0  0  0  0
   60.2518   31.0683   46.2945 H   0  0  0  0  0  0  0  0  0  0  0  0
   61.8233   30.3498   45.6913 H   0  0  0  0  0  0  0  0  0  0  0  0
   59.8877   28.9297   45.1397 H   0  0  0  0  0  0  0  0  0  0  0  0
   61.0591   28.1266   46.2612 H   0  0  0  0  0  0  0  0  0  0  0  0
   58.3870   27.0652   46.0564 H   0  0  0  0  0  0  0  0  0  0  0  0
   57.2782   27.8716   47.2293 H   0  0  0  0  0  0  0  0  0  0  0  0
   58.1731   27.8098   43.5484 H   0  0  0  0  0  0  0  0  0  0  0  0
   56.8913   29.8511   42.3209 H   0  0  0  0  0  0  0  0  0  0  0  0
   55.9425   31.4288   44.2632 H   0  0  0  0  0  0  0  0  0  0  0  0
   58.8898   27.2724   48.6738 H   0  0  0  0  0  0  0  0  0  0  0  0
   60.5332   27.2311   47.9280 H   0  0  0  0  0  0  0  0  0  0  0  0
   59.4914   28.8311   50.1816 H   0  0  0  0  0  0  0  0  0  0  0  0
   61.2075   28.3510   49.6960 H   0  0  0  0  0  0  0  0  0  0  0  0
  1  2  1  0
  2  3  1  0
  3  4  1  0
  4  5  2  0
  5  6  1  0
  6  7  2  0
  7  8  1  0
  7  9  1  0
  9 10  2  0
  2 11  1  0
 11 12  1  0
 12 13  1  0
 13 14  1  0
 14 15  1  0
 15 16  1  0
 16 17  1  0
 17 18  2  0
 18 19  1  0
 19 20  2  0
 20 21  1  0
 15 22  1  0
 22 23  1  0
 10  4  1  0
 23 11  1  0
 21 17  1  0
  1 24  1  0
  1 25  1  0
  1 26  1  0
  2 27  1  1
  3 28  1  0
  3 29  1  0
  5 30  1  0
  6 31  1  0
  9 32  1  0
 10 33  1  0
 11 34  1  6
 12 35  1  0
 12 36  1  0
 13 37  1  0
 13 38  1  0
 14 39  1  0
 14 40  1  0
 16 41  1  0
 16 42  1  0
 18 43  1  0
 19 44  1  0
 20 45  1  0
 22 46  1  0
 22 47  1  0
 23 48  1  0
 23 49  1  0
M  CHG  1   2   1
M  END
>  <UniqueID>  (18) 
17

>  <SMILES>  (18) 
C[N@@H+](Cc1ccc(Br)cc1)[C@H]1CCCN(Cc2ccco2)CC1

>  <Energy>  (18) 
94.48806887188914

>  <Genealogy>  (18) 
C[NH+](Cc1ccc(Br)cc1)C1CCCN(Cc2ccco2)CC1 (protonated)
C[N@@H+](Cc1ccc(Br)cc1)[C@H]1CCCN(Cc2ccco2)CC1 (chirality)
C[N@@H+](Cc1ccc(Br)cc1)[C@H]1CCCN(Cc2ccco2)CC1 (3D coordinates assigned)
C[N@@H+](Cc1ccc(Br)cc1)[C@H]1CCCN(Cc2ccco2)CC1 (nonaromatic ring conformer: 94.48806887188914 kcal/mol)

>  <smiles>  (18) 
CN(Cc1ccc(Br)cc1)C1CCCN(Cc2ccco2)CC1

>  <score_type>  (18) 
oracle

>  <origin>  (18) 
adg

>  <m_score__min__energy>  (18) 
-5.0599999999999996

>  <m_primary>  (18) 
energy

$$$$
18:0
     RDKit          3D

 46 47  0  0  0  0  0  0  0  0999 V2000
   56.6680   27.3940   45.6200 C   0  0  0  0  0  0  0  0  0  0  0  0
   55.9900   28.5910   45.2550 O   0  0  0  0  0  0  0  0  0  0  0  0
   56.5190   29.5830   44.4130 C   0  0  0  0  0  0  0  0  0  0  0  0
   56.0950   29.7260   43.0780 C   0  0  0  0  0  0  0  0  0  0  0  0
   56.6410   30.7210   42.2640 C   0  0  0  0  0  0  0  0  0  0  0  0
   57.6350   31.5730   42.7610 C   0  0  0  0  0  0  0  0  0  0  0  0
   58.2060   32.6540   41.8910 C   0  0  0  0  0  0  0  0  0  0  0  0
   58.0500   31.4460   44.0940 C   0  0  0  0  0  0  0  0  0  0  0  0
   57.4910   30.4620   44.9280 C   0  0  0  0  0  0  0  0  0  0  0  0
   57.9430   30.3080   46.2850 N   0  0  0  0  0  0  0  0  0  0  0  0
   58.9260   29.3510   46.6990 C   0  0  0  0  0  0  0  0  0  0  0  0
   59.6230   28.7340   45.8490 O   0  0  0  0  0  0  0  0  0  0  0  0
   59.1340   29.1280   48.0960 N   0  0  0  0  0  0  0  0  0  0  0  0
   60.2830   29.6290   48.8450 C   0  0  0  0  0  0  0  0  0  0  0  0
   60.7180   31.0230   48.3660 C   0  0  0  0  0  0  0  0  0  0  0  0
   60.4260   32.1700   49.3530 C   0  0  0  0  0  0  0  0  0  0  0  0
   58.9690   32.6680   49.3290 C   0  0  0  0  0  0  0  0  0  0  0  0
   58.6110   33.2340   48.0280 N   0  0  0  0  0  0  0  0  0  0  0  0
   59.4280   33.9290   47.2120 C   0  0  0  0  0  0  0  0  0  0  0  0
   58.7090   34.2690   46.0870 C   0  0  0  0  0  0  0  0  0  0  0  0
   59.2130   34.9900   44.8820 C   0  0  0  0  0  0  0  0  0  0  0  0
   57.4610   33.7080   46.2660 C   0  0  0  0  0  0  0  0  0  0  0  0
   57.4240   33.0810   47.4590 N   0  0  0  0  0  0  0  0  0  0  0  0
   56.7116   27.3170   46.7164 H   0  0  0  0  0  0  0  0  0  0  0  0
   56.1267   26.5273   45.2128 H   0  0  0  0  0  0  0  0  0  0  0  0
   57.6897   27.4126   45.2128 H   0  0  0  0  0  0  0  0  0  0  0  0
   55.3282   29.0492   42.6732 H   0  0  0  0  0  0  0  0  0  0  0  0
   56.2888   30.8358   41.2283 H   0  0  0  0  0  0  0  0  0  0  0  0
   58.6264   33.4498   42.5234 H   0  0  0  0  0  0  0  0  0  0  0  0
   58.9993   32.2328   41.2559 H   0  0  0  0  0  0  0  0  0  0  0  0
   57.4109   33.0718   41.2559 H   0  0  0  0  0  0  0  0  0  0  0  0
   58.8206   32.1230   44.4913 H   0  0  0  0  0  0  0  0  0  0  0  0
   57.5750   30.9610   47.0130 H   0  0  0  0  0  0  0  0  0  0  0  0
   60.0148   29.6870   49.9102 H   0  0  0  0  0  0  0  0  0  0  0  0
   61.1224   28.9366   48.6836 H   0  0  0  0  0  0  0  0  0  0  0  0
   61.8023   30.9981   48.1826 H   0  0  0  0  0  0  0  0  0  0  0  0
   60.1277   31.2363   47.4626 H   0  0  0  0  0  0  0  0  0  0  0  0
   60.6530   31.8165   50.3696 H   0  0  0  0  0  0  0  0  0  0  0  0
   61.0552   33.0186   49.0464 H   0  0  0  0  0  0  0  0  0  0  0  0
   58.2998   31.8224   49.5460 H   0  0  0  0  0  0  0  0  0  0  0  0
   58.8647   33.4584   50.0868 H   0  0  0  0  0  0  0  0  0  0  0  0
   60.4807   34.1799   47.4090 H   0  0  0  0  0  0  0  0  0  0  0  0
   59.8168   35.8537   45.1974 H   0  0  0  0  0  0  0  0  0  0  0  0
   59.8330   34.3094   44.2801 H   0  0  0  0  0  0  0  0  0  0  0  0
   58.3608   35.3385   44.2801 H   0  0  0  0  0  0  0  0  0  0  0  0
   56.6285   33.7635   45.5491 H   0  0  0  0  0  0  0  0  0  0  0  0
  1  2  1  0
  2  3  1  0
  3  4  2  0
  4  5  1  0
  5  6  2  0
  6  7  1  0
  6  8  1  0
  8  9  2  0
  9 10  1  0
 10 11  1  0
 11 12  2  0
 11 13  1  0
 13 14  1  0
 14 15  1  0
 15 16  1  0
 16 17  1  0
 17 18  1  0
 18 19  1  0
 19 20  2  0
 20 21  1  0
 20 22  1  0
 22 23  2  0
  9  3  1  0
 23 18  1  0
  1 24  1  0
  1 25  1  0
  1 26  1  0
  4 27  1  0
  5 28  1  0
  7 29  1  0
  7 30  1  0
  7 31  1  0
  8 32  1  0
 10 33  1  0
 14 34  1  0
 14 35  1  0
 15 36  1  0
 15 37  1  0
 16 38  1  0
 16 39  1  0
 17 40  1  0
 17 41  1  0
 19 42  1  0
 21 43  1  0
 21 44  1  0
 21 45  1  0
 22 46  1  0
M  CHG  1  13  -1
M  END
>  <UniqueID>  (19) 
18

>  <SMILES>  (19) 
COc1ccc(C)cc1NC(=O)[N-]CCCCn1cc(C)cn1

>  <Energy>  (19) 
69.34025709164654

>  <Genealogy>  (19) 
COc1ccc(C)cc1NC(=O)[N-]CCCCn1cc(C)cn1 (protonated)
COc1ccc(C)cc1NC(=O)[N-]CCCCn1cc(C)cn1 (3D coordinates assigned)
COc1ccc(C)cc1NC(=O)[N-]CCCCn1cc(C)cn1 (optimized conformer: 69.34025709164654 kcal/mol)

>  <smiles>  (19) 
COc1ccc(C)cc1NC(=O)NCCCCn1cc(C)cn1

>  <score_type>  (19) 
oracle

>  <origin>  (19) 
adg

>  <m_score__min__energy>  (19) 
-9.5299999999999994

>  <m_primary>  (19) 
energy

$$$$
19:0
     RDKit          3D

 47 49  0  0  0  0  0  0  0  0999 V2000
   57.0070   31.5850   44.3180 C   0  0  0  0  0  0  0  0  0  0  0  0
   57.4620   30.8570   45.5180 N   0  0  0  0  0  0  0  0  0  0  0  0
   57.9490   29.4950   45.2000 C   0  0  0  0  0  0  0  0  0  0  0  0
   56.7810   28.5310   44.9440 C   0  0  0  0  0  0  0  0  0  0  0  0
   55.5510   29.1380   45.2350 O   0  0  0  0  0  0  0  0  0  0  0  0
   58.4440   31.6380   46.3050 C   0  0  0  0  0  0  0  0  0  0  0  0
   58.1240   33.1420   46.3880 C   0  0  0  0  0  0  0  0  0  0  0  0
   58.7500   33.7270   47.5730 N   0  0  0  0  0  0  0  0  0  0  0  0
   59.7530   33.0160   48.3210 C   0  0  0  0  0  0  0  0  0  0  0  0
   61.0970   33.0410   47.9040 C   0  0  0  0  0  0  0  0  0  0  0  0
   61.4840   33.7580   46.7520 C   0  0  0  0  0  0  0  0  0  0  0  0
   62.8240   33.8410   46.3800 C   0  0  0  0  0  0  0  0  0  0  0  0
   63.7990   33.2270   47.1540 C   0  0  0  0  0  0  0  0  0  0  0  0
   63.4410   32.5000   48.2890 C   0  0  0  0  0  0  0  0  0  0  0  0
   62.0810   32.3590   48.6700 C   0  0  0  0  0  0  0  0  0  0  0  0
   61.7090   31.5990   49.7640 N   0  0  0  0  0  0  0  0  0  0  0  0
   62.6830   30.6750   50.3880 C   0  0  0  0  0  0  0  0  0  0  0  0
   60.4190   31.6750   50.2540 C   0  0  0  0  0  0  0  0  0  0  0  0
   60.0590   31.1090   51.5060 C   0  0  0  0  0  0  0  0  0  0  0  0
   58.7370   31.1210   51.9490 C   0  0  0  0  0  0  0  0  0  0  0  0
   57.7430   31.6960   51.1670 C   0  0  0  0  0  0  0  0  0  0  0  0
   58.0710   32.3010   49.9560 C   0  0  0  0  0  0  0  0  0  0  0  0
   59.4080   32.3400   49.5060 C   0  0  0  0  0  0  0  0  0  0  0  0
   56.4469   32.4812   44.6232 H   0  0  0  0  0  0  0  0  0  0  0  0
   57.8791   31.8843   43.7181 H   0  0  0  0  0  0  0  0  0  0  0  0
   56.3558   30.9323   43.7181 H   0  0  0  0  0  0  0  0  0  0  0  0
   58.5797   29.5409   44.3000 H   0  0  0  0  0  0  0  0  0  0  0  0
   58.5250   29.1224   46.0599 H   0  0  0  0  0  0  0  0  0  0  0  0
   56.7906   28.2281   43.8866 H   0  0  0  0  0  0  0  0  0  0  0  0
   56.9015   27.6553   45.5988 H   0  0  0  0  0  0  0  0  0  0  0  0
   55.7080   29.7420   46.0080 H   0  0  0  0  0  0  0  0  0  0  0  0
   58.4693   31.2326   47.3272 H   0  0  0  0  0  0  0  0  0  0  0  0
   59.4113   31.5458   45.7895 H   0  0  0  0  0  0  0  0  0  0  0  0
   58.5079   33.6453   45.4884 H   0  0  0  0  0  0  0  0  0  0  0  0
   57.0340   33.2738   46.4559 H   0  0  0  0  0  0  0  0  0  0  0  0
   58.2890   34.5540   48.0140 H   0  0  0  0  0  0  0  0  0  0  0  0
   60.7184   34.2575   46.1402 H   0  0  0  0  0  0  0  0  0  0  0  0
   63.1095   34.3933   45.4726 H   0  0  0  0  0  0  0  0  0  0  0  0
   64.8584   33.3142   46.8710 H   0  0  0  0  0  0  0  0  0  0  0  0
   64.2254   32.0281   48.8989 H   0  0  0  0  0  0  0  0  0  0  0  0
   62.6071   30.7470   51.4830 H   0  0  0  0  0  0  0  0  0  0  0  0
   62.4646   29.6441   50.0723 H   0  0  0  0  0  0  0  0  0  0  0  0
   63.7009   30.9473   50.0723 H   0  0  0  0  0  0  0  0  0  0  0  0
   60.8364   30.6534   52.1369 H   0  0  0  0  0  0  0  0  0  0  0  0
   58.4803   30.6738   52.9207 H   0  0  0  0  0  0  0  0  0  0  0  0
   56.6963   31.6735   51.5044 H   0  0  0  0  0  0  0  0  0  0  0  0
   57.2781   32.7540   49.3428 H   0  0  0  0  0  0  0  0  0  0  0  0
  1  2  1  0
  2  3  1  0
  3  4  1  0
  4  5  1  0
  2  6  1  0
  6  7  1  0
  7  8  1  0
  8  9  1  0
  9 10  2  0
 10 11  1  0
 11 12  2  0
 12 13  1  0
 13 14  2  0
 14 15  1  0
 15 16  2  0
 16 17  1  0
 16 18  1  0
 18 19  2  0
 19 20  1  0
 20 21  2  0
 21 22  1  0
 22 23  2  0
 23  9  1  0
 15 10  1  0
 23 18  1  0
  1 24  1  0
  1 25  1  0
  1 26  1  0
  3 27  1  0
  3 28  1  0
  4 29  1  0
  4 30  1  0
  5 31  1  0
  6 32  1  0
  6 33  1  0
  7 34  1  0
  7 35  1  0
  8 36  1  0
 11 37  1  0
 12 38  1  0
 13 39  1  0
 14 40  1  0
 17 41  1  0
 17 42  1  0
 17 43  1  0
 19 44  1  0
 20 45  1  0
 21 46  1  0
 22 47  1  0
M  CHG  1  16   1
M  END
>  <UniqueID>  (20) 
19

>  <SMILES>  (20) 
CN(CCO)CCNc1c2ccccc2[n+](C)c2ccccc12

>  <Energy>  (20) 
76.15661364486576

>  <Genealogy>  (20) 
CN(CCO)CCNc1c2ccccc2[n+](C)c2ccccc12 (3D coordinates assigned)
CN(CCO)CCNc1c2ccccc2[n+](C)c2ccccc12 (optimized conformer: 76.15661364486576 kcal/mol)

>  <smiles>  (20) 
CN(CCO)CCNc1c2ccccc2[n+](C)c2ccccc12

>  <score_type>  (20) 
oracle

>  <origin>  (20) 
adg

>  <m_score__min__energy>  (20) 
-6.2199999999999998

>  <m_primary>  (20) 
energy

$$$$
20:0
     RDKit          3D

 38 40  0  0  1  0  0  0  0  0999 V2000
   57.0150   28.1230   44.8610 C   0  0  0  0  0  0  0  0  0  0  0  0
   56.0070   29.0290   45.0680 O   0  0  0  0  0  0  0  0  0  0  0  0
   55.6500   29.7040   43.9140 C   0  0  0  0  0  0  0  0  0  0  0  0
   56.7590   30.7690   43.6080 C   0  0  0  0  0  0  0  0  0  0  0  0
   56.8700   31.3990   44.8740 N   0  0  0  0  0  0  0  0  0  0  0  0
   57.8720   31.5070   45.6180 C   0  0  0  0  0  0  0  0  0  0  0  0
   58.2830   30.4600   46.3270 N   0  0  0  0  0  0  0  0  0  0  0  0
   59.3430   30.4650   47.1530 C   0  0  0  0  0  0  0  0  0  0  0  0
   59.7840   29.3190   47.9240 C   0  0  0  0  0  0  0  0  0  0  0  0
   60.2840   29.4020   49.2020 C   0  0  0  0  0  0  0  0  0  0  0  0
   60.6980   28.2900   49.9140 C   0  0  0  0  0  0  0  0  0  0  0  0
   60.6140   27.0420   49.3390 C   0  0  0  0  0  0  0  0  0  0  0  0
   60.1160   26.9510   48.0660 C   0  0  0  0  0  0  0  0  0  0  0  0
   59.7090   28.0550   47.3680 C   0  0  0  0  0  0  0  0  0  0  0  0
   60.0140   31.6310   47.2440 N   0  0  0  0  0  0  0  0  0  0  0  0
   59.6290   32.7190   46.5390 C   0  0  0  0  0  0  0  0  0  0  0  0
   60.3930   33.8520   46.7140 C   0  0  0  0  0  0  0  0  0  0  0  0
   59.9990   34.9580   45.9950 C   0  0  0  0  0  0  0  0  0  0  0  0
   58.9340   34.9820   45.1550 C   0  0  0  0  0  0  0  0  0  0  0  0
   58.1580   33.8100   44.9850 C   0  0  0  0  0  0  0  0  0  0  0  0
   58.5330   32.7070   45.6880 C   0  0  0  0  0  0  0  0  0  0  0  0
   57.4010   27.7760   45.8308 H   0  0  0  0  0  0  0  0  0  0  0  0
   56.6260   27.2651   44.2930 H   0  0  0  0  0  0  0  0  0  0  0  0
   57.8267   28.6010   44.2930 H   0  0  0  0  0  0  0  0  0  0  0  0
   55.5730   28.9951   43.0764 H   0  0  0  0  0  0  0  0  0  0  0  0
   54.6757   30.1969   44.0475 H   0  0  0  0  0  0  0  0  0  0  0  0
   57.7047   30.2951   43.3061 H   0  0  0  0  0  0  0  0  0  0  0  0
   56.5233   31.4498   42.7767 H   0  0  0  0  0  0  0  0  0  0  0  0
   57.7560   29.5760   46.2450 H   0  0  0  0  0  0  0  0  0  0  0  0
   60.3579   30.3913   49.6772 H   0  0  0  0  0  0  0  0  0  0  0  0
   61.0924   28.4027   50.9347 H   0  0  0  0  0  0  0  0  0  0  0  0
   60.9373   26.1440   49.8858 H   0  0  0  0  0  0  0  0  0  0  0  0
   60.0412   25.9615   47.5913 H   0  0  0  0  0  0  0  0  0  0  0  0
   59.3156   27.9353   46.3477 H   0  0  0  0  0  0  0  0  0  0  0  0
   61.2635   33.8717   47.3862 H   0  0  0  0  0  0  0  0  0  0  0  0
   60.5855   35.8816   46.1090 H   0  0  0  0  0  0  0  0  0  0  0  0
   58.6759   35.9028   44.6114 H   0  0  0  0  0  0  0  0  0  0  0  0
   57.2878   33.7919   44.3123 H   0  0  0  0  0  0  0  0  0  0  0  0
  1  2  1  0
  2  3  1  0
  3  4  1  0
  4  5  1  0
  5  6  2  0
  6  7  1  0
  7  8  1  0
  8  9  1  0
  9 10  2  0
 10 11  1  0
 11 12  2  0
 12 13  1  0
 13 14  2  0
  8 15  2  0
 15 16  1  0
 16 17  2  0
 17 18  1  0
 18 19  2  0
 19 20  1  0
 20 21  2  0
 21  6  1  0
 14  9  1  0
 21 16  1  0
  1 22  1  0
  1 23  1  0
  1 24  1  0
  3 25  1  0
  3 26  1  0
  4 27  1  0
  4 28  1  0
  7 29  1  0
 10 30  1  0
 11 31  1  0
 12 32  1  0
 13 33  1  0
 14 34  1  0
 17 35  1  0
 18 36  1  0
 19 37  1  0
 20 38  1  0
M  END
>  <smiles>  (21) 
COCCN=c1[nH]c(-c2ccccc2)nc2ccccc12

>  <score_type>  (21) 
oracle

>  <origin>  (21) 
adg

>  <m_score__min__energy>  (21) 
-6.6399999999999997

>  <m_primary>  (21) 
energy

$$$$
21:0
     RDKit          3D

 31 32  0  0  0  0  0  0  0  0999 V2000
   56.6410   34.5880   44.8640 C   0  0  0  0  0  0  0  0  0  0  0  0
   57.8480   33.8570   45.3570 C   0  0  0  0  0  0  0  0  0  0  0  0
   58.7380   34.3660   46.1700 O   0  0  0  0  0  0  0  0  0  0  0  0
   59.6450   33.4370   46.3810 C   0  0  0  0  0  0  0  0  0  0  0  0
   60.8230   33.6250   47.2510 C   0  0  0  0  0  0  0  0  0  0  0  0
   62.1160   33.3980   46.7560 C   0  0  0  0  0  0  0  0  0  0  0  0
   63.2240   33.5770   47.5860 C   0  0  0  0  0  0  0  0  0  0  0  0
   63.0310   33.9820   48.9070 C   0  0  0  0  0  0  0  0  0  0  0  0
   61.7730   34.1990   49.3750 N   0  0  0  0  0  0  0  0  0  0  0  0
   60.6770   34.0320   48.5870 C   0  0  0  0  0  0  0  0  0  0  0  0
   59.3810   32.2910   45.7140 N   0  0  0  0  0  0  0  0  0  0  0  0
   58.2370   32.5660   45.0570 C   0  0  0  0  0  0  0  0  0  0  0  0
   57.5340   31.5820   44.1520 C   0  0  0  0  0  0  0  0  0  0  0  0
   56.8060   30.5190   44.8770 N   0  0  0  0  0  0  0  0  0  0  0  0
   55.8720   29.7850   44.0090 C   0  0  0  0  0  0  0  0  0  0  0  0
   57.7060   29.5920   45.5830 C   0  0  0  0  0  0  0  0  0  0  0  0
   56.0523   34.9445   45.7221 H   0  0  0  0  0  0  0  0  0  0  0  0
   56.9565   35.4470   44.2535 H   0  0  0  0  0  0  0  0  0  0  0  0
   56.0259   33.9105   44.2535 H   0  0  0  0  0  0  0  0  0  0  0  0
   62.2568   33.0787   45.7128 H   0  0  0  0  0  0  0  0  0  0  0  0
   64.2396   33.4004   47.2021 H   0  0  0  0  0  0  0  0  0  0  0  0
   63.8968   34.1258   49.5701 H   0  0  0  0  0  0  0  0  0  0  0  0
   59.6733   34.2163   48.9975 H   0  0  0  0  0  0  0  0  0  0  0  0
   56.8131   32.1350   43.5319 H   0  0  0  0  0  0  0  0  0  0  0  0
   58.3117   31.0860   43.5527 H   0  0  0  0  0  0  0  0  0  0  0  0
   55.1581   29.2240   44.6300 H   0  0  0  0  0  0  0  0  0  0  0  0
   55.3248   30.4973   43.3740 H   0  0  0  0  0  0  0  0  0  0  0  0
   56.4347   29.0849   43.3740 H   0  0  0  0  0  0  0  0  0  0  0  0
   57.5837   29.7179   46.6689 H   0  0  0  0  0  0  0  0  0  0  0  0
   57.4589   28.5571   45.3038 H   0  0  0  0  0  0  0  0  0  0  0  0
   58.7477   29.8084   45.3038 H   0  0  0  0  0  0  0  0  0  0  0  0
  1  2  1  0
  2  3  1  0
  3  4  1  0
  4  5  1  0
  5  6  2  0
  6  7  1  0
  7  8  2  0
  8  9  1  0
  9 10  2  0
  4 11  2  0
 11 12  1  0
 12 13  1  0
 13 14  1  0
 14 15  1  0
 14 16  1  0
 12  2  2  0
 10  5  1  0
  1 17  1  0
  1 18  1  0
  1 19  1  0
  6 20  1  0
  7 21  1  0
  8 22  1  0
 10 23  1  0
 13 24  1  0
 13 25  1  0
 15 26  1  0
 15 27  1  0
 15 28  1  0
 16 29  1  0
 16 30  1  0
 16 31  1  0
M  END
>  <UniqueID>  (22) 
20

>  <SMILES>  (22) 
Cc1oc(-c2cccnc2)nc1CN(C)C

>  <Energy>  (22) 
61.695802619271255

>  <Genealogy>  (22) 
Cc1oc(-c2cccnc2)nc1CN(C)C (3D coordinates assigned)
Cc1oc(-c2cccnc2)nc1CN(C)C (optimized conformer: 61.695802619271255 kcal/mol)

>  <smiles>  (22) 
Cc1oc(-c2cccnc2)nc1CN(C)C

>  <score_type>  (22) 
oracle

>  <origin>  (22) 
adg

>  <m_score__min__energy>  (22) 
-5.5099999999999998

>  <m_primary>  (22) 
energy

$$$$
22:0
     RDKit          3D

 33 34  0  0  0  0  0  0  0  0999 V2000
   57.3980   32.1000   41.4150 C   0  0  0  0  0  0  0  0  0  0  0  0
   57.2950   31.3450   42.7390 C   0  0  0  0  0  0  0  0  0  0  0  0
   56.3550   30.1280   42.6570 C   0  0  0  0  0  0  0  0  0  0  0  0
   57.0200   28.8590   43.0360 N   0  0  0  0  0  0  0  0  0  0  0  0
   57.0470   28.6390   44.4930 C   0  0  0  0  0  0  0  0  0  0  0  0
   58.0890   29.4870   45.1640 C   0  0  0  0  0  0  0  0  0  0  0  0
   59.4470   29.2710   45.1450 C   0  0  0  0  0  0  0  0  0  0  0  0
   60.0060   30.2520   45.8090 O   0  0  0  0  0  0  0  0  0  0  0  0
   59.0450   31.0510   46.2240 C   0  0  0  0  0  0  0  0  0  0  0  0
   59.2620   32.2920   47.0100 C   0  0  0  0  0  0  0  0  0  0  0  0
   59.9720   32.2070   48.2250 C   0  0  0  0  0  0  0  0  0  0  0  0
   60.1960   33.3440   49.0050 C   0  0  0  0  0  0  0  0  0  0  0  0
   59.7190   34.5840   48.5870 C   0  0  0  0  0  0  0  0  0  0  0  0
   59.0160   34.6910   47.3870 C   0  0  0  0  0  0  0  0  0  0  0  0
   58.7810   33.5610   46.5920 C   0  0  0  0  0  0  0  0  0  0  0  0
   57.8200   33.8500   44.9550 Br  0  0  0  0  0  0  0  0  0  0  0  0
   57.8230   30.6190   45.8410 N   0  0  0  0  0  0  0  0  0  0  0  0
   57.5442   33.1718   41.6145 H   0  0  0  0  0  0  0  0  0  0  0  0
   58.2519   31.7145   40.8385 H   0  0  0  0  0  0  0  0  0  0  0  0
   56.4721   31.9573   40.8385 H   0  0  0  0  0  0  0  0  0  0  0  0
   58.2985   30.9961   43.0243 H   0  0  0  0  0  0  0  0  0  0  0  0
   56.8780   32.0375   43.4850 H   0  0  0  0  0  0  0  0  0  0  0  0
   55.5049   30.2948   43.3349 H   0  0  0  0  0  0  0  0  0  0  0  0
   56.0311   30.0311   41.6103 H   0  0  0  0  0  0  0  0  0  0  0  0
   58.0030   28.8610   42.6740 H   0  0  0  0  0  0  0  0  0  0  0  0
   56.5440   28.0400   42.5870 H   0  0  0  0  0  0  0  0  0  0  0  0
   56.0605   28.8903   44.9097 H   0  0  0  0  0  0  0  0  0  0  0  0
   57.2949   27.5830   44.6756 H   0  0  0  0  0  0  0  0  0  0  0  0
   59.9671   28.4306   44.6620 H   0  0  0  0  0  0  0  0  0  0  0  0
   60.3546   31.2327   48.5632 H   0  0  0  0  0  0  0  0  0  0  0  0
   60.7503   33.2598   49.9514 H   0  0  0  0  0  0  0  0  0  0  0  0
   59.8965   35.4781   49.2026 H   0  0  0  0  0  0  0  0  0  0  0  0
   58.6420   35.6728   47.0612 H   0  0  0  0  0  0  0  0  0  0  0  0
  1  2  1  0
  2  3  1  0
  3  4  1  0
  4  5  1  0
  5  6  1  0
  6  7  2  0
  7  8  1  0
  8  9  1  0
  9 10  1  0
 10 11  2  0
 11 12  1  0
 12 13  2  0
 13 14  1  0
 14 15  2  0
 15 16  1  0
  9 17  2  0
 17  6  1  0
 15 10  1  0
  1 18  1  0
  1 19  1  0
  1 20  1  0
  2 21  1  0
  2 22  1  0
  3 23  1  0
  3 24  1  0
  4 25  1  0
  4 26  1  0
  5 27  1  0
  5 28  1  0
  7 29  1  0
 11 30  1  0
 12 31  1  0
 13 32  1  0
 14 33  1  0
M  CHG  1   4   1
M  END
>  <UniqueID>  (23) 
21

>  <SMILES>  (23) 
CCC[NH2+]Cc1coc(-c2ccccc2Br)n1

>  <Energy>  (23) 
64.11294820382628

>  <Genealogy>  (23) 
CCC[NH2+]Cc1coc(-c2ccccc2Br)n1 (protonated)
CCC[NH2+]Cc1coc(-c2ccccc2Br)n1 (3D coordinates assigned)
CCC[NH2+]Cc1coc(-c2ccccc2Br)n1 (optimized conformer: 64.11294820382628 kcal/mol)

>  <smiles>  (23) 
CCCNCc1coc(-c2ccccc2Br)n1

>  <score_type>  (23) 
oracle

>  <origin>  (23) 
adg

>  <m_score__min__energy>  (23) 
-5.1799999999999997

>  <m_primary>  (23) 
energy

$$$$
23:0
     RDKit          3D

 44 46  0  0  0  0  0  0  0  0999 V2000
   60.1030   26.7390   47.5570 C   0  0  0  0  0  0  0  0  0  0  0  0
   59.6700   28.0930   47.0000 C   0  0  0  0  0  0  0  0  0  0  0  0
   59.9330   28.2190   45.4930 C   0  0  0  0  0  0  0  0  0  0  0  0
   58.8950   29.0780   44.8030 C   0  0  0  0  0  0  0  0  0  0  0  0
   58.7510   30.4480   45.0450 C   0  0  0  0  0  0  0  0  0  0  0  0
   59.5650   31.2470   45.9220 C   0  0  0  0  0  0  0  0  0  0  0  0
   60.2360   31.9140   46.6670 C   0  0  0  0  0  0  0  0  0  0  0  0
   61.0430   32.7130   47.5500 C   0  0  0  0  0  0  0  0  0  0  0  0
   60.4380   33.4580   48.5710 C   0  0  0  0  0  0  0  0  0  0  0  0
   61.2220   34.2340   49.4310 C   0  0  0  0  0  0  0  0  0  0  0  0
   62.6120   34.2650   49.2730 C   0  0  0  0  0  0  0  0  0  0  0  0
   63.2190   33.5220   48.2560 C   0  0  0  0  0  0  0  0  0  0  0  0
   62.4360   32.7460   47.3940 C   0  0  0  0  0  0  0  0  0  0  0  0
   57.4230   31.0370   44.2020 S   0  0  0  0  0  0  0  0  0  0  0  0
   57.0050   29.5640   43.5160 C   0  0  0  0  0  0  0  0  0  0  0  0
   55.9060   29.3760   42.6240 N   0  0  0  0  0  0  0  0  0  0  0  0
   57.9010   28.5780   43.9290 C   0  0  0  0  0  0  0  0  0  0  0  0
   57.7860   27.1650   43.5190 C   0  0  0  0  0  0  0  0  0  0  0  0
   57.9770   26.8750   42.3070 O   0  0  0  0  0  0  0  0  0  0  0  0
   57.4740   26.0910   44.4930 C   0  0  0  0  0  0  0  0  0  0  0  0
   56.9910   26.3970   45.7810 C   0  0  0  0  0  0  0  0  0  0  0  0
   56.7030   25.3750   46.6910 C   0  0  0  0  0  0  0  0  0  0  0  0
   56.8990   24.0400   46.3300 C   0  0  0  0  0  0  0  0  0  0  0  0
   57.3870   23.7240   45.0610 C   0  0  0  0  0  0  0  0  0  0  0  0
   57.6760   24.7420   44.1470 C   0  0  0  0  0  0  0  0  0  0  0  0
   60.0917   26.7742   48.6564 H   0  0  0  0  0  0  0  0  0  0  0  0
   59.4091   25.9601   47.2080 H   0  0  0  0  0  0  0  0  0  0  0  0
   61.1201   26.5072   47.2080 H   0  0  0  0  0  0  0  0  0  0  0  0
   58.5928   28.2214   47.1822 H   0  0  0  0  0  0  0  0  0  0  0  0
   60.2611   28.8687   47.5088 H   0  0  0  0  0  0  0  0  0  0  0  0
   60.9243   28.6714   45.3427 H   0  0  0  0  0  0  0  0  0  0  0  0
   59.8833   27.2110   45.0553 H   0  0  0  0  0  0  0  0  0  0  0  0
   59.3455   33.4325   48.6963 H   0  0  0  0  0  0  0  0  0  0  0  0
   60.7460   34.8197   50.2313 H   0  0  0  0  0  0  0  0  0  0  0  0
   63.2281   34.8749   49.9500 H   0  0  0  0  0  0  0  0  0  0  0  0
   64.3119   33.5474   48.1335 H   0  0  0  0  0  0  0  0  0  0  0  0
   62.9136   32.1617   46.5937 H   0  0  0  0  0  0  0  0  0  0  0  0
   55.1330   30.0770   42.5940 H   0  0  0  0  0  0  0  0  0  0  0  0
   55.8660   28.5540   41.9830 H   0  0  0  0  0  0  0  0  0  0  0  0
   56.8395   27.4468   46.0725 H   0  0  0  0  0  0  0  0  0  0  0  0
   56.3216   25.6228   47.6925 H   0  0  0  0  0  0  0  0  0  0  0  0
   56.6687   23.2373   47.0460 H   0  0  0  0  0  0  0  0  0  0  0  0
   57.5445   22.6724   44.7795 H   0  0  0  0  0  0  0  0  0  0  0  0
   58.0642   24.4864   43.1500 H   0  0  0  0  0  0  0  0  0  0  0  0
  1  2  1  0
  2  3  1  0
  3  4  1  0
  4  5  2  0
  5  6  1  0
  6  7  3  0
  7  8  1  0
  8  9  2  0
  9 10  1  0
 10 11  2  0
 11 12  1  0
 12 13  2  0
  5 14  1  0
 14 15  1  0
 15 16  1  0
 15 17  2  0
 17 18  1  0
 18 19  2  0
 18 20  1  0
 20 21  2  0
 21 22  1  0
 22 23  2  0
 23 24  1  0
 24 25  2  0
 17  4  1  0
 25 20  1  0
 13  8  1  0
  1 26  1  0
  1 27  1  0
  1 28  1  0
  2 29  1  0
  2 30  1  0
  3 31  1  0
  3 32  1  0
  9 33  1  0
 10 34  1  0
 11 35  1  0
 12 36  1  0
 13 37  1  0
 16 38  1  0
 16 39  1  0
 21 40  1  0
 22 41  1  0
 23 42  1  0
 24 43  1  0
 25 44  1  0
M  END
>  <UniqueID>  (24) 
22

>  <SMILES>  (24) 
CCCc1c(C#Cc2ccccc2)sc(N)c1C(=O)c1ccccc1

>  <Energy>  (24) 
70.2105385191172

>  <Genealogy>  (24) 
CCCc1c(C#Cc2ccccc2)sc(N)c1C(=O)c1ccccc1 (3D coordinates assigned)
CCCc1c(C#Cc2ccccc2)sc(N)c1C(=O)c1ccccc1 (optimized conformer: 70.2105385191172 kcal/mol)

>  <smiles>  (24) 
CCCc1c(C#Cc2ccccc2)sc(N)c1C(=O)c1ccccc1

>  <score_type>  (24) 
oracle

>  <origin>  (24) 
adg

>  <m_score__min__energy>  (24) 
-7.8300000000000001

>  <m_primary>  (24) 
energy

$$$$
24:0
     RDKit          3D

 68 69  0  0  1  0  0  0  0  0999 V2000
   59.2760   33.7430   51.6930 C   0  0  0  0  0  0  0  0  0  0  0  0
   59.7340   33.1260   50.3930 C   0  0  0  0  0  0  0  0  0  0  0  0
   59.1160   31.8730   50.1840 N   0  0  0  0  0  0  0  0  0  0  0  0
   57.7710   31.9100   50.9050 C   0  0  0  0  0  0  0  0  0  0  0  0
   57.5460   30.6750   51.6930 C   0  0  0  0  0  0  0  0  0  0  0  0
   59.7380   30.6830   50.6520 C   0  0  0  0  0  0  0  0  0  0  0  0
   60.2670   29.7390   49.6640 C   0  0  0  0  0  0  0  0  0  0  0  0
   60.1530   30.0390   48.2770 N   0  0  0  0  0  0  0  0  0  0  0  0
   60.3520   28.9310   47.3710 C   0  0  0  0  0  0  0  0  0  0  0  0
   60.6180   27.7910   47.8540 O   0  0  0  0  0  0  0  0  0  0  0  0
   60.2590   29.0820   45.9030 C   0  0  0  0  0  0  0  0  0  0  0  0
   59.0060   29.8110   45.5270 C   0  0  0  0  0  0  0  0  0  0  0  0
   58.9510   31.1510   45.4230 N   0  0  0  0  0  0  0  0  0  0  0  0
   57.7560   31.7020   45.1060 C   0  0  0  0  0  0  0  0  0  0  0  0
   57.5890   33.4930   44.9500 S   0  0  0  0  0  0  0  0  0  0  0  0
   58.0640   34.2380   46.5260 C   0  0  0  0  0  0  0  0  0  0  0  0
   59.1320   33.7180   47.1230 C   0  0  0  0  0  0  0  0  0  0  0  0
   60.3860   34.4490   47.3730 C   0  0  0  0  0  0  0  0  0  0  0  0
   61.7470   33.3310   47.1130 S   0  0  0  0  0  0  0  0  0  0  0  0
   62.6270   33.8370   46.0130 O   0  0  0  0  0  0  0  0  0  0  0  0
   61.1500   32.0010   46.7430 O   0  0  0  0  0  0  0  0  0  0  0  0
   62.6640   33.2190   48.6220 C   0  0  0  0  0  0  0  0  0  0  0  0
   62.6670   34.2280   49.5520 C   0  0  0  0  0  0  0  0  0  0  0  0
   63.4090   34.0740   50.7260 C   0  0  0  0  0  0  0  0  0  0  0  0
   64.1140   32.8890   50.8900 C   0  0  0  0  0  0  0  0  0  0  0  0
   64.0960   31.8890   49.9430 C   0  0  0  0  0  0  0  0  0  0  0  0
   63.3730   32.0300   48.7890 C   0  0  0  0  0  0  0  0  0  0  0  0
   56.6710   30.9420   44.9050 N   0  0  0  0  0  0  0  0  0  0  0  0
   56.6920   29.6050   45.0010 C   0  0  0  0  0  0  0  0  0  0  0  0
   55.6280   28.9580   44.7970 O   0  0  0  0  0  0  0  0  0  0  0  0
   57.8910   29.0040   45.3210 C   0  0  0  0  0  0  0  0  0  0  0  0
   57.9550   27.5200   45.4210 C   0  0  0  0  0  0  0  0  0  0  0  0
   57.7780   26.8740   44.0600 C   0  0  0  0  0  0  0  0  0  0  0  0
   56.8460   27.0090   46.3110 C   0  0  0  0  0  0  0  0  0  0  0  0
   59.6969   33.1759   52.5364 H   0  0  0  0  0  0  0  0  0  0  0  0
   59.6199   34.7866   51.7448 H   0  0  0  0  0  0  0  0  0  0  0  0
   58.1776   33.7159   51.7448 H   0  0  0  0  0  0  0  0  0  0  0  0
   59.4728   33.7992   49.5632 H   0  0  0  0  0  0  0  0  0  0  0  0
   60.8229   32.9773   50.4392 H   0  0  0  0  0  0  0  0  0  0  0  0
   57.7522   32.7758   51.5833 H   0  0  0  0  0  0  0  0  0  0  0  0
   56.9752   31.9887   50.1497 H   0  0  0  0  0  0  0  0  0  0  0  0
   57.5892   30.9119   52.7663 H   0  0  0  0  0  0  0  0  0  0  0  0
   56.5573   30.2592   51.4488 H   0  0  0  0  0  0  0  0  0  0  0  0
   58.3245   29.9373   51.4488 H   0  0  0  0  0  0  0  0  0  0  0  0
   60.5777   30.9859   51.2947 H   0  0  0  0  0  0  0  0  0  0  0  0
   58.9262   30.1300   51.1472 H   0  0  0  0  0  0  0  0  0  0  0  0
   61.3392   29.6188   49.8783 H   0  0  0  0  0  0  0  0  0  0  0  0
   59.6310   28.8503   49.7893 H   0  0  0  0  0  0  0  0  0  0  0  0
   59.9800   30.9430   47.8260 H   0  0  0  0  0  0  0  0  0  0  0  0
   61.1296   29.6492   45.5420 H   0  0  0  0  0  0  0  0  0  0  0  0
   60.2394   28.0825   45.4440 H   0  0  0  0  0  0  0  0  0  0  0  0
   59.8010   31.7240   45.5800 H   0  0  0  0  0  0  0  0  0  0  0  0
   57.5014   35.0743   46.9665 H   0  0  0  0  0  0  0  0  0  0  0  0
   59.0753   32.6701   47.4528 H   0  0  0  0  0  0  0  0  0  0  0  0
   60.4654   35.2991   46.6795 H   0  0  0  0  0  0  0  0  0  0  0  0
   60.4021   34.8319   48.4041 H   0  0  0  0  0  0  0  0  0  0  0  0
   62.0913   35.1485   49.3752 H   0  0  0  0  0  0  0  0  0  0  0  0
   63.4337   34.8627   51.4923 H   0  0  0  0  0  0  0  0  0  0  0  0
   64.7060   32.7442   51.8058 H   0  0  0  0  0  0  0  0  0  0  0  0
   64.6693   30.9663   50.1159 H   0  0  0  0  0  0  0  0  0  0  0  0
   63.3523   31.2384   48.0255 H   0  0  0  0  0  0  0  0  0  0  0  0
   58.9411   27.2632   45.8352 H   0  0  0  0  0  0  0  0  0  0  0  0
   57.4893   25.8204   44.1890 H   0  0  0  0  0  0  0  0  0  0  0  0
   56.9919   27.4039   43.5020 H   0  0  0  0  0  0  0  0  0  0  0  0
   58.7244   26.9292   43.5020 H   0  0  0  0  0  0  0  0  0  0  0  0
   57.1317   27.1406   47.3651 H   0  0  0  0  0  0  0  0  0  0  0  0
   55.9236   27.5729   46.1079 H   0  0  0  0  0  0  0  0  0  0  0  0
   56.6753   25.9415   46.1079 H   0  0  0  0  0  0  0  0  0  0  0  0
  1  2  1  0
  2  3  1  0
  3  4  1  0
  4  5  1  0
  3  6  1  0
  6  7  1  0
  7  8  1  0
  8  9  1  0
  9 10  2  0
  9 11  1  0
 11 12  1  0
 12 13  1  0
 13 14  1  0
 14 15  1  0
 15 16  1  0
 16 17  2  0
 17 18  1  0
 18 19  1  0
 19 20  2  0
 19 21  2  0
 19 22  1  0
 22 23  2  0
 23 24  1  0
 24 25  2  0
 25 26  1  0
 26 27  2  0
 14 28  2  0
 28 29  1  0
 29 30  2  0
 29 31  1  0
 31 32  1  0
 32 33  1  0
 32 34  1  0
 31 12  2  0
 27 22  1  0
  1 35  1  0
  1 36  1  0
  1 37  1  0
  2 38  1  0
  2 39  1  0
  4 40  1  0
  4 41  1  0
  5 42  1  0
  5 43  1  0
  5 44  1  0
  6 45  1  0
  6 46  1  0
  7 47  1  0
  7 48  1  0
  8 49  1  0
 11 50  1  0
 11 51  1  0
 13 52  1  0
 16 53  1  0
 17 54  1  0
 18 55  1  0
 18 56  1  0
 23 57  1  0
 24 58  1  0
 25 59  1  0
 26 60  1  0
 27 61  1  0
 32 62  1  0
 33 63  1  0
 33 64  1  0
 33 65  1  0
 34 66  1  0
 34 67  1  0
 34 68  1  0
M  END
>  <smiles>  (25) 
CCN(CC)CCNC(=O)Cc1[nH]c(SC=CCS(=O)(=O)c2ccccc2)nc(=O)c1C(C)C

>  <score_type>  (25) 
oracle

>  <origin>  (25) 
adg

>  <m_score__min__energy>  (25) 
-8.8900000000000006

>  <m_primary>  (25) 
energy

$$$$
26:0
     RDKit          3D

 44 46  0  0  1  0  0  0  0  0999 V2000
   59.5680   28.5860   44.7540 C   0  0  0  0  0  0  0  0  0  0  0  0
   58.2420   28.2240   44.1510 C   0  0  0  0  0  0  0  0  0  0  0  0
   57.0540   28.6080   44.9770 C   0  0  0  0  0  0  0  0  0  0  0  0
   56.4150   29.8280   44.6050 N   0  0  0  0  0  0  0  0  0  0  0  0
   57.0680   30.8580   44.2110 C   0  0  0  0  0  0  0  0  0  0  0  0
   57.1930   31.2220   42.9140 N   0  0  0  0  0  0  0  0  0  0  0  0
   57.8940   32.3090   42.5620 C   0  0  0  0  0  0  0  0  0  0  0  0
   58.0040   32.6500   41.1150 C   0  0  0  0  0  0  0  0  0  0  0  0
   56.9990   32.0320   40.4320 F   0  0  0  0  0  0  0  0  0  0  0  0
   58.5190   33.1050   43.4800 N   0  0  0  0  0  0  0  0  0  0  0  0
   58.4260   32.7840   44.7940 C   0  0  0  0  0  0  0  0  0  0  0  0
   57.7000   31.6640   45.1340 C   0  0  0  0  0  0  0  0  0  0  0  0
   57.7660   31.5550   46.4520 N   0  0  0  0  0  0  0  0  0  0  0  0
   58.5120   32.5760   46.9360 C   0  0  0  0  0  0  0  0  0  0  0  0
   58.9310   33.3560   45.9020 N   0  0  0  0  0  0  0  0  0  0  0  0
   59.7360   34.5550   46.0350 C   0  0  0  0  0  0  0  0  0  0  0  0
   60.5490   34.5280   47.2650 C   0  0  0  0  0  0  0  0  0  0  0  0
   59.9420   34.8280   48.3470 O   0  0  0  0  0  0  0  0  0  0  0  0
   61.9080   34.2080   47.3550 N   0  0  0  0  0  0  0  0  0  0  0  0
   62.6250   34.2070   48.6470 C   0  0  0  0  0  0  0  0  0  0  0  0
   63.1840   32.7810   48.5810 C   0  0  0  0  0  0  0  0  0  0  0  0
   63.6510   32.7420   47.1440 C   0  0  0  0  0  0  0  0  0  0  0  0
   62.9070   33.8350   46.3960 C   0  0  0  0  0  0  0  0  0  0  0  0
   59.4900   28.5647   45.8510 H   0  0  0  0  0  0  0  0  0  0  0  0
   60.3294   27.8629   44.4264 H   0  0  0  0  0  0  0  0  0  0  0  0
   59.8564   29.5957   44.4264 H   0  0  0  0  0  0  0  0  0  0  0  0
   58.1595   28.7281   43.1768 H   0  0  0  0  0  0  0  0  0  0  0  0
   58.2250   27.1269   44.0731 H   0  0  0  0  0  0  0  0  0  0  0  0
   56.3120   27.7996   44.8996 H   0  0  0  0  0  0  0  0  0  0  0  0
   57.4340   28.7654   45.9972 H   0  0  0  0  0  0  0  0  0  0  0  0
   56.7040   30.5920   42.2230 H   0  0  0  0  0  0  0  0  0  0  0  0
   57.9210   33.7393   40.9862 H   0  0  0  0  0  0  0  0  0  0  0  0
   58.9766   32.3119   40.7281 H   0  0  0  0  0  0  0  0  0  0  0  0
   58.7431   32.7481   47.9976 H   0  0  0  0  0  0  0  0  0  0  0  0
   60.4056   34.6339   45.1659 H   0  0  0  0  0  0  0  0  0  0  0  0
   59.0590   35.4204   46.0884 H   0  0  0  0  0  0  0  0  0  0  0  0
   63.4212   34.9652   48.6821 H   0  0  0  0  0  0  0  0  0  0  0  0
   62.0208   34.4476   49.5341 H   0  0  0  0  0  0  0  0  0  0  0  0
   64.0176   32.6374   49.2842 H   0  0  0  0  0  0  0  0  0  0  0  0
   62.4680   31.9920   48.8547 H   0  0  0  0  0  0  0  0  0  0  0  0
   64.7348   32.9238   47.0956 H   0  0  0  0  0  0  0  0  0  0  0  0
   63.4494   31.7577   46.6961 H   0  0  0  0  0  0  0  0  0  0  0  0
   63.5691   34.6800   46.1560 H   0  0  0  0  0  0  0  0  0  0  0  0
   62.5001   33.5169   45.4248 H   0  0  0  0  0  0  0  0  0  0  0  0
  1  2  1  0
  2  3  1  0
  3  4  1  0
  4  5  2  0
  5  6  1  0
  6  7  1  0
  7  8  1  0
  8  9  1  0
  7 10  2  0
 10 11  1  0
 11 12  2  0
 12 13  1  0
 13 14  2  0
 14 15  1  0
 15 16  1  0
 16 17  1  0
 17 18  2  0
 17 19  1  0
 19 20  1  0
 20 21  1  0
 21 22  1  0
 22 23  1  0
 12  5  1  0
 23 19  1  0
 15 11  1  0
  1 24  1  0
  1 25  1  0
  1 26  1  0
  2 27  1  0
  2 28  1  0
  3 29  1  0
  3 30  1  0
  6 31  1  0
  8 32  1  0
  8 33  1  0
 14 34  1  0
 16 35  1  0
 16 36  1  0
 20 37  1  0
 20 38  1  0
 21 39  1  0
 21 40  1  0
 22 41  1  0
 22 42  1  0
 23 43  1  0
 23 44  1  0
M  END
>  <smiles>  (26) 
CCCN=c1[nH]c(CF)nc2c1ncn2CC(=O)N1CCCC1

>  <score_type>  (26) 
oracle

>  <origin>  (26) 
adg

>  <m_score__min__energy>  (26) 
-6.7999999999999998

>  <m_primary>  (26) 
energy

$$$$
27:0
     RDKit          3D

 45 48  0  0  0  0  0  0  0  0999 V2000
   57.3990   32.3410   41.0560 C   0  0  0  0  0  0  0  0  0  0  0  0
   57.1910   31.6250   42.2690 O   0  0  0  0  0  0  0  0  0  0  0  0
   57.7860   31.9560   43.4950 C   0  0  0  0  0  0  0  0  0  0  0  0
   57.9600   30.9440   44.4440 C   0  0  0  0  0  0  0  0  0  0  0  0
   58.5490   31.2210   45.6810 C   0  0  0  0  0  0  0  0  0  0  0  0
   58.9860   32.5210   45.9900 C   0  0  0  0  0  0  0  0  0  0  0  0
   59.6030   32.7970   47.3130 C   0  0  0  0  0  0  0  0  0  0  0  0
   58.8810   32.6740   48.5070 C   0  0  0  0  0  0  0  0  0  0  0  0
   59.5210   32.9520   49.7200 C   0  0  0  0  0  0  0  0  0  0  0  0
   58.8010   32.8200   50.9600 N   0  0  0  0  0  0  0  0  0  0  0  0
   57.6970   31.8610   51.0720 C   0  0  0  0  0  0  0  0  0  0  0  0
   57.5610   31.4030   52.5260 C   0  0  0  0  0  0  0  0  0  0  0  0
   57.4620   32.5150   53.3970 O   0  0  0  0  0  0  0  0  0  0  0  0
   58.6680   33.2570   53.3660 C   0  0  0  0  0  0  0  0  0  0  0  0
   58.8950   33.8680   51.9800 C   0  0  0  0  0  0  0  0  0  0  0  0
   60.8310   33.3330   49.7190 N   0  0  0  0  0  0  0  0  0  0  0  0
   61.5260   33.4620   48.5470 C   0  0  0  0  0  0  0  0  0  0  0  0
   62.9760   33.8930   48.4870 C   0  0  0  0  0  0  0  0  0  0  0  0
   64.0340   32.8020   48.5730 C   0  0  0  0  0  0  0  0  0  0  0  0
   63.7680   33.5060   47.2470 C   0  0  0  0  0  0  0  0  0  0  0  0
   60.9030   33.1950   47.3710 N   0  0  0  0  0  0  0  0  0  0  0  0
   58.7990   33.5420   45.0390 C   0  0  0  0  0  0  0  0  0  0  0  0
   58.2090   33.2620   43.8020 C   0  0  0  0  0  0  0  0  0  0  0  0
   57.6990   33.3738   41.2867 H   0  0  0  0  0  0  0  0  0  0  0  0
   58.1918   31.8506   40.4721 H   0  0  0  0  0  0  0  0  0  0  0  0
   56.4668   32.3517   40.4721 H   0  0  0  0  0  0  0  0  0  0  0  0
   57.6302   29.9199   44.2149 H   0  0  0  0  0  0  0  0  0  0  0  0
   58.6717   30.4147   46.4192 H   0  0  0  0  0  0  0  0  0  0  0  0
   57.8259   32.3633   48.4914 H   0  0  0  0  0  0  0  0  0  0  0  0
   56.7610   32.3409   50.7502 H   0  0  0  0  0  0  0  0  0  0  0  0
   57.9029   30.9902   50.4322 H   0  0  0  0  0  0  0  0  0  0  0  0
   56.6566   30.7850   52.6262 H   0  0  0  0  0  0  0  0  0  0  0  0
   58.4545   30.8215   52.7972 H   0  0  0  0  0  0  0  0  0  0  0  0
   58.6142   34.0640   54.1115 H   0  0  0  0  0  0  0  0  0  0  0  0
   59.5045   32.5801   53.5943 H   0  0  0  0  0  0  0  0  0  0  0  0
   58.1304   34.6352   51.7883 H   0  0  0  0  0  0  0  0  0  0  0  0
   59.8941   34.3267   51.9419 H   0  0  0  0  0  0  0  0  0  0  0  0
   61.2830   33.5450   50.6330 H   0  0  0  0  0  0  0  0  0  0  0  0
   62.7830   34.8328   49.0250 H   0  0  0  0  0  0  0  0  0  0  0  0
   64.9726   32.9873   49.1158 H   0  0  0  0  0  0  0  0  0  0  0  0
   64.0466   31.7548   48.9094 H   0  0  0  0  0  0  0  0  0  0  0  0
   64.5148   34.1992   46.8327 H   0  0  0  0  0  0  0  0  0  0  0  0
   63.5092   33.1772   46.2297 H   0  0  0  0  0  0  0  0  0  0  0  0
   59.1195   34.5685   45.2706 H   0  0  0  0  0  0  0  0  0  0  0  0
   58.0750   34.0676   43.0651 H   0  0  0  0  0  0  0  0  0  0  0  0
  1  2  1  0
  2  3  1  0
  3  4  2  0
  4  5  1  0
  5  6  2  0
  6  7  1  0
  7  8  2  0
  8  9  1  0
  9 10  1  0
 10 11  1  0
 11 12  1  0
 12 13  1  0
 13 14  1  0
 14 15  1  0
  9 16  2  0
 16 17  1  0
 17 18  1  0
 18 19  1  0
 19 20  1  0
 17 21  2  0
  6 22  1  0
 22 23  2  0
 23  3  1  0
 21  7  1  0
 15 10  1  0
 20 18  1  0
  1 24  1  0
  1 25  1  0
  1 26  1  0
  4 27  1  0
  5 28  1  0
  8 29  1  0
 11 30  1  0
 11 31  1  0
 12 32  1  0
 12 33  1  0
 14 34  1  0
 14 35  1  0
 15 36  1  0
 15 37  1  0
 16 38  1  0
 18 39  1  0
 19 40  1  0
 19 41  1  0
 20 42  1  0
 20 43  1  0
 22 44  1  0
 23 45  1  0
M  CHG  1  16   1
M  END
>  <UniqueID>  (27) 
23

>  <SMILES>  (27) 
COc1ccc(-c2cc(N3CCOCC3)[nH+]c(C3CC3)n2)cc1

>  <Energy>  (27) 
322.3824971046612

>  <Genealogy>  (27) 
COc1ccc(-c2cc(N3CCOCC3)[nH+]c(C3CC3)n2)cc1 (protonated)
COc1ccc(-c2cc(N3CCOCC3)[nH+]c(C3CC3)n2)cc1 (3D coordinates assigned)
COc1ccc(-c2cc(N3CCOCC3)[nH+]c(C3CC3)n2)cc1 (nonaromatic ring conformer: 322.3824971046612 kcal/mol)

>  <smiles>  (27) 
COc1ccc(-c2cc(N3CCOCC3)nc(C3CC3)n2)cc1

>  <score_type>  (27) 
oracle

>  <origin>  (27) 
adg

>  <m_score__min__energy>  (27) 
-5.2699999999999996

>  <m_primary>  (27) 
energy

$$$$
28:0
     RDKit          3D

 57 60  0  0  0  0  0  0  0  0999 V2000
   66.4320   31.9290   50.5300 C   0  0  0  0  0  0  0  0  0  0  0  0
   64.9600   31.9930   50.1240 C   0  0  0  0  0  0  0  0  0  0  0  0
   64.4520   33.4420   49.9700 C   0  0  0  0  0  0  0  0  0  0  0  0
   62.9930   33.5350   49.4930 C   0  0  0  0  0  0  0  0  0  0  0  0
   62.0080   33.4570   50.6290 C   0  0  0  0  0  0  0  0  0  0  0  0
   62.3930   33.3750   51.9190 N   0  0  0  0  0  0  0  0  0  0  0  0
   61.2570   33.4090   52.6350 C   0  0  0  0  0  0  0  0  0  0  0  0
   61.2020   33.3960   54.3890 Cl  0  0  0  0  0  0  0  0  0  0  0  0
   60.1850   33.5030   51.7720 C   0  0  0  0  0  0  0  0  0  0  0  0
   58.7460   33.6720   52.1770 C   0  0  0  0  0  0  0  0  0  0  0  0
   58.5510   34.9410   52.7360 O   0  0  0  0  0  0  0  0  0  0  0  0
   60.6590   33.5460   50.5050 N   0  0  0  0  0  0  0  0  0  0  0  0
   59.8700   33.6370   49.2690 C   0  0  0  0  0  0  0  0  0  0  0  0
   59.6790   32.2740   48.6530 C   0  0  0  0  0  0  0  0  0  0  0  0
   60.0830   32.0270   47.3300 C   0  0  0  0  0  0  0  0  0  0  0  0
   59.8900   30.7680   46.7570 C   0  0  0  0  0  0  0  0  0  0  0  0
   59.2720   29.7430   47.4880 C   0  0  0  0  0  0  0  0  0  0  0  0
   59.0830   28.4050   46.8840 C   0  0  0  0  0  0  0  0  0  0  0  0
   59.7430   27.3140   47.4740 C   0  0  0  0  0  0  0  0  0  0  0  0
   59.5350   26.0170   47.0040 C   0  0  0  0  0  0  0  0  0  0  0  0
   58.6630   25.7910   45.9410 C   0  0  0  0  0  0  0  0  0  0  0  0
   58.0090   26.8640   45.3320 C   0  0  0  0  0  0  0  0  0  0  0  0
   58.2180   28.1820   45.7780 C   0  0  0  0  0  0  0  0  0  0  0  0
   57.5600   29.2900   45.0400 C   0  0  0  0  0  0  0  0  0  0  0  0
   56.2890   29.6870   45.2410 N   0  0  0  0  0  0  0  0  0  0  0  0
   56.0740   30.7090   44.4330 N   0  0  0  0  0  0  0  0  0  0  0  0
   57.2260   30.9230   43.7740 C   0  0  0  0  0  0  0  0  0  0  0  0
   57.3940   31.9620   42.7170 C   0  0  0  0  0  0  0  0  0  0  0  0
   58.1900   30.0480   44.1180 N   0  0  0  0  0  0  0  0  0  0  0  0
   58.8680   29.9870   48.8090 C   0  0  0  0  0  0  0  0  0  0  0  0
   59.0600   31.2470   49.3840 C   0  0  0  0  0  0  0  0  0  0  0  0
   66.5099   31.9256   51.6272 H   0  0  0  0  0  0  0  0  0  0  0  0
   66.8838   31.0104   50.1275 H   0  0  0  0  0  0  0  0  0  0  0  0
   66.9618   32.8050   50.1275 H   0  0  0  0  0  0  0  0  0  0  0  0
   64.8360   31.4717   49.1633 H   0  0  0  0  0  0  0  0  0  0  0  0
   64.3721   31.5157   50.9219 H   0  0  0  0  0  0  0  0  0  0  0  0
   64.5317   33.9441   50.9455 H   0  0  0  0  0  0  0  0  0  0  0  0
   65.0744   33.9222   49.2005 H   0  0  0  0  0  0  0  0  0  0  0  0
   62.8533   34.4927   48.9703 H   0  0  0  0  0  0  0  0  0  0  0  0
   62.8040   32.6794   48.8279 H   0  0  0  0  0  0  0  0  0  0  0  0
   63.3690   33.3310   52.2880 H   0  0  0  0  0  0  0  0  0  0  0  0
   58.1031   33.5615   51.2913 H   0  0  0  0  0  0  0  0  0  0  0  0
   58.4888   32.9057   52.9231 H   0  0  0  0  0  0  0  0  0  0  0  0
   58.0950   35.4890   52.0450 H   0  0  0  0  0  0  0  0  0  0  0  0
   58.8853   34.0689   49.5009 H   0  0  0  0  0  0  0  0  0  0  0  0
   60.4093   34.2746   48.5530 H   0  0  0  0  0  0  0  0  0  0  0  0
   60.5536   32.8292   46.7427 H   0  0  0  0  0  0  0  0  0  0  0  0
   60.2247   30.5793   45.7263 H   0  0  0  0  0  0  0  0  0  0  0  0
   60.4309   27.4842   48.3153 H   0  0  0  0  0  0  0  0  0  0  0  0
   60.0600   25.1718   47.4731 H   0  0  0  0  0  0  0  0  0  0  0  0
   58.4896   24.7661   45.5811 H   0  0  0  0  0  0  0  0  0  0  0  0
   57.3221   26.6766   44.4935 H   0  0  0  0  0  0  0  0  0  0  0  0
   57.5526   32.9429   43.1889 H   0  0  0  0  0  0  0  0  0  0  0  0
   58.2633   31.7113   42.0913 H   0  0  0  0  0  0  0  0  0  0  0  0
   56.4900   31.9980   42.0913 H   0  0  0  0  0  0  0  0  0  0  0  0
   58.3981   29.1835   49.3951 H   0  0  0  0  0  0  0  0  0  0  0  0
   58.7244   31.4349   50.4146 H   0  0  0  0  0  0  0  0  0  0  0  0
  1  2  1  0
  2  3  1  0
  3  4  1  0
  4  5  1  0
  5  6  2  0
  6  7  1  0
  7  8  1  0
  7  9  2  0
  9 10  1  0
 10 11  1  0
  9 12  1  0
 12 13  1  0
 13 14  1  0
 14 15  2  0
 15 16  1  0
 16 17  2  0
 17 18  1  0
 18 19  2  0
 19 20  1  0
 20 21  2  0
 21 22  1  0
 22 23  2  0
 23 24  1  0
 24 25  2  0
 25 26  1  0
 26 27  1  0
 27 28  1  0
 27 29  2  0
 17 30  1  0
 30 31  2  0
 12  5  1  0
 31 14  1  0
 23 18  1  0
 29 24  1  0
  1 32  1  0
  1 33  1  0
  1 34  1  0
  2 35  1  0
  2 36  1  0
  3 37  1  0
  3 38  1  0
  4 39  1  0
  4 40  1  0
  6 41  1  0
 10 42  1  0
 10 43  1  0
 11 44  1  0
 13 45  1  0
 13 46  1  0
 15 47  1  0
 16 48  1  0
 19 49  1  0
 20 50  1  0
 21 51  1  0
 22 52  1  0
 28 53  1  0
 28 54  1  0
 28 55  1  0
 30 56  1  0
 31 57  1  0
M  CHG  2   6   1  26  -1
M  END
>  <UniqueID>  (28) 
24

>  <SMILES>  (28) 
CCCCc1[nH+]c(Cl)c(CO)n1Cc1ccc(-c2ccccc2-c2n[n-]c(C)n2)cc1

>  <Energy>  (28) 
125.10675734964234

>  <Genealogy>  (28) 
CCCCc1[nH+]c(Cl)c(CO)n1Cc1ccc(-c2ccccc2-c2n[n-]c(C)n2)cc1 (protonated)
CCCCc1[nH+]c(Cl)c(CO)n1Cc1ccc(-c2ccccc2-c2n[n-]c(C)n2)cc1 (3D coordinates assigned)
CCCCc1[nH+]c(Cl)c(CO)n1Cc1ccc(-c2ccccc2-c2n[n-]c(C)n2)cc1 (optimized conformer: 125.10675734964234 kcal/mol)

>  <smiles>  (28) 
CCCCc1nc(Cl)c(CO)n1Cc1ccc(-c2ccccc2-c2n[nH]c(C)n2)cc1

>  <score_type>  (28) 
oracle

>  <origin>  (28) 
adg

>  <m_score__min__energy>  (28) 
-9.1300000000000008

>  <m_primary>  (28) 
energy

$$$$
29:0
     RDKit          3D

 42 45  0  0  0  0  0  0  0  0999 V2000
   59.6140   35.6780   46.1180 C   0  0  0  0  0  0  0  0  0  0  0  0
   59.1580   34.2490   46.0640 C   0  0  0  0  0  0  0  0  0  0  0  0
   58.2150   33.8440   45.1080 C   0  0  0  0  0  0  0  0  0  0  0  0
   57.7600   32.5230   45.0810 C   0  0  0  0  0  0  0  0  0  0  0  0
   58.2440   31.5860   46.0110 C   0  0  0  0  0  0  0  0  0  0  0  0
   57.7720   30.2270   46.0220 N   0  0  0  0  0  0  0  0  0  0  0  0
   58.6390   29.0760   46.0130 C   0  0  0  0  0  0  0  0  0  0  0  0
   59.8880   29.2300   46.0900 O   0  0  0  0  0  0  0  0  0  0  0  0
   58.0900   27.7020   45.9210 C   0  0  0  0  0  0  0  0  0  0  0  0
   58.9440   26.5690   45.8370 C   0  0  0  0  0  0  0  0  0  0  0  0
   58.4100   25.2710   45.7440 C   0  0  0  0  0  0  0  0  0  0  0  0
   57.0200   25.1320   45.7360 C   0  0  0  0  0  0  0  0  0  0  0  0
   56.2000   26.2130   45.7950 C   0  0  0  0  0  0  0  0  0  0  0  0
   56.6880   27.5140   45.8850 C   0  0  0  0  0  0  0  0  0  0  0  0
   54.9190   25.8300   45.7310 N   0  0  0  0  0  0  0  0  0  0  0  0
   54.9880   24.4760   45.6260 C   0  0  0  0  0  0  0  0  0  0  0  0
   56.2800   24.0080   45.6480 N   0  0  0  0  0  0  0  0  0  0  0  0
   56.8530   22.6620   45.4920 C   0  0  0  0  0  0  0  0  0  0  0  0
   55.8840   21.6220   44.9520 C   0  0  0  0  0  0  0  0  0  0  0  0
   54.7550   21.3660   45.9380 C   0  0  0  0  0  0  0  0  0  0  0  0
   53.6510   22.2680   45.6760 N   0  0  0  0  0  0  0  0  0  0  0  0
   53.7310   23.6880   45.5450 C   0  0  0  0  0  0  0  0  0  0  0  0
   52.6580   24.3150   45.3410 O   0  0  0  0  0  0  0  0  0  0  0  0
   59.1540   32.0050   46.9920 C   0  0  0  0  0  0  0  0  0  0  0  0
   59.6090   33.3260   47.0190 C   0  0  0  0  0  0  0  0  0  0  0  0
   59.7140   35.9915   47.1676 H   0  0  0  0  0  0  0  0  0  0  0  0
   60.5867   35.7718   45.6130 H   0  0  0  0  0  0  0  0  0  0  0  0
   58.8754   36.3179   45.6130 H   0  0  0  0  0  0  0  0  0  0  0  0
   57.8316   34.5699   44.3758 H   0  0  0  0  0  0  0  0  0  0  0  0
   57.0194   32.2146   44.3284 H   0  0  0  0  0  0  0  0  0  0  0  0
   56.7400   30.0890   46.0900 H   0  0  0  0  0  0  0  0  0  0  0  0
   60.0351   26.7088   45.8448 H   0  0  0  0  0  0  0  0  0  0  0  0
   59.0675   24.3915   45.6795 H   0  0  0  0  0  0  0  0  0  0  0  0
   56.0019   28.3728   45.9270 H   0  0  0  0  0  0  0  0  0  0  0  0
   57.7051   22.7296   44.7997 H   0  0  0  0  0  0  0  0  0  0  0  0
   57.1420   22.3268   46.4990 H   0  0  0  0  0  0  0  0  0  0  0  0
   55.4589   21.9841   44.0043 H   0  0  0  0  0  0  0  0  0  0  0  0
   56.4316   20.6812   44.7939 H   0  0  0  0  0  0  0  0  0  0  0  0
   54.4089   20.3272   45.8331 H   0  0  0  0  0  0  0  0  0  0  0  0
   55.1241   21.5360   46.9602 H   0  0  0  0  0  0  0  0  0  0  0  0
   59.5124   31.2886   47.7459 H   0  0  0  0  0  0  0  0  0  0  0  0
   60.3239   33.6433   47.7925 H   0  0  0  0  0  0  0  0  0  0  0  0
  1  2  1  0
  2  3  2  0
  3  4  1  0
  4  5  2  0
  5  6  1  0
  6  7  1  0
  7  8  2  0
  7  9  1  0
  9 10  2  0
 10 11  1  0
 11 12  2  0
 12 13  1  0
 13 14  2  0
 13 15  1  0
 15 16  2  0
 16 17  1  0
 17 18  1  0
 18 19  1  0
 19 20  1  0
 20 21  1  0
 21 22  1  0
 22 23  2  0
  5 24  1  0
 24 25  2  0
 25  2  1  0
 14  9  1  0
 22 16  1  0
 17 12  1  0
  1 26  1  0
  1 27  1  0
  1 28  1  0
  3 29  1  0
  4 30  1  0
  6 31  1  0
 10 32  1  0
 11 33  1  0
 14 34  1  0
 18 35  1  0
 18 36  1  0
 19 37  1  0
 19 38  1  0
 20 39  1  0
 20 40  1  0
 24 41  1  0
 25 42  1  0
M  CHG  1  21  -1
M  END
>  <UniqueID>  (29) 
25

>  <SMILES>  (29) 
Cc1ccc(NC(=O)c2ccc3c(c2)nc2n3CCC[N-]C2=O)cc1

>  <Energy>  (29) 
94.61369685026688

>  <Genealogy>  (29) 
Cc1ccc(NC(=O)c2ccc3c(c2)nc2n3CCC[N-]C2=O)cc1 (protonated)
Cc1ccc(NC(=O)c2ccc3c(c2)nc2n3CCC[N-]C2=O)cc1 (3D coordinates assigned)
Cc1ccc(NC(=O)c2ccc3c(c2)nc2n3CCC[N-]C2=O)cc1 (nonaromatic ring conformer: 94.61369685026688 kcal/mol)

>  <smiles>  (29) 
Cc1ccc(NC(=O)c2ccc3c(c2)nc2n3CCCNC2=O)cc1

>  <score_type>  (29) 
oracle

>  <origin>  (29) 
adg

>  <m_score__min__energy>  (29) 
-7.5099999999999998

>  <m_primary>  (29) 
energy

$$$$
30:0
     RDKit          3D

 37 38  0  0  0  0  0  0  0  0999 V2000
   54.3480   23.6160   46.4010 C   0  0  0  0  0  0  0  0  0  0  0  0
   55.6970   24.1520   46.1840 N   0  0  0  0  0  0  0  0  0  0  0  0
   56.8480   23.2430   46.1430 C   0  0  0  0  0  0  0  0  0  0  0  0
   55.8630   25.5760   46.0020 C   0  0  0  0  0  0  0  0  0  0  0  0
   54.8480   26.3260   45.9900 O   0  0  0  0  0  0  0  0  0  0  0  0
   57.2200   26.2100   45.8490 C   0  0  0  0  0  0  0  0  0  0  0  0
   57.1020   27.5450   45.2650 N   0  0  0  0  0  0  0  0  0  0  0  0
   58.2030   28.4690   45.2270 C   0  0  0  0  0  0  0  0  0  0  0  0
   59.3420   28.0960   45.6200 O   0  0  0  0  0  0  0  0  0  0  0  0
   58.0290   29.8500   44.7160 C   0  0  0  0  0  0  0  0  0  0  0  0
   57.3880   30.0960   43.4890 C   0  0  0  0  0  0  0  0  0  0  0  0
   57.2330   31.4020   43.0240 C   0  0  0  0  0  0  0  0  0  0  0  0
   57.7060   32.4790   43.7750 C   0  0  0  0  0  0  0  0  0  0  0  0
   58.3380   32.2620   45.0110 C   0  0  0  0  0  0  0  0  0  0  0  0
   58.8220   33.3750   45.7920 N   0  0  0  0  0  0  0  0  0  0  0  0
   59.2710   34.5550   45.3170 C   0  0  0  0  0  0  0  0  0  0  0  0
   59.6490   35.3710   46.3630 C   0  0  0  0  0  0  0  0  0  0  0  0
   59.4180   34.6590   47.5220 C   0  0  0  0  0  0  0  0  0  0  0  0
   58.9100   33.4360   47.1390 C   0  0  0  0  0  0  0  0  0  0  0  0
   58.4910   30.9410   45.4750 C   0  0  0  0  0  0  0  0  0  0  0  0
   54.1535   23.5387   47.4809 H   0  0  0  0  0  0  0  0  0  0  0  0
   53.6081   24.2885   45.9424 H   0  0  0  0  0  0  0  0  0  0  0  0
   54.2714   22.6191   45.9424 H   0  0  0  0  0  0  0  0  0  0  0  0
   57.1584   22.9979   47.1694 H   0  0  0  0  0  0  0  0  0  0  0  0
   56.5676   22.3200   45.6144 H   0  0  0  0  0  0  0  0  0  0  0  0
   57.6809   23.7297   45.6144 H   0  0  0  0  0  0  0  0  0  0  0  0
   57.6956   26.2888   46.8377 H   0  0  0  0  0  0  0  0  0  0  0  0
   57.8304   25.5839   45.1816 H   0  0  0  0  0  0  0  0  0  0  0  0
   56.1800   27.8160   44.8590 H   0  0  0  0  0  0  0  0  0  0  0  0
   57.0067   29.2541   42.8925 H   0  0  0  0  0  0  0  0  0  0  0  0
   56.7352   31.5840   42.0601 H   0  0  0  0  0  0  0  0  0  0  0  0
   57.5832   33.5046   43.3968 H   0  0  0  0  0  0  0  0  0  0  0  0
   59.3274   34.8265   44.2525 H   0  0  0  0  0  0  0  0  0  0  0  0
   60.0553   36.3904   46.2877 H   0  0  0  0  0  0  0  0  0  0  0  0
   59.6031   35.0006   48.5511 H   0  0  0  0  0  0  0  0  0  0  0  0
   58.6193   32.6292   47.8279 H   0  0  0  0  0  0  0  0  0  0  0  0
   58.9785   30.7597   46.4443 H   0  0  0  0  0  0  0  0  0  0  0  0
  1  2  1  0
  2  3  1  0
  2  4  1  0
  4  5  2  0
  4  6  1  0
  6  7  1  0
  7  8  1  0
  8  9  2  0
  8 10  1  0
 10 11  2  0
 11 12  1  0
 12 13  2  0
 13 14  1  0
 14 15  1  0
 15 16  1  0
 16 17  2  0
 17 18  1  0
 18 19  2  0
 14 20  2  0
 20 10  1  0
 19 15  1  0
  1 21  1  0
  1 22  1  0
  1 23  1  0
  3 24  1  0
  3 25  1  0
  3 26  1  0
  6 27  1  0
  6 28  1  0
  7 29  1  0
 11 30  1  0
 12 31  1  0
 13 32  1  0
 16 33  1  0
 17 34  1  0
 18 35  1  0
 19 36  1  0
 20 37  1  0
M  END
>  <UniqueID>  (30) 
26

>  <SMILES>  (30) 
CN(C)C(=O)CNC(=O)c1cccc(-n2cccc2)c1

>  <Energy>  (30) 
63.56404507454742

>  <Genealogy>  (30) 
CN(C)C(=O)CNC(=O)c1cccc(-n2cccc2)c1 (3D coordinates assigned)
CN(C)C(=O)CNC(=O)c1cccc(-n2cccc2)c1 (optimized conformer: 63.56404507454742 kcal/mol)

>  <smiles>  (30) 
CN(C)C(=O)CNC(=O)c1cccc(-n2cccc2)c1

>  <score_type>  (30) 
oracle

>  <origin>  (30) 
adg

>  <m_score__min__energy>  (30) 
-7.3300000000000001

>  <m_primary>  (30) 
energy

$$$$
31:0
     RDKit          3D

 58 60  0  0  0  0  0  0  0  0999 V2000
   58.3410   32.7230   48.3970 C   0  0  0  0  0  0  0  0  0  0  0  0
   59.1260   33.2470   47.2740 N   0  0  0  0  0  0  0  0  0  0  0  0
   58.6340   33.4240   46.0210 C   0  0  0  0  0  0  0  0  0  0  0  0
   57.3390   32.9220   45.5380 C   0  0  0  0  0  0  0  0  0  0  0  0
   56.3960   33.7410   45.3860 O   0  0  0  0  0  0  0  0  0  0  0  0
   57.0930   31.5330   45.2740 N   0  0  0  0  0  0  0  0  0  0  0  0
   57.4910   30.7290   44.1100 C   0  0  0  0  0  0  0  0  0  0  0  0
   57.6540   31.6950   42.9270 C   0  0  0  0  0  0  0  0  0  0  0  0
   56.4140   29.6840   43.7550 C   0  0  0  0  0  0  0  0  0  0  0  0
   58.8420   30.0380   44.3780 C   0  0  0  0  0  0  0  0  0  0  0  0
   59.5690   34.0160   45.2060 C   0  0  0  0  0  0  0  0  0  0  0  0
   60.6680   34.2520   45.9930 C   0  0  0  0  0  0  0  0  0  0  0  0
   60.3970   33.7510   47.2610 C   0  0  0  0  0  0  0  0  0  0  0  0
   61.4260   33.8650   48.4010 C   0  0  1  0  0  0  0  0  0  0  0  0
   61.0020   33.4730   49.8340 C   0  0  0  0  0  0  0  0  0  0  0  0
   61.0980   31.9520   50.1190 C   0  0  0  0  0  0  0  0  0  0  0  0
   61.2420   31.1460   48.8860 N   0  0  2  0  0  0  0  0  0  0  0  0
   61.2670   29.7030   49.2270 C   0  0  0  0  0  0  0  0  0  0  0  0
   60.2140   28.9300   48.4670 C   0  0  0  0  0  0  0  0  0  0  0  0
   59.1200   29.6030   47.9010 C   0  0  0  0  0  0  0  0  0  0  0  0
   58.1440   28.8950   47.1920 C   0  0  0  0  0  0  0  0  0  0  0  0
   58.2600   27.5090   47.0320 C   0  0  0  0  0  0  0  0  0  0  0  0
   57.2550   26.7790   46.3030 C   0  0  0  0  0  0  0  0  0  0  0  0
   56.4480   26.1920   45.7180 N   0  0  0  0  0  0  0  0  0  0  0  0
   59.3570   26.8340   47.5810 C   0  0  0  0  0  0  0  0  0  0  0  0
   60.3310   27.5410   48.2950 C   0  0  0  0  0  0  0  0  0  0  0  0
   62.4550   31.5330   48.1150 C   0  0  0  0  0  0  0  0  0  0  0  0
   62.7030   33.0590   48.0810 C   0  0  0  0  0  0  0  0  0  0  0  0
   58.8051   33.0328   49.3450 H   0  0  0  0  0  0  0  0  0  0  0  0
   57.3160   33.1186   48.3441 H   0  0  0  0  0  0  0  0  0  0  0  0
   58.3133   31.6246   48.3441 H   0  0  0  0  0  0  0  0  0  0  0  0
   57.8258   32.7132   43.3061 H   0  0  0  0  0  0  0  0  0  0  0  0
   58.5121   31.3824   42.3139 H   0  0  0  0  0  0  0  0  0  0  0  0
   56.7408   31.6812   42.3139 H   0  0  0  0  0  0  0  0  0  0  0  0
   55.9866   29.2693   44.6798 H   0  0  0  0  0  0  0  0  0  0  0  0
   55.6182   30.1632   43.1660 H   0  0  0  0  0  0  0  0  0  0  0  0
   56.8690   28.8741   43.1660 H   0  0  0  0  0  0  0  0  0  0  0  0
   59.0029   29.9557   45.4631 H   0  0  0  0  0  0  0  0  0  0  0  0
   58.8348   29.0329   43.9311 H   0  0  0  0  0  0  0  0  0  0  0  0
   59.6527   30.6321   43.9311 H   0  0  0  0  0  0  0  0  0  0  0  0
   59.4585   34.2530   44.1375 H   0  0  0  0  0  0  0  0  0  0  0  0
   61.5972   34.7488   45.6770 H   0  0  0  0  0  0  0  0  0  0  0  0
   61.5739   34.9547   48.4267 H   0  0  0  0  0  0  0  0  0  0  0  0
   59.9597   33.7897   49.9865 H   0  0  0  0  0  0  0  0  0  0  0  0
   61.6981   33.9735   50.5231 H   0  0  0  0  0  0  0  0  0  0  0  0
   60.1841   31.6340   50.6422 H   0  0  0  0  0  0  0  0  0  0  0  0
   61.9969   31.7855   50.7307 H   0  0  0  0  0  0  0  0  0  0  0  0
   60.3980   31.3070   48.2880 H   0  0  0  0  0  0  0  0  0  0  0  0
   62.2577   29.2951   48.9779 H   0  0  0  0  0  0  0  0  0  0  0  0
   61.0574   29.6013   50.3021 H   0  0  0  0  0  0  0  0  0  0  0  0
   59.0297   30.6933   48.0156 H   0  0  0  0  0  0  0  0  0  0  0  0
   57.2843   29.4279   46.7596 H   0  0  0  0  0  0  0  0  0  0  0  0
   59.4534   25.7460   47.4508 H   0  0  0  0  0  0  0  0  0  0  0  0
   61.1918   27.0067   48.7233 H   0  0  0  0  0  0  0  0  0  0  0  0
   62.3391   31.1759   47.0811 H   0  0  0  0  0  0  0  0  0  0  0  0
   63.3189   31.0758   48.6197 H   0  0  0  0  0  0  0  0  0  0  0  0
   63.0558   33.3382   47.0772 H   0  0  0  0  0  0  0  0  0  0  0  0
   63.4533   33.2962   48.8496 H   0  0  0  0  0  0  0  0  0  0  0  0
  1  2  1  0
  2  3  1  0
  3  4  1  0
  4  5  2  0
  4  6  1  0
  6  7  1  0
  7  8  1  0
  7  9  1  0
  7 10  1  0
  3 11  2  0
 11 12  1  0
 12 13  2  0
 13 14  1  0
 14 15  1  0
 15 16  1  0
 16 17  1  0
 17 18  1  0
 18 19  1  0
 19 20  2  0
 20 21  1  0
 21 22  2  0
 22 23  1  0
 23 24  3  0
 22 25  1  0
 25 26  2  0
 17 27  1  0
 27 28  1  0
 13  2  1  0
 28 14  1  0
 26 19  1  0
  1 29  1  0
  1 30  1  0
  1 31  1  0
  8 32  1  0
  8 33  1  0
  8 34  1  0
  9 35  1  0
  9 36  1  0
  9 37  1  0
 10 38  1  0
 10 39  1  0
 10 40  1  0
 11 41  1  0
 12 42  1  0
 14 43  1  1
 15 44  1  0
 15 45  1  0
 16 46  1  0
 16 47  1  0
 17 48  1  6
 18 49  1  0
 18 50  1  0
 20 51  1  0
 21 52  1  0
 25 53  1  0
 26 54  1  0
 27 55  1  0
 27 56  1  0
 28 57  1  0
 28 58  1  0
M  CHG  2   6  -1  17   1
M  END
>  <UniqueID>  (31) 
27

>  <SMILES>  (31) 
Cn1c(C(=O)[N-]C(C)(C)C)ccc1C1CC[NH+](Cc2ccc(C#N)cc2)CC1

>  <Energy>  (31) 
106.07417541585201

>  <Genealogy>  (31) 
Cn1c(C(=O)[N-]C(C)(C)C)ccc1C1CC[NH+](Cc2ccc(C#N)cc2)CC1 (protonated)
Cn1c(C(=O)[N-]C(C)(C)C)ccc1C1CC[NH+](Cc2ccc(C#N)cc2)CC1 (3D coordinates assigned)
Cn1c(C(=O)[N-]C(C)(C)C)ccc1C1CC[NH+](Cc2ccc(C#N)cc2)CC1 (nonaromatic ring conformer: 106.07417541585201 kcal/mol)

>  <smiles>  (31) 
Cn1c(C(=O)NC(C)(C)C)ccc1C1CCN(Cc2ccc(C#N)cc2)CC1

>  <score_type>  (31) 
oracle

>  <origin>  (31) 
adg

>  <m_score__min__energy>  (31) 
-8.1500000000000004

>  <m_primary>  (31) 
energy

$$$$
32:0
     RDKit          3D

 60 62  0  0  0  0  0  0  0  0999 V2000
   65.3490   33.0660   49.8050 C   0  0  0  0  0  0  0  0  0  0  0  0
   64.3750   31.9490   49.4310 C   0  0  0  0  0  0  0  0  0  0  0  0
   63.1430   32.4990   48.8160 N   0  0  0  0  0  0  0  0  0  0  0  0
   63.2160   32.4420   47.3370 C   0  0  0  0  0  0  0  0  0  0  0  0
   63.3510   33.8480   46.7580 C   0  0  0  0  0  0  0  0  0  0  0  0
   62.9020   33.8870   49.2790 C   0  0  0  0  0  0  0  0  0  0  0  0
   62.1080   33.9040   50.5940 C   0  0  0  0  0  0  0  0  0  0  0  0
   60.6670   33.8470   50.3360 N   0  0  0  0  0  0  0  0  0  0  0  0
   60.0870   33.7540   49.0230 C   0  0  0  0  0  0  0  0  0  0  0  0
   59.7810   34.9030   48.2720 C   0  0  0  0  0  0  0  0  0  0  0  0
   59.1810   34.7910   47.0150 C   0  0  0  0  0  0  0  0  0  0  0  0
   58.8960   33.5260   46.4830 C   0  0  0  0  0  0  0  0  0  0  0  0
   58.2860   33.3860   45.2300 C   0  0  0  0  0  0  0  0  0  0  0  0
   58.0200   32.1070   44.7250 C   0  0  0  0  0  0  0  0  0  0  0  0
   57.4110   31.9340   43.4750 C   0  0  0  0  0  0  0  0  0  0  0  0
   57.1600   30.6460   42.9910 C   0  0  0  0  0  0  0  0  0  0  0  0
   57.5120   29.5170   43.7430 C   0  0  0  0  0  0  0  0  0  0  0  0
   57.2400   28.2510   43.1980 O   0  0  0  0  0  0  0  0  0  0  0  0
   58.1670   27.1670   43.1190 C   0  0  0  0  0  0  0  0  0  0  0  0
   57.8070   26.0740   44.1330 C   0  0  0  0  0  0  0  0  0  0  0  0
   57.4050   26.6760   45.4220 N   0  0  0  0  0  0  0  0  0  0  0  0
   58.5330   26.6610   46.3670 C   0  0  0  0  0  0  0  0  0  0  0  0
   56.2650   25.9510   46.0100 C   0  0  0  0  0  0  0  0  0  0  0  0
   58.1270   29.6900   45.0000 C   0  0  0  0  0  0  0  0  0  0  0  0
   58.3770   30.9760   45.4910 C   0  0  0  0  0  0  0  0  0  0  0  0
   58.9670   31.1370   46.7050 N   0  0  0  0  0  0  0  0  0  0  0  0
   59.2330   32.3680   47.2170 C   0  0  0  0  0  0  0  0  0  0  0  0
   59.8320   32.4880   48.4750 C   0  0  0  0  0  0  0  0  0  0  0  0
   65.4159   33.1427   50.9003 H   0  0  0  0  0  0  0  0  0  0  0  0
   66.3430   32.8393   49.3919 H   0  0  0  0  0  0  0  0  0  0  0  0
   64.9891   34.0199   49.3919 H   0  0  0  0  0  0  0  0  0  0  0  0
   64.8629   31.2719   48.7144 H   0  0  0  0  0  0  0  0  0  0  0  0
   64.0965   31.4070   50.3468 H   0  0  0  0  0  0  0  0  0  0  0  0
   64.0887   31.8419   47.0397 H   0  0  0  0  0  0  0  0  0  0  0  0
   62.2937   31.9834   46.9509 H   0  0  0  0  0  0  0  0  0  0  0  0
   63.4210   34.5773   47.5785 H   0  0  0  0  0  0  0  0  0  0  0  0
   64.2587   33.9041   46.1391 H   0  0  0  0  0  0  0  0  0  0  0  0
   62.4706   34.0758   46.1391 H   0  0  0  0  0  0  0  0  0  0  0  0
   63.8697   34.3854   49.4377 H   0  0  0  0  0  0  0  0  0  0  0  0
   62.3158   34.4134   48.5114 H   0  0  0  0  0  0  0  0  0  0  0  0
   62.3996   33.0348   51.2019 H   0  0  0  0  0  0  0  0  0  0  0  0
   62.3325   34.8392   51.1278 H   0  0  0  0  0  0  0  0  0  0  0  0
   60.0300   34.0160   51.1460 H   0  0  0  0  0  0  0  0  0  0  0  0
   60.0159   35.8982   48.6775 H   0  0  0  0  0  0  0  0  0  0  0  0
   58.9321   35.6966   46.4424 H   0  0  0  0  0  0  0  0  0  0  0  0
   58.0168   34.2775   44.6446 H   0  0  0  0  0  0  0  0  0  0  0  0
   57.1302   32.8115   42.8741 H   0  0  0  0  0  0  0  0  0  0  0  0
   56.6810   30.5177   42.0091 H   0  0  0  0  0  0  0  0  0  0  0  0
   58.1407   26.7420   42.1047 H   0  0  0  0  0  0  0  0  0  0  0  0
   59.1746   27.5446   43.3473 H   0  0  0  0  0  0  0  0  0  0  0  0
   56.9738   25.4741   43.7381 H   0  0  0  0  0  0  0  0  0  0  0  0
   58.6885   25.4368   44.2974 H   0  0  0  0  0  0  0  0  0  0  0  0
   58.1481   26.6661   47.3975 H   0  0  0  0  0  0  0  0  0  0  0  0
   59.1351   25.7548   46.2050 H   0  0  0  0  0  0  0  0  0  0  0  0
   59.1590   27.5509   46.2050 H   0  0  0  0  0  0  0  0  0  0  0  0
   56.3305   25.9927   47.1073 H   0  0  0  0  0  0  0  0  0  0  0  0
   55.3247   26.4174   45.6809 H   0  0  0  0  0  0  0  0  0  0  0  0
   56.2887   24.9017   45.6809 H   0  0  0  0  0  0  0  0  0  0  0  0
   58.4112   28.8107   45.5967 H   0  0  0  0  0  0  0  0  0  0  0  0
   60.1050   31.5837   49.0386 H   0  0  0  0  0  0  0  0  0  0  0  0
  1  2  1  0
  2  3  1  0
  3  4  1  0
  4  5  1  0
  3  6  1  0
  6  7  1  0
  7  8  1  0
  8  9  1  0
  9 10  2  0
 10 11  1  0
 11 12  2  0
 12 13  1  0
 13 14  2  0
 14 15  1  0
 15 16  2  0
 16 17  1  0
 17 18  1  0
 18 19  1  0
 19 20  1  0
 20 21  1  0
 21 22  1  0
 21 23  1  0
 17 24  2  0
 24 25  1  0
 25 26  2  0
 26 27  1  0
 27 28  2  0
 28  9  1  0
 27 12  1  0
 25 14  1  0
  1 29  1  0
  1 30  1  0
  1 31  1  0
  2 32  1  0
  2 33  1  0
  4 34  1  0
  4 35  1  0
  5 36  1  0
  5 37  1  0
  5 38  1  0
  6 39  1  0
  6 40  1  0
  7 41  1  0
  7 42  1  0
  8 43  1  0
 10 44  1  0
 11 45  1  0
 13 46  1  0
 15 47  1  0
 16 48  1  0
 19 49  1  0
 19 50  1  0
 20 51  1  0
 20 52  1  0
 22 53  1  0
 22 54  1  0
 22 55  1  0
 23 56  1  0
 23 57  1  0
 23 58  1  0
 24 59  1  0
 28 60  1  0
M  END
>  <UniqueID>  (32) 
28

>  <SMILES>  (32) 
CCN(CC)CCNc1ccc2cc3ccc(OCCN(C)C)cc3nc2c1

>  <Energy>  (32) 
61.61270077382058

>  <Genealogy>  (32) 
CCN(CC)CCNc1ccc2cc3ccc(OCCN(C)C)cc3nc2c1 (3D coordinates assigned)
CCN(CC)CCNc1ccc2cc3ccc(OCCN(C)C)cc3nc2c1 (optimized conformer: 61.61270077382058 kcal/mol)

>  <smiles>  (32) 
CCN(CC)CCNc1ccc2cc3ccc(OCCN(C)C)cc3nc2c1

>  <score_type>  (32) 
oracle

>  <origin>  (32) 
adg

>  <m_score__min__energy>  (32) 
-7.6799999999999997

>  <m_primary>  (32) 
energy

$$$$
33:0
     RDKit          3D

 64 66  0  0  0  0  0  0  0  0999 V2000
   57.4120   21.1050   43.0200 C   0  0  0  0  0  0  0  0  0  0  0  0
   56.2850   21.8210   43.6390 N   0  0  0  0  0  0  0  0  0  0  0  0
   56.0620   23.1170   42.9800 C   0  0  0  0  0  0  0  0  0  0  0  0
   56.4240   21.9410   45.1090 C   0  0  0  0  0  0  0  0  0  0  0  0
   56.9860   23.2720   45.5670 C   0  0  0  0  0  0  0  0  0  0  0  0
   58.3650   23.5270   45.4780 C   0  0  0  0  0  0  0  0  0  0  0  0
   58.8900   24.7410   45.9250 C   0  0  0  0  0  0  0  0  0  0  0  0
   58.0470   25.7240   46.4720 C   0  0  0  0  0  0  0  0  0  0  0  0
   58.6080   26.9980   46.9770 C   0  0  0  0  0  0  0  0  0  0  0  0
   59.3630   27.0210   48.1580 C   0  0  0  0  0  0  0  0  0  0  0  0
   59.9220   28.2150   48.6180 C   0  0  0  0  0  0  0  0  0  0  0  0
   59.7350   29.4140   47.9070 C   0  0  0  0  0  0  0  0  0  0  0  0
   60.3030   30.6220   48.3460 O   0  0  0  0  0  0  0  0  0  0  0  0
   59.9430   31.2930   49.5520 C   0  0  0  0  0  0  0  0  0  0  0  0
   59.6020   32.7690   49.2630 C   0  0  0  0  0  0  0  0  0  0  0  0
   59.8190   33.2040   47.8610 N   0  0  0  0  0  0  0  0  0  0  0  0
   61.2220   33.5790   47.5950 C   0  0  0  0  0  0  0  0  0  0  0  0
   58.8990   34.2760   47.4460 C   0  0  0  0  0  0  0  0  0  0  0  0
   58.9740   29.3980   46.7200 C   0  0  0  0  0  0  0  0  0  0  0  0
   58.7280   30.8710   45.7620 S   0  0  0  0  0  0  0  0  0  0  0  0
   57.6710   31.7110   46.4250 O   0  0  0  0  0  0  0  0  0  0  0  0
   59.9960   31.6750   45.7320 O   0  0  0  0  0  0  0  0  0  0  0  0
   58.2290   30.5340   44.1200 N   0  0  0  0  0  0  0  0  0  0  0  0
   56.9530   29.8260   44.0580 C   0  0  0  0  0  0  0  0  0  0  0  0
   56.3820   30.1130   42.6800 C   0  0  0  0  0  0  0  0  0  0  0  0
   57.0560   31.4020   42.2320 C   0  0  0  0  0  0  0  0  0  0  0  0
   58.0280   31.7570   43.3470 C   0  0  0  0  0  0  0  0  0  0  0  0
   58.4140   28.1940   46.2690 C   0  0  0  0  0  0  0  0  0  0  0  0
   56.6650   25.4750   46.5460 C   0  0  0  0  0  0  0  0  0  0  0  0
   56.1390   24.2620   46.0920 C   0  0  0  0  0  0  0  0  0  0  0  0
   58.0610   20.6927   43.8067 H   0  0  0  0  0  0  0  0  0  0  0  0
   57.0271   20.2855   42.3953 H   0  0  0  0  0  0  0  0  0  0  0  0
   57.9903   21.8017   42.3953 H   0  0  0  0  0  0  0  0  0  0  0  0
   55.9276   23.8980   43.7429 H   0  0  0  0  0  0  0  0  0  0  0  0
   56.9309   23.3634   42.3521 H   0  0  0  0  0  0  0  0  0  0  0  0
   55.1607   23.0588   42.3521 H   0  0  0  0  0  0  0  0  0  0  0  0
   55.4304   21.8103   45.5625 H   0  0  0  0  0  0  0  0  0  0  0  0
   57.1385   21.1671   45.4260 H   0  0  0  0  0  0  0  0  0  0  0  0
   59.0353   22.7651   45.0534 H   0  0  0  0  0  0  0  0  0  0  0  0
   59.9710   24.9296   45.8486 H   0  0  0  0  0  0  0  0  0  0  0  0
   59.5161   26.0918   48.7264 H   0  0  0  0  0  0  0  0  0  0  0  0
   60.5141   28.2179   49.5450 H   0  0  0  0  0  0  0  0  0  0  0  0
   59.0660   30.7980   49.9946 H   0  0  0  0  0  0  0  0  0  0  0  0
   60.7917   31.2524   50.2507 H   0  0  0  0  0  0  0  0  0  0  0  0
   58.5416   32.9278   49.5085 H   0  0  0  0  0  0  0  0  0  0  0  0
   60.2895   33.3677   49.8786 H   0  0  0  0  0  0  0  0  0  0  0  0
   59.6090   32.3750   47.2560 H   0  0  0  0  0  0  0  0  0  0  0  0
   61.7509   33.7204   48.5491 H   0  0  0  0  0  0  0  0  0  0  0  0
   61.7121   32.7803   47.0189 H   0  0  0  0  0  0  0  0  0  0  0  0
   61.2483   34.5157   47.0189 H   0  0  0  0  0  0  0  0  0  0  0  0
   58.4795   34.7648   48.3377 H   0  0  0  0  0  0  0  0  0  0  0  0
   59.4466   35.0170   46.8451 H   0  0  0  0  0  0  0  0  0  0  0  0
   58.0835   33.8471   46.8451 H   0  0  0  0  0  0  0  0  0  0  0  0
   57.1088   28.7451   44.1897 H   0  0  0  0  0  0  0  0  0  0  0  0
   56.2697   30.1562   44.8543 H   0  0  0  0  0  0  0  0  0  0  0  0
   56.6174   29.2927   41.9859 H   0  0  0  0  0  0  0  0  0  0  0  0
   55.2861   30.2061   42.6992 H   0  0  0  0  0  0  0  0  0  0  0  0
   57.5954   31.2458   41.2862 H   0  0  0  0  0  0  0  0  0  0  0  0
   56.3260   32.2054   42.0539 H   0  0  0  0  0  0  0  0  0  0  0  0
   58.9832   32.1018   42.9243 H   0  0  0  0  0  0  0  0  0  0  0  0
   57.6348   32.5683   43.9771 H   0  0  0  0  0  0  0  0  0  0  0  0
   57.8141   28.1870   45.3470 H   0  0  0  0  0  0  0  0  0  0  0  0
   55.9936   26.2396   46.9638 H   0  0  0  0  0  0  0  0  0  0  0  0
   55.0552   24.0817   46.1462 H   0  0  0  0  0  0  0  0  0  0  0  0
  1  2  1  0
  2  3  1  0
  2  4  1  0
  4  5  1  0
  5  6  2  0
  6  7  1  0
  7  8  2  0
  8  9  1  0
  9 10  2  0
 10 11  1  0
 11 12  2  0
 12 13  1  0
 13 14  1  0
 14 15  1  0
 15 16  1  0
 16 17  1  0
 16 18  1  0
 12 19  1  0
 19 20  1  0
 20 21  2  0
 20 22  2  0
 20 23  1  0
 23 24  1  0
 24 25  1  0
 25 26  1  0
 26 27  1  0
 19 28  2  0
  8 29  1  0
 29 30  2  0
 30  5  1  0
 28  9  1  0
 27 23  1  0
  1 31  1  0
  1 32  1  0
  1 33  1  0
  3 34  1  0
  3 35  1  0
  3 36  1  0
  4 37  1  0
  4 38  1  0
  6 39  1  0
  7 40  1  0
 10 41  1  0
 11 42  1  0
 14 43  1  0
 14 44  1  0
 15 45  1  0
 15 46  1  0
 16 47  1  0
 17 48  1  0
 17 49  1  0
 17 50  1  0
 18 51  1  0
 18 52  1  0
 18 53  1  0
 24 54  1  0
 24 55  1  0
 25 56  1  0
 25 57  1  0
 26 58  1  0
 26 59  1  0
 27 60  1  0
 27 61  1  0
 28 62  1  0
 29 63  1  0
 30 64  1  0
M  CHG  1  16   1
M  END
>  <UniqueID>  (33) 
29

>  <SMILES>  (33) 
CN(C)Cc1ccc(-c2ccc(OCC[NH+](C)C)c(S(=O)(=O)N3CCCC3)c2)cc1

>  <Energy>  (33) 
74.13223352590984

>  <Genealogy>  (33) 
CN(C)Cc1ccc(-c2ccc(OCC[NH+](C)C)c(S(=O)(=O)N3CCCC3)c2)cc1 (protonated)
CN(C)Cc1ccc(-c2ccc(OCC[NH+](C)C)c(S(=O)(=O)N3CCCC3)c2)cc1 (3D coordinates assigned)
CN(C)Cc1ccc(-c2ccc(OCC[NH+](C)C)c(S(=O)(=O)N3CCCC3)c2)cc1 (nonaromatic ring conformer: 74.13223352590984 kcal/mol)

>  <smiles>  (33) 
CN(C)CCOc1ccc(-c2ccc(CN(C)C)cc2)cc1S(=O)(=O)N1CCCC1

>  <score_type>  (33) 
oracle

>  <origin>  (33) 
adg

>  <m_score__min__energy>  (33) 
-6.7000000000000002

>  <m_primary>  (33) 
energy

$$$$
34:0
     RDKit          3D

 40 41  0  0  0  0  0  0  0  0999 V2000
   59.0240   31.0770   47.0910 C   0  0  0  0  0  0  0  0  0  0  0  0
   58.4700   30.4390   45.8190 C   0  0  0  0  0  0  0  0  0  0  0  0
   57.3850   31.2600   45.2370 N   0  0  0  0  0  0  0  0  0  0  0  0
   57.2950   31.1040   43.7680 C   0  0  0  0  0  0  0  0  0  0  0  0
   56.2940   30.0090   43.4160 C   0  0  0  0  0  0  0  0  0  0  0  0
   57.4090   32.6830   45.6590 C   0  0  0  0  0  0  0  0  0  0  0  0
   57.7900   33.6800   44.5380 C   0  0  0  0  0  0  0  0  0  0  0  0
   58.8210   34.6290   44.9720 N   0  0  0  0  0  0  0  0  0  0  0  0
   59.6330   34.4300   46.1450 C   0  0  0  0  0  0  0  0  0  0  0  0
   59.1730   34.7740   47.4310 C   0  0  0  0  0  0  0  0  0  0  0  0
   59.9810   34.5720   48.5530 C   0  0  0  0  0  0  0  0  0  0  0  0
   61.2630   34.0230   48.4110 C   0  0  0  0  0  0  0  0  0  0  0  0
   62.0820   33.8170   49.5330 C   0  0  0  0  0  0  0  0  0  0  0  0
   63.3580   33.2690   49.3770 C   0  0  0  0  0  0  0  0  0  0  0  0
   63.8250   32.9220   48.1070 C   0  0  0  0  0  0  0  0  0  0  0  0
   63.0180   33.1230   46.9830 C   0  0  0  0  0  0  0  0  0  0  0  0
   61.7350   33.6720   47.1240 C   0  0  0  0  0  0  0  0  0  0  0  0
   60.9160   33.8780   46.0030 C   0  0  0  0  0  0  0  0  0  0  0  0
   58.5906   30.5779   47.9703 H   0  0  0  0  0  0  0  0  0  0  0  0
   60.1184   30.9675   47.1095 H   0  0  0  0  0  0  0  0  0  0  0  0
   58.7621   32.1452   47.1095 H   0  0  0  0  0  0  0  0  0  0  0  0
   59.2817   30.3432   45.0828 H   0  0  0  0  0  0  0  0  0  0  0  0
   58.0599   29.4510   46.0751 H   0  0  0  0  0  0  0  0  0  0  0  0
   56.9667   32.0540   43.3210 H   0  0  0  0  0  0  0  0  0  0  0  0
   58.2842   30.8265   43.3749 H   0  0  0  0  0  0  0  0  0  0  0  0
   55.8917   29.5690   44.3404 H   0  0  0  0  0  0  0  0  0  0  0  0
   55.4712   30.4400   42.8268 H   0  0  0  0  0  0  0  0  0  0  0  0
   56.7970   29.2280   42.8268 H   0  0  0  0  0  0  0  0  0  0  0  0
   56.4076   32.9484   46.0287 H   0  0  0  0  0  0  0  0  0  0  0  0
   58.1891   32.7669   46.4299 H   0  0  0  0  0  0  0  0  0  0  0  0
   58.1692   33.1146   43.6740 H   0  0  0  0  0  0  0  0  0  0  0  0
   56.8896   34.2543   44.2744 H   0  0  0  0  0  0  0  0  0  0  0  0
   58.9770   35.4990   44.4140 H   0  0  0  0  0  0  0  0  0  0  0  0
   58.1686   35.2056   47.5532 H   0  0  0  0  0  0  0  0  0  0  0  0
   59.6096   34.8449   49.5518 H   0  0  0  0  0  0  0  0  0  0  0  0
   61.7188   34.0872   50.5355 H   0  0  0  0  0  0  0  0  0  0  0  0
   63.9973   33.1102   50.2579 H   0  0  0  0  0  0  0  0  0  0  0  0
   64.8298   32.4897   47.9910 H   0  0  0  0  0  0  0  0  0  0  0  0
   63.3906   32.8497   45.9848 H   0  0  0  0  0  0  0  0  0  0  0  0
   61.2831   33.6041   45.0029 H   0  0  0  0  0  0  0  0  0  0  0  0
  1  2  1  0
  2  3  1  0
  3  4  1  0
  4  5  1  0
  3  6  1  0
  6  7  1  0
  7  8  1  0
  8  9  1  0
  9 10  2  0
 10 11  1  0
 11 12  2  0
 12 13  1  0
 13 14  2  0
 14 15  1  0
 15 16  2  0
 16 17  1  0
 17 18  2  0
 18  9  1  0
 17 12  1  0
  1 19  1  0
  1 20  1  0
  1 21  1  0
  2 22  1  0
  2 23  1  0
  4 24  1  0
  4 25  1  0
  5 26  1  0
  5 27  1  0
  5 28  1  0
  6 29  1  0
  6 30  1  0
  7 31  1  0
  7 32  1  0
  8 33  1  0
 10 34  1  0
 11 35  1  0
 13 36  1  0
 14 37  1  0
 15 38  1  0
 16 39  1  0
 18 40  1  0
M  END
>  <UniqueID>  (34) 
30

>  <SMILES>  (34) 
CCN(CC)CCNc1ccc2ccccc2c1

>  <Energy>  (34) 
43.745523498593585

>  <Genealogy>  (34) 
CCN(CC)CCNc1ccc2ccccc2c1 (3D coordinates assigned)
CCN(CC)CCNc1ccc2ccccc2c1 (optimized conformer: 43.745523498593585 kcal/mol)

>  <smiles>  (34) 
CCN(CC)CCNc1ccc2ccccc2c1

>  <score_type>  (34) 
oracle

>  <origin>  (34) 
adg

>  <m_score__min__energy>  (34) 
-6.6799999999999997

>  <m_primary>  (34) 
energy

$$$$
35:0
     RDKit          3D

 45 48  0  0  0  0  0  0  0  0999 V2000
   56.6450   30.7780   45.0770 O   0  0  0  0  0  0  0  0  0  0  0  0
   57.9700   31.4900   45.0270 S   0  0  0  0  0  0  0  0  0  0  0  0
   58.6690   31.0970   43.7560 O   0  0  0  0  0  0  0  0  0  0  0  0
   58.9730   30.9900   46.3880 C   0  0  0  0  0  0  0  0  0  0  0  0
   60.2470   30.4620   46.1520 C   0  0  0  0  0  0  0  0  0  0  0  0
   61.0620   30.0790   47.2210 C   0  0  0  0  0  0  0  0  0  0  0  0
   60.6130   30.2210   48.5490 C   0  0  0  0  0  0  0  0  0  0  0  0
   61.4390   29.8330   49.6650 N   0  0  0  0  0  0  0  0  0  0  0  0
   61.3260   28.7570   50.4710 C   0  0  0  0  0  0  0  0  0  0  0  0
   62.3060   28.7700   51.3960 N   0  0  0  0  0  0  0  0  0  0  0  0
   63.0010   29.8660   51.1310 N   0  0  0  0  0  0  0  0  0  0  0  0
   62.4900   30.5100   50.0960 N   0  0  0  0  0  0  0  0  0  0  0  0
   59.3310   30.7560   48.7750 C   0  0  0  0  0  0  0  0  0  0  0  0
   58.5190   31.1370   47.7040 C   0  0  0  0  0  0  0  0  0  0  0  0
   57.7230   33.2250   45.0320 N   0  0  0  0  0  0  0  0  0  0  0  0
   58.8440   33.9540   44.4100 C   0  0  0  0  0  0  0  0  0  0  0  0
   60.1230   33.8560   45.2510 C   0  0  0  0  0  0  0  0  0  0  0  0
   59.8280   34.0150   46.6800 N   0  0  0  0  0  0  0  0  0  0  0  0
   60.9060   33.9510   47.6340 C   0  0  0  0  0  0  0  0  0  0  0  0
   62.2220   33.7020   47.2060 C   0  0  0  0  0  0  0  0  0  0  0  0
   63.2680   33.6430   48.1320 C   0  0  0  0  0  0  0  0  0  0  0  0
   63.0120   33.8350   49.4930 C   0  0  0  0  0  0  0  0  0  0  0  0
   64.3270   33.7620   50.6530 Cl  0  0  0  0  0  0  0  0  0  0  0  0
   61.7080   34.0850   49.9290 C   0  0  0  0  0  0  0  0  0  0  0  0
   60.6590   34.1420   49.0060 C   0  0  0  0  0  0  0  0  0  0  0  0
   58.5050   34.5000   47.0910 C   0  0  0  0  0  0  0  0  0  0  0  0
   57.3760   33.7180   46.3860 C   0  0  0  0  0  0  0  0  0  0  0  0
   60.6092   30.3477   45.1196 H   0  0  0  0  0  0  0  0  0  0  0  0
   62.0613   29.6636   47.0241 H   0  0  0  0  0  0  0  0  0  0  0  0
   60.5487   27.9833   50.3857 H   0  0  0  0  0  0  0  0  0  0  0  0
   63.8390   30.1780   51.6680 H   0  0  0  0  0  0  0  0  0  0  0  0
   58.9647   30.8753   49.8053 H   0  0  0  0  0  0  0  0  0  0  0  0
   57.5193   31.5540   47.8955 H   0  0  0  0  0  0  0  0  0  0  0  0
   59.0383   33.5269   43.4151 H   0  0  0  0  0  0  0  0  0  0  0  0
   58.5633   35.0150   44.3364 H   0  0  0  0  0  0  0  0  0  0  0  0
   60.5865   32.8720   45.0870 H   0  0  0  0  0  0  0  0  0  0  0  0
   60.8066   34.6610   44.9432 H   0  0  0  0  0  0  0  0  0  0  0  0
   62.4299   33.5527   46.1362 H   0  0  0  0  0  0  0  0  0  0  0  0
   64.2943   33.4452   47.7890 H   0  0  0  0  0  0  0  0  0  0  0  0
   61.5065   34.2371   50.9996 H   0  0  0  0  0  0  0  0  0  0  0  0
   59.6342   34.3374   49.3548 H   0  0  0  0  0  0  0  0  0  0  0  0
   58.4005   34.3769   48.1791 H   0  0  0  0  0  0  0  0  0  0  0  0
   58.4212   35.5599   46.8090 H   0  0  0  0  0  0  0  0  0  0  0  0
   57.1162   32.8511   47.0112 H   0  0  0  0  0  0  0  0  0  0  0  0
   56.5403   34.4218   46.2582 H   0  0  0  0  0  0  0  0  0  0  0  0
  1  2  2  0
  2  3  2  0
  2  4  1  0
  4  5  2  0
  5  6  1  0
  6  7  2  0
  7  8  1  0
  8  9  1  0
  9 10  2  0
 10 11  1  0
 11 12  2  0
  7 13  1  0
 13 14  2  0
  2 15  1  0
 15 16  1  0
 16 17  1  0
 17 18  1  0
 18 19  1  0
 19 20  2  0
 20 21  1  0
 21 22  2  0
 22 23  1  0
 22 24  1  0
 24 25  2  0
 18 26  1  0
 26 27  1  0
 14  4  1  0
 27 15  1  0
 12  8  1  0
 25 19  1  0
  5 28  1  0
  6 29  1  0
  9 30  1  0
 11 31  1  0
 13 32  1  0
 14 33  1  0
 16 34  1  0
 16 35  1  0
 17 36  1  0
 17 37  1  0
 20 38  1  0
 21 39  1  0
 24 40  1  0
 25 41  1  0
 26 42  1  0
 26 43  1  0
 27 44  1  0
 27 45  1  0
M  CHG  1  11   1
M  END
>  <UniqueID>  (35) 
31

>  <SMILES>  (35) 
O=S(=O)(c1ccc(-n2cn[nH+]n2)cc1)N1CCN(c2ccc(Cl)cc2)CC1

>  <Energy>  (35) 
100.7137297837525

>  <Genealogy>  (35) 
O=S(=O)(c1ccc(-n2cn[nH+]n2)cc1)N1CCN(c2ccc(Cl)cc2)CC1 (protonated)
O=S(=O)(c1ccc(-n2cn[nH+]n2)cc1)N1CCN(c2ccc(Cl)cc2)CC1 (3D coordinates assigned)
O=S(=O)(c1ccc(-n2cn[nH+]n2)cc1)N1CCN(c2ccc(Cl)cc2)CC1 (nonaromatic ring conformer: 100.7137297837525 kcal/mol)

>  <smiles>  (35) 
O=S(=O)(c1ccc(-n2cnnn2)cc1)N1CCN(c2ccc(Cl)cc2)CC1

>  <score_type>  (35) 
oracle

>  <origin>  (35) 
adg

>  <m_score__min__energy>  (35) 
-7.9100000000000001

>  <m_primary>  (35) 
energy

$$$$
36:0
     RDKit          3D

 40 41  0  0  0  0  0  0  0  0999 V2000
   58.8040   32.1466   43.7814 H   0  0  0  0  0  0  0  0  0  0  0  0
   57.9370   31.7300   44.3150 C   0  0  0  0  0  0  0  0  0  0  0  0
   57.4120   30.4240   43.8490 C   0  0  0  0  0  0  0  0  0  0  0  0
   56.7820   30.3860   42.7580 O   0  0  0  0  0  0  0  0  0  0  0  0
   57.5630   29.1750   44.6360 C   0  0  0  0  0  0  0  0  0  0  0  0
   56.4300   28.5250   45.1640 C   0  0  0  0  0  0  0  0  0  0  0  0
   55.1490   28.9840   44.8750 O   0  0  0  0  0  0  0  0  0  0  0  0
   56.5790   27.4090   45.9890 C   0  0  0  0  0  0  0  0  0  0  0  0
   55.6890   26.9168   46.4080 H   0  0  0  0  0  0  0  0  0  0  0  0
   57.8580   26.9100   46.2880 C   0  0  0  0  0  0  0  0  0  0  0  0
   58.0570   25.8110   47.1350 O   0  0  0  0  0  0  0  0  0  0  0  0
   57.1230   24.7490   47.3070 C   0  0  0  0  0  0  0  0  0  0  0  0
   56.9653   24.5697   48.3808 H   0  0  0  0  0  0  0  0  0  0  0  0
   56.1669   25.0218   46.8365 H   0  0  0  0  0  0  0  0  0  0  0  0
   57.5157   23.8355   46.8365 H   0  0  0  0  0  0  0  0  0  0  0  0
   58.9810   27.5280   45.7290 C   0  0  0  0  0  0  0  0  0  0  0  0
   59.9824   27.1229   45.9365 H   0  0  0  0  0  0  0  0  0  0  0  0
   58.8480   28.6620   44.9040 C   0  0  0  0  0  0  0  0  0  0  0  0
   59.9690   29.3210   44.3690 O   0  0  0  0  0  0  0  0  0  0  0  0
   61.3170   28.9010   44.5530 C   0  0  0  0  0  0  0  0  0  0  0  0
   61.5362   28.8327   45.6288 H   0  0  0  0  0  0  0  0  0  0  0  0
   61.4609   27.9154   44.0862 H   0  0  0  0  0  0  0  0  0  0  0  0
   61.9953   29.6304   44.0862 H   0  0  0  0  0  0  0  0  0  0  0  0
   57.4380   32.4450   45.3370 C   0  0  0  0  0  0  0  0  0  0  0  0
   56.3461   32.4595   45.4696 H   0  0  0  0  0  0  0  0  0  0  0  0
   58.2590   33.2120   46.2930 C   0  0  0  0  0  0  0  0  0  0  0  0
   58.7630   34.4770   45.9550 C   0  0  0  0  0  0  0  0  0  0  0  0
   58.5029   34.9304   44.9871 H   0  0  0  0  0  0  0  0  0  0  0  0
   59.5940   35.1620   46.8440 C   0  0  0  0  0  0  0  0  0  0  0  0
   59.9926   36.1505   46.5722 H   0  0  0  0  0  0  0  0  0  0  0  0
   59.9200   34.5940   48.0780 C   0  0  0  0  0  0  0  0  0  0  0  0
   60.5865   35.1306   48.7693 H   0  0  0  0  0  0  0  0  0  0  0  0
   59.3990   33.3380   48.4400 C   0  0  0  0  0  0  0  0  0  0  0  0
   59.7060   32.7200   49.6620 O   0  0  0  0  0  0  0  0  0  0  0  0
   58.9210   32.8410   50.8430 C   0  0  0  0  0  0  0  0  0  0  0  0
   59.5693   32.7411   51.7260 H   0  0  0  0  0  0  0  0  0  0  0  0
   58.4303   33.8254   50.8579 H   0  0  0  0  0  0  0  0  0  0  0  0
   58.1567   32.0501   50.8579 H   0  0  0  0  0  0  0  0  0  0  0  0
   58.5500   32.6660   47.5510 C   0  0  0  0  0  0  0  0  0  0  0  0
   58.1080   31.7018   47.8425 H   0  0  0  0  0  0  0  0  0  0  0  0
  1  2  1  0
  2  3  1  0
  3  4  2  0
  3  5  1  0
  5  6  2  0
  6  7  1  0
  6  8  1  0
  8  9  1  0
  8 10  2  0
 10 11  1  0
 11 12  1  0
 12 13  1  0
 12 14  1  0
 12 15  1  0
 10 16  1  0
 16 17  1  0
 16 18  2  0
 18 19  1  0
 19 20  1  0
 20 21  1  0
 20 22  1  0
 20 23  1  0
  2 24  2  0
 24 25  1  0
 24 26  1  0
 26 27  2  0
 27 28  1  0
 27 29  1  0
 29 30  1  0
 29 31  2  0
 31 32  1  0
 31 33  1  0
 33 34  1  0
 34 35  1  0
 35 36  1  0
 35 37  1  0
 35 38  1  0
 33 39  2  0
 39 40  1  0
 18  5  1  0
 39 26  1  0
M  CHG  1   7  -1
M  END
>  <UniqueID>  (36) 
32

>  <SMILES>  (36) 
COc1cccc(/C=C\C(=O)c2c([O-])cc(OC)cc2OC)c1

>  <Energy>  (36) 
49.97549540224514

>  <Genealogy>  (36) 
COc1cccc(C=CC(=O)c2c([O-])cc(OC)cc2OC)c1 (protonated)
COc1cccc(/C=C\C(=O)c2c([O-])cc(OC)cc2OC)c1 (cis-trans isomerization)
COc1cccc(/C=C\C(=O)c2c([O-])cc(OC)cc2OC)c1 (3D coordinates assigned)
COc1cccc(/C=C\C(=O)c2c([O-])cc(OC)cc2OC)c1 (optimized conformer: 49.97549540224514 kcal/mol)

>  <smiles>  (36) 
COc1cccc(C=CC(=O)c2c(O)cc(OC)cc2OC)c1

>  <score_type>  (36) 
oracle

>  <origin>  (36) 
adg

>  <m_score__min__energy>  (36) 
-10.82

>  <m_primary>  (36) 
energy

$$$$
37:0
     RDKit          3D

 42 45  0  0  0  0  0  0  0  0999 V2000
   59.0370   34.2500   46.8640 C   0  0  0  0  0  0  0  0  0  0  0  0
   59.1610   34.4270   45.4850 C   0  0  0  0  0  0  0  0  0  0  0  0
   58.5860   33.5020   44.6110 C   0  0  0  0  0  0  0  0  0  0  0  0
   57.8830   32.4050   45.1350 C   0  0  0  0  0  0  0  0  0  0  0  0
   57.2370   31.3970   44.2170 C   0  0  0  0  0  0  0  0  0  0  0  0
   57.9840   30.1230   44.1260 N   0  0  0  0  0  0  0  0  0  0  0  0
   59.2120   30.0640   44.9510 C   0  0  0  0  0  0  0  0  0  0  0  0
   59.2340   28.8420   45.8750 C   0  0  0  0  0  0  0  0  0  0  0  0
   57.9910   28.7080   46.5300 O   0  0  0  0  0  0  0  0  0  0  0  0
   56.9470   28.3790   45.6220 C   0  0  2  0  0  0  0  0  0  0  0  0
   56.7000   26.8990   45.6230 C   0  0  0  0  0  0  0  0  0  0  0  0
   57.2820   26.0290   44.7750 N   0  0  0  0  0  0  0  0  0  0  0  0
   56.7180   24.8630   45.1580 C   0  0  0  0  0  0  0  0  0  0  0  0
   57.0210   23.5590   44.5320 C   0  0  0  0  0  0  0  0  0  0  0  0
   56.3640   23.1550   43.3590 C   0  0  0  0  0  0  0  0  0  0  0  0
   56.6630   21.9210   42.7790 C   0  0  0  0  0  0  0  0  0  0  0  0
   57.6170   21.0970   43.3760 C   0  0  0  0  0  0  0  0  0  0  0  0
   58.2490   21.4960   44.5130 N   0  0  0  0  0  0  0  0  0  0  0  0
   57.9750   22.6960   45.0970 C   0  0  0  0  0  0  0  0  0  0  0  0
   55.8440   25.0260   46.1710 N   0  0  0  0  0  0  0  0  0  0  0  0
   55.8590   26.2970   46.4270 O   0  0  0  0  0  0  0  0  0  0  0  0
   57.1470   28.9060   44.1720 C   0  0  0  0  0  0  0  0  0  0  0  0
   57.7830   32.2550   46.4850 N   0  0  0  0  0  0  0  0  0  0  0  0
   58.3380   33.1440   47.3500 C   0  0  0  0  0  0  0  0  0  0  0  0
   59.4853   34.9742   47.5601 H   0  0  0  0  0  0  0  0  0  0  0  0
   59.7104   35.2932   45.0876 H   0  0  0  0  0  0  0  0  0  0  0  0
   58.6828   33.6314   43.5229 H   0  0  0  0  0  0  0  0  0  0  0  0
   56.2253   31.1822   44.5915 H   0  0  0  0  0  0  0  0  0  0  0  0
   57.2219   31.8378   43.2093 H   0  0  0  0  0  0  0  0  0  0  0  0
   60.0849   30.0182   44.2832 H   0  0  0  0  0  0  0  0  0  0  0  0
   59.2362   30.9640   45.5830 H   0  0  0  0  0  0  0  0  0  0  0  0
   59.4307   27.9386   45.2791 H   0  0  0  0  0  0  0  0  0  0  0  0
   60.0256   28.9732   46.6274 H   0  0  0  0  0  0  0  0  0  0  0  0
   56.0582   28.9090   45.9950 H   0  0  0  0  0  0  0  0  0  0  0  0
   55.6126   23.8117   42.8963 H   0  0  0  0  0  0  0  0  0  0  0  0
   56.1509   21.6013   41.8595 H   0  0  0  0  0  0  0  0  0  0  0  0
   57.8589   20.1225   42.9267 H   0  0  0  0  0  0  0  0  0  0  0  0
   58.9600   20.8670   44.9480 H   0  0  0  0  0  0  0  0  0  0  0  0
   58.5034   22.9908   46.0156 H   0  0  0  0  0  0  0  0  0  0  0  0
   57.6325   28.1204   43.5743 H   0  0  0  0  0  0  0  0  0  0  0  0
   56.1566   29.1644   43.7692 H   0  0  0  0  0  0  0  0  0  0  0  0
   58.2362   32.9918   48.4347 H   0  0  0  0  0  0  0  0  0  0  0  0
  1  2  2  0
  2  3  1  0
  3  4  2  0
  4  5  1  0
  5  6  1  0
  6  7  1  0
  7  8  1  0
  8  9  1  0
  9 10  1  0
 10 11  1  0
 11 12  2  0
 12 13  1  0
 13 14  1  0
 14 15  2  0
 15 16  1  0
 16 17  2  0
 17 18  1  0
 18 19  2  0
 13 20  2  0
 20 21  1  0
 10 22  1  0
  4 23  1  0
 23 24  2  0
 24  1  1  0
 22  6  1  0
 21 11  1  0
 19 14  1  0
  1 25  1  0
  2 26  1  0
  3 27  1  0
  5 28  1  0
  5 29  1  0
  7 30  1  0
  7 31  1  0
  8 32  1  0
  8 33  1  0
 10 34  1  1
 15 35  1  0
 16 36  1  0
 17 37  1  0
 18 38  1  0
 19 39  1  0
 22 40  1  0
 22 41  1  0
 24 42  1  0
M  CHG  1  18   1
M  END
>  <UniqueID>  (37) 
33

>  <SMILES>  (37) 
c1ccc(CN2CCO[C@H](c3nc(-c4ccc[nH+]c4)no3)C2)nc1

>  <Energy>  (37) 
95.00333320484383

>  <Genealogy>  (37) 
c1ccc(CN2CCOC(c3nc(-c4ccc[nH+]c4)no3)C2)nc1 (protonated)
c1ccc(CN2CCO[C@H](c3nc(-c4ccc[nH+]c4)no3)C2)nc1 (chirality)
c1ccc(CN2CCO[C@H](c3nc(-c4ccc[nH+]c4)no3)C2)nc1 (3D coordinates assigned)
c1ccc(CN2CCO[C@H](c3nc(-c4ccc[nH+]c4)no3)C2)nc1 (nonaromatic ring conformer: 95.00333320484383 kcal/mol)

>  <smiles>  (37) 
c1ccc(CN2CCOC(c3nc(-c4cccnc4)no3)C2)nc1

>  <score_type>  (37) 
oracle

>  <origin>  (37) 
adg

>  <m_score__min__energy>  (37) 
-7.46

>  <m_primary>  (37) 
energy

$$$$
38:0
     RDKit          3D

 45 47  0  0  0  0  0  0  0  0999 V2000
   58.2760   27.5030   43.5500 C   0  0  0  0  0  0  0  0  0  0  0  0
   58.8180   27.8880   44.8090 O   0  0  0  0  0  0  0  0  0  0  0  0
   58.8370   29.2040   45.2950 C   0  0  0  0  0  0  0  0  0  0  0  0
   59.3230   29.5290   46.5700 C   0  0  0  0  0  0  0  0  0  0  0  0
   59.3270   30.8540   47.0130 C   0  0  0  0  0  0  0  0  0  0  0  0
   58.8540   31.8950   46.1860 C   0  0  0  0  0  0  0  0  0  0  0  0
   58.8630   33.2600   46.5970 C   0  0  0  0  0  0  0  0  0  0  0  0
   59.4310   33.6880   47.9450 C   0  0  0  0  0  0  0  0  0  0  0  0
   60.8560   34.0850   47.8580 N   0  0  0  0  0  0  0  0  0  0  0  0
   61.4290   33.7440   46.5240 C   0  0  0  0  0  0  0  0  0  0  0  0
   62.9630   33.9000   46.4150 C   0  0  0  0  0  0  0  0  0  0  0  0
   63.7600   32.9630   47.3530 C   0  0  0  0  0  0  0  0  0  0  0  0
   64.1110   33.6350   48.6230 N   0  0  0  0  0  0  0  0  0  0  0  0
   64.7460   32.6890   49.5530 C   0  0  0  0  0  0  0  0  0  0  0  0
   62.9450   34.2750   49.2720 C   0  0  0  0  0  0  0  0  0  0  0  0
   61.6040   33.5530   49.0220 C   0  0  0  0  0  0  0  0  0  0  0  0
   58.2650   34.2240   45.7560 C   0  0  0  0  0  0  0  0  0  0  0  0
   57.7550   33.8720   44.5080 C   0  0  0  0  0  0  0  0  0  0  0  0
   57.8020   32.5500   44.0780 C   0  0  0  0  0  0  0  0  0  0  0  0
   58.3360   31.5560   44.9070 C   0  0  0  0  0  0  0  0  0  0  0  0
   58.3430   30.2210   44.4740 C   0  0  0  0  0  0  0  0  0  0  0  0
   57.3888   26.8728   43.7100 H   0  0  0  0  0  0  0  0  0  0  0  0
   57.9901   28.4016   42.9836 H   0  0  0  0  0  0  0  0  0  0  0  0
   59.0304   26.9372   42.9836 H   0  0  0  0  0  0  0  0  0  0  0  0
   59.7044   28.7335   47.2270 H   0  0  0  0  0  0  0  0  0  0  0  0
   59.7037   31.0888   48.0195 H   0  0  0  0  0  0  0  0  0  0  0  0
   58.8484   34.5431   48.3183 H   0  0  0  0  0  0  0  0  0  0  0  0
   59.3642   32.8264   48.6256 H   0  0  0  0  0  0  0  0  0  0  0  0
   61.1753   32.6972   46.3007 H   0  0  0  0  0  0  0  0  0  0  0  0
   60.9948   34.4593   45.8100 H   0  0  0  0  0  0  0  0  0  0  0  0
   63.2596   33.6847   45.3778 H   0  0  0  0  0  0  0  0  0  0  0  0
   63.2000   34.9303   46.7187 H   0  0  0  0  0  0  0  0  0  0  0  0
   63.1486   32.0761   47.5754 H   0  0  0  0  0  0  0  0  0  0  0  0
   64.6931   32.6790   46.8444 H   0  0  0  0  0  0  0  0  0  0  0  0
   64.5388   32.9977   50.5883 H   0  0  0  0  0  0  0  0  0  0  0  0
   64.3413   31.6803   49.3831 H   0  0  0  0  0  0  0  0  0  0  0  0
   65.8328   32.6815   49.3831 H   0  0  0  0  0  0  0  0  0  0  0  0
   63.1255   34.3007   50.3568 H   0  0  0  0  0  0  0  0  0  0  0  0
   62.8499   35.2781   48.8308 H   0  0  0  0  0  0  0  0  0  0  0  0
   61.8097   32.4868   48.8463 H   0  0  0  0  0  0  0  0  0  0  0  0
   60.9776   33.7150   49.9116 H   0  0  0  0  0  0  0  0  0  0  0  0
   58.2008   35.2696   46.0915 H   0  0  0  0  0  0  0  0  0  0  0  0
   57.3132   34.6431   43.8598 H   0  0  0  0  0  0  0  0  0  0  0  0
   57.4179   32.2842   43.0821 H   0  0  0  0  0  0  0  0  0  0  0  0
   57.9546   29.9721   43.4754 H   0  0  0  0  0  0  0  0  0  0  0  0
  1  2  1  0
  2  3  1  0
  3  4  2  0
  4  5  1  0
  5  6  2  0
  6  7  1  0
  7  8  1  0
  8  9  1  0
  9 10  1  0
 10 11  1  0
 11 12  1  0
 12 13  1  0
 13 14  1  0
 13 15  1  0
 15 16  1  0
  7 17  2  0
 17 18  1  0
 18 19  2  0
 19 20  1  0
 20 21  2  0
 21  3  1  0
 20  6  1  0
 16  9  1  0
  1 22  1  0
  1 23  1  0
  1 24  1  0
  4 25  1  0
  5 26  1  0
  8 27  1  0
  8 28  1  0
 10 29  1  0
 10 30  1  0
 11 31  1  0
 11 32  1  0
 12 33  1  0
 12 34  1  0
 14 35  1  0
 14 36  1  0
 14 37  1  0
 15 38  1  0
 15 39  1  0
 16 40  1  0
 16 41  1  0
 17 42  1  0
 18 43  1  0
 19 44  1  0
 21 45  1  0
M  END
>  <UniqueID>  (38) 
34

>  <SMILES>  (38) 
COc1ccc2c(CN3CCCN(C)CC3)cccc2c1

>  <Energy>  (38) 
70.02918285123592

>  <Genealogy>  (38) 
COc1ccc2c(CN3CCCN(C)CC3)cccc2c1 (3D coordinates assigned)
COc1ccc2c(CN3CCCN(C)CC3)cccc2c1 (nonaromatic ring conformer: 70.02918285123592 kcal/mol)

>  <smiles>  (38) 
COc1ccc2c(CN3CCCN(C)CC3)cccc2c1

>  <score_type>  (38) 
oracle

>  <origin>  (38) 
adg

>  <m_score__min__energy>  (38) 
-5.0199999999999996

>  <m_primary>  (38) 
energy

$$$$
39:0
     RDKit          3D

 54 56  0  0  0  0  0  0  0  0999 V2000
   65.6181   34.2954   51.1172 H   0  0  0  0  0  0  0  0  0  0  0  0
   64.7950   33.7660   50.6150 C   0  0  0  0  0  0  0  0  0  0  0  0
   65.0750   32.7040   49.7440 C   0  0  0  0  0  0  0  0  0  0  0  0
   66.1168   32.3978   49.5682 H   0  0  0  0  0  0  0  0  0  0  0  0
   64.0310   32.0330   49.0980 C   0  0  0  0  0  0  0  0  0  0  0  0
   64.2561   31.1991   48.4169 H   0  0  0  0  0  0  0  0  0  0  0  0
   62.6880   32.4200   49.3150 C   0  0  0  0  0  0  0  0  0  0  0  0
   61.5730   31.6580   48.6820 C   0  0  0  0  0  0  0  0  0  0  0  0
   61.4520   30.3890   48.9420 N   0  0  0  0  0  0  0  0  0  0  0  0
   60.3180   29.8610   49.5150 O   0  0  0  0  0  0  0  0  0  0  0  0
   60.0360   28.4710   49.4360 C   0  0  0  0  0  0  0  0  0  0  0  0
   59.3221   28.2021   50.2285 H   0  0  0  0  0  0  0  0  0  0  0  0
   60.9753   27.9126   49.5618 H   0  0  0  0  0  0  0  0  0  0  0  0
   59.4300   28.1150   48.0700 C   0  0  0  0  0  0  0  0  0  0  0  0
   58.3341   28.1034   48.1639 H   0  0  0  0  0  0  0  0  0  0  0  0
   59.8249   27.1305   47.7788 H   0  0  0  0  0  0  0  0  0  0  0  0
   59.8060   29.0830   47.0020 N   0  0  1  0  0  0  0  0  0  0  0  0
   60.3870   29.8320   47.4540 H   0  0  0  0  0  0  0  0  0  0  0  0
   60.6370   28.4410   45.9380 C   0  0  0  0  0  0  0  0  0  0  0  0
   60.5299   27.3500   46.0283 H   0  0  0  0  0  0  0  0  0  0  0  0
   61.6706   28.7829   46.0956 H   0  0  0  0  0  0  0  0  0  0  0  0
   60.2520   28.8460   44.5060 C   0  0  0  0  0  0  0  0  0  0  0  0
   60.8795   28.2935   43.7912 H   0  0  0  0  0  0  0  0  0  0  0  0
   60.4081   29.9282   44.3853 H   0  0  0  0  0  0  0  0  0  0  0  0
   58.7760   28.5210   44.2410 C   0  0  0  0  0  0  0  0  0  0  0  0
   58.6785   27.4376   44.0777 H   0  0  0  0  0  0  0  0  0  0  0  0
   58.4635   29.0965   43.3572 H   0  0  0  0  0  0  0  0  0  0  0  0
   57.8490   28.9310   45.4180 C   0  0  2  0  0  0  0  0  0  0  0  0
   57.5206   28.0103   45.9225 H   0  0  0  0  0  0  0  0  0  0  0  0
   56.6220   29.6470   44.9070 C   0  0  0  0  0  0  0  0  0  0  0  0
   55.5000   29.0720   44.9060 O   0  0  0  0  0  0  0  0  0  0  0  0
   56.7180   30.9840   44.5070 O   0  0  0  0  0  0  0  0  0  0  0  0
   57.3270   31.3660   43.2770 C   0  0  0  0  0  0  0  0  0  0  0  0
   58.2422   31.9401   43.4838 H   0  0  0  0  0  0  0  0  0  0  0  0
   57.5817   30.4656   42.6988 H   0  0  0  0  0  0  0  0  0  0  0  0
   56.6272   31.9873   42.6988 H   0  0  0  0  0  0  0  0  0  0  0  0
   58.6010   29.7780   46.4710 C   0  0  0  0  0  0  0  0  0  0  0  0
   57.9183   29.9901   47.3070 H   0  0  0  0  0  0  0  0  0  0  0  0
   58.9363   30.7036   45.9801 H   0  0  0  0  0  0  0  0  0  0  0  0
   60.5390   32.3640   47.8760 C   0  0  0  0  0  0  0  0  0  0  0  0
   59.2030   32.3550   48.3050 C   0  0  0  0  0  0  0  0  0  0  0  0
   58.9424   31.8961   49.2701 H   0  0  0  0  0  0  0  0  0  0  0  0
   58.2030   32.9240   47.5160 C   0  0  0  0  0  0  0  0  0  0  0  0
   57.1576   32.9102   47.8579 H   0  0  0  0  0  0  0  0  0  0  0  0
   58.5300   33.5110   46.2920 C   0  0  0  0  0  0  0  0  0  0  0  0
   57.1550   34.2350   45.1890 Br  0  0  0  0  0  0  0  0  0  0  0  0
   59.8640   33.5450   45.8660 C   0  0  0  0  0  0  0  0  0  0  0  0
   60.1211   34.0092   44.9025 H   0  0  0  0  0  0  0  0  0  0  0  0
   60.8670   32.9910   46.6620 C   0  0  0  0  0  0  0  0  0  0  0  0
   61.9170   33.0452   46.3385 H   0  0  0  0  0  0  0  0  0  0  0  0
   62.4200   33.4910   50.1960 C   0  0  0  0  0  0  0  0  0  0  0  0
   61.3814   33.8072   50.3728 H   0  0  0  0  0  0  0  0  0  0  0  0
   63.4720   34.1540   50.8470 C   0  0  0  0  0  0  0  0  0  0  0  0
   63.2553   34.9798   51.5405 H   0  0  0  0  0  0  0  0  0  0  0  0
  1  2  1  0
  2  3  2  0
  3  4  1  0
  3  5  1  0
  5  6  1  0
  5  7  2  0
  7  8  1  0
  8  9  2  0
  9 10  1  0
 10 11  1  0
 11 12  1  0
 11 13  1  0
 11 14  1  0
 14 15  1  0
 14 16  1  0
 14 17  1  0
 17 18  1  1
 17 19  1  0
 19 20  1  0
 19 21  1  0
 19 22  1  0
 22 23  1  0
 22 24  1  0
 22 25  1  0
 25 26  1  0
 25 27  1  0
 25 28  1  0
 28 29  1  1
 28 30  1  0
 30 31  2  0
 30 32  1  0
 32 33  1  0
 33 34  1  0
 33 35  1  0
 33 36  1  0
 28 37  1  0
 37 38  1  0
 37 39  1  0
  8 40  1  0
 40 41  2  0
 41 42  1  0
 41 43  1  0
 43 44  1  0
 43 45  2  0
 45 46  1  0
 45 47  1  0
 47 48  1  0
 47 49  2  0
 49 50  1  0
  7 51  1  0
 51 52  1  0
 51 53  2  0
 53 54  1  0
 53  2  1  0
 37 17  1  0
 49 40  1  0
M  CHG  1  17   1
M  END
>  <UniqueID>  (39) 
35

>  <SMILES>  (39) 
COC(=O)[C@H]1CCC[N@H+](CCO/N=C(/c2ccccc2)c2ccc(Br)cc2)C1

>  <Energy>  (39) 
66.36366476960615

>  <Genealogy>  (39) 
COC(=O)C1CCC[NH+](CCON=C(c2ccccc2)c2ccc(Br)cc2)C1 (protonated)
COC(=O)[C@H]1CCC[N@H+](CCON=C(c2ccccc2)c2ccc(Br)cc2)C1 (chirality)
COC(=O)[C@H]1CCC[N@H+](CCO/N=C(/c2ccccc2)c2ccc(Br)cc2)C1 (cis-trans isomerization)
COC(=O)[C@H]1CCC[N@H+](CCO/N=C(/c2ccccc2)c2ccc(Br)cc2)C1 (3D coordinates assigned)
COC(=O)[C@H]1CCC[N@H+](CCO/N=C(/c2ccccc2)c2ccc(Br)cc2)C1 (nonaromatic ring conformer: 66.36366476960615 kcal/mol)

>  <smiles>  (39) 
COC(=O)C1CCCN(CCON=C(c2ccccc2)c2ccc(Br)cc2)C1

>  <score_type>  (39) 
oracle

>  <origin>  (39) 
adg

>  <m_score__min__energy>  (39) 
-7.0800000000000001

>  <m_primary>  (39) 
energy

$$$$
40:0
     RDKit          3D

 52 54  0  0  1  0  0  0  0  0999 V2000
   59.6740   34.1700   49.3760 C   0  0  0  0  0  0  0  0  0  0  0  0
   60.2900   34.5480   48.0530 C   0  0  0  0  0  0  0  0  0  0  0  0
   59.5750   34.1570   46.8830 N   0  0  0  0  0  0  0  0  0  0  0  0
   59.4010   35.1690   45.9640 N   0  0  0  0  0  0  0  0  0  0  0  0
   58.7350   34.8010   44.8900 C   0  0  0  0  0  0  0  0  0  0  0  0
   58.4280   33.4880   45.0560 C   0  0  0  0  0  0  0  0  0  0  0  0
   57.7780   32.6420   44.2760 N   0  0  0  0  0  0  0  0  0  0  0  0
   57.6050   31.3720   44.6550 C   0  0  0  0  0  0  0  0  0  0  0  0
   56.8890   30.3620   43.8430 C   0  0  0  0  0  0  0  0  0  0  0  0
   56.7590   30.8360   42.4180 C   0  0  0  0  0  0  0  0  0  0  0  0
   57.6040   29.0200   43.8090 C   0  0  0  0  0  0  0  0  0  0  0  0
   55.5240   30.0910   44.4240 C   0  0  0  0  0  0  0  0  0  0  0  0
   58.1120   31.0110   45.8410 N   0  0  0  0  0  0  0  0  0  0  0  0
   58.7750   31.8560   46.6490 C   0  0  0  0  0  0  0  0  0  0  0  0
   59.2190   31.4690   47.7110 N   0  0  0  0  0  0  0  0  0  0  0  0
   60.2950   30.9630   48.3170 C   0  0  0  0  0  0  0  0  0  0  0  0
   61.5650   30.8780   47.4120 C   0  0  0  0  0  0  0  0  0  0  0  0
   62.7350   31.3870   48.0520 N   0  0  0  0  0  0  0  0  0  0  0  0
   63.6340   32.0310   47.1010 C   0  0  0  0  0  0  0  0  0  0  0  0
   63.2130   33.4760   46.9540 C   0  0  0  0  0  0  0  0  0  0  0  0
   63.5400   34.2000   48.1030 O   0  0  0  0  0  0  0  0  0  0  0  0
   63.5160   33.3900   49.2340 C   0  0  0  0  0  0  0  0  0  0  0  0
   62.4570   32.3120   49.1300 C   0  0  0  0  0  0  0  0  0  0  0  0
   58.9790   33.1630   46.3050 C   0  0  0  0  0  0  0  0  0  0  0  0
   60.2999   34.5541   50.1950 H   0  0  0  0  0  0  0  0  0  0  0  0
   58.6666   34.6056   49.4492 H   0  0  0  0  0  0  0  0  0  0  0  0
   59.6061   33.0745   49.4492 H   0  0  0  0  0  0  0  0  0  0  0  0
   60.3912   35.6431   48.0323 H   0  0  0  0  0  0  0  0  0  0  0  0
   61.2427   33.9999   48.0085 H   0  0  0  0  0  0  0  0  0  0  0  0
   58.4774   35.4327   44.0271 H   0  0  0  0  0  0  0  0  0  0  0  0
   57.3830   32.9210   43.3520 H   0  0  0  0  0  0  0  0  0  0  0  0
   56.4681   31.8968   42.4095 H   0  0  0  0  0  0  0  0  0  0  0  0
   57.7232   30.7161   41.9023 H   0  0  0  0  0  0  0  0  0  0  0  0
   55.9909   30.2410   41.9023 H   0  0  0  0  0  0  0  0  0  0  0  0
   57.7873   28.6760   44.8376 H   0  0  0  0  0  0  0  0  0  0  0  0
   56.9783   28.2844   43.2824 H   0  0  0  0  0  0  0  0  0  0  0  0
   58.5636   29.1290   43.2824 H   0  0  0  0  0  0  0  0  0  0  0  0
   55.5840   30.1029   45.5223 H   0  0  0  0  0  0  0  0  0  0  0  0
   54.8213   30.8672   44.0867 H   0  0  0  0  0  0  0  0  0  0  0  0
   55.1711   29.1053   44.0867 H   0  0  0  0  0  0  0  0  0  0  0  0
   60.5320   31.5976   49.1837 H   0  0  0  0  0  0  0  0  0  0  0  0
   60.0403   29.9305   48.5983 H   0  0  0  0  0  0  0  0  0  0  0  0
   61.7388   29.8243   47.1483 H   0  0  0  0  0  0  0  0  0  0  0  0
   61.3791   31.4961   46.5213 H   0  0  0  0  0  0  0  0  0  0  0  0
   64.6677   31.9807   47.4736 H   0  0  0  0  0  0  0  0  0  0  0  0
   63.5850   31.5209   46.1277 H   0  0  0  0  0  0  0  0  0  0  0  0
   63.7294   33.9173   46.0888 H   0  0  0  0  0  0  0  0  0  0  0  0
   62.1237   33.5160   46.8062 H   0  0  0  0  0  0  0  0  0  0  0  0
   64.5000   32.9126   49.3513 H   0  0  0  0  0  0  0  0  0  0  0  0
   63.2776   34.0216   50.1025 H   0  0  0  0  0  0  0  0  0  0  0  0
   62.4224   31.7544   50.0775 H   0  0  0  0  0  0  0  0  0  0  0  0
   61.4928   32.7991   48.9222 H   0  0  0  0  0  0  0  0  0  0  0  0
  1  2  1  0
  2  3  1  0
  3  4  1  0
  4  5  2  0
  5  6  1  0
  6  7  1  0
  7  8  1  0
  8  9  1  0
  9 10  1  0
  9 11  1  0
  9 12  1  0
  8 13  2  0
 13 14  1  0
 14 15  2  0
 15 16  1  0
 16 17  1  0
 17 18  1  0
 18 19  1  0
 19 20  1  0
 20 21  1  0
 21 22  1  0
 22 23  1  0
 14 24  1  0
 24  3  1  0
 24  6  2  0
 23 18  1  0
  1 25  1  0
  1 26  1  0
  1 27  1  0
  2 28  1  0
  2 29  1  0
  5 30  1  0
  7 31  1  0
 10 32  1  0
 10 33  1  0
 10 34  1  0
 11 35  1  0
 11 36  1  0
 11 37  1  0
 12 38  1  0
 12 39  1  0
 12 40  1  0
 16 41  1  0
 16 42  1  0
 17 43  1  0
 17 44  1  0
 19 45  1  0
 19 46  1  0
 20 47  1  0
 20 48  1  0
 22 49  1  0
 22 50  1  0
 23 51  1  0
 23 52  1  0
M  END
>  <smiles>  (40) 
CCn1ncc2[nH]c(C(C)(C)C)nc(=NCCN3CCOCC3)c21

>  <score_type>  (40) 
oracle

>  <origin>  (40) 
adg

>  <m_score__min__energy>  (40) 
-7.0300000000000002

>  <m_primary>  (40) 
energy

$$$$
41:0
     RDKit          3D

 48 51  0  0  0  0  0  0  0  0999 V2000
   56.5610   30.0260   43.7460 C   0  0  0  0  0  0  0  0  0  0  0  0
   57.4550   29.0900   44.4980 C   0  0  0  0  0  0  0  0  0  0  0  0
   57.4020   27.7470   44.3740 N   0  0  0  0  0  0  0  0  0  0  0  0
   58.3400   27.2860   45.2210 C   0  0  0  0  0  0  0  0  0  0  0  0
   58.6570   25.9450   45.4380 C   0  0  0  0  0  0  0  0  0  0  0  0
   59.6800   25.6570   46.3520 C   0  0  0  0  0  0  0  0  0  0  0  0
   60.3590   26.6990   47.0080 C   0  0  0  0  0  0  0  0  0  0  0  0
   60.0010   28.0300   46.7490 C   0  0  0  0  0  0  0  0  0  0  0  0
   58.9860   28.2730   45.8730 N   0  0  0  0  0  0  0  0  0  0  0  0
   58.4380   29.4300   45.4310 C   0  0  0  0  0  0  0  0  0  0  0  0
   58.7860   30.7940   45.8890 C   0  0  0  0  0  0  0  0  0  0  0  0
   59.1230   31.0190   47.1860 N   0  0  0  0  0  0  0  0  0  0  0  0
   59.4230   32.2620   47.6490 C   0  0  0  0  0  0  0  0  0  0  0  0
   59.7700   32.4520   48.9940 O   0  0  0  0  0  0  0  0  0  0  0  0
   61.0880   32.2510   49.5030 C   0  0  0  0  0  0  0  0  0  0  0  0
   62.0340   33.3560   48.9890 C   0  0  0  0  0  0  0  0  0  0  0  0
   62.9790   32.9110   47.9400 N   0  0  0  0  0  0  0  0  0  0  0  0
   62.7060   31.5440   47.4690 C   0  0  0  0  0  0  0  0  0  0  0  0
   63.0780   33.8530   46.8140 C   0  0  0  0  0  0  0  0  0  0  0  0
   59.3840   33.3510   46.7660 C   0  0  0  0  0  0  0  0  0  0  0  0
   59.6820   34.6620   47.1770 C   0  0  0  0  0  0  0  0  0  0  0  0
   59.6250   35.7120   46.2540 C   0  0  0  0  0  0  0  0  0  0  0  0
   59.2720   35.4620   44.9240 C   0  0  0  0  0  0  0  0  0  0  0  0
   58.9730   34.1620   44.5090 C   0  0  0  0  0  0  0  0  0  0  0  0
   59.0290   33.1040   45.4230 C   0  0  0  0  0  0  0  0  0  0  0  0
   58.7380   31.8400   45.0220 N   0  0  0  0  0  0  0  0  0  0  0  0
   55.9822   30.6320   44.4585 H   0  0  0  0  0  0  0  0  0  0  0  0
   57.1714   30.6872   43.1134 H   0  0  0  0  0  0  0  0  0  0  0  0
   55.8725   29.4465   43.1134 H   0  0  0  0  0  0  0  0  0  0  0  0
   56.7680   27.1870   43.7600 H   0  0  0  0  0  0  0  0  0  0  0  0
   58.1227   25.1413   44.9101 H   0  0  0  0  0  0  0  0  0  0  0  0
   59.9528   24.6113   46.5570 H   0  0  0  0  0  0  0  0  0  0  0  0
   61.1661   26.4716   47.7200 H   0  0  0  0  0  0  0  0  0  0  0  0
   60.5282   28.8599   47.2424 H   0  0  0  0  0  0  0  0  0  0  0  0
   61.0608   32.2789   50.6023 H   0  0  0  0  0  0  0  0  0  0  0  0
   61.4591   31.2739   49.1602 H   0  0  0  0  0  0  0  0  0  0  0  0
   61.4202   34.1703   48.5765 H   0  0  0  0  0  0  0  0  0  0  0  0
   62.6439   33.6726   49.8480 H   0  0  0  0  0  0  0  0  0  0  0  0
   62.5730   30.8778   48.3342 H   0  0  0  0  0  0  0  0  0  0  0  0
   61.7897   31.5420   46.8604 H   0  0  0  0  0  0  0  0  0  0  0  0
   63.5512   31.1902   46.8604 H   0  0  0  0  0  0  0  0  0  0  0  0
   63.1856   34.8770   47.2010 H   0  0  0  0  0  0  0  0  0  0  0  0
   63.9544   33.5992   46.1996 H   0  0  0  0  0  0  0  0  0  0  0  0
   62.1680   33.7870   46.1996 H   0  0  0  0  0  0  0  0  0  0  0  0
   59.9595   34.8619   48.2225 H   0  0  0  0  0  0  0  0  0  0  0  0
   59.8586   36.7377   46.5755 H   0  0  0  0  0  0  0  0  0  0  0  0
   59.2297   36.2914   44.2026 H   0  0  0  0  0  0  0  0  0  0  0  0
   58.6933   33.9699   43.4626 H   0  0  0  0  0  0  0  0  0  0  0  0
  1  2  1  0
  2  3  1  0
  3  4  2  0
  4  5  1  0
  5  6  2  0
  6  7  1  0
  7  8  2  0
  8  9  1  0
  9 10  1  0
 10 11  1  0
 11 12  2  0
 12 13  1  0
 13 14  1  0
 14 15  1  0
 15 16  1  0
 16 17  1  0
 17 18  1  0
 17 19  1  0
 13 20  2  0
 20 21  1  0
 21 22  2  0
 22 23  1  0
 23 24  2  0
 24 25  1  0
 25 26  2  0
 10  2  2  0
 26 11  1  0
  9  4  1  0
 25 20  1  0
  1 27  1  0
  1 28  1  0
  1 29  1  0
  3 30  1  0
  5 31  1  0
  6 32  1  0
  7 33  1  0
  8 34  1  0
 15 35  1  0
 15 36  1  0
 16 37  1  0
 16 38  1  0
 18 39  1  0
 18 40  1  0
 18 41  1  0
 19 42  1  0
 19 43  1  0
 19 44  1  0
 21 45  1  0
 22 46  1  0
 23 47  1  0
 24 48  1  0
M  CHG  1   3   1
M  END
>  <UniqueID>  (41) 
36

>  <SMILES>  (41) 
Cc1[nH+]c2ccccn2c1-c1nc(OCCN(C)C)c2ccccc2n1

>  <Energy>  (41) 
92.2854951399323

>  <Genealogy>  (41) 
Cc1[nH+]c2ccccn2c1-c1nc(OCCN(C)C)c2ccccc2n1 (protonated)
Cc1[nH+]c2ccccn2c1-c1nc(OCCN(C)C)c2ccccc2n1 (3D coordinates assigned)
Cc1[nH+]c2ccccn2c1-c1nc(OCCN(C)C)c2ccccc2n1 (optimized conformer: 92.2854951399323 kcal/mol)

>  <smiles>  (41) 
Cc1nc2ccccn2c1-c1nc(OCCN(C)C)c2ccccc2n1

>  <score_type>  (41) 
oracle

>  <origin>  (41) 
adg

>  <m_score__min__energy>  (41) 
-6.9000000000000004

>  <m_primary>  (41) 
energy

$$$$
42:0
     RDKit          3D

 43 45  0  0  0  0  0  0  0  0999 V2000
   64.0790   32.1790   49.5910 C   0  0  0  0  0  0  0  0  0  0  0  0
   63.5800   32.8510   48.3810 N   0  0  0  0  0  0  0  0  0  0  0  0
   63.0150   34.1870   48.6960 C   0  0  0  0  0  0  0  0  0  0  0  0
   61.4790   34.1680   48.7990 C   0  0  0  0  0  0  0  0  0  0  0  0
   60.8320   33.6600   47.5570 N   0  0  0  0  0  0  0  0  0  0  0  0
   60.1930   34.7230   46.7410 C   0  0  0  0  0  0  0  0  0  0  0  0
   59.2720   34.2100   45.6070 C   0  0  0  0  0  0  0  0  0  0  0  0
   57.9370   33.6760   46.1460 C   0  0  0  0  0  0  0  0  0  0  0  0
   57.9330   32.2130   46.2110 N   0  0  0  0  0  0  0  0  0  0  0  0
   58.5230   31.4140   47.2380 C   0  0  0  0  0  0  0  0  0  0  0  0
   58.9760   31.8710   48.3220 O   0  0  0  0  0  0  0  0  0  0  0  0
   58.5360   30.0170   46.8370 C   0  0  0  0  0  0  0  0  0  0  0  0
   58.9790   29.0400   47.4950 O   0  0  0  0  0  0  0  0  0  0  0  0
   57.9440   29.9870   45.5100 C   0  0  0  0  0  0  0  0  0  0  0  0
   57.7280   28.9180   44.6420 C   0  0  0  0  0  0  0  0  0  0  0  0
   57.1490   29.1880   43.3920 C   0  0  0  0  0  0  0  0  0  0  0  0
   56.8030   30.5070   43.0350 C   0  0  0  0  0  0  0  0  0  0  0  0
   57.0310   31.5710   43.9240 C   0  0  0  0  0  0  0  0  0  0  0  0
   57.6060   31.2860   45.1670 C   0  0  0  0  0  0  0  0  0  0  0  0
   61.7060   32.7740   46.7450 C   0  0  0  0  0  0  0  0  0  0  0  0
   62.6490   31.9650   47.6430 C   0  0  0  0  0  0  0  0  0  0  0  0
   63.6949   32.6963   50.4825 H   0  0  0  0  0  0  0  0  0  0  0  0
   63.7365   31.1337   49.5976 H   0  0  0  0  0  0  0  0  0  0  0  0
   65.1787   32.2046   49.5976 H   0  0  0  0  0  0  0  0  0  0  0  0
   63.4288   34.5275   49.6566 H   0  0  0  0  0  0  0  0  0  0  0  0
   63.2866   34.8669   47.8750 H   0  0  0  0  0  0  0  0  0  0  0  0
   61.1894   33.5192   49.6388 H   0  0  0  0  0  0  0  0  0  0  0  0
   61.1407   35.2032   48.9536 H   0  0  0  0  0  0  0  0  0  0  0  0
   60.0380   33.0520   47.8760 H   0  0  0  0  0  0  0  0  0  0  0  0
   59.5904   35.3529   47.4119 H   0  0  0  0  0  0  0  0  0  0  0  0
   61.0120   35.2689   46.2498 H   0  0  0  0  0  0  0  0  0  0  0  0
   59.0685   35.0386   44.9128 H   0  0  0  0  0  0  0  0  0  0  0  0
   59.7883   33.3822   45.0989 H   0  0  0  0  0  0  0  0  0  0  0  0
   57.7719   34.0794   47.1559 H   0  0  0  0  0  0  0  0  0  0  0  0
   57.1360   33.9940   45.4624 H   0  0  0  0  0  0  0  0  0  0  0  0
   58.0033   27.8922   44.9283 H   0  0  0  0  0  0  0  0  0  0  0  0
   56.9641   28.3647   42.6863 H   0  0  0  0  0  0  0  0  0  0  0  0
   56.3506   30.7051   42.0521 H   0  0  0  0  0  0  0  0  0  0  0  0
   56.7640   32.6022   43.6494 H   0  0  0  0  0  0  0  0  0  0  0  0
   61.0780   32.0814   46.1654 H   0  0  0  0  0  0  0  0  0  0  0  0
   62.3113   33.3984   46.0714 H   0  0  0  0  0  0  0  0  0  0  0  0
   62.0509   31.3913   48.3663 H   0  0  0  0  0  0  0  0  0  0  0  0
   63.2414   31.2907   47.0070 H   0  0  0  0  0  0  0  0  0  0  0  0
  1  2  1  0
  2  3  1  0
  3  4  1  0
  4  5  1  0
  5  6  1  0
  6  7  1  0
  7  8  1  0
  8  9  1  0
  9 10  1  0
 10 11  2  0
 10 12  1  0
 12 13  2  0
 12 14  1  0
 14 15  2  0
 15 16  1  0
 16 17  2  0
 17 18  1  0
 18 19  2  0
  5 20  1  0
 20 21  1  0
 21  2  1  0
 19  9  1  0
 19 14  1  0
  1 22  1  0
  1 23  1  0
  1 24  1  0
  3 25  1  0
  3 26  1  0
  4 27  1  0
  4 28  1  0
  5 29  1  0
  6 30  1  0
  6 31  1  0
  7 32  1  0
  7 33  1  0
  8 34  1  0
  8 35  1  0
 15 36  1  0
 16 37  1  0
 17 38  1  0
 18 39  1  0
 20 40  1  0
 20 41  1  0
 21 42  1  0
 21 43  1  0
M  CHG  1   5   1
M  END
>  <UniqueID>  (42) 
37

>  <SMILES>  (42) 
CN1CC[NH+](CCCN2C(=O)C(=O)c3ccccc32)CC1

>  <Energy>  (42) 
87.43553063901717

>  <Genealogy>  (42) 
CN1CC[NH+](CCCN2C(=O)C(=O)c3ccccc32)CC1 (protonated)
CN1CC[NH+](CCCN2C(=O)C(=O)c3ccccc32)CC1 (3D coordinates assigned)
CN1CC[NH+](CCCN2C(=O)C(=O)c3ccccc32)CC1 (nonaromatic ring conformer: 87.43553063901717 kcal/mol)

>  <smiles>  (42) 
CN1CCN(CCCN2C(=O)C(=O)c3ccccc32)CC1

>  <score_type>  (42) 
oracle

>  <origin>  (42) 
adg

>  <m_score__min__energy>  (42) 
-6.1299999999999999

>  <m_primary>  (42) 
energy

$$$$
43:0
     RDKit          3D

 49 50  0  0  1  0  0  0  0  0999 V2000
   62.6190   33.1990   48.3700 C   0  0  0  0  0  0  0  0  0  0  0  0
   61.6770   32.0810   48.0990 C   0  0  0  0  0  0  0  0  0  0  0  0
   60.6190   31.8580   48.9540 C   0  0  0  0  0  0  0  0  0  0  0  0
   59.7000   30.8400   48.7710 C   0  0  0  0  0  0  0  0  0  0  0  0
   58.5970   30.6510   49.7150 C   0  0  0  0  0  0  0  0  0  0  0  0
   59.8220   29.9860   47.6850 C   0  0  0  0  0  0  0  0  0  0  0  0
   58.6760   28.6530   47.3730 S   0  0  0  0  0  0  0  0  0  0  0  0
   57.6030   28.9710   45.9520 C   0  0  1  0  0  0  0  0  0  0  0  0
   58.1980   29.9790   45.0370 C   0  0  0  0  0  0  0  0  0  0  0  0
   57.3850   31.2220   44.8490 C   0  0  0  0  0  0  0  0  0  0  0  0
   58.0020   32.4730   45.2620 C   0  0  0  0  0  0  0  0  0  0  0  0
   58.0000   32.8040   46.6050 C   0  0  0  0  0  0  0  0  0  0  0  0
   58.5760   33.9300   47.1130 C   0  0  0  0  0  0  0  0  0  0  0  0
   59.2130   34.8220   46.2590 C   0  0  0  0  0  0  0  0  0  0  0  0
   59.2370   34.5230   44.8980 C   0  0  0  0  0  0  0  0  0  0  0  0
   58.6410   33.3710   44.4180 C   0  0  0  0  0  0  0  0  0  0  0  0
   57.3820   27.6510   45.2630 C   0  0  0  0  0  0  0  0  0  0  0  0
   56.5170   26.7020   45.9960 C   0  0  0  0  0  0  0  0  0  0  0  0
   55.1310   26.7110   45.9510 O   0  0  0  0  0  0  0  0  0  0  0  0
   57.0390   25.7660   46.7560 N   0  0  0  0  0  0  0  0  0  0  0  0
   56.1650   24.8190   47.2300 O   0  0  0  0  0  0  0  0  0  0  0  0
   60.8910   30.2000   46.8070 C   0  0  0  0  0  0  0  0  0  0  0  0
   61.1210   29.3590   45.6150 C   0  0  0  0  0  0  0  0  0  0  0  0
   61.7980   31.2350   47.0220 C   0  0  0  0  0  0  0  0  0  0  0  0
   62.7295   33.3302   49.4565 H   0  0  0  0  0  0  0  0  0  0  0  0
   63.5990   32.9683   47.9270 H   0  0  0  0  0  0  0  0  0  0  0  0
   62.2254   34.1257   47.9270 H   0  0  0  0  0  0  0  0  0  0  0  0
   60.4996   32.5212   49.8235 H   0  0  0  0  0  0  0  0  0  0  0  0
   58.9799   30.7166   50.7441 H   0  0  0  0  0  0  0  0  0  0  0  0
   57.8395   31.4324   49.5551 H   0  0  0  0  0  0  0  0  0  0  0  0
   58.1429   29.6620   49.5551 H   0  0  0  0  0  0  0  0  0  0  0  0
   56.6423   29.3956   46.2787 H   0  0  0  0  0  0  0  0  0  0  0  0
   59.1783   30.2706   45.4419 H   0  0  0  0  0  0  0  0  0  0  0  0
   58.2582   29.4992   44.0490 H   0  0  0  0  0  0  0  0  0  0  0  0
   57.1457   31.3054   43.7786 H   0  0  0  0  0  0  0  0  0  0  0  0
   56.5113   31.0990   45.5059 H   0  0  0  0  0  0  0  0  0  0  0  0
   57.5033   32.1167   47.3057 H   0  0  0  0  0  0  0  0  0  0  0  0
   58.5368   34.1316   48.1937 H   0  0  0  0  0  0  0  0  0  0  0  0
   59.6846   35.7374   46.6459 H   0  0  0  0  0  0  0  0  0  0  0  0
   59.7351   35.2103   44.1984 H   0  0  0  0  0  0  0  0  0  0  0  0
   58.6742   33.1607   43.3388 H   0  0  0  0  0  0  0  0  0  0  0  0
   56.9192   27.8495   44.2851 H   0  0  0  0  0  0  0  0  0  0  0  0
   58.3700   27.1731   45.1889 H   0  0  0  0  0  0  0  0  0  0  0  0
   54.6250   25.9680   46.3840 H   0  0  0  0  0  0  0  0  0  0  0  0
   55.1640   24.8790   47.1520 H   0  0  0  0  0  0  0  0  0  0  0  0
   61.3989   28.3428   45.9313 H   0  0  0  0  0  0  0  0  0  0  0  0
   60.2014   29.3170   45.0129 H   0  0  0  0  0  0  0  0  0  0  0  0
   61.9340   29.7908   45.0129 H   0  0  0  0  0  0  0  0  0  0  0  0
   62.6286   31.3785   46.3152 H   0  0  0  0  0  0  0  0  0  0  0  0
  1  2  1  0
  2  3  2  0
  3  4  1  0
  4  5  1  0
  4  6  2  0
  6  7  1  0
  7  8  1  0
  8  9  1  0
  9 10  1  0
 10 11  1  0
 11 12  2  0
 12 13  1  0
 13 14  2  0
 14 15  1  0
 15 16  2  0
  8 17  1  0
 17 18  1  0
 18 19  1  0
 18 20  2  0
 20 21  1  0
  6 22  1  0
 22 23  1  0
 22 24  2  0
 24  2  1  0
 16 11  1  0
  1 25  1  0
  1 26  1  0
  1 27  1  0
  3 28  1  0
  5 29  1  0
  5 30  1  0
  5 31  1  0
  8 32  1  1
  9 33  1  0
  9 34  1  0
 10 35  1  0
 10 36  1  0
 12 37  1  0
 13 38  1  0
 14 39  1  0
 15 40  1  0
 16 41  1  0
 17 42  1  0
 17 43  1  0
 19 44  1  0
 21 45  1  0
 23 46  1  0
 23 47  1  0
 23 48  1  0
 24 49  1  0
M  END
>  <smiles>  (43) 
Cc1cc(C)c(SC(CCc2ccccc2)CC(O)=NO)c(C)c1

>  <score_type>  (43) 
oracle

>  <origin>  (43) 
adg

>  <m_score__min__energy>  (43) 
-9.0899999999999999

>  <m_primary>  (43) 
energy

$$$$
44:0
     RDKit          3D

 45 46  0  0  0  0  0  0  0  0999 V2000
   53.6510   24.2390   45.5800 C   0  0  0  0  0  0  0  0  0  0  0  0
   55.1010   24.5810   45.2550 C   0  0  0  0  0  0  0  0  0  0  0  0
   55.5200   25.7030   46.0070 O   0  0  0  0  0  0  0  0  0  0  0  0
   56.7990   25.4790   46.5640 C   0  0  0  0  0  0  0  0  0  0  0  0
   57.8570   25.6570   45.4760 C   0  0  0  0  0  0  0  0  0  0  0  0
   57.3890   26.5860   44.4330 N   0  0  0  0  0  0  0  0  0  0  0  0
   58.4630   27.4820   43.9710 C   0  0  0  0  0  0  0  0  0  0  0  0
   58.1860   28.9240   44.3260 C   0  0  0  0  0  0  0  0  0  0  0  0
   58.9580   29.5710   45.3020 C   0  0  0  0  0  0  0  0  0  0  0  0
   58.7250   30.9140   45.6120 C   0  0  0  0  0  0  0  0  0  0  0  0
   57.7150   31.6320   44.9440 C   0  0  0  0  0  0  0  0  0  0  0  0
   57.4460   32.9850   45.2080 O   0  0  0  0  0  0  0  0  0  0  0  0
   58.3860   34.0530   45.0790 C   0  0  0  0  0  0  0  0  0  0  0  0
   59.3570   34.0550   46.2300 C   0  0  0  0  0  0  0  0  0  0  0  0
   58.9100   34.2940   47.5400 C   0  0  0  0  0  0  0  0  0  0  0  0
   59.8180   34.3010   48.6040 C   0  0  0  0  0  0  0  0  0  0  0  0
   61.1770   34.0790   48.3660 C   0  0  0  0  0  0  0  0  0  0  0  0
   61.6330   33.8540   47.0640 C   0  0  0  0  0  0  0  0  0  0  0  0
   63.3400   33.5800   46.7660 Cl  0  0  0  0  0  0  0  0  0  0  0  0
   60.7270   33.8470   45.9970 C   0  0  0  0  0  0  0  0  0  0  0  0
   56.9440   30.9810   43.9750 C   0  0  0  0  0  0  0  0  0  0  0  0
   57.1770   29.6400   43.6630 C   0  0  0  0  0  0  0  0  0  0  0  0
   53.5175   24.2075   46.6714 H   0  0  0  0  0  0  0  0  0  0  0  0
   52.9886   25.0055   45.1515 H   0  0  0  0  0  0  0  0  0  0  0  0
   53.4009   23.2572   45.1515 H   0  0  0  0  0  0  0  0  0  0  0  0
   55.7407   23.7203   45.4999 H   0  0  0  0  0  0  0  0  0  0  0  0
   55.1819   24.8172   44.1837 H   0  0  0  0  0  0  0  0  0  0  0  0
   56.9792   26.2006   47.3745 H   0  0  0  0  0  0  0  0  0  0  0  0
   56.8527   24.4578   46.9693 H   0  0  0  0  0  0  0  0  0  0  0  0
   58.7755   26.0580   45.9293 H   0  0  0  0  0  0  0  0  0  0  0  0
   58.0520   24.6786   45.0127 H   0  0  0  0  0  0  0  0  0  0  0  0
   56.5840   27.1510   44.7940 H   0  0  0  0  0  0  0  0  0  0  0  0
   57.0570   26.0300   43.6090 H   0  0  0  0  0  0  0  0  0  0  0  0
   59.4088   27.1754   44.4416 H   0  0  0  0  0  0  0  0  0  0  0  0
   58.5221   27.4062   42.8752 H   0  0  0  0  0  0  0  0  0  0  0  0
   59.7514   29.0184   45.8265 H   0  0  0  0  0  0  0  0  0  0  0  0
   59.3335   31.4120   46.3813 H   0  0  0  0  0  0  0  0  0  0  0  0
   58.9427   33.9313   44.1381 H   0  0  0  0  0  0  0  0  0  0  0  0
   57.8375   35.0065   45.0798 H   0  0  0  0  0  0  0  0  0  0  0  0
   57.8420   34.4763   47.7299 H   0  0  0  0  0  0  0  0  0  0  0  0
   59.4620   34.4814   49.6290 H   0  0  0  0  0  0  0  0  0  0  0  0
   61.8889   34.0813   49.2045 H   0  0  0  0  0  0  0  0  0  0  0  0
   61.0889   33.6780   44.9721 H   0  0  0  0  0  0  0  0  0  0  0  0
   56.1465   31.5308   43.4538 H   0  0  0  0  0  0  0  0  0  0  0  0
   56.5672   29.1426   42.8944 H   0  0  0  0  0  0  0  0  0  0  0  0
  1  2  1  0
  2  3  1  0
  3  4  1  0
  4  5  1  0
  5  6  1  0
  6  7  1  0
  7  8  1  0
  8  9  2  0
  9 10  1  0
 10 11  2  0
 11 12  1  0
 12 13  1  0
 13 14  1  0
 14 15  2  0
 15 16  1  0
 16 17  2  0
 17 18  1  0
 18 19  1  0
 18 20  2  0
 11 21  1  0
 21 22  2  0
 22  8  1  0
 20 14  1  0
  1 23  1  0
  1 24  1  0
  1 25  1  0
  2 26  1  0
  2 27  1  0
  4 28  1  0
  4 29  1  0
  5 30  1  0
  5 31  1  0
  6 32  1  0
  6 33  1  0
  7 34  1  0
  7 35  1  0
  9 36  1  0
 10 37  1  0
 13 38  1  0
 13 39  1  0
 15 40  1  0
 16 41  1  0
 17 42  1  0
 20 43  1  0
 21 44  1  0
 22 45  1  0
M  CHG  1   6   1
M  END
>  <UniqueID>  (44) 
38

>  <SMILES>  (44) 
CCOCC[NH2+]Cc1ccc(OCc2cccc(Cl)c2)cc1

>  <Energy>  (44) 
41.003892156023014

>  <Genealogy>  (44) 
CCOCC[NH2+]Cc1ccc(OCc2cccc(Cl)c2)cc1 (protonated)
CCOCC[NH2+]Cc1ccc(OCc2cccc(Cl)c2)cc1 (3D coordinates assigned)
CCOCC[NH2+]Cc1ccc(OCc2cccc(Cl)c2)cc1 (optimized conformer: 41.003892156023014 kcal/mol)

>  <smiles>  (44) 
CCOCCNCc1ccc(OCc2cccc(Cl)c2)cc1

>  <score_type>  (44) 
oracle

>  <origin>  (44) 
adg

>  <m_score__min__energy>  (44) 
-6.5899999999999999

>  <m_primary>  (44) 
energy

$$$$
