0:0
     RDKit          3D

103106  0  0  0  0  0  0  0  0999 V2000
   56.6450   29.5680   44.7100 C   0  0  0  0  0  0  0  0  0  0  0  0
   56.9890   30.2580   43.3910 C   0  0  0  0  0  0  0  0  0  0  0  0
   57.3190   31.6880   43.5940 N   0  0  0  0  0  0  0  0  0  0  0  0
   58.1230   32.3230   42.5210 C   0  0  0  0  0  0  0  0  0  0  0  0
   57.4340   32.3540   41.1550 C   0  0  0  0  0  0  0  0  0  0  0  0
   57.7210   32.0550   44.9740 C   0  0  0  0  0  0  0  0  0  0  0  0
   56.9070   33.2120   45.5970 C   0  0  0  0  0  0  0  0  0  0  0  0
   57.7930   34.2990   46.0220 N   0  0  0  0  0  0  0  0  0  0  0  0
   59.0970   34.0750   46.5940 C   0  0  0  0  0  0  0  0  0  0  0  0
   60.2250   33.8480   45.7930 C   0  0  0  0  0  0  0  0  0  0  0  0
   61.4780   33.6470   46.3710 C   0  0  0  0  0  0  0  0  0  0  0  0
   61.6510   33.6690   47.7780 C   0  0  0  0  0  0  0  0  0  0  0  0
   60.4990   33.8410   48.5890 C   0  0  0  0  0  0  0  0  0  0  0  0
   59.2440   34.0660   47.9860 C   0  0  0  0  0  0  0  0  0  0  0  0
   60.6170   33.7570   49.9860 C   0  0  0  0  0  0  0  0  0  0  0  0
   59.4460   33.8570   50.8110 N   0  0  0  0  0  0  0  0  0  0  0  0
   58.5710   32.6940   50.9670 C   0  0  0  0  0  0  0  0  0  0  0  0
   59.3540   31.4680   51.4390 C   0  0  0  0  0  0  0  0  0  0  0  0
   59.5880   30.5620   50.2900 N   0  0  0  0  0  0  0  0  0  0  0  0
   61.0290   30.2680   50.0810 C   0  0  0  0  0  0  0  0  0  0  0  0
   61.7410   29.6800   51.3070 C   0  0  0  0  0  0  0  0  0  0  0  0
   58.8520   30.9850   49.0760 C   0  0  0  0  0  0  0  0  0  0  0  0
   59.5470   30.5160   47.7970 C   0  0  0  0  0  0  0  0  0  0  0  0
   61.8650   33.4670   50.5610 C   0  0  0  0  0  0  0  0  0  0  0  0
   62.0010   33.3460   51.9570 C   0  0  0  0  0  0  0  0  0  0  0  0
   63.2190   32.9920   52.5230 C   0  0  0  0  0  0  0  0  0  0  0  0
   64.3270   32.7320   51.7220 C   0  0  0  0  0  0  0  0  0  0  0  0
   65.5170   32.3410   52.3590 O   0  0  0  0  0  0  0  0  0  0  0  0
   65.7210   31.1250   53.0800 C   0  0  0  0  0  0  0  0  0  0  0  0
   65.5490   29.9090   52.1390 C   0  0  0  0  0  0  0  0  0  0  0  0
   66.4590   28.7480   52.4070 N   0  0  0  0  0  0  0  0  0  0  0  0
   66.5060   28.4870   53.8730 C   0  0  0  0  0  0  0  0  0  0  0  0
   67.8150   29.1470   51.9190 C   0  0  0  0  0  0  0  0  0  0  0  0
   68.8360   27.9890   51.8810 C   0  0  0  0  0  0  0  0  0  0  0  0
   68.3450   26.7920   51.1460 N   0  0  0  0  0  0  0  0  0  0  0  0
   68.3050   27.0440   49.6810 C   0  0  0  0  0  0  0  0  0  0  0  0
   69.2930   25.6740   51.3830 C   0  0  0  0  0  0  0  0  0  0  0  0
   67.0070   26.3880   51.6510 C   0  0  0  0  0  0  0  0  0  0  0  0
   65.9830   27.5460   51.6640 C   0  0  0  0  0  0  0  0  0  0  0  0
   64.2100   32.8620   50.3260 C   0  0  0  0  0  0  0  0  0  0  0  0
   62.9970   33.2860   49.7250 C   0  0  0  0  0  0  0  0  0  0  0  0
   62.8940   33.5030   48.3620 N   0  0  0  0  0  0  0  0  0  0  0  0
   64.1190   33.5960   47.5340 C   0  0  0  0  0  0  0  0  0  0  0  0
   56.9619   30.2037   45.5499 H   0  0  0  0  0  0  0  0  0  0  0  0
   55.5589   29.4025   44.7649 H   0  0  0  0  0  0  0  0  0  0  0  0
   57.1665   28.6010   44.7649 H   0  0  0  0  0  0  0  0  0  0  0  0
   57.8549   29.7524   42.9388 H   0  0  0  0  0  0  0  0  0  0  0  0
   56.1107   30.1976   42.7316 H   0  0  0  0  0  0  0  0  0  0  0  0
   58.3414   33.3586   42.8207 H   0  0  0  0  0  0  0  0  0  0  0  0
   59.0306   31.7127   42.4032 H   0  0  0  0  0  0  0  0  0  0  0  0
   56.3441   32.4030   41.2951 H   0  0  0  0  0  0  0  0  0  0  0  0
   57.7717   33.2379   40.5940 H   0  0  0  0  0  0  0  0  0  0  0  0
   57.6910   31.4434   40.5940 H   0  0  0  0  0  0  0  0  0  0  0  0
   57.6006   31.1681   45.6134 H   0  0  0  0  0  0  0  0  0  0  0  0
   58.7619   32.4052   44.9119 H   0  0  0  0  0  0  0  0  0  0  0  0
   56.1964   33.5964   44.8504 H   0  0  0  0  0  0  0  0  0  0  0  0
   56.3677   32.8311   46.4768 H   0  0  0  0  0  0  0  0  0  0  0  0
   57.4480   35.2860   45.9540 H   0  0  0  0  0  0  0  0  0  0  0  0
   60.1206   33.8283   44.6981 H   0  0  0  0  0  0  0  0  0  0  0  0
   62.3487   33.4680   45.7230 H   0  0  0  0  0  0  0  0  0  0  0  0
   58.3633   34.2378   48.6222 H   0  0  0  0  0  0  0  0  0  0  0  0
   59.1270   34.8070   51.1060 H   0  0  0  0  0  0  0  0  0  0  0  0
   57.7921   32.9285   51.7075 H   0  0  0  0  0  0  0  0  0  0  0  0
   58.1223   32.4638   49.9894 H   0  0  0  0  0  0  0  0  0  0  0  0
   60.3199   31.7878   51.8570 H   0  0  0  0  0  0  0  0  0  0  0  0
   58.7780   30.9393   52.2128 H   0  0  0  0  0  0  0  0  0  0  0  0
   61.1167   29.5479   49.2541 H   0  0  0  0  0  0  0  0  0  0  0  0
   61.5174   31.2299   49.8660 H   0  0  0  0  0  0  0  0  0  0  0  0
   61.2723   30.0670   52.2238 H   0  0  0  0  0  0  0  0  0  0  0  0
   61.6586   28.5833   51.2879 H   0  0  0  0  0  0  0  0  0  0  0  0
   62.8024   29.9683   51.2879 H   0  0  0  0  0  0  0  0  0  0  0  0
   57.8387   30.5582   49.1074 H   0  0  0  0  0  0  0  0  0  0  0  0
   58.8183   32.0844   49.0628 H   0  0  0  0  0  0  0  0  0  0  0  0
   60.4326   29.9184   48.0589 H   0  0  0  0  0  0  0  0  0  0  0  0
   58.8518   29.9016   47.2061 H   0  0  0  0  0  0  0  0  0  0  0  0
   59.8566   31.3906   47.2061 H   0  0  0  0  0  0  0  0  0  0  0  0
   61.1333   33.5338   52.6065 H   0  0  0  0  0  0  0  0  0  0  0  0
   63.3089   32.9163   53.6167 H   0  0  0  0  0  0  0  0  0  0  0  0
   66.7376   31.1181   53.5001 H   0  0  0  0  0  0  0  0  0  0  0  0
   64.9790   31.0595   53.8894 H   0  0  0  0  0  0  0  0  0  0  0  0
   64.5119   29.5542   52.2308 H   0  0  0  0  0  0  0  0  0  0  0  0
   65.8089   30.2686   51.1324 H   0  0  0  0  0  0  0  0  0  0  0  0
   66.3367   29.4271   54.4184 H   0  0  0  0  0  0  0  0  0  0  0  0
   65.7241   27.7614   54.1415 H   0  0  0  0  0  0  0  0  0  0  0  0
   67.4919   28.0797   54.1415 H   0  0  0  0  0  0  0  0  0  0  0  0
   67.7112   29.5499   50.9007 H   0  0  0  0  0  0  0  0  0  0  0  0
   68.2033   29.8897   52.6315 H   0  0  0  0  0  0  0  0  0  0  0  0
   69.7524   28.3481   51.3898 H   0  0  0  0  0  0  0  0  0  0  0  0
   69.0155   27.6801   52.9214 H   0  0  0  0  0  0  0  0  0  0  0  0
   68.1350   28.1152   49.4977 H   0  0  0  0  0  0  0  0  0  0  0  0
   69.2623   26.7424   49.2308 H   0  0  0  0  0  0  0  0  0  0  0  0
   67.4882   26.4608   49.2308 H   0  0  0  0  0  0  0  0  0  0  0  0
   69.4200   25.5242   52.4653 H   0  0  0  0  0  0  0  0  0  0  0  0
   68.8956   24.7539   50.9296 H   0  0  0  0  0  0  0  0  0  0  0  0
   70.2657   25.9157   50.9296 H   0  0  0  0  0  0  0  0  0  0  0  0
   66.6184   25.5855   51.0068 H   0  0  0  0  0  0  0  0  0  0  0  0
   67.1379   26.0572   52.6919 H   0  0  0  0  0  0  0  0  0  0  0  0
   65.7741   27.8386   50.6244 H   0  0  0  0  0  0  0  0  0  0  0  0
   65.0840   27.1792   52.1809 H   0  0  0  0  0  0  0  0  0  0  0  0
   65.0758   32.6304   49.6883 H   0  0  0  0  0  0  0  0  0  0  0  0
   65.0001   33.6629   48.1891 H   0  0  0  0  0  0  0  0  0  0  0  0
   64.2012   32.7015   46.8991 H   0  0  0  0  0  0  0  0  0  0  0  0
   64.0652   34.4926   46.8991 H   0  0  0  0  0  0  0  0  0  0  0  0
  1  2  1  0
  2  3  1  0
  3  4  1  0
  4  5  1  0
  3  6  1  0
  6  7  1  0
  7  8  1  0
  8  9  1  0
  9 10  2  0
 10 11  1  0
 11 12  2  0
 12 13  1  0
 13 14  2  0
 13 15  1  0
 15 16  1  0
 16 17  1  0
 17 18  1  0
 18 19  1  0
 19 20  1  0
 20 21  1  0
 19 22  1  0
 22 23  1  0
 15 24  2  0
 24 25  1  0
 25 26  2  0
 26 27  1  0
 27 28  1  0
 28 29  1  0
 29 30  1  0
 30 31  1  0
 31 32  1  0
 31 33  1  0
 33 34  1  0
 34 35  1  0
 35 36  1  0
 35 37  1  0
 35 38  1  0
 38 39  1  0
 27 40  2  0
 40 41  1  0
 41 42  2  0
 42 43  1  0
 14  9  1  0
 41 24  1  0
 42 12  1  0
 39 31  1  0
  1 44  1  0
  1 45  1  0
  1 46  1  0
  2 47  1  0
  2 48  1  0
  4 49  1  0
  4 50  1  0
  5 51  1  0
  5 52  1  0
  5 53  1  0
  6 54  1  0
  6 55  1  0
  7 56  1  0
  7 57  1  0
  8 58  1  0
 10 59  1  0
 11 60  1  0
 14 61  1  0
 16 62  1  0
 17 63  1  0
 17 64  1  0
 18 65  1  0
 18 66  1  0
 20 67  1  0
 20 68  1  0
 21 69  1  0
 21 70  1  0
 21 71  1  0
 22 72  1  0
 22 73  1  0
 23 74  1  0
 23 75  1  0
 23 76  1  0
 25 77  1  0
 26 78  1  0
 29 79  1  0
 29 80  1  0
 30 81  1  0
 30 82  1  0
 32 83  1  0
 32 84  1  0
 32 85  1  0
 33 86  1  0
 33 87  1  0
 34 88  1  0
 34 89  1  0
 36 90  1  0
 36 91  1  0
 36 92  1  0
 37 93  1  0
 37 94  1  0
 37 95  1  0
 38 96  1  0
 38 97  1  0
 39 98  1  0
 39 99  1  0
 40100  1  0
 43101  1  0
 43102  1  0
 43103  1  0
M  CHG  3  31   1  35   1  42   1
M  END
>  <UniqueID>  (1) 
1

>  <SMILES>  (1) 
CCN(CC)CCNc1ccc2c(c1)c(NCCN(CC)CC)c1ccc(OCC[N+]3(C)CC[N+](C)(C)CC3)cc1[n+]2C

>  <Energy>  (1) 
153.7108799603803

>  <Genealogy>  (1) 
CCN(CC)CCNc1ccc2c(c1)c(NCCN(CC)CC)c1ccc(OCC[N+]3(C)CC[N+](C)(C)CC3)cc1[n+]2C (3D coordinates assigned)
CCN(CC)CCNc1ccc2c(c1)c(NCCN(CC)CC)c1ccc(OCC[N+]3(C)CC[N+](C)(C)CC3)cc1[n+]2C (nonaromatic ring conformer: 153.7108799603803 kcal/mol)

>  <smiles>  (1) 
CCN(CC)CCNc1ccc2c(c1)c(NCCN(CC)CC)c1ccc(OCC[N+]3(C)CC[N+](C)(C)CC3)cc1[n+]2C

>  <score_type>  (1) 
oracle

>  <origin>  (1) 
adg

>  <m_score__min__energy>  (1) 
-4.8300000000000001

>  <m_primary>  (1) 
energy

$$$$
1:0
     RDKit          3D

 26 26  0  0  0  0  0  0  0  0999 V2000
   54.7477   30.4344   43.2050 H   0  0  0  0  0  0  0  0  0  0  0  0
   55.6770   30.1240   43.7050 C   0  0  0  0  0  0  0  0  0  0  0  0
   55.6510   29.7320   44.9370 N   0  0  0  0  0  0  0  0  0  0  0  0
   55.9120   28.4190   45.2580 O   0  0  0  0  0  0  0  0  0  0  0  0
   57.2140   28.0230   45.6550 C   0  0  0  0  0  0  0  0  0  0  0  0
   57.1411   27.3167   46.4952 H   0  0  0  0  0  0  0  0  0  0  0  0
   57.7853   28.9099   45.9664 H   0  0  0  0  0  0  0  0  0  0  0  0
   57.9230   27.3510   44.4900 C   0  0  0  0  0  0  0  0  0  0  0  0
   58.6708   26.6423   44.8754 H   0  0  0  0  0  0  0  0  0  0  0  0
   57.1878   26.8104   43.8759 H   0  0  0  0  0  0  0  0  0  0  0  0
   58.4235   28.1141   43.8759 H   0  0  0  0  0  0  0  0  0  0  0  0
   56.9730   30.1540   42.9630 C   0  0  0  0  0  0  0  0  0  0  0  0
   57.7669   29.7535   43.6106 H   0  0  0  0  0  0  0  0  0  0  0  0
   56.8691   29.5426   42.0545 H   0  0  0  0  0  0  0  0  0  0  0  0
   57.4100   31.8580   42.4680 S   0  0  0  0  0  0  0  0  0  0  0  0
   57.9320   32.3670   44.1100 C   0  0  0  0  0  0  0  0  0  0  0  0
   58.4720   31.4260   44.9960 C   0  0  0  0  0  0  0  0  0  0  0  0
   58.5738   30.3753   44.6866 H   0  0  0  0  0  0  0  0  0  0  0  0
   58.8820   31.8210   46.2740 C   0  0  0  0  0  0  0  0  0  0  0  0
   59.3012   31.0798   46.9704 H   0  0  0  0  0  0  0  0  0  0  0  0
   58.7590   33.1590   46.6670 C   0  0  0  0  0  0  0  0  0  0  0  0
   59.2730   33.6530   48.2700 Cl  0  0  0  0  0  0  0  0  0  0  0  0
   58.2280   34.1010   45.7790 C   0  0  0  0  0  0  0  0  0  0  0  0
   58.1328   35.1529   46.0864 H   0  0  0  0  0  0  0  0  0  0  0  0
   57.8180   33.7070   44.5010 C   0  0  0  0  0  0  0  0  0  0  0  0
   57.4057   34.4502   43.8026 H   0  0  0  0  0  0  0  0  0  0  0  0
  1  2  1  0
  2  3  2  0
  3  4  1  0
  4  5  1  0
  5  6  1  0
  5  7  1  0
  5  8  1  0
  8  9  1  0
  8 10  1  0
  8 11  1  0
  2 12  1  0
 12 13  1  0
 12 14  1  0
 12 15  1  0
 15 16  1  0
 16 17  2  0
 17 18  1  0
 17 19  1  0
 19 20  1  0
 19 21  2  0
 21 22  1  0
 21 23  1  0
 23 24  1  0
 23 25  2  0
 25 26  1  0
 25 16  1  0
M  END
>  <UniqueID>  (2) 
2

>  <SMILES>  (2) 
CCO/N=C/CSc1ccc(Cl)cc1

>  <Energy>  (2) 
11.022310719866717

>  <Genealogy>  (2) 
CCO/N=C/CSc1ccc(Cl)cc1 (cis-trans isomerization)
CCO/N=C/CSc1ccc(Cl)cc1 (3D coordinates assigned)
CCO/N=C/CSc1ccc(Cl)cc1 (optimized conformer: 11.022310719866717 kcal/mol)

>  <smiles>  (2) 
CCON=CCSc1ccc(Cl)cc1

>  <score_type>  (2) 
oracle

>  <origin>  (2) 
adg

>  <m_score__min__energy>  (2) 
-6.1200000000000001

>  <m_primary>  (2) 
energy

$$$$
2:0
     RDKit          3D

 78 81  0  0  0  0  0  0  0  0999 V2000
   62.9840   28.7610   52.0590 C   0  0  0  0  0  0  0  0  0  0  0  0
   61.7650   29.6960   52.1230 C   0  0  0  0  0  0  0  0  0  0  0  0
   60.7020   29.4170   51.1220 N   0  0  0  0  0  0  0  0  0  0  0  0
   59.3350   29.3400   51.6840 C   0  0  0  0  0  0  0  0  0  0  0  0
   58.6110   30.6880   51.7300 C   0  0  0  0  0  0  0  0  0  0  0  0
   60.9890   28.3760   50.1110 C   0  0  0  0  0  0  0  0  0  0  0  0
   60.6690   28.8810   48.6990 C   0  0  0  0  0  0  0  0  0  0  0  0
   59.7590   30.0270   48.7270 N   0  0  0  0  0  0  0  0  0  0  0  0
   59.1400   30.5330   47.5330 C   0  0  0  0  0  0  0  0  0  0  0  0
   58.4980   29.6310   46.6640 C   0  0  0  0  0  0  0  0  0  0  0  0
   58.3060   28.2800   47.0230 C   0  0  0  0  0  0  0  0  0  0  0  0
   57.7210   27.3830   46.1300 C   0  0  0  0  0  0  0  0  0  0  0  0
   57.3080   27.8180   44.8760 C   0  0  0  0  0  0  0  0  0  0  0  0
   57.4700   29.1540   44.5090 C   0  0  0  0  0  0  0  0  0  0  0  0
   58.0630   30.0840   45.3970 C   0  0  0  0  0  0  0  0  0  0  0  0
   58.2200   31.4050   45.0520 N   0  0  0  0  0  0  0  0  0  0  0  0
   58.2940   31.7660   43.6210 C   0  0  0  0  0  0  0  0  0  0  0  0
   58.4790   32.3450   46.0320 C   0  0  0  0  0  0  0  0  0  0  0  0
   58.1310   33.7220   45.8770 C   0  0  0  0  0  0  0  0  0  0  0  0
   57.1510   34.2210   44.8420 C   0  0  0  0  0  0  0  0  0  0  0  0
   58.5910   34.6590   46.8060 C   0  0  0  0  0  0  0  0  0  0  0  0
   59.3030   34.2620   47.9260 C   0  0  0  0  0  0  0  0  0  0  0  0
   59.5490   32.9060   48.1800 C   0  0  0  0  0  0  0  0  0  0  0  0
   60.2600   32.5170   49.3300 O   0  0  0  0  0  0  0  0  0  0  0  0
   61.0170   33.3710   50.1900 C   0  0  0  0  0  0  0  0  0  0  0  0
   62.3370   32.7560   50.7370 C   0  0  0  0  0  0  0  0  0  0  0  0
   63.3930   32.3190   49.7570 N   0  0  0  0  0  0  0  0  0  0  0  0
   64.3800   31.4390   50.4400 C   0  0  0  0  0  0  0  0  0  0  0  0
   64.1230   33.4860   49.1530 C   0  0  0  0  0  0  0  0  0  0  0  0
   63.3910   34.0730   47.9390 C   0  0  0  0  0  0  0  0  0  0  0  0
   63.3130   33.0430   46.7990 C   0  0  0  0  0  0  0  0  0  0  0  0
   63.3700   31.5940   47.3140 C   0  0  0  0  0  0  0  0  0  0  0  0
   62.7100   31.4850   48.6980 C   0  0  0  0  0  0  0  0  0  0  0  0
   59.0820   31.9260   47.2570 C   0  0  0  0  0  0  0  0  0  0  0  0
   63.3089   28.5118   53.0799 H   0  0  0  0  0  0  0  0  0  0  0  0
   62.7109   27.8385   51.5256 H   0  0  0  0  0  0  0  0  0  0  0  0
   63.8042   29.2638   51.5256 H   0  0  0  0  0  0  0  0  0  0  0  0
   61.3205   29.6080   53.1253 H   0  0  0  0  0  0  0  0  0  0  0  0
   62.1409   30.7048   51.8970 H   0  0  0  0  0  0  0  0  0  0  0  0
   58.7436   28.6493   51.0650 H   0  0  0  0  0  0  0  0  0  0  0  0
   59.4340   28.9930   52.7231 H   0  0  0  0  0  0  0  0  0  0  0  0
   58.4523   30.9834   52.7776 H   0  0  0  0  0  0  0  0  0  0  0  0
   59.2215   31.4496   51.2227 H   0  0  0  0  0  0  0  0  0  0  0  0
   57.6390   30.5996   51.2227 H   0  0  0  0  0  0  0  0  0  0  0  0
   62.0541   28.1063   50.1642 H   0  0  0  0  0  0  0  0  0  0  0  0
   60.3594   27.4989   50.3214 H   0  0  0  0  0  0  0  0  0  0  0  0
   61.6058   29.1817   48.2072 H   0  0  0  0  0  0  0  0  0  0  0  0
   60.1775   28.0664   48.1468 H   0  0  0  0  0  0  0  0  0  0  0  0
   59.6160   30.5430   49.6240 H   0  0  0  0  0  0  0  0  0  0  0  0
   58.6210   27.9309   48.0174 H   0  0  0  0  0  0  0  0  0  0  0  0
   57.5862   26.3300   46.4182 H   0  0  0  0  0  0  0  0  0  0  0  0
   56.8523   27.1069   44.1713 H   0  0  0  0  0  0  0  0  0  0  0  0
   57.1328   29.4894   43.5171 H   0  0  0  0  0  0  0  0  0  0  0  0
   58.5140   32.8394   43.5246 H   0  0  0  0  0  0  0  0  0  0  0  0
   59.0914   31.1833   43.1366 H   0  0  0  0  0  0  0  0  0  0  0  0
   57.3317   31.5440   43.1366 H   0  0  0  0  0  0  0  0  0  0  0  0
   56.2797   34.6647   45.3459 H   0  0  0  0  0  0  0  0  0  0  0  0
   57.6373   34.9813   44.2131 H   0  0  0  0  0  0  0  0  0  0  0  0
   56.8222   33.3805   44.2131 H   0  0  0  0  0  0  0  0  0  0  0  0
   58.3847   35.7275   46.6456 H   0  0  0  0  0  0  0  0  0  0  0  0
   59.6806   35.0219   48.6259 H   0  0  0  0  0  0  0  0  0  0  0  0
   61.2728   34.2809   49.6272 H   0  0  0  0  0  0  0  0  0  0  0  0
   60.3819   33.5620   51.0676 H   0  0  0  0  0  0  0  0  0  0  0  0
   62.7969   33.5091   51.3938 H   0  0  0  0  0  0  0  0  0  0  0  0
   62.0158   31.8201   51.2176 H   0  0  0  0  0  0  0  0  0  0  0  0
   64.2679   31.5389   51.5297 H   0  0  0  0  0  0  0  0  0  0  0  0
   64.2031   30.3935   50.1475 H   0  0  0  0  0  0  0  0  0  0  0  0
   65.3985   31.7342   50.1475 H   0  0  0  0  0  0  0  0  0  0  0  0
   64.2257   34.2712   49.9165 H   0  0  0  0  0  0  0  0  0  0  0  0
   65.1036   33.1250   48.8093 H   0  0  0  0  0  0  0  0  0  0  0  0
   62.3716   34.3600   48.2364 H   0  0  0  0  0  0  0  0  0  0  0  0
   63.9472   34.9526   47.5827 H   0  0  0  0  0  0  0  0  0  0  0  0
   62.3676   33.1881   46.2557 H   0  0  0  0  0  0  0  0  0  0  0  0
   64.1823   33.2009   46.1437 H   0  0  0  0  0  0  0  0  0  0  0  0
   62.8394   30.9383   46.6079 H   0  0  0  0  0  0  0  0  0  0  0  0
   64.4235   31.2891   47.3986 H   0  0  0  0  0  0  0  0  0  0  0  0
   61.6649   31.8175   48.6129 H   0  0  0  0  0  0  0  0  0  0  0  0
   62.7881   30.4339   49.0127 H   0  0  0  0  0  0  0  0  0  0  0  0
  1  2  1  0
  2  3  1  0
  3  4  1  0
  4  5  1  0
  3  6  1  0
  6  7  1  0
  7  8  1  0
  8  9  1  0
  9 10  2  0
 10 11  1  0
 11 12  2  0
 12 13  1  0
 13 14  2  0
 14 15  1  0
 15 16  2  0
 16 17  1  0
 16 18  1  0
 18 19  2  0
 19 20  1  0
 19 21  1  0
 21 22  2  0
 22 23  1  0
 23 24  1  0
 24 25  1  0
 25 26  1  0
 26 27  1  0
 27 28  1  0
 27 29  1  0
 29 30  1  0
 30 31  1  0
 31 32  1  0
 32 33  1  0
 23 34  2  0
 34  9  1  0
 15 10  1  0
 34 18  1  0
 33 27  1  0
  1 35  1  0
  1 36  1  0
  1 37  1  0
  2 38  1  0
  2 39  1  0
  4 40  1  0
  4 41  1  0
  5 42  1  0
  5 43  1  0
  5 44  1  0
  6 45  1  0
  6 46  1  0
  7 47  1  0
  7 48  1  0
  8 49  1  0
 11 50  1  0
 12 51  1  0
 13 52  1  0
 14 53  1  0
 17 54  1  0
 17 55  1  0
 17 56  1  0
 20 57  1  0
 20 58  1  0
 20 59  1  0
 21 60  1  0
 22 61  1  0
 25 62  1  0
 25 63  1  0
 26 64  1  0
 26 65  1  0
 28 66  1  0
 28 67  1  0
 28 68  1  0
 29 69  1  0
 29 70  1  0
 30 71  1  0
 30 72  1  0
 31 73  1  0
 31 74  1  0
 32 75  1  0
 32 76  1  0
 33 77  1  0
 33 78  1  0
M  CHG  2  16   1  27   1
M  END
>  <UniqueID>  (3) 
3

>  <SMILES>  (3) 
CCN(CC)CCNc1c2ccccc2[n+](C)c2c(C)ccc(OCC[N+]3(C)CCCCC3)c12

>  <Energy>  (3) 
142.68506725973347

>  <Genealogy>  (3) 
CCN(CC)CCNc1c2ccccc2[n+](C)c2c(C)ccc(OCC[N+]3(C)CCCCC3)c12 (3D coordinates assigned)
CCN(CC)CCNc1c2ccccc2[n+](C)c2c(C)ccc(OCC[N+]3(C)CCCCC3)c12 (nonaromatic ring conformer: 142.68506725973347 kcal/mol)

>  <smiles>  (3) 
CCN(CC)CCNc1c2ccccc2[n+](C)c2c(C)ccc(OCC[N+]3(C)CCCCC3)c12

>  <score_type>  (3) 
oracle

>  <origin>  (3) 
adg

>  <m_score__min__energy>  (3) 
-5.29

>  <m_primary>  (3) 
energy

$$$$
3:0
     RDKit          3D

 79 82  0  0  0  0  0  0  0  0999 V2000
   58.5650   32.3280   49.5330 C   0  0  0  0  0  0  0  0  0  0  0  0
   59.2530   31.1730   50.2670 C   0  0  0  0  0  0  0  0  0  0  0  0
   59.8600   30.2020   49.3390 N   0  0  0  0  0  0  0  0  0  0  0  0
   58.9220   29.1490   48.9210 C   0  0  0  0  0  0  0  0  0  0  0  0
   59.3530   28.5590   47.5670 C   0  0  0  0  0  0  0  0  0  0  0  0
   60.3670   29.3980   46.8970 N   0  0  0  0  0  0  0  0  0  0  0  0
   59.7370   30.4820   46.1530 C   0  0  0  0  0  0  0  0  0  0  0  0
   58.6690   30.2000   45.2510 C   0  0  0  0  0  0  0  0  0  0  0  0
   58.4860   28.9210   44.6630 C   0  0  0  0  0  0  0  0  0  0  0  0
   57.4100   28.6630   43.8170 C   0  0  0  0  0  0  0  0  0  0  0  0
   56.5040   29.6680   43.5150 C   0  0  0  0  0  0  0  0  0  0  0  0
   56.6780   30.9410   44.0450 C   0  0  0  0  0  0  0  0  0  0  0  0
   57.7590   31.2350   44.9140 C   0  0  0  0  0  0  0  0  0  0  0  0
   57.9480   32.5040   45.4080 N   0  0  0  0  0  0  0  0  0  0  0  0
   56.8480   33.4920   45.3540 C   0  0  0  0  0  0  0  0  0  0  0  0
   59.1740   32.8590   45.9290 C   0  0  0  0  0  0  0  0  0  0  0  0
   59.5430   34.2170   46.0060 C   0  0  0  0  0  0  0  0  0  0  0  0
   60.7810   34.5990   46.4820 C   0  0  0  0  0  0  0  0  0  0  0  0
   61.6860   33.6530   46.9550 C   0  0  0  0  0  0  0  0  0  0  0  0
   63.0730   34.1300   47.2850 C   0  0  0  0  0  0  0  0  0  0  0  0
   61.3020   32.2870   47.0300 C   0  0  0  0  0  0  0  0  0  0  0  0
   62.1130   31.3460   47.6940 O   0  0  0  0  0  0  0  0  0  0  0  0
   62.6190   31.3920   49.0370 C   0  0  0  0  0  0  0  0  0  0  0  0
   64.0560   31.9520   49.0990 C   0  0  0  0  0  0  0  0  0  0  0  0
   64.5730   32.3990   50.4430 N   0  0  0  0  0  0  0  0  0  0  0  0
   63.8190   33.6520   50.7490 C   0  0  0  0  0  0  0  0  0  0  0  0
   64.2570   31.4310   51.5430 C   0  0  0  0  0  0  0  0  0  0  0  0
   65.3180   30.3330   51.7880 C   0  0  0  0  0  0  0  0  0  0  0  0
   66.7010   30.8580   51.8900 N   0  0  0  0  0  0  0  0  0  0  0  0
   67.6370   29.7080   51.9660 C   0  0  0  0  0  0  0  0  0  0  0  0
   66.8790   31.6650   53.1250 C   0  0  0  0  0  0  0  0  0  0  0  0
   67.0260   31.6490   50.6780 C   0  0  0  0  0  0  0  0  0  0  0  0
   66.0220   32.7830   50.3980 C   0  0  0  0  0  0  0  0  0  0  0  0
   60.0860   31.8600   46.3840 C   0  0  0  0  0  0  0  0  0  0  0  0
   58.1460   33.0315   50.2676 H   0  0  0  0  0  0  0  0  0  0  0  0
   59.2991   32.8506   48.9022 H   0  0  0  0  0  0  0  0  0  0  0  0
   57.7558   31.9314   48.9022 H   0  0  0  0  0  0  0  0  0  0  0  0
   60.0418   31.5849   50.9136 H   0  0  0  0  0  0  0  0  0  0  0  0
   58.4875   30.6440   50.8537 H   0  0  0  0  0  0  0  0  0  0  0  0
   60.2180   30.7020   48.4920 H   0  0  0  0  0  0  0  0  0  0  0  0
   58.9111   28.3509   49.6780 H   0  0  0  0  0  0  0  0  0  0  0  0
   57.9169   29.5841   48.8188 H   0  0  0  0  0  0  0  0  0  0  0  0
   59.7749   27.5570   47.7341 H   0  0  0  0  0  0  0  0  0  0  0  0
   58.4661   28.5134   46.9178 H   0  0  0  0  0  0  0  0  0  0  0  0
   60.9440   28.7640   46.3120 H   0  0  0  0  0  0  0  0  0  0  0  0
   61.0740   29.7670   47.5670 H   0  0  0  0  0  0  0  0  0  0  0  0
   59.2071   28.1190   44.8794 H   0  0  0  0  0  0  0  0  0  0  0  0
   57.2787   27.6590   43.3873 H   0  0  0  0  0  0  0  0  0  0  0  0
   55.6482   29.4581   42.8565 H   0  0  0  0  0  0  0  0  0  0  0  0
   55.9632   31.7357   43.7852 H   0  0  0  0  0  0  0  0  0  0  0  0
   56.5472   33.7621   46.3770 H   0  0  0  0  0  0  0  0  0  0  0  0
   57.1896   34.3924   44.8224 H   0  0  0  0  0  0  0  0  0  0  0  0
   55.9893   33.0560   44.8224 H   0  0  0  0  0  0  0  0  0  0  0  0
   58.8297   34.9884   45.6801 H   0  0  0  0  0  0  0  0  0  0  0  0
   61.0558   35.6641   46.4876 H   0  0  0  0  0  0  0  0  0  0  0  0
   63.1960   34.1723   48.3773 H   0  0  0  0  0  0  0  0  0  0  0  0
   63.8110   33.4340   46.8596 H   0  0  0  0  0  0  0  0  0  0  0  0
   63.2268   35.1327   46.8596 H   0  0  0  0  0  0  0  0  0  0  0  0
   61.9619   32.0345   49.6415 H   0  0  0  0  0  0  0  0  0  0  0  0
   62.6401   30.3632   49.4257 H   0  0  0  0  0  0  0  0  0  0  0  0
   64.7318   31.1659   48.7311 H   0  0  0  0  0  0  0  0  0  0  0  0
   64.0252   32.8690   48.4922 H   0  0  0  0  0  0  0  0  0  0  0  0
   63.7435   33.7775   51.8392 H   0  0  0  0  0  0  0  0  0  0  0  0
   64.3488   34.5136   50.3165 H   0  0  0  0  0  0  0  0  0  0  0  0
   62.8096   33.5874   50.3165 H   0  0  0  0  0  0  0  0  0  0  0  0
   64.1400   32.0034   52.4750 H   0  0  0  0  0  0  0  0  0  0  0  0
   63.3438   30.9042   51.2289 H   0  0  0  0  0  0  0  0  0  0  0  0
   65.0723   29.8149   52.7267 H   0  0  0  0  0  0  0  0  0  0  0  0
   65.2916   29.6585   50.9195 H   0  0  0  0  0  0  0  0  0  0  0  0
   67.8346   29.4652   53.0205 H   0  0  0  0  0  0  0  0  0  0  0  0
   67.1883   28.8364   51.4669 H   0  0  0  0  0  0  0  0  0  0  0  0
   68.5815   29.9704   51.4669 H   0  0  0  0  0  0  0  0  0  0  0  0
   66.7373   31.0224   54.0065 H   0  0  0  0  0  0  0  0  0  0  0  0
   67.8928   32.0915   53.1414 H   0  0  0  0  0  0  0  0  0  0  0  0
   66.1387   32.4784   53.1414 H   0  0  0  0  0  0  0  0  0  0  0  0
   68.0244   32.0920   50.8085 H   0  0  0  0  0  0  0  0  0  0  0  0
   66.9843   30.9606   49.8211 H   0  0  0  0  0  0  0  0  0  0  0  0
   66.1855   33.5711   51.1478 H   0  0  0  0  0  0  0  0  0  0  0  0
   66.2139   33.1026   49.3631 H   0  0  0  0  0  0  0  0  0  0  0  0
  1  2  1  0
  2  3  1  0
  3  4  1  0
  4  5  1  0
  5  6  1  0
  6  7  1  0
  7  8  2  0
  8  9  1  0
  9 10  2  0
 10 11  1  0
 11 12  2  0
 12 13  1  0
 13 14  2  0
 14 15  1  0
 14 16  1  0
 16 17  2  0
 17 18  1  0
 18 19  2  0
 19 20  1  0
 19 21  1  0
 21 22  1  0
 22 23  1  0
 23 24  1  0
 24 25  1  0
 25 26  1  0
 25 27  1  0
 27 28  1  0
 28 29  1  0
 29 30  1  0
 29 31  1  0
 29 32  1  0
 32 33  1  0
 21 34  2  0
 34  7  1  0
 13  8  1  0
 34 16  1  0
 33 25  1  0
  1 35  1  0
  1 36  1  0
  1 37  1  0
  2 38  1  0
  2 39  1  0
  3 40  1  0
  4 41  1  0
  4 42  1  0
  5 43  1  0
  5 44  1  0
  6 45  1  0
  6 46  1  0
  9 47  1  0
 10 48  1  0
 11 49  1  0
 12 50  1  0
 15 51  1  0
 15 52  1  0
 15 53  1  0
 17 54  1  0
 18 55  1  0
 20 56  1  0
 20 57  1  0
 20 58  1  0
 23 59  1  0
 23 60  1  0
 24 61  1  0
 24 62  1  0
 26 63  1  0
 26 64  1  0
 26 65  1  0
 27 66  1  0
 27 67  1  0
 28 68  1  0
 28 69  1  0
 30 70  1  0
 30 71  1  0
 30 72  1  0
 31 73  1  0
 31 74  1  0
 31 75  1  0
 32 76  1  0
 32 77  1  0
 33 78  1  0
 33 79  1  0
M  CHG  4   6   1  14   1  25   1  29   1
M  END
>  <UniqueID>  (4) 
4

>  <SMILES>  (4) 
CCNCC[NH2+]c1c2ccccc2[n+](C)c2ccc(C)c(OCC[N+]3(C)CC[N+](C)(C)CC3)c12

>  <Energy>  (4) 
152.9723416049732

>  <Genealogy>  (4) 
CCNCC[NH2+]c1c2ccccc2[n+](C)c2ccc(C)c(OCC[N+]3(C)CC[N+](C)(C)CC3)c12 (protonated)
CCNCC[NH2+]c1c2ccccc2[n+](C)c2ccc(C)c(OCC[N+]3(C)CC[N+](C)(C)CC3)c12 (3D coordinates assigned)
CCNCC[NH2+]c1c2ccccc2[n+](C)c2ccc(C)c(OCC[N+]3(C)CC[N+](C)(C)CC3)c12 (nonaromatic ring conformer: 152.9723416049732 kcal/mol)

>  <smiles>  (4) 
CCNCCNc1c2ccccc2[n+](C)c2ccc(C)c(OCC[N+]3(C)CC[N+](C)(C)CC3)c12

>  <score_type>  (4) 
oracle

>  <origin>  (4) 
adg

>  <m_score__min__energy>  (4) 
-2.4300000000000002

>  <m_primary>  (4) 
energy

$$$$
4:0
     RDKit          3D

 70 72  0  0  0  0  0  0  0  0999 V2000
   59.9343   32.4767   51.6034 H   0  0  0  0  0  0  0  0  0  0  0  0
   59.3930   32.3120   50.6600 C   0  0  0  0  0  0  0  0  0  0  0  0
   58.8660   31.1640   50.4120 N   0  0  0  0  0  0  0  0  0  0  0  0
   57.9450   30.5330   51.3280 C   0  0  0  0  0  0  0  0  0  0  0  0
   57.3670   29.7644   50.7940 H   0  0  0  0  0  0  0  0  0  0  0  0
   58.5095   30.0666   52.1489 H   0  0  0  0  0  0  0  0  0  0  0  0
   56.9950   31.5750   51.8980 C   0  0  0  0  0  0  0  0  0  0  0  0
   57.0278   31.5390   52.9969 H   0  0  0  0  0  0  0  0  0  0  0  0
   57.2987   32.5749   51.5547 H   0  0  0  0  0  0  0  0  0  0  0  0
   55.9713   31.3647   51.5547 H   0  0  0  0  0  0  0  0  0  0  0  0
   59.2690   33.4230   49.6640 C   0  0  0  0  0  0  0  0  0  0  0  0
   60.2516   33.6125   49.2073 H   0  0  0  0  0  0  0  0  0  0  0  0
   58.9124   34.3274   50.1788 H   0  0  0  0  0  0  0  0  0  0  0  0
   58.3130   33.0620   48.6190 N   0  0  0  0  0  0  0  0  0  0  0  0
   57.3780   32.7060   48.9240 H   0  0  0  0  0  0  0  0  0  0  0  0
   58.5890   33.1650   47.2080 C   0  0  0  0  0  0  0  0  0  0  0  0
   58.6500   34.4360   46.6160 C   0  0  0  0  0  0  0  0  0  0  0  0
   58.7174   35.3314   47.2515 H   0  0  0  0  0  0  0  0  0  0  0  0
   58.6260   34.5720   45.2350 C   0  0  0  0  0  0  0  0  0  0  0  0
   58.7639   35.5629   44.7778 H   0  0  0  0  0  0  0  0  0  0  0  0
   58.4280   33.4580   44.4300 C   0  0  0  0  0  0  0  0  0  0  0  0
   58.3578   33.5845   43.3396 H   0  0  0  0  0  0  0  0  0  0  0  0
   58.3150   32.1620   44.9890 C   0  0  0  0  0  0  0  0  0  0  0  0
   58.5930   32.0050   46.3750 C   0  0  0  0  0  0  0  0  0  0  0  0
   58.8710   30.7000   46.8680 C   0  0  0  0  0  0  0  0  0  0  0  0
   59.7370   30.5120   48.0300 N   0  0  0  0  0  0  0  0  0  0  0  0
   59.2870   29.8640   48.7140 H   0  0  0  0  0  0  0  0  0  0  0  0
   59.9130   31.4010   48.5350 H   0  0  0  0  0  0  0  0  0  0  0  0
   61.0690   30.0170   47.6260 C   0  0  0  0  0  0  0  0  0  0  0  0
   60.9811   29.5091   46.6543 H   0  0  0  0  0  0  0  0  0  0  0  0
   61.4274   29.3241   48.4015 H   0  0  0  0  0  0  0  0  0  0  0  0
   62.0880   31.1650   47.4990 C   0  0  0  0  0  0  0  0  0  0  0  0
   61.9144   31.6935   46.5500 H   0  0  0  0  0  0  0  0  0  0  0  0
   63.0993   30.7332   47.5279 H   0  0  0  0  0  0  0  0  0  0  0  0
   61.9630   32.1270   48.6140 N   0  0  0  0  0  0  0  0  0  0  0  0
   61.9780   33.5540   48.2030 C   0  0  0  0  0  0  0  0  0  0  0  0
   62.8744   34.0199   48.6383 H   0  0  0  0  0  0  0  0  0  0  0  0
   61.0291   33.9762   48.5654 H   0  0  0  0  0  0  0  0  0  0  0  0
   61.9980   33.8230   46.6770 C   0  0  0  0  0  0  0  0  0  0  0  0
   61.4907   34.7807   46.4887 H   0  0  0  0  0  0  0  0  0  0  0  0
   61.4914   32.9717   46.1988 H   0  0  0  0  0  0  0  0  0  0  0  0
   63.3980   33.8960   46.0740 C   0  0  0  0  0  0  0  0  0  0  0  0
   64.1436   33.9349   46.8818 H   0  0  0  0  0  0  0  0  0  0  0  0
   63.5765   33.0059   45.4528 H   0  0  0  0  0  0  0  0  0  0  0  0
   63.4830   34.7998   45.4528 H   0  0  0  0  0  0  0  0  0  0  0  0
   62.8300   31.8300   49.7760 C   0  0  0  0  0  0  0  0  0  0  0  0
   62.2034   31.6165   50.6545 H   0  0  0  0  0  0  0  0  0  0  0  0
   63.4574   30.9556   49.5482 H   0  0  0  0  0  0  0  0  0  0  0  0
   63.7280   33.0350   50.0720 C   0  0  0  0  0  0  0  0  0  0  0  0
   63.3911   33.8895   49.4668 H   0  0  0  0  0  0  0  0  0  0  0  0
   63.6566   33.2644   51.1454 H   0  0  0  0  0  0  0  0  0  0  0  0
   65.1870   32.7370   49.7410 C   0  0  0  0  0  0  0  0  0  0  0  0
   65.7582   32.6203   50.6738 H   0  0  0  0  0  0  0  0  0  0  0  0
   65.2477   31.8079   49.1552 H   0  0  0  0  0  0  0  0  0  0  0  0
   65.6072   33.5679   49.1552 H   0  0  0  0  0  0  0  0  0  0  0  0
   58.5090   29.5890   46.0650 C   0  0  0  0  0  0  0  0  0  0  0  0
   58.5660   28.2700   46.5740 C   0  0  0  0  0  0  0  0  0  0  0  0
   58.8303   28.1095   47.6296 H   0  0  0  0  0  0  0  0  0  0  0  0
   58.2940   27.1730   45.7640 C   0  0  0  0  0  0  0  0  0  0  0  0
   58.3362   26.1563   46.1818 H   0  0  0  0  0  0  0  0  0  0  0  0
   57.9690   27.3620   44.4270 C   0  0  0  0  0  0  0  0  0  0  0  0
   57.7863   26.4926   43.7783 H   0  0  0  0  0  0  0  0  0  0  0  0
   57.8740   28.6500   43.9060 C   0  0  0  0  0  0  0  0  0  0  0  0
   57.6246   28.7850   42.8432 H   0  0  0  0  0  0  0  0  0  0  0  0
   58.0930   29.7930   44.7210 C   0  0  0  0  0  0  0  0  0  0  0  0
   57.9560   31.0730   44.2200 N   0  0  0  0  0  0  0  0  0  0  0  0
   57.3440   31.2810   42.8860 C   0  0  0  0  0  0  0  0  0  0  0  0
   56.3090   31.6328   43.0083 H   0  0  0  0  0  0  0  0  0  0  0  0
   57.9235   32.0327   42.3299 H   0  0  0  0  0  0  0  0  0  0  0  0
   57.3454   30.3319   42.3299 H   0  0  0  0  0  0  0  0  0  0  0  0
  1  2  1  0
  2  3  2  0
  3  4  1  0
  4  5  1  0
  4  6  1  0
  4  7  1  0
  7  8  1  0
  7  9  1  0
  7 10  1  0
  2 11  1  0
 11 12  1  0
 11 13  1  0
 11 14  1  0
 14 15  1  0
 14 16  1  0
 16 17  2  0
 17 18  1  0
 17 19  1  0
 19 20  1  0
 19 21  2  0
 21 22  1  0
 21 23  1  0
 23 24  2  0
 24 25  1  0
 25 26  1  0
 26 27  1  0
 26 28  1  0
 26 29  1  0
 29 30  1  0
 29 31  1  0
 29 32  1  0
 32 33  1  0
 32 34  1  0
 32 35  1  0
 35 36  1  0
 36 37  1  0
 36 38  1  0
 36 39  1  0
 39 40  1  0
 39 41  1  0
 39 42  1  0
 42 43  1  0
 42 44  1  0
 42 45  1  0
 35 46  1  0
 46 47  1  0
 46 48  1  0
 46 49  1  0
 49 50  1  0
 49 51  1  0
 49 52  1  0
 52 53  1  0
 52 54  1  0
 52 55  1  0
 25 56  2  0
 56 57  1  0
 57 58  1  0
 57 59  2  0
 59 60  1  0
 59 61  1  0
 61 62  1  0
 61 63  2  0
 63 64  1  0
 63 65  1  0
 65 66  2  0
 66 67  1  0
 67 68  1  0
 67 69  1  0
 67 70  1  0
 24 16  1  0
 65 56  1  0
 66 23  1  0
M  CHG  2  26   1  66   1
M  END
>  <UniqueID>  (5) 
5

>  <SMILES>  (5) 
CCCN(CCC)CC[NH2+]c1c2ccccc2[n+](C)c2cccc(NC/C=N/CC)c12

>  <Energy>  (5) 
104.62417601410984

>  <Genealogy>  (5) 
CCCN(CCC)CC[NH2+]c1c2ccccc2[n+](C)c2cccc(NCC=NCC)c12 (protonated)
CCCN(CCC)CC[NH2+]c1c2ccccc2[n+](C)c2cccc(NC/C=N/CC)c12 (cis-trans isomerization)
CCCN(CCC)CC[NH2+]c1c2ccccc2[n+](C)c2cccc(NC/C=N/CC)c12 (3D coordinates assigned)
CCCN(CCC)CC[NH2+]c1c2ccccc2[n+](C)c2cccc(NC/C=N/CC)c12 (optimized conformer: 104.62417601410984 kcal/mol)

>  <smiles>  (5) 
CCCN(CCC)CCNc1c2ccccc2[n+](C)c2cccc(NCC=NCC)c12

>  <score_type>  (5) 
oracle

>  <origin>  (5) 
adg

>  <m_score__min__energy>  (5) 
-3.6200000000000001

>  <m_primary>  (5) 
energy

$$$$
5:0
     RDKit          3D

 41 43  0  0  0  0  0  0  0  0999 V2000
   56.2750   29.7530   42.7230 C   0  0  0  0  0  0  0  0  0  0  0  0
   55.4450   30.0430   43.9680 C   0  0  0  0  0  0  0  0  0  0  0  0
   55.5100   28.9510   44.8850 O   0  0  0  0  0  0  0  0  0  0  0  0
   56.6910   28.3740   45.3790 C   0  0  0  0  0  0  0  0  0  0  0  0
   57.9420   29.0390   45.3910 C   0  0  0  0  0  0  0  0  0  0  0  0
   59.0940   28.4000   45.9180 C   0  0  0  0  0  0  0  0  0  0  0  0
   60.4140   29.1230   45.9310 C   0  0  0  0  0  0  0  0  0  0  0  0
   60.5110   30.0000   47.1000 N   0  0  0  0  0  0  0  0  0  0  0  0
   59.9570   31.3320   47.1640 C   0  0  0  0  0  0  0  0  0  0  0  0
   59.1570   31.8360   46.1200 C   0  0  0  0  0  0  0  0  0  0  0  0
   58.6320   33.1290   46.1870 C   0  0  0  0  0  0  0  0  0  0  0  0
   57.6420   33.7440   44.8760 Cl  0  0  0  0  0  0  0  0  0  0  0  0
   58.8930   33.9310   47.2990 C   0  0  0  0  0  0  0  0  0  0  0  0
   59.6770   33.4440   48.3450 C   0  0  0  0  0  0  0  0  0  0  0  0
   60.2160   32.1430   48.2890 C   0  0  0  0  0  0  0  0  0  0  0  0
   61.0170   31.6330   49.3240 O   0  0  0  0  0  0  0  0  0  0  0  0
   60.5890   30.6680   50.2790 C   0  0  0  0  0  0  0  0  0  0  0  0
   58.9970   27.0840   46.4200 C   0  0  0  0  0  0  0  0  0  0  0  0
   57.7520   26.4650   46.3930 C   0  0  0  0  0  0  0  0  0  0  0  0
   56.6500   27.0820   45.8970 C   0  0  0  0  0  0  0  0  0  0  0  0
   55.5650   26.2330   46.0000 O   0  0  0  0  0  0  0  0  0  0  0  0
   56.0130   25.0090   46.5980 C   0  0  0  0  0  0  0  0  0  0  0  0
   57.4140   25.2000   46.8320 O   0  0  0  0  0  0  0  0  0  0  0  0
   57.2744   29.4038   43.0217 H   0  0  0  0  0  0  0  0  0  0  0  0
   55.7786   28.9751   42.1244 H   0  0  0  0  0  0  0  0  0  0  0  0
   56.3711   30.6708   42.1244 H   0  0  0  0  0  0  0  0  0  0  0  0
   55.8328   30.9486   44.4573 H   0  0  0  0  0  0  0  0  0  0  0  0
   54.3971   30.1897   43.6674 H   0  0  0  0  0  0  0  0  0  0  0  0
   58.0208   30.0596   44.9882 H   0  0  0  0  0  0  0  0  0  0  0  0
   61.2296   28.3856   45.9638 H   0  0  0  0  0  0  0  0  0  0  0  0
   60.4911   29.7360   45.0209 H   0  0  0  0  0  0  0  0  0  0  0  0
   61.0810   29.6480   47.9020 H   0  0  0  0  0  0  0  0  0  0  0  0
   58.9437   31.2059   45.2440 H   0  0  0  0  0  0  0  0  0  0  0  0
   58.4797   34.9491   47.3507 H   0  0  0  0  0  0  0  0  0  0  0  0
   59.8760   34.0802   49.2200 H   0  0  0  0  0  0  0  0  0  0  0  0
   60.7608   31.0554   51.2941 H   0  0  0  0  0  0  0  0  0  0  0  0
   59.5167   30.4656   50.1404 H   0  0  0  0  0  0  0  0  0  0  0  0
   61.1587   29.7373   50.1404 H   0  0  0  0  0  0  0  0  0  0  0  0
   59.8797   26.5639   46.8204 H   0  0  0  0  0  0  0  0  0  0  0  0
   55.4845   24.8256   47.5452 H   0  0  0  0  0  0  0  0  0  0  0  0
   55.8171   24.1391   45.9538 H   0  0  0  0  0  0  0  0  0  0  0  0
  1  2  1  0
  2  3  1  0
  3  4  1  0
  4  5  2  0
  5  6  1  0
  6  7  1  0
  7  8  1  0
  8  9  1  0
  9 10  2  0
 10 11  1  0
 11 12  1  0
 11 13  2  0
 13 14  1  0
 14 15  2  0
 15 16  1  0
 16 17  1  0
  6 18  2  0
 18 19  1  0
 19 20  2  0
 20 21  1  0
 21 22  1  0
 22 23  1  0
 20  4  1  0
 15  9  1  0
 23 19  1  0
  1 24  1  0
  1 25  1  0
  1 26  1  0
  2 27  1  0
  2 28  1  0
  5 29  1  0
  7 30  1  0
  7 31  1  0
  8 32  1  0
 10 33  1  0
 13 34  1  0
 14 35  1  0
 17 36  1  0
 17 37  1  0
 17 38  1  0
 18 39  1  0
 22 40  1  0
 22 41  1  0
M  END
>  <UniqueID>  (6) 
6

>  <SMILES>  (6) 
CCOc1cc(CNc2cc(Cl)ccc2OC)cc2c1OCO2

>  <Energy>  (6) 
66.70621671962087

>  <Genealogy>  (6) 
CCOc1cc(CNc2cc(Cl)ccc2OC)cc2c1OCO2 (3D coordinates assigned)
CCOc1cc(CNc2cc(Cl)ccc2OC)cc2c1OCO2 (nonaromatic ring conformer: 66.70621671962087 kcal/mol)

>  <smiles>  (6) 
CCOc1cc(CNc2cc(Cl)ccc2OC)cc2c1OCO2

>  <score_type>  (6) 
oracle

>  <origin>  (6) 
adg

>  <m_score__min__energy>  (6) 
-7.4900000000000002

>  <m_primary>  (6) 
energy

$$$$
6:0
     RDKit          3D

 46 48  0  0  0  0  0  0  0  0999 V2000
   58.5810   27.4280   46.4000 C   0  0  0  0  0  0  0  0  0  0  0  0
   57.8490   26.7010   45.2740 C   0  0  0  0  0  0  0  0  0  0  0  0
   58.3030   27.2160   43.8960 C   0  0  0  0  0  0  0  0  0  0  0  0
   58.0930   28.6670   43.7420 N   0  0  0  0  0  0  0  0  0  0  0  0
   56.9260   28.9770   42.9000 C   0  0  0  0  0  0  0  0  0  0  0  0
   56.0800   30.0900   43.5320 C   0  0  0  0  0  0  0  0  0  0  0  0
   56.5200   30.3630   44.8640 O   0  0  0  0  0  0  0  0  0  0  0  0
   57.3920   31.3970   45.2410 C   0  0  0  0  0  0  0  0  0  0  0  0
   57.1150   32.6910   44.7820 C   0  0  0  0  0  0  0  0  0  0  0  0
   57.9450   33.7630   45.1200 C   0  0  0  0  0  0  0  0  0  0  0  0
   59.0710   33.5520   45.9340 C   0  0  0  0  0  0  0  0  0  0  0  0
   59.9390   34.5930   46.2980 C   0  0  0  0  0  0  0  0  0  0  0  0
   59.7430   35.7740   45.9000 O   0  0  0  0  0  0  0  0  0  0  0  0
   61.0390   34.3160   47.1110 C   0  0  0  0  0  0  0  0  0  0  0  0
   61.2550   32.9970   47.5520 C   0  0  0  0  0  0  0  0  0  0  0  0
   62.4080   32.6400   48.4170 C   0  0  0  0  0  0  0  0  0  0  0  0
   62.3420   31.5780   49.3420 C   0  0  0  0  0  0  0  0  0  0  0  0
   63.4480   31.2600   50.1350 C   0  0  0  0  0  0  0  0  0  0  0  0
   64.6320   31.9900   50.0130 C   0  0  0  0  0  0  0  0  0  0  0  0
   64.7160   33.0360   49.0910 C   0  0  0  0  0  0  0  0  0  0  0  0
   63.6130   33.3580   48.2950 C   0  0  0  0  0  0  0  0  0  0  0  0
   60.4140   32.0350   47.1780 O   0  0  0  0  0  0  0  0  0  0  0  0
   59.3540   32.2530   46.4060 C   0  0  0  0  0  0  0  0  0  0  0  0
   58.5170   31.1860   46.0620 C   0  0  0  0  0  0  0  0  0  0  0  0
   58.2142   27.0637   47.3710 H   0  0  0  0  0  0  0  0  0  0  0  0
   59.6609   27.2347   46.3200 H   0  0  0  0  0  0  0  0  0  0  0  0
   58.3951   28.5092   46.3200 H   0  0  0  0  0  0  0  0  0  0  0  0
   58.0621   25.6241   45.3433 H   0  0  0  0  0  0  0  0  0  0  0  0
   56.7703   26.8888   45.3796 H   0  0  0  0  0  0  0  0  0  0  0  0
   59.3743   26.9990   43.7730 H   0  0  0  0  0  0  0  0  0  0  0  0
   57.6985   26.7063   43.1313 H   0  0  0  0  0  0  0  0  0  0  0  0
   58.9490   29.0670   43.2890 H   0  0  0  0  0  0  0  0  0  0  0  0
   57.9840   29.1140   44.6830 H   0  0  0  0  0  0  0  0  0  0  0  0
   57.2730   29.3058   41.9093 H   0  0  0  0  0  0  0  0  0  0  0  0
   56.3071   28.0724   42.8074 H   0  0  0  0  0  0  0  0  0  0  0  0
   56.1738   31.0033   42.9262 H   0  0  0  0  0  0  0  0  0  0  0  0
   55.0308   29.7613   43.5660 H   0  0  0  0  0  0  0  0  0  0  0  0
   56.2334   32.8654   44.1477 H   0  0  0  0  0  0  0  0  0  0  0  0
   57.7169   34.7730   44.7486 H   0  0  0  0  0  0  0  0  0  0  0  0
   61.7300   35.1202   47.4041 H   0  0  0  0  0  0  0  0  0  0  0  0
   61.4138   30.9959   49.4402 H   0  0  0  0  0  0  0  0  0  0  0  0
   63.3856   30.4325   50.8571 H   0  0  0  0  0  0  0  0  0  0  0  0
   65.4987   31.7414   50.6430 H   0  0  0  0  0  0  0  0  0  0  0  0
   65.6510   33.6068   48.9913 H   0  0  0  0  0  0  0  0  0  0  0  0
   63.6871   34.1794   47.5671 H   0  0  0  0  0  0  0  0  0  0  0  0
   58.7390   30.1753   46.4352 H   0  0  0  0  0  0  0  0  0  0  0  0
  1  2  1  0
  2  3  1  0
  3  4  1  0
  4  5  1  0
  5  6  1  0
  6  7  1  0
  7  8  1  0
  8  9  2  0
  9 10  1  0
 10 11  2  0
 11 12  1  0
 12 13  2  0
 12 14  1  0
 14 15  2  0
 15 16  1  0
 16 17  2  0
 17 18  1  0
 18 19  2  0
 19 20  1  0
 20 21  2  0
 15 22  1  0
 22 23  1  0
 23 24  2  0
 24  8  1  0
 23 11  1  0
 21 16  1  0
  1 25  1  0
  1 26  1  0
  1 27  1  0
  2 28  1  0
  2 29  1  0
  3 30  1  0
  3 31  1  0
  4 32  1  0
  4 33  1  0
  5 34  1  0
  5 35  1  0
  6 36  1  0
  6 37  1  0
  9 38  1  0
 10 39  1  0
 14 40  1  0
 17 41  1  0
 18 42  1  0
 19 43  1  0
 20 44  1  0
 21 45  1  0
 24 46  1  0
M  CHG  1   4   1
M  END
>  <UniqueID>  (7) 
7

>  <SMILES>  (7) 
CCC[NH2+]CCOc1ccc2c(=O)cc(-c3ccccc3)oc2c1

>  <Energy>  (7) 
51.161940171450254

>  <Genealogy>  (7) 
CCC[NH2+]CCOc1ccc2c(=O)cc(-c3ccccc3)oc2c1 (protonated)
CCC[NH2+]CCOc1ccc2c(=O)cc(-c3ccccc3)oc2c1 (3D coordinates assigned)
CCC[NH2+]CCOc1ccc2c(=O)cc(-c3ccccc3)oc2c1 (optimized conformer: 51.161940171450254 kcal/mol)

>  <smiles>  (7) 
CCCNCCOc1ccc2c(=O)cc(-c3ccccc3)oc2c1

>  <score_type>  (7) 
oracle

>  <origin>  (7) 
adg

>  <m_score__min__energy>  (7) 
-6.1299999999999999

>  <m_primary>  (7) 
energy

$$$$
7:0
     RDKit          3D

 50 52  0  0  0  0  0  0  0  0999 V2000
   61.7850   33.4400   50.4870 C   0  0  0  0  0  0  0  0  0  0  0  0
   62.3180   33.0320   49.1450 C   0  0  0  0  0  0  0  0  0  0  0  0
   61.5910   32.5280   48.0720 C   0  0  0  0  0  0  0  0  0  0  0  0
   60.1000   32.3280   47.9560 C   0  0  0  0  0  0  0  0  0  0  0  0
   59.3540   33.5500   47.5730 N   0  0  0  0  0  0  0  0  0  0  0  0
   59.9470   34.3380   46.4770 C   0  0  0  0  0  0  0  0  0  0  0  0
   59.5390   33.8300   45.0760 C   0  0  0  0  0  0  0  0  0  0  0  0
   58.3500   32.9450   45.1120 N   0  0  0  0  0  0  0  0  0  0  0  0
   57.7630   32.7780   43.7650 C   0  0  0  0  0  0  0  0  0  0  0  0
   57.1600   31.3780   43.5940 C   0  0  0  0  0  0  0  0  0  0  0  0
   57.0230   30.7330   44.8600 O   0  0  0  0  0  0  0  0  0  0  0  0
   57.9140   29.7860   45.3900 C   0  0  0  0  0  0  0  0  0  0  0  0
   57.4000   28.5420   45.7820 C   0  0  0  0  0  0  0  0  0  0  0  0
   58.2410   27.5630   46.3180 C   0  0  0  0  0  0  0  0  0  0  0  0
   59.6060   27.8190   46.4690 C   0  0  0  0  0  0  0  0  0  0  0  0
   60.1300   29.0550   46.0850 C   0  0  0  0  0  0  0  0  0  0  0  0
   59.2930   30.0380   45.5490 C   0  0  0  0  0  0  0  0  0  0  0  0
   57.3490   33.4750   46.0520 C   0  0  0  0  0  0  0  0  0  0  0  0
   57.8840   33.4050   47.4930 C   0  0  0  0  0  0  0  0  0  0  0  0
   62.5430   32.1840   47.1250 C   0  0  0  0  0  0  0  0  0  0  0  0
   63.7620   32.4740   47.6120 N   0  0  0  0  0  0  0  0  0  0  0  0
   63.6300   32.9740   48.8300 N   0  0  0  0  0  0  0  0  0  0  0  0
   64.7480   33.4040   49.6640 C   0  0  0  0  0  0  0  0  0  0  0  0
   62.3913   32.9759   51.2789 H   0  0  0  0  0  0  0  0  0  0  0  0
   61.8324   34.5348   50.5830 H   0  0  0  0  0  0  0  0  0  0  0  0
   60.7406   33.1084   50.5830 H   0  0  0  0  0  0  0  0  0  0  0  0
   59.9131   31.5562   47.1948 H   0  0  0  0  0  0  0  0  0  0  0  0
   59.7403   32.0362   48.9537 H   0  0  0  0  0  0  0  0  0  0  0  0
   59.6190   35.3829   46.5798 H   0  0  0  0  0  0  0  0  0  0  0  0
   61.0397   34.2398   46.5562 H   0  0  0  0  0  0  0  0  0  0  0  0
   59.3125   34.6979   44.4392 H   0  0  0  0  0  0  0  0  0  0  0  0
   60.3791   33.2417   44.6783 H   0  0  0  0  0  0  0  0  0  0  0  0
   56.9724   33.5294   43.6222 H   0  0  0  0  0  0  0  0  0  0  0  0
   58.5602   32.9081   43.0183 H   0  0  0  0  0  0  0  0  0  0  0  0
   56.1695   31.4658   43.1237 H   0  0  0  0  0  0  0  0  0  0  0  0
   57.8297   30.7779   42.9604 H   0  0  0  0  0  0  0  0  0  0  0  0
   56.3259   28.3348   45.6667 H   0  0  0  0  0  0  0  0  0  0  0  0
   57.8277   26.5898   46.6213 H   0  0  0  0  0  0  0  0  0  0  0  0
   60.2675   27.0475   46.8901 H   0  0  0  0  0  0  0  0  0  0  0  0
   61.2049   29.2558   46.2046 H   0  0  0  0  0  0  0  0  0  0  0  0
   59.7108   31.0108   45.2503 H   0  0  0  0  0  0  0  0  0  0  0  0
   57.1291   34.5221   45.7965 H   0  0  0  0  0  0  0  0  0  0  0  0
   56.4329   32.8705   45.9794 H   0  0  0  0  0  0  0  0  0  0  0  0
   57.4200   34.2124   48.0785 H   0  0  0  0  0  0  0  0  0  0  0  0
   57.6300   32.4109   47.8897 H   0  0  0  0  0  0  0  0  0  0  0  0
   62.3352   31.7459   46.1376 H   0  0  0  0  0  0  0  0  0  0  0  0
   64.6700   32.3220   47.1200 H   0  0  0  0  0  0  0  0  0  0  0  0
   64.4758   33.2993   50.7246 H   0  0  0  0  0  0  0  0  0  0  0  0
   65.6278   32.7801   49.4480 H   0  0  0  0  0  0  0  0  0  0  0  0
   64.9830   34.4567   49.4480 H   0  0  0  0  0  0  0  0  0  0  0  0
  1  2  1  0
  2  3  2  0
  3  4  1  0
  4  5  1  0
  5  6  1  0
  6  7  1  0
  7  8  1  0
  8  9  1  0
  9 10  1  0
 10 11  1  0
 11 12  1  0
 12 13  2  0
 13 14  1  0
 14 15  2  0
 15 16  1  0
 16 17  2  0
  8 18  1  0
 18 19  1  0
  3 20  1  0
 20 21  2  0
 21 22  1  0
 22 23  1  0
 22  2  1  0
 19  5  1  0
 17 12  1  0
  1 24  1  0
  1 25  1  0
  1 26  1  0
  4 27  1  0
  4 28  1  0
  6 29  1  0
  6 30  1  0
  7 31  1  0
  7 32  1  0
  9 33  1  0
  9 34  1  0
 10 35  1  0
 10 36  1  0
 13 37  1  0
 14 38  1  0
 15 39  1  0
 16 40  1  0
 17 41  1  0
 18 42  1  0
 18 43  1  0
 19 44  1  0
 19 45  1  0
 20 46  1  0
 21 47  1  0
 23 48  1  0
 23 49  1  0
 23 50  1  0
M  CHG  1  21   1
M  END
>  <UniqueID>  (8) 
8

>  <SMILES>  (8) 
Cc1c(CN2CCN(CCOc3ccccc3)CC2)c[nH+]n1C

>  <Energy>  (8) 
91.31270798103697

>  <Genealogy>  (8) 
Cc1c(CN2CCN(CCOc3ccccc3)CC2)c[nH+]n1C (protonated)
Cc1c(CN2CCN(CCOc3ccccc3)CC2)c[nH+]n1C (3D coordinates assigned)
Cc1c(CN2CCN(CCOc3ccccc3)CC2)c[nH+]n1C (nonaromatic ring conformer: 91.31270798103697 kcal/mol)

>  <smiles>  (8) 
Cc1c(CN2CCN(CCOc3ccccc3)CC2)cnn1C

>  <score_type>  (8) 
oracle

>  <origin>  (8) 
adg

>  <m_score__min__energy>  (8) 
-6.3099999999999996

>  <m_primary>  (8) 
energy

$$$$
8:0
     RDKit          3D

 61 63  0  0  0  0  0  0  0  0999 V2000
   59.8250   34.1790   45.4560 C   0  0  0  0  0  0  0  0  0  0  0  0
   59.0520   33.8900   46.6750 N   0  0  0  0  0  0  0  0  0  0  0  0
   59.3030   34.9360   47.6800 C   0  0  0  0  0  0  0  0  0  0  0  0
   57.6120   33.7890   46.3490 C   0  0  0  0  0  0  0  0  0  0  0  0
   57.3920   33.4490   44.8550 C   0  0  0  0  0  0  0  0  0  0  0  0
   57.3200   31.9350   44.5840 C   0  0  0  0  0  0  0  0  0  0  0  0
   57.6780   31.1920   45.7410 O   0  0  0  0  0  0  0  0  0  0  0  0
   58.2630   29.9470   45.4050 C   0  0  0  0  0  0  0  0  0  0  0  0
   58.6110   29.1160   46.6560 C   0  0  0  0  0  0  0  0  0  0  0  0
   59.5260   29.8390   47.6580 C   0  0  0  0  0  0  0  0  0  0  0  0
   59.2890   31.2980   47.6960 N   0  0  0  0  0  0  0  0  0  0  0  0
   60.0790   31.9290   48.7480 C   0  0  0  0  0  0  0  0  0  0  0  0
   61.4260   32.3290   48.5170 C   0  0  0  0  0  0  0  0  0  0  0  0
   62.1480   32.9710   49.5610 C   0  0  0  0  0  0  0  0  0  0  0  0
   61.6240   33.0250   50.8380 N   0  0  0  0  0  0  0  0  0  0  0  0
   62.4780   33.4420   51.9750 C   0  0  0  0  0  0  0  0  0  0  0  0
   60.2900   32.7420   51.0560 C   0  0  0  0  0  0  0  0  0  0  0  0
   59.6760   33.0050   52.3100 C   0  0  0  0  0  0  0  0  0  0  0  0
   58.3180   32.7510   52.5140 C   0  0  0  0  0  0  0  0  0  0  0  0
   57.5250   32.2640   51.4770 C   0  0  0  0  0  0  0  0  0  0  0  0
   58.0970   32.0020   50.2350 C   0  0  0  0  0  0  0  0  0  0  0  0
   59.4850   32.2140   50.0050 C   0  0  0  0  0  0  0  0  0  0  0  0
   63.5150   33.5830   49.2730 C   0  0  0  0  0  0  0  0  0  0  0  0
   63.7610   33.8400   47.7900 C   0  0  0  0  0  0  0  0  0  0  0  0
   63.5230   32.5530   47.0240 C   0  0  0  0  0  0  0  0  0  0  0  0
   62.0540   32.1310   47.1360 C   0  0  0  0  0  0  0  0  0  0  0  0
   60.8220   34.5517   45.7338 H   0  0  0  0  0  0  0  0  0  0  0  0
   59.9299   33.2593   44.8617 H   0  0  0  0  0  0  0  0  0  0  0  0
   59.3008   34.9419   44.8617 H   0  0  0  0  0  0  0  0  0  0  0  0
   59.2003   34.5081   48.6881 H   0  0  0  0  0  0  0  0  0  0  0  0
   60.3215   35.3312   47.5514 H   0  0  0  0  0  0  0  0  0  0  0  0
   58.5748   35.7503   47.5514 H   0  0  0  0  0  0  0  0  0  0  0  0
   57.1603   32.9983   46.9660 H   0  0  0  0  0  0  0  0  0  0  0  0
   57.1421   34.7621   46.5547 H   0  0  0  0  0  0  0  0  0  0  0  0
   56.4481   33.9086   44.5268 H   0  0  0  0  0  0  0  0  0  0  0  0
   58.2564   33.8409   44.2989 H   0  0  0  0  0  0  0  0  0  0  0  0
   56.2934   31.6707   44.2904 H   0  0  0  0  0  0  0  0  0  0  0  0
   58.0271   31.6897   43.7779 H   0  0  0  0  0  0  0  0  0  0  0  0
   57.5544   29.3772   44.7860 H   0  0  0  0  0  0  0  0  0  0  0  0
   59.1969   30.1467   44.8592 H   0  0  0  0  0  0  0  0  0  0  0  0
   57.6735   28.8567   47.1697 H   0  0  0  0  0  0  0  0  0  0  0  0
   59.1630   28.2317   46.3048 H   0  0  0  0  0  0  0  0  0  0  0  0
   59.3446   29.4266   48.6615 H   0  0  0  0  0  0  0  0  0  0  0  0
   60.5652   29.6791   47.3348 H   0  0  0  0  0  0  0  0  0  0  0  0
   58.2670   31.4680   47.8190 H   0  0  0  0  0  0  0  0  0  0  0  0
   59.5120   31.7510   46.7800 H   0  0  0  0  0  0  0  0  0  0  0  0
   61.9743   33.1960   52.9214 H   0  0  0  0  0  0  0  0  0  0  0  0
   63.4409   32.9127   51.9238 H   0  0  0  0  0  0  0  0  0  0  0  0
   62.6527   34.5268   51.9238 H   0  0  0  0  0  0  0  0  0  0  0  0
   60.2797   33.4151   53.1330 H   0  0  0  0  0  0  0  0  0  0  0  0
   57.8707   32.9370   53.5016 H   0  0  0  0  0  0  0  0  0  0  0  0
   56.4514   32.0873   51.6389 H   0  0  0  0  0  0  0  0  0  0  0  0
   57.4650   31.6246   49.4176 H   0  0  0  0  0  0  0  0  0  0  0  0
   63.5891   34.5401   49.8101 H   0  0  0  0  0  0  0  0  0  0  0  0
   64.2728   32.8595   49.6082 H   0  0  0  0  0  0  0  0  0  0  0  0
   63.0708   34.6172   47.4302 H   0  0  0  0  0  0  0  0  0  0  0  0
   64.7959   34.1799   47.6366 H   0  0  0  0  0  0  0  0  0  0  0  0
   63.7759   32.7090   45.9649 H   0  0  0  0  0  0  0  0  0  0  0  0
   64.1562   31.7608   47.4500 H   0  0  0  0  0  0  0  0  0  0  0  0
   61.4739   32.7197   46.4101 H   0  0  0  0  0  0  0  0  0  0  0  0
   62.0301   31.0488   46.9406 H   0  0  0  0  0  0  0  0  0  0  0  0
  1  2  1  0
  2  3  1  0
  2  4  1  0
  4  5  1  0
  5  6  1  0
  6  7  1  0
  7  8  1  0
  8  9  1  0
  9 10  1  0
 10 11  1  0
 11 12  1  0
 12 13  2  0
 13 14  1  0
 14 15  2  0
 15 16  1  0
 15 17  1  0
 17 18  2  0
 18 19  1  0
 19 20  2  0
 20 21  1  0
 21 22  2  0
 14 23  1  0
 23 24  1  0
 24 25  1  0
 25 26  1  0
 22 12  1  0
 26 13  1  0
 22 17  1  0
  1 27  1  0
  1 28  1  0
  1 29  1  0
  3 30  1  0
  3 31  1  0
  3 32  1  0
  4 33  1  0
  4 34  1  0
  5 35  1  0
  5 36  1  0
  6 37  1  0
  6 38  1  0
  8 39  1  0
  8 40  1  0
  9 41  1  0
  9 42  1  0
 10 43  1  0
 10 44  1  0
 11 45  1  0
 11 46  1  0
 16 47  1  0
 16 48  1  0
 16 49  1  0
 18 50  1  0
 19 51  1  0
 20 52  1  0
 21 53  1  0
 23 54  1  0
 23 55  1  0
 24 56  1  0
 24 57  1  0
 25 58  1  0
 25 59  1  0
 26 60  1  0
 26 61  1  0
M  CHG  2  11   1  15   1
M  END
>  <UniqueID>  (9) 
9

>  <SMILES>  (9) 
CN(C)CCCOCCC[NH2+]c1c2c([n+](C)c3ccccc13)CCCC2

>  <Energy>  (9) 
85.59296640328785

>  <Genealogy>  (9) 
CN(C)CCCOCCC[NH2+]c1c2c([n+](C)c3ccccc13)CCCC2 (protonated)
CN(C)CCCOCCC[NH2+]c1c2c([n+](C)c3ccccc13)CCCC2 (3D coordinates assigned)
CN(C)CCCOCCC[NH2+]c1c2c([n+](C)c3ccccc13)CCCC2 (nonaromatic ring conformer: 85.59296640328785 kcal/mol)

>  <smiles>  (9) 
CN(C)CCCOCCCNc1c2c([n+](C)c3ccccc13)CCCC2

>  <score_type>  (9) 
oracle

>  <origin>  (9) 
adg

>  <m_score__min__energy>  (9) 
-4.7300000000000004

>  <m_primary>  (9) 
energy

$$$$
9:0
     RDKit          3D

 80 82  0  0  0  0  0  0  0  0999 V2000
   56.0070   30.0360   43.4850 C   0  0  0  0  0  0  0  0  0  0  0  0
   56.1250   29.8730   44.8810 O   0  0  0  0  0  0  0  0  0  0  0  0
   57.4470   29.4980   45.2280 C   0  0  0  0  0  0  0  0  0  0  0  0
   58.3600   30.7240   45.2070 C   0  0  0  0  0  0  0  0  0  0  0  0
   58.9300   30.9320   46.4870 O   0  0  0  0  0  0  0  0  0  0  0  0
   59.6940   29.8130   46.8850 C   0  0  0  0  0  0  0  0  0  0  0  0
   60.4680   30.1660   48.1630 C   0  0  0  0  0  0  0  0  0  0  0  0
   60.6140   29.0870   49.0760 O   0  0  0  0  0  0  0  0  0  0  0  0
   60.5720   29.4820   50.4390 C   0  0  0  0  0  0  0  0  0  0  0  0
   61.8200   30.2600   50.8980 C   0  0  0  0  0  0  0  0  0  0  0  0
   62.7730   29.3860   51.4780 O   0  0  0  0  0  0  0  0  0  0  0  0
   64.0960   29.8380   51.2520 C   0  0  0  0  0  0  0  0  0  0  0  0
   65.0210   29.4040   52.4200 C   0  0  0  0  0  0  0  0  0  0  0  0
   66.4610   29.1470   52.0690 N   0  0  0  0  0  0  0  0  0  0  0  0
   67.2570   29.0210   53.3190 C   0  0  0  0  0  0  0  0  0  0  0  0
   66.5670   27.8900   51.2780 C   0  0  0  0  0  0  0  0  0  0  0  0
   66.9390   30.3410   51.2790 C   0  0  0  0  0  0  0  0  0  0  0  0
   67.1740   31.6850   52.0320 C   0  0  0  0  0  0  0  0  0  0  0  0
   67.1970   32.9470   51.1660 C   0  0  0  0  0  0  0  0  0  0  0  0
   66.4100   32.7540   49.9900 O   0  0  0  0  0  0  0  0  0  0  0  0
   65.0370   33.0270   49.9020 C   0  0  0  0  0  0  0  0  0  0  0  0
   64.2340   33.2120   51.0330 C   0  0  0  0  0  0  0  0  0  0  0  0
   62.8630   33.4080   50.8950 C   0  0  0  0  0  0  0  0  0  0  0  0
   62.2500   33.4400   49.6190 C   0  0  0  0  0  0  0  0  0  0  0  0
   63.0810   33.4110   48.4660 C   0  0  0  0  0  0  0  0  0  0  0  0
   64.4610   33.1220   48.6350 C   0  0  0  0  0  0  0  0  0  0  0  0
   62.5380   33.6510   47.2210 N   0  0  0  0  0  0  0  0  0  0  0  0
   63.4230   33.8960   46.0580 C   0  0  0  0  0  0  0  0  0  0  0  0
   61.1680   33.7430   47.0790 C   0  0  0  0  0  0  0  0  0  0  0  0
   60.5570   33.8260   45.8010 C   0  0  0  0  0  0  0  0  0  0  0  0
   59.1850   34.0270   45.6700 C   0  0  0  0  0  0  0  0  0  0  0  0
   58.3900   34.1520   46.8000 C   0  0  0  0  0  0  0  0  0  0  0  0
   58.9490   34.0110   48.0670 C   0  0  0  0  0  0  0  0  0  0  0  0
   60.3340   33.7440   48.2330 C   0  0  0  0  0  0  0  0  0  0  0  0
   60.8800   33.5080   49.4760 N   0  0  0  0  0  0  0  0  0  0  0  0
   59.9980   33.2530   50.6410 C   0  0  0  0  0  0  0  0  0  0  0  0
   55.3744   30.9098   43.2701 H   0  0  0  0  0  0  0  0  0  0  0  0
   57.0048   30.1893   43.0481 H   0  0  0  0  0  0  0  0  0  0  0  0
   55.5498   29.1360   43.0481 H   0  0  0  0  0  0  0  0  0  0  0  0
   57.4485   29.0597   46.2369 H   0  0  0  0  0  0  0  0  0  0  0  0
   57.8161   28.7600   44.5005 H   0  0  0  0  0  0  0  0  0  0  0  0
   59.1637   30.5659   44.4728 H   0  0  0  0  0  0  0  0  0  0  0  0
   57.7670   31.6082   44.9304 H   0  0  0  0  0  0  0  0  0  0  0  0
   59.0261   28.9614   47.0816 H   0  0  0  0  0  0  0  0  0  0  0  0
   60.3995   29.5412   46.0860 H   0  0  0  0  0  0  0  0  0  0  0  0
   61.4718   30.5104   47.8736 H   0  0  0  0  0  0  0  0  0  0  0  0
   59.8830   30.9399   48.6815 H   0  0  0  0  0  0  0  0  0  0  0  0
   59.6898   30.1220   50.5879 H   0  0  0  0  0  0  0  0  0  0  0  0
   60.5291   28.5610   51.0390 H   0  0  0  0  0  0  0  0  0  0  0  0
   62.2721   30.7613   50.0295 H   0  0  0  0  0  0  0  0  0  0  0  0
   61.5160   31.0007   51.6523 H   0  0  0  0  0  0  0  0  0  0  0  0
   64.4713   29.4063   50.3124 H   0  0  0  0  0  0  0  0  0  0  0  0
   64.0926   30.9361   51.1877 H   0  0  0  0  0  0  0  0  0  0  0  0
   64.9979   30.1996   53.1793 H   0  0  0  0  0  0  0  0  0  0  0  0
   64.6256   28.4368   52.7637 H   0  0  0  0  0  0  0  0  0  0  0  0
   66.5923   29.1262   54.1891 H   0  0  0  0  0  0  0  0  0  0  0  0
   67.7433   28.0347   53.3462 H   0  0  0  0  0  0  0  0  0  0  0  0
   68.0241   29.8089   53.3462 H   0  0  0  0  0  0  0  0  0  0  0  0
   66.6394   27.0315   51.9619 H   0  0  0  0  0  0  0  0  0  0  0  0
   65.6750   27.7795   50.6439 H   0  0  0  0  0  0  0  0  0  0  0  0
   67.4649   27.9304   50.6439 H   0  0  0  0  0  0  0  0  0  0  0  0
   67.8939   30.0596   50.8111 H   0  0  0  0  0  0  0  0  0  0  0  0
   66.1084   30.5591   50.5916 H   0  0  0  0  0  0  0  0  0  0  0  0
   66.3691   31.8004   52.7728 H   0  0  0  0  0  0  0  0  0  0  0  0
   68.1810   31.6073   52.4678 H   0  0  0  0  0  0  0  0  0  0  0  0
   66.7883   33.7902   51.7421 H   0  0  0  0  0  0  0  0  0  0  0  0
   68.2351   33.1607   50.8715 H   0  0  0  0  0  0  0  0  0  0  0  0
   64.6880   33.2025   52.0349 H   0  0  0  0  0  0  0  0  0  0  0  0
   62.2438   33.5406   51.7944 H   0  0  0  0  0  0  0  0  0  0  0  0
   65.0906   32.9695   47.7460 H   0  0  0  0  0  0  0  0  0  0  0  0
   64.4264   34.1738   46.4129 H   0  0  0  0  0  0  0  0  0  0  0  0
   63.4894   32.9825   45.4489 H   0  0  0  0  0  0  0  0  0  0  0  0
   63.0101   34.7136   45.4489 H   0  0  0  0  0  0  0  0  0  0  0  0
   61.1777   33.7299   44.8980 H   0  0  0  0  0  0  0  0  0  0  0  0
   58.7314   34.0867   44.6697 H   0  0  0  0  0  0  0  0  0  0  0  0
   57.3156   34.3630   46.6945 H   0  0  0  0  0  0  0  0  0  0  0  0
   58.3070   34.1080   48.9549 H   0  0  0  0  0  0  0  0  0  0  0  0
   60.5625   33.4162   51.5709 H   0  0  0  0  0  0  0  0  0  0  0  0
   59.1393   33.9397   50.6080 H   0  0  0  0  0  0  0  0  0  0  0  0
   59.6382   32.2140   50.6080 H   0  0  0  0  0  0  0  0  0  0  0  0
  1  2  1  0
  2  3  1  0
  3  4  1  0
  4  5  1  0
  5  6  1  0
  6  7  1  0
  7  8  1  0
  8  9  1  0
  9 10  1  0
 10 11  1  0
 11 12  1  0
 12 13  1  0
 13 14  1  0
 14 15  1  0
 14 16  1  0
 14 17  1  0
 17 18  1  0
 18 19  1  0
 19 20  1  0
 20 21  1  0
 21 22  2  0
 22 23  1  0
 23 24  2  0
 24 25  1  0
 25 26  2  0
 25 27  1  0
 27 28  1  0
 27 29  2  0
 29 30  1  0
 30 31  2  0
 31 32  1  0
 32 33  2  0
 33 34  1  0
 34 35  2  0
 35 36  1  0
 26 21  1  0
 34 29  1  0
 35 24  1  0
  1 37  1  0
  1 38  1  0
  1 39  1  0
  3 40  1  0
  3 41  1  0
  4 42  1  0
  4 43  1  0
  6 44  1  0
  6 45  1  0
  7 46  1  0
  7 47  1  0
  9 48  1  0
  9 49  1  0
 10 50  1  0
 10 51  1  0
 12 52  1  0
 12 53  1  0
 13 54  1  0
 13 55  1  0
 15 56  1  0
 15 57  1  0
 15 58  1  0
 16 59  1  0
 16 60  1  0
 16 61  1  0
 17 62  1  0
 17 63  1  0
 18 64  1  0
 18 65  1  0
 19 66  1  0
 19 67  1  0
 22 68  1  0
 23 69  1  0
 26 70  1  0
 28 71  1  0
 28 72  1  0
 28 73  1  0
 30 74  1  0
 31 75  1  0
 32 76  1  0
 33 77  1  0
 36 78  1  0
 36 79  1  0
 36 80  1  0
M  CHG  3  14   1  27   1  35   1
M  END
>  <UniqueID>  (10) 
10

>  <SMILES>  (10) 
COCCOCCOCCOCC[N+](C)(C)CCCOc1ccc2c(c1)[n+](C)c1ccccc1[n+]2C

>  <Energy>  (10) 
136.75485349111864

>  <Genealogy>  (10) 
COCCOCCOCCOCC[N+](C)(C)CCCOc1ccc2c(c1)[n+](C)c1ccccc1[n+]2C (3D coordinates assigned)
COCCOCCOCCOCC[N+](C)(C)CCCOc1ccc2c(c1)[n+](C)c1ccccc1[n+]2C (optimized conformer: 136.75485349111864 kcal/mol)

>  <smiles>  (10) 
COCCOCCOCCOCC[N+](C)(C)CCCOc1ccc2c(c1)[n+](C)c1ccccc1[n+]2C

>  <score_type>  (10) 
oracle

>  <origin>  (10) 
adg

>  <m_score__min__energy>  (10) 
-3.2400000000000002

>  <m_primary>  (10) 
energy

$$$$
10:0
     RDKit          3D

 54 55  0  0  0  0  0  0  0  0999 V2000
   60.0280   34.1350   49.7280 C   0  0  0  0  0  0  0  0  0  0  0  0
   59.6660   34.8990   48.5810 O   0  0  0  0  0  0  0  0  0  0  0  0
   59.2480   34.3450   47.3620 C   0  0  0  0  0  0  0  0  0  0  0  0
   59.3610   35.1230   46.2050 C   0  0  0  0  0  0  0  0  0  0  0  0
   58.9640   34.6140   44.9660 C   0  0  0  0  0  0  0  0  0  0  0  0
   58.4480   33.3200   44.8720 C   0  0  0  0  0  0  0  0  0  0  0  0
   58.3230   32.5260   46.0210 C   0  0  0  0  0  0  0  0  0  0  0  0
   57.7780   31.1260   45.9140 C   0  0  0  0  0  0  0  0  0  0  0  0
   56.7490   31.0490   44.8820 N   0  0  0  0  0  0  0  0  0  0  0  0
   56.2310   29.8190   44.3710 C   0  0  0  0  0  0  0  0  0  0  0  0
   55.1520   29.3460   44.8230 O   0  0  0  0  0  0  0  0  0  0  0  0
   56.9170   29.1670   43.3430 O   0  0  0  0  0  0  0  0  0  0  0  0
   57.7700   28.0490   43.5770 C   0  0  0  0  0  0  0  0  0  0  0  0
   57.7790   27.6840   45.0660 C   0  0  0  0  0  0  0  0  0  0  0  0
   59.1870   27.3970   45.6230 C   0  0  0  0  0  0  0  0  0  0  0  0
   59.5960   28.3780   46.6810 C   0  0  0  0  0  0  0  0  0  0  0  0
   60.5440   29.3860   46.5370 C   0  0  0  0  0  0  0  0  0  0  0  0
   60.5840   30.2660   47.6250 C   0  0  0  0  0  0  0  0  0  0  0  0
   59.6720   29.9420   48.6260 C   0  0  0  0  0  0  0  0  0  0  0  0
   59.3650   30.7730   49.8310 C   0  0  0  0  0  0  0  0  0  0  0  0
   58.8160   29.9030   50.9180 C   0  0  0  0  0  0  0  0  0  0  0  0
   59.5710   29.0860   51.5120 O   0  0  0  0  0  0  0  0  0  0  0  0
   57.4250   29.9770   51.2470 N   0  0  0  0  0  0  0  0  0  0  0  0
   56.8680   30.9110   52.2210 C   0  0  0  0  0  0  0  0  0  0  0  0
   55.3430   30.8730   52.1310 C   0  0  0  0  0  0  0  0  0  0  0  0
   57.3920   32.3250   51.9580 C   0  0  0  0  0  0  0  0  0  0  0  0
   58.8040   28.5830   48.1510 S   0  0  0  0  0  0  0  0  0  0  0  0
   58.7250   33.0410   47.2650 C   0  0  0  0  0  0  0  0  0  0  0  0
   59.7637   34.6928   50.6385 H   0  0  0  0  0  0  0  0  0  0  0  0
   59.4882   33.1766   49.7155 H   0  0  0  0  0  0  0  0  0  0  0  0
   61.1115   33.9458   49.7155 H   0  0  0  0  0  0  0  0  0  0  0  0
   59.7657   36.1437   46.2712 H   0  0  0  0  0  0  0  0  0  0  0  0
   59.0582   35.2341   44.0624 H   0  0  0  0  0  0  0  0  0  0  0  0
   58.1388   32.9224   43.8941 H   0  0  0  0  0  0  0  0  0  0  0  0
   58.5976   30.4383   45.6584 H   0  0  0  0  0  0  0  0  0  0  0  0
   57.3313   30.8463   46.8795 H   0  0  0  0  0  0  0  0  0  0  0  0
   57.4072   27.1887   42.9954 H   0  0  0  0  0  0  0  0  0  0  0  0
   58.7928   28.3107   43.2683 H   0  0  0  0  0  0  0  0  0  0  0  0
   57.3454   28.5217   45.6319 H   0  0  0  0  0  0  0  0  0  0  0  0
   57.1946   26.7584   45.1745 H   0  0  0  0  0  0  0  0  0  0  0  0
   59.1957   26.3861   46.0567 H   0  0  0  0  0  0  0  0  0  0  0  0
   59.9006   27.4856   44.7906 H   0  0  0  0  0  0  0  0  0  0  0  0
   61.1966   29.4819   45.6567 H   0  0  0  0  0  0  0  0  0  0  0  0
   61.2669   31.1264   47.6832 H   0  0  0  0  0  0  0  0  0  0  0  0
   60.2860   31.2605   50.1831 H   0  0  0  0  0  0  0  0  0  0  0  0
   58.6201   31.5377   49.5657 H   0  0  0  0  0  0  0  0  0  0  0  0
   57.1776   30.6183   53.2352 H   0  0  0  0  0  0  0  0  0  0  0  0
   54.9160   30.8624   53.1447 H   0  0  0  0  0  0  0  0  0  0  0  0
   54.9852   31.7625   51.5918 H   0  0  0  0  0  0  0  0  0  0  0  0
   55.0300   29.9668   51.5918 H   0  0  0  0  0  0  0  0  0  0  0  0
   57.5794   32.8308   52.9167 H   0  0  0  0  0  0  0  0  0  0  0  0
   58.3287   32.2681   51.3842 H   0  0  0  0  0  0  0  0  0  0  0  0
   56.6444   32.8923   51.3842 H   0  0  0  0  0  0  0  0  0  0  0  0
   58.6306   32.4216   48.1691 H   0  0  0  0  0  0  0  0  0  0  0  0
  1  2  1  0
  2  3  1  0
  3  4  2  0
  4  5  1  0
  5  6  2  0
  6  7  1  0
  7  8  1  0
  8  9  1  0
  9 10  1  0
 10 11  2  0
 10 12  1  0
 12 13  1  0
 13 14  1  0
 14 15  1  0
 15 16  1  0
 16 17  2  0
 17 18  1  0
 18 19  2  0
 19 20  1  0
 20 21  1  0
 21 22  2  0
 21 23  1  0
 23 24  1  0
 24 25  1  0
 24 26  1  0
 19 27  1  0
  7 28  2  0
 28  3  1  0
 27 16  1  0
  1 29  1  0
  1 30  1  0
  1 31  1  0
  4 32  1  0
  5 33  1  0
  6 34  1  0
  8 35  1  0
  8 36  1  0
 13 37  1  0
 13 38  1  0
 14 39  1  0
 14 40  1  0
 15 41  1  0
 15 42  1  0
 17 43  1  0
 18 44  1  0
 20 45  1  0
 20 46  1  0
 24 47  1  0
 25 48  1  0
 25 49  1  0
 25 50  1  0
 26 51  1  0
 26 52  1  0
 26 53  1  0
 28 54  1  0
M  CHG  2   9  -1  23  -1
M  END
>  <UniqueID>  (11) 
11

>  <SMILES>  (11) 
COc1cccc(C[N-]C(=O)OCCCc2ccc(CC(=O)[N-]C(C)C)s2)c1

>  <Energy>  (11) 
57.804749019769424

>  <Genealogy>  (11) 
COc1cccc(C[N-]C(=O)OCCCc2ccc(CC(=O)[N-]C(C)C)s2)c1 (protonated)
COc1cccc(C[N-]C(=O)OCCCc2ccc(CC(=O)[N-]C(C)C)s2)c1 (3D coordinates assigned)
COc1cccc(C[N-]C(=O)OCCCc2ccc(CC(=O)[N-]C(C)C)s2)c1 (optimized conformer: 57.804749019769424 kcal/mol)

>  <smiles>  (11) 
COc1cccc(CNC(=O)OCCCc2ccc(CC(=O)NC(C)C)s2)c1

>  <score_type>  (11) 
oracle

>  <origin>  (11) 
adg

>  <m_score__min__energy>  (11) 
-10.74

>  <m_primary>  (11) 
energy

$$$$
11:0
     RDKit          3D

 53 54  0  0  0  0  0  0  0  0999 V2000
   58.7480   22.7020   44.9910 C   0  0  0  0  0  0  0  0  0  0  0  0
   58.0820   24.0550   45.2220 C   0  0  0  0  0  0  0  0  0  0  0  0
   58.6860   24.7320   46.3900 N   0  0  0  0  0  0  0  0  0  0  0  0
   59.6450   25.8090   46.0400 C   0  0  0  0  0  0  0  0  0  0  0  0
   59.9440   26.7880   47.1840 C   0  0  0  0  0  0  0  0  0  0  0  0
   57.7070   25.1090   47.4310 C   0  0  0  0  0  0  0  0  0  0  0  0
   56.3520   25.1620   46.8870 N   0  0  0  0  0  0  0  0  0  0  0  0
   55.8630   26.2690   46.1260 C   0  0  0  0  0  0  0  0  0  0  0  0
   54.6590   26.3070   45.7540 O   0  0  0  0  0  0  0  0  0  0  0  0
   56.7980   27.3680   45.7400 C   0  0  0  0  0  0  0  0  0  0  0  0
   56.0290   28.5350   45.2910 N   0  0  0  0  0  0  0  0  0  0  0  0
   56.7860   29.3540   44.3300 C   0  0  0  0  0  0  0  0  0  0  0  0
   57.7260   30.3150   45.0200 C   0  0  0  0  0  0  0  0  0  0  0  0
   57.4730   31.6950   45.0020 C   0  0  0  0  0  0  0  0  0  0  0  0
   58.3340   32.5790   45.6580 C   0  0  0  0  0  0  0  0  0  0  0  0
   59.4660   32.0990   46.3370 C   0  0  0  0  0  0  0  0  0  0  0  0
   60.3510   33.0140   47.0110 N   0  0  0  0  0  0  0  0  0  0  0  0
   61.8000   32.9150   46.7940 C   0  0  0  0  0  0  0  0  0  0  0  0
   62.5570   33.8000   47.7830 C   0  0  0  0  0  0  0  0  0  0  0  0
   61.9060   33.7690   49.0340 O   0  0  0  0  0  0  0  0  0  0  0  0
   60.7130   34.5280   48.9690 C   0  0  0  0  0  0  0  0  0  0  0  0
   59.7950   34.1320   47.7880 C   0  0  0  0  0  0  0  0  0  0  0  0
   59.7100   30.7150   46.3650 C   0  0  0  0  0  0  0  0  0  0  0  0
   58.8450   29.8310   45.7140 C   0  0  0  0  0  0  0  0  0  0  0  0
   58.9774   22.2359   45.9606 H   0  0  0  0  0  0  0  0  0  0  0  0
   58.0676   22.0506   44.4229 H   0  0  0  0  0  0  0  0  0  0  0  0
   59.6792   22.8439   44.4229 H   0  0  0  0  0  0  0  0  0  0  0  0
   58.2168   24.6829   44.3289 H   0  0  0  0  0  0  0  0  0  0  0  0
   57.0104   23.8980   45.4142 H   0  0  0  0  0  0  0  0  0  0  0  0
   60.5913   25.3404   45.7320 H   0  0  0  0  0  0  0  0  0  0  0  0
   59.1769   26.3976   45.2372 H   0  0  0  0  0  0  0  0  0  0  0  0
   59.7897   26.2827   48.1488 H   0  0  0  0  0  0  0  0  0  0  0  0
   60.9873   27.1291   47.1115 H   0  0  0  0  0  0  0  0  0  0  0  0
   59.2693   27.6538   47.1115 H   0  0  0  0  0  0  0  0  0  0  0  0
   57.7398   24.3652   48.2407 H   0  0  0  0  0  0  0  0  0  0  0  0
   57.9693   26.1074   47.8109 H   0  0  0  0  0  0  0  0  0  0  0  0
   57.4130   27.6470   46.6083 H   0  0  0  0  0  0  0  0  0  0  0  0
   57.4487   27.0233   44.9228 H   0  0  0  0  0  0  0  0  0  0  0  0
   55.1410   28.2070   44.8410 H   0  0  0  0  0  0  0  0  0  0  0  0
   57.3732   28.6876   43.6810 H   0  0  0  0  0  0  0  0  0  0  0  0
   56.0650   29.9452   43.7463 H   0  0  0  0  0  0  0  0  0  0  0  0
   56.5925   32.0830   44.4689 H   0  0  0  0  0  0  0  0  0  0  0  0
   58.1236   33.6586   45.6425 H   0  0  0  0  0  0  0  0  0  0  0  0
   62.1148   31.8699   46.9307 H   0  0  0  0  0  0  0  0  0  0  0  0
   62.0279   33.2523   45.7721 H   0  0  0  0  0  0  0  0  0  0  0  0
   63.5859   33.4275   47.8955 H   0  0  0  0  0  0  0  0  0  0  0  0
   62.5808   34.8335   47.4071 H   0  0  0  0  0  0  0  0  0  0  0  0
   60.1564   34.3833   49.9067 H   0  0  0  0  0  0  0  0  0  0  0  0
   61.0044   35.5775   48.8154 H   0  0  0  0  0  0  0  0  0  0  0  0
   58.8130   33.8352   48.1851 H   0  0  0  0  0  0  0  0  0  0  0  0
   59.7067   35.0008   47.1192 H   0  0  0  0  0  0  0  0  0  0  0  0
   60.5870   30.3253   46.9025 H   0  0  0  0  0  0  0  0  0  0  0  0
   59.0428   28.7494   45.7460 H   0  0  0  0  0  0  0  0  0  0  0  0
  1  2  1  0
  2  3  1  0
  3  4  1  0
  4  5  1  0
  3  6  1  0
  6  7  1  0
  7  8  1  0
  8  9  2  0
  8 10  1  0
 10 11  1  0
 11 12  1  0
 12 13  1  0
 13 14  2  0
 14 15  1  0
 15 16  2  0
 16 17  1  0
 17 18  1  0
 18 19  1  0
 19 20  1  0
 20 21  1  0
 21 22  1  0
 16 23  1  0
 23 24  2  0
 24 13  1  0
 22 17  1  0
  1 25  1  0
  1 26  1  0
  1 27  1  0
  2 28  1  0
  2 29  1  0
  4 30  1  0
  4 31  1  0
  5 32  1  0
  5 33  1  0
  5 34  1  0
  6 35  1  0
  6 36  1  0
 10 37  1  0
 10 38  1  0
 11 39  1  0
 12 40  1  0
 12 41  1  0
 14 42  1  0
 15 43  1  0
 18 44  1  0
 18 45  1  0
 19 46  1  0
 19 47  1  0
 21 48  1  0
 21 49  1  0
 22 50  1  0
 22 51  1  0
 23 52  1  0
 24 53  1  0
M  CHG  1   7  -1
M  END
>  <UniqueID>  (12) 
12

>  <SMILES>  (12) 
CCN(CC)C[N-]C(=O)CNCc1ccc(N2CCOCC2)cc1

>  <Energy>  (12) 
60.85414097109855

>  <Genealogy>  (12) 
CCN(CC)C[N-]C(=O)CNCc1ccc(N2CCOCC2)cc1 (protonated)
CCN(CC)C[N-]C(=O)CNCc1ccc(N2CCOCC2)cc1 (3D coordinates assigned)
CCN(CC)C[N-]C(=O)CNCc1ccc(N2CCOCC2)cc1 (nonaromatic ring conformer: 60.85414097109855 kcal/mol)

>  <smiles>  (12) 
CCN(CC)CNC(=O)CNCc1ccc(N2CCOCC2)cc1

>  <score_type>  (12) 
oracle

>  <origin>  (12) 
adg

>  <m_score__min__energy>  (12) 
-8.9199999999999999

>  <m_primary>  (12) 
energy

$$$$
12:0
     RDKit          3D

 57 60  0  0  0  0  0  0  0  0999 V2000
   57.2170   21.4630   43.0000 C   0  0  0  0  0  0  0  0  0  0  0  0
   56.6210   21.7760   44.3680 C   0  0  0  0  0  0  0  0  0  0  0  0
   55.9370   23.0290   44.3480 O   0  0  0  0  0  0  0  0  0  0  0  0
   56.4660   24.2600   44.7770 C   0  0  0  0  0  0  0  0  0  0  0  0
   57.7250   24.7280   44.3570 C   0  0  0  0  0  0  0  0  0  0  0  0
   58.2110   25.9530   44.8110 C   0  0  0  0  0  0  0  0  0  0  0  0
   57.4610   26.7340   45.7020 C   0  0  0  0  0  0  0  0  0  0  0  0
   58.0060   28.0740   46.1800 C   0  0  1  0  0  0  0  0  0  0  0  0
   59.4460   27.8920   46.6810 C   0  0  0  0  0  0  0  0  0  0  0  0
   59.9650   29.1790   47.2370 C   0  0  0  0  0  0  0  0  0  0  0  0
   60.7780   29.1470   48.2000 O   0  0  0  0  0  0  0  0  0  0  0  0
   59.5580   30.4360   46.6640 N   0  0  0  0  0  0  0  0  0  0  0  0
   59.9890   31.6570   47.2940 C   0  0  0  0  0  0  0  0  0  0  0  0
   59.0930   32.4050   48.0750 C   0  0  0  0  0  0  0  0  0  0  0  0
   59.5140   33.5900   48.6860 C   0  0  0  0  0  0  0  0  0  0  0  0
   60.8300   34.0340   48.5220 C   0  0  0  0  0  0  0  0  0  0  0  0
   61.7260   33.2940   47.7440 C   0  0  0  0  0  0  0  0  0  0  0  0
   61.3080   32.1090   47.1310 C   0  0  0  0  0  0  0  0  0  0  0  0
   58.6480   30.4520   45.5330 C   0  0  0  0  0  0  0  0  0  0  0  0
   58.4570   31.5770   44.8120 C   0  0  0  0  0  0  0  0  0  0  0  0
   57.5230   31.5810   43.6360 C   0  0  0  0  0  0  0  0  0  0  0  0
   56.2270   30.8300   43.9710 C   0  0  0  0  0  0  0  0  0  0  0  0
   56.5170   29.5180   44.6600 C   0  0  0  0  0  0  0  0  0  0  0  0
   55.5970   28.7340   44.8400 O   0  0  0  0  0  0  0  0  0  0  0  0
   57.9420   29.1750   45.0840 C   0  0  2  0  0  0  0  0  0  0  0  0
   56.2000   26.2690   46.1180 C   0  0  0  0  0  0  0  0  0  0  0  0
   55.6990   25.0350   45.6600 C   0  0  0  0  0  0  0  0  0  0  0  0
   54.4450   24.5380   46.0570 O   0  0  0  0  0  0  0  0  0  0  0  0
   53.2970   24.4040   45.2190 C   0  0  0  0  0  0  0  0  0  0  0  0
   52.3720   23.3080   45.7370 C   0  0  0  0  0  0  0  0  0  0  0  0
   58.1842   20.9551   43.1289 H   0  0  0  0  0  0  0  0  0  0  0  0
   56.5308   20.8089   42.4421 H   0  0  0  0  0  0  0  0  0  0  0  0
   57.3660   22.3992   42.4421 H   0  0  0  0  0  0  0  0  0  0  0  0
   55.9110   20.9818   44.6424 H   0  0  0  0  0  0  0  0  0  0  0  0
   57.4367   21.8311   45.1039 H   0  0  0  0  0  0  0  0  0  0  0  0
   58.3298   24.1229   43.6656 H   0  0  0  0  0  0  0  0  0  0  0  0
   59.1927   26.3106   44.4669 H   0  0  0  0  0  0  0  0  0  0  0  0
   57.3645   28.4192   47.0042 H   0  0  0  0  0  0  0  0  0  0  0  0
   59.4627   27.1232   47.4676 H   0  0  0  0  0  0  0  0  0  0  0  0
   60.0826   27.5816   45.8394 H   0  0  0  0  0  0  0  0  0  0  0  0
   58.0575   32.0578   48.2063 H   0  0  0  0  0  0  0  0  0  0  0  0
   58.8093   34.1738   49.2964 H   0  0  0  0  0  0  0  0  0  0  0  0
   61.1604   34.9654   49.0050 H   0  0  0  0  0  0  0  0  0  0  0  0
   62.7605   33.6446   47.6142 H   0  0  0  0  0  0  0  0  0  0  0  0
   62.0147   31.5292   46.5192 H   0  0  0  0  0  0  0  0  0  0  0  0
   58.9900   32.4987   45.0882 H   0  0  0  0  0  0  0  0  0  0  0  0
   57.2799   32.6206   43.3713 H   0  0  0  0  0  0  0  0  0  0  0  0
   58.0155   31.0776   42.7910 H   0  0  0  0  0  0  0  0  0  0  0  0
   55.6117   31.4552   44.6347 H   0  0  0  0  0  0  0  0  0  0  0  0
   55.6945   30.6193   43.0318 H   0  0  0  0  0  0  0  0  0  0  0  0
   58.4616   28.7486   44.2133 H   0  0  0  0  0  0  0  0  0  0  0  0
   55.5980   26.8767   46.8095 H   0  0  0  0  0  0  0  0  0  0  0  0
   52.7504   25.3584   45.2012 H   0  0  0  0  0  0  0  0  0  0  0  0
   53.6301   24.1340   44.2060 H   0  0  0  0  0  0  0  0  0  0  0  0
   52.3768   23.3137   46.8370 H   0  0  0  0  0  0  0  0  0  0  0  0
   51.3496   23.4891   45.3738 H   0  0  0  0  0  0  0  0  0  0  0  0
   52.7223   22.3306   45.3738 H   0  0  0  0  0  0  0  0  0  0  0  0
  1  2  1  0
  2  3  1  0
  3  4  1  0
  4  5  2  0
  5  6  1  0
  6  7  2  0
  7  8  1  0
  8  9  1  0
  9 10  1  0
 10 11  2  0
 10 12  1  0
 12 13  1  0
 13 14  2  0
 14 15  1  0
 15 16  2  0
 16 17  1  0
 17 18  2  0
 12 19  1  0
 19 20  2  0
 20 21  1  0
 21 22  1  0
 22 23  1  0
 23 24  2  0
 23 25  1  0
  7 26  1  0
 26 27  2  0
 27 28  1  0
 28 29  1  0
 29 30  1  0
 27  4  1  0
 25  8  1  0
 18 13  1  0
 25 19  1  0
  1 31  1  0
  1 32  1  0
  1 33  1  0
  2 34  1  0
  2 35  1  0
  5 36  1  0
  6 37  1  0
  8 38  1  1
  9 39  1  0
  9 40  1  0
 14 41  1  0
 15 42  1  0
 16 43  1  0
 17 44  1  0
 18 45  1  0
 20 46  1  0
 21 47  1  0
 21 48  1  0
 22 49  1  0
 22 50  1  0
 25 51  1  6
 26 52  1  0
 29 53  1  0
 29 54  1  0
 30 55  1  0
 30 56  1  0
 30 57  1  0
M  END
>  <UniqueID>  (13) 
13

>  <SMILES>  (13) 
CCOc1ccc([C@H]2CC(=O)N(c3ccccc3)C3=CCCC(=O)[C@@H]32)cc1OCC

>  <Energy>  (13) 
66.6222632756953

>  <Genealogy>  (13) 
CCOc1ccc([C@H]2CC(=O)N(c3ccccc3)C3=CCCC(=O)[C@@H]32)cc1OCC (chirality)
CCOc1ccc([C@H]2CC(=O)N(c3ccccc3)C3=CCCC(=O)[C@@H]32)cc1OCC (3D coordinates assigned)
CCOc1ccc([C@H]2CC(=O)N(c3ccccc3)C3=CCCC(=O)[C@@H]32)cc1OCC (nonaromatic ring conformer: 66.6222632756953 kcal/mol)

>  <smiles>  (13) 
CCOc1ccc(C2CC(=O)N(c3ccccc3)C3=CCCC(=O)C32)cc1OCC

>  <score_type>  (13) 
oracle

>  <origin>  (13) 
adg

>  <m_score__min__energy>  (13) 
-9.0899999999999999

>  <m_primary>  (13) 
energy

$$$$
13:0
     RDKit          3D

 45 47  0  0  0  0  0  0  0  0999 V2000
   62.2240   33.8530   46.5890 C   0  0  0  0  0  0  0  0  0  0  0  0
   61.4470   32.7970   47.2990 C   0  0  0  0  0  0  0  0  0  0  0  0
   60.4860   33.0680   48.2090 N   0  0  0  0  0  0  0  0  0  0  0  0
   60.0800   31.8450   48.6060 C   0  0  0  0  0  0  0  0  0  0  0  0
   60.8110   30.8950   47.9290 C   0  0  0  0  0  0  0  0  0  0  0  0
   60.7010   29.4110   48.0760 C   0  0  0  0  0  0  0  0  0  0  0  0
   59.8080   28.8550   47.0370 N   0  0  0  0  0  0  0  0  0  0  0  0
   60.1070   29.4020   45.6880 C   0  0  0  0  0  0  0  0  0  0  0  0
   60.0080   28.3780   44.5340 C   0  0  0  0  0  0  0  0  0  0  0  0
   58.6030   27.7800   44.3110 C   0  0  0  0  0  0  0  0  0  0  0  0
   57.5740   28.4490   45.1230 N   0  0  0  0  0  0  0  0  0  0  0  0
   56.6640   29.4070   44.5420 C   0  0  0  0  0  0  0  0  0  0  0  0
   55.4300   29.3220   44.7870 O   0  0  0  0  0  0  0  0  0  0  0  0
   57.1360   30.5040   43.6250 C   0  0  0  0  0  0  0  0  0  0  0  0
   57.5620   31.7150   44.4080 C   0  0  0  0  0  0  0  0  0  0  0  0
   58.1420   32.8200   43.7660 C   0  0  0  0  0  0  0  0  0  0  0  0
   58.5110   33.9360   44.5190 C   0  0  0  0  0  0  0  0  0  0  0  0
   58.2910   33.9460   45.8980 C   0  0  0  0  0  0  0  0  0  0  0  0
   57.7010   32.8350   46.5040 C   0  0  0  0  0  0  0  0  0  0  0  0
   57.3500   31.7560   45.7540 N   0  0  0  0  0  0  0  0  0  0  0  0
   57.4340   28.1380   46.5580 C   0  0  0  0  0  0  0  0  0  0  0  0
   58.3920   28.9470   47.4600 C   0  0  0  0  0  0  0  0  0  0  0  0
   61.6490   31.5090   47.1340 O   0  0  0  0  0  0  0  0  0  0  0  0
   62.7078   34.5105   47.3263 H   0  0  0  0  0  0  0  0  0  0  0  0
   62.9922   33.3815   45.9584 H   0  0  0  0  0  0  0  0  0  0  0  0
   61.5453   34.4461   45.9584 H   0  0  0  0  0  0  0  0  0  0  0  0
   59.2944   31.6402   49.3482 H   0  0  0  0  0  0  0  0  0  0  0  0
   61.6998   28.9616   47.9738 H   0  0  0  0  0  0  0  0  0  0  0  0
   60.2825   29.1806   49.0668 H   0  0  0  0  0  0  0  0  0  0  0  0
   59.3962   30.2163   45.4842 H   0  0  0  0  0  0  0  0  0  0  0  0
   61.1548   29.7355   45.7156 H   0  0  0  0  0  0  0  0  0  0  0  0
   60.3165   28.8799   43.6051 H   0  0  0  0  0  0  0  0  0  0  0  0
   60.6593   27.5366   44.8131 H   0  0  0  0  0  0  0  0  0  0  0  0
   58.3386   27.8855   43.2485 H   0  0  0  0  0  0  0  0  0  0  0  0
   58.6358   26.7233   44.6148 H   0  0  0  0  0  0  0  0  0  0  0  0
   57.9898   30.1379   43.0359 H   0  0  0  0  0  0  0  0  0  0  0  0
   56.3050   30.7892   42.9631 H   0  0  0  0  0  0  0  0  0  0  0  0
   58.3045   32.8068   42.6782 H   0  0  0  0  0  0  0  0  0  0  0  0
   58.9736   34.8047   44.0277 H   0  0  0  0  0  0  0  0  0  0  0  0
   58.5795   34.8199   46.5005 H   0  0  0  0  0  0  0  0  0  0  0  0
   57.5199   32.8324   47.5890 H   0  0  0  0  0  0  0  0  0  0  0  0
   56.4001   28.3578   46.8627 H   0  0  0  0  0  0  0  0  0  0  0  0
   57.6895   27.0757   46.6853 H   0  0  0  0  0  0  0  0  0  0  0  0
   58.0874   30.0037   47.4345 H   0  0  0  0  0  0  0  0  0  0  0  0
   58.3249   28.5221   48.4724 H   0  0  0  0  0  0  0  0  0  0  0  0
  1  2  1  0
  2  3  2  0
  3  4  1  0
  4  5  2  0
  5  6  1  0
  6  7  1  0
  7  8  1  0
  8  9  1  0
  9 10  1  0
 10 11  1  0
 11 12  1  0
 12 13  2  0
 12 14  1  0
 14 15  1  0
 15 16  2  0
 16 17  1  0
 17 18  2  0
 18 19  1  0
 19 20  2  0
 11 21  1  0
 21 22  1  0
  5 23  1  0
 23  2  1  0
 22  7  1  0
 20 15  1  0
  1 24  1  0
  1 25  1  0
  1 26  1  0
  4 27  1  0
  6 28  1  0
  6 29  1  0
  8 30  1  0
  8 31  1  0
  9 32  1  0
  9 33  1  0
 10 34  1  0
 10 35  1  0
 14 36  1  0
 14 37  1  0
 16 38  1  0
 17 39  1  0
 18 40  1  0
 19 41  1  0
 21 42  1  0
 21 43  1  0
 22 44  1  0
 22 45  1  0
M  END
>  <UniqueID>  (14) 
14

>  <SMILES>  (14) 
Cc1ncc(CN2CCCN(C(=O)Cc3ccccn3)CC2)o1

>  <Energy>  (14) 
86.18564664997582

>  <Genealogy>  (14) 
Cc1ncc(CN2CCCN(C(=O)Cc3ccccn3)CC2)o1 (3D coordinates assigned)
Cc1ncc(CN2CCCN(C(=O)Cc3ccccn3)CC2)o1 (nonaromatic ring conformer: 86.18564664997582 kcal/mol)

>  <smiles>  (14) 
Cc1ncc(CN2CCCN(C(=O)Cc3ccccn3)CC2)o1

>  <score_type>  (14) 
oracle

>  <origin>  (14) 
adg

>  <m_score__min__energy>  (14) 
-5.7599999999999998

>  <m_primary>  (14) 
energy

$$$$
14:0
     RDKit          3D

 71 74  0  0  0  0  0  0  0  0999 V2000
   63.3790   34.2010   46.3930 C   0  0  0  0  0  0  0  0  0  0  0  0
   63.7000   33.5800   47.7470 C   0  0  0  0  0  0  0  0  0  0  0  0
   63.5900   32.1170   47.6650 N   0  0  0  0  0  0  0  0  0  0  0  0
   62.8900   31.5470   48.8270 C   0  0  0  0  0  0  0  0  0  0  0  0
   61.5620   30.8670   48.4410 C   0  0  0  0  0  0  0  0  0  0  0  0
   61.2940   30.9720   46.9980 N   0  0  0  0  0  0  0  0  0  0  0  0
   59.9790   30.8510   46.3990 C   0  0  0  0  0  0  0  0  0  0  0  0
   59.4300   29.5770   46.1050 C   0  0  0  0  0  0  0  0  0  0  0  0
   60.1160   28.3760   46.3920 C   0  0  0  0  0  0  0  0  0  0  0  0
   59.4940   27.1370   46.2480 C   0  0  0  0  0  0  0  0  0  0  0  0
   58.1840   27.0660   45.7970 C   0  0  0  0  0  0  0  0  0  0  0  0
   57.5270   28.2250   45.3970 C   0  0  0  0  0  0  0  0  0  0  0  0
   58.1660   29.4910   45.4640 C   0  0  0  0  0  0  0  0  0  0  0  0
   57.6060   30.6110   44.8880 N   0  0  0  0  0  0  0  0  0  0  0  0
   56.5220   30.4600   43.8870 C   0  0  0  0  0  0  0  0  0  0  0  0
   58.0890   31.8680   45.2010 C   0  0  0  0  0  0  0  0  0  0  0  0
   57.4220   33.0370   44.7520 C   0  0  0  0  0  0  0  0  0  0  0  0
   57.9160   34.3030   45.0290 C   0  0  0  0  0  0  0  0  0  0  0  0
   59.0320   34.4520   45.8320 C   0  0  0  0  0  0  0  0  0  0  0  0
   59.6810   33.3330   46.3670 C   0  0  0  0  0  0  0  0  0  0  0  0
   60.6100   33.5500   47.4330 N   0  0  0  0  0  0  0  0  0  0  0  0
   60.3270   34.4050   48.5850 C   0  0  0  0  0  0  0  0  0  0  0  0
   60.7400   33.6970   49.8810 C   0  0  0  0  0  0  0  0  0  0  0  0
   59.5920   33.4860   50.9050 C   0  0  0  0  0  0  0  0  0  0  0  0
   58.7780   32.2260   50.7920 N   0  0  0  0  0  0  0  0  0  0  0  0
   58.4630   31.9470   49.3640 C   0  0  0  0  0  0  0  0  0  0  0  0
   57.5170   32.3250   51.6020 C   0  0  0  0  0  0  0  0  0  0  0  0
   57.1100   31.0000   52.2770 C   0  0  0  0  0  0  0  0  0  0  0  0
   57.4680   29.9110   51.4640 O   0  0  0  0  0  0  0  0  0  0  0  0
   58.8760   29.7690   51.4470 C   0  0  0  0  0  0  0  0  0  0  0  0
   59.6320   31.1180   51.3190 C   0  0  0  0  0  0  0  0  0  0  0  0
   59.2610   32.0160   46.0050 C   0  0  0  0  0  0  0  0  0  0  0  0
   62.8786   35.1690   46.5430 H   0  0  0  0  0  0  0  0  0  0  0  0
   64.3112   34.3535   45.8293 H   0  0  0  0  0  0  0  0  0  0  0  0
   62.7155   33.5287   45.8293 H   0  0  0  0  0  0  0  0  0  0  0  0
   64.7246   33.8529   48.0397 H   0  0  0  0  0  0  0  0  0  0  0  0
   62.9869   33.9554   48.4957 H   0  0  0  0  0  0  0  0  0  0  0  0
   64.5500   31.7030   47.5980 H   0  0  0  0  0  0  0  0  0  0  0  0
   63.5438   30.8003   49.3012 H   0  0  0  0  0  0  0  0  0  0  0  0
   62.6550   32.3734   49.5139 H   0  0  0  0  0  0  0  0  0  0  0  0
   61.6130   29.8035   48.7173 H   0  0  0  0  0  0  0  0  0  0  0  0
   60.7482   31.3762   48.9780 H   0  0  0  0  0  0  0  0  0  0  0  0
   62.1050   31.1090   46.3530 H   0  0  0  0  0  0  0  0  0  0  0  0
   61.1601   28.4194   46.7354 H   0  0  0  0  0  0  0  0  0  0  0  0
   60.0421   26.2150   46.4921 H   0  0  0  0  0  0  0  0  0  0  0  0
   57.6664   26.0962   45.7558 H   0  0  0  0  0  0  0  0  0  0  0  0
   56.4948   28.1595   45.0224 H   0  0  0  0  0  0  0  0  0  0  0  0
   55.5608   30.3261   44.4048 H   0  0  0  0  0  0  0  0  0  0  0  0
   56.4767   31.3605   43.2569 H   0  0  0  0  0  0  0  0  0  0  0  0
   56.7245   29.5814   43.2569 H   0  0  0  0  0  0  0  0  0  0  0  0
   56.4929   32.9370   44.1716 H   0  0  0  0  0  0  0  0  0  0  0  0
   57.4192   35.1901   44.6092 H   0  0  0  0  0  0  0  0  0  0  0  0
   59.4135   35.4599   46.0525 H   0  0  0  0  0  0  0  0  0  0  0  0
   61.4680   32.9600   47.4360 H   0  0  0  0  0  0  0  0  0  0  0  0
   60.8909   35.3445   48.4881 H   0  0  0  0  0  0  0  0  0  0  0  0
   59.2483   34.6177   48.6190 H   0  0  0  0  0  0  0  0  0  0  0  0
   61.1475   32.7101   49.6163 H   0  0  0  0  0  0  0  0  0  0  0  0
   61.4737   34.3538   50.3711 H   0  0  0  0  0  0  0  0  0  0  0  0
   60.0409   33.4984   51.9092 H   0  0  0  0  0  0  0  0  0  0  0  0
   58.8795   34.2974   50.6955 H   0  0  0  0  0  0  0  0  0  0  0  0
   57.6407   31.2187   49.3054 H   0  0  0  0  0  0  0  0  0  0  0  0
   58.1623   32.8804   48.8657 H   0  0  0  0  0  0  0  0  0  0  0  0
   59.3533   31.5357   48.8657 H   0  0  0  0  0  0  0  0  0  0  0  0
   57.6657   33.0828   52.3854 H   0  0  0  0  0  0  0  0  0  0  0  0
   56.7080   32.5941   50.9069 H   0  0  0  0  0  0  0  0  0  0  0  0
   57.6226   30.9137   53.2464 H   0  0  0  0  0  0  0  0  0  0  0  0
   56.0202   30.9933   52.4264 H   0  0  0  0  0  0  0  0  0  0  0  0
   59.1883   29.2821   52.3827 H   0  0  0  0  0  0  0  0  0  0  0  0
   59.1304   29.1698   50.5603 H   0  0  0  0  0  0  0  0  0  0  0  0
   60.0033   31.4060   52.3136 H   0  0  0  0  0  0  0  0  0  0  0  0
   60.4501   30.9663   50.5994 H   0  0  0  0  0  0  0  0  0  0  0  0
  1  2  1  0
  2  3  1  0
  3  4  1  0
  4  5  1  0
  5  6  1  0
  6  7  1  0
  7  8  2  0
  8  9  1  0
  9 10  2  0
 10 11  1  0
 11 12  2  0
 12 13  1  0
 13 14  2  0
 14 15  1  0
 14 16  1  0
 16 17  2  0
 17 18  1  0
 18 19  2  0
 19 20  1  0
 20 21  1  0
 21 22  1  0
 22 23  1  0
 23 24  1  0
 24 25  1  0
 25 26  1  0
 25 27  1  0
 27 28  1  0
 28 29  1  0
 29 30  1  0
 30 31  1  0
 20 32  2  0
 32  7  1  0
 13  8  1  0
 32 16  1  0
 31 25  1  0
  1 33  1  0
  1 34  1  0
  1 35  1  0
  2 36  1  0
  2 37  1  0
  3 38  1  0
  4 39  1  0
  4 40  1  0
  5 41  1  0
  5 42  1  0
  6 43  1  0
  9 44  1  0
 10 45  1  0
 11 46  1  0
 12 47  1  0
 15 48  1  0
 15 49  1  0
 15 50  1  0
 17 51  1  0
 18 52  1  0
 19 53  1  0
 21 54  1  0
 22 55  1  0
 22 56  1  0
 23 57  1  0
 23 58  1  0
 24 59  1  0
 24 60  1  0
 26 61  1  0
 26 62  1  0
 26 63  1  0
 27 64  1  0
 27 65  1  0
 28 66  1  0
 28 67  1  0
 30 68  1  0
 30 69  1  0
 31 70  1  0
 31 71  1  0
M  CHG  2  14   1  25   1
M  END
>  <UniqueID>  (15) 
15

>  <SMILES>  (15) 
CCNCCNc1c2ccccc2[n+](C)c2cccc(NCCC[N+]3(C)CCOCC3)c12

>  <Energy>  (15) 
130.79482703241234

>  <Genealogy>  (15) 
CCNCCNc1c2ccccc2[n+](C)c2cccc(NCCC[N+]3(C)CCOCC3)c12 (3D coordinates assigned)
CCNCCNc1c2ccccc2[n+](C)c2cccc(NCCC[N+]3(C)CCOCC3)c12 (nonaromatic ring conformer: 130.79482703241234 kcal/mol)

>  <smiles>  (15) 
CCNCCNc1c2ccccc2[n+](C)c2cccc(NCCC[N+]3(C)CCOCC3)c12

>  <score_type>  (15) 
oracle

>  <origin>  (15) 
adg

>  <m_score__min__energy>  (15) 
-5.4000000000000004

>  <m_primary>  (15) 
energy

$$$$
15:0
     RDKit          3D

 64 66  0  0  0  0  0  0  0  0999 V2000
   65.6720   29.7260   51.7330 C   0  0  0  0  0  0  0  0  0  0  0  0
   64.4920   30.6270   51.3650 C   0  0  0  0  0  0  0  0  0  0  0  0
   64.9300   31.8860   50.5770 C   0  0  0  0  0  0  0  0  0  0  0  0
   63.8150   32.5410   49.8410 N   0  0  0  0  0  0  0  0  0  0  0  0
   64.1370   32.8130   48.4130 C   0  0  0  0  0  0  0  0  0  0  0  0
   62.9280   32.7290   47.4540 C   0  0  0  0  0  0  0  0  0  0  0  0
   62.9830   33.8440   46.4130 C   0  0  0  0  0  0  0  0  0  0  0  0
   63.3670   33.7790   50.5360 C   0  0  0  0  0  0  0  0  0  0  0  0
   61.8370   33.9530   50.5020 C   0  0  0  0  0  0  0  0  0  0  0  0
   61.1860   32.6490   50.6790 N   0  0  0  0  0  0  0  0  0  0  0  0
   59.7270   32.7690   50.8280 C   0  0  0  0  0  0  0  0  0  0  0  0
   58.9590   32.0200   49.7270 C   0  0  0  0  0  0  0  0  0  0  0  0
   59.8660   31.5930   48.6620 N   0  0  0  0  0  0  0  0  0  0  0  0
   59.4810   31.6360   47.2760 C   0  0  0  0  0  0  0  0  0  0  0  0
   59.3820   32.8640   46.6020 C   0  0  0  0  0  0  0  0  0  0  0  0
   59.7950   34.0630   47.2200 C   0  0  0  0  0  0  0  0  0  0  0  0
   59.7300   35.2750   46.5370 C   0  0  0  0  0  0  0  0  0  0  0  0
   59.2750   35.3100   45.2250 C   0  0  0  0  0  0  0  0  0  0  0  0
   58.8700   34.1360   44.5900 C   0  0  0  0  0  0  0  0  0  0  0  0
   58.8920   32.8920   45.2690 C   0  0  0  0  0  0  0  0  0  0  0  0
   58.4740   31.7220   44.6610 N   0  0  0  0  0  0  0  0  0  0  0  0
   57.7010   31.7800   43.4000 C   0  0  0  0  0  0  0  0  0  0  0  0
   58.7630   30.5000   45.2400 C   0  0  0  0  0  0  0  0  0  0  0  0
   58.6080   29.2820   44.5330 C   0  0  0  0  0  0  0  0  0  0  0  0
   58.8520   28.0550   45.1490 C   0  0  0  0  0  0  0  0  0  0  0  0
   59.2690   28.0070   46.4750 C   0  0  0  0  0  0  0  0  0  0  0  0
   59.5680   26.4590   47.2450 Cl  0  0  0  0  0  0  0  0  0  0  0  0
   59.4720   29.1900   47.1830 C   0  0  0  0  0  0  0  0  0  0  0  0
   59.2430   30.4420   46.5750 C   0  0  0  0  0  0  0  0  0  0  0  0
   65.7565   29.6614   52.8278 H   0  0  0  0  0  0  0  0  0  0  0  0
   65.5090   28.7205   51.3179 H   0  0  0  0  0  0  0  0  0  0  0  0
   66.5991   30.1481   51.3179 H   0  0  0  0  0  0  0  0  0  0  0  0
   63.7879   30.0510   50.7465 H   0  0  0  0  0  0  0  0  0  0  0  0
   64.0248   30.9649   52.3018 H   0  0  0  0  0  0  0  0  0  0  0  0
   65.3529   32.6120   51.2870 H   0  0  0  0  0  0  0  0  0  0  0  0
   65.6660   31.5598   49.8274 H   0  0  0  0  0  0  0  0  0  0  0  0
   63.0090   31.8720   49.8300 H   0  0  0  0  0  0  0  0  0  0  0  0
   64.5604   33.8259   48.3436 H   0  0  0  0  0  0  0  0  0  0  0  0
   64.8408   32.0288   48.0971 H   0  0  0  0  0  0  0  0  0  0  0  0
   62.9415   31.7559   46.9412 H   0  0  0  0  0  0  0  0  0  0  0  0
   62.0043   32.8400   48.0408 H   0  0  0  0  0  0  0  0  0  0  0  0
   63.0311   34.8183   46.9214 H   0  0  0  0  0  0  0  0  0  0  0  0
   63.8758   33.7144   45.7837 H   0  0  0  0  0  0  0  0  0  0  0  0
   62.0817   33.8029   45.7837 H   0  0  0  0  0  0  0  0  0  0  0  0
   63.6936   33.7324   51.5854 H   0  0  0  0  0  0  0  0  0  0  0  0
   63.8130   34.6370   50.0116 H   0  0  0  0  0  0  0  0  0  0  0  0
   61.5279   34.6289   51.3129 H   0  0  0  0  0  0  0  0  0  0  0  0
   61.5406   34.3792   49.5322 H   0  0  0  0  0  0  0  0  0  0  0  0
   61.5870   32.1730   51.5200 H   0  0  0  0  0  0  0  0  0  0  0  0
   59.4369   32.3545   51.8048 H   0  0  0  0  0  0  0  0  0  0  0  0
   59.4696   33.8355   50.7485 H   0  0  0  0  0  0  0  0  0  0  0  0
   58.4733   31.1350   50.1639 H   0  0  0  0  0  0  0  0  0  0  0  0
   58.2052   32.6971   49.2988 H   0  0  0  0  0  0  0  0  0  0  0  0
   60.7910   31.1780   48.9150 H   0  0  0  0  0  0  0  0  0  0  0  0
   60.1726   34.0404   48.2529 H   0  0  0  0  0  0  0  0  0  0  0  0
   60.0391   36.2049   47.0367 H   0  0  0  0  0  0  0  0  0  0  0  0
   59.2339   36.2673   44.6847 H   0  0  0  0  0  0  0  0  0  0  0  0
   58.5280   34.1762   43.5453 H   0  0  0  0  0  0  0  0  0  0  0  0
   56.6285   31.8605   43.6308 H   0  0  0  0  0  0  0  0  0  0  0  0
   58.0172   32.6569   42.8161 H   0  0  0  0  0  0  0  0  0  0  0  0
   57.8828   30.8657   42.8161 H   0  0  0  0  0  0  0  0  0  0  0  0
   58.2898   29.3047   43.4803 H   0  0  0  0  0  0  0  0  0  0  0  0
   58.7141   27.1213   44.5840 H   0  0  0  0  0  0  0  0  0  0  0  0
   59.8146   29.1470   48.2274 H   0  0  0  0  0  0  0  0  0  0  0  0
  1  2  1  0
  2  3  1  0
  3  4  1  0
  4  5  1  0
  5  6  1  0
  6  7  1  0
  4  8  1  0
  8  9  1  0
  9 10  1  0
 10 11  1  0
 11 12  1  0
 12 13  1  0
 13 14  1  0
 14 15  2  0
 15 16  1  0
 16 17  2  0
 17 18  1  0
 18 19  2  0
 19 20  1  0
 20 21  2  0
 21 22  1  0
 21 23  1  0
 23 24  2  0
 24 25  1  0
 25 26  2  0
 26 27  1  0
 26 28  1  0
 28 29  2  0
 29 14  1  0
 20 15  1  0
 29 23  1  0
  1 30  1  0
  1 31  1  0
  1 32  1  0
  2 33  1  0
  2 34  1  0
  3 35  1  0
  3 36  1  0
  4 37  1  0
  5 38  1  0
  5 39  1  0
  6 40  1  0
  6 41  1  0
  7 42  1  0
  7 43  1  0
  7 44  1  0
  8 45  1  0
  8 46  1  0
  9 47  1  0
  9 48  1  0
 10 49  1  0
 11 50  1  0
 11 51  1  0
 12 52  1  0
 12 53  1  0
 13 54  1  0
 16 55  1  0
 17 56  1  0
 18 57  1  0
 19 58  1  0
 22 59  1  0
 22 60  1  0
 22 61  1  0
 24 62  1  0
 25 63  1  0
 28 64  1  0
M  CHG  2   4   1  21   1
M  END
>  <UniqueID>  (16) 
16

>  <SMILES>  (16) 
CCC[NH+](CCC)CCNCCNc1c2ccccc2[n+](C)c2ccc(Cl)cc12

>  <Energy>  (16) 
89.63439416736153

>  <Genealogy>  (16) 
CCC[NH+](CCC)CCNCCNc1c2ccccc2[n+](C)c2ccc(Cl)cc12 (protonated)
CCC[NH+](CCC)CCNCCNc1c2ccccc2[n+](C)c2ccc(Cl)cc12 (3D coordinates assigned)
CCC[NH+](CCC)CCNCCNc1c2ccccc2[n+](C)c2ccc(Cl)cc12 (optimized conformer: 89.63439416736153 kcal/mol)

>  <smiles>  (16) 
CCCN(CCC)CCNCCNc1c2ccccc2[n+](C)c2ccc(Cl)cc12

>  <score_type>  (16) 
oracle

>  <origin>  (16) 
adg

>  <m_score__min__energy>  (16) 
-4.4100000000000001

>  <m_primary>  (16) 
energy

$$$$
16:0
     RDKit          3D

 82 85  0  0  0  0  0  0  0  0999 V2000
   63.0660   32.7870   47.3850 C   0  0  0  0  0  0  0  0  0  0  0  0
   62.1030   33.8100   46.7900 C   0  0  0  0  0  0  0  0  0  0  0  0
   60.8540   33.8740   47.5840 N   0  0  0  0  0  0  0  0  0  0  0  0
   61.1710   34.1870   48.9890 C   0  0  0  0  0  0  0  0  0  0  0  0
   59.9300   34.8890   47.0210 C   0  0  0  0  0  0  0  0  0  0  0  0
   58.5150   34.3280   46.7750 C   0  0  0  0  0  0  0  0  0  0  0  0
   58.3050   32.8800   47.2640 C   0  0  0  0  0  0  0  0  0  0  0  0
   59.4090   31.9730   46.8880 N   0  0  0  0  0  0  0  0  0  0  0  0
   58.9020   30.6870   46.4270 C   0  0  0  0  0  0  0  0  0  0  0  0
   58.2120   30.6130   45.1810 C   0  0  0  0  0  0  0  0  0  0  0  0
   58.0740   31.7400   44.3260 C   0  0  0  0  0  0  0  0  0  0  0  0
   57.3810   31.6530   43.1210 C   0  0  0  0  0  0  0  0  0  0  0  0
   56.8240   30.4480   42.7220 C   0  0  0  0  0  0  0  0  0  0  0  0
   56.9650   29.3200   43.5190 C   0  0  0  0  0  0  0  0  0  0  0  0
   57.6530   29.3760   44.7610 C   0  0  0  0  0  0  0  0  0  0  0  0
   57.8280   28.2450   45.5230 N   0  0  0  0  0  0  0  0  0  0  0  0
   57.0230   27.0320   45.2550 C   0  0  0  0  0  0  0  0  0  0  0  0
   58.7630   28.2350   46.5330 C   0  0  0  0  0  0  0  0  0  0  0  0
   59.2960   27.0110   46.9990 C   0  0  0  0  0  0  0  0  0  0  0  0
   60.2220   26.9770   48.0280 C   0  0  0  0  0  0  0  0  0  0  0  0
   60.5650   28.1410   48.6880 C   0  0  0  0  0  0  0  0  0  0  0  0
   60.0110   29.3750   48.3050 C   0  0  0  0  0  0  0  0  0  0  0  0
   60.1720   30.4930   49.1370 O   0  0  0  0  0  0  0  0  0  0  0  0
   60.2750   30.5210   50.5620 C   0  0  0  0  0  0  0  0  0  0  0  0
   58.9130   30.4640   51.3150 C   0  0  0  0  0  0  0  0  0  0  0  0
   58.4700   31.6750   52.0930 N   0  0  0  0  0  0  0  0  0  0  0  0
   57.0760   31.9610   51.6490 C   0  0  0  0  0  0  0  0  0  0  0  0
   59.3130   32.8610   51.7370 C   0  0  0  0  0  0  0  0  0  0  0  0
   59.2610   33.9600   52.8130 C   0  0  0  0  0  0  0  0  0  0  0  0
   59.8120   33.4930   54.1240 N   0  0  0  0  0  0  0  0  0  0  0  0
   59.1030   34.1970   55.2250 C   0  0  0  0  0  0  0  0  0  0  0  0
   61.2520   33.8540   54.2070 C   0  0  0  0  0  0  0  0  0  0  0  0
   59.6670   32.0110   54.3060 C   0  0  0  0  0  0  0  0  0  0  0  0
   58.4360   31.4380   53.5770 C   0  0  0  0  0  0  0  0  0  0  0  0
   59.2260   29.4570   47.1040 C   0  0  0  0  0  0  0  0  0  0  0  0
   63.0202   32.8356   48.4830 H   0  0  0  0  0  0  0  0  0  0  0  0
   62.7821   31.7783   47.0505 H   0  0  0  0  0  0  0  0  0  0  0  0
   64.0900   33.0095   47.0505 H   0  0  0  0  0  0  0  0  0  0  0  0
   62.5823   34.8001   46.7897 H   0  0  0  0  0  0  0  0  0  0  0  0
   61.8546   33.5071   45.7621 H   0  0  0  0  0  0  0  0  0  0  0  0
   60.5464   33.5703   49.6520 H   0  0  0  0  0  0  0  0  0  0  0  0
   62.2326   33.9731   49.1818 H   0  0  0  0  0  0  0  0  0  0  0  0
   60.9706   35.2513   49.1818 H   0  0  0  0  0  0  0  0  0  0  0  0
   59.8582   35.7303   47.7261 H   0  0  0  0  0  0  0  0  0  0  0  0
   60.3362   35.2085   46.0499 H   0  0  0  0  0  0  0  0  0  0  0  0
   57.7940   34.9744   47.2968 H   0  0  0  0  0  0  0  0  0  0  0  0
   58.3704   34.3132   45.6846 H   0  0  0  0  0  0  0  0  0  0  0  0
   58.2190   32.8903   48.3606 H   0  0  0  0  0  0  0  0  0  0  0  0
   57.3919   32.5012   46.7816 H   0  0  0  0  0  0  0  0  0  0  0  0
   60.0590   32.3910   46.2040 H   0  0  0  0  0  0  0  0  0  0  0  0
   60.0570   31.8550   47.6960 H   0  0  0  0  0  0  0  0  0  0  0  0
   58.5232   32.6995   44.6217 H   0  0  0  0  0  0  0  0  0  0  0  0
   57.2753   32.5434   42.4838 H   0  0  0  0  0  0  0  0  0  0  0  0
   56.2701   30.3855   41.7737 H   0  0  0  0  0  0  0  0  0  0  0  0
   56.5359   28.3647   43.1826 H   0  0  0  0  0  0  0  0  0  0  0  0
   56.7198   26.5751   46.2086 H   0  0  0  0  0  0  0  0  0  0  0  0
   56.1272   27.3064   44.6786 H   0  0  0  0  0  0  0  0  0  0  0  0
   57.6239   26.3131   44.6786 H   0  0  0  0  0  0  0  0  0  0  0  0
   58.9690   26.0685   46.5356 H   0  0  0  0  0  0  0  0  0  0  0  0
   60.6846   26.0227   48.3200 H   0  0  0  0  0  0  0  0  0  0  0  0
   61.2800   28.1019   49.5230 H   0  0  0  0  0  0  0  0  0  0  0  0
   60.8779   29.6572   50.8788 H   0  0  0  0  0  0  0  0  0  0  0  0
   60.7326   31.4872   50.8211 H   0  0  0  0  0  0  0  0  0  0  0  0
   58.1356   30.2581   50.5645 H   0  0  0  0  0  0  0  0  0  0  0  0
   59.0625   29.6908   52.0830 H   0  0  0  0  0  0  0  0  0  0  0  0
   56.4305   32.0934   52.5298 H   0  0  0  0  0  0  0  0  0  0  0  0
   57.0649   32.8801   51.0448 H   0  0  0  0  0  0  0  0  0  0  0  0
   56.7039   31.1205   51.0448 H   0  0  0  0  0  0  0  0  0  0  0  0
   60.3556   32.5310   51.6188 H   0  0  0  0  0  0  0  0  0  0  0  0
   58.9173   33.2863   50.8029 H   0  0  0  0  0  0  0  0  0  0  0  0
   59.8504   34.8222   52.4678 H   0  0  0  0  0  0  0  0  0  0  0  0
   58.2065   34.2325   52.9673 H   0  0  0  0  0  0  0  0  0  0  0  0
   59.4731   33.8295   56.1935 H   0  0  0  0  0  0  0  0  0  0  0  0
   59.2885   35.2785   55.1481 H   0  0  0  0  0  0  0  0  0  0  0  0
   58.0228   34.0039   55.1481 H   0  0  0  0  0  0  0  0  0  0  0  0
   61.5509   33.9289   55.2629 H   0  0  0  0  0  0  0  0  0  0  0  0
   61.8536   33.0789   53.7097 H   0  0  0  0  0  0  0  0  0  0  0  0
   61.4168   34.8212   53.7097 H   0  0  0  0  0  0  0  0  0  0  0  0
   60.5689   31.5187   53.9133 H   0  0  0  0  0  0  0  0  0  0  0  0
   59.5339   31.8206   55.3812 H   0  0  0  0  0  0  0  0  0  0  0  0
   58.3944   30.3538   53.7581 H   0  0  0  0  0  0  0  0  0  0  0  0
   57.5490   31.9544   53.9727 H   0  0  0  0  0  0  0  0  0  0  0  0
  1  2  1  0
  2  3  1  0
  3  4  1  0
  3  5  1  0
  5  6  1  0
  6  7  1  0
  7  8  1  0
  8  9  1  0
  9 10  2  0
 10 11  1  0
 11 12  2  0
 12 13  1  0
 13 14  2  0
 14 15  1  0
 15 16  2  0
 16 17  1  0
 16 18  1  0
 18 19  2  0
 19 20  1  0
 20 21  2  0
 21 22  1  0
 22 23  1  0
 23 24  1  0
 24 25  1  0
 25 26  1  0
 26 27  1  0
 26 28  1  0
 28 29  1  0
 29 30  1  0
 30 31  1  0
 30 32  1  0
 30 33  1  0
 33 34  1  0
 22 35  2  0
 35  9  1  0
 15 10  1  0
 35 18  1  0
 34 26  1  0
  1 36  1  0
  1 37  1  0
  1 38  1  0
  2 39  1  0
  2 40  1  0
  4 41  1  0
  4 42  1  0
  4 43  1  0
  5 44  1  0
  5 45  1  0
  6 46  1  0
  6 47  1  0
  7 48  1  0
  7 49  1  0
  8 50  1  0
  8 51  1  0
 11 52  1  0
 12 53  1  0
 13 54  1  0
 14 55  1  0
 17 56  1  0
 17 57  1  0
 17 58  1  0
 19 59  1  0
 20 60  1  0
 21 61  1  0
 24 62  1  0
 24 63  1  0
 25 64  1  0
 25 65  1  0
 27 66  1  0
 27 67  1  0
 27 68  1  0
 28 69  1  0
 28 70  1  0
 29 71  1  0
 29 72  1  0
 31 73  1  0
 31 74  1  0
 31 75  1  0
 32 76  1  0
 32 77  1  0
 32 78  1  0
 33 79  1  0
 33 80  1  0
 34 81  1  0
 34 82  1  0
M  CHG  4   8   1  16   1  26   1  30   1
M  END
>  <UniqueID>  (17) 
17

>  <SMILES>  (17) 
CCN(C)CCC[NH2+]c1c2ccccc2[n+](C)c2cccc(OCC[N+]3(C)CC[N+](C)(C)CC3)c12

>  <Energy>  (17) 
146.94219772829587

>  <Genealogy>  (17) 
CCN(C)CCC[NH2+]c1c2ccccc2[n+](C)c2cccc(OCC[N+]3(C)CC[N+](C)(C)CC3)c12 (protonated)
CCN(C)CCC[NH2+]c1c2ccccc2[n+](C)c2cccc(OCC[N+]3(C)CC[N+](C)(C)CC3)c12 (3D coordinates assigned)
CCN(C)CCC[NH2+]c1c2ccccc2[n+](C)c2cccc(OCC[N+]3(C)CC[N+](C)(C)CC3)c12 (nonaromatic ring conformer: 146.94219772829587 kcal/mol)

>  <smiles>  (17) 
CCN(C)CCCNc1c2ccccc2[n+](C)c2cccc(OCC[N+]3(C)CC[N+](C)(C)CC3)c12

>  <score_type>  (17) 
oracle

>  <origin>  (17) 
adg

>  <m_score__min__energy>  (17) 
-2.8900000000000001

>  <m_primary>  (17) 
energy

$$$$
17:0
     RDKit          3D

 35 37  0  0  0  0  0  0  0  0999 V2000
   63.0190   34.5550   50.0470 C   0  0  0  0  0  0  0  0  0  0  0  0
   62.9010   34.2090   48.6720 O   0  0  0  0  0  0  0  0  0  0  0  0
   62.0810   33.1820   48.1810 C   0  0  0  0  0  0  0  0  0  0  0  0
   60.6930   33.3430   48.2580 C   0  0  0  0  0  0  0  0  0  0  0  0
   59.8330   32.3480   47.7840 C   0  0  0  0  0  0  0  0  0  0  0  0
   60.3520   31.1700   47.2230 C   0  0  0  0  0  0  0  0  0  0  0  0
   59.4520   30.1160   46.7190 C   0  0  0  0  0  0  0  0  0  0  0  0
   58.6430   29.3670   47.4960 N   0  0  0  0  0  0  0  0  0  0  0  0
   57.9990   28.5450   46.6830 N   0  0  0  0  0  0  0  0  0  0  0  0
   58.4400   28.8250   45.4430 C   0  0  0  0  0  0  0  0  0  0  0  0
   57.8770   27.9860   43.9640 S   0  0  0  0  0  0  0  0  0  0  0  0
   56.9610   29.4260   43.3170 C   0  0  0  0  0  0  0  0  0  0  0  0
   56.0890   30.0260   44.3830 C   0  0  0  0  0  0  0  0  0  0  0  0
   55.1640   29.3330   44.8830 O   0  0  0  0  0  0  0  0  0  0  0  0
   56.2670   31.3740   44.8300 N   0  0  0  0  0  0  0  0  0  0  0  0
   57.5670   32.0190   44.9560 C   0  0  0  0  0  0  0  0  0  0  0  0
   57.5060   33.5330   44.8790 C   0  0  0  0  0  0  0  0  0  0  0  0
   57.9970   32.7270   43.6860 C   0  0  0  0  0  0  0  0  0  0  0  0
   59.3310   29.7840   45.4550 O   0  0  0  0  0  0  0  0  0  0  0  0
   61.7440   31.0050   47.1440 C   0  0  0  0  0  0  0  0  0  0  0  0
   62.6040   32.0020   47.6190 C   0  0  0  0  0  0  0  0  0  0  0  0
   62.7259   33.6955   50.6678 H   0  0  0  0  0  0  0  0  0  0  0  0
   64.0612   34.8286   50.2681 H   0  0  0  0  0  0  0  0  0  0  0  0
   62.3611   35.4084   50.2681 H   0  0  0  0  0  0  0  0  0  0  0  0
   60.2746   34.2613   48.6957 H   0  0  0  0  0  0  0  0  0  0  0  0
   58.7441   32.4886   47.8508 H   0  0  0  0  0  0  0  0  0  0  0  0
   57.6788   30.1836   42.9694 H   0  0  0  0  0  0  0  0  0  0  0  0
   56.3228   29.0933   42.4851 H   0  0  0  0  0  0  0  0  0  0  0  0
   58.0263   31.2957   45.6459 H   0  0  0  0  0  0  0  0  0  0  0  0
   56.5324   34.0431   44.8354 H   0  0  0  0  0  0  0  0  0  0  0  0
   57.9119   34.3601   45.4800 H   0  0  0  0  0  0  0  0  0  0  0  0
   57.3787   32.6542   42.7792 H   0  0  0  0  0  0  0  0  0  0  0  0
   58.9056   32.7296   43.0659 H   0  0  0  0  0  0  0  0  0  0  0  0
   62.1614   30.0863   46.7060 H   0  0  0  0  0  0  0  0  0  0  0  0
   63.6932   31.8629   47.5529 H   0  0  0  0  0  0  0  0  0  0  0  0
  1  2  1  0
  2  3  1  0
  3  4  2  0
  4  5  1  0
  5  6  2  0
  6  7  1  0
  7  8  2  0
  8  9  1  0
  9 10  2  0
 10 11  1  0
 11 12  1  0
 12 13  1  0
 13 14  2  0
 13 15  1  0
 15 16  1  0
 16 17  1  0
 17 18  1  0
 10 19  1  0
  6 20  1  0
 20 21  2  0
 21  3  1  0
 19  7  1  0
 18 16  1  0
  1 22  1  0
  1 23  1  0
  1 24  1  0
  4 25  1  0
  5 26  1  0
 12 27  1  0
 12 28  1  0
 16 29  1  0
 17 30  1  0
 17 31  1  0
 18 32  1  0
 18 33  1  0
 20 34  1  0
 21 35  1  0
M  CHG  1  15  -1
M  END
>  <UniqueID>  (18) 
18

>  <SMILES>  (18) 
COc1ccc(-c2nnc(SCC(=O)[N-]C3CC3)o2)cc1

>  <Energy>  (18) 
328.6404431891807

>  <Genealogy>  (18) 
COc1ccc(-c2nnc(SCC(=O)[N-]C3CC3)o2)cc1 (protonated)
COc1ccc(-c2nnc(SCC(=O)[N-]C3CC3)o2)cc1 (3D coordinates assigned)
COc1ccc(-c2nnc(SCC(=O)[N-]C3CC3)o2)cc1 (nonaromatic ring conformer: 328.6404431891807 kcal/mol)

>  <smiles>  (18) 
COc1ccc(-c2nnc(SCC(=O)NC3CC3)o2)cc1

>  <score_type>  (18) 
oracle

>  <origin>  (18) 
adg

>  <m_score__min__energy>  (18) 
-9.5500000000000007

>  <m_primary>  (18) 
energy

$$$$
18:0
     RDKit          3D

 77 80  0  0  0  0  0  0  0  0999 V2000
   62.9030   34.1900   46.3500 C   0  0  0  0  0  0  0  0  0  0  0  0
   64.0070   33.5160   47.1720 C   0  0  0  0  0  0  0  0  0  0  0  0
   63.6220   33.0270   48.5390 N   0  0  0  0  0  0  0  0  0  0  0  0
   64.7830   33.0720   49.4990 C   0  0  0  0  0  0  0  0  0  0  0  0
   64.9870   31.8300   50.3960 C   0  0  0  0  0  0  0  0  0  0  0  0
   62.4510   33.8170   49.0860 C   0  0  0  0  0  0  0  0  0  0  0  0
   62.4930   34.2000   50.5800 C   0  0  0  0  0  0  0  0  0  0  0  0
   63.1950   31.5870   48.4090 C   0  0  0  0  0  0  0  0  0  0  0  0
   62.2690   31.2360   47.2070 C   0  0  0  0  0  0  0  0  0  0  0  0
   61.0180   30.6020   47.6350 N   0  0  0  0  0  0  0  0  0  0  0  0
   59.8770   30.6110   46.7620 C   0  0  0  0  0  0  0  0  0  0  0  0
   59.2090   31.8270   46.5280 C   0  0  0  0  0  0  0  0  0  0  0  0
   59.4940   32.9740   47.3020 C   0  0  0  0  0  0  0  0  0  0  0  0
   58.7850   34.1570   47.1060 C   0  0  0  0  0  0  0  0  0  0  0  0
   57.7720   34.2140   46.1550 C   0  0  0  0  0  0  0  0  0  0  0  0
   57.4990   33.1010   45.3580 C   0  0  0  0  0  0  0  0  0  0  0  0
   58.2520   31.9050   45.4890 C   0  0  0  0  0  0  0  0  0  0  0  0
   58.0900   30.8460   44.6190 N   0  0  0  0  0  0  0  0  0  0  0  0
   57.4040   31.0520   43.3210 C   0  0  0  0  0  0  0  0  0  0  0  0
   58.6040   29.6010   44.9410 C   0  0  0  0  0  0  0  0  0  0  0  0
   58.2670   28.4530   44.1860 C   0  0  0  0  0  0  0  0  0  0  0  0
   58.7830   27.2040   44.4990 C   0  0  0  0  0  0  0  0  0  0  0  0
   59.5920   27.0410   45.6100 C   0  0  0  0  0  0  0  0  0  0  0  0
   59.9280   28.1340   46.4260 C   0  0  0  0  0  0  0  0  0  0  0  0
   60.5900   27.8850   47.6850 N   0  0  0  0  0  0  0  0  0  0  0  0
   60.1430   26.8950   48.6700 C   0  0  0  0  0  0  0  0  0  0  0  0
   60.4590   27.3560   50.0970 C   0  0  0  0  0  0  0  0  0  0  0  0
   60.5940   28.8340   50.1330 N   0  0  0  0  0  0  0  0  0  0  0  0
   59.2860   29.4970   50.3030 C   0  0  0  0  0  0  0  0  0  0  0  0
   59.4620   31.0230   50.4310 C   0  0  0  0  0  0  0  0  0  0  0  0
   60.8080   31.4100   50.2440 O   0  0  0  0  0  0  0  0  0  0  0  0
   61.6200   30.8030   51.2350 C   0  0  0  0  0  0  0  0  0  0  0  0
   61.5150   29.2650   51.2020 C   0  0  0  0  0  0  0  0  0  0  0  0
   59.4790   29.4460   46.0600 C   0  0  0  0  0  0  0  0  0  0  0  0
   62.1641   34.6411   47.0286 H   0  0  0  0  0  0  0  0  0  0  0  0
   63.3442   34.9729   45.7157 H   0  0  0  0  0  0  0  0  0  0  0  0
   62.4082   33.4398   45.7157 H   0  0  0  0  0  0  0  0  0  0  0  0
   64.3701   32.6509   46.5978 H   0  0  0  0  0  0  0  0  0  0  0  0
   64.7601   34.2990   47.3447 H   0  0  0  0  0  0  0  0  0  0  0  0
   65.7000   33.2109   48.9076 H   0  0  0  0  0  0  0  0  0  0  0  0
   64.5554   33.8959   50.1914 H   0  0  0  0  0  0  0  0  0  0  0  0
   64.9378   32.1293   51.4534 H   0  0  0  0  0  0  0  0  0  0  0  0
   64.1979   31.0928   50.1865 H   0  0  0  0  0  0  0  0  0  0  0  0
   65.9704   31.3840   50.1865 H   0  0  0  0  0  0  0  0  0  0  0  0
   62.3825   34.7500   48.5073 H   0  0  0  0  0  0  0  0  0  0  0  0
   61.5865   33.1435   48.9909 H   0  0  0  0  0  0  0  0  0  0  0  0
   62.3935   33.2928   51.1940 H   0  0  0  0  0  0  0  0  0  0  0  0
   63.4505   34.6922   50.8056 H   0  0  0  0  0  0  0  0  0  0  0  0
   61.6649   34.8880   50.8056 H   0  0  0  0  0  0  0  0  0  0  0  0
   64.1055   30.9767   48.3172 H   0  0  0  0  0  0  0  0  0  0  0  0
   62.5924   31.3829   49.3063 H   0  0  0  0  0  0  0  0  0  0  0  0
   62.0286   32.1617   46.6635 H   0  0  0  0  0  0  0  0  0  0  0  0
   62.8061   30.5217   46.5657 H   0  0  0  0  0  0  0  0  0  0  0  0
   60.8530   30.4000   48.6450 H   0  0  0  0  0  0  0  0  0  0  0  0
   60.2835   32.9325   48.0669 H   0  0  0  0  0  0  0  0  0  0  0  0
   59.0269   35.0476   47.7046 H   0  0  0  0  0  0  0  0  0  0  0  0
   57.1857   35.1364   46.0308 H   0  0  0  0  0  0  0  0  0  0  0  0
   56.6877   33.1516   44.6169 H   0  0  0  0  0  0  0  0  0  0  0  0
   56.3647   31.3641   43.5010 H   0  0  0  0  0  0  0  0  0  0  0  0
   57.9275   31.8326   42.7494 H   0  0  0  0  0  0  0  0  0  0  0  0
   57.4108   30.1122   42.7494 H   0  0  0  0  0  0  0  0  0  0  0  0
   57.5808   28.5530   43.3321 H   0  0  0  0  0  0  0  0  0  0  0  0
   58.5481   26.3391   43.8612 H   0  0  0  0  0  0  0  0  0  0  0  0
   59.9775   26.0410   45.8577 H   0  0  0  0  0  0  0  0  0  0  0  0
   61.2820   28.5870   48.0130 H   0  0  0  0  0  0  0  0  0  0  0  0
   59.0567   26.7539   48.5702 H   0  0  0  0  0  0  0  0  0  0  0  0
   60.6741   25.9502   48.4820 H   0  0  0  0  0  0  0  0  0  0  0  0
   59.6441   27.0478   50.7686 H   0  0  0  0  0  0  0  0  0  0  0  0
   61.4042   26.8982   50.4242 H   0  0  0  0  0  0  0  0  0  0  0  0
   58.6539   29.2783   49.4297 H   0  0  0  0  0  0  0  0  0  0  0  0
   58.8132   29.1170   51.2206 H   0  0  0  0  0  0  0  0  0  0  0  0
   58.8395   31.5188   49.6717 H   0  0  0  0  0  0  0  0  0  0  0  0
   59.1569   31.3201   51.4452 H   0  0  0  0  0  0  0  0  0  0  0  0
   62.6673   31.0917   51.0623 H   0  0  0  0  0  0  0  0  0  0  0  0
   61.2707   31.1474   52.2196 H   0  0  0  0  0  0  0  0  0  0  0  0
   62.5114   28.8378   51.0157 H   0  0  0  0  0  0  0  0  0  0  0  0
   61.1273   28.9135   52.1695 H   0  0  0  0  0  0  0  0  0  0  0  0
  1  2  1  0
  2  3  1  0
  3  4  1  0
  4  5  1  0
  3  6  1  0
  6  7  1  0
  3  8  1  0
  8  9  1  0
  9 10  1  0
 10 11  1  0
 11 12  2  0
 12 13  1  0
 13 14  2  0
 14 15  1  0
 15 16  2  0
 16 17  1  0
 17 18  2  0
 18 19  1  0
 18 20  1  0
 20 21  2  0
 21 22  1  0
 22 23  2  0
 23 24  1  0
 24 25  1  0
 25 26  1  0
 26 27  1  0
 27 28  1  0
 28 29  1  0
 29 30  1  0
 30 31  1  0
 31 32  1  0
 32 33  1  0
 24 34  2  0
 34 11  1  0
 17 12  1  0
 34 20  1  0
 33 28  1  0
  1 35  1  0
  1 36  1  0
  1 37  1  0
  2 38  1  0
  2 39  1  0
  4 40  1  0
  4 41  1  0
  5 42  1  0
  5 43  1  0
  5 44  1  0
  6 45  1  0
  6 46  1  0
  7 47  1  0
  7 48  1  0
  7 49  1  0
  8 50  1  0
  8 51  1  0
  9 52  1  0
  9 53  1  0
 10 54  1  0
 13 55  1  0
 14 56  1  0
 15 57  1  0
 16 58  1  0
 19 59  1  0
 19 60  1  0
 19 61  1  0
 21 62  1  0
 22 63  1  0
 23 64  1  0
 25 65  1  0
 26 66  1  0
 26 67  1  0
 27 68  1  0
 27 69  1  0
 29 70  1  0
 29 71  1  0
 30 72  1  0
 30 73  1  0
 32 74  1  0
 32 75  1  0
 33 76  1  0
 33 77  1  0
M  CHG  2   3   1  18   1
M  END
>  <UniqueID>  (19) 
19

>  <SMILES>  (19) 
CC[N+](CC)(CC)CCNc1c2ccccc2[n+](C)c2cccc(NCCN3CCOCC3)c12

>  <Energy>  (19) 
145.09431960923396

>  <Genealogy>  (19) 
CC[N+](CC)(CC)CCNc1c2ccccc2[n+](C)c2cccc(NCCN3CCOCC3)c12 (3D coordinates assigned)
CC[N+](CC)(CC)CCNc1c2ccccc2[n+](C)c2cccc(NCCN3CCOCC3)c12 (nonaromatic ring conformer: 145.09431960923396 kcal/mol)

>  <smiles>  (19) 
CC[N+](CC)(CC)CCNc1c2ccccc2[n+](C)c2cccc(NCCN3CCOCC3)c12

>  <score_type>  (19) 
oracle

>  <origin>  (19) 
adg

>  <m_score__min__energy>  (19) 
-4.5199999999999996

>  <m_primary>  (19) 
energy

$$$$
19:0
     RDKit          3D

 61 63  0  0  0  0  0  0  0  0999 V2000
   57.3710   33.6950   45.0950 C   0  0  0  0  0  0  0  0  0  0  0  0
   58.2620   33.3570   46.2870 C   0  0  0  0  0  0  0  0  0  0  0  0
   59.3720   34.3970   46.4920 C   0  0  0  0  0  0  0  0  0  0  0  0
   60.5470   33.7490   47.1480 N   0  0  0  0  0  0  0  0  0  0  0  0
   60.7670   34.1940   48.5660 C   0  0  0  0  0  0  0  0  0  0  0  0
   59.6350   33.8170   49.5400 C   0  0  0  0  0  0  0  0  0  0  0  0
   60.1150   33.6340   50.9800 C   0  0  0  0  0  0  0  0  0  0  0  0
   61.8090   33.9320   46.3630 C   0  0  0  0  0  0  0  0  0  0  0  0
   63.0960   33.5830   47.1680 C   0  0  0  0  0  0  0  0  0  0  0  0
   63.3370   32.1110   47.3830 N   0  0  0  0  0  0  0  0  0  0  0  0
   63.0770   31.6330   48.7480 C   0  0  0  0  0  0  0  0  0  0  0  0
   64.0820   31.8980   49.7000 C   0  0  0  0  0  0  0  0  0  0  0  0
   65.2050   32.7080   49.3710 C   0  0  0  0  0  0  0  0  0  0  0  0
   66.2510   32.9120   50.2560 C   0  0  0  0  0  0  0  0  0  0  0  0
   66.2190   32.3010   51.4980 C   0  0  0  0  0  0  0  0  0  0  0  0
   65.1140   31.5430   51.8800 C   0  0  0  0  0  0  0  0  0  0  0  0
   63.9710   31.4090   51.0340 C   0  0  0  0  0  0  0  0  0  0  0  0
   62.7820   30.8640   51.4540 N   0  0  0  0  0  0  0  0  0  0  0  0
   62.6490   30.4040   52.8770 C   0  0  0  0  0  0  0  0  0  0  0  0
   61.7390   30.6410   50.5710 C   0  0  0  0  0  0  0  0  0  0  0  0
   60.5160   30.0380   51.0000 C   0  0  0  0  0  0  0  0  0  0  0  0
   59.4580   29.8310   50.1530 C   0  0  0  0  0  0  0  0  0  0  0  0
   59.5380   30.2000   48.8300 C   0  0  0  0  0  0  0  0  0  0  0  0
   60.7080   30.7540   48.3060 C   0  0  0  0  0  0  0  0  0  0  0  0
   60.7190   30.8680   46.8880 N   0  0  0  0  0  0  0  0  0  0  0  0
   60.9940   29.7260   46.0360 C   0  0  0  0  0  0  0  0  0  0  0  0
   61.8600   30.9990   49.1610 C   0  0  0  0  0  0  0  0  0  0  0  0
   56.3995   34.0635   45.4562 H   0  0  0  0  0  0  0  0  0  0  0  0
   57.8542   34.4723   44.4848 H   0  0  0  0  0  0  0  0  0  0  0  0
   57.2171   32.7928   44.4848 H   0  0  0  0  0  0  0  0  0  0  0  0
   57.6410   33.3177   47.1941 H   0  0  0  0  0  0  0  0  0  0  0  0
   58.7400   32.3865   46.0879 H   0  0  0  0  0  0  0  0  0  0  0  0
   59.6758   34.8059   45.5171 H   0  0  0  0  0  0  0  0  0  0  0  0
   58.9983   35.2108   47.1308 H   0  0  0  0  0  0  0  0  0  0  0  0
   61.6986   33.7352   48.9288 H   0  0  0  0  0  0  0  0  0  0  0  0
   60.8066   35.2931   48.5449 H   0  0  0  0  0  0  0  0  0  0  0  0
   58.8785   34.6154   49.5225 H   0  0  0  0  0  0  0  0  0  0  0  0
   59.2253   32.8520   49.2070 H   0  0  0  0  0  0  0  0  0  0  0  0
   59.3174   33.9381   51.6738 H   0  0  0  0  0  0  0  0  0  0  0  0
   60.3665   32.5769   51.1511 H   0  0  0  0  0  0  0  0  0  0  0  0
   61.0064   34.2553   51.1511 H   0  0  0  0  0  0  0  0  0  0  0  0
   61.7654   33.2819   45.4767 H   0  0  0  0  0  0  0  0  0  0  0  0
   61.8728   34.9971   46.0956 H   0  0  0  0  0  0  0  0  0  0  0  0
   63.9596   33.9937   46.6244 H   0  0  0  0  0  0  0  0  0  0  0  0
   62.9592   34.0199   48.1682 H   0  0  0  0  0  0  0  0  0  0  0  0
   62.8210   31.5700   46.6700 H   0  0  0  0  0  0  0  0  0  0  0  0
   64.3230   31.8560   47.1020 H   0  0  0  0  0  0  0  0  0  0  0  0
   65.2436   33.1876   48.3818 H   0  0  0  0  0  0  0  0  0  0  0  0
   67.0991   33.5535   49.9746 H   0  0  0  0  0  0  0  0  0  0  0  0
   67.0696   32.4145   52.1862 H   0  0  0  0  0  0  0  0  0  0  0  0
   65.1221   31.0359   52.8561 H   0  0  0  0  0  0  0  0  0  0  0  0
   62.8895   31.2359   53.5553 H   0  0  0  0  0  0  0  0  0  0  0  0
   61.6172   30.0690   53.0591 H   0  0  0  0  0  0  0  0  0  0  0  0
   63.3428   29.5701   53.0591 H   0  0  0  0  0  0  0  0  0  0  0  0
   60.4200   29.7279   52.0510 H   0  0  0  0  0  0  0  0  0  0  0  0
   58.5371   29.3658   50.5345 H   0  0  0  0  0  0  0  0  0  0  0  0
   58.6664   30.0564   48.1745 H   0  0  0  0  0  0  0  0  0  0  0  0
   61.1630   31.7430   46.5240 H   0  0  0  0  0  0  0  0  0  0  0  0
   61.2060   28.8454   46.6602 H   0  0  0  0  0  0  0  0  0  0  0  0
   60.1190   29.5232   45.4010 H   0  0  0  0  0  0  0  0  0  0  0  0
   61.8654   29.9437   45.4010 H   0  0  0  0  0  0  0  0  0  0  0  0
  1  2  1  0
  2  3  1  0
  3  4  1  0
  4  5  1  0
  5  6  1  0
  6  7  1  0
  4  8  1  0
  8  9  1  0
  9 10  1  0
 10 11  1  0
 11 12  2  0
 12 13  1  0
 13 14  2  0
 14 15  1  0
 15 16  2  0
 16 17  1  0
 17 18  2  0
 18 19  1  0
 18 20  1  0
 20 21  2  0
 21 22  1  0
 22 23  2  0
 23 24  1  0
 24 25  1  0
 25 26  1  0
 24 27  2  0
 27 11  1  0
 17 12  1  0
 27 20  1  0
  1 28  1  0
  1 29  1  0
  1 30  1  0
  2 31  1  0
  2 32  1  0
  3 33  1  0
  3 34  1  0
  5 35  1  0
  5 36  1  0
  6 37  1  0
  6 38  1  0
  7 39  1  0
  7 40  1  0
  7 41  1  0
  8 42  1  0
  8 43  1  0
  9 44  1  0
  9 45  1  0
 10 46  1  0
 10 47  1  0
 13 48  1  0
 14 49  1  0
 15 50  1  0
 16 51  1  0
 19 52  1  0
 19 53  1  0
 19 54  1  0
 21 55  1  0
 22 56  1  0
 23 57  1  0
 25 58  1  0
 26 59  1  0
 26 60  1  0
 26 61  1  0
M  CHG  2  10   1  18   1
M  END
>  <UniqueID>  (20) 
20

>  <SMILES>  (20) 
CCCN(CCC)CC[NH2+]c1c2ccccc2[n+](C)c2cccc(NC)c12

>  <Energy>  (20) 
136.15449149705861

>  <Genealogy>  (20) 
CCCN(CCC)CC[NH2+]c1c2ccccc2[n+](C)c2cccc(NC)c12 (protonated)
CCCN(CCC)CC[NH2+]c1c2ccccc2[n+](C)c2cccc(NC)c12 (3D coordinates assigned)
CCCN(CCC)CC[NH2+]c1c2ccccc2[n+](C)c2cccc(NC)c12 (optimized conformer: 136.15449149705861 kcal/mol)

>  <smiles>  (20) 
CCCN(CCC)CCNc1c2ccccc2[n+](C)c2cccc(NC)c12

>  <score_type>  (20) 
oracle

>  <origin>  (20) 
adg

>  <m_score__min__energy>  (20) 
-4.6200000000000001

>  <m_primary>  (20) 
energy

$$$$
20:0
     RDKit          3D

 62 65  0  0  0  0  0  0  0  0999 V2000
   55.8100   23.3170   44.9450 C   0  0  0  0  0  0  0  0  0  0  0  0
   55.7870   23.1450   46.4610 C   0  0  0  0  0  0  0  0  0  0  0  0
   55.8140   24.4150   47.1100 O   0  0  0  0  0  0  0  0  0  0  0  0
   56.0850   25.6160   46.4450 C   0  0  0  0  0  0  0  0  0  0  0  0
   55.1430   26.3470   46.0270 O   0  0  0  0  0  0  0  0  0  0  0  0
   57.5160   26.0040   46.1850 C   0  0  0  0  0  0  0  0  0  0  0  0
   57.6390   26.6260   44.7760 C   0  0  0  0  0  0  0  0  0  0  0  0
   58.8910   27.4970   44.6500 C   0  0  0  0  0  0  0  0  0  0  0  0
   58.8770   28.5730   45.6560 N   0  0  0  0  0  0  0  0  0  0  0  0
   59.4460   29.8570   45.3340 C   0  0  0  0  0  0  0  0  0  0  0  0
   59.3880   30.2890   44.1510 O   0  0  0  0  0  0  0  0  0  0  0  0
   60.0650   30.7120   46.3640 C   0  0  0  0  0  0  0  0  0  0  0  0
   61.3060   30.4880   46.9300 C   0  0  0  0  0  0  0  0  0  0  0  0
   61.4390   31.4780   47.8930 C   0  0  0  0  0  0  0  0  0  0  0  0
   62.5950   31.6720   48.8040 C   0  0  0  0  0  0  0  0  0  0  0  0
   62.6820   30.9570   50.0150 C   0  0  0  0  0  0  0  0  0  0  0  0
   63.7730   31.1390   50.8700 C   0  0  0  0  0  0  0  0  0  0  0  0
   64.7900   32.0330   50.5280 C   0  0  0  0  0  0  0  0  0  0  0  0
   64.7170   32.7480   49.3320 C   0  0  0  0  0  0  0  0  0  0  0  0
   63.6270   32.5700   48.4720 C   0  0  0  0  0  0  0  0  0  0  0  0
   60.3180   32.2310   47.8970 N   0  0  0  0  0  0  0  0  0  0  0  0
   59.4880   31.7740   46.9730 N   0  0  0  0  0  0  0  0  0  0  0  0
   58.1060   32.2370   46.8410 C   0  0  0  0  0  0  0  0  0  0  0  0
   57.9650   33.1410   45.6150 C   0  0  0  0  0  0  0  0  0  0  0  0
   57.4830   32.3500   44.4290 C   0  0  0  0  0  0  0  0  0  0  0  0
   57.8860   32.6990   43.1310 C   0  0  0  0  0  0  0  0  0  0  0  0
   57.4720   31.9370   42.0340 C   0  0  0  0  0  0  0  0  0  0  0  0
   56.6600   30.8160   42.2280 C   0  0  0  0  0  0  0  0  0  0  0  0
   56.2650   30.4540   43.5180 C   0  0  0  0  0  0  0  0  0  0  0  0
   56.6770   31.2150   44.6170 C   0  0  0  0  0  0  0  0  0  0  0  0
   58.1230   28.3940   46.9080 C   0  0  0  0  0  0  0  0  0  0  0  0
   58.0810   26.9130   47.3090 C   0  0  0  0  0  0  0  0  0  0  0  0
   55.9521   24.3796   44.6987 H   0  0  0  0  0  0  0  0  0  0  0  0
   56.6375   22.7286   44.5217 H   0  0  0  0  0  0  0  0  0  0  0  0
   54.8570   22.9668   44.5217 H   0  0  0  0  0  0  0  0  0  0  0  0
   54.8703   22.6103   46.7505 H   0  0  0  0  0  0  0  0  0  0  0  0
   56.6743   22.5712   46.7667 H   0  0  0  0  0  0  0  0  0  0  0  0
   58.1431   25.1005   46.2036 H   0  0  0  0  0  0  0  0  0  0  0  0
   57.6910   25.8171   44.0324 H   0  0  0  0  0  0  0  0  0  0  0  0
   56.7589   27.2631   44.6040 H   0  0  0  0  0  0  0  0  0  0  0  0
   59.7832   26.8718   44.8017 H   0  0  0  0  0  0  0  0  0  0  0  0
   58.9093   27.9490   43.6473 H   0  0  0  0  0  0  0  0  0  0  0  0
   62.0285   29.6992   46.6736 H   0  0  0  0  0  0  0  0  0  0  0  0
   61.8853   30.2501   50.2898 H   0  0  0  0  0  0  0  0  0  0  0  0
   63.8305   30.5770   51.8139 H   0  0  0  0  0  0  0  0  0  0  0  0
   65.6484   32.1735   51.2014 H   0  0  0  0  0  0  0  0  0  0  0  0
   65.5178   33.4531   49.0644 H   0  0  0  0  0  0  0  0  0  0  0  0
   63.5765   33.1358   47.5301 H   0  0  0  0  0  0  0  0  0  0  0  0
   60.0910   33.0100   48.5550 H   0  0  0  0  0  0  0  0  0  0  0  0
   57.4410   31.3679   46.7297 H   0  0  0  0  0  0  0  0  0  0  0  0
   57.8319   32.8078   47.7405 H   0  0  0  0  0  0  0  0  0  0  0  0
   57.2415   33.9397   45.8356 H   0  0  0  0  0  0  0  0  0  0  0  0
   58.9479   33.5742   45.3778 H   0  0  0  0  0  0  0  0  0  0  0  0
   58.5309   33.5765   42.9756 H   0  0  0  0  0  0  0  0  0  0  0  0
   57.7854   32.2199   41.0182 H   0  0  0  0  0  0  0  0  0  0  0  0
   56.3319   30.2187   41.3645 H   0  0  0  0  0  0  0  0  0  0  0  0
   55.6291   29.5693   43.6698 H   0  0  0  0  0  0  0  0  0  0  0  0
   56.3688   30.9236   45.6319 H   0  0  0  0  0  0  0  0  0  0  0  0
   58.6095   28.9711   47.7082 H   0  0  0  0  0  0  0  0  0  0  0  0
   57.0930   28.7481   46.7542 H   0  0  0  0  0  0  0  0  0  0  0  0
   59.1032   26.5838   47.5473 H   0  0  0  0  0  0  0  0  0  0  0  0
   57.4117   26.8227   48.1773 H   0  0  0  0  0  0  0  0  0  0  0  0
  1  2  1  0
  2  3  1  0
  3  4  1  0
  4  5  2  0
  4  6  1  0
  6  7  1  0
  7  8  1  0
  8  9  1  0
  9 10  1  0
 10 11  2  0
 10 12  1  0
 12 13  2  0
 13 14  1  0
 14 15  1  0
 15 16  2  0
 16 17  1  0
 17 18  2  0
 18 19  1  0
 19 20  2  0
 14 21  2  0
 21 22  1  0
 22 23  1  0
 23 24  1  0
 24 25  1  0
 25 26  2  0
 26 27  1  0
 27 28  2  0
 28 29  1  0
 29 30  2  0
  9 31  1  0
 31 32  1  0
 32  6  1  0
 22 12  1  0
 30 25  1  0
 20 15  1  0
  1 33  1  0
  1 34  1  0
  1 35  1  0
  2 36  1  0
  2 37  1  0
  6 38  1  0
  7 39  1  0
  7 40  1  0
  8 41  1  0
  8 42  1  0
 13 43  1  0
 16 44  1  0
 17 45  1  0
 18 46  1  0
 19 47  1  0
 20 48  1  0
 21 49  1  0
 23 50  1  0
 23 51  1  0
 24 52  1  0
 24 53  1  0
 26 54  1  0
 27 55  1  0
 28 56  1  0
 29 57  1  0
 30 58  1  0
 31 59  1  0
 31 60  1  0
 32 61  1  0
 32 62  1  0
M  CHG  1  21   1
M  END
>  <UniqueID>  (21) 
21

>  <SMILES>  (21) 
CCOC(=O)C1CCN(C(=O)c2cc(-c3ccccc3)[nH+]n2CCc2ccccc2)CC1

>  <Energy>  (21) 
97.13397098747188

>  <Genealogy>  (21) 
CCOC(=O)C1CCN(C(=O)c2cc(-c3ccccc3)[nH+]n2CCc2ccccc2)CC1 (protonated)
CCOC(=O)C1CCN(C(=O)c2cc(-c3ccccc3)[nH+]n2CCc2ccccc2)CC1 (3D coordinates assigned)
CCOC(=O)C1CCN(C(=O)c2cc(-c3ccccc3)[nH+]n2CCc2ccccc2)CC1 (nonaromatic ring conformer: 97.13397098747188 kcal/mol)

>  <smiles>  (21) 
CCOC(=O)C1CCN(C(=O)c2cc(-c3ccccc3)nn2CCc2ccccc2)CC1

>  <score_type>  (21) 
oracle

>  <origin>  (21) 
adg

>  <m_score__min__energy>  (21) 
-7.25

>  <m_primary>  (21) 
energy

$$$$
21:0
     RDKit          3D

 47 49  0  0  0  0  0  0  0  0999 V2000
   61.9970   33.4800   51.2520 C   0  0  0  0  0  0  0  0  0  0  0  0
   62.0210   33.7490   49.7810 C   0  0  0  0  0  0  0  0  0  0  0  0
   60.9370   34.0710   49.0510 N   0  0  0  0  0  0  0  0  0  0  0  0
   61.2870   34.1720   47.7760 N   0  0  0  0  0  0  0  0  0  0  0  0
   60.3340   34.3680   46.6700 C   0  0  0  0  0  0  0  0  0  0  0  0
   59.7860   33.0770   46.0700 C   0  0  0  0  0  0  0  0  0  0  0  0
   58.4090   33.3610   46.5040 N   0  0  0  0  0  0  0  0  0  0  0  0
   57.5110   33.6540   45.3690 C   0  0  0  0  0  0  0  0  0  0  0  0
   57.4870   32.4890   44.3630 C   0  0  0  0  0  0  0  0  0  0  0  0
   57.0100   31.2310   44.9830 N   0  0  0  0  0  0  0  0  0  0  0  0
   58.1330   30.3850   45.4540 C   0  0  0  0  0  0  0  0  0  0  0  0
   57.7290   28.9020   45.5140 C   0  0  0  0  0  0  0  0  0  0  0  0
   57.3490   28.3660   44.2540 O   0  0  0  0  0  0  0  0  0  0  0  0
   56.7980   29.3290   43.3660 C   0  0  0  0  0  0  0  0  0  0  0  0
   56.0900   30.4940   44.0810 C   0  0  0  0  0  0  0  0  0  0  0  0
   58.8980   34.5960   47.1310 C   0  0  0  0  0  0  0  0  0  0  0  0
   62.5970   33.8400   47.6640 C   0  0  0  0  0  0  0  0  0  0  0  0
   63.3550   33.6950   46.3760 C   0  0  0  0  0  0  0  0  0  0  0  0
   63.1090   33.6130   48.9340 C   0  0  0  0  0  0  0  0  0  0  0  0
   64.4820   33.1320   49.2900 C   0  0  0  0  0  0  0  0  0  0  0  0
   62.0818   34.4301   51.7999 H   0  0  0  0  0  0  0  0  0  0  0  0
   61.0512   32.9859   51.5190 H   0  0  0  0  0  0  0  0  0  0  0  0
   62.8404   32.8262   51.5190 H   0  0  0  0  0  0  0  0  0  0  0  0
   59.9640   34.1620   49.4210 H   0  0  0  0  0  0  0  0  0  0  0  0
   60.9113   35.1009   46.0873 H   0  0  0  0  0  0  0  0  0  0  0  0
   59.8963   33.0229   44.9769 H   0  0  0  0  0  0  0  0  0  0  0  0
   60.2454   32.1219   46.3646 H   0  0  0  0  0  0  0  0  0  0  0  0
   56.4927   33.8196   45.7506 H   0  0  0  0  0  0  0  0  0  0  0  0
   57.8828   34.5518   44.8535 H   0  0  0  0  0  0  0  0  0  0  0  0
   56.8167   32.7516   43.5313 H   0  0  0  0  0  0  0  0  0  0  0  0
   58.5152   32.3248   44.0083 H   0  0  0  0  0  0  0  0  0  0  0  0
   58.9809   30.4976   44.7624 H   0  0  0  0  0  0  0  0  0  0  0  0
   58.4112   30.7102   46.4673 H   0  0  0  0  0  0  0  0  0  0  0  0
   58.5836   28.3236   45.8948 H   0  0  0  0  0  0  0  0  0  0  0  0
   56.8509   28.8326   46.1729 H   0  0  0  0  0  0  0  0  0  0  0  0
   57.6121   29.7414   42.7518 H   0  0  0  0  0  0  0  0  0  0  0  0
   56.0379   28.8123   42.7617 H   0  0  0  0  0  0  0  0  0  0  0  0
   55.6996   31.1908   43.3247 H   0  0  0  0  0  0  0  0  0  0  0  0
   55.2767   30.0752   44.6918 H   0  0  0  0  0  0  0  0  0  0  0  0
   58.4451   35.5065   46.7115 H   0  0  0  0  0  0  0  0  0  0  0  0
   58.7080   34.7530   48.2030 H   0  0  0  0  0  0  0  0  0  0  0  0
   64.4139   33.4924   46.5945 H   0  0  0  0  0  0  0  0  0  0  0  0
   62.9345   32.8610   45.7949 H   0  0  0  0  0  0  0  0  0  0  0  0
   63.2720   34.6253   45.7949 H   0  0  0  0  0  0  0  0  0  0  0  0
   64.5855   33.0957   50.3845 H   0  0  0  0  0  0  0  0  0  0  0  0
   64.6375   32.1259   48.8735 H   0  0  0  0  0  0  0  0  0  0  0  0
   65.2314   33.8211   48.8735 H   0  0  0  0  0  0  0  0  0  0  0  0
  1  2  1  0
  2  3  2  0
  3  4  1  0
  4  5  1  0
  5  6  1  0
  6  7  1  0
  7  8  1  0
  8  9  1  0
  9 10  1  0
 10 11  1  0
 11 12  1  0
 12 13  1  0
 13 14  1  0
 14 15  1  0
  7 16  1  0
  4 17  1  0
 17 18  1  0
 17 19  2  0
 19 20  1  0
 19  2  1  0
 16  5  1  0
 15 10  1  0
  1 21  1  0
  1 22  1  0
  1 23  1  0
  3 24  1  0
  5 25  1  0
  6 26  1  0
  6 27  1  0
  8 28  1  0
  8 29  1  0
  9 30  1  0
  9 31  1  0
 11 32  1  0
 11 33  1  0
 12 34  1  0
 12 35  1  0
 14 36  1  0
 14 37  1  0
 15 38  1  0
 15 39  1  0
 16 40  1  0
 16 41  1  0
 18 42  1  0
 18 43  1  0
 18 44  1  0
 20 45  1  0
 20 46  1  0
 20 47  1  0
M  CHG  1   3   1
M  END
>  <UniqueID>  (22) 
22

>  <SMILES>  (22) 
Cc1[nH+]n(C2CN(CCN3CCOCC3)C2)c(C)c1C

>  <Energy>  (22) 
160.79739172065322

>  <Genealogy>  (22) 
Cc1[nH+]n(C2CN(CCN3CCOCC3)C2)c(C)c1C (protonated)
Cc1[nH+]n(C2CN(CCN3CCOCC3)C2)c(C)c1C (3D coordinates assigned)
Cc1[nH+]n(C2CN(CCN3CCOCC3)C2)c(C)c1C (nonaromatic ring conformer: 160.79739172065322 kcal/mol)

>  <smiles>  (22) 
Cc1nn(C2CN(CCN3CCOCC3)C2)c(C)c1C

>  <score_type>  (22) 
oracle

>  <origin>  (22) 
adg

>  <m_score__min__energy>  (22) 
-5.8600000000000003

>  <m_primary>  (22) 
energy

$$$$
22:0
     RDKit          3D

 51 53  0  0  0  0  0  0  0  0999 V2000
   56.2960   29.6910   43.0280 C   0  0  0  0  0  0  0  0  0  0  0  0
   56.8850   30.9100   43.6550 C   0  0  0  0  0  0  0  0  0  0  0  0
   57.6380   31.8650   43.0020 C   0  0  0  0  0  0  0  0  0  0  0  0
   57.9450   32.8130   43.9560 C   0  0  0  0  0  0  0  0  0  0  0  0
   57.3520   32.3750   45.1250 C   0  0  0  0  0  0  0  0  0  0  0  0
   57.3870   33.0840   46.4510 C   0  0  0  0  0  0  0  0  0  0  0  0
   58.7320   33.1000   47.0650 N   0  0  0  0  0  0  0  0  0  0  0  0
   59.4050   34.4230   47.0200 C   0  0  0  0  0  0  0  0  0  0  0  0
   60.5760   34.4530   46.0210 C   0  0  0  0  0  0  0  0  0  0  0  0
   61.5680   33.3800   46.2750 N   0  0  0  0  0  0  0  0  0  0  0  0
   62.8550   33.8620   46.8180 C   0  0  0  0  0  0  0  0  0  0  0  0
   63.0450   33.5290   48.2740 C   0  0  0  0  0  0  0  0  0  0  0  0
   62.1820   33.8890   49.2480 N   0  0  0  0  0  0  0  0  0  0  0  0
   62.7700   33.3510   50.3390 C   0  0  0  0  0  0  0  0  0  0  0  0
   62.2260   33.4710   51.7260 C   0  0  0  0  0  0  0  0  0  0  0  0
   61.0060   32.7620   51.8360 O   0  0  0  0  0  0  0  0  0  0  0  0
   59.9320   33.4830   51.2530 C   0  0  0  0  0  0  0  0  0  0  0  0
   59.2460   32.6150   50.1940 C   0  0  0  0  0  0  0  0  0  0  0  0
   58.9420   33.8530   52.3560 C   0  0  0  0  0  0  0  0  0  0  0  0
   63.8880   32.7330   50.0370 O   0  0  0  0  0  0  0  0  0  0  0  0
   64.0830   32.8270   48.7610 N   0  0  0  0  0  0  0  0  0  0  0  0
   61.0390   32.2050   47.0010 C   0  0  0  0  0  0  0  0  0  0  0  0
   59.5730   31.9600   46.6380 C   0  0  0  0  0  0  0  0  0  0  0  0
   56.7270   31.2380   44.9150 O   0  0  0  0  0  0  0  0  0  0  0  0
   55.9616   28.9990   43.8150 H   0  0  0  0  0  0  0  0  0  0  0  0
   55.4374   29.9784   42.4034 H   0  0  0  0  0  0  0  0  0  0  0  0
   57.0547   29.1969   42.4034 H   0  0  0  0  0  0  0  0  0  0  0  0
   57.9320   31.8692   41.9420 H   0  0  0  0  0  0  0  0  0  0  0  0
   58.5389   33.7282   43.8154 H   0  0  0  0  0  0  0  0  0  0  0  0
   57.0582   34.1230   46.3012 H   0  0  0  0  0  0  0  0  0  0  0  0
   56.7213   32.5356   47.1338 H   0  0  0  0  0  0  0  0  0  0  0  0
   58.6682   35.1841   46.7234 H   0  0  0  0  0  0  0  0  0  0  0  0
   59.8134   34.6254   48.0211 H   0  0  0  0  0  0  0  0  0  0  0  0
   60.1752   34.3292   45.0041 H   0  0  0  0  0  0  0  0  0  0  0  0
   61.0906   35.4181   46.1386 H   0  0  0  0  0  0  0  0  0  0  0  0
   63.6718   33.4001   46.2440 H   0  0  0  0  0  0  0  0  0  0  0  0
   62.8575   34.9585   46.7299 H   0  0  0  0  0  0  0  0  0  0  0  0
   62.9534   33.0551   52.4387 H   0  0  0  0  0  0  0  0  0  0  0  0
   62.0454   34.5327   51.9499 H   0  0  0  0  0  0  0  0  0  0  0  0
   60.3044   34.3975   50.7682 H   0  0  0  0  0  0  0  0  0  0  0  0
   58.6371   31.8446   50.6897 H   0  0  0  0  0  0  0  0  0  0  0  0
   58.5994   33.2454   49.5659 H   0  0  0  0  0  0  0  0  0  0  0  0
   60.0087   32.1316   49.5659 H   0  0  0  0  0  0  0  0  0  0  0  0
   59.4058   33.6797   53.3383 H   0  0  0  0  0  0  0  0  0  0  0  0
   58.6681   34.9142   52.2620 H   0  0  0  0  0  0  0  0  0  0  0  0
   58.0392   33.2316   52.2620 H   0  0  0  0  0  0  0  0  0  0  0  0
   64.8930   32.4270   48.2360 H   0  0  0  0  0  0  0  0  0  0  0  0
   61.6308   31.3177   46.7318 H   0  0  0  0  0  0  0  0  0  0  0  0
   61.1084   32.3965   48.0820 H   0  0  0  0  0  0  0  0  0  0  0  0
   59.4865   31.8354   45.5485 H   0  0  0  0  0  0  0  0  0  0  0  0
   59.2274   31.0521   47.1541 H   0  0  0  0  0  0  0  0  0  0  0  0
  1  2  1  0
  2  3  2  0
  3  4  1  0
  4  5  2  0
  5  6  1  0
  6  7  1  0
  7  8  1  0
  8  9  1  0
  9 10  1  0
 10 11  1  0
 11 12  1  0
 12 13  1  0
 13 14  2  0
 14 15  1  0
 15 16  1  0
 16 17  1  0
 17 18  1  0
 17 19  1  0
 14 20  1  0
 20 21  1  0
 10 22  1  0
 22 23  1  0
  5 24  1  0
 24  2  1  0
 23  7  1  0
 21 12  2  0
  1 25  1  0
  1 26  1  0
  1 27  1  0
  3 28  1  0
  4 29  1  0
  6 30  1  0
  6 31  1  0
  8 32  1  0
  8 33  1  0
  9 34  1  0
  9 35  1  0
 11 36  1  0
 11 37  1  0
 15 38  1  0
 15 39  1  0
 17 40  1  0
 18 41  1  0
 18 42  1  0
 18 43  1  0
 19 44  1  0
 19 45  1  0
 19 46  1  0
 21 47  1  0
 22 48  1  0
 22 49  1  0
 23 50  1  0
 23 51  1  0
M  CHG  1  21   1
M  END
>  <UniqueID>  (23) 
23

>  <SMILES>  (23) 
Cc1ccc(CN2CCN(Cc3nc(COC(C)C)o[nH+]3)CC2)o1

>  <Energy>  (23) 
121.21420335579798

>  <Genealogy>  (23) 
Cc1ccc(CN2CCN(Cc3nc(COC(C)C)o[nH+]3)CC2)o1 (protonated)
Cc1ccc(CN2CCN(Cc3nc(COC(C)C)o[nH+]3)CC2)o1 (3D coordinates assigned)
Cc1ccc(CN2CCN(Cc3nc(COC(C)C)o[nH+]3)CC2)o1 (nonaromatic ring conformer: 121.21420335579798 kcal/mol)

>  <smiles>  (23) 
Cc1ccc(CN2CCN(Cc3noc(COC(C)C)n3)CC2)o1

>  <score_type>  (23) 
oracle

>  <origin>  (23) 
adg

>  <m_score__min__energy>  (23) 
-6.5199999999999996

>  <m_primary>  (23) 
energy

$$$$
23:0
     RDKit          3D

 49 52  0  0  0  0  0  0  0  0999 V2000
   56.7290   34.5910   44.9310 C   0  0  0  0  0  0  0  0  0  0  0  0
   57.7790   33.6490   45.4280 C   0  0  0  0  0  0  0  0  0  0  0  0
   58.8630   34.1220   46.1670 C   0  0  0  0  0  0  0  0  0  0  0  0
   59.8370   33.2090   46.5940 C   0  0  0  0  0  0  0  0  0  0  0  0
   60.9940   33.6420   47.3340 N   0  0  0  0  0  0  0  0  0  0  0  0
   62.2960   33.8260   46.6840 C   0  0  0  0  0  0  0  0  0  0  0  0
   63.3840   33.1760   47.5400 C   0  0  0  0  0  0  0  0  0  0  0  0
   63.2870   33.5970   48.9500 N   0  0  0  0  0  0  0  0  0  0  0  0
   64.3970   33.3710   49.8470 C   0  0  0  0  0  0  0  0  0  0  0  0
   64.3740   33.8380   51.1760 C   0  0  0  0  0  0  0  0  0  0  0  0
   65.4520   33.5650   52.0210 C   0  0  0  0  0  0  0  0  0  0  0  0
   66.5460   32.8430   51.5440 C   0  0  0  0  0  0  0  0  0  0  0  0
   66.5500   32.4060   50.2200 C   0  0  0  0  0  0  0  0  0  0  0  0
   65.4880   32.6750   49.4130 N   0  0  0  0  0  0  0  0  0  0  0  0
   62.1650   34.4480   49.3840 C   0  0  0  0  0  0  0  0  0  0  0  0
   60.8410   33.9870   48.7540 C   0  0  0  0  0  0  0  0  0  0  0  0
   59.7090   31.8990   46.2520 N   0  0  0  0  0  0  0  0  0  0  0  0
   58.6480   31.4440   45.5290 C   0  0  0  0  0  0  0  0  0  0  0  0
   58.5670   30.0030   45.1610 C   0  0  0  0  0  0  0  0  0  0  0  0
   59.3020   29.0780   45.9270 C   0  0  0  0  0  0  0  0  0  0  0  0
   59.2820   27.7150   45.6240 C   0  0  0  0  0  0  0  0  0  0  0  0
   60.2920   26.4850   46.6810 Br  0  0  0  0  0  0  0  0  0  0  0  0
   58.5250   27.2520   44.5500 C   0  0  0  0  0  0  0  0  0  0  0  0
   57.7810   28.1460   43.7810 C   0  0  0  0  0  0  0  0  0  0  0  0
   57.7760   29.5210   44.0780 C   0  0  0  0  0  0  0  0  0  0  0  0
   56.9140   30.4290   43.2370 C   0  0  0  0  0  0  0  0  0  0  0  0
   57.7020   32.3280   45.1170 N   0  0  0  0  0  0  0  0  0  0  0  0
   56.2151   35.0521   45.7873 H   0  0  0  0  0  0  0  0  0  0  0  0
   57.1996   35.3754   44.3201 H   0  0  0  0  0  0  0  0  0  0  0  0
   56.0001   34.0383   44.3201 H   0  0  0  0  0  0  0  0  0  0  0  0
   58.9519   35.1911   46.4101 H   0  0  0  0  0  0  0  0  0  0  0  0
   62.2803   33.3554   45.6899 H   0  0  0  0  0  0  0  0  0  0  0  0
   62.5052   34.9004   46.5752 H   0  0  0  0  0  0  0  0  0  0  0  0
   63.2760   32.0827   47.4853 H   0  0  0  0  0  0  0  0  0  0  0  0
   64.3633   33.4931   47.1521 H   0  0  0  0  0  0  0  0  0  0  0  0
   63.5127   34.4138   51.5457 H   0  0  0  0  0  0  0  0  0  0  0  0
   65.4383   33.9192   53.0623 H   0  0  0  0  0  0  0  0  0  0  0  0
   67.3965   32.6208   52.2053 H   0  0  0  0  0  0  0  0  0  0  0  0
   67.4108   31.8443   49.8282 H   0  0  0  0  0  0  0  0  0  0  0  0
   62.0783   34.3962   50.4793 H   0  0  0  0  0  0  0  0  0  0  0  0
   62.3646   35.4797   49.0589 H   0  0  0  0  0  0  0  0  0  0  0  0
   60.4795   33.1013   49.2970 H   0  0  0  0  0  0  0  0  0  0  0  0
   60.1249   34.8190   48.8247 H   0  0  0  0  0  0  0  0  0  0  0  0
   59.9014   29.4347   46.7776 H   0  0  0  0  0  0  0  0  0  0  0  0
   58.5142   26.1790   44.3082 H   0  0  0  0  0  0  0  0  0  0  0  0
   57.1907   27.7715   42.9317 H   0  0  0  0  0  0  0  0  0  0  0  0
   56.3063   31.0691   43.8934 H   0  0  0  0  0  0  0  0  0  0  0  0
   57.5549   31.0584   42.6021 H   0  0  0  0  0  0  0  0  0  0  0  0
   56.2521   29.8217   42.6021 H   0  0  0  0  0  0  0  0  0  0  0  0
  1  2  1  0
  2  3  2  0
  3  4  1  0
  4  5  1  0
  5  6  1  0
  6  7  1  0
  7  8  1  0
  8  9  1  0
  9 10  2  0
 10 11  1  0
 11 12  2  0
 12 13  1  0
 13 14  2  0
  8 15  1  0
 15 16  1  0
  4 17  2  0
 17 18  1  0
 18 19  1  0
 19 20  2  0
 20 21  1  0
 21 22  1  0
 21 23  2  0
 23 24  1  0
 24 25  2  0
 25 26  1  0
 18 27  2  0
 27  2  1  0
 16  5  1  0
 25 19  1  0
 14  9  1  0
  1 28  1  0
  1 29  1  0
  1 30  1  0
  3 31  1  0
  6 32  1  0
  6 33  1  0
  7 34  1  0
  7 35  1  0
 10 36  1  0
 11 37  1  0
 12 38  1  0
 13 39  1  0
 15 40  1  0
 15 41  1  0
 16 42  1  0
 16 43  1  0
 20 44  1  0
 23 45  1  0
 24 46  1  0
 26 47  1  0
 26 48  1  0
 26 49  1  0
M  END
>  <UniqueID>  (24) 
24

>  <SMILES>  (24) 
Cc1cc(N2CCN(c3ccccn3)CC2)nc(-c2cc(Br)ccc2C)n1

>  <Energy>  (24) 
63.03780528997238

>  <Genealogy>  (24) 
Cc1cc(N2CCN(c3ccccn3)CC2)nc(-c2cc(Br)ccc2C)n1 (3D coordinates assigned)
Cc1cc(N2CCN(c3ccccn3)CC2)nc(-c2cc(Br)ccc2C)n1 (nonaromatic ring conformer: 63.03780528997238 kcal/mol)

>  <smiles>  (24) 
Cc1cc(N2CCN(c3ccccn3)CC2)nc(-c2cc(Br)ccc2C)n1

>  <score_type>  (24) 
oracle

>  <origin>  (24) 
adg

>  <m_score__min__energy>  (24) 
-8.6600000000000001

>  <m_primary>  (24) 
energy

$$$$
24:0
     RDKit          3D

 61 65  0  0  0  0  0  0  0  0999 V2000
   56.6960   30.3330   42.9790 C   0  0  0  0  0  0  0  0  0  0  0  0
   55.6430   29.7140   43.8960 C   0  0  0  0  0  0  0  0  0  0  0  0
   56.2200   29.3060   45.1860 N   0  0  0  0  0  0  0  0  0  0  0  0
   57.6940   29.3310   45.1910 C   0  0  0  0  0  0  0  0  0  0  0  0
   58.2120   30.5460   45.9700 C   0  0  0  0  0  0  0  0  0  0  0  0
   57.3350   31.6540   45.8750 O   0  0  0  0  0  0  0  0  0  0  0  0
   57.8720   32.6910   45.0720 C   0  0  0  0  0  0  0  0  0  0  0  0
   58.9740   33.4280   45.8430 C   0  0  0  0  0  0  0  0  0  0  0  0
   58.7880   33.3300   47.2970 N   0  0  0  0  0  0  0  0  0  0  0  0
   59.8370   32.9240   48.1910 C   0  0  0  0  0  0  0  0  0  0  0  0
   59.5050   32.2680   49.3720 C   0  0  0  0  0  0  0  0  0  0  0  0
   60.4740   31.6590   50.1380 C   0  0  0  0  0  0  0  0  0  0  0  0
   61.8120   31.8220   49.8930 N   0  0  0  0  0  0  0  0  0  0  0  0
   62.8020   31.4350   50.9120 C   0  0  0  0  0  0  0  0  0  0  0  0
   62.1940   32.4510   48.7180 C   0  0  0  0  0  0  0  0  0  0  0  0
   63.5490   32.5100   48.3170 C   0  0  0  0  0  0  0  0  0  0  0  0
   63.9260   33.1970   47.1630 C   0  0  0  0  0  0  0  0  0  0  0  0
   62.9690   33.8430   46.3860 C   0  0  0  0  0  0  0  0  0  0  0  0
   61.6220   33.7730   46.7320 C   0  0  0  0  0  0  0  0  0  0  0  0
   61.2080   33.0460   47.8640 C   0  0  0  0  0  0  0  0  0  0  0  0
   59.7600   30.8500   51.1300 C   0  0  0  0  0  0  0  0  0  0  0  0
   60.2470   29.8380   51.9000 N   0  0  0  0  0  0  0  0  0  0  0  0
   59.3900   29.1010   52.6680 C   0  0  0  0  0  0  0  0  0  0  0  0
   59.8800   28.0790   53.4950 C   0  0  0  0  0  0  0  0  0  0  0  0
   59.0020   27.3210   54.2740 C   0  0  0  0  0  0  0  0  0  0  0  0
   57.6270   27.5690   54.2300 C   0  0  0  0  0  0  0  0  0  0  0  0
   57.1210   28.5760   53.4050 C   0  0  0  0  0  0  0  0  0  0  0  0
   57.9930   29.3480   52.6170 C   0  0  0  0  0  0  0  0  0  0  0  0
   57.5250   30.3440   51.7400 C   0  0  0  0  0  0  0  0  0  0  0  0
   56.2910   30.5680   51.6090 O   0  0  0  0  0  0  0  0  0  0  0  0
   58.4290   31.0500   51.0130 N   0  0  0  0  0  0  0  0  0  0  0  0
   58.1380   31.9770   49.9220 C   0  0  0  0  0  0  0  0  0  0  0  0
   57.4856   30.7971   43.5882 H   0  0  0  0  0  0  0  0  0  0  0  0
   57.1356   29.5496   42.3442 H   0  0  0  0  0  0  0  0  0  0  0  0
   56.2252   31.0981   42.3442 H   0  0  0  0  0  0  0  0  0  0  0  0
   54.8492   30.4534   44.0780 H   0  0  0  0  0  0  0  0  0  0  0  0
   55.2399   28.8182   43.4010 H   0  0  0  0  0  0  0  0  0  0  0  0
   55.8850   29.9920   45.9050 H   0  0  0  0  0  0  0  0  0  0  0  0
   58.0693   28.4117   45.6643 H   0  0  0  0  0  0  0  0  0  0  0  0
   58.0504   29.3981   44.1525 H   0  0  0  0  0  0  0  0  0  0  0  0
   58.3195   30.2687   47.0290 H   0  0  0  0  0  0  0  0  0  0  0  0
   59.1780   30.8407   45.5342 H   0  0  0  0  0  0  0  0  0  0  0  0
   58.2955   32.2592   44.1532 H   0  0  0  0  0  0  0  0  0  0  0  0
   57.0726   33.4011   44.8138 H   0  0  0  0  0  0  0  0  0  0  0  0
   59.9471   32.9882   45.5790 H   0  0  0  0  0  0  0  0  0  0  0  0
   58.9297   34.4915   45.5657 H   0  0  0  0  0  0  0  0  0  0  0  0
   57.8060   33.2880   47.6520 H   0  0  0  0  0  0  0  0  0  0  0  0
   62.3801   31.5999   51.9144 H   0  0  0  0  0  0  0  0  0  0  0  0
   63.0557   30.3715   50.7914 H   0  0  0  0  0  0  0  0  0  0  0  0
   63.7097   32.0445   50.7914 H   0  0  0  0  0  0  0  0  0  0  0  0
   64.3164   32.0070   48.9237 H   0  0  0  0  0  0  0  0  0  0  0  0
   64.9846   33.2283   46.8657 H   0  0  0  0  0  0  0  0  0  0  0  0
   63.2776   34.4107   45.4958 H   0  0  0  0  0  0  0  0  0  0  0  0
   60.8737   34.2912   46.1143 H   0  0  0  0  0  0  0  0  0  0  0  0
   61.2550   29.5790   51.8760 H   0  0  0  0  0  0  0  0  0  0  0  0
   60.9601   27.8736   53.5303 H   0  0  0  0  0  0  0  0  0  0  0  0
   59.3945   26.5257   54.9247 H   0  0  0  0  0  0  0  0  0  0  0  0
   56.9416   26.9693   54.8469 H   0  0  0  0  0  0  0  0  0  0  0  0
   56.0380   28.7656   53.3716 H   0  0  0  0  0  0  0  0  0  0  0  0
   57.4951   31.5083   49.1625 H   0  0  0  0  0  0  0  0  0  0  0  0
   57.5932   32.8769   50.2437 H   0  0  0  0  0  0  0  0  0  0  0  0
  1  2  1  0
  2  3  1  0
  3  4  1  0
  4  5  1  0
  5  6  1  0
  6  7  1  0
  7  8  1  0
  8  9  1  0
  9 10  1  0
 10 11  2  0
 11 12  1  0
 12 13  2  0
 13 14  1  0
 13 15  1  0
 15 16  2  0
 16 17  1  0
 17 18  2  0
 18 19  1  0
 19 20  2  0
 12 21  1  0
 21 22  2  0
 22 23  1  0
 23 24  2  0
 24 25  1  0
 25 26  2  0
 26 27  1  0
 27 28  2  0
 28 29  1  0
 29 30  2  0
 29 31  1  0
 31 32  1  0
 20 10  1  0
 31 21  1  0
 32 11  1  0
 20 15  1  0
 28 23  1  0
  1 33  1  0
  1 34  1  0
  1 35  1  0
  2 36  1  0
  2 37  1  0
  3 38  1  0
  4 39  1  0
  4 40  1  0
  5 41  1  0
  5 42  1  0
  7 43  1  0
  7 44  1  0
  8 45  1  0
  8 46  1  0
  9 47  1  0
 14 48  1  0
 14 49  1  0
 14 50  1  0
 16 51  1  0
 17 52  1  0
 18 53  1  0
 19 54  1  0
 22 55  1  0
 24 56  1  0
 25 57  1  0
 26 58  1  0
 27 59  1  0
 32 60  1  0
 32 61  1  0
M  CHG  2  13   1  22   1
M  END
>  <UniqueID>  (25) 
25

>  <SMILES>  (25) 
CCNCCOCCNc1c2c([n+](C)c3ccccc13)-c1[nH+]c3ccccc3c(=O)n1C2

>  <Energy>  (25) 
112.51195118851403

>  <Genealogy>  (25) 
CCNCCOCCNc1c2c([n+](C)c3ccccc13)-c1[nH+]c3ccccc3c(=O)n1C2 (protonated)
CCNCCOCCNc1c2c([n+](C)c3ccccc13)-c1[nH+]c3ccccc3c(=O)n1C2 (3D coordinates assigned)
CCNCCOCCNc1c2c([n+](C)c3ccccc13)-c1[nH+]c3ccccc3c(=O)n1C2 (nonaromatic ring conformer: 112.51195118851403 kcal/mol)

>  <smiles>  (25) 
CCNCCOCCNc1c2c([n+](C)c3ccccc13)-c1nc3ccccc3c(=O)n1C2

>  <score_type>  (25) 
oracle

>  <origin>  (25) 
adg

>  <m_score__min__energy>  (25) 
-5.5800000000000001

>  <m_primary>  (25) 
energy

$$$$
25:0
     RDKit          3D

 79 82  0  0  0  0  0  0  0  0999 V2000
   63.4360   32.7550   47.4940 C   0  0  0  0  0  0  0  0  0  0  0  0
   63.7310   32.1080   48.8490 C   0  0  0  0  0  0  0  0  0  0  0  0
   62.4840   31.6840   49.5100 N   0  0  0  0  0  0  0  0  0  0  0  0
   62.7440   31.1660   50.8620 C   0  0  0  0  0  0  0  0  0  0  0  0
   62.4070   29.6700   50.9190 C   0  0  0  0  0  0  0  0  0  0  0  0
   60.9230   29.4040   51.2190 C   0  0  0  0  0  0  0  0  0  0  0  0
   60.0650   29.2780   49.9400 C   0  0  0  0  0  0  0  0  0  0  0  0
   60.6020   30.0960   48.8250 N   0  0  0  0  0  0  0  0  0  0  0  0
   59.7530   30.0020   47.6440 C   0  0  0  0  0  0  0  0  0  0  0  0
   59.6290   28.7460   46.9750 C   0  0  0  0  0  0  0  0  0  0  0  0
   60.3700   27.6040   47.3800 C   0  0  0  0  0  0  0  0  0  0  0  0
   60.2410   26.3850   46.7260 C   0  0  0  0  0  0  0  0  0  0  0  0
   59.4080   26.2740   45.6220 C   0  0  0  0  0  0  0  0  0  0  0  0
   58.6730   27.3720   45.1920 C   0  0  0  0  0  0  0  0  0  0  0  0
   58.7460   28.6170   45.8710 C   0  0  0  0  0  0  0  0  0  0  0  0
   57.9920   29.6920   45.4620 N   0  0  0  0  0  0  0  0  0  0  0  0
   56.8420   29.4710   44.5500 C   0  0  0  0  0  0  0  0  0  0  0  0
   58.2940   30.9640   45.9060 C   0  0  0  0  0  0  0  0  0  0  0  0
   57.7870   32.0900   45.2160 C   0  0  0  0  0  0  0  0  0  0  0  0
   57.9930   33.3850   45.6790 C   0  0  0  0  0  0  0  0  0  0  0  0
   57.4640   34.5660   44.9140 C   0  0  0  0  0  0  0  0  0  0  0  0
   58.7310   33.5850   46.8310 C   0  0  0  0  0  0  0  0  0  0  0  0
   59.2860   32.5080   47.5420 C   0  0  0  0  0  0  0  0  0  0  0  0
   59.9740   32.7920   48.7300 O   0  0  0  0  0  0  0  0  0  0  0  0
   59.6590   33.8580   49.6270 C   0  0  0  0  0  0  0  0  0  0  0  0
   60.1160   33.4730   51.0510 C   0  0  0  0  0  0  0  0  0  0  0  0
   59.0190   33.1930   52.0330 N   0  0  0  0  0  0  0  0  0  0  0  0
   58.6090   34.4590   52.7000 C   0  0  0  0  0  0  0  0  0  0  0  0
   59.4890   32.2110   53.0700 C   0  0  0  0  0  0  0  0  0  0  0  0
   58.3460   31.3660   53.6600 C   0  0  0  0  0  0  0  0  0  0  0  0
   57.6730   30.5160   52.5680 C   0  0  0  0  0  0  0  0  0  0  0  0
   57.8040   31.1400   51.1690 C   0  0  0  0  0  0  0  0  0  0  0  0
   57.8310   32.6740   51.2640 C   0  0  0  0  0  0  0  0  0  0  0  0
   59.1310   31.1620   47.0530 C   0  0  0  0  0  0  0  0  0  0  0  0
   62.9843   33.7456   47.6512 H   0  0  0  0  0  0  0  0  0  0  0  0
   64.3730   32.8649   46.9284 H   0  0  0  0  0  0  0  0  0  0  0  0
   62.7386   32.1196   46.9284 H   0  0  0  0  0  0  0  0  0  0  0  0
   64.3748   31.2293   48.6963 H   0  0  0  0  0  0  0  0  0  0  0  0
   64.2356   32.8464   49.4894 H   0  0  0  0  0  0  0  0  0  0  0  0
   61.8790   32.5340   49.6120 H   0  0  0  0  0  0  0  0  0  0  0  0
   63.8057   31.3109   51.1107 H   0  0  0  0  0  0  0  0  0  0  0  0
   62.1167   31.7075   51.5853 H   0  0  0  0  0  0  0  0  0  0  0  0
   62.6560   29.2166   49.9482 H   0  0  0  0  0  0  0  0  0  0  0  0
   62.9943   29.2295   51.7382 H   0  0  0  0  0  0  0  0  0  0  0  0
   60.8426   28.4670   51.7895 H   0  0  0  0  0  0  0  0  0  0  0  0
   60.5418   30.2640   51.7892 H   0  0  0  0  0  0  0  0  0  0  0  0
   60.0453   28.2232   49.6286 H   0  0  0  0  0  0  0  0  0  0  0  0
   59.0542   29.6444   50.1727 H   0  0  0  0  0  0  0  0  0  0  0  0
   61.5990   29.9130   48.6090 H   0  0  0  0  0  0  0  0  0  0  0  0
   60.6840   31.0870   49.1360 H   0  0  0  0  0  0  0  0  0  0  0  0
   61.0620   27.6866   48.2311 H   0  0  0  0  0  0  0  0  0  0  0  0
   60.7996   25.5075   47.0837 H   0  0  0  0  0  0  0  0  0  0  0  0
   59.3294   25.3162   45.0868 H   0  0  0  0  0  0  0  0  0  0  0  0
   58.0230   27.2751   44.3099 H   0  0  0  0  0  0  0  0  0  0  0  0
   55.9321   29.2961   45.1429 H   0  0  0  0  0  0  0  0  0  0  0  0
   56.7013   30.3585   43.9156 H   0  0  0  0  0  0  0  0  0  0  0  0
   57.0403   28.5945   43.9156 H   0  0  0  0  0  0  0  0  0  0  0  0
   57.2149   31.9372   44.2890 H   0  0  0  0  0  0  0  0  0  0  0  0
   57.1192   35.3357   45.6202 H   0  0  0  0  0  0  0  0  0  0  0  0
   58.2625   34.9804   44.2810 H   0  0  0  0  0  0  0  0  0  0  0  0
   56.6232   34.2461   44.2810 H   0  0  0  0  0  0  0  0  0  0  0  0
   58.8870   34.6099   47.1988 H   0  0  0  0  0  0  0  0  0  0  0  0
   60.1792   34.7733   49.3082 H   0  0  0  0  0  0  0  0  0  0  0  0
   58.5737   34.0374   49.6223 H   0  0  0  0  0  0  0  0  0  0  0  0
   60.7385   32.5695   50.9733 H   0  0  0  0  0  0  0  0  0  0  0  0
   60.6506   34.3514   51.4417 H   0  0  0  0  0  0  0  0  0  0  0  0
   58.6512   34.3287   53.7914 H   0  0  0  0  0  0  0  0  0  0  0  0
   59.2909   35.2686   52.4007 H   0  0  0  0  0  0  0  0  0  0  0  0
   57.5820   34.7152   52.4007 H   0  0  0  0  0  0  0  0  0  0  0  0
   60.2214   31.5344   52.6055 H   0  0  0  0  0  0  0  0  0  0  0  0
   59.9300   32.7897   53.8950 H   0  0  0  0  0  0  0  0  0  0  0  0
   58.7532   30.7002   54.4352 H   0  0  0  0  0  0  0  0  0  0  0  0
   57.5945   32.0432   54.0920 H   0  0  0  0  0  0  0  0  0  0  0  0
   58.1431   29.5216   52.5557 H   0  0  0  0  0  0  0  0  0  0  0  0
   56.6009   30.4548   52.8066 H   0  0  0  0  0  0  0  0  0  0  0  0
   58.7365   30.7898   50.7023 H   0  0  0  0  0  0  0  0  0  0  0  0
   56.9386   30.8364   50.5616 H   0  0  0  0  0  0  0  0  0  0  0  0
   57.8639   33.0883   50.2455 H   0  0  0  0  0  0  0  0  0  0  0  0
   56.9255   32.9874   51.8042 H   0  0  0  0  0  0  0  0  0  0  0  0
  1  2  1  0
  2  3  1  0
  3  4  1  0
  4  5  1  0
  5  6  1  0
  6  7  1  0
  7  8  1  0
  8  9  1  0
  9 10  2  0
 10 11  1  0
 11 12  2  0
 12 13  1  0
 13 14  2  0
 14 15  1  0
 15 16  2  0
 16 17  1  0
 16 18  1  0
 18 19  2  0
 19 20  1  0
 20 21  1  0
 20 22  2  0
 22 23  1  0
 23 24  1  0
 24 25  1  0
 25 26  1  0
 26 27  1  0
 27 28  1  0
 27 29  1  0
 29 30  1  0
 30 31  1  0
 31 32  1  0
 32 33  1  0
 23 34  2  0
 34  9  1  0
 15 10  1  0
 34 18  1  0
 33 27  1  0
  1 35  1  0
  1 36  1  0
  1 37  1  0
  2 38  1  0
  2 39  1  0
  3 40  1  0
  4 41  1  0
  4 42  1  0
  5 43  1  0
  5 44  1  0
  6 45  1  0
  6 46  1  0
  7 47  1  0
  7 48  1  0
  8 49  1  0
  8 50  1  0
 11 51  1  0
 12 52  1  0
 13 53  1  0
 14 54  1  0
 17 55  1  0
 17 56  1  0
 17 57  1  0
 19 58  1  0
 21 59  1  0
 21 60  1  0
 21 61  1  0
 22 62  1  0
 25 63  1  0
 25 64  1  0
 26 65  1  0
 26 66  1  0
 28 67  1  0
 28 68  1  0
 28 69  1  0
 29 70  1  0
 29 71  1  0
 30 72  1  0
 30 73  1  0
 31 74  1  0
 31 75  1  0
 32 76  1  0
 32 77  1  0
 33 78  1  0
 33 79  1  0
M  CHG  3   8   1  16   1  27   1
M  END
>  <UniqueID>  (26) 
26

>  <SMILES>  (26) 
CCNCCCC[NH2+]c1c2ccccc2[n+](C)c2cc(C)cc(OCC[N+]3(C)CCCCC3)c12

>  <Energy>  (26) 
126.3579089290251

>  <Genealogy>  (26) 
CCNCCCC[NH2+]c1c2ccccc2[n+](C)c2cc(C)cc(OCC[N+]3(C)CCCCC3)c12 (protonated)
CCNCCCC[NH2+]c1c2ccccc2[n+](C)c2cc(C)cc(OCC[N+]3(C)CCCCC3)c12 (3D coordinates assigned)
CCNCCCC[NH2+]c1c2ccccc2[n+](C)c2cc(C)cc(OCC[N+]3(C)CCCCC3)c12 (nonaromatic ring conformer: 126.3579089290251 kcal/mol)

>  <smiles>  (26) 
CCNCCCCNc1c2ccccc2[n+](C)c2cc(C)cc(OCC[N+]3(C)CCCCC3)c12

>  <score_type>  (26) 
oracle

>  <origin>  (26) 
adg

>  <m_score__min__energy>  (26) 
-4.1699999999999999

>  <m_primary>  (26) 
energy

$$$$
26:0
     RDKit          3D

 80 83  0  0  0  0  0  0  0  0999 V2000
   57.8770   31.6370   43.1100 C   0  0  0  0  0  0  0  0  0  0  0  0
   56.6500   30.8630   43.5640 C   0  0  0  0  0  0  0  0  0  0  0  0
   56.8650   30.3870   44.8760 O   0  0  0  0  0  0  0  0  0  0  0  0
   56.5980   29.0030   44.9260 C   0  0  0  0  0  0  0  0  0  0  0  0
   57.6670   28.2620   44.1220 C   0  0  0  0  0  0  0  0  0  0  0  0
   58.0690   26.9470   44.8120 C   0  0  0  0  0  0  0  0  0  0  0  0
   59.4720   26.9550   45.2610 N   0  0  0  0  0  0  0  0  0  0  0  0
   59.6940   27.7390   46.4910 C   0  0  0  0  0  0  0  0  0  0  0  0
   59.8040   29.2530   46.1920 C   0  0  0  0  0  0  0  0  0  0  0  0
   58.8920   30.0670   47.0320 N   0  0  0  0  0  0  0  0  0  0  0  0
   59.5770   31.2340   47.5700 C   0  0  0  0  0  0  0  0  0  0  0  0
   59.4710   32.4840   46.9200 C   0  0  0  0  0  0  0  0  0  0  0  0
   58.3350   32.8200   46.1530 C   0  0  0  0  0  0  0  0  0  0  0  0
   58.2400   34.0610   45.5270 C   0  0  0  0  0  0  0  0  0  0  0  0
   59.2650   34.9910   45.6620 C   0  0  0  0  0  0  0  0  0  0  0  0
   60.4000   34.6780   46.4090 C   0  0  0  0  0  0  0  0  0  0  0  0
   60.5400   33.4100   47.0280 C   0  0  0  0  0  0  0  0  0  0  0  0
   61.6880   33.0550   47.7070 N   0  0  0  0  0  0  0  0  0  0  0  0
   62.9370   33.8220   47.5040 C   0  0  0  0  0  0  0  0  0  0  0  0
   61.6570   31.9900   48.5870 C   0  0  0  0  0  0  0  0  0  0  0  0
   62.7060   31.7700   49.5120 C   0  0  0  0  0  0  0  0  0  0  0  0
   62.6540   30.7150   50.4140 C   0  0  0  0  0  0  0  0  0  0  0  0
   61.5230   29.9160   50.4930 C   0  0  0  0  0  0  0  0  0  0  0  0
   60.4220   30.1480   49.6480 C   0  0  0  0  0  0  0  0  0  0  0  0
   59.1850   29.5170   49.9030 O   0  0  0  0  0  0  0  0  0  0  0  0
   58.1530   30.0820   50.7160 C   0  0  0  0  0  0  0  0  0  0  0  0
   58.5060   30.1520   52.2280 C   0  0  0  0  0  0  0  0  0  0  0  0
   58.6460   31.5170   52.8460 N   0  0  0  0  0  0  0  0  0  0  0  0
   57.8440   31.5440   54.1060 C   0  0  0  0  0  0  0  0  0  0  0  0
   58.0690   32.5010   51.8820 C   0  0  0  0  0  0  0  0  0  0  0  0
   58.0570   33.9490   52.4200 C   0  0  0  0  0  0  0  0  0  0  0  0
   59.3040   34.2990   53.2460 C   0  0  0  0  0  0  0  0  0  0  0  0
   60.4630   33.3490   52.9650 C   0  0  0  0  0  0  0  0  0  0  0  0
   60.0860   31.8510   53.1050 C   0  0  0  0  0  0  0  0  0  0  0  0
   60.5450   31.1010   48.5960 C   0  0  0  0  0  0  0  0  0  0  0  0
   58.4349   31.9889   43.9902 H   0  0  0  0  0  0  0  0  0  0  0  0
   58.5212   30.9814   42.5056 H   0  0  0  0  0  0  0  0  0  0  0  0
   57.5628   32.5007   42.5056 H   0  0  0  0  0  0  0  0  0  0  0  0
   55.7713   31.5246   43.5513 H   0  0  0  0  0  0  0  0  0  0  0  0
   56.4740   30.0151   42.8857 H   0  0  0  0  0  0  0  0  0  0  0  0
   56.6188   28.6606   45.9712 H   0  0  0  0  0  0  0  0  0  0  0  0
   55.6043   28.7999   44.5001 H   0  0  0  0  0  0  0  0  0  0  0  0
   57.2708   28.0357   43.1211 H   0  0  0  0  0  0  0  0  0  0  0  0
   58.5571   28.9044   44.0502 H   0  0  0  0  0  0  0  0  0  0  0  0
   57.4191   26.7936   45.6861 H   0  0  0  0  0  0  0  0  0  0  0  0
   57.9560   26.1350   44.0786 H   0  0  0  0  0  0  0  0  0  0  0  0
   60.0760   27.3480   44.5020 H   0  0  0  0  0  0  0  0  0  0  0  0
   58.8511   27.5715   47.1776 H   0  0  0  0  0  0  0  0  0  0  0  0
   60.6413   27.4087   46.9421 H   0  0  0  0  0  0  0  0  0  0  0  0
   60.8387   29.5753   46.3806 H   0  0  0  0  0  0  0  0  0  0  0  0
   59.5167   29.4073   45.1415 H   0  0  0  0  0  0  0  0  0  0  0  0
   58.5380   29.4670   47.8030 H   0  0  0  0  0  0  0  0  0  0  0  0
   58.0650   30.3630   46.4690 H   0  0  0  0  0  0  0  0  0  0  0  0
   57.5154   32.0939   46.0483 H   0  0  0  0  0  0  0  0  0  0  0  0
   57.3526   34.3056   44.9248 H   0  0  0  0  0  0  0  0  0  0  0  0
   59.1802   35.9754   45.1786 H   0  0  0  0  0  0  0  0  0  0  0  0
   61.1989   35.4260   46.5198 H   0  0  0  0  0  0  0  0  0  0  0  0
   63.3677   34.0865   48.4810 H   0  0  0  0  0  0  0  0  0  0  0  0
   63.6559   33.2095   46.9401 H   0  0  0  0  0  0  0  0  0  0  0  0
   62.7159   34.7402   46.9401 H   0  0  0  0  0  0  0  0  0  0  0  0
   63.5750   32.4445   49.5164 H   0  0  0  0  0  0  0  0  0  0  0  0
   63.5141   30.5121   51.0690 H   0  0  0  0  0  0  0  0  0  0  0  0
   61.4864   29.0937   51.2227 H   0  0  0  0  0  0  0  0  0  0  0  0
   57.9525   31.1033   50.3600 H   0  0  0  0  0  0  0  0  0  0  0  0
   57.2781   29.4217   50.6238 H   0  0  0  0  0  0  0  0  0  0  0  0
   57.7135   29.6217   52.7763 H   0  0  0  0  0  0  0  0  0  0  0  0
   59.5088   29.7062   52.3027 H   0  0  0  0  0  0  0  0  0  0  0  0
   58.5214   31.5212   54.9724 H   0  0  0  0  0  0  0  0  0  0  0  0
   57.2402   32.4630   54.1367 H   0  0  0  0  0  0  0  0  0  0  0  0
   57.1798   30.6677   54.1367 H   0  0  0  0  0  0  0  0  0  0  0  0
   58.6664   32.4766   50.9587 H   0  0  0  0  0  0  0  0  0  0  0  0
   57.0228   32.2100   51.7068 H   0  0  0  0  0  0  0  0  0  0  0  0
   57.9991   34.6389   51.5652 H   0  0  0  0  0  0  0  0  0  0  0  0
   57.1870   34.0424   53.0866 H   0  0  0  0  0  0  0  0  0  0  0  0
   59.6174   35.3239   52.9983 H   0  0  0  0  0  0  0  0  0  0  0  0
   59.0418   34.2082   54.3104 H   0  0  0  0  0  0  0  0  0  0  0  0
   60.8152   33.5244   51.9378 H   0  0  0  0  0  0  0  0  0  0  0  0
   61.2401   33.5575   53.7151 H   0  0  0  0  0  0  0  0  0  0  0  0
   60.6992   31.2798   52.3924 H   0  0  0  0  0  0  0  0  0  0  0  0
   60.2699   31.5919   54.1581 H   0  0  0  0  0  0  0  0  0  0  0  0
  1  2  1  0
  2  3  1  0
  3  4  1  0
  4  5  1  0
  5  6  1  0
  6  7  1  0
  7  8  1  0
  8  9  1  0
  9 10  1  0
 10 11  1  0
 11 12  2  0
 12 13  1  0
 13 14  2  0
 14 15  1  0
 15 16  2  0
 16 17  1  0
 17 18  2  0
 18 19  1  0
 18 20  1  0
 20 21  2  0
 21 22  1  0
 22 23  2  0
 23 24  1  0
 24 25  1  0
 25 26  1  0
 26 27  1  0
 27 28  1  0
 28 29  1  0
 28 30  1  0
 30 31  1  0
 31 32  1  0
 32 33  1  0
 33 34  1  0
 24 35  2  0
 35 11  1  0
 17 12  1  0
 35 20  1  0
 34 28  1  0
  1 36  1  0
  1 37  1  0
  1 38  1  0
  2 39  1  0
  2 40  1  0
  4 41  1  0
  4 42  1  0
  5 43  1  0
  5 44  1  0
  6 45  1  0
  6 46  1  0
  7 47  1  0
  8 48  1  0
  8 49  1  0
  9 50  1  0
  9 51  1  0
 10 52  1  0
 10 53  1  0
 13 54  1  0
 14 55  1  0
 15 56  1  0
 16 57  1  0
 19 58  1  0
 19 59  1  0
 19 60  1  0
 21 61  1  0
 22 62  1  0
 23 63  1  0
 26 64  1  0
 26 65  1  0
 27 66  1  0
 27 67  1  0
 29 68  1  0
 29 69  1  0
 29 70  1  0
 30 71  1  0
 30 72  1  0
 31 73  1  0
 31 74  1  0
 32 75  1  0
 32 76  1  0
 33 77  1  0
 33 78  1  0
 34 79  1  0
 34 80  1  0
M  CHG  3  10   1  18   1  28   1
M  END
>  <UniqueID>  (27) 
27

>  <SMILES>  (27) 
CCOCCCNCC[NH2+]c1c2ccccc2[n+](C)c2cccc(OCC[N+]3(C)CCCCC3)c12

>  <Energy>  (27) 
133.75372356441412

>  <Genealogy>  (27) 
CCOCCCNCC[NH2+]c1c2ccccc2[n+](C)c2cccc(OCC[N+]3(C)CCCCC3)c12 (protonated)
CCOCCCNCC[NH2+]c1c2ccccc2[n+](C)c2cccc(OCC[N+]3(C)CCCCC3)c12 (3D coordinates assigned)
CCOCCCNCC[NH2+]c1c2ccccc2[n+](C)c2cccc(OCC[N+]3(C)CCCCC3)c12 (nonaromatic ring conformer: 133.75372356441412 kcal/mol)

>  <smiles>  (27) 
CCOCCCNCCNc1c2ccccc2[n+](C)c2cccc(OCC[N+]3(C)CCCCC3)c12

>  <score_type>  (27) 
oracle

>  <origin>  (27) 
adg

>  <m_score__min__energy>  (27) 
-3.5600000000000001

>  <m_primary>  (27) 
energy

$$$$
27:0
     RDKit          3D

 62 66  0  0  0  0  0  0  0  0999 V2000
   57.3910   28.7260   43.3860 C   0  0  0  0  0  0  0  0  0  0  0  0
   58.3660   27.6130   43.7830 C   0  0  0  0  0  0  0  0  0  0  0  0
   57.7640   26.2710   43.6560 N   0  0  0  0  0  0  0  0  0  0  0  0
   58.0780   25.3810   44.7920 C   0  0  0  0  0  0  0  0  0  0  0  0
   58.0600   26.1290   46.1370 C   0  0  0  0  0  0  0  0  0  0  0  0
   59.4180   26.0370   46.8370 C   0  0  0  0  0  0  0  0  0  0  0  0
   59.2880   26.4230   48.2410 N   0  0  0  0  0  0  0  0  0  0  0  0
   59.9360   27.5940   48.7580 C   0  0  0  0  0  0  0  0  0  0  0  0
   59.7160   28.8360   48.1700 C   0  0  0  0  0  0  0  0  0  0  0  0
   60.2960   29.9760   48.6810 C   0  0  0  0  0  0  0  0  0  0  0  0
   61.0170   29.9650   49.8490 N   0  0  0  0  0  0  0  0  0  0  0  0
   61.3150   31.2270   50.5470 C   0  0  0  0  0  0  0  0  0  0  0  0
   61.3730   28.7400   50.3900 C   0  0  0  0  0  0  0  0  0  0  0  0
   62.3060   28.6390   51.4500 C   0  0  0  0  0  0  0  0  0  0  0  0
   62.6250   27.3960   52.0260 C   0  0  0  0  0  0  0  0  0  0  0  0
   63.5360   27.2660   53.0860 O   0  0  0  0  0  0  0  0  0  0  0  0
   64.8480   26.7290   52.9630 C   0  0  0  0  0  0  0  0  0  0  0  0
   62.0220   26.2400   51.5340 C   0  0  0  0  0  0  0  0  0  0  0  0
   61.1300   26.3000   50.4660 C   0  0  0  0  0  0  0  0  0  0  0  0
   60.8050   27.5320   49.8710 C   0  0  0  0  0  0  0  0  0  0  0  0
   59.8530   31.0860   47.8280 C   0  0  0  0  0  0  0  0  0  0  0  0
   60.3170   32.4050   47.7640 C   0  0  0  0  0  0  0  0  0  0  0  0
   59.7630   33.2650   46.8020 C   0  0  0  0  0  0  0  0  0  0  0  0
   60.1740   34.6060   46.7280 C   0  0  0  0  0  0  0  0  0  0  0  0
   59.6210   35.4590   45.7690 C   0  0  0  0  0  0  0  0  0  0  0  0
   58.6600   34.9830   44.8740 C   0  0  0  0  0  0  0  0  0  0  0  0
   58.2460   33.6490   44.9270 C   0  0  0  0  0  0  0  0  0  0  0  0
   58.7910   32.7760   45.8880 C   0  0  0  0  0  0  0  0  0  0  0  0
   58.4190   31.4180   45.9510 C   0  0  0  0  0  0  0  0  0  0  0  0
   57.5920   30.9340   45.1290 O   0  0  0  0  0  0  0  0  0  0  0  0
   58.9730   30.6240   46.9080 N   0  0  0  0  0  0  0  0  0  0  0  0
   58.7940   29.1790   47.0370 C   0  0  0  0  0  0  0  0  0  0  0  0
   56.9806   29.1945   44.2926 H   0  0  0  0  0  0  0  0  0  0  0  0
   57.9218   29.4831   42.7902 H   0  0  0  0  0  0  0  0  0  0  0  0
   56.5706   28.2995   42.7902 H   0  0  0  0  0  0  0  0  0  0  0  0
   59.2501   27.6676   43.1308 H   0  0  0  0  0  0  0  0  0  0  0  0
   58.6366   27.7626   44.8387 H   0  0  0  0  0  0  0  0  0  0  0  0
   58.0960   25.8200   42.7710 H   0  0  0  0  0  0  0  0  0  0  0  0
   56.7250   26.3730   43.5670 H   0  0  0  0  0  0  0  0  0  0  0  0
   57.3325   24.5728   44.8258 H   0  0  0  0  0  0  0  0  0  0  0  0
   59.0921   24.9831   44.6397 H   0  0  0  0  0  0  0  0  0  0  0  0
   57.8199   27.1872   45.9564 H   0  0  0  0  0  0  0  0  0  0  0  0
   57.3011   25.6654   46.7844 H   0  0  0  0  0  0  0  0  0  0  0  0
   59.7887   25.0031   46.7770 H   0  0  0  0  0  0  0  0  0  0  0  0
   60.1250   26.7181   46.3409 H   0  0  0  0  0  0  0  0  0  0  0  0
   58.9610   25.6970   48.9180 H   0  0  0  0  0  0  0  0  0  0  0  0
   61.2762   31.0628   51.6340 H   0  0  0  0  0  0  0  0  0  0  0  0
   62.3198   31.5740   50.2642 H   0  0  0  0  0  0  0  0  0  0  0  0
   60.5716   31.9868   50.2642 H   0  0  0  0  0  0  0  0  0  0  0  0
   62.7908   29.5501   51.8305 H   0  0  0  0  0  0  0  0  0  0  0  0
   65.2690   26.5567   53.9645 H   0  0  0  0  0  0  0  0  0  0  0  0
   64.8044   25.7764   52.4147 H   0  0  0  0  0  0  0  0  0  0  0  0
   65.4848   27.4388   52.4147 H   0  0  0  0  0  0  0  0  0  0  0  0
   62.2533   25.2683   51.9947 H   0  0  0  0  0  0  0  0  0  0  0  0
   60.6751   25.3742   50.0840 H   0  0  0  0  0  0  0  0  0  0  0  0
   61.0983   32.7601   48.4521 H   0  0  0  0  0  0  0  0  0  0  0  0
   60.9335   34.9860   47.4271 H   0  0  0  0  0  0  0  0  0  0  0  0
   59.9438   36.5094   45.7188 H   0  0  0  0  0  0  0  0  0  0  0  0
   58.2270   35.6612   44.1239 H   0  0  0  0  0  0  0  0  0  0  0  0
   57.4922   33.2801   44.2159 H   0  0  0  0  0  0  0  0  0  0  0  0
   57.7516   28.9282   47.2832 H   0  0  0  0  0  0  0  0  0  0  0  0
   59.0129   28.6262   46.1115 H   0  0  0  0  0  0  0  0  0  0  0  0
  1  2  1  0
  2  3  1  0
  3  4  1  0
  4  5  1  0
  5  6  1  0
  6  7  1  0
  7  8  1  0
  8  9  2  0
  9 10  1  0
 10 11  2  0
 11 12  1  0
 11 13  1  0
 13 14  2  0
 14 15  1  0
 15 16  1  0
 16 17  1  0
 15 18  2  0
 18 19  1  0
 19 20  2  0
 10 21  1  0
 21 22  2  0
 22 23  1  0
 23 24  2  0
 24 25  1  0
 25 26  2  0
 26 27  1  0
 27 28  2  0
 28 29  1  0
 29 30  2  0
 29 31  1  0
 31 32  1  0
 20  8  1  0
 31 21  1  0
 32  9  1  0
 20 13  1  0
 28 23  1  0
  1 33  1  0
  1 34  1  0
  1 35  1  0
  2 36  1  0
  2 37  1  0
  3 38  1  0
  3 39  1  0
  4 40  1  0
  4 41  1  0
  5 42  1  0
  5 43  1  0
  6 44  1  0
  6 45  1  0
  7 46  1  0
 12 47  1  0
 12 48  1  0
 12 49  1  0
 14 50  1  0
 17 51  1  0
 17 52  1  0
 17 53  1  0
 18 54  1  0
 19 55  1  0
 22 56  1  0
 24 57  1  0
 25 58  1  0
 26 59  1  0
 27 60  1  0
 32 61  1  0
 32 62  1  0
M  CHG  2   3   1  11   1
M  END
>  <UniqueID>  (28) 
28

>  <SMILES>  (28) 
CC[NH2+]CCCNc1c2c([n+](C)c3cc(OC)ccc13)-c1cc3ccccc3c(=O)n1C2

>  <Energy>  (28) 
111.9830662796645

>  <Genealogy>  (28) 
CC[NH2+]CCCNc1c2c([n+](C)c3cc(OC)ccc13)-c1cc3ccccc3c(=O)n1C2 (protonated)
CC[NH2+]CCCNc1c2c([n+](C)c3cc(OC)ccc13)-c1cc3ccccc3c(=O)n1C2 (3D coordinates assigned)
CC[NH2+]CCCNc1c2c([n+](C)c3cc(OC)ccc13)-c1cc3ccccc3c(=O)n1C2 (nonaromatic ring conformer: 111.9830662796645 kcal/mol)

>  <smiles>  (28) 
CCNCCCNc1c2c([n+](C)c3cc(OC)ccc13)-c1cc3ccccc3c(=O)n1C2

>  <score_type>  (28) 
oracle

>  <origin>  (28) 
adg

>  <m_score__min__energy>  (28) 
-5.71

>  <m_primary>  (28) 
energy

$$$$
28:0
     RDKit          3D

 58 60  0  0  0  0  0  0  0  0999 V2000
   57.0190   28.3230   45.6080 C   0  0  0  0  0  0  0  0  0  0  0  0
   56.2900   29.4570   45.1440 O   0  0  0  0  0  0  0  0  0  0  0  0
   56.7760   30.4010   44.2250 C   0  0  0  0  0  0  0  0  0  0  0  0
   56.5880   30.2500   42.8360 C   0  0  0  0  0  0  0  0  0  0  0  0
   57.0670   31.2150   41.9490 C   0  0  0  0  0  0  0  0  0  0  0  0
   57.7220   32.3490   42.4340 C   0  0  0  0  0  0  0  0  0  0  0  0
   57.9110   32.5120   43.8080 C   0  0  0  0  0  0  0  0  0  0  0  0
   57.4620   31.5370   44.7080 C   0  0  0  0  0  0  0  0  0  0  0  0
   57.6950   31.7360   46.0770 O   0  0  0  0  0  0  0  0  0  0  0  0
   58.9170   32.1590   46.6190 C   0  0  0  0  0  0  0  0  0  0  0  0
   58.9850   33.4070   47.2460 C   0  0  0  0  0  0  0  0  0  0  0  0
   60.1730   33.8260   47.8500 C   0  0  0  0  0  0  0  0  0  0  0  0
   61.3010   32.9940   47.8510 C   0  0  0  0  0  0  0  0  0  0  0  0
   62.7800   33.4750   48.6950 S   0  0  0  0  0  0  0  0  0  0  0  0
   63.9150   33.4230   47.7130 O   0  0  0  0  0  0  0  0  0  0  0  0
   62.6440   34.9040   49.1390 O   0  0  0  0  0  0  0  0  0  0  0  0
   63.1650   32.4630   50.0850 N   0  0  1  0  0  0  0  0  0  0  0  0
   62.1800   31.3680   50.2780 C   0  0  0  0  0  0  0  0  0  0  0  0
   60.8010   31.8160   50.7280 C   0  0  0  0  0  0  0  0  0  0  0  0
   59.6760   30.9860   50.5590 C   0  0  0  0  0  0  0  0  0  0  0  0
   58.4150   31.4090   50.9860 C   0  0  0  0  0  0  0  0  0  0  0  0
   58.2640   32.6470   51.6100 C   0  0  0  0  0  0  0  0  0  0  0  0
   57.0390   33.0610   52.0130 F   0  0  0  0  0  0  0  0  0  0  0  0
   59.3820   33.4560   51.8350 C   0  0  0  0  0  0  0  0  0  0  0  0
   60.6450   33.0360   51.4100 C   0  0  0  0  0  0  0  0  0  0  0  0
   64.5640   31.9640   50.0770 C   0  0  0  0  0  0  0  0  0  0  0  0
   65.6320   33.0770   50.2680 C   0  0  0  0  0  0  0  0  0  0  0  0
   67.0170   32.4430   50.4640 C   0  0  0  0  0  0  0  0  0  0  0  0
   65.3120   33.9830   51.4710 C   0  0  0  0  0  0  0  0  0  0  0  0
   61.2600   31.7890   47.1340 C   0  0  0  0  0  0  0  0  0  0  0  0
   60.0750   31.3700   46.5280 C   0  0  0  0  0  0  0  0  0  0  0  0
   57.0240   28.3153   46.7080 H   0  0  0  0  0  0  0  0  0  0  0  0
   56.5422   27.4037   45.2370 H   0  0  0  0  0  0  0  0  0  0  0  0
   58.0532   28.3751   45.2370 H   0  0  0  0  0  0  0  0  0  0  0  0
   56.0604   29.3658   42.4489 H   0  0  0  0  0  0  0  0  0  0  0  0
   56.9284   31.0822   40.8659 H   0  0  0  0  0  0  0  0  0  0  0  0
   58.0890   33.1138   41.7338 H   0  0  0  0  0  0  0  0  0  0  0  0
   58.4163   33.4128   44.1864 H   0  0  0  0  0  0  0  0  0  0  0  0
   58.1005   34.0607   47.2637 H   0  0  0  0  0  0  0  0  0  0  0  0
   60.2235   34.8154   48.3280 H   0  0  0  0  0  0  0  0  0  0  0  0
   63.0460   33.0810   50.9180 H   0  0  0  0  0  0  0  0  0  0  0  0
   62.0704   30.8354   49.3218 H   0  0  0  0  0  0  0  0  0  0  0  0
   62.5770   30.7371   51.0870 H   0  0  0  0  0  0  0  0  0  0  0  0
   59.7909   29.9986   50.0879 H   0  0  0  0  0  0  0  0  0  0  0  0
   57.5382   30.7634   50.8295 H   0  0  0  0  0  0  0  0  0  0  0  0
   59.2672   34.4230   52.3466 H   0  0  0  0  0  0  0  0  0  0  0  0
   61.5249   33.6650   51.6106 H   0  0  0  0  0  0  0  0  0  0  0  0
   64.6756   31.2337   50.8919 H   0  0  0  0  0  0  0  0  0  0  0  0
   64.7389   31.5212   49.0853 H   0  0  0  0  0  0  0  0  0  0  0  0
   65.6241   33.7002   49.3616 H   0  0  0  0  0  0  0  0  0  0  0  0
   67.2273   32.3467   51.5394 H   0  0  0  0  0  0  0  0  0  0  0  0
   67.0340   31.4474   49.9965 H   0  0  0  0  0  0  0  0  0  0  0  0
   67.7817   33.0807   49.9965 H   0  0  0  0  0  0  0  0  0  0  0  0
   65.5057   33.4347   52.4047 H   0  0  0  0  0  0  0  0  0  0  0  0
   65.9477   34.8799   51.4339 H   0  0  0  0  0  0  0  0  0  0  0  0
   64.2540   34.2817   51.4339 H   0  0  0  0  0  0  0  0  0  0  0  0
   62.1663   31.1715   47.0491 H   0  0  0  0  0  0  0  0  0  0  0  0
   60.0479   30.4183   45.9771 H   0  0  0  0  0  0  0  0  0  0  0  0
  1  2  1  0
  2  3  1  0
  3  4  2  0
  4  5  1  0
  5  6  2  0
  6  7  1  0
  7  8  2  0
  8  9  1  0
  9 10  1  0
 10 11  2  0
 11 12  1  0
 12 13  2  0
 13 14  1  0
 14 15  2  0
 14 16  2  0
 14 17  1  0
 17 18  1  0
 18 19  1  0
 19 20  2  0
 20 21  1  0
 21 22  2  0
 22 23  1  0
 22 24  1  0
 24 25  2  0
 17 26  1  0
 26 27  1  0
 27 28  1  0
 27 29  1  0
 13 30  1  0
 30 31  2  0
  8  3  1  0
 31 10  1  0
 25 19  1  0
  1 32  1  0
  1 33  1  0
  1 34  1  0
  4 35  1  0
  5 36  1  0
  6 37  1  0
  7 38  1  0
 11 39  1  0
 12 40  1  0
 17 41  1  1
 18 42  1  0
 18 43  1  0
 20 44  1  0
 21 45  1  0
 24 46  1  0
 25 47  1  0
 26 48  1  0
 26 49  1  0
 27 50  1  0
 28 51  1  0
 28 52  1  0
 28 53  1  0
 29 54  1  0
 29 55  1  0
 29 56  1  0
 30 57  1  0
 31 58  1  0
M  CHG  1  17   1
M  END
>  <UniqueID>  (29) 
29

>  <SMILES>  (29) 
COc1ccccc1Oc1ccc(S(=O)(=O)[N@@H+](Cc2ccc(F)cc2)CC(C)C)cc1

>  <Energy>  (29) 
65.55079356758569

>  <Genealogy>  (29) 
COc1ccccc1Oc1ccc(S(=O)(=O)[NH+](Cc2ccc(F)cc2)CC(C)C)cc1 (protonated)
COc1ccccc1Oc1ccc(S(=O)(=O)[N@@H+](Cc2ccc(F)cc2)CC(C)C)cc1 (chirality)
COc1ccccc1Oc1ccc(S(=O)(=O)[N@@H+](Cc2ccc(F)cc2)CC(C)C)cc1 (3D coordinates assigned)
COc1ccccc1Oc1ccc(S(=O)(=O)[N@@H+](Cc2ccc(F)cc2)CC(C)C)cc1 (optimized conformer: 65.55079356758569 kcal/mol)

>  <smiles>  (29) 
COc1ccccc1Oc1ccc(S(=O)(=O)N(Cc2ccc(F)cc2)CC(C)C)cc1

>  <score_type>  (29) 
oracle

>  <origin>  (29) 
adg

>  <m_score__min__energy>  (29) 
-7.4199999999999999

>  <m_primary>  (29) 
energy

$$$$
