0:0
     RDKit          3D

 39 41  0  0  0  0  0  0  0  0999 V2000
   60.6890   28.2800   44.8770 C   0  0  0  0  0  0  0  0  0  0  0  0
   60.2650   27.4500   46.0910 C   0  0  0  0  0  0  0  0  0  0  0  0
   59.0560   28.0560   46.8310 C   0  0  0  0  0  0  0  0  0  0  0  0
   58.2570   29.1200   46.0930 C   0  0  0  0  0  0  0  0  0  0  0  0
   57.1190   28.7320   45.3420 C   0  0  0  0  0  0  0  0  0  0  0  0
   56.3200   29.7030   44.7270 C   0  0  0  0  0  0  0  0  0  0  0  0
   55.2910   29.3610   44.0870 O   0  0  0  0  0  0  0  0  0  0  0  0
   56.6530   31.0130   44.8120 N   0  0  0  0  0  0  0  0  0  0  0  0
   57.7700   31.3660   45.4860 C   0  0  0  0  0  0  0  0  0  0  0  0
   58.3020   32.6210   45.5750 C   0  0  0  0  0  0  0  0  0  0  0  0
   57.8840   33.8530   45.0790 C   0  0  0  0  0  0  0  0  0  0  0  0
   58.7340   34.9550   45.2770 C   0  0  0  0  0  0  0  0  0  0  0  0
   59.9730   34.7910   45.9350 C   0  0  0  0  0  0  0  0  0  0  0  0
   60.3700   33.5250   46.4080 C   0  0  0  0  0  0  0  0  0  0  0  0
   59.4920   32.4460   46.2280 C   0  0  0  0  0  0  0  0  0  0  0  0
   59.6690   31.1320   46.5430 N   0  0  0  0  0  0  0  0  0  0  0  0
   60.9190   30.6120   47.1310 C   0  0  0  0  0  0  0  0  0  0  0  0
   60.8950   30.6560   48.6730 C   0  0  0  0  0  0  0  0  0  0  0  0
   59.4970   30.5720   49.2810 C   0  0  0  0  0  0  0  0  0  0  0  0
   58.5910   30.4640   46.0830 N   0  0  0  0  0  0  0  0  0  0  0  0
   61.1648   29.2114   45.2177 H   0  0  0  0  0  0  0  0  0  0  0  0
   61.4033   27.7040   44.2704 H   0  0  0  0  0  0  0  0  0  0  0  0
   59.8036   28.5211   44.2704 H   0  0  0  0  0  0  0  0  0  0  0  0
   59.9987   26.4385   45.7505 H   0  0  0  0  0  0  0  0  0  0  0  0
   61.1109   27.4321   46.7940 H   0  0  0  0  0  0  0  0  0  0  0  0
   58.3680   27.2325   47.0727 H   0  0  0  0  0  0  0  0  0  0  0  0
   59.4842   28.5733   47.7022 H   0  0  0  0  0  0  0  0  0  0  0  0
   56.8635   27.6667   45.2424 H   0  0  0  0  0  0  0  0  0  0  0  0
   56.9245   33.9600   44.5519 H   0  0  0  0  0  0  0  0  0  0  0  0
   58.4327   35.9500   44.9177 H   0  0  0  0  0  0  0  0  0  0  0  0
   60.6332   35.6589   46.0792 H   0  0  0  0  0  0  0  0  0  0  0  0
   61.3416   33.3864   46.9048 H   0  0  0  0  0  0  0  0  0  0  0  0
   61.0567   29.5697   46.8077 H   0  0  0  0  0  0  0  0  0  0  0  0
   61.7471   31.2486   46.7860 H   0  0  0  0  0  0  0  0  0  0  0  0
   61.4869   29.8095   49.0513 H   0  0  0  0  0  0  0  0  0  0  0  0
   61.3090   31.6317   48.9673 H   0  0  0  0  0  0  0  0  0  0  0  0
   59.5735   30.5766   50.3783 H   0  0  0  0  0  0  0  0  0  0  0  0
   58.9013   31.4360   48.9514 H   0  0  0  0  0  0  0  0  0  0  0  0
   59.0090   29.6429   48.9514 H   0  0  0  0  0  0  0  0  0  0  0  0
  1  2  1  0
  2  3  1  0
  3  4  1  0
  4  5  2  0
  5  6  1  0
  6  7  2  0
  6  8  1  0
  8  9  2  0
  9 10  1  0
 10 11  2  0
 11 12  1  0
 12 13  2  0
 13 14  1  0
 14 15  2  0
 15 16  1  0
 16 17  1  0
 17 18  1  0
 18 19  1  0
 16 20  1  0
 20  4  1  0
 20  9  1  0
 15 10  1  0
  1 21  1  0
  1 22  1  0
  1 23  1  0
  2 24  1  0
  2 25  1  0
  3 26  1  0
  3 27  1  0
  5 28  1  0
 11 29  1  0
 12 30  1  0
 13 31  1  0
 14 32  1  0
 17 33  1  0
 17 34  1  0
 18 35  1  0
 18 36  1  0
 19 37  1  0
 19 38  1  0
 19 39  1  0
M  END
>  <UniqueID>  (1) 
1

>  <SMILES>  (1) 
CCCc1cc(=O)nc2c3ccccc3n(CCC)n12

>  <Energy>  (1) 
96.67693612272612

>  <Genealogy>  (1) 
CCCc1cc(=O)nc2c3ccccc3n(CCC)n12 (3D coordinates assigned)
CCCc1cc(=O)nc2c3ccccc3n(CCC)n12 (optimized conformer: 96.67693612272612 kcal/mol)

>  <smiles>  (1) 
CCCc1cc(=O)nc2c3ccccc3n(CCC)n12

>  <score_type>  (1) 
oracle

>  <origin>  (1) 
adg

>  <m_score__min__energy>  (1) 
-6.9299999999999997

>  <m_primary>  (1) 
energy

$$$$
1:0
     RDKit          3D

 83 86  0  0  0  0  0  0  0  0999 V2000
   55.8500   30.7400   51.9590 C   0  0  0  0  0  0  0  0  0  0  0  0
   56.9490   31.7940   51.8510 C   0  0  0  0  0  0  0  0  0  0  0  0
   57.7860   31.6040   50.5760 C   0  0  0  0  0  0  0  0  0  0  0  0
   59.2230   31.4190   50.8830 N   0  0  0  0  0  0  0  0  0  0  0  0
   59.9920   32.6800   51.0790 C   0  0  0  0  0  0  0  0  0  0  0  0
   59.9100   33.3190   52.4840 C   0  0  0  0  0  0  0  0  0  0  0  0
   58.8050   34.3620   52.6280 C   0  0  0  0  0  0  0  0  0  0  0  0
   59.4530   30.4160   51.9510 C   0  0  0  0  0  0  0  0  0  0  0  0
   60.8570   29.7680   51.8520 C   0  0  0  0  0  0  0  0  0  0  0  0
   61.4850   29.7340   50.5050 N   0  0  0  0  0  0  0  0  0  0  0  0
   62.6560   30.5830   50.3300 C   0  0  0  0  0  0  0  0  0  0  0  0
   63.7810   30.3800   51.1870 C   0  0  0  0  0  0  0  0  0  0  0  0
   63.8170   29.3340   52.1500 C   0  0  0  0  0  0  0  0  0  0  0  0
   64.9310   29.1300   52.9610 C   0  0  0  0  0  0  0  0  0  0  0  0
   66.0450   29.9420   52.8270 C   0  0  0  0  0  0  0  0  0  0  0  0
   66.0430   30.9760   51.8980 C   0  0  0  0  0  0  0  0  0  0  0  0
   64.9080   31.2350   51.0860 C   0  0  0  0  0  0  0  0  0  0  0  0
   64.8990   32.2860   50.2030 N   0  0  0  0  0  0  0  0  0  0  0  0
   65.8960   33.3740   50.3420 C   0  0  0  0  0  0  0  0  0  0  0  0
   63.9530   32.3460   49.2050 C   0  0  0  0  0  0  0  0  0  0  0  0
   64.1810   33.1690   48.0750 C   0  0  0  0  0  0  0  0  0  0  0  0
   63.2240   33.3310   47.0930 C   0  0  0  0  0  0  0  0  0  0  0  0
   62.0060   32.6930   47.2080 C   0  0  0  0  0  0  0  0  0  0  0  0
   61.7350   31.8330   48.2790 C   0  0  0  0  0  0  0  0  0  0  0  0
   60.4080   31.2900   48.3110 N   0  0  0  0  0  0  0  0  0  0  0  0
   59.9650   30.2720   47.3550 C   0  0  0  0  0  0  0  0  0  0  0  0
   59.5720   30.9130   46.0160 C   0  0  0  0  0  0  0  0  0  0  0  0
   58.2090   31.6520   46.0350 C   0  0  0  0  0  0  0  0  0  0  0  0
   58.2480   33.1460   46.1230 N   0  0  0  0  0  0  0  0  0  0  0  0
   56.9850   33.7540   45.6280 C   0  0  0  0  0  0  0  0  0  0  0  0
   59.3780   33.6430   45.2990 C   0  0  0  0  0  0  0  0  0  0  0  0
   59.8680   34.9440   45.9140 C   0  0  0  0  0  0  0  0  0  0  0  0
   59.3900   34.9110   47.3520 C   0  0  0  0  0  0  0  0  0  0  0  0
   58.5590   33.6390   47.4870 C   0  0  0  0  0  0  0  0  0  0  0  0
   62.7490   31.5700   49.2800 C   0  0  0  0  0  0  0  0  0  0  0  0
   55.6390   30.5376   53.0194 H   0  0  0  0  0  0  0  0  0  0  0  0
   54.9379   31.1097   51.4677 H   0  0  0  0  0  0  0  0  0  0  0  0
   56.1812   29.8132   51.4677 H   0  0  0  0  0  0  0  0  0  0  0  0
   56.4868   32.7920   51.8301 H   0  0  0  0  0  0  0  0  0  0  0  0
   57.6147   31.6899   52.7205 H   0  0  0  0  0  0  0  0  0  0  0  0
   57.4197   30.7168   50.0387 H   0  0  0  0  0  0  0  0  0  0  0  0
   57.6820   32.5100   49.9609 H   0  0  0  0  0  0  0  0  0  0  0  0
   61.0501   32.4635   50.8702 H   0  0  0  0  0  0  0  0  0  0  0  0
   59.5357   33.4118   50.3962 H   0  0  0  0  0  0  0  0  0  0  0  0
   59.7288   32.5196   53.2176 H   0  0  0  0  0  0  0  0  0  0  0  0
   60.8638   33.8404   52.6527 H   0  0  0  0  0  0  0  0  0  0  0  0
   58.6107   34.5454   53.6951 H   0  0  0  0  0  0  0  0  0  0  0  0
   59.1205   35.2993   52.1464 H   0  0  0  0  0  0  0  0  0  0  0  0
   57.8875   33.9930   52.1464 H   0  0  0  0  0  0  0  0  0  0  0  0
   59.3596   30.9116   52.9286 H   0  0  0  0  0  0  0  0  0  0  0  0
   58.7039   29.6191   51.8332 H   0  0  0  0  0  0  0  0  0  0  0  0
   61.5296   30.3272   52.5190 H   0  0  0  0  0  0  0  0  0  0  0  0
   60.7079   28.7135   52.1272 H   0  0  0  0  0  0  0  0  0  0  0  0
   60.7630   30.0020   49.8010 H   0  0  0  0  0  0  0  0  0  0  0  0
   61.6360   28.7630   50.1900 H   0  0  0  0  0  0  0  0  0  0  0  0
   62.9456   28.6712   52.2568 H   0  0  0  0  0  0  0  0  0  0  0  0
   64.9260   28.3232   53.7086 H   0  0  0  0  0  0  0  0  0  0  0  0
   66.9310   29.7687   53.4555 H   0  0  0  0  0  0  0  0  0  0  0  0
   66.9384   31.6058   51.7900 H   0  0  0  0  0  0  0  0  0  0  0  0
   66.0769   33.5714   51.4089 H   0  0  0  0  0  0  0  0  0  0  0  0
   66.8377   33.0722   49.8601 H   0  0  0  0  0  0  0  0  0  0  0  0
   65.5133   34.2858   49.8601 H   0  0  0  0  0  0  0  0  0  0  0  0
   65.1439   33.6918   47.9774 H   0  0  0  0  0  0  0  0  0  0  0  0
   63.4322   33.9676   46.2204 H   0  0  0  0  0  0  0  0  0  0  0  0
   61.2333   32.8633   46.4438 H   0  0  0  0  0  0  0  0  0  0  0  0
   59.7940   31.4820   49.1320 H   0  0  0  0  0  0  0  0  0  0  0  0
   60.7832   29.5565   47.1856 H   0  0  0  0  0  0  0  0  0  0  0  0
   59.0857   29.7581   47.7706 H   0  0  0  0  0  0  0  0  0  0  0  0
   60.3522   31.6373   45.7392 H   0  0  0  0  0  0  0  0  0  0  0  0
   59.4733   30.0911   45.2916 H   0  0  0  0  0  0  0  0  0  0  0  0
   57.6751   31.3877   45.1103 H   0  0  0  0  0  0  0  0  0  0  0  0
   57.7184   31.3235   46.9631 H   0  0  0  0  0  0  0  0  0  0  0  0
   56.3623   34.0538   46.4838 H   0  0  0  0  0  0  0  0  0  0  0  0
   57.2186   34.6383   45.0169 H   0  0  0  0  0  0  0  0  0  0  0  0
   56.4395   33.0198   45.0169 H   0  0  0  0  0  0  0  0  0  0  0  0
   60.1912   32.9023   45.2942 H   0  0  0  0  0  0  0  0  0  0  0  0
   59.0520   33.8085   44.2616 H   0  0  0  0  0  0  0  0  0  0  0  0
   60.9659   34.9997   45.8740 H   0  0  0  0  0  0  0  0  0  0  0  0
   59.4851   35.8227   45.3744 H   0  0  0  0  0  0  0  0  0  0  0  0
   60.2479   34.8824   48.0399 H   0  0  0  0  0  0  0  0  0  0  0  0
   58.8020   35.8062   47.6029 H   0  0  0  0  0  0  0  0  0  0  0  0
   59.1300   32.8771   48.0379 H   0  0  0  0  0  0  0  0  0  0  0  0
   57.6302   33.8468   48.0385 H   0  0  0  0  0  0  0  0  0  0  0  0
  1  2  1  0
  2  3  1  0
  3  4  1  0
  4  5  1  0
  5  6  1  0
  6  7  1  0
  4  8  1  0
  8  9  1  0
  9 10  1  0
 10 11  1  0
 11 12  2  0
 12 13  1  0
 13 14  2  0
 14 15  1  0
 15 16  2  0
 16 17  1  0
 17 18  2  0
 18 19  1  0
 18 20  1  0
 20 21  2  0
 21 22  1  0
 22 23  2  0
 23 24  1  0
 24 25  1  0
 25 26  1  0
 26 27  1  0
 27 28  1  0
 28 29  1  0
 29 30  1  0
 29 31  1  0
 31 32  1  0
 32 33  1  0
 33 34  1  0
 24 35  2  0
 35 11  1  0
 17 12  1  0
 35 20  1  0
 34 29  1  0
  1 36  1  0
  1 37  1  0
  1 38  1  0
  2 39  1  0
  2 40  1  0
  3 41  1  0
  3 42  1  0
  5 43  1  0
  5 44  1  0
  6 45  1  0
  6 46  1  0
  7 47  1  0
  7 48  1  0
  7 49  1  0
  8 50  1  0
  8 51  1  0
  9 52  1  0
  9 53  1  0
 10 54  1  0
 10 55  1  0
 13 56  1  0
 14 57  1  0
 15 58  1  0
 16 59  1  0
 19 60  1  0
 19 61  1  0
 19 62  1  0
 21 63  1  0
 22 64  1  0
 23 65  1  0
 25 66  1  0
 26 67  1  0
 26 68  1  0
 27 69  1  0
 27 70  1  0
 28 71  1  0
 28 72  1  0
 30 73  1  0
 30 74  1  0
 30 75  1  0
 31 76  1  0
 31 77  1  0
 32 78  1  0
 32 79  1  0
 33 80  1  0
 33 81  1  0
 34 82  1  0
 34 83  1  0
M  CHG  3  10   1  18   1  29   1
M  END
>  <UniqueID>  (2) 
2

>  <SMILES>  (2) 
CCCN(CCC)CC[NH2+]c1c2ccccc2[n+](C)c2cccc(NCCC[N+]3(C)CCCC3)c12

>  <Energy>  (2) 
139.82626112406822

>  <Genealogy>  (2) 
CCCN(CCC)CC[NH2+]c1c2ccccc2[n+](C)c2cccc(NCCC[N+]3(C)CCCC3)c12 (protonated)
CCCN(CCC)CC[NH2+]c1c2ccccc2[n+](C)c2cccc(NCCC[N+]3(C)CCCC3)c12 (3D coordinates assigned)
CCCN(CCC)CC[NH2+]c1c2ccccc2[n+](C)c2cccc(NCCC[N+]3(C)CCCC3)c12 (nonaromatic ring conformer: 139.82626112406822 kcal/mol)

>  <smiles>  (2) 
CCCN(CCC)CCNc1c2ccccc2[n+](C)c2cccc(NCCC[N+]3(C)CCCC3)c12

>  <score_type>  (2) 
oracle

>  <origin>  (2) 
adg

>  <m_score__min__energy>  (2) 
-3.7799999999999998

>  <m_primary>  (2) 
energy

$$$$
2:0
     RDKit          3D

 73 75  0  0  0  0  0  0  0  0999 V2000
   60.7850   27.7430   50.0750 C   0  0  0  0  0  0  0  0  0  0  0  0
   60.5020   29.0550   50.8120 C   0  0  0  0  0  0  0  0  0  0  0  0
   59.8470   30.0550   49.9550 N   0  0  0  0  0  0  0  0  0  0  0  0
   58.5390   30.4660   50.4820 C   0  0  0  0  0  0  0  0  0  0  0  0
   58.2810   31.9330   50.1380 C   0  0  0  0  0  0  0  0  0  0  0  0
   59.3740   32.4650   49.4120 O   0  0  0  0  0  0  0  0  0  0  0  0
   59.6800   33.7840   49.8260 C   0  0  0  0  0  0  0  0  0  0  0  0
   60.8820   33.8030   50.7800 C   0  0  0  0  0  0  0  0  0  0  0  0
   61.2080   32.4470   51.2450 N   0  0  0  0  0  0  0  0  0  0  0  0
   62.6190   32.3350   51.6370 C   0  0  0  0  0  0  0  0  0  0  0  0
   63.3630   31.4440   50.6420 C   0  0  0  0  0  0  0  0  0  0  0  0
   62.5820   31.2530   49.4780 O   0  0  0  0  0  0  0  0  0  0  0  0
   63.1660   31.9170   48.3750 C   0  0  0  0  0  0  0  0  0  0  0  0
   62.2920   31.7150   47.1400 C   0  0  0  0  0  0  0  0  0  0  0  0
   60.9760   31.1920   47.5100 N   0  0  0  0  0  0  0  0  0  0  0  0
   59.9710   30.9550   46.5140 C   0  0  0  0  0  0  0  0  0  0  0  0
   59.2440   32.0350   45.9900 C   0  0  0  0  0  0  0  0  0  0  0  0
   58.2180   31.7850   45.0440 C   0  0  0  0  0  0  0  0  0  0  0  0
   58.0040   30.4990   44.5840 N   0  0  0  0  0  0  0  0  0  0  0  0
   57.0480   30.2610   43.4790 C   0  0  0  0  0  0  0  0  0  0  0  0
   58.6210   29.4220   45.1930 C   0  0  0  0  0  0  0  0  0  0  0  0
   59.6510   29.6410   46.1430 C   0  0  0  0  0  0  0  0  0  0  0  0
   60.3110   28.4870   46.8810 C   0  0  0  0  0  0  0  0  0  0  0  0
   60.1480   27.1440   46.1760 C   0  0  0  0  0  0  0  0  0  0  0  0
   58.6900   26.9350   45.8020 C   0  0  0  0  0  0  0  0  0  0  0  0
   58.2570   27.9960   44.7910 C   0  0  0  0  0  0  0  0  0  0  0  0
   57.4040   32.9520   44.4910 C   0  0  0  0  0  0  0  0  0  0  0  0
   57.4430   34.2010   45.3680 C   0  0  0  0  0  0  0  0  0  0  0  0
   58.8840   34.5420   45.7100 C   0  0  0  0  0  0  0  0  0  0  0  0
   59.4910   33.4260   46.5550 C   0  0  0  0  0  0  0  0  0  0  0  0
   60.9580   26.9409   50.8076 H   0  0  0  0  0  0  0  0  0  0  0  0
   59.9222   27.4834   49.4440 H   0  0  0  0  0  0  0  0  0  0  0  0
   61.6781   27.8622   49.4440 H   0  0  0  0  0  0  0  0  0  0  0  0
   59.8470   28.8430   51.6699 H   0  0  0  0  0  0  0  0  0  0  0  0
   61.4680   29.4722   51.1325 H   0  0  0  0  0  0  0  0  0  0  0  0
   60.4630   30.8990   49.8750 H   0  0  0  0  0  0  0  0  0  0  0  0
   57.7520   29.8417   50.0338 H   0  0  0  0  0  0  0  0  0  0  0  0
   58.5321   30.3422   51.5750 H   0  0  0  0  0  0  0  0  0  0  0  0
   57.3687   32.0081   49.5280 H   0  0  0  0  0  0  0  0  0  0  0  0
   58.1577   32.5037   51.0702 H   0  0  0  0  0  0  0  0  0  0  0  0
   59.9156   34.3922   48.9403 H   0  0  0  0  0  0  0  0  0  0  0  0
   58.8079   34.1928   50.3573 H   0  0  0  0  0  0  0  0  0  0  0  0
   61.7524   34.2215   50.2534 H   0  0  0  0  0  0  0  0  0  0  0  0
   60.6260   34.4206   51.6535 H   0  0  0  0  0  0  0  0  0  0  0  0
   61.0500   31.7920   50.4430 H   0  0  0  0  0  0  0  0  0  0  0  0
   63.0765   33.3353   51.6447 H   0  0  0  0  0  0  0  0  0  0  0  0
   62.6831   31.8908   52.6413 H   0  0  0  0  0  0  0  0  0  0  0  0
   64.3144   31.9225   50.3667 H   0  0  0  0  0  0  0  0  0  0  0  0
   63.5553   30.4670   51.1094 H   0  0  0  0  0  0  0  0  0  0  0  0
   63.2476   32.9917   48.5949 H   0  0  0  0  0  0  0  0  0  0  0  0
   64.1683   31.5047   48.1869 H   0  0  0  0  0  0  0  0  0  0  0  0
   62.1647   32.6799   46.6274 H   0  0  0  0  0  0  0  0  0  0  0  0
   62.7844   30.9888   46.4765 H   0  0  0  0  0  0  0  0  0  0  0  0
   60.7170   31.0530   48.5130 H   0  0  0  0  0  0  0  0  0  0  0  0
   56.0600   30.0150   43.8955 H   0  0  0  0  0  0  0  0  0  0  0  0
   56.9698   31.1671   42.8602 H   0  0  0  0  0  0  0  0  0  0  0  0
   57.4038   29.4240   42.8602 H   0  0  0  0  0  0  0  0  0  0  0  0
   61.3855   28.7028   46.9758 H   0  0  0  0  0  0  0  0  0  0  0  0
   59.8158   28.4020   47.8596 H   0  0  0  0  0  0  0  0  0  0  0  0
   60.7644   27.1322   45.2650 H   0  0  0  0  0  0  0  0  0  0  0  0
   60.4701   26.3371   46.8507 H   0  0  0  0  0  0  0  0  0  0  0  0
   58.5665   25.9360   45.3583 H   0  0  0  0  0  0  0  0  0  0  0  0
   58.0680   27.0192   46.7053 H   0  0  0  0  0  0  0  0  0  0  0  0
   58.7405   27.7740   43.8282 H   0  0  0  0  0  0  0  0  0  0  0  0
   57.1594   27.9519   44.7341 H   0  0  0  0  0  0  0  0  0  0  0  0
   57.8011   33.2124   43.4988 H   0  0  0  0  0  0  0  0  0  0  0  0
   56.3557   32.6210   44.4514 H   0  0  0  0  0  0  0  0  0  0  0  0
   56.9868   35.0426   44.8262 H   0  0  0  0  0  0  0  0  0  0  0  0
   56.8833   34.0122   46.2959 H   0  0  0  0  0  0  0  0  0  0  0  0
   59.4633   34.6538   44.7816 H   0  0  0  0  0  0  0  0  0  0  0  0
   58.9101   35.4837   46.2780 H   0  0  0  0  0  0  0  0  0  0  0  0
   60.5771   33.5884   46.6182 H   0  0  0  0  0  0  0  0  0  0  0  0
   59.0054   33.4659   47.5412 H   0  0  0  0  0  0  0  0  0  0  0  0
  1  2  1  0
  2  3  1  0
  3  4  1  0
  4  5  1  0
  5  6  1  0
  6  7  1  0
  7  8  1  0
  8  9  1  0
  9 10  1  0
 10 11  1  0
 11 12  1  0
 12 13  1  0
 13 14  1  0
 14 15  1  0
 15 16  1  0
 16 17  2  0
 17 18  1  0
 18 19  2  0
 19 20  1  0
 19 21  1  0
 21 22  2  0
 22 23  1  0
 23 24  1  0
 24 25  1  0
 25 26  1  0
 18 27  1  0
 27 28  1  0
 28 29  1  0
 29 30  1  0
 22 16  1  0
 30 17  1  0
 26 21  1  0
  1 31  1  0
  1 32  1  0
  1 33  1  0
  2 34  1  0
  2 35  1  0
  3 36  1  0
  4 37  1  0
  4 38  1  0
  5 39  1  0
  5 40  1  0
  7 41  1  0
  7 42  1  0
  8 43  1  0
  8 44  1  0
  9 45  1  0
 10 46  1  0
 10 47  1  0
 11 48  1  0
 11 49  1  0
 13 50  1  0
 13 51  1  0
 14 52  1  0
 14 53  1  0
 15 54  1  0
 20 55  1  0
 20 56  1  0
 20 57  1  0
 23 58  1  0
 23 59  1  0
 24 60  1  0
 24 61  1  0
 25 62  1  0
 25 63  1  0
 26 64  1  0
 26 65  1  0
 27 66  1  0
 27 67  1  0
 28 68  1  0
 28 69  1  0
 29 70  1  0
 29 71  1  0
 30 72  1  0
 30 73  1  0
M  CHG  1  19   1
M  END
>  <UniqueID>  (3) 
3

>  <SMILES>  (3) 
CCNCCOCCNCCOCCNc1c2c([n+](C)c3c1CCCC3)CCCC2

>  <Energy>  (3) 
81.94950451843859

>  <Genealogy>  (3) 
CCNCCOCCNCCOCCNc1c2c([n+](C)c3c1CCCC3)CCCC2 (3D coordinates assigned)
CCNCCOCCNCCOCCNc1c2c([n+](C)c3c1CCCC3)CCCC2 (nonaromatic ring conformer: 81.94950451843859 kcal/mol)

>  <smiles>  (3) 
CCNCCOCCNCCOCCNc1c2c([n+](C)c3c1CCCC3)CCCC2

>  <score_type>  (3) 
oracle

>  <origin>  (3) 
adg

>  <m_score__min__energy>  (3) 
-5.75

>  <m_primary>  (3) 
energy

$$$$
3:0
     RDKit          3D

 57 59  0  0  0  0  0  0  0  0999 V2000
   63.4050   33.8370   46.5690 C   0  0  0  0  0  0  0  0  0  0  0  0
   62.8810   32.5330   47.1840 C   0  0  0  0  0  0  0  0  0  0  0  0
   63.2250   32.4150   48.6250 N   0  0  1  0  0  0  0  0  0  0  0  0
   64.5200   33.0750   48.8810 C   0  0  0  0  0  0  0  0  0  0  0  0
   62.1640   33.0030   49.4900 C   0  0  0  0  0  0  0  0  0  0  0  0
   61.6010   31.9640   50.4810 C   0  0  0  0  0  0  0  0  0  0  0  0
   61.7450   30.6270   50.0270 O   0  0  0  0  0  0  0  0  0  0  0  0
   60.9140   29.7070   50.7200 C   0  0  0  0  0  0  0  0  0  0  0  0
   59.4110   30.0650   50.6700 C   0  0  0  0  0  0  0  0  0  0  0  0
   58.7690   29.6050   49.3530 C   0  0  0  0  0  0  0  0  0  0  0  0
   59.6230   29.9160   48.2090 N   0  0  0  0  0  0  0  0  0  0  0  0
   59.0260   30.2510   46.9470 C   0  0  0  0  0  0  0  0  0  0  0  0
   58.9320   31.5930   46.5470 C   0  0  0  0  0  0  0  0  0  0  0  0
   59.3770   32.6290   47.3950 C   0  0  0  0  0  0  0  0  0  0  0  0
   59.3380   33.9560   46.9770 C   0  0  0  0  0  0  0  0  0  0  0  0
   58.8680   34.2720   45.7070 C   0  0  0  0  0  0  0  0  0  0  0  0
   58.4070   33.2650   44.8580 C   0  0  0  0  0  0  0  0  0  0  0  0
   58.3950   31.9080   45.2710 C   0  0  0  0  0  0  0  0  0  0  0  0
   57.8980   30.9030   44.4590 N   0  0  0  0  0  0  0  0  0  0  0  0
   57.1000   31.2470   43.2610 C   0  0  0  0  0  0  0  0  0  0  0  0
   58.1230   29.5770   44.7820 C   0  0  0  0  0  0  0  0  0  0  0  0
   57.8690   28.5280   43.8620 C   0  0  0  0  0  0  0  0  0  0  0  0
   58.0490   27.1930   44.2240 C   0  0  0  0  0  0  0  0  0  0  0  0
   58.4920   26.8670   45.5010 C   0  0  0  0  0  0  0  0  0  0  0  0
   58.7260   25.0350   45.9930 Br  0  0  0  0  0  0  0  0  0  0  0  0
   58.7910   27.8760   46.4120 C   0  0  0  0  0  0  0  0  0  0  0  0
   58.6430   29.2340   46.0580 C   0  0  0  0  0  0  0  0  0  0  0  0
   63.6853   34.5345   47.3721 H   0  0  0  0  0  0  0  0  0  0  0  0
   64.2861   33.6209   45.9470 H   0  0  0  0  0  0  0  0  0  0  0  0
   62.6194   34.2907   45.9470 H   0  0  0  0  0  0  0  0  0  0  0  0
   61.7865   32.5057   47.0775 H   0  0  0  0  0  0  0  0  0  0  0  0
   63.3555   31.6944   46.6534 H   0  0  0  0  0  0  0  0  0  0  0  0
   63.3490   31.4000   48.8500 H   0  0  0  0  0  0  0  0  0  0  0  0
   64.6814   33.1573   49.9660 H   0  0  0  0  0  0  0  0  0  0  0  0
   65.3297   32.4796   48.4339 H   0  0  0  0  0  0  0  0  0  0  0  0
   64.5140   34.0800   48.4339 H   0  0  0  0  0  0  0  0  0  0  0  0
   62.5906   33.8433   50.0574 H   0  0  0  0  0  0  0  0  0  0  0  0
   61.3417   33.3436   48.8436 H   0  0  0  0  0  0  0  0  0  0  0  0
   62.1337   32.0682   51.4378 H   0  0  0  0  0  0  0  0  0  0  0  0
   60.5238   32.1607   50.5860 H   0  0  0  0  0  0  0  0  0  0  0  0
   61.0487   28.7117   50.2713 H   0  0  0  0  0  0  0  0  0  0  0  0
   61.2156   29.7360   51.7775 H   0  0  0  0  0  0  0  0  0  0  0  0
   58.8978   29.5730   51.5094 H   0  0  0  0  0  0  0  0  0  0  0  0
   59.3130   31.1584   50.7395 H   0  0  0  0  0  0  0  0  0  0  0  0
   58.6068   28.5178   49.3940 H   0  0  0  0  0  0  0  0  0  0  0  0
   57.8141   30.1365   49.2280 H   0  0  0  0  0  0  0  0  0  0  0  0
   60.6530   30.0570   48.3270 H   0  0  0  0  0  0  0  0  0  0  0  0
   59.7589   32.3854   48.3974 H   0  0  0  0  0  0  0  0  0  0  0  0
   59.6791   34.7551   47.6516 H   0  0  0  0  0  0  0  0  0  0  0  0
   58.8596   35.3192   45.3705 H   0  0  0  0  0  0  0  0  0  0  0  0
   58.0471   33.5278   43.8523 H   0  0  0  0  0  0  0  0  0  0  0  0
   56.1314   31.6645   43.5731 H   0  0  0  0  0  0  0  0  0  0  0  0
   57.6433   31.9908   42.6597 H   0  0  0  0  0  0  0  0  0  0  0  0
   56.9322   30.3413   42.6597 H   0  0  0  0  0  0  0  0  0  0  0  0
   57.5243   28.7712   42.8461 H   0  0  0  0  0  0  0  0  0  0  0  0
   57.8397   26.3950   43.4964 H   0  0  0  0  0  0  0  0  0  0  0  0
   59.1465   27.6119   47.4189 H   0  0  0  0  0  0  0  0  0  0  0  0
  1  2  1  0
  2  3  1  0
  3  4  1  0
  3  5  1  0
  5  6  1  0
  6  7  1  0
  7  8  1  0
  8  9  1  0
  9 10  1  0
 10 11  1  0
 11 12  1  0
 12 13  2  0
 13 14  1  0
 14 15  2  0
 15 16  1  0
 16 17  2  0
 17 18  1  0
 18 19  2  0
 19 20  1  0
 19 21  1  0
 21 22  2  0
 22 23  1  0
 23 24  2  0
 24 25  1  0
 24 26  1  0
 26 27  2  0
 27 12  1  0
 18 13  1  0
 27 21  1  0
  1 28  1  0
  1 29  1  0
  1 30  1  0
  2 31  1  0
  2 32  1  0
  3 33  1  1
  4 34  1  0
  4 35  1  0
  4 36  1  0
  5 37  1  0
  5 38  1  0
  6 39  1  0
  6 40  1  0
  8 41  1  0
  8 42  1  0
  9 43  1  0
  9 44  1  0
 10 45  1  0
 10 46  1  0
 11 47  1  0
 14 48  1  0
 15 49  1  0
 16 50  1  0
 17 51  1  0
 20 52  1  0
 20 53  1  0
 20 54  1  0
 22 55  1  0
 23 56  1  0
 26 57  1  0
M  CHG  2   3   1  19   1
M  END
>  <UniqueID>  (4) 
4

>  <SMILES>  (4) 
CC[N@@H+](C)CCOCCCNc1c2ccccc2[n+](C)c2ccc(Br)cc12

>  <Energy>  (4) 
86.5008408085457

>  <Genealogy>  (4) 
CC[NH+](C)CCOCCCNc1c2ccccc2[n+](C)c2ccc(Br)cc12 (protonated)
CC[N@@H+](C)CCOCCCNc1c2ccccc2[n+](C)c2ccc(Br)cc12 (chirality)
CC[N@@H+](C)CCOCCCNc1c2ccccc2[n+](C)c2ccc(Br)cc12 (3D coordinates assigned)
CC[N@@H+](C)CCOCCCNc1c2ccccc2[n+](C)c2ccc(Br)cc12 (optimized conformer: 86.5008408085457 kcal/mol)

>  <smiles>  (4) 
CCN(C)CCOCCCNc1c2ccccc2[n+](C)c2ccc(Br)cc12

>  <score_type>  (4) 
oracle

>  <origin>  (4) 
adg

>  <m_score__min__energy>  (4) 
-4.7400000000000002

>  <m_primary>  (4) 
energy

$$$$
4:0
     RDKit          3D

 54 58  0  0  0  0  0  0  0  0999 V2000
   60.2940   29.8420   45.6170 C   0  0  0  0  0  0  0  0  0  0  0  0
   58.8750   29.7590   45.2730 N   0  0  0  0  0  0  0  0  0  0  0  0
   57.9500   30.7480   45.2120 C   0  0  0  0  0  0  0  0  0  0  0  0
   58.1790   32.1740   45.5310 C   0  0  0  0  0  0  0  0  0  0  0  0
   58.5320   33.1020   44.5400 C   0  0  0  0  0  0  0  0  0  0  0  0
   58.7220   34.4450   44.8750 C   0  0  0  0  0  0  0  0  0  0  0  0
   58.5420   34.8520   46.1970 C   0  0  0  0  0  0  0  0  0  0  0  0
   58.1780   33.9470   47.1440 N   0  0  0  0  0  0  0  0  0  0  0  0
   57.9890   32.6340   46.8430 C   0  0  0  0  0  0  0  0  0  0  0  0
   56.7440   30.2690   44.8390 N   0  0  0  0  0  0  0  0  0  0  0  0
   56.9040   28.9730   44.6340 N   0  0  0  0  0  0  0  0  0  0  0  0
   58.1840   28.6640   44.8960 C   0  0  0  0  0  0  0  0  0  0  0  0
   58.8600   27.0050   44.7570 S   0  0  0  0  0  0  0  0  0  0  0  0
   58.5480   26.5520   46.5000 C   0  0  0  0  0  0  0  0  0  0  0  0
   58.5270   27.7880   47.4050 C   0  0  0  0  0  0  0  0  0  0  0  0
   59.8640   28.0250   48.1210 C   0  0  0  0  0  0  0  0  0  0  0  0
   59.6410   28.6310   49.4590 N   0  0  0  0  0  0  0  0  0  0  0  0
   58.5360   29.6080   49.4410 C   0  0  0  0  0  0  0  0  0  0  0  0
   59.1320   31.0020   49.3080 C   0  0  1  0  0  0  0  0  0  0  0  0
   59.6780   31.6420   50.5770 C   0  0  0  0  0  0  0  0  0  0  0  0
   60.5980   30.8470   49.6580 C   0  0  2  0  0  0  0  0  0  0  0  0
   61.5550   31.5990   48.7700 C   0  0  0  0  0  0  0  0  0  0  0  0
   62.9350   31.5880   49.0310 C   0  0  0  0  0  0  0  0  0  0  0  0
   63.8100   32.3220   48.2240 C   0  0  0  0  0  0  0  0  0  0  0  0
   63.3120   33.0780   47.1590 C   0  0  0  0  0  0  0  0  0  0  0  0
   61.9390   33.1080   46.9040 C   0  0  0  0  0  0  0  0  0  0  0  0
   61.4560   33.8520   45.8790 F   0  0  0  0  0  0  0  0  0  0  0  0
   61.0610   32.3760   47.7100 C   0  0  0  0  0  0  0  0  0  0  0  0
   60.8180   29.3700   49.9490 C   0  0  0  0  0  0  0  0  0  0  0  0
   60.4062   29.8486   46.7112 H   0  0  0  0  0  0  0  0  0  0  0  0
   60.8240   28.9733   45.1993 H   0  0  0  0  0  0  0  0  0  0  0  0
   60.7191   30.7665   45.1993 H   0  0  0  0  0  0  0  0  0  0  0  0
   58.6593   32.7721   43.4984 H   0  0  0  0  0  0  0  0  0  0  0  0
   59.0107   35.1743   44.1038 H   0  0  0  0  0  0  0  0  0  0  0  0
   58.6946   35.9057   46.4734 H   0  0  0  0  0  0  0  0  0  0  0  0
   57.6858   31.9296   47.6316 H   0  0  0  0  0  0  0  0  0  0  0  0
   56.1480   28.3190   44.3310 H   0  0  0  0  0  0  0  0  0  0  0  0
   57.5758   26.0420   46.5685 H   0  0  0  0  0  0  0  0  0  0  0  0
   59.3606   25.8912   46.8362 H   0  0  0  0  0  0  0  0  0  0  0  0
   58.2969   28.6702   46.7895 H   0  0  0  0  0  0  0  0  0  0  0  0
   57.7631   27.6188   48.1782 H   0  0  0  0  0  0  0  0  0  0  0  0
   60.3846   27.0636   48.2419 H   0  0  0  0  0  0  0  0  0  0  0  0
   60.4723   28.7141   47.5168 H   0  0  0  0  0  0  0  0  0  0  0  0
   57.8731   29.4040   48.5872 H   0  0  0  0  0  0  0  0  0  0  0  0
   57.9496   29.5337   50.3687 H   0  0  0  0  0  0  0  0  0  0  0  0
   58.4892   31.4132   48.5157 H   0  0  0  0  0  0  0  0  0  0  0  0
   59.7770   32.7355   50.6440 H   0  0  0  0  0  0  0  0  0  0  0  0
   59.4179   31.6015   51.6450 H   0  0  0  0  0  0  0  0  0  0  0  0
   63.3289   31.0000   49.8731 H   0  0  0  0  0  0  0  0  0  0  0  0
   64.8909   32.3044   48.4275 H   0  0  0  0  0  0  0  0  0  0  0  0
   64.0020   33.6498   46.5211 H   0  0  0  0  0  0  0  0  0  0  0  0
   59.9794   32.4092   47.5127 H   0  0  0  0  0  0  0  0  0  0  0  0
   61.7224   29.0179   49.4313 H   0  0  0  0  0  0  0  0  0  0  0  0
   60.9495   29.2080   51.0290 H   0  0  0  0  0  0  0  0  0  0  0  0
  1  2  1  0
  2  3  1  0
  3  4  1  0
  4  5  2  0
  5  6  1  0
  6  7  2  0
  7  8  1  0
  8  9  2  0
  3 10  2  0
 10 11  1  0
 11 12  2  0
 12 13  1  0
 13 14  1  0
 14 15  1  0
 15 16  1  0
 16 17  1  0
 17 18  1  0
 18 19  1  0
 19 20  1  0
 20 21  1  0
 21 22  1  6
 22 23  2  0
 23 24  1  0
 24 25  2  0
 25 26  1  0
 26 27  1  0
 26 28  2  0
 21 29  1  0
 12  2  1  0
 29 17  1  0
  9  4  1  0
 21 19  1  0
 28 22  1  0
  1 30  1  0
  1 31  1  0
  1 32  1  0
  5 33  1  0
  6 34  1  0
  7 35  1  0
  9 36  1  0
 11 37  1  0
 14 38  1  0
 14 39  1  0
 15 40  1  0
 15 41  1  0
 16 42  1  0
 16 43  1  0
 18 44  1  0
 18 45  1  0
 19 46  1  6
 20 47  1  0
 20 48  1  0
 23 49  1  0
 24 50  1  0
 25 51  1  0
 28 52  1  0
 29 53  1  0
 29 54  1  0
M  CHG  1  11   1
M  END
>  <UniqueID>  (5) 
5

>  <SMILES>  (5) 
Cn1c(-c2cccnc2)n[nH+]c1SCCCN1C[C@H]2C[C@@]2(c2cccc(F)c2)C1

>  <Energy>  (5) 
367.19813713050195

>  <Genealogy>  (5) 
Cn1c(-c2cccnc2)n[nH+]c1SCCCN1CC2CC2(c2cccc(F)c2)C1 (protonated)
Cn1c(-c2cccnc2)n[nH+]c1SCCCN1C[C@H]2C[C@@]2(c2cccc(F)c2)C1 (chirality)
Cn1c(-c2cccnc2)n[nH+]c1SCCCN1C[C@H]2C[C@@]2(c2cccc(F)c2)C1 (3D coordinates assigned)
Cn1c(-c2cccnc2)n[nH+]c1SCCCN1C[C@H]2C[C@@]2(c2cccc(F)c2)C1 (nonaromatic ring conformer: 367.19813713050195 kcal/mol)

>  <smiles>  (5) 
Cn1c(SCCCN2CC3CC3(c3cccc(F)c3)C2)nnc1-c1cccnc1

>  <score_type>  (5) 
oracle

>  <origin>  (5) 
adg

>  <m_score__min__energy>  (5) 
-8.9199999999999999

>  <m_primary>  (5) 
energy

$$$$
5:0
     RDKit          3D

 69 71  0  0  0  0  0  0  0  0999 V2000
   61.0630   29.0460   50.2260 C   0  0  0  0  0  0  0  0  0  0  0  0
   60.1150   30.0380   49.6860 N   0  0  0  0  0  0  0  0  0  0  0  0
   58.8850   29.3540   49.2570 C   0  0  0  0  0  0  0  0  0  0  0  0
   59.8120   31.0840   50.6890 C   0  0  0  0  0  0  0  0  0  0  0  0
   58.9320   32.1750   50.0620 C   0  0  0  0  0  0  0  0  0  0  0  0
   59.3270   33.5950   50.4980 C   0  0  0  0  0  0  0  0  0  0  0  0
   59.6980   34.5220   49.3260 C   0  0  0  0  0  0  0  0  0  0  0  0
   60.3800   33.7760   48.2670 N   0  0  0  0  0  0  0  0  0  0  0  0
   59.8350   33.6270   46.9460 C   0  0  0  0  0  0  0  0  0  0  0  0
   59.4020   34.7890   46.2930 C   0  0  0  0  0  0  0  0  0  0  0  0
   58.6710   34.7150   45.1230 C   0  0  0  0  0  0  0  0  0  0  0  0
   58.2860   33.4810   44.6230 C   0  0  0  0  0  0  0  0  0  0  0  0
   58.6730   32.2760   45.2590 C   0  0  0  0  0  0  0  0  0  0  0  0
   59.5760   32.3410   46.3630 C   0  0  0  0  0  0  0  0  0  0  0  0
   60.2140   31.1310   46.7870 C   0  0  0  0  0  0  0  0  0  0  0  0
   61.3690   31.1530   47.6790 N   0  0  0  0  0  0  0  0  0  0  0  0
   62.6250   31.7260   47.1210 C   0  0  0  0  0  0  0  0  0  0  0  0
   63.7640   31.9910   48.1370 C   0  0  0  0  0  0  0  0  0  0  0  0
   63.4410   33.1750   49.0600 C   0  0  0  0  0  0  0  0  0  0  0  0
   62.5440   32.7760   50.1670 N   0  0  0  0  0  0  0  0  0  0  0  0
   63.0340   31.5370   50.7920 C   0  0  0  0  0  0  0  0  0  0  0  0
   62.4530   33.8360   51.1870 C   0  0  0  0  0  0  0  0  0  0  0  0
   59.8300   29.9020   46.1810 C   0  0  0  0  0  0  0  0  0  0  0  0
   60.4210   28.6700   46.5640 C   0  0  0  0  0  0  0  0  0  0  0  0
   60.0770   27.4770   45.9360 C   0  0  0  0  0  0  0  0  0  0  0  0
   59.1520   27.4770   44.9050 C   0  0  0  0  0  0  0  0  0  0  0  0
   58.5390   28.6650   44.5170 C   0  0  0  0  0  0  0  0  0  0  0  0
   58.8360   29.8930   45.1670 C   0  0  0  0  0  0  0  0  0  0  0  0
   58.2050   31.0620   44.8020 N   0  0  0  0  0  0  0  0  0  0  0  0
   56.9940   31.0120   43.9500 C   0  0  0  0  0  0  0  0  0  0  0  0
   61.0363   29.0739   51.3253 H   0  0  0  0  0  0  0  0  0  0  0  0
   60.7806   28.0415   49.8778 H   0  0  0  0  0  0  0  0  0  0  0  0
   62.0792   29.2826   49.8778 H   0  0  0  0  0  0  0  0  0  0  0  0
   58.3142   29.0366   50.1421 H   0  0  0  0  0  0  0  0  0  0  0  0
   58.2741   30.0420   48.6541 H   0  0  0  0  0  0  0  0  0  0  0  0
   59.1471   28.4721   48.6541 H   0  0  0  0  0  0  0  0  0  0  0  0
   59.2801   30.6307   51.5385 H   0  0  0  0  0  0  0  0  0  0  0  0
   60.7536   31.5350   51.0355 H   0  0  0  0  0  0  0  0  0  0  0  0
   59.0188   32.1083   48.9675 H   0  0  0  0  0  0  0  0  0  0  0  0
   57.9015   32.0019   50.4056 H   0  0  0  0  0  0  0  0  0  0  0  0
   58.4789   34.0409   51.0383 H   0  0  0  0  0  0  0  0  0  0  0  0
   60.2233   33.4999   51.1286 H   0  0  0  0  0  0  0  0  0  0  0  0
   58.7807   34.9708   48.9172 H   0  0  0  0  0  0  0  0  0  0  0  0
   60.3756   35.3049   49.6974 H   0  0  0  0  0  0  0  0  0  0  0  0
   61.2240   33.2230   48.5190 H   0  0  0  0  0  0  0  0  0  0  0  0
   59.6475   35.7735   46.7179 H   0  0  0  0  0  0  0  0  0  0  0  0
   58.3945   35.6356   44.5882 H   0  0  0  0  0  0  0  0  0  0  0  0
   57.6677   33.4366   43.7143 H   0  0  0  0  0  0  0  0  0  0  0  0
   61.1140   31.6750   48.5490 H   0  0  0  0  0  0  0  0  0  0  0  0
   61.5510   30.2090   48.0810 H   0  0  0  0  0  0  0  0  0  0  0  0
   63.0066   31.0253   46.3637 H   0  0  0  0  0  0  0  0  0  0  0  0
   62.3480   32.7137   46.7238 H   0  0  0  0  0  0  0  0  0  0  0  0
   63.9099   31.0902   48.7512 H   0  0  0  0  0  0  0  0  0  0  0  0
   64.6755   32.2365   47.5723 H   0  0  0  0  0  0  0  0  0  0  0  0
   64.3790   33.5634   49.4834 H   0  0  0  0  0  0  0  0  0  0  0  0
   62.9293   33.9451   48.4641 H   0  0  0  0  0  0  0  0  0  0  0  0
   62.9941   31.6379   51.8866 H   0  0  0  0  0  0  0  0  0  0  0  0
   62.4019   30.6932   50.4783 H   0  0  0  0  0  0  0  0  0  0  0  0
   64.0723   31.3538   50.4783 H   0  0  0  0  0  0  0  0  0  0  0  0
   62.4918   33.3846   52.1894 H   0  0  0  0  0  0  0  0  0  0  0  0
   63.2945   34.5341   51.0664 H   0  0  0  0  0  0  0  0  0  0  0  0
   61.5048   34.3804   51.0664 H   0  0  0  0  0  0  0  0  0  0  0  0
   61.1658   28.6579   47.3734 H   0  0  0  0  0  0  0  0  0  0  0  0
   60.5401   26.5328   46.2586 H   0  0  0  0  0  0  0  0  0  0  0  0
   58.9014   26.5367   44.3920 H   0  0  0  0  0  0  0  0  0  0  0  0
   57.8114   28.6528   43.6921 H   0  0  0  0  0  0  0  0  0  0  0  0
   56.0984   30.9750   44.5876 H   0  0  0  0  0  0  0  0  0  0  0  0
   56.9552   31.9093   43.3149 H   0  0  0  0  0  0  0  0  0  0  0  0
   57.0293   30.1145   43.3149 H   0  0  0  0  0  0  0  0  0  0  0  0
  1  2  1  0
  2  3  1  0
  2  4  1  0
  4  5  1  0
  5  6  1  0
  6  7  1  0
  7  8  1  0
  8  9  1  0
  9 10  2  0
 10 11  1  0
 11 12  2  0
 12 13  1  0
 13 14  2  0
 14 15  1  0
 15 16  1  0
 16 17  1  0
 17 18  1  0
 18 19  1  0
 19 20  1  0
 20 21  1  0
 20 22  1  0
 15 23  2  0
 23 24  1  0
 24 25  2  0
 25 26  1  0
 26 27  2  0
 27 28  1  0
 28 29  2  0
 29 30  1  0
 14  9  1  0
 28 23  1  0
 29 13  1  0
  1 31  1  0
  1 32  1  0
  1 33  1  0
  3 34  1  0
  3 35  1  0
  3 36  1  0
  4 37  1  0
  4 38  1  0
  5 39  1  0
  5 40  1  0
  6 41  1  0
  6 42  1  0
  7 43  1  0
  7 44  1  0
  8 45  1  0
 10 46  1  0
 11 47  1  0
 12 48  1  0
 16 49  1  0
 16 50  1  0
 17 51  1  0
 17 52  1  0
 18 53  1  0
 18 54  1  0
 19 55  1  0
 19 56  1  0
 21 57  1  0
 21 58  1  0
 21 59  1  0
 22 60  1  0
 22 61  1  0
 22 62  1  0
 24 63  1  0
 25 64  1  0
 26 65  1  0
 27 66  1  0
 30 67  1  0
 30 68  1  0
 30 69  1  0
M  CHG  2  16   1  29   1
M  END
>  <UniqueID>  (6) 
6

>  <SMILES>  (6) 
CN(C)CCCCNc1cccc2c1c([NH2+]CCCN(C)C)c1ccccc1[n+]2C

>  <Energy>  (6) 
109.43682576808888

>  <Genealogy>  (6) 
CN(C)CCCCNc1cccc2c1c([NH2+]CCCN(C)C)c1ccccc1[n+]2C (protonated)
CN(C)CCCCNc1cccc2c1c([NH2+]CCCN(C)C)c1ccccc1[n+]2C (3D coordinates assigned)
CN(C)CCCCNc1cccc2c1c([NH2+]CCCN(C)C)c1ccccc1[n+]2C (optimized conformer: 109.43682576808888 kcal/mol)

>  <smiles>  (6) 
CN(C)CCCCNc1cccc2c1c(NCCCN(C)C)c1ccccc1[n+]2C

>  <score_type>  (6) 
oracle

>  <origin>  (6) 
adg

>  <m_score__min__energy>  (6) 
-4.3200000000000003

>  <m_primary>  (6) 
energy

$$$$
6:0
     RDKit          3D

 90 93  0  0  0  0  0  0  0  0999 V2000
   54.5840   23.8050   44.9960 C   0  0  0  0  0  0  0  0  0  0  0  0
   55.9660   23.2320   45.3570 C   0  0  0  0  0  0  0  0  0  0  0  0
   57.0170   23.3020   44.2820 N   0  0  0  0  0  0  0  0  0  0  0  0
   58.2440   22.6410   44.8220 C   0  0  0  0  0  0  0  0  0  0  0  0
   56.5880   22.5920   43.0270 C   0  0  0  0  0  0  0  0  0  0  0  0
   56.9600   21.0940   42.9780 C   0  0  0  0  0  0  0  0  0  0  0  0
   57.3410   24.7560   44.0390 C   0  0  0  0  0  0  0  0  0  0  0  0
   57.4020   25.7190   45.2640 C   0  0  0  0  0  0  0  0  0  0  0  0
   58.8020   26.0990   45.7550 C   0  0  0  0  0  0  0  0  0  0  0  0
   58.8430   27.5110   46.3830 C   0  0  0  0  0  0  0  0  0  0  0  0
   59.3450   28.6100   45.4180 C   0  0  0  0  0  0  0  0  0  0  0  0
   58.6550   28.5870   44.0370 C   0  0  0  0  0  0  0  0  0  0  0  0
   57.1820   28.8130   44.1300 N   0  0  2  0  0  0  0  0  0  0  0  0
   56.6080   29.3290   42.8610 C   0  0  0  0  0  0  0  0  0  0  0  0
   57.0210   30.7840   42.5270 C   0  0  0  0  0  0  0  0  0  0  0  0
   57.5110   31.5830   43.7160 C   0  0  0  0  0  0  0  0  0  0  0  0
   58.1240   32.8300   43.5050 C   0  0  0  0  0  0  0  0  0  0  0  0
   58.6570   33.5570   44.5800 C   0  0  0  0  0  0  0  0  0  0  0  0
   58.5640   33.0470   45.8870 C   0  0  0  0  0  0  0  0  0  0  0  0
   59.1650   33.8040   47.0430 C   0  0  0  0  0  0  0  0  0  0  0  0
   60.6410   34.2540   46.8410 C   0  0  0  0  0  0  0  0  0  0  0  0
   61.6900   33.6070   47.6970 N   0  0  1  0  0  0  0  0  0  0  0  0
   61.7780   34.2480   49.0390 C   0  0  0  0  0  0  0  0  0  0  0  0
   62.9160   33.6090   49.8670 C   0  0  0  0  0  0  0  0  0  0  0  0
   63.6030   32.5390   49.0880 N   0  0  1  0  0  0  0  0  0  0  0  0
   64.6790   31.9730   49.9550 C   0  0  0  0  0  0  0  0  0  0  0  0
   64.2190   30.9410   50.9940 C   0  0  0  0  0  0  0  0  0  0  0  0
   62.6020   31.5070   48.7080 C   0  0  0  0  0  0  0  0  0  0  0  0
   61.4590   32.1470   47.8770 C   0  0  0  0  0  0  0  0  0  0  0  0
   64.1510   33.1500   47.8490 C   0  0  0  0  0  0  0  0  0  0  0  0
   63.0080   33.8030   47.0250 C   0  0  0  0  0  0  0  0  0  0  0  0
   57.8840   31.8350   46.1070 C   0  0  0  0  0  0  0  0  0  0  0  0
   57.4040   31.0810   45.0230 C   0  0  0  0  0  0  0  0  0  0  0  0
   56.8290   29.7120   45.2420 C   0  0  0  0  0  0  0  0  0  0  0  0
   54.0300   24.0347   45.9181 H   0  0  0  0  0  0  0  0  0  0  0  0
   54.7111   24.7246   44.4059 H   0  0  0  0  0  0  0  0  0  0  0  0
   54.0231   23.0653   44.4059 H   0  0  0  0  0  0  0  0  0  0  0  0
   56.3414   23.7865   46.2297 H   0  0  0  0  0  0  0  0  0  0  0  0
   55.8014   22.1595   45.5377 H   0  0  0  0  0  0  0  0  0  0  0  0
   58.2151   22.6565   45.9215 H   0  0  0  0  0  0  0  0  0  0  0  0
   58.2840   21.5993   44.4709 H   0  0  0  0  0  0  0  0  0  0  0  0
   59.1359   23.1807   44.4709 H   0  0  0  0  0  0  0  0  0  0  0  0
   55.4947   22.6772   42.9410 H   0  0  0  0  0  0  0  0  0  0  0  0
   57.1244   23.0742   42.1965 H   0  0  0  0  0  0  0  0  0  0  0  0
   57.0563   20.7064   44.0029 H   0  0  0  0  0  0  0  0  0  0  0  0
   56.1727   20.5378   42.4481 H   0  0  0  0  0  0  0  0  0  0  0  0
   57.9160   20.9707   42.4481 H   0  0  0  0  0  0  0  0  0  0  0  0
   58.3248   24.7919   43.5483 H   0  0  0  0  0  0  0  0  0  0  0  0
   56.4909   25.1263   43.4472 H   0  0  0  0  0  0  0  0  0  0  0  0
   56.8796   26.6469   44.9881 H   0  0  0  0  0  0  0  0  0  0  0  0
   56.9374   25.1684   46.0953 H   0  0  0  0  0  0  0  0  0  0  0  0
   59.1221   25.3667   46.5109 H   0  0  0  0  0  0  0  0  0  0  0  0
   59.4742   26.0995   44.8843 H   0  0  0  0  0  0  0  0  0  0  0  0
   57.8263   27.7747   46.7098 H   0  0  0  0  0  0  0  0  0  0  0  0
   59.5568   27.4688   47.2189 H   0  0  0  0  0  0  0  0  0  0  0  0
   59.1604   29.5901   45.8820 H   0  0  0  0  0  0  0  0  0  0  0  0
   60.4149   28.4216   45.2455 H   0  0  0  0  0  0  0  0  0  0  0  0
   59.0942   29.3769   43.4100 H   0  0  0  0  0  0  0  0  0  0  0  0
   58.8133   27.5896   43.6008 H   0  0  0  0  0  0  0  0  0  0  0  0
   56.7160   27.8960   44.3440 H   0  0  0  0  0  0  0  0  0  0  0  0
   56.9426   28.6776   42.0402 H   0  0  0  0  0  0  0  0  0  0  0  0
   55.5149   29.3292   42.9837 H   0  0  0  0  0  0  0  0  0  0  0  0
   57.8272   30.7499   41.7794 H   0  0  0  0  0  0  0  0  0  0  0  0
   56.1166   31.2907   42.1591 H   0  0  0  0  0  0  0  0  0  0  0  0
   58.1865   33.2403   42.4863 H   0  0  0  0  0  0  0  0  0  0  0  0
   59.1473   34.5252   44.4005 H   0  0  0  0  0  0  0  0  0  0  0  0
   58.5552   34.7031   47.2156 H   0  0  0  0  0  0  0  0  0  0  0  0
   59.1705   33.1084   47.8951 H   0  0  0  0  0  0  0  0  0  0  0  0
   60.9045   34.0553   45.7917 H   0  0  0  0  0  0  0  0  0  0  0  0
   60.6525   35.3128   47.1391 H   0  0  0  0  0  0  0  0  0  0  0  0
   61.9789   35.3224   48.9152 H   0  0  0  0  0  0  0  0  0  0  0  0
   60.8251   34.1006   49.5683 H   0  0  0  0  0  0  0  0  0  0  0  0
   63.6472   34.3861   50.1344 H   0  0  0  0  0  0  0  0  0  0  0  0
   62.4830   33.1614   50.7737 H   0  0  0  0  0  0  0  0  0  0  0  0
   65.4201   31.4888   49.3021 H   0  0  0  0  0  0  0  0  0  0  0  0
   65.0796   32.8210   50.5299 H   0  0  0  0  0  0  0  0  0  0  0  0
   64.3949   31.3357   52.0056 H   0  0  0  0  0  0  0  0  0  0  0  0
   63.1459   30.7395   50.8605 H   0  0  0  0  0  0  0  0  0  0  0  0
   64.7866   30.0082   50.8605 H   0  0  0  0  0  0  0  0  0  0  0  0
   63.0942   30.7273   48.1082 H   0  0  0  0  0  0  0  0  0  0  0  0
   62.1770   31.0666   49.6220 H   0  0  0  0  0  0  0  0  0  0  0  0
   61.4170   31.6641   46.8896 H   0  0  0  0  0  0  0  0  0  0  0  0
   60.5097   32.0037   48.4139 H   0  0  0  0  0  0  0  0  0  0  0  0
   64.8901   33.9188   48.1187 H   0  0  0  0  0  0  0  0  0  0  0  0
   64.6296   32.3668   47.2428 H   0  0  0  0  0  0  0  0  0  0  0  0
   63.2053   34.8806   46.9260 H   0  0  0  0  0  0  0  0  0  0  0  0
   62.9721   33.3270   46.0340 H   0  0  0  0  0  0  0  0  0  0  0  0
   57.7271   31.4754   47.1346 H   0  0  0  0  0  0  0  0  0  0  0  0
   57.2279   29.2991   46.1803 H   0  0  0  0  0  0  0  0  0  0  0  0
   55.7333   29.7939   45.2953 H   0  0  0  0  0  0  0  0  0  0  0  0
  1  2  1  0
  2  3  1  0
  3  4  1  0
  3  5  1  0
  5  6  1  0
  3  7  1  0
  7  8  1  0
  8  9  1  0
  9 10  1  0
 10 11  1  0
 11 12  1  0
 12 13  1  0
 13 14  1  0
 14 15  1  0
 15 16  1  0
 16 17  2  0
 17 18  1  0
 18 19  2  0
 19 20  1  0
 20 21  1  0
 22 21  1  6
 22 23  1  0
 23 24  1  0
 24 25  1  0
 25 26  1  1
 26 27  1  0
 25 28  1  0
 28 29  1  0
 25 30  1  0
 30 31  1  0
 19 32  1  0
 32 33  2  0
 33 34  1  0
 34 13  1  0
 33 16  1  0
 29 22  1  0
 31 22  1  0
  1 35  1  0
  1 36  1  0
  1 37  1  0
  2 38  1  0
  2 39  1  0
  4 40  1  0
  4 41  1  0
  4 42  1  0
  5 43  1  0
  5 44  1  0
  6 45  1  0
  6 46  1  0
  6 47  1  0
  7 48  1  0
  7 49  1  0
  8 50  1  0
  8 51  1  0
  9 52  1  0
  9 53  1  0
 10 54  1  0
 10 55  1  0
 11 56  1  0
 11 57  1  0
 12 58  1  0
 12 59  1  0
 13 60  1  1
 14 61  1  0
 14 62  1  0
 15 63  1  0
 15 64  1  0
 17 65  1  0
 18 66  1  0
 20 67  1  0
 20 68  1  0
 21 69  1  0
 21 70  1  0
 23 71  1  0
 23 72  1  0
 24 73  1  0
 24 74  1  0
 26 75  1  0
 26 76  1  0
 27 77  1  0
 27 78  1  0
 27 79  1  0
 28 80  1  0
 28 81  1  0
 29 82  1  0
 29 83  1  0
 30 84  1  0
 30 85  1  0
 31 86  1  0
 31 87  1  0
 32 88  1  0
 34 89  1  0
 34 90  1  0
M  CHG  4   3   1  13   1  22   1  25   1
M  END
>  <UniqueID>  (7) 
7

>  <SMILES>  (7) 
CC[N+](C)(CC)CCCCCC[N@@H+]1CCc2ccc(CC[N+]34CC[N+](CC)(CC3)CC4)cc2C1

>  <Energy>  (7) 
141.4359850143806

>  <Genealogy>  (7) 
CC[N+](C)(CC)CCCCCC[NH+]1CCc2ccc(CC[N+]34CC[N+](CC)(CC3)CC4)cc2C1 (protonated)
CC[N+](C)(CC)CCCCCC[N@@H+]1CCc2ccc(CC[N+]34CC[N+](CC)(CC3)CC4)cc2C1 (chirality)
CC[N+](C)(CC)CCCCCC[N@@H+]1CCc2ccc(CC[N+]34CC[N+](CC)(CC3)CC4)cc2C1 (3D coordinates assigned)
CC[N+](C)(CC)CCCCCC[N@@H+]1CCc2ccc(CC[N+]34CC[N+](CC)(CC3)CC4)cc2C1 (nonaromatic ring conformer: 141.4359850143806 kcal/mol)

>  <smiles>  (7) 
CC[N+](C)(CC)CCCCCCN1CCc2ccc(CC[N+]34CC[N+](CC)(CC3)CC4)cc2C1

>  <score_type>  (7) 
oracle

>  <origin>  (7) 
adg

>  <m_score__min__energy>  (7) 
-2.98

>  <m_primary>  (7) 
energy

$$$$
7:0
     RDKit          3D

 47 49  0  0  0  0  0  0  0  0999 V2000
   63.3990   33.4650   46.5510 C   0  0  0  0  0  0  0  0  0  0  0  0
   63.4280   33.8740   48.0230 C   0  0  0  0  0  0  0  0  0  0  0  0
   62.6800   32.9080   48.8670 N   0  0  0  0  0  0  0  0  0  0  0  0
   63.1950   32.9740   50.2490 C   0  0  0  0  0  0  0  0  0  0  0  0
   62.8230   31.5390   48.3140 C   0  0  0  0  0  0  0  0  0  0  0  0
   61.5030   30.7410   48.2590 C   0  0  0  0  0  0  0  0  0  0  0  0
   60.2930   31.5830   48.3800 N   0  0  0  0  0  0  0  0  0  0  0  0
   59.5960   31.7280   47.1120 C   0  0  0  0  0  0  0  0  0  0  0  0
   59.4940   32.9990   46.5140 C   0  0  0  0  0  0  0  0  0  0  0  0
   58.9080   33.1780   45.2860 C   0  0  0  0  0  0  0  0  0  0  0  0
   58.3670   32.1360   44.5820 N   0  0  0  0  0  0  0  0  0  0  0  0
   57.7600   32.3770   43.2580 C   0  0  0  0  0  0  0  0  0  0  0  0
   58.3830   30.8670   45.1350 C   0  0  0  0  0  0  0  0  0  0  0  0
   57.7900   29.7710   44.4580 C   0  0  0  0  0  0  0  0  0  0  0  0
   57.7850   28.4970   45.0140 C   0  0  0  0  0  0  0  0  0  0  0  0
   58.3670   28.2740   46.2510 C   0  0  0  0  0  0  0  0  0  0  0  0
   58.9700   29.3210   46.9460 C   0  0  0  0  0  0  0  0  0  0  0  0
   58.9960   30.6340   46.4150 C   0  0  0  0  0  0  0  0  0  0  0  0
   58.9460   34.6210   44.8560 C   0  0  0  0  0  0  0  0  0  0  0  0
   59.6350   35.3670   46.0100 C   0  0  0  0  0  0  0  0  0  0  0  0
   59.9420   34.2980   46.9960 C   0  0  0  0  0  0  0  0  0  0  0  0
   60.5010   34.5180   48.1010 O   0  0  0  0  0  0  0  0  0  0  0  0
   63.3214   32.3703   46.4761 H   0  0  0  0  0  0  0  0  0  0  0  0
   62.5315   33.9287   46.0586 H   0  0  0  0  0  0  0  0  0  0  0  0
   64.3233   33.8016   46.0586 H   0  0  0  0  0  0  0  0  0  0  0  0
   64.4733   33.9127   48.3635 H   0  0  0  0  0  0  0  0  0  0  0  0
   62.9505   34.8603   48.1184 H   0  0  0  0  0  0  0  0  0  0  0  0
   62.3599   32.8670   50.9570 H   0  0  0  0  0  0  0  0  0  0  0  0
   63.9186   32.1612   50.4099 H   0  0  0  0  0  0  0  0  0  0  0  0
   63.6902   33.9430   50.4099 H   0  0  0  0  0  0  0  0  0  0  0  0
   63.2212   31.6191   47.2917 H   0  0  0  0  0  0  0  0  0  0  0  0
   63.4965   30.9922   48.9904 H   0  0  0  0  0  0  0  0  0  0  0  0
   61.4598   30.2072   47.2982 H   0  0  0  0  0  0  0  0  0  0  0  0
   61.5054   30.0565   49.1201 H   0  0  0  0  0  0  0  0  0  0  0  0
   60.5820   32.5380   48.6960 H   0  0  0  0  0  0  0  0  0  0  0  0
   59.6960   31.2490   49.1610 H   0  0  0  0  0  0  0  0  0  0  0  0
   56.7448   32.7801   43.3880 H   0  0  0  0  0  0  0  0  0  0  0  0
   58.3729   33.1000   42.6998 H   0  0  0  0  0  0  0  0  0  0  0  0
   57.7100   31.4305   42.6998 H   0  0  0  0  0  0  0  0  0  0  0  0
   57.3251   29.9321   43.4742 H   0  0  0  0  0  0  0  0  0  0  0  0
   57.3173   27.6632   44.4699 H   0  0  0  0  0  0  0  0  0  0  0  0
   58.3532   27.2644   46.6876 H   0  0  0  0  0  0  0  0  0  0  0  0
   59.4338   29.1242   47.9239 H   0  0  0  0  0  0  0  0  0  0  0  0
   59.5232   34.7314   43.9261 H   0  0  0  0  0  0  0  0  0  0  0  0
   57.9397   35.0164   44.6533 H   0  0  0  0  0  0  0  0  0  0  0  0
   60.5573   35.8564   45.6639 H   0  0  0  0  0  0  0  0  0  0  0  0
   59.0076   36.1656   46.4326 H   0  0  0  0  0  0  0  0  0  0  0  0
  1  2  1  0
  2  3  1  0
  3  4  1  0
  3  5  1  0
  5  6  1  0
  6  7  1  0
  7  8  1  0
  8  9  2  0
  9 10  1  0
 10 11  2  0
 11 12  1  0
 11 13  1  0
 13 14  2  0
 14 15  1  0
 15 16  2  0
 16 17  1  0
 17 18  2  0
 10 19  1  0
 19 20  1  0
 20 21  1  0
 21 22  2  0
 18  8  1  0
 21  9  1  0
 18 13  1  0
  1 23  1  0
  1 24  1  0
  1 25  1  0
  2 26  1  0
  2 27  1  0
  4 28  1  0
  4 29  1  0
  4 30  1  0
  5 31  1  0
  5 32  1  0
  6 33  1  0
  6 34  1  0
  7 35  1  0
  7 36  1  0
 12 37  1  0
 12 38  1  0
 12 39  1  0
 14 40  1  0
 15 41  1  0
 16 42  1  0
 17 43  1  0
 19 44  1  0
 19 45  1  0
 20 46  1  0
 20 47  1  0
M  CHG  2   7   1  11   1
M  END
>  <UniqueID>  (8) 
8

>  <SMILES>  (8) 
CCN(C)CC[NH2+]c1c2c([n+](C)c3ccccc13)CCC2=O

>  <Energy>  (8) 
77.54670406898902

>  <Genealogy>  (8) 
CCN(C)CC[NH2+]c1c2c([n+](C)c3ccccc13)CCC2=O (protonated)
CCN(C)CC[NH2+]c1c2c([n+](C)c3ccccc13)CCC2=O (3D coordinates assigned)
CCN(C)CC[NH2+]c1c2c([n+](C)c3ccccc13)CCC2=O (nonaromatic ring conformer: 77.54670406898902 kcal/mol)

>  <smiles>  (8) 
CCN(C)CCNc1c2c([n+](C)c3ccccc13)CCC2=O

>  <score_type>  (8) 
oracle

>  <origin>  (8) 
adg

>  <m_score__min__energy>  (8) 
-3.6800000000000002

>  <m_primary>  (8) 
energy

$$$$
8:0
     RDKit          3D

 64 67  0  0  0  0  0  0  0  0999 V2000
   59.8340   32.3640   51.5930 C   0  0  0  0  0  0  0  0  0  0  0  0
   58.8610   31.6610   50.7360 N   0  0  0  0  0  0  0  0  0  0  0  0
   57.4970   31.9340   51.2160 C   0  0  0  0  0  0  0  0  0  0  0  0
   59.1330   30.2060   50.7090 C   0  0  0  0  0  0  0  0  0  0  0  0
   59.6340   29.7420   49.3160 C   0  0  0  0  0  0  0  0  0  0  0  0
   59.9190   30.7990   48.3020 N   0  0  0  0  0  0  0  0  0  0  0  0
   59.1730   30.7320   47.0510 C   0  0  0  0  0  0  0  0  0  0  0  0
   59.1550   29.5020   46.3260 C   0  0  0  0  0  0  0  0  0  0  0  0
   59.7540   28.3230   46.8440 C   0  0  0  0  0  0  0  0  0  0  0  0
   59.7550   27.1320   46.1230 C   0  0  0  0  0  0  0  0  0  0  0  0
   59.1750   27.0810   44.8650 C   0  0  0  0  0  0  0  0  0  0  0  0
   58.5720   28.2160   44.3320 C   0  0  0  0  0  0  0  0  0  0  0  0
   58.5230   29.4360   45.0580 C   0  0  0  0  0  0  0  0  0  0  0  0
   57.9080   30.5480   44.5340 N   0  0  0  0  0  0  0  0  0  0  0  0
   56.9990   30.4090   43.3720 C   0  0  0  0  0  0  0  0  0  0  0  0
   58.1110   31.7860   45.1010 C   0  0  0  0  0  0  0  0  0  0  0  0
   57.8400   32.9580   44.3570 C   0  0  0  0  0  0  0  0  0  0  0  0
   57.9540   34.2140   44.9240 C   0  0  0  0  0  0  0  0  0  0  0  0
   58.2910   34.3390   46.2570 C   0  0  0  0  0  0  0  0  0  0  0  0
   58.6010   33.2160   47.0370 C   0  0  0  0  0  0  0  0  0  0  0  0
   58.6900   33.4230   48.4550 N   0  0  0  0  0  0  0  0  0  0  0  0
   59.6600   34.3250   49.0820 C   0  0  0  0  0  0  0  0  0  0  0  0
   60.9960   34.2710   48.3350 C   0  0  0  0  0  0  0  0  0  0  0  0
   61.5480   32.9010   48.3440 N   0  0  0  0  0  0  0  0  0  0  0  0
   62.4710   32.6570   49.4680 C   0  0  0  0  0  0  0  0  0  0  0  0
   63.7360   32.0170   48.9120 C   0  0  0  0  0  0  0  0  0  0  0  0
   63.3890   31.6380   47.4920 C   0  0  0  0  0  0  0  0  0  0  0  0
   62.2980   32.6160   47.1160 C   0  0  0  0  0  0  0  0  0  0  0  0
   58.6230   31.9080   46.4320 C   0  0  0  0  0  0  0  0  0  0  0  0
   59.5874   32.1859   52.6501 H   0  0  0  0  0  0  0  0  0  0  0  0
   60.8461   31.9872   51.3840 H   0  0  0  0  0  0  0  0  0  0  0  0
   59.7941   33.4432   51.3840 H   0  0  0  0  0  0  0  0  0  0  0  0
   57.4888   31.9356   52.3160 H   0  0  0  0  0  0  0  0  0  0  0  0
   57.1675   32.9159   50.8454 H   0  0  0  0  0  0  0  0  0  0  0  0
   56.8150   31.1545   50.8454 H   0  0  0  0  0  0  0  0  0  0  0  0
   59.9020   29.9730   51.4602 H   0  0  0  0  0  0  0  0  0  0  0  0
   58.1939   29.6773   50.9294 H   0  0  0  0  0  0  0  0  0  0  0  0
   60.5636   29.1749   49.4717 H   0  0  0  0  0  0  0  0  0  0  0  0
   58.7978   29.1653   48.8939 H   0  0  0  0  0  0  0  0  0  0  0  0
   60.9420   30.7920   48.0850 H   0  0  0  0  0  0  0  0  0  0  0  0
   59.8520   31.7400   48.7360 H   0  0  0  0  0  0  0  0  0  0  0  0
   60.2275   28.3515   47.8365 H   0  0  0  0  0  0  0  0  0  0  0  0
   60.2166   26.2304   46.5521 H   0  0  0  0  0  0  0  0  0  0  0  0
   59.1915   26.1442   44.2887 H   0  0  0  0  0  0  0  0  0  0  0  0
   58.1243   28.1676   43.3284 H   0  0  0  0  0  0  0  0  0  0  0  0
   55.9702   30.2517   43.7281 H   0  0  0  0  0  0  0  0  0  0  0  0
   57.0403   31.3239   42.7627 H   0  0  0  0  0  0  0  0  0  0  0  0
   57.3118   29.5482   42.7627 H   0  0  0  0  0  0  0  0  0  0  0  0
   57.5320   32.8684   43.3048 H   0  0  0  0  0  0  0  0  0  0  0  0
   57.7765   35.1120   44.3140 H   0  0  0  0  0  0  0  0  0  0  0  0
   58.3168   35.3385   46.7157 H   0  0  0  0  0  0  0  0  0  0  0  0
   58.1010   32.8400   49.0780 H   0  0  0  0  0  0  0  0  0  0  0  0
   59.2701   35.3532   49.0543 H   0  0  0  0  0  0  0  0  0  0  0  0
   59.8196   34.0105   50.1239 H   0  0  0  0  0  0  0  0  0  0  0  0
   60.8400   34.5899   47.2939 H   0  0  0  0  0  0  0  0  0  0  0  0
   61.7084   34.9410   48.8385 H   0  0  0  0  0  0  0  0  0  0  0  0
   62.7200   33.6092   49.9593 H   0  0  0  0  0  0  0  0  0  0  0  0
   62.0019   31.9925   50.2085 H   0  0  0  0  0  0  0  0  0  0  0  0
   64.5710   32.7329   48.9283 H   0  0  0  0  0  0  0  0  0  0  0  0
   64.0554   31.1479   49.5059 H   0  0  0  0  0  0  0  0  0  0  0  0
   64.2615   31.7507   46.8316 H   0  0  0  0  0  0  0  0  0  0  0  0
   63.0725   30.5889   47.3961 H   0  0  0  0  0  0  0  0  0  0  0  0
   62.7390   33.5415   46.7174 H   0  0  0  0  0  0  0  0  0  0  0  0
   61.6415   32.1978   46.3387 H   0  0  0  0  0  0  0  0  0  0  0  0
  1  2  1  0
  2  3  1  0
  2  4  1  0
  4  5  1  0
  5  6  1  0
  6  7  1  0
  7  8  2  0
  8  9  1  0
  9 10  2  0
 10 11  1  0
 11 12  2  0
 12 13  1  0
 13 14  2  0
 14 15  1  0
 14 16  1  0
 16 17  2  0
 17 18  1  0
 18 19  2  0
 19 20  1  0
 20 21  1  0
 21 22  1  0
 22 23  1  0
 23 24  1  0
 24 25  1  0
 25 26  1  0
 26 27  1  0
 27 28  1  0
 20 29  2  0
 29  7  1  0
 13  8  1  0
 29 16  1  0
 28 24  1  0
  1 30  1  0
  1 31  1  0
  1 32  1  0
  3 33  1  0
  3 34  1  0
  3 35  1  0
  4 36  1  0
  4 37  1  0
  5 38  1  0
  5 39  1  0
  6 40  1  0
  6 41  1  0
  9 42  1  0
 10 43  1  0
 11 44  1  0
 12 45  1  0
 15 46  1  0
 15 47  1  0
 15 48  1  0
 17 49  1  0
 18 50  1  0
 19 51  1  0
 21 52  1  0
 22 53  1  0
 22 54  1  0
 23 55  1  0
 23 56  1  0
 25 57  1  0
 25 58  1  0
 26 59  1  0
 26 60  1  0
 27 61  1  0
 27 62  1  0
 28 63  1  0
 28 64  1  0
M  CHG  2   6   1  14   1
M  END
>  <UniqueID>  (9) 
9

>  <SMILES>  (9) 
CN(C)CC[NH2+]c1c2ccccc2[n+](C)c2cccc(NCCN3CCCC3)c12

>  <Energy>  (9) 
114.45394736241616

>  <Genealogy>  (9) 
CN(C)CC[NH2+]c1c2ccccc2[n+](C)c2cccc(NCCN3CCCC3)c12 (protonated)
CN(C)CC[NH2+]c1c2ccccc2[n+](C)c2cccc(NCCN3CCCC3)c12 (3D coordinates assigned)
CN(C)CC[NH2+]c1c2ccccc2[n+](C)c2cccc(NCCN3CCCC3)c12 (nonaromatic ring conformer: 114.45394736241616 kcal/mol)

>  <smiles>  (9) 
CN(C)CCNc1c2ccccc2[n+](C)c2cccc(NCCN3CCCC3)c12

>  <score_type>  (9) 
oracle

>  <origin>  (9) 
adg

>  <m_score__min__energy>  (9) 
-4.2300000000000004

>  <m_primary>  (9) 
energy

$$$$
9:0
     RDKit          3D

 73 76  0  0  0  0  0  0  0  0999 V2000
   55.9980   30.8520   51.6340 C   0  0  0  0  0  0  0  0  0  0  0  0
   57.4370   30.5470   51.6080 N   0  0  0  0  0  0  0  0  0  0  0  0
   57.6930   29.3200   52.3840 C   0  0  0  0  0  0  0  0  0  0  0  0
   58.2160   31.6870   52.1430 C   0  0  0  0  0  0  0  0  0  0  0  0
   58.5150   32.7170   51.0430 C   0  0  0  0  0  0  0  0  0  0  0  0
   58.4630   32.1090   49.7060 N   0  0  0  0  0  0  0  0  0  0  0  0
   59.4470   32.2240   48.6340 C   0  0  0  0  0  0  0  0  0  0  0  0
   59.2130   32.9830   47.4600 C   0  0  0  0  0  0  0  0  0  0  0  0
   57.9340   33.0830   46.8710 C   0  0  0  0  0  0  0  0  0  0  0  0
   57.6950   33.9520   45.8110 C   0  0  0  0  0  0  0  0  0  0  0  0
   58.7300   34.7190   45.2960 C   0  0  0  0  0  0  0  0  0  0  0  0
   60.0260   34.5530   45.7800 C   0  0  0  0  0  0  0  0  0  0  0  0
   60.3100   33.6190   46.8130 C   0  0  0  0  0  0  0  0  0  0  0  0
   61.6090   33.3340   47.1920 N   0  0  0  0  0  0  0  0  0  0  0  0
   62.7380   33.8330   46.3710 C   0  0  0  0  0  0  0  0  0  0  0  0
   61.8500   32.5060   48.2740 C   0  0  0  0  0  0  0  0  0  0  0  0
   63.1550   32.3270   48.7970 C   0  0  0  0  0  0  0  0  0  0  0  0
   63.4100   31.3840   49.7840 C   0  0  0  0  0  0  0  0  0  0  0  0
   62.3850   30.5840   50.2700 C   0  0  0  0  0  0  0  0  0  0  0  0
   61.0660   30.7790   49.8370 C   0  0  0  0  0  0  0  0  0  0  0  0
   60.0500   29.8230   50.2010 N   0  0  0  0  0  0  0  0  0  0  0  0
   59.6510   28.6980   49.3510 C   0  0  0  0  0  0  0  0  0  0  0  0
   60.1890   28.8530   47.9210 C   0  0  0  0  0  0  0  0  0  0  0  0
   59.2260   28.2790   46.8480 C   0  0  0  0  0  0  0  0  0  0  0  0
   59.3760   28.8700   45.4770 N   0  0  0  0  0  0  0  0  0  0  0  0
   60.7590   28.6310   44.9850 C   0  0  0  0  0  0  0  0  0  0  0  0
   59.1030   30.3500   45.5150 C   0  0  0  0  0  0  0  0  0  0  0  0
   58.4730   30.8840   44.2190 C   0  0  0  0  0  0  0  0  0  0  0  0
   57.1090   30.2260   43.9570 C   0  0  0  0  0  0  0  0  0  0  0  0
   57.0360   28.7890   44.5010 C   0  0  0  0  0  0  0  0  0  0  0  0
   58.4330   28.1500   44.5500 C   0  0  0  0  0  0  0  0  0  0  0  0
   60.7770   31.8250   48.9100 C   0  0  0  0  0  0  0  0  0  0  0  0
   55.6573   30.9242   52.6774 H   0  0  0  0  0  0  0  0  0  0  0  0
   55.8166   31.8085   51.1220 H   0  0  0  0  0  0  0  0  0  0  0  0
   55.4442   30.0513   51.1220 H   0  0  0  0  0  0  0  0  0  0  0  0
   57.6452   29.5492   53.4588 H   0  0  0  0  0  0  0  0  0  0  0  0
   56.9332   28.5642   52.1361 H   0  0  0  0  0  0  0  0  0  0  0  0
   58.6916   28.9310   52.1361 H   0  0  0  0  0  0  0  0  0  0  0  0
   57.6382   32.1731   52.9429 H   0  0  0  0  0  0  0  0  0  0  0  0
   59.1710   31.3052   52.5332 H   0  0  0  0  0  0  0  0  0  0  0  0
   57.7699   33.5244   51.0975 H   0  0  0  0  0  0  0  0  0  0  0  0
   59.5301   33.1087   51.2043 H   0  0  0  0  0  0  0  0  0  0  0  0
   57.7670   31.3360   49.6140 H   0  0  0  0  0  0  0  0  0  0  0  0
   57.1116   32.4628   47.2570 H   0  0  0  0  0  0  0  0  0  0  0  0
   56.6855   34.0309   45.3813 H   0  0  0  0  0  0  0  0  0  0  0  0
   58.5277   35.4575   44.5063 H   0  0  0  0  0  0  0  0  0  0  0  0
   60.8430   35.1549   45.3555 H   0  0  0  0  0  0  0  0  0  0  0  0
   63.5426   34.1886   47.0315 H   0  0  0  0  0  0  0  0  0  0  0  0
   63.1177   33.0188   45.7362 H   0  0  0  0  0  0  0  0  0  0  0  0
   62.3915   34.6618   45.7362 H   0  0  0  0  0  0  0  0  0  0  0  0
   63.9801   32.9457   48.4145 H   0  0  0  0  0  0  0  0  0  0  0  0
   64.4290   31.2705   50.1825 H   0  0  0  0  0  0  0  0  0  0  0  0
   62.6092   29.7919   50.9996 H   0  0  0  0  0  0  0  0  0  0  0  0
   59.4830   30.0290   51.0530 H   0  0  0  0  0  0  0  0  0  0  0  0
   60.0463   27.7665   49.7824 H   0  0  0  0  0  0  0  0  0  0  0  0
   58.5522   28.6735   49.3051 H   0  0  0  0  0  0  0  0  0  0  0  0
   60.3430   29.9231   47.7180 H   0  0  0  0  0  0  0  0  0  0  0  0
   61.1290   28.2851   47.8586 H   0  0  0  0  0  0  0  0  0  0  0  0
   59.4049   27.1962   46.7738 H   0  0  0  0  0  0  0  0  0  0  0  0
   58.2091   28.5330   47.1816 H   0  0  0  0  0  0  0  0  0  0  0  0
   61.4380   28.5137   45.8424 H   0  0  0  0  0  0  0  0  0  0  0  0
   60.7780   27.7163   44.3744 H   0  0  0  0  0  0  0  0  0  0  0  0
   61.0839   29.4863   44.3744 H   0  0  0  0  0  0  0  0  0  0  0  0
   58.4160   30.5573   46.3487 H   0  0  0  0  0  0  0  0  0  0  0  0
   60.0709   30.8573   45.6406 H   0  0  0  0  0  0  0  0  0  0  0  0
   58.3364   31.9719   44.3073 H   0  0  0  0  0  0  0  0  0  0  0  0
   59.1434   30.6462   43.3799 H   0  0  0  0  0  0  0  0  0  0  0  0
   56.3273   30.8279   44.4436 H   0  0  0  0  0  0  0  0  0  0  0  0
   56.9631   30.1797   42.8677 H   0  0  0  0  0  0  0  0  0  0  0  0
   56.6133   28.8092   45.5163 H   0  0  0  0  0  0  0  0  0  0  0  0
   56.3993   28.1916   43.8319 H   0  0  0  0  0  0  0  0  0  0  0  0
   58.3310   27.1096   44.8922 H   0  0  0  0  0  0  0  0  0  0  0  0
   58.8579   28.2087   43.5371 H   0  0  0  0  0  0  0  0  0  0  0  0
  1  2  1  0
  2  3  1  0
  2  4  1  0
  4  5  1  0
  5  6  1  0
  6  7  1  0
  7  8  2  0
  8  9  1  0
  9 10  2  0
 10 11  1  0
 11 12  2  0
 12 13  1  0
 13 14  2  0
 14 15  1  0
 14 16  1  0
 16 17  2  0
 17 18  1  0
 18 19  2  0
 19 20  1  0
 20 21  1  0
 21 22  1  0
 22 23  1  0
 23 24  1  0
 24 25  1  0
 25 26  1  0
 25 27  1  0
 27 28  1  0
 28 29  1  0
 29 30  1  0
 30 31  1  0
 20 32  2  0
 32  7  1  0
 13  8  1  0
 32 16  1  0
 31 25  1  0
  1 33  1  0
  1 34  1  0
  1 35  1  0
  3 36  1  0
  3 37  1  0
  3 38  1  0
  4 39  1  0
  4 40  1  0
  5 41  1  0
  5 42  1  0
  6 43  1  0
  9 44  1  0
 10 45  1  0
 11 46  1  0
 12 47  1  0
 15 48  1  0
 15 49  1  0
 15 50  1  0
 17 51  1  0
 18 52  1  0
 19 53  1  0
 21 54  1  0
 22 55  1  0
 22 56  1  0
 23 57  1  0
 23 58  1  0
 24 59  1  0
 24 60  1  0
 26 61  1  0
 26 62  1  0
 26 63  1  0
 27 64  1  0
 27 65  1  0
 28 66  1  0
 28 67  1  0
 29 68  1  0
 29 69  1  0
 30 70  1  0
 30 71  1  0
 31 72  1  0
 31 73  1  0
M  CHG  2  14   1  25   1
M  END
>  <UniqueID>  (10) 
10

>  <SMILES>  (10) 
CN(C)CCNc1c2ccccc2[n+](C)c2cccc(NCCC[N+]3(C)CCCCC3)c12

>  <Energy>  (10) 
132.89671583193748

>  <Genealogy>  (10) 
CN(C)CCNc1c2ccccc2[n+](C)c2cccc(NCCC[N+]3(C)CCCCC3)c12 (3D coordinates assigned)
CN(C)CCNc1c2ccccc2[n+](C)c2cccc(NCCC[N+]3(C)CCCCC3)c12 (nonaromatic ring conformer: 132.89671583193748 kcal/mol)

>  <smiles>  (10) 
CN(C)CCNc1c2ccccc2[n+](C)c2cccc(NCCC[N+]3(C)CCCCC3)c12

>  <score_type>  (10) 
oracle

>  <origin>  (10) 
adg

>  <m_score__min__energy>  (10) 
-5.1900000000000004

>  <m_primary>  (10) 
energy

$$$$
10:0
     RDKit          3D

 53 55  0  0  0  0  0  0  0  0999 V2000
   59.0755   33.6492   42.4334 H   0  0  0  0  0  0  0  0  0  0  0  0
   58.4630   33.0440   43.1180 C   0  0  0  0  0  0  0  0  0  0  0  0
   57.9700   31.8060   42.7000 C   0  0  0  0  0  0  0  0  0  0  0  0
   58.1945   31.4432   41.6861 H   0  0  0  0  0  0  0  0  0  0  0  0
   57.1910   31.0220   43.5630 C   0  0  0  0  0  0  0  0  0  0  0  0
   56.6500   29.6970   43.0980 C   0  0  0  0  0  0  0  0  0  0  0  0
   55.5507   29.7242   43.1269 H   0  0  0  0  0  0  0  0  0  0  0  0
   56.9970   29.5109   42.0709 H   0  0  0  0  0  0  0  0  0  0  0  0
   57.1300   28.6140   43.9660 N   0  0  0  0  0  0  0  0  0  0  0  0
   56.8740   27.6940   43.5340 H   0  0  0  0  0  0  0  0  0  0  0  0
   58.5830   28.6890   44.2230 C   0  0  0  0  0  0  0  0  0  0  0  0
   59.1142   28.5646   43.2678 H   0  0  0  0  0  0  0  0  0  0  0  0
   58.7845   29.6680   44.6823 H   0  0  0  0  0  0  0  0  0  0  0  0
   59.0800   27.6110   45.2040 C   0  0  0  0  0  0  0  0  0  0  0  0
   58.2769   26.8749   45.3560 H   0  0  0  0  0  0  0  0  0  0  0  0
   59.9757   27.1469   44.7655 H   0  0  0  0  0  0  0  0  0  0  0  0
   59.4770   28.1960   46.5680 C   0  0  0  0  0  0  0  0  0  0  0  0
   59.2072   27.4766   47.3552 H   0  0  0  0  0  0  0  0  0  0  0  0
   60.5609   28.3834   46.5553 H   0  0  0  0  0  0  0  0  0  0  0  0
   58.7700   29.5250   46.8490 C   0  0  0  0  0  0  0  0  0  0  0  0
   58.0563   29.7376   46.0394 H   0  0  0  0  0  0  0  0  0  0  0  0
   58.2333   29.4562   47.8067 H   0  0  0  0  0  0  0  0  0  0  0  0
   59.7520   30.5990   46.9230 N   0  0  0  0  0  0  0  0  0  0  0  0
   60.0110   31.5220   47.8140 C   0  0  0  0  0  0  0  0  0  0  0  0
   58.9660   31.7800   48.7110 C   0  0  0  0  0  0  0  0  0  0  0  0
   58.0134   31.2412   48.6004 H   0  0  0  0  0  0  0  0  0  0  0  0
   59.1120   32.7040   49.7370 C   0  0  0  0  0  0  0  0  0  0  0  0
   58.2777   32.8895   50.4295 H   0  0  0  0  0  0  0  0  0  0  0  0
   60.2750   33.3770   49.8890 N   0  0  0  0  0  0  0  0  0  0  0  0
   60.3460   34.0590   50.6790 H   0  0  0  0  0  0  0  0  0  0  0  0
   61.3290   33.1880   49.0470 C   0  0  0  0  0  0  0  0  0  0  0  0
   62.5060   33.9260   49.2590 C   0  0  0  0  0  0  0  0  0  0  0  0
   62.5634   34.6297   50.1025 H   0  0  0  0  0  0  0  0  0  0  0  0
   63.5980   33.7750   48.4130 C   0  0  0  0  0  0  0  0  0  0  0  0
   64.5170   34.3528   48.5910 H   0  0  0  0  0  0  0  0  0  0  0  0
   63.5270   32.8930   47.3420 C   0  0  0  0  0  0  0  0  0  0  0  0
   64.3907   32.7803   46.6702 H   0  0  0  0  0  0  0  0  0  0  0  0
   62.3680   32.1480   47.1110 C   0  0  0  0  0  0  0  0  0  0  0  0
   62.3300   31.4621   46.2519 H   0  0  0  0  0  0  0  0  0  0  0  0
   61.2390   32.2590   47.9630 C   0  0  0  0  0  0  0  0  0  0  0  0
   56.9080   31.4970   44.8530 C   0  0  0  0  0  0  0  0  0  0  0  0
   56.2955   30.8916   45.5373 H   0  0  0  0  0  0  0  0  0  0  0  0
   57.4010   32.7360   45.2720 C   0  0  0  0  0  0  0  0  0  0  0  0
   57.1755   33.0975   46.2861 H   0  0  0  0  0  0  0  0  0  0  0  0
   58.1790   33.5210   44.4130 C   0  0  0  0  0  0  0  0  0  0  0  0
   58.6490   34.7560   44.8910 O   0  0  0  0  0  0  0  0  0  0  0  0
   59.7240   34.9350   45.8140 C   0  0  0  0  0  0  0  0  0  0  0  0
   60.2356   35.8834   45.5929 H   0  0  0  0  0  0  0  0  0  0  0  0
   60.4224   34.0914   45.7111 H   0  0  0  0  0  0  0  0  0  0  0  0
   59.2040   34.9690   47.2480 C   0  0  0  0  0  0  0  0  0  0  0  0
   60.0517   34.9136   47.9468 H   0  0  0  0  0  0  0  0  0  0  0  0
   58.6513   35.9052   47.4155 H   0  0  0  0  0  0  0  0  0  0  0  0
   58.5341   34.1127   47.4155 H   0  0  0  0  0  0  0  0  0  0  0  0
  1  2  1  0
  2  3  2  0
  3  4  1  0
  3  5  1  0
  5  6  1  0
  6  7  1  0
  6  8  1  0
  6  9  1  0
  9 10  1  0
  9 11  1  0
 11 12  1  0
 11 13  1  0
 11 14  1  0
 14 15  1  0
 14 16  1  0
 14 17  1  0
 17 18  1  0
 17 19  1  0
 17 20  1  0
 20 21  1  0
 20 22  1  0
 20 23  1  0
 23 24  2  0
 24 25  1  0
 25 26  1  0
 25 27  2  0
 27 28  1  0
 27 29  1  0
 29 30  1  0
 29 31  1  0
 31 32  2  0
 32 33  1  0
 32 34  1  0
 34 35  1  0
 34 36  2  0
 36 37  1  0
 36 38  1  0
 38 39  1  0
 38 40  2  0
  5 41  2  0
 41 42  1  0
 41 43  1  0
 43 44  1  0
 43 45  2  0
 45 46  1  0
 46 47  1  0
 47 48  1  0
 47 49  1  0
 47 50  1  0
 50 51  1  0
 50 52  1  0
 50 53  1  0
 45  2  1  0
 40 24  1  0
 40 31  1  0
M  END
>  <UniqueID>  (11) 
11

>  <SMILES>  (11) 
CCOc1ccc(CNCCCC/N=c2/cc[nH]c3ccccc23)cc1

>  <Energy>  (11) 
67.39399214356757

>  <Genealogy>  (11) 
CCOc1ccc(CNCCCC/N=c2/cc[nH]c3ccccc23)cc1 (cis-trans isomerization)
CCOc1ccc(CNCCCC/N=c2/cc[nH]c3ccccc23)cc1 (3D coordinates assigned)
CCOc1ccc(CNCCCC/N=c2/cc[nH]c3ccccc23)cc1 (optimized conformer: 67.39399214356757 kcal/mol)

>  <smiles>  (11) 
CCOc1ccc(CNCCCCN=c2cc[nH]c3ccccc23)cc1

>  <score_type>  (11) 
oracle

>  <origin>  (11) 
adg

>  <m_score__min__energy>  (11) 
-7.4699999999999998

>  <m_primary>  (11) 
energy

$$$$
11:0
     RDKit          3D

 35 36  0  0  0  0  0  0  0  0999 V2000
   58.5430   29.4640   47.8260 C   0  0  0  0  0  0  0  0  0  0  0  0
   59.1510   29.0290   46.5740 N   0  0  0  0  0  0  0  0  0  0  0  0
   59.4170   29.8020   45.5380 N   0  0  0  0  0  0  0  0  0  0  0  0
   60.0440   29.1000   44.6080 N   0  0  0  0  0  0  0  0  0  0  0  0
   60.2070   27.8530   45.0330 N   0  0  0  0  0  0  0  0  0  0  0  0
   59.6570   27.8240   46.2620 C   0  0  0  0  0  0  0  0  0  0  0  0
   59.6140   26.3720   47.3180 S   0  0  0  0  0  0  0  0  0  0  0  0
   58.0420   25.7320   46.6430 C   0  0  0  0  0  0  0  0  0  0  0  0
   57.6100   26.5360   45.4120 C   0  0  0  0  0  0  0  0  0  0  0  0
   56.3160   27.2850   45.6210 C   0  0  0  0  0  0  0  0  0  0  0  0
   55.3090   26.6990   46.1040 O   0  0  0  0  0  0  0  0  0  0  0  0
   56.1990   28.6650   45.2600 N   0  0  0  0  0  0  0  0  0  0  0  0
   56.6760   29.2230   43.9990 C   0  0  0  0  0  0  0  0  0  0  0  0
   56.5810   30.7510   44.0280 C   0  0  2  0  0  0  0  0  0  0  0  0
   57.3880   31.4040   42.9150 C   0  0  0  0  0  0  0  0  0  0  0  0
   57.8060   32.6990   43.5330 C   0  0  0  0  0  0  0  0  0  0  0  0
   57.8330   32.3790   45.0150 C   0  0  0  0  0  0  0  0  0  0  0  0
   57.0490   31.2340   45.2680 O   0  0  0  0  0  0  0  0  0  0  0  0
   59.1143   29.0553   48.6725 H   0  0  0  0  0  0  0  0  0  0  0  0
   58.5506   30.5629   47.8750 H   0  0  0  0  0  0  0  0  0  0  0  0
   57.5054   29.1020   47.8750 H   0  0  0  0  0  0  0  0  0  0  0  0
   59.1810   30.8160   45.4620 H   0  0  0  0  0  0  0  0  0  0  0  0
   58.1750   24.6782   46.3568 H   0  0  0  0  0  0  0  0  0  0  0  0
   57.2637   25.8243   47.4149 H   0  0  0  0  0  0  0  0  0  0  0  0
   58.4007   27.2623   45.1725 H   0  0  0  0  0  0  0  0  0  0  0  0
   57.4475   25.8207   44.5923 H   0  0  0  0  0  0  0  0  0  0  0  0
   57.7240   28.9269   43.8438 H   0  0  0  0  0  0  0  0  0  0  0  0
   56.0523   28.8399   43.1779 H   0  0  0  0  0  0  0  0  0  0  0  0
   55.5223   31.0105   43.8804 H   0  0  0  0  0  0  0  0  0  0  0  0
   58.2616   30.7919   42.6461 H   0  0  0  0  0  0  0  0  0  0  0  0
   56.8231   31.5277   41.9793 H   0  0  0  0  0  0  0  0  0  0  0  0
   58.8010   33.0039   43.1765 H   0  0  0  0  0  0  0  0  0  0  0  0
   57.1353   33.5342   43.2828 H   0  0  0  0  0  0  0  0  0  0  0  0
   58.8699   32.1891   45.3293 H   0  0  0  0  0  0  0  0  0  0  0  0
   57.4264   33.2312   45.5794 H   0  0  0  0  0  0  0  0  0  0  0  0
  1  2  1  0
  2  3  1  0
  3  4  2  0
  4  5  1  0
  5  6  2  0
  6  7  1  0
  7  8  1  0
  8  9  1  0
  9 10  1  0
 10 11  2  0
 10 12  1  0
 12 13  1  0
 13 14  1  0
 14 15  1  0
 15 16  1  0
 16 17  1  0
 17 18  1  0
  6  2  1  0
 18 14  1  0
  1 19  1  0
  1 20  1  0
  1 21  1  0
  3 22  1  0
  8 23  1  0
  8 24  1  0
  9 25  1  0
  9 26  1  0
 13 27  1  0
 13 28  1  0
 14 29  1  6
 15 30  1  0
 15 31  1  0
 16 32  1  0
 16 33  1  0
 17 34  1  0
 17 35  1  0
M  CHG  2   3   1  12  -1
M  END
>  <UniqueID>  (12) 
12

>  <SMILES>  (12) 
Cn1[nH+]nnc1SCCC(=O)[N-]C[C@@H]1CCCO1

>  <Energy>  (12) 
64.36340253714675

>  <Genealogy>  (12) 
Cn1[nH+]nnc1SCCC(=O)[N-]CC1CCCO1 (protonated)
Cn1[nH+]nnc1SCCC(=O)[N-]C[C@@H]1CCCO1 (chirality)
Cn1[nH+]nnc1SCCC(=O)[N-]C[C@@H]1CCCO1 (3D coordinates assigned)
Cn1[nH+]nnc1SCCC(=O)[N-]C[C@@H]1CCCO1 (nonaromatic ring conformer: 64.36340253714675 kcal/mol)

>  <smiles>  (12) 
Cn1nnnc1SCCC(=O)NCC1CCCO1

>  <score_type>  (12) 
oracle

>  <origin>  (12) 
adg

>  <m_score__min__energy>  (12) 
-9.4100000000000001

>  <m_primary>  (12) 
energy

$$$$
12:0
     RDKit          3D

 47 49  0  0  0  0  0  0  0  0999 V2000
   63.3610   33.8340   46.3760 C   0  0  0  0  0  0  0  0  0  0  0  0
   63.3930   33.8610   47.9020 C   0  0  0  0  0  0  0  0  0  0  0  0
   63.0640   32.5260   48.4480 N   0  0  0  0  0  0  0  0  0  0  0  0
   64.1560   32.0550   49.3210 C   0  0  0  0  0  0  0  0  0  0  0  0
   61.7790   32.5410   49.1880 C   0  0  0  0  0  0  0  0  0  0  0  0
   60.8920   31.3750   48.7280 C   0  0  0  0  0  0  0  0  0  0  0  0
   61.1420   30.9950   47.3250 N   0  0  0  0  0  0  0  0  0  0  0  0
   59.9130   30.9610   46.5400 C   0  0  0  0  0  0  0  0  0  0  0  0
   59.3660   32.1670   46.0160 C   0  0  0  0  0  0  0  0  0  0  0  0
   59.9820   33.4270   46.2390 C   0  0  0  0  0  0  0  0  0  0  0  0
   59.4070   34.6050   45.7680 C   0  0  0  0  0  0  0  0  0  0  0  0
   58.2100   34.5650   45.0710 C   0  0  0  0  0  0  0  0  0  0  0  0
   57.5970   33.3440   44.8110 C   0  0  0  0  0  0  0  0  0  0  0  0
   58.1760   32.1220   45.2390 C   0  0  0  0  0  0  0  0  0  0  0  0
   57.5990   30.9130   44.9200 N   0  0  0  0  0  0  0  0  0  0  0  0
   56.6340   30.8420   43.8000 C   0  0  0  0  0  0  0  0  0  0  0  0
   57.9860   29.7630   45.5770 C   0  0  0  0  0  0  0  0  0  0  0  0
   57.1930   28.5790   45.5360 C   0  0  0  0  0  0  0  0  0  0  0  0
   55.9270   28.5730   45.0490 F   0  0  0  0  0  0  0  0  0  0  0  0
   57.6590   27.3880   46.0850 C   0  0  0  0  0  0  0  0  0  0  0  0
   58.8970   27.3420   46.7030 C   0  0  0  0  0  0  0  0  0  0  0  0
   59.6560   28.4990   46.8350 C   0  0  0  0  0  0  0  0  0  0  0  0
   59.2000   29.7430   46.3260 C   0  0  0  0  0  0  0  0  0  0  0  0
   62.5610   33.1590   46.0379 H   0  0  0  0  0  0  0  0  0  0  0  0
   63.1703   34.8482   45.9952 H   0  0  0  0  0  0  0  0  0  0  0  0
   64.3287   33.4753   45.9952 H   0  0  0  0  0  0  0  0  0  0  0  0
   64.3989   34.1524   48.2384 H   0  0  0  0  0  0  0  0  0  0  0  0
   62.6492   34.5871   48.2619 H   0  0  0  0  0  0  0  0  0  0  0  0
   63.8639   32.1810   50.3740 H   0  0  0  0  0  0  0  0  0  0  0  0
   64.3535   30.9917   49.1200 H   0  0  0  0  0  0  0  0  0  0  0  0
   65.0649   32.6411   49.1200 H   0  0  0  0  0  0  0  0  0  0  0  0
   61.9784   32.4435   50.2654 H   0  0  0  0  0  0  0  0  0  0  0  0
   61.2593   33.4896   48.9881 H   0  0  0  0  0  0  0  0  0  0  0  0
   61.0921   30.5047   49.3703 H   0  0  0  0  0  0  0  0  0  0  0  0
   59.8443   31.7014   48.8044 H   0  0  0  0  0  0  0  0  0  0  0  0
   61.6020   30.0580   47.2980 H   0  0  0  0  0  0  0  0  0  0  0  0
   61.8830   31.5990   46.9140 H   0  0  0  0  0  0  0  0  0  0  0  0
   60.9307   33.4735   46.7939 H   0  0  0  0  0  0  0  0  0  0  0  0
   59.9042   35.5692   45.9497 H   0  0  0  0  0  0  0  0  0  0  0  0
   57.7446   35.4991   44.7233 H   0  0  0  0  0  0  0  0  0  0  0  0
   56.6438   33.3256   44.2623 H   0  0  0  0  0  0  0  0  0  0  0  0
   55.6123   30.7668   44.2005 H   0  0  0  0  0  0  0  0  0  0  0  0
   56.7204   31.7489   43.1835 H   0  0  0  0  0  0  0  0  0  0  0  0
   56.8522   29.9575   43.1835 H   0  0  0  0  0  0  0  0  0  0  0  0
   57.0412   26.4797   46.0277 H   0  0  0  0  0  0  0  0  0  0  0  0
   59.2812   26.3870   47.0907 H   0  0  0  0  0  0  0  0  0  0  0  0
   60.6298   28.4495   47.3442 H   0  0  0  0  0  0  0  0  0  0  0  0
  1  2  1  0
  2  3  1  0
  3  4  1  0
  3  5  1  0
  5  6  1  0
  6  7  1  0
  7  8  1  0
  8  9  2  0
  9 10  1  0
 10 11  2  0
 11 12  1  0
 12 13  2  0
 13 14  1  0
 14 15  2  0
 15 16  1  0
 15 17  1  0
 17 18  2  0
 18 19  1  0
 18 20  1  0
 20 21  2  0
 21 22  1  0
 22 23  2  0
 23  8  1  0
 14  9  1  0
 23 17  1  0
  1 24  1  0
  1 25  1  0
  1 26  1  0
  2 27  1  0
  2 28  1  0
  4 29  1  0
  4 30  1  0
  4 31  1  0
  5 32  1  0
  5 33  1  0
  6 34  1  0
  6 35  1  0
  7 36  1  0
  7 37  1  0
 10 38  1  0
 11 39  1  0
 12 40  1  0
 13 41  1  0
 16 42  1  0
 16 43  1  0
 16 44  1  0
 20 45  1  0
 21 46  1  0
 22 47  1  0
M  CHG  2   7   1  15   1
M  END
>  <UniqueID>  (13) 
13

>  <SMILES>  (13) 
CCN(C)CC[NH2+]c1c2ccccc2[n+](C)c2c(F)cccc12

>  <Energy>  (13) 
80.56092046295446

>  <Genealogy>  (13) 
CCN(C)CC[NH2+]c1c2ccccc2[n+](C)c2c(F)cccc12 (protonated)
CCN(C)CC[NH2+]c1c2ccccc2[n+](C)c2c(F)cccc12 (3D coordinates assigned)
CCN(C)CC[NH2+]c1c2ccccc2[n+](C)c2c(F)cccc12 (optimized conformer: 80.56092046295446 kcal/mol)

>  <smiles>  (13) 
CCN(C)CCNc1c2ccccc2[n+](C)c2c(F)cccc12

>  <score_type>  (13) 
oracle

>  <origin>  (13) 
adg

>  <m_score__min__energy>  (13) 
-3.9399999999999999

>  <m_primary>  (13) 
energy

$$$$
13:0
     RDKit          3D

 42 44  0  0  0  0  0  0  0  0999 V2000
   55.5930   26.9540   45.9770 O   0  0  0  0  0  0  0  0  0  0  0  0
   56.7460   27.4540   45.8650 C   0  0  0  0  0  0  0  0  0  0  0  0
   57.8710   26.9240   46.7180 C   0  0  0  0  0  0  0  0  0  0  0  0
   58.4960   28.0120   47.5990 C   0  0  0  0  0  0  0  0  0  0  0  0
   60.1840   28.4280   47.0320 S   0  0  0  0  0  0  0  0  0  0  0  0
   60.0490   30.1850   47.3790 C   0  0  0  0  0  0  0  0  0  0  0  0
   58.9970   30.6680   48.1690 C   0  0  0  0  0  0  0  0  0  0  0  0
   58.9000   32.0350   48.4450 C   0  0  0  0  0  0  0  0  0  0  0  0
   59.8560   32.9210   47.9410 C   0  0  0  0  0  0  0  0  0  0  0  0
   60.9130   32.4410   47.1620 C   0  0  0  0  0  0  0  0  0  0  0  0
   61.0130   31.0740   46.8850 C   0  0  0  0  0  0  0  0  0  0  0  0
   56.9700   28.5050   44.9030 N   0  0  0  0  0  0  0  0  0  0  0  0
   55.8340   29.3450   44.4920 C   0  0  0  0  0  0  0  0  0  0  0  0
   56.2980   30.5640   43.6780 C   0  0  0  0  0  0  0  0  0  0  0  0
   57.5710   31.1790   44.2900 C   0  0  0  0  0  0  0  0  0  0  0  0
   58.7320   30.1460   44.3250 C   0  0  0  0  0  0  0  0  0  0  0  0
   58.2670   28.6820   44.2350 C   0  0  0  0  0  0  0  0  0  0  0  0
   57.2830   31.5910   45.6130 O   0  0  0  0  0  0  0  0  0  0  0  0
   57.4000   32.9780   45.6210 C   0  0  0  0  0  0  0  0  0  0  0  0
   58.1380   33.3440   44.3730 C   0  0  0  0  0  0  0  0  0  0  0  0
   57.9610   32.2800   43.4940 O   0  0  0  0  0  0  0  0  0  0  0  0
   57.4781   26.1266   47.3660 H   0  0  0  0  0  0  0  0  0  0  0  0
   58.6541   26.5454   46.0446 H   0  0  0  0  0  0  0  0  0  0  0  0
   57.8691   28.9148   47.5542 H   0  0  0  0  0  0  0  0  0  0  0  0
   58.5567   27.6346   48.6305 H   0  0  0  0  0  0  0  0  0  0  0  0
   58.2473   29.9712   48.5720 H   0  0  0  0  0  0  0  0  0  0  0  0
   58.0701   32.4137   49.0597 H   0  0  0  0  0  0  0  0  0  0  0  0
   59.7768   33.9966   48.1573 H   0  0  0  0  0  0  0  0  0  0  0  0
   61.6661   33.1387   46.7669 H   0  0  0  0  0  0  0  0  0  0  0  0
   61.8494   30.6961   46.2786 H   0  0  0  0  0  0  0  0  0  0  0  0
   55.1496   28.7435   43.8757 H   0  0  0  0  0  0  0  0  0  0  0  0
   55.3285   29.7085   45.3989 H   0  0  0  0  0  0  0  0  0  0  0  0
   56.5103   30.2486   42.6458 H   0  0  0  0  0  0  0  0  0  0  0  0
   55.4998   31.3208   43.6910 H   0  0  0  0  0  0  0  0  0  0  0  0
   59.4021   30.3493   43.4767 H   0  0  0  0  0  0  0  0  0  0  0  0
   59.2337   30.2624   45.2970 H   0  0  0  0  0  0  0  0  0  0  0  0
   58.1692   28.3990   43.1765 H   0  0  0  0  0  0  0  0  0  0  0  0
   59.0111   28.0441   44.7344 H   0  0  0  0  0  0  0  0  0  0  0  0
   56.4037   33.4443   45.6250 H   0  0  0  0  0  0  0  0  0  0  0  0
   57.9318   33.3293   46.5176 H   0  0  0  0  0  0  0  0  0  0  0  0
   57.7248   34.2679   43.9422 H   0  0  0  0  0  0  0  0  0  0  0  0
   59.2040   33.5254   44.5750 H   0  0  0  0  0  0  0  0  0  0  0  0
  1  2  2  0
  2  3  1  0
  3  4  1  0
  4  5  1  0
  5  6  1  0
  6  7  2  0
  7  8  1  0
  8  9  2  0
  9 10  1  0
 10 11  2  0
  2 12  1  0
 12 13  1  0
 13 14  1  0
 14 15  1  0
 15 16  1  0
 16 17  1  0
 15 18  1  0
 18 19  1  0
 19 20  1  0
 20 21  1  0
 11  6  1  0
 17 12  1  0
 21 15  1  0
  3 22  1  0
  3 23  1  0
  4 24  1  0
  4 25  1  0
  7 26  1  0
  8 27  1  0
  9 28  1  0
 10 29  1  0
 11 30  1  0
 13 31  1  0
 13 32  1  0
 14 33  1  0
 14 34  1  0
 16 35  1  0
 16 36  1  0
 17 37  1  0
 17 38  1  0
 19 39  1  0
 19 40  1  0
 20 41  1  0
 20 42  1  0
M  END
>  <UniqueID>  (14) 
14

>  <SMILES>  (14) 
O=C(CCSc1ccccc1)N1CCC2(CC1)OCCO2

>  <Energy>  (14) 
37.28750082493224

>  <Genealogy>  (14) 
O=C(CCSc1ccccc1)N1CCC2(CC1)OCCO2 (3D coordinates assigned)
O=C(CCSc1ccccc1)N1CCC2(CC1)OCCO2 (nonaromatic ring conformer: 37.28750082493224 kcal/mol)

>  <smiles>  (14) 
O=C(CCSc1ccccc1)N1CCC2(CC1)OCCO2

>  <score_type>  (14) 
oracle

>  <origin>  (14) 
adg

>  <m_score__min__energy>  (14) 
-7.25

>  <m_primary>  (14) 
energy

$$$$
14:0
     RDKit          3D

 31 32  0  0  0  0  0  0  0  0999 V2000
   59.6430   35.0250   46.0490 C   0  0  0  0  0  0  0  0  0  0  0  0
   60.0360   33.5700   46.3550 C   0  0  0  0  0  0  0  0  0  0  0  0
   61.2790   33.3930   47.1670 N   0  0  1  0  0  0  0  0  0  0  0  0
   62.4940   33.8390   46.4280 C   0  0  0  0  0  0  0  0  0  0  0  0
   63.7660   33.5730   47.2720 C   0  0  0  0  0  0  0  0  0  0  0  0
   63.4000   32.9540   48.5740 N   0  0  1  0  0  0  0  0  0  0  0  0
   64.6150   32.7090   49.3780 C   0  0  0  0  0  0  0  0  0  0  0  0
   62.4790   33.8640   49.3040 C   0  0  0  0  0  0  0  0  0  0  0  0
   61.2070   34.1310   48.4590 C   0  0  0  0  0  0  0  0  0  0  0  0
   62.6960   31.6760   48.3110 C   0  0  0  0  0  0  0  0  0  0  0  0
   61.4250   31.9380   47.4680 C   0  0  0  0  0  0  0  0  0  0  0  0
   59.4955   35.5711   46.9924 H   0  0  0  0  0  0  0  0  0  0  0  0
   60.4433   35.5065   45.4679 H   0  0  0  0  0  0  0  0  0  0  0  0
   58.7091   35.0381   45.4679 H   0  0  0  0  0  0  0  0  0  0  0  0
   59.2044   33.1031   46.9032 H   0  0  0  0  0  0  0  0  0  0  0  0
   60.2444   33.1036   45.3808 H   0  0  0  0  0  0  0  0  0  0  0  0
   62.5655   33.2856   45.4800 H   0  0  0  0  0  0  0  0  0  0  0  0
   62.4158   34.9182   46.2300 H   0  0  0  0  0  0  0  0  0  0  0  0
   64.4317   32.8926   46.7208 H   0  0  0  0  0  0  0  0  0  0  0  0
   64.2772   34.5286   47.4606 H   0  0  0  0  0  0  0  0  0  0  0  0
   64.3633   32.7598   50.4476 H   0  0  0  0  0  0  0  0  0  0  0  0
   65.0156   31.7120   49.1425 H   0  0  0  0  0  0  0  0  0  0  0  0
   65.3707   33.4728   49.1425 H   0  0  0  0  0  0  0  0  0  0  0  0
   62.1901   33.3992   50.2582 H   0  0  0  0  0  0  0  0  0  0  0  0
   62.9921   34.8189   49.4908 H   0  0  0  0  0  0  0  0  0  0  0  0
   60.3221   33.7953   49.0196 H   0  0  0  0  0  0  0  0  0  0  0  0
   61.1357   35.2089   48.2514 H   0  0  0  0  0  0  0  0  0  0  0  0
   63.3649   30.9977   47.7610 H   0  0  0  0  0  0  0  0  0  0  0  0
   62.4072   31.2182   49.2686 H   0  0  0  0  0  0  0  0  0  0  0  0
   61.4977   31.3798   46.5230 H   0  0  0  0  0  0  0  0  0  0  0  0
   60.5469   31.6068   48.0418 H   0  0  0  0  0  0  0  0  0  0  0  0
  1  2  1  0
  3  2  1  6
  3  4  1  0
  4  5  1  0
  5  6  1  0
  6  7  1  1
  6  8  1  0
  8  9  1  0
  6 10  1  0
 10 11  1  0
  9  3  1  0
 11  3  1  0
  1 12  1  0
  1 13  1  0
  1 14  1  0
  2 15  1  0
  2 16  1  0
  4 17  1  0
  4 18  1  0
  5 19  1  0
  5 20  1  0
  7 21  1  0
  7 22  1  0
  7 23  1  0
  8 24  1  0
  8 25  1  0
  9 26  1  0
  9 27  1  0
 10 28  1  0
 10 29  1  0
 11 30  1  0
 11 31  1  0
M  CHG  2   3   1   6   1
M  END
>  <UniqueID>  (15) 
15

>  <SMILES>  (15) 
CC[N+]12CC[N+](C)(CC1)CC2

>  <Energy>  (15) 
52.472949781320075

>  <Genealogy>  (15) 
CC[N+]12CC[N+](C)(CC1)CC2 (3D coordinates assigned)
CC[N+]12CC[N+](C)(CC1)CC2 (nonaromatic ring conformer: 52.472949781320075 kcal/mol)

>  <smiles>  (15) 
CC[N+]12CC[N+](C)(CC1)CC2

>  <score_type>  (15) 
oracle

>  <origin>  (15) 
adg

>  <m_score__min__energy>  (15) 
-1.3600000000000001

>  <m_primary>  (15) 
energy

$$$$
15:0
     RDKit          3D

 53 57  0  0  0  0  0  0  0  0999 V2000
   62.1350   33.4950   47.3310 C   0  0  0  0  0  0  0  0  0  0  0  0
   61.3500   34.1790   48.1690 C   0  0  0  0  0  0  0  0  0  0  0  0
   59.8630   34.2870   47.9460 C   0  0  0  0  0  0  0  0  0  0  0  0
   59.2500   32.9330   47.5950 C   0  0  0  0  0  0  0  0  0  0  0  0
   59.2980   31.8460   48.5110 C   0  0  0  0  0  0  0  0  0  0  0  0
   59.1980   30.5580   48.0380 N   0  0  0  0  0  0  0  0  0  0  0  0
   58.8060   30.3070   46.7580 C   0  0  0  0  0  0  0  0  0  0  0  0
   58.5540   31.3520   45.8600 C   0  0  0  0  0  0  0  0  0  0  0  0
   58.1080   31.0870   44.5450 C   0  0  0  0  0  0  0  0  0  0  0  0
   57.9510   29.7730   44.0850 O   0  0  0  0  0  0  0  0  0  0  0  0
   56.7680   29.3360   43.4180 C   0  0  0  0  0  0  0  0  0  0  0  0
   55.5230   29.8100   44.1580 C   0  0  0  0  0  0  0  0  0  0  0  0
   57.8040   32.1420   43.6750 C   0  0  0  0  0  0  0  0  0  0  0  0
   57.3250   31.8360   42.3920 O   0  0  0  0  0  0  0  0  0  0  0  0
   57.8560   32.3680   41.1830 C   0  0  0  0  0  0  0  0  0  0  0  0
   57.9890   33.4640   44.1060 C   0  0  0  0  0  0  0  0  0  0  0  0
   58.4680   33.7310   45.3870 C   0  0  0  0  0  0  0  0  0  0  0  0
   58.7610   32.6840   46.2840 C   0  0  0  0  0  0  0  0  0  0  0  0
   59.4420   29.4060   48.9300 C   0  0  0  0  0  0  0  0  0  0  0  0
   60.5050   29.7390   49.9860 C   0  0  0  0  0  0  0  0  0  0  0  0
   60.0960   30.9840   50.7170 C   0  0  0  0  0  0  0  0  0  0  0  0
   60.2740   31.0930   52.1130 C   0  0  0  0  0  0  0  0  0  0  0  0
   59.7560   32.2180   52.7450 C   0  0  0  0  0  0  0  0  0  0  0  0
   59.0900   33.1820   52.0640 C   0  0  0  0  0  0  0  0  0  0  0  0
   58.9030   33.1200   50.6860 C   0  0  0  0  0  0  0  0  0  0  0  0
   59.4780   32.0310   49.9840 C   0  0  0  0  0  0  0  0  0  0  0  0
   58.6580   34.1530   52.9460 O   0  0  0  0  0  0  0  0  0  0  0  0
   59.0850   33.7790   54.2630 C   0  0  0  0  0  0  0  0  0  0  0  0
   59.7810   32.5360   54.0890 O   0  0  0  0  0  0  0  0  0  0  0  0
   63.2172   33.4328   47.5183 H   0  0  0  0  0  0  0  0  0  0  0  0
   61.6989   32.9942   46.4540 H   0  0  0  0  0  0  0  0  0  0  0  0
   61.7995   34.6748   49.0420 H   0  0  0  0  0  0  0  0  0  0  0  0
   59.3905   34.6661   48.8641 H   0  0  0  0  0  0  0  0  0  0  0  0
   59.6892   34.9733   47.1041 H   0  0  0  0  0  0  0  0  0  0  0  0
   58.6853   29.2660   46.4238 H   0  0  0  0  0  0  0  0  0  0  0  0
   56.7580   29.7446   42.3968 H   0  0  0  0  0  0  0  0  0  0  0  0
   56.7645   28.2363   43.3905 H   0  0  0  0  0  0  0  0  0  0  0  0
   55.6941   29.7449   45.2427 H   0  0  0  0  0  0  0  0  0  0  0  0
   55.3077   30.8530   43.8827 H   0  0  0  0  0  0  0  0  0  0  0  0
   54.6685   29.1743   43.8827 H   0  0  0  0  0  0  0  0  0  0  0  0
   58.6150   33.1284   41.4192 H   0  0  0  0  0  0  0  0  0  0  0  0
   58.3173   31.5589   40.5978 H   0  0  0  0  0  0  0  0  0  0  0  0
   57.0460   32.8278   40.5978 H   0  0  0  0  0  0  0  0  0  0  0  0
   57.7540   34.2969   43.4270 H   0  0  0  0  0  0  0  0  0  0  0  0
   58.6196   34.7738   45.7027 H   0  0  0  0  0  0  0  0  0  0  0  0
   58.5031   29.1394   49.4373 H   0  0  0  0  0  0  0  0  0  0  0  0
   59.8058   28.5647   48.3219 H   0  0  0  0  0  0  0  0  0  0  0  0
   60.5911   28.9050   50.6980 H   0  0  0  0  0  0  0  0  0  0  0  0
   61.4771   29.8984   49.4966 H   0  0  0  0  0  0  0  0  0  0  0  0
   60.8043   30.3147   52.6814 H   0  0  0  0  0  0  0  0  0  0  0  0
   58.3261   33.8932   50.1575 H   0  0  0  0  0  0  0  0  0  0  0  0
   59.7563   34.5424   54.6831 H   0  0  0  0  0  0  0  0  0  0  0  0
   58.2394   33.6849   54.9603 H   0  0  0  0  0  0  0  0  0  0  0  0
  1  2  2  0
  2  3  1  0
  3  4  1  0
  4  5  2  0
  5  6  1  0
  6  7  2  0
  7  8  1  0
  8  9  2  0
  9 10  1  0
 10 11  1  0
 11 12  1  0
  9 13  1  0
 13 14  1  0
 14 15  1  0
 13 16  2  0
 16 17  1  0
 17 18  2  0
  6 19  1  0
 19 20  1  0
 20 21  1  0
 21 22  2  0
 22 23  1  0
 23 24  2  0
 24 25  1  0
 25 26  2  0
 24 27  1  0
 27 28  1  0
 28 29  1  0
 18  4  1  0
 26 21  1  0
 26  5  1  0
 18  8  1  0
 29 23  1  0
  1 30  1  0
  1 31  1  0
  2 32  1  0
  3 33  1  0
  3 34  1  0
  7 35  1  0
 11 36  1  0
 11 37  1  0
 12 38  1  0
 12 39  1  0
 12 40  1  0
 15 41  1  0
 15 42  1  0
 15 43  1  0
 16 44  1  0
 17 45  1  0
 19 46  1  0
 19 47  1  0
 20 48  1  0
 20 49  1  0
 22 50  1  0
 25 51  1  0
 28 52  1  0
 28 53  1  0
M  CHG  1   6   1
M  END
>  <UniqueID>  (16) 
16

>  <SMILES>  (16) 
C=CCc1c2[n+](cc3c(OCC)c(OC)ccc13)CCc1cc3c(cc1-2)OCO3

>  <Energy>  (16) 
109.06364337491

>  <Genealogy>  (16) 
C=CCc1c2[n+](cc3c(OCC)c(OC)ccc13)CCc1cc3c(cc1-2)OCO3 (3D coordinates assigned)
C=CCc1c2[n+](cc3c(OCC)c(OC)ccc13)CCc1cc3c(cc1-2)OCO3 (nonaromatic ring conformer: 109.06364337491 kcal/mol)

>  <smiles>  (16) 
C=CCc1c2[n+](cc3c(OCC)c(OC)ccc13)CCc1cc3c(cc1-2)OCO3

>  <score_type>  (16) 
oracle

>  <origin>  (16) 
adg

>  <m_score__min__energy>  (16) 
-5.9500000000000002

>  <m_primary>  (16) 
energy

$$$$
16:0
     RDKit          3D

 82 85  0  0  0  0  0  0  0  0999 V2000
   59.2210   32.7960   50.5690 C   0  0  0  0  0  0  0  0  0  0  0  0
   60.4380   33.6290   50.9370 C   0  0  0  0  0  0  0  0  0  0  0  0
   61.3390   33.6440   49.8510 O   0  0  0  0  0  0  0  0  0  0  0  0
   62.5710   34.1970   50.2670 C   0  0  0  0  0  0  0  0  0  0  0  0
   63.6710   33.8360   49.2620 C   0  0  0  0  0  0  0  0  0  0  0  0
   63.2180   33.9340   47.9240 O   0  0  0  0  0  0  0  0  0  0  0  0
   63.6010   32.8060   47.1580 C   0  0  0  0  0  0  0  0  0  0  0  0
   62.6790   31.6110   47.4260 C   0  0  0  0  0  0  0  0  0  0  0  0
   61.4220   32.0350   48.0690 N   0  0  0  0  0  0  0  0  0  0  0  0
   60.2770   31.6550   47.2580 C   0  0  0  0  0  0  0  0  0  0  0  0
   59.6380   32.6350   46.4490 C   0  0  0  0  0  0  0  0  0  0  0  0
   59.9350   34.0190   46.5710 C   0  0  0  0  0  0  0  0  0  0  0  0
   59.2870   34.9660   45.7840 C   0  0  0  0  0  0  0  0  0  0  0  0
   58.3220   34.5700   44.8690 C   0  0  0  0  0  0  0  0  0  0  0  0
   58.0130   33.2230   44.7220 C   0  0  0  0  0  0  0  0  0  0  0  0
   58.6830   32.2290   45.4820 C   0  0  0  0  0  0  0  0  0  0  0  0
   58.4220   30.8940   45.2900 N   0  0  0  0  0  0  0  0  0  0  0  0
   57.7590   30.4490   44.0410 C   0  0  0  0  0  0  0  0  0  0  0  0
   58.8010   29.9720   46.2400 C   0  0  0  0  0  0  0  0  0  0  0  0
   58.2400   28.6710   46.2370 C   0  0  0  0  0  0  0  0  0  0  0  0
   58.6680   27.6990   47.1240 C   0  0  0  0  0  0  0  0  0  0  0  0
   59.6480   27.9940   48.0520 C   0  0  0  0  0  0  0  0  0  0  0  0
   60.1910   29.2830   48.1490 C   0  0  0  0  0  0  0  0  0  0  0  0
   61.1080   29.5290   49.1790 O   0  0  0  0  0  0  0  0  0  0  0  0
   60.9740   29.0390   50.5130 C   0  0  0  0  0  0  0  0  0  0  0  0
   62.3170   28.8480   51.2740 C   0  0  0  0  0  0  0  0  0  0  0  0
   62.9630   30.0690   51.8680 N   0  0  0  0  0  0  0  0  0  0  0  0
   61.9060   30.9870   52.3770 C   0  0  0  0  0  0  0  0  0  0  0  0
   63.7820   29.6310   53.0490 C   0  0  0  0  0  0  0  0  0  0  0  0
   65.2390   29.3130   52.6620 C   0  0  0  0  0  0  0  0  0  0  0  0
   65.9580   30.5260   52.1580 N   0  0  0  0  0  0  0  0  0  0  0  0
   67.0010   30.1000   51.1870 C   0  0  0  0  0  0  0  0  0  0  0  0
   66.6410   31.2020   53.2870 C   0  0  0  0  0  0  0  0  0  0  0  0
   65.0240   31.4970   51.5020 C   0  0  0  0  0  0  0  0  0  0  0  0
   63.8110   30.7900   50.8640 C   0  0  0  0  0  0  0  0  0  0  0  0
   59.7710   30.3110   47.2380 C   0  0  0  0  0  0  0  0  0  0  0  0
   58.7202   32.4532   51.4865 H   0  0  0  0  0  0  0  0  0  0  0  0
   58.5237   33.4071   49.9771 H   0  0  0  0  0  0  0  0  0  0  0  0
   59.5383   31.9248   49.9771 H   0  0  0  0  0  0  0  0  0  0  0  0
   60.1232   34.6575   51.1674 H   0  0  0  0  0  0  0  0  0  0  0  0
   60.9305   33.1922   51.8183 H   0  0  0  0  0  0  0  0  0  0  0  0
   62.4775   35.2913   50.3279 H   0  0  0  0  0  0  0  0  0  0  0  0
   62.8352   33.7907   51.2545 H   0  0  0  0  0  0  0  0  0  0  0  0
   64.5190   34.5226   49.4013 H   0  0  0  0  0  0  0  0  0  0  0  0
   63.9702   32.7933   49.4446 H   0  0  0  0  0  0  0  0  0  0  0  0
   63.5511   33.0645   46.0900 H   0  0  0  0  0  0  0  0  0  0  0  0
   64.6255   32.5246   47.4431 H   0  0  0  0  0  0  0  0  0  0  0  0
   62.4441   31.1189   46.4707 H   0  0  0  0  0  0  0  0  0  0  0  0
   63.1984   30.9183   48.1045 H   0  0  0  0  0  0  0  0  0  0  0  0
   61.4120   33.0540   48.2720 H   0  0  0  0  0  0  0  0  0  0  0  0
   61.3500   31.6150   49.0240 H   0  0  0  0  0  0  0  0  0  0  0  0
   60.6902   34.3475   47.3002 H   0  0  0  0  0  0  0  0  0  0  0  0
   59.5404   36.0314   45.8875 H   0  0  0  0  0  0  0  0  0  0  0  0
   57.8010   35.3229   44.2594 H   0  0  0  0  0  0  0  0  0  0  0  0
   57.2357   32.9220   44.0042 H   0  0  0  0  0  0  0  0  0  0  0  0
   56.8695   29.8520   44.2907 H   0  0  0  0  0  0  0  0  0  0  0  0
   57.4572   31.3282   43.4528 H   0  0  0  0  0  0  0  0  0  0  0  0
   58.4583   29.8367   43.4528 H   0  0  0  0  0  0  0  0  0  0  0  0
   57.4472   28.4284   45.5141 H   0  0  0  0  0  0  0  0  0  0  0  0
   58.2279   26.6914   47.0902 H   0  0  0  0  0  0  0  0  0  0  0  0
   60.0087   27.2036   48.7267 H   0  0  0  0  0  0  0  0  0  0  0  0
   60.3577   29.7525   51.0797 H   0  0  0  0  0  0  0  0  0  0  0  0
   60.5181   28.0411   50.4328 H   0  0  0  0  0  0  0  0  0  0  0  0
   62.1311   28.1416   52.0964 H   0  0  0  0  0  0  0  0  0  0  0  0
   63.0255   28.5041   50.5060 H   0  0  0  0  0  0  0  0  0  0  0  0
   61.9134   30.9806   53.4770 H   0  0  0  0  0  0  0  0  0  0  0  0
   62.1010   32.0072   52.0150 H   0  0  0  0  0  0  0  0  0  0  0  0
   60.9231   30.6510   52.0150 H   0  0  0  0  0  0  0  0  0  0  0  0
   63.7823   30.4366   53.7980 H   0  0  0  0  0  0  0  0  0  0  0  0
   63.3310   28.7113   53.4499 H   0  0  0  0  0  0  0  0  0  0  0  0
   65.7667   28.9285   53.5473 H   0  0  0  0  0  0  0  0  0  0  0  0
   65.2231   28.5653   51.8554 H   0  0  0  0  0  0  0  0  0  0  0  0
   67.8849   29.7390   51.7332 H   0  0  0  0  0  0  0  0  0  0  0  0
   66.6051   29.2915   50.5548 H   0  0  0  0  0  0  0  0  0  0  0  0
   67.2843   30.9544   50.5548 H   0  0  0  0  0  0  0  0  0  0  0  0
   66.2486   30.8136   54.2384 H   0  0  0  0  0  0  0  0  0  0  0  0
   67.7224   31.0086   53.2301 H   0  0  0  0  0  0  0  0  0  0  0  0
   66.4588   32.2853   53.2301 H   0  0  0  0  0  0  0  0  0  0  0  0
   64.6627   32.2089   52.2587 H   0  0  0  0  0  0  0  0  0  0  0  0
   65.5762   32.0127   50.7025 H   0  0  0  0  0  0  0  0  0  0  0  0
   63.1910   31.5445   50.3578 H   0  0  0  0  0  0  0  0  0  0  0  0
   64.1987   30.0398   50.1591 H   0  0  0  0  0  0  0  0  0  0  0  0
  1  2  1  0
  2  3  1  0
  3  4  1  0
  4  5  1  0
  5  6  1  0
  6  7  1  0
  7  8  1  0
  8  9  1  0
  9 10  1  0
 10 11  2  0
 11 12  1  0
 12 13  2  0
 13 14  1  0
 14 15  2  0
 15 16  1  0
 16 17  2  0
 17 18  1  0
 17 19  1  0
 19 20  2  0
 20 21  1  0
 21 22  2  0
 22 23  1  0
 23 24  1  0
 24 25  1  0
 25 26  1  0
 26 27  1  0
 27 28  1  0
 27 29  1  0
 29 30  1  0
 30 31  1  0
 31 32  1  0
 31 33  1  0
 31 34  1  0
 34 35  1  0
 23 36  2  0
 36 10  1  0
 16 11  1  0
 36 19  1  0
 35 27  1  0
  1 37  1  0
  1 38  1  0
  1 39  1  0
  2 40  1  0
  2 41  1  0
  4 42  1  0
  4 43  1  0
  5 44  1  0
  5 45  1  0
  7 46  1  0
  7 47  1  0
  8 48  1  0
  8 49  1  0
  9 50  1  0
  9 51  1  0
 12 52  1  0
 13 53  1  0
 14 54  1  0
 15 55  1  0
 18 56  1  0
 18 57  1  0
 18 58  1  0
 20 59  1  0
 21 60  1  0
 22 61  1  0
 25 62  1  0
 25 63  1  0
 26 64  1  0
 26 65  1  0
 28 66  1  0
 28 67  1  0
 28 68  1  0
 29 69  1  0
 29 70  1  0
 30 71  1  0
 30 72  1  0
 32 73  1  0
 32 74  1  0
 32 75  1  0
 33 76  1  0
 33 77  1  0
 33 78  1  0
 34 79  1  0
 34 80  1  0
 35 81  1  0
 35 82  1  0
M  CHG  4   9   1  17   1  27   1  31   1
M  END
>  <UniqueID>  (17) 
17

>  <SMILES>  (17) 
CCOCCOCC[NH2+]c1c2ccccc2[n+](C)c2cccc(OCC[N+]3(C)CC[N+](C)(C)CC3)c12

>  <Energy>  (17) 
146.623649429628

>  <Genealogy>  (17) 
CCOCCOCC[NH2+]c1c2ccccc2[n+](C)c2cccc(OCC[N+]3(C)CC[N+](C)(C)CC3)c12 (protonated)
CCOCCOCC[NH2+]c1c2ccccc2[n+](C)c2cccc(OCC[N+]3(C)CC[N+](C)(C)CC3)c12 (3D coordinates assigned)
CCOCCOCC[NH2+]c1c2ccccc2[n+](C)c2cccc(OCC[N+]3(C)CC[N+](C)(C)CC3)c12 (nonaromatic ring conformer: 146.623649429628 kcal/mol)

>  <smiles>  (17) 
CCOCCOCCNc1c2ccccc2[n+](C)c2cccc(OCC[N+]3(C)CC[N+](C)(C)CC3)c12

>  <score_type>  (17) 
oracle

>  <origin>  (17) 
adg

>  <m_score__min__energy>  (17) 
-2.3900000000000001

>  <m_primary>  (17) 
energy

$$$$
17:0
     RDKit          3D

 46 48  0  0  0  0  0  0  0  0999 V2000
   63.7370   33.0840   47.0120 C   0  0  0  0  0  0  0  0  0  0  0  0
   62.7980   33.8000   47.9780 C   0  0  0  0  0  0  0  0  0  0  0  0
   61.4350   33.8250   47.4350 N   0  0  0  0  0  0  0  0  0  0  0  0
   60.4170   33.9480   48.4950 C   0  0  0  0  0  0  0  0  0  0  0  0
   58.9800   33.9970   47.9470 C   0  0  0  0  0  0  0  0  0  0  0  0
   58.9640   33.9650   46.4830 N   0  0  0  0  0  0  0  0  0  0  0  0
   59.4220   34.9150   45.6290 C   0  0  0  0  0  0  0  0  0  0  0  0
   59.9880   35.9760   46.0050 O   0  0  0  0  0  0  0  0  0  0  0  0
   59.2080   34.6180   44.3600 O   0  0  0  0  0  0  0  0  0  0  0  0
   58.5960   33.4580   44.3680 C   0  0  0  0  0  0  0  0  0  0  0  0
   58.1390   32.7140   43.2870 C   0  0  0  0  0  0  0  0  0  0  0  0
   57.4900   31.4950   43.5620 C   0  0  0  0  0  0  0  0  0  0  0  0
   57.3120   31.0480   44.8930 C   0  0  0  0  0  0  0  0  0  0  0  0
   56.6530   29.8240   45.0960 O   0  0  0  0  0  0  0  0  0  0  0  0
   57.1340   28.5500   44.6670 C   0  0  0  0  0  0  0  0  0  0  0  0
   58.6650   28.5580   44.5700 C   0  0  0  0  0  0  0  0  0  0  0  0
   59.3250   28.0240   45.8480 C   0  0  0  0  0  0  0  0  0  0  0  0
   59.8020   29.1240   46.6840 N   0  0  0  0  0  0  0  0  0  0  0  0
   59.4590   29.3900   47.9550 C   0  0  0  0  0  0  0  0  0  0  0  0
   60.2000   30.4720   48.3740 C   0  0  0  0  0  0  0  0  0  0  0  0
   61.0070   30.8840   47.3740 N   0  0  0  0  0  0  0  0  0  0  0  0
   60.7370   30.0370   46.3590 C   0  0  0  0  0  0  0  0  0  0  0  0
   57.8020   31.8340   45.9680 C   0  0  0  0  0  0  0  0  0  0  0  0
   58.4370   33.0380   45.6590 C   0  0  0  0  0  0  0  0  0  0  0  0
   64.4849   32.5137   47.5825 H   0  0  0  0  0  0  0  0  0  0  0  0
   63.1570   32.3968   46.3785 H   0  0  0  0  0  0  0  0  0  0  0  0
   64.2462   33.8252   46.3785 H   0  0  0  0  0  0  0  0  0  0  0  0
   62.7954   33.2702   48.9420 H   0  0  0  0  0  0  0  0  0  0  0  0
   63.1474   34.8335   48.1184 H   0  0  0  0  0  0  0  0  0  0  0  0
   61.2720   32.9610   46.8700 H   0  0  0  0  0  0  0  0  0  0  0  0
   60.5059   33.0827   49.1683 H   0  0  0  0  0  0  0  0  0  0  0  0
   60.6014   34.8973   49.0192 H   0  0  0  0  0  0  0  0  0  0  0  0
   58.4214   33.1302   48.3299 H   0  0  0  0  0  0  0  0  0  0  0  0
   58.5159   34.9380   48.2774 H   0  0  0  0  0  0  0  0  0  0  0  0
   58.2792   33.0646   42.2538 H   0  0  0  0  0  0  0  0  0  0  0  0
   57.1157   30.8808   42.7297 H   0  0  0  0  0  0  0  0  0  0  0  0
   56.8212   27.7827   45.3905 H   0  0  0  0  0  0  0  0  0  0  0  0
   56.7160   28.3281   43.6740 H   0  0  0  0  0  0  0  0  0  0  0  0
   58.9704   27.9270   43.7223 H   0  0  0  0  0  0  0  0  0  0  0  0
   58.9909   29.5991   44.4289 H   0  0  0  0  0  0  0  0  0  0  0  0
   58.5896   27.4334   46.4140 H   0  0  0  0  0  0  0  0  0  0  0  0
   60.1838   27.3972   45.5660 H   0  0  0  0  0  0  0  0  0  0  0  0
   58.7179   28.8410   48.5545 H   0  0  0  0  0  0  0  0  0  0  0  0
   60.1429   30.9309   49.3721 H   0  0  0  0  0  0  0  0  0  0  0  0
   61.2264   30.0868   45.3751 H   0  0  0  0  0  0  0  0  0  0  0  0
   57.6852   31.5051   47.0112 H   0  0  0  0  0  0  0  0  0  0  0  0
  1  2  1  0
  2  3  1  0
  3  4  1  0
  4  5  1  0
  5  6  1  0
  6  7  1  0
  7  8  2  0
  7  9  1  0
  9 10  1  0
 10 11  2  0
 11 12  1  0
 12 13  2  0
 13 14  1  0
 14 15  1  0
 15 16  1  0
 16 17  1  0
 17 18  1  0
 18 19  1  0
 19 20  2  0
 20 21  1  0
 21 22  2  0
 13 23  1  0
 23 24  2  0
 24  6  1  0
 24 10  1  0
 22 18  1  0
  1 25  1  0
  1 26  1  0
  1 27  1  0
  2 28  1  0
  2 29  1  0
  3 30  1  0
  4 31  1  0
  4 32  1  0
  5 33  1  0
  5 34  1  0
 11 35  1  0
 12 36  1  0
 15 37  1  0
 15 38  1  0
 16 39  1  0
 16 40  1  0
 17 41  1  0
 17 42  1  0
 19 43  1  0
 20 44  1  0
 22 45  1  0
 23 46  1  0
M  END
>  <UniqueID>  (18) 
18

>  <SMILES>  (18) 
CCNCCn1c(=O)oc2ccc(OCCCn3ccnc3)cc21

>  <Energy>  (18) 
106.12080161061347

>  <Genealogy>  (18) 
CCNCCn1c(=O)oc2ccc(OCCCn3ccnc3)cc21 (3D coordinates assigned)
CCNCCn1c(=O)oc2ccc(OCCCn3ccnc3)cc21 (optimized conformer: 106.12080161061347 kcal/mol)

>  <smiles>  (18) 
CCNCCn1c(=O)oc2ccc(OCCCn3ccnc3)cc21

>  <score_type>  (18) 
oracle

>  <origin>  (18) 
adg

>  <m_score__min__energy>  (18) 
-5.8300000000000001

>  <m_primary>  (18) 
energy

$$$$
18:0
     RDKit          3D

 56 58  0  0  0  0  0  0  0  0999 V2000
   56.3070   29.6150   42.5570 C   0  0  0  0  0  0  0  0  0  0  0  0
   55.5120   29.7280   43.8490 C   0  0  0  0  0  0  0  0  0  0  0  0
   56.3890   30.0510   44.9070 O   0  0  0  0  0  0  0  0  0  0  0  0
   57.6750   30.3710   44.4070 C   0  0  0  0  0  0  0  0  0  0  0  0
   57.8650   31.8880   44.3440 C   0  0  0  0  0  0  0  0  0  0  0  0
   56.6770   32.5700   44.8720 N   0  0  0  0  0  0  0  0  0  0  0  0
   57.0040   33.8930   45.4260 C   0  0  0  0  0  0  0  0  0  0  0  0
   58.2970   33.8790   46.2040 C   0  0  0  0  0  0  0  0  0  0  0  0
   59.4930   34.3430   45.6050 C   0  0  0  0  0  0  0  0  0  0  0  0
   60.6930   34.3580   46.3340 C   0  0  0  0  0  0  0  0  0  0  0  0
   60.6650   33.9090   47.6520 C   0  0  0  0  0  0  0  0  0  0  0  0
   59.5220   33.4690   48.2440 C   0  0  0  0  0  0  0  0  0  0  0  0
   58.3140   33.4400   47.5460 C   0  0  0  0  0  0  0  0  0  0  0  0
   59.7880   33.0550   49.6560 C   0  0  0  0  0  0  0  0  0  0  0  0
   61.2380   33.3230   49.9040 N   0  0  1  0  0  0  0  0  0  0  0  0
   61.9830   32.1050   50.3280 C   0  0  0  0  0  0  0  0  0  0  0  0
   62.4450   31.2430   49.1360 C   0  0  0  0  0  0  0  0  0  0  0  0
   61.3180   30.4790   48.4930 C   0  0  0  0  0  0  0  0  0  0  0  0
   61.1310   30.5220   47.1030 C   0  0  0  0  0  0  0  0  0  0  0  0
   60.0720   29.8280   46.5110 C   0  0  0  0  0  0  0  0  0  0  0  0
   59.1820   29.0790   47.3050 C   0  0  0  0  0  0  0  0  0  0  0  0
   58.1030   28.3680   46.7590 O   0  0  0  0  0  0  0  0  0  0  0  0
   58.2320   27.3190   45.8050 C   0  0  0  0  0  0  0  0  0  0  0  0
   59.3730   29.0390   48.6900 C   0  0  0  0  0  0  0  0  0  0  0  0
   60.4320   29.7320   49.2840 C   0  0  0  0  0  0  0  0  0  0  0  0
   61.7090   33.8260   48.6360 C   0  0  0  0  0  0  0  0  0  0  0  0
   62.8910   34.2100   48.4300 O   0  0  0  0  0  0  0  0  0  0  0  0
   57.3707   29.4638   42.7930 H   0  0  0  0  0  0  0  0  0  0  0  0
   55.9362   28.7605   41.9719 H   0  0  0  0  0  0  0  0  0  0  0  0
   56.1890   30.5389   41.9719 H   0  0  0  0  0  0  0  0  0  0  0  0
   54.7531   30.5176   43.7461 H   0  0  0  0  0  0  0  0  0  0  0  0
   55.0138   28.7705   44.0612 H   0  0  0  0  0  0  0  0  0  0  0  0
   58.4388   29.9380   45.0697 H   0  0  0  0  0  0  0  0  0  0  0  0
   57.7742   29.9583   43.3922 H   0  0  0  0  0  0  0  0  0  0  0  0
   58.7426   32.1695   44.9445 H   0  0  0  0  0  0  0  0  0  0  0  0
   58.0151   32.1878   43.2963 H   0  0  0  0  0  0  0  0  0  0  0  0
   56.2510   31.9790   45.6250 H   0  0  0  0  0  0  0  0  0  0  0  0
   57.0960   34.6113   44.5980 H   0  0  0  0  0  0  0  0  0  0  0  0
   56.1968   34.1803   46.1158 H   0  0  0  0  0  0  0  0  0  0  0  0
   59.4821   34.6938   44.5625 H   0  0  0  0  0  0  0  0  0  0  0  0
   61.6282   34.7141   45.8772 H   0  0  0  0  0  0  0  0  0  0  0  0
   57.3938   33.0825   48.0313 H   0  0  0  0  0  0  0  0  0  0  0  0
   59.1678   33.6427   50.3488 H   0  0  0  0  0  0  0  0  0  0  0  0
   59.5438   31.9943   49.8152 H   0  0  0  0  0  0  0  0  0  0  0  0
   61.3220   34.0880   50.6150 H   0  0  0  0  0  0  0  0  0  0  0  0
   62.8689   32.4164   50.9010 H   0  0  0  0  0  0  0  0  0  0  0  0
   61.2996   31.4928   50.9347 H   0  0  0  0  0  0  0  0  0  0  0  0
   62.8977   31.9023   48.3808 H   0  0  0  0  0  0  0  0  0  0  0  0
   63.1653   30.5063   49.5213 H   0  0  0  0  0  0  0  0  0  0  0  0
   61.8215   31.1050   46.4759 H   0  0  0  0  0  0  0  0  0  0  0  0
   59.9331   29.8670   45.4205 H   0  0  0  0  0  0  0  0  0  0  0  0
   58.3500   26.3592   46.3292 H   0  0  0  0  0  0  0  0  0  0  0  0
   57.3314   27.2841   45.1744 H   0  0  0  0  0  0  0  0  0  0  0  0
   59.1142   27.5033   45.1744 H   0  0  0  0  0  0  0  0  0  0  0  0
   58.6831   28.4564   49.3182 H   0  0  0  0  0  0  0  0  0  0  0  0
   60.5710   29.6915   50.3744 H   0  0  0  0  0  0  0  0  0  0  0  0
  1  2  1  0
  2  3  1  0
  3  4  1  0
  4  5  1  0
  5  6  1  0
  6  7  1  0
  7  8  1  0
  8  9  2  0
  9 10  1  0
 10 11  2  0
 11 12  1  0
 12 13  2  0
 12 14  1  0
 14 15  1  0
 15 16  1  0
 16 17  1  0
 17 18  1  0
 18 19  2  0
 19 20  1  0
 20 21  2  0
 21 22  1  0
 22 23  1  0
 21 24  1  0
 24 25  2  0
 15 26  1  0
 26 27  2  0
 13  8  1  0
 25 18  1  0
 26 11  1  0
  1 28  1  0
  1 29  1  0
  1 30  1  0
  2 31  1  0
  2 32  1  0
  4 33  1  0
  4 34  1  0
  5 35  1  0
  5 36  1  0
  6 37  1  0
  7 38  1  0
  7 39  1  0
  9 40  1  0
 10 41  1  0
 13 42  1  0
 14 43  1  0
 14 44  1  0
 15 45  1  1
 16 46  1  0
 16 47  1  0
 17 48  1  0
 17 49  1  0
 19 50  1  0
 20 51  1  0
 23 52  1  0
 23 53  1  0
 23 54  1  0
 24 55  1  0
 25 56  1  0
M  CHG  1  15   1
M  END
>  <UniqueID>  (19) 
19

>  <SMILES>  (19) 
CCOCCNCc1ccc2c(c1)C[N@@H+](CCc1ccc(OC)cc1)C2=O

>  <Energy>  (19) 
73.74014169365212

>  <Genealogy>  (19) 
CCOCCNCc1ccc2c(c1)C[NH+](CCc1ccc(OC)cc1)C2=O (protonated)
CCOCCNCc1ccc2c(c1)C[N@@H+](CCc1ccc(OC)cc1)C2=O (chirality)
CCOCCNCc1ccc2c(c1)C[N@@H+](CCc1ccc(OC)cc1)C2=O (3D coordinates assigned)
CCOCCNCc1ccc2c(c1)C[N@@H+](CCc1ccc(OC)cc1)C2=O (nonaromatic ring conformer: 73.74014169365212 kcal/mol)

>  <smiles>  (19) 
CCOCCNCc1ccc2c(c1)CN(CCc1ccc(OC)cc1)C2=O

>  <score_type>  (19) 
oracle

>  <origin>  (19) 
adg

>  <m_score__min__energy>  (19) 
-6.5800000000000001

>  <m_primary>  (19) 
energy

$$$$
