0:0
     RDKit          3D

 57 60  0  0  0  0  0  0  0  0999 V2000
   58.9640   27.8600   44.5400 C   0  0  0  0  0  0  0  0  0  0  0  0
   58.6800   28.6200   45.7100 O   0  0  0  0  0  0  0  0  0  0  0  0
   58.8400   30.0080   45.8200 C   0  0  0  0  0  0  0  0  0  0  0  0
   60.0090   30.5640   46.3740 C   0  0  0  0  0  0  0  0  0  0  0  0
   60.1840   31.9550   46.4400 C   0  0  0  0  0  0  0  0  0  0  0  0
   61.3710   32.5140   47.0310 N   0  0  0  0  0  0  0  0  0  0  0  0
   62.1480   33.4150   46.4550 N   0  0  0  0  0  0  0  0  0  0  0  0
   63.1590   33.6910   47.2620 N   0  0  0  0  0  0  0  0  0  0  0  0
   62.9670   32.9140   48.3500 C   0  0  0  0  0  0  0  0  0  0  0  0
   63.8560   32.9090   49.5390 C   0  0  0  0  0  0  0  0  0  0  0  0
   65.2460   33.0600   49.3510 C   0  0  0  0  0  0  0  0  0  0  0  0
   66.1150   33.0870   50.4430 C   0  0  0  0  0  0  0  0  0  0  0  0
   65.6130   32.9680   51.7410 C   0  0  0  0  0  0  0  0  0  0  0  0
   64.2420   32.8050   51.9490 C   0  0  0  0  0  0  0  0  0  0  0  0
   63.3580   32.7660   50.8620 C   0  0  0  0  0  0  0  0  0  0  0  0
   61.9630   32.5470   51.1210 N   0  0  0  0  0  0  0  0  0  0  0  0
   61.5290   31.1730   51.4410 C   0  0  0  0  0  0  0  0  0  0  0  0
   60.5030   30.6070   50.4440 C   0  0  0  0  0  0  0  0  0  0  0  0
   59.0330   30.9880   50.7410 C   0  0  0  0  0  0  0  0  0  0  0  0
   58.7620   32.4740   51.0330 C   0  0  0  0  0  0  0  0  0  0  0  0
   59.7520   33.4460   50.3600 C   0  0  0  0  0  0  0  0  0  0  0  0
   61.0530   33.7070   51.1410 C   0  0  0  0  0  0  0  0  0  0  0  0
   61.8500   32.1750   48.2170 N   0  0  0  0  0  0  0  0  0  0  0  0
   59.1770   32.7940   45.9460 C   0  0  0  0  0  0  0  0  0  0  0  0
   57.9940   32.2580   45.4090 C   0  0  0  0  0  0  0  0  0  0  0  0
   56.9550   33.0770   44.9410 O   0  0  0  0  0  0  0  0  0  0  0  0
   57.0200   34.4970   44.8600 C   0  0  0  0  0  0  0  0  0  0  0  0
   57.8170   30.8690   45.3530 C   0  0  0  0  0  0  0  0  0  0  0  0
   56.6030   30.3960   44.8210 O   0  0  0  0  0  0  0  0  0  0  0  0
   56.3860   30.0710   43.4470 C   0  0  0  0  0  0  0  0  0  0  0  0
   59.3355   26.8660   44.8297 H   0  0  0  0  0  0  0  0  0  0  0  0
   58.0467   27.7490   43.9432 H   0  0  0  0  0  0  0  0  0  0  0  0
   59.7293   28.3778   43.9432 H   0  0  0  0  0  0  0  0  0  0  0  0
   60.7957   29.8992   46.7603 H   0  0  0  0  0  0  0  0  0  0  0  0
   65.6495   33.1576   48.3324 H   0  0  0  0  0  0  0  0  0  0  0  0
   67.1969   33.2022   50.2811 H   0  0  0  0  0  0  0  0  0  0  0  0
   66.2987   33.0027   52.6005 H   0  0  0  0  0  0  0  0  0  0  0  0
   63.8529   32.7065   52.9732 H   0  0  0  0  0  0  0  0  0  0  0  0
   62.4135   30.5190   51.4397 H   0  0  0  0  0  0  0  0  0  0  0  0
   61.0389   31.2088   52.4251 H   0  0  0  0  0  0  0  0  0  0  0  0
   60.7577   30.9807   49.4413 H   0  0  0  0  0  0  0  0  0  0  0  0
   60.5622   29.5117   50.5262 H   0  0  0  0  0  0  0  0  0  0  0  0
   58.4291   30.7022   49.8671 H   0  0  0  0  0  0  0  0  0  0  0  0
   58.7717   30.4538   51.6664 H   0  0  0  0  0  0  0  0  0  0  0  0
   57.7488   32.7150   50.6790 H   0  0  0  0  0  0  0  0  0  0  0  0
   58.8799   32.6073   52.1185 H   0  0  0  0  0  0  0  0  0  0  0  0
   60.0228   33.0295   49.3786 H   0  0  0  0  0  0  0  0  0  0  0  0
   59.2339   34.4145   50.3006 H   0  0  0  0  0  0  0  0  0  0  0  0
   61.5685   34.5682   50.6909 H   0  0  0  0  0  0  0  0  0  0  0  0
   60.7816   33.9023   52.1890 H   0  0  0  0  0  0  0  0  0  0  0  0
   59.3137   33.8850   45.9787 H   0  0  0  0  0  0  0  0  0  0  0  0
   57.0394   34.9216   45.8746 H   0  0  0  0  0  0  0  0  0  0  0  0
   57.9326   34.7922   44.3214 H   0  0  0  0  0  0  0  0  0  0  0  0
   56.1382   34.8743   44.3214 H   0  0  0  0  0  0  0  0  0  0  0  0
   55.7764   29.1580   43.3780 H   0  0  0  0  0  0  0  0  0  0  0  0
   55.8603   30.9011   42.9525 H   0  0  0  0  0  0  0  0  0  0  0  0
   57.3542   29.9036   42.9525 H   0  0  0  0  0  0  0  0  0  0  0  0
  1  2  1  0
  2  3  1  0
  3  4  2  0
  4  5  1  0
  5  6  1  0
  6  7  1  0
  7  8  2  0
  8  9  1  0
  9 10  1  0
 10 11  2  0
 11 12  1  0
 12 13  2  0
 13 14  1  0
 14 15  2  0
 15 16  1  0
 16 17  1  0
 17 18  1  0
 18 19  1  0
 19 20  1  0
 20 21  1  0
 21 22  1  0
  9 23  2  0
  5 24  2  0
 24 25  1  0
 25 26  1  0
 26 27  1  0
 25 28  2  0
 28 29  1  0
 29 30  1  0
 28  3  1  0
 23  6  1  0
 15 10  1  0
 22 16  1  0
  1 31  1  0
  1 32  1  0
  1 33  1  0
  4 34  1  0
 11 35  1  0
 12 36  1  0
 13 37  1  0
 14 38  1  0
 17 39  1  0
 17 40  1  0
 18 41  1  0
 18 42  1  0
 19 43  1  0
 19 44  1  0
 20 45  1  0
 20 46  1  0
 21 47  1  0
 21 48  1  0
 22 49  1  0
 22 50  1  0
 24 51  1  0
 27 52  1  0
 27 53  1  0
 27 54  1  0
 30 55  1  0
 30 56  1  0
 30 57  1  0
M  END
>  <UniqueID>  (1) 
1

>  <SMILES>  (1) 
COc1cc(-n2nnc(-c3ccccc3N3CCCCCC3)n2)cc(OC)c1OC

>  <Energy>  (1) 
112.07843671300566

>  <Genealogy>  (1) 
COc1cc(-n2nnc(-c3ccccc3N3CCCCCC3)n2)cc(OC)c1OC (3D coordinates assigned)
COc1cc(-n2nnc(-c3ccccc3N3CCCCCC3)n2)cc(OC)c1OC (nonaromatic ring conformer: 112.07843671300566 kcal/mol)

>  <smiles>  (1) 
COc1cc(-n2nnc(-c3ccccc3N3CCCCCC3)n2)cc(OC)c1OC

>  <score_type>  (1) 
oracle

>  <origin>  (1) 
adg

>  <m_score__min__energy>  (1) 
-6.29

>  <m_primary>  (1) 
energy

$$$$
1:0
     RDKit          3D

 56 59  0  0  1  0  0  0  0  0999 V2000
   55.9970   23.2810   43.0000 C   0  0  0  0  0  0  0  0  0  0  0  0
   56.2780   22.0830   43.7510 N   0  0  0  0  0  0  0  0  0  0  0  0
   57.0590   21.1540   43.0040 C   0  0  0  0  0  0  0  0  0  0  0  0
   56.8080   22.3700   45.0650 C   0  0  0  0  0  0  0  0  0  0  0  0
   58.0250   23.2910   44.9570 C   0  0  0  0  0  0  0  0  0  0  0  0
   57.7240   24.5130   45.6290 N   0  0  0  0  0  0  0  0  0  0  0  0
   57.2250   24.3710   46.9580 C   0  0  0  0  0  0  0  0  0  0  0  0
   58.7380   25.5180   45.5670 C   0  0  0  0  0  0  0  0  0  0  0  0
   58.2420   26.8900   45.3160 C   0  0  0  0  0  0  0  0  0  0  0  0
   58.2320   27.7510   46.4110 C   0  0  0  0  0  0  0  0  0  0  0  0
   57.7760   29.0240   46.1920 C   0  0  0  0  0  0  0  0  0  0  0  0
   57.3330   29.4790   44.9540 C   0  0  0  0  0  0  0  0  0  0  0  0
   56.8920   30.8170   44.8950 N   0  0  0  0  0  0  0  0  0  0  0  0
   57.5680   31.8480   45.1940 C   0  0  0  0  0  0  0  0  0  0  0  0
   58.2550   31.9570   46.3420 N   0  0  0  0  0  0  0  0  0  0  0  0
   58.9090   33.0990   46.5720 C   0  0  0  0  0  0  0  0  0  0  0  0
   59.6940   33.2490   47.7860 C   0  0  0  0  0  0  0  0  0  0  0  0
   59.2650   33.3850   49.0730 C   0  0  0  0  0  0  0  0  0  0  0  0
   60.3890   33.4660   49.8350 N   0  0  0  0  0  0  0  0  0  0  0  0
   61.4670   33.3840   49.0680 N   0  0  0  0  0  0  0  0  0  0  0  0
   62.7960   33.4230   49.3730 C   0  0  0  0  0  0  0  0  0  0  0  0
   63.7390   33.3230   48.3600 C   0  0  0  0  0  0  0  0  0  0  0  0
   63.3700   33.1830   47.0380 C   0  0  0  0  0  0  0  0  0  0  0  0
   62.0250   33.1480   46.7650 C   0  0  0  0  0  0  0  0  0  0  0  0
   61.0830   33.2470   47.7680 C   0  0  0  0  0  0  0  0  0  0  0  0
   58.9240   34.1780   45.6970 C   0  0  0  0  0  0  0  0  0  0  0  0
   59.8000   35.6560   46.0470 Cl  0  0  0  0  0  0  0  0  0  0  0  0
   58.2050   34.0230   44.5280 C   0  0  0  0  0  0  0  0  0  0  0  0
   57.5490   32.8760   44.2980 N   0  0  0  0  0  0  0  0  0  0  0  0
   57.3620   28.5960   43.9060 C   0  0  0  0  0  0  0  0  0  0  0  0
   57.8150   27.3240   44.1140 N   0  0  0  0  0  0  0  0  0  0  0  0
   55.8022   24.1117   43.6942 H   0  0  0  0  0  0  0  0  0  0  0  0
   56.8616   23.5278   42.3664 H   0  0  0  0  0  0  0  0  0  0  0  0
   55.1128   23.1176   42.3664 H   0  0  0  0  0  0  0  0  0  0  0  0
   57.6097   20.4989   43.6950 H   0  0  0  0  0  0  0  0  0  0  0  0
   56.3976   20.5451   42.3702 H   0  0  0  0  0  0  0  0  0  0  0  0
   57.7725   21.7010   42.3702 H   0  0  0  0  0  0  0  0  0  0  0  0
   56.0323   22.8629   45.6694 H   0  0  0  0  0  0  0  0  0  0  0  0
   57.1141   21.4269   45.5413 H   0  0  0  0  0  0  0  0  0  0  0  0
   58.8963   22.8125   45.4280 H   0  0  0  0  0  0  0  0  0  0  0  0
   58.2585   23.4876   43.9002 H   0  0  0  0  0  0  0  0  0  0  0  0
   58.0259   24.5989   47.6767 H   0  0  0  0  0  0  0  0  0  0  0  0
   56.3863   25.0661   47.1110 H   0  0  0  0  0  0  0  0  0  0  0  0
   56.8780   23.3384   47.1110 H   0  0  0  0  0  0  0  0  0  0  0  0
   59.2765   25.5196   46.5262 H   0  0  0  0  0  0  0  0  0  0  0  0
   59.3764   25.2593   44.7093 H   0  0  0  0  0  0  0  0  0  0  0  0
   58.5740   27.4243   47.4041 H   0  0  0  0  0  0  0  0  0  0  0  0
   57.7592   29.7240   47.0403 H   0  0  0  0  0  0  0  0  0  0  0  0
   58.2230   33.4217   49.4235 H   0  0  0  0  0  0  0  0  0  0  0  0
   63.1191   33.5334   50.4187 H   0  0  0  0  0  0  0  0  0  0  0  0
   64.8079   33.3562   48.6175 H   0  0  0  0  0  0  0  0  0  0  0  0
   64.1205   33.1029   46.2378 H   0  0  0  0  0  0  0  0  0  0  0  0
   61.6908   33.0385   45.7227 H   0  0  0  0  0  0  0  0  0  0  0  0
   58.1705   34.8368   43.7887 H   0  0  0  0  0  0  0  0  0  0  0  0
   57.0000   32.7730   43.3930 H   0  0  0  0  0  0  0  0  0  0  0  0
   57.0238   28.9086   42.9070 H   0  0  0  0  0  0  0  0  0  0  0  0
  1  2  1  0
  2  3  1  0
  2  4  1  0
  4  5  1  0
  5  6  1  0
  6  7  1  0
  6  8  1  0
  8  9  1  0
  9 10  2  0
 10 11  1  0
 11 12  2  0
 12 13  1  0
 13 14  2  0
 14 15  1  0
 15 16  2  0
 16 17  1  0
 17 18  1  0
 18 19  2  0
 19 20  1  0
 20 21  1  0
 21 22  2  0
 22 23  1  0
 23 24  2  0
 24 25  1  0
 16 26  1  0
 26 27  1  0
 26 28  2  0
 28 29  1  0
 12 30  1  0
 30 31  2  0
 31  9  1  0
 29 14  1  0
 25 17  2  0
 25 20  1  0
  1 32  1  0
  1 33  1  0
  1 34  1  0
  3 35  1  0
  3 36  1  0
  3 37  1  0
  4 38  1  0
  4 39  1  0
  5 40  1  0
  5 41  1  0
  7 42  1  0
  7 43  1  0
  7 44  1  0
  8 45  1  0
  8 46  1  0
 10 47  1  0
 11 48  1  0
 18 49  1  0
 21 50  1  0
 22 51  1  0
 23 52  1  0
 24 53  1  0
 28 54  1  0
 29 55  1  0
 30 56  1  0
M  END
>  <smiles>  (2) 
CN(C)CCN(C)Cc1ccc(N=c2nc(-c3cnn4ccccc34)c(Cl)c[nH]2)cn1

>  <score_type>  (2) 
oracle

>  <origin>  (2) 
adg

>  <m_score__min__energy>  (2) 
-8.6300000000000008

>  <m_primary>  (2) 
energy

$$$$
2:0
     RDKit          3D

 48 50  0  0  0  0  0  0  0  0999 V2000
   58.9360   34.9060   45.0220 C   0  0  0  0  0  0  0  0  0  0  0  0
   57.6770   34.0560   44.8890 C   0  0  0  0  0  0  0  0  0  0  0  0
   58.0220   32.6500   44.6230 N   0  0  0  0  0  0  0  0  0  0  0  0
   57.7630   32.0990   43.2830 C   0  0  0  0  0  0  0  0  0  0  0  0
   56.9170   30.8300   43.3690 C   0  0  0  0  0  0  0  0  0  0  0  0
   58.6370   31.8120   45.6300 C   0  0  0  0  0  0  0  0  0  0  0  0
   59.1590   30.7160   45.2850 O   0  0  0  0  0  0  0  0  0  0  0  0
   58.6620   32.2080   47.0880 C   0  0  0  0  0  0  0  0  0  0  0  0
   59.9300   31.8380   47.7280 N   0  0  0  0  0  0  0  0  0  0  0  0
   60.1710   30.8180   48.6010 C   0  0  0  0  0  0  0  0  0  0  0  0
   58.9470   29.6080   49.1210 S   0  0  0  0  0  0  0  0  0  0  0  0
   59.7260   28.1930   48.2680 C   0  0  0  0  0  0  0  0  0  0  0  0
   59.2160   28.0420   46.8590 C   0  0  0  0  0  0  0  0  0  0  0  0
   57.8340   28.0100   46.6020 C   0  0  0  0  0  0  0  0  0  0  0  0
   57.3630   27.9010   45.2900 C   0  0  0  0  0  0  0  0  0  0  0  0
   58.2640   27.8480   44.2240 C   0  0  0  0  0  0  0  0  0  0  0  0
   59.6390   27.9010   44.4690 C   0  0  0  0  0  0  0  0  0  0  0  0
   60.1160   27.9970   45.7800 C   0  0  0  0  0  0  0  0  0  0  0  0
   61.4760   30.7360   48.9650 N   0  0  0  0  0  0  0  0  0  0  0  0
   62.0600   31.7360   48.2910 C   0  0  0  0  0  0  0  0  0  0  0  0
   63.3760   32.0610   48.2910 N   0  0  0  0  0  0  0  0  0  0  0  0
   63.7960   33.1030   47.5090 C   0  0  0  0  0  0  0  0  0  0  0  0
   62.8740   33.8190   46.7080 C   0  0  0  0  0  0  0  0  0  0  0  0
   61.5140   33.4600   46.7150 C   0  0  0  0  0  0  0  0  0  0  0  0
   61.1400   32.4000   47.5380 C   0  0  0  0  0  0  0  0  0  0  0  0
   59.1638   35.0598   46.0871 H   0  0  0  0  0  0  0  0  0  0  0  0
   59.7788   34.3913   44.5374 H   0  0  0  0  0  0  0  0  0  0  0  0
   58.7737   35.8801   44.5374 H   0  0  0  0  0  0  0  0  0  0  0  0
   57.1011   34.1154   45.8243 H   0  0  0  0  0  0  0  0  0  0  0  0
   57.0805   34.4382   44.0475 H   0  0  0  0  0  0  0  0  0  0  0  0
   57.2271   32.8490   42.6827 H   0  0  0  0  0  0  0  0  0  0  0  0
   58.7260   31.8480   42.8143 H   0  0  0  0  0  0  0  0  0  0  0  0
   56.7463   30.5740   44.4251 H   0  0  0  0  0  0  0  0  0  0  0  0
   55.9504   30.9993   42.8719 H   0  0  0  0  0  0  0  0  0  0  0  0
   57.4450   30.0029   42.8719 H   0  0  0  0  0  0  0  0  0  0  0  0
   58.5284   33.2972   47.1642 H   0  0  0  0  0  0  0  0  0  0  0  0
   57.8490   31.6749   47.6027 H   0  0  0  0  0  0  0  0  0  0  0  0
   60.8143   28.3500   48.2382 H   0  0  0  0  0  0  0  0  0  0  0  0
   59.4747   27.2774   48.8234 H   0  0  0  0  0  0  0  0  0  0  0  0
   57.1202   28.0710   47.4368 H   0  0  0  0  0  0  0  0  0  0  0  0
   56.2810   27.8569   45.0970 H   0  0  0  0  0  0  0  0  0  0  0  0
   57.8916   27.7646   43.1923 H   0  0  0  0  0  0  0  0  0  0  0  0
   60.3477   27.8671   43.6284 H   0  0  0  0  0  0  0  0  0  0  0  0
   61.1991   28.0374   45.9676 H   0  0  0  0  0  0  0  0  0  0  0  0
   61.9260   30.0360   49.5970 H   0  0  0  0  0  0  0  0  0  0  0  0
   64.8588   33.3864   47.5029 H   0  0  0  0  0  0  0  0  0  0  0  0
   63.2204   34.6542   46.0816 H   0  0  0  0  0  0  0  0  0  0  0  0
   60.7770   33.9936   46.0969 H   0  0  0  0  0  0  0  0  0  0  0  0
  1  2  1  0
  2  3  1  0
  3  4  1  0
  4  5  1  0
  3  6  1  0
  6  7  2  0
  6  8  1  0
  8  9  1  0
  9 10  1  0
 10 11  1  0
 11 12  1  0
 12 13  1  0
 13 14  2  0
 14 15  1  0
 15 16  2  0
 16 17  1  0
 17 18  2  0
 10 19  2  0
 19 20  1  0
 20 21  2  0
 21 22  1  0
 22 23  2  0
 23 24  1  0
 24 25  2  0
 25  9  1  0
 18 13  1  0
 25 20  1  0
  1 26  1  0
  1 27  1  0
  1 28  1  0
  2 29  1  0
  2 30  1  0
  4 31  1  0
  4 32  1  0
  5 33  1  0
  5 34  1  0
  5 35  1  0
  8 36  1  0
  8 37  1  0
 12 38  1  0
 12 39  1  0
 14 40  1  0
 15 41  1  0
 16 42  1  0
 17 43  1  0
 18 44  1  0
 19 45  1  0
 22 46  1  0
 23 47  1  0
 24 48  1  0
M  CHG  1  19   1
M  END
>  <UniqueID>  (3) 
2

>  <SMILES>  (3) 
CCN(CC)C(=O)Cn1c(SCc2ccccc2)[nH+]c2ncccc21

>  <Energy>  (3) 
77.7339724172792

>  <Genealogy>  (3) 
CCN(CC)C(=O)Cn1c(SCc2ccccc2)[nH+]c2ncccc21 (protonated)
CCN(CC)C(=O)Cn1c(SCc2ccccc2)[nH+]c2ncccc21 (3D coordinates assigned)
CCN(CC)C(=O)Cn1c(SCc2ccccc2)[nH+]c2ncccc21 (optimized conformer: 77.7339724172792 kcal/mol)

>  <smiles>  (3) 
CCN(CC)C(=O)Cn1c(SCc2ccccc2)nc2ncccc21

>  <score_type>  (3) 
oracle

>  <origin>  (3) 
adg

>  <m_score__min__energy>  (3) 
-5.7800000000000002

>  <m_primary>  (3) 
energy

$$$$
3:0
     RDKit          3D

 30 32  0  0  0  0  0  0  0  0999 V2000
   60.6850   34.2130   47.7780 C   0  0  0  0  0  0  0  0  0  0  0  0
   59.6860   33.7050   46.8220 N   0  0  0  0  0  0  0  0  0  0  0  0
   58.8590   34.6130   46.2210 C   0  0  0  0  0  0  0  0  0  0  0  0
   57.9130   34.2100   45.2900 C   0  0  0  0  0  0  0  0  0  0  0  0
   57.7770   32.8640   44.9820 C   0  0  0  0  0  0  0  0  0  0  0  0
   58.5810   31.8990   45.6180 C   0  0  0  0  0  0  0  0  0  0  0  0
   58.4500   30.5020   45.3510 C   0  0  0  0  0  0  0  0  0  0  0  0
   59.4230   29.6120   45.8590 C   0  0  0  0  0  0  0  0  0  0  0  0
   60.4100   30.0750   46.7290 C   0  0  0  0  0  0  0  0  0  0  0  0
   60.4810   31.4190   47.0720 C   0  0  0  0  0  0  0  0  0  0  0  0
   59.5880   32.3590   46.5200 C   0  0  0  0  0  0  0  0  0  0  0  0
   59.3710   28.1410   45.5240 C   0  0  0  0  0  0  0  0  0  0  0  0
   58.8080   27.9340   44.1180 C   0  0  0  0  0  0  0  0  0  0  0  0
   57.3970   28.5170   44.0110 C   0  0  0  0  0  0  0  0  0  0  0  0
   57.3070   29.9050   44.5900 C   0  0  0  0  0  0  0  0  0  0  0  0
   56.1930   30.4910   44.5310 O   0  0  0  0  0  0  0  0  0  0  0  0
   60.3337   34.0344   48.8050 H   0  0  0  0  0  0  0  0  0  0  0  0
   61.6407   33.6914   47.6214 H   0  0  0  0  0  0  0  0  0  0  0  0
   60.8265   35.2926   47.6214 H   0  0  0  0  0  0  0  0  0  0  0  0
   58.9451   35.6787   46.4796 H   0  0  0  0  0  0  0  0  0  0  0  0
   57.2721   34.9558   44.7970 H   0  0  0  0  0  0  0  0  0  0  0  0
   57.0345   32.5481   44.2344 H   0  0  0  0  0  0  0  0  0  0  0  0
   61.1406   29.3676   47.1483 H   0  0  0  0  0  0  0  0  0  0  0  0
   61.2469   31.7552   47.7863 H   0  0  0  0  0  0  0  0  0  0  0  0
   60.3869   27.7221   45.5729 H   0  0  0  0  0  0  0  0  0  0  0  0
   58.7173   27.6331   46.2484 H   0  0  0  0  0  0  0  0  0  0  0  0
   59.4623   28.4350   43.3893 H   0  0  0  0  0  0  0  0  0  0  0  0
   58.7623   26.8548   43.9098 H   0  0  0  0  0  0  0  0  0  0  0  0
   57.1102   28.5570   42.9498 H   0  0  0  0  0  0  0  0  0  0  0  0
   56.7199   27.8679   44.5856 H   0  0  0  0  0  0  0  0  0  0  0  0
  1  2  1  0
  2  3  2  0
  3  4  1  0
  4  5  2  0
  5  6  1  0
  6  7  2  0
  7  8  1  0
  8  9  2  0
  9 10  1  0
 10 11  2  0
  8 12  1  0
 12 13  1  0
 13 14  1  0
 14 15  1  0
 15 16  2  0
 11  2  1  0
 11  6  1  0
 15  7  1  0
  1 17  1  0
  1 18  1  0
  1 19  1  0
  3 20  1  0
  4 21  1  0
  5 22  1  0
  9 23  1  0
 10 24  1  0
 12 25  1  0
 12 26  1  0
 13 27  1  0
 13 28  1  0
 14 29  1  0
 14 30  1  0
M  CHG  1   2   1
M  END
>  <UniqueID>  (4) 
3

>  <SMILES>  (4) 
C[n+]1cccc2c3c(ccc21)CCCC3=O

>  <Energy>  (4) 
46.862747389173855

>  <Genealogy>  (4) 
C[n+]1cccc2c3c(ccc21)CCCC3=O (3D coordinates assigned)
C[n+]1cccc2c3c(ccc21)CCCC3=O (nonaromatic ring conformer: 46.862747389173855 kcal/mol)

>  <smiles>  (4) 
C[n+]1cccc2c3c(ccc21)CCCC3=O

>  <score_type>  (4) 
oracle

>  <origin>  (4) 
adg

>  <m_score__min__energy>  (4) 
-5.6500000000000004

>  <m_primary>  (4) 
energy

$$$$
4:0
     RDKit          3D

 44 45  0  0  0  0  0  0  0  0999 V2000
   57.3510   32.3960   40.7870 C   0  0  0  0  0  0  0  0  0  0  0  0
   57.0670   31.5820   42.0460 C   0  0  0  0  0  0  0  0  0  0  0  0
   58.1430   31.8180   43.1140 C   0  0  0  0  0  0  0  0  0  0  0  0
   57.5560   31.8940   44.5030 C   0  0  0  0  0  0  0  0  0  0  0  0
   56.4990   31.2540   44.7610 O   0  0  0  0  0  0  0  0  0  0  0  0
   58.1440   32.7300   45.5220 N   0  0  0  0  0  0  0  0  0  0  0  0
   59.0840   33.8050   45.1760 C   0  0  0  0  0  0  0  0  0  0  0  0
   59.0780   34.8940   46.2600 C   0  0  0  0  0  0  0  0  0  0  0  0
   59.3550   34.3650   47.6190 N   0  0  0  0  0  0  0  0  0  0  0  0
   60.7690   34.5620   47.9990 C   0  0  0  0  0  0  0  0  0  0  0  0
   61.2090   33.5300   49.0020 C   0  0  0  0  0  0  0  0  0  0  0  0
   60.8430   33.5600   50.2980 N   0  0  0  0  0  0  0  0  0  0  0  0
   61.4650   32.5140   50.8740 C   0  0  0  0  0  0  0  0  0  0  0  0
   62.2090   31.8600   49.9160 C   0  0  0  0  0  0  0  0  0  0  0  0
   62.0440   32.4980   48.7390 N   0  0  0  0  0  0  0  0  0  0  0  0
   62.7160   32.1640   47.4820 C   0  0  0  0  0  0  0  0  0  0  0  0
   63.7080   33.2550   47.1010 C   0  0  0  0  0  0  0  0  0  0  0  0
   58.9240   32.9580   47.8350 C   0  0  0  0  0  0  0  0  0  0  0  0
   57.7600   32.5520   46.9270 C   0  0  0  0  0  0  0  0  0  0  0  0
   57.7011   33.3995   41.0704 H   0  0  0  0  0  0  0  0  0  0  0  0
   58.1263   31.8918   40.1915 H   0  0  0  0  0  0  0  0  0  0  0  0
   56.4303   32.4835   40.1915 H   0  0  0  0  0  0  0  0  0  0  0  0
   56.0882   31.8779   42.4514 H   0  0  0  0  0  0  0  0  0  0  0  0
   57.0697   30.5150   41.7788 H   0  0  0  0  0  0  0  0  0  0  0  0
   58.8656   30.9894   43.0789 H   0  0  0  0  0  0  0  0  0  0  0  0
   58.6297   32.7806   42.8983 H   0  0  0  0  0  0  0  0  0  0  0  0
   60.0973   33.3859   45.0894 H   0  0  0  0  0  0  0  0  0  0  0  0
   58.7761   34.2530   44.2197 H   0  0  0  0  0  0  0  0  0  0  0  0
   59.8474   35.6398   46.0112 H   0  0  0  0  0  0  0  0  0  0  0  0
   58.0694   35.3327   46.2783 H   0  0  0  0  0  0  0  0  0  0  0  0
   61.3974   34.4801   47.0999 H   0  0  0  0  0  0  0  0  0  0  0  0
   60.8731   35.5581   48.4539 H   0  0  0  0  0  0  0  0  0  0  0  0
   60.2210   34.2550   50.7670 H   0  0  0  0  0  0  0  0  0  0  0  0
   61.3915   32.2287   51.9338 H   0  0  0  0  0  0  0  0  0  0  0  0
   62.8318   30.9688   50.0828 H   0  0  0  0  0  0  0  0  0  0  0  0
   63.2534   31.2116   47.6008 H   0  0  0  0  0  0  0  0  0  0  0  0
   61.9606   32.0767   46.6871 H   0  0  0  0  0  0  0  0  0  0  0  0
   64.1214   33.7096   48.0134 H   0  0  0  0  0  0  0  0  0  0  0  0
   64.5241   32.8175   46.5072 H   0  0  0  0  0  0  0  0  0  0  0  0
   63.1950   34.0259   46.5072 H   0  0  0  0  0  0  0  0  0  0  0  0
   59.7769   32.2934   47.6326 H   0  0  0  0  0  0  0  0  0  0  0  0
   58.5798   32.8714   48.8762 H   0  0  0  0  0  0  0  0  0  0  0  0
   57.5073   31.4965   47.1062 H   0  0  0  0  0  0  0  0  0  0  0  0
   56.8871   33.1834   47.1491 H   0  0  0  0  0  0  0  0  0  0  0  0
  1  2  1  0
  2  3  1  0
  3  4  1  0
  4  5  2  0
  4  6  1  0
  6  7  1  0
  7  8  1  0
  8  9  1  0
  9 10  1  0
 10 11  1  0
 11 12  2  0
 12 13  1  0
 13 14  2  0
 14 15  1  0
 15 16  1  0
 16 17  1  0
  9 18  1  0
 18 19  1  0
 19  6  1  0
 15 11  1  0
  1 20  1  0
  1 21  1  0
  1 22  1  0
  2 23  1  0
  2 24  1  0
  3 25  1  0
  3 26  1  0
  7 27  1  0
  7 28  1  0
  8 29  1  0
  8 30  1  0
 10 31  1  0
 10 32  1  0
 12 33  1  0
 13 34  1  0
 14 35  1  0
 16 36  1  0
 16 37  1  0
 17 38  1  0
 17 39  1  0
 17 40  1  0
 18 41  1  0
 18 42  1  0
 19 43  1  0
 19 44  1  0
M  CHG  1  12   1
M  END
>  <UniqueID>  (5) 
4

>  <SMILES>  (5) 
CCCC(=O)N1CCN(Cc2[nH+]ccn2CC)CC1

>  <Energy>  (5) 
71.12492502248942

>  <Genealogy>  (5) 
CCCC(=O)N1CCN(Cc2[nH+]ccn2CC)CC1 (protonated)
CCCC(=O)N1CCN(Cc2[nH+]ccn2CC)CC1 (3D coordinates assigned)
CCCC(=O)N1CCN(Cc2[nH+]ccn2CC)CC1 (nonaromatic ring conformer: 71.12492502248942 kcal/mol)

>  <smiles>  (5) 
CCCC(=O)N1CCN(Cc2nccn2CC)CC1

>  <score_type>  (5) 
oracle

>  <origin>  (5) 
adg

>  <m_score__min__energy>  (5) 
-5.0700000000000003

>  <m_primary>  (5) 
energy

$$$$
5:0
     RDKit          3D

 53 55  0  0  0  0  0  0  0  0999 V2000
   63.4530   33.9930   46.5760 C   0  0  0  0  0  0  0  0  0  0  0  0
   62.5020   33.2540   47.4690 C   0  0  0  0  0  0  0  0  0  0  0  0
   61.3330   33.8790   47.9260 C   0  0  0  0  0  0  0  0  0  0  0  0
   60.4750   33.2140   48.8060 C   0  0  0  0  0  0  0  0  0  0  0  0
   60.7810   31.9170   49.2500 C   0  0  0  0  0  0  0  0  0  0  0  0
   59.9070   31.2350   50.2680 C   0  0  0  0  0  0  0  0  0  0  0  0
   58.6170   30.6920   49.6430 C   0  0  0  0  0  0  0  0  0  0  0  0
   58.9140   29.7320   48.5820 N   0  0  0  0  0  0  0  0  0  0  0  0
   59.3550   30.0330   47.2490 C   0  0  0  0  0  0  0  0  0  0  0  0
   59.5350   31.2410   46.9460 O   0  0  0  0  0  0  0  0  0  0  0  0
   59.6420   28.9410   46.2330 C   0  0  1  0  0  0  0  0  0  0  0  0
   58.7500   27.6930   46.4110 C   0  0  0  0  0  0  0  0  0  0  0  0
   58.6660   26.9100   45.1090 C   0  0  0  0  0  0  0  0  0  0  0  0
   57.9910   27.7580   44.0170 C   0  0  0  0  0  0  0  0  0  0  0  0
   58.4110   29.1890   44.0010 N   0  0  1  0  0  0  0  0  0  0  0  0
   57.0850   30.2630   44.4080 S   0  0  0  0  0  0  0  0  0  0  0  0
   56.1570   30.3620   43.2310 O   0  0  0  0  0  0  0  0  0  0  0  0
   56.3050   29.7220   45.5730 O   0  0  0  0  0  0  0  0  0  0  0  0
   57.6720   31.8860   44.7770 C   0  0  0  0  0  0  0  0  0  0  0  0
   57.3800   32.4950   46.0060 C   0  0  0  0  0  0  0  0  0  0  0  0
   57.8770   33.7700   46.2930 C   0  0  0  0  0  0  0  0  0  0  0  0
   58.6630   34.4430   45.3540 C   0  0  0  0  0  0  0  0  0  0  0  0
   58.9510   33.8440   44.1250 C   0  0  0  0  0  0  0  0  0  0  0  0
   58.4550   32.5690   43.8350 C   0  0  0  0  0  0  0  0  0  0  0  0
   59.6400   29.4840   44.7760 C   0  0  0  0  0  0  0  0  0  0  0  0
   61.9560   31.2950   48.7970 C   0  0  0  0  0  0  0  0  0  0  0  0
   62.8130   31.9610   47.9180 C   0  0  0  0  0  0  0  0  0  0  0  0
   64.1733   34.5527   47.1907 H   0  0  0  0  0  0  0  0  0  0  0  0
   63.9928   33.2750   45.9411 H   0  0  0  0  0  0  0  0  0  0  0  0
   62.8906   34.6934   45.9411 H   0  0  0  0  0  0  0  0  0  0  0  0
   61.0901   34.8979   47.5901 H   0  0  0  0  0  0  0  0  0  0  0  0
   59.5556   33.7086   49.1526 H   0  0  0  0  0  0  0  0  0  0  0  0
   60.4659   30.3986   50.7130 H   0  0  0  0  0  0  0  0  0  0  0  0
   59.6296   31.9775   51.0307 H   0  0  0  0  0  0  0  0  0  0  0  0
   58.0213   30.1942   50.4223 H   0  0  0  0  0  0  0  0  0  0  0  0
   58.0566   31.5329   49.2085 H   0  0  0  0  0  0  0  0  0  0  0  0
   60.6658   28.5943   46.4368 H   0  0  0  0  0  0  0  0  0  0  0  0
   59.1788   27.0498   47.1936 H   0  0  0  0  0  0  0  0  0  0  0  0
   57.7386   28.0158   46.6987 H   0  0  0  0  0  0  0  0  0  0  0  0
   59.6810   26.6394   44.7824 H   0  0  0  0  0  0  0  0  0  0  0  0
   58.0686   26.0017   45.2763 H   0  0  0  0  0  0  0  0  0  0  0  0
   58.2345   27.3170   43.0392 H   0  0  0  0  0  0  0  0  0  0  0  0
   56.9127   27.7496   44.2345 H   0  0  0  0  0  0  0  0  0  0  0  0
   58.6370   29.4250   43.0070 H   0  0  0  0  0  0  0  0  0  0  0  0
   56.7588   31.9686   46.7456 H   0  0  0  0  0  0  0  0  0  0  0  0
   57.6490   34.2438   47.2592 H   0  0  0  0  0  0  0  0  0  0  0  0
   59.0552   35.4450   45.5825 H   0  0  0  0  0  0  0  0  0  0  0  0
   59.5680   34.3754   43.3854 H   0  0  0  0  0  0  0  0  0  0  0  0
   58.6796   32.1005   42.8654 H   0  0  0  0  0  0  0  0  0  0  0  0
   60.4941   29.0390   44.2445 H   0  0  0  0  0  0  0  0  0  0  0  0
   59.6989   30.5796   44.8553 H   0  0  0  0  0  0  0  0  0  0  0  0
   62.2025   30.2781   49.1363 H   0  0  0  0  0  0  0  0  0  0  0  0
   63.7360   31.4700   47.5760 H   0  0  0  0  0  0  0  0  0  0  0  0
  1  2  1  0
  2  3  2  0
  3  4  1  0
  4  5  2  0
  5  6  1  0
  6  7  1  0
  7  8  1  0
  8  9  1  0
  9 10  2  0
  9 11  1  0
 11 12  1  0
 12 13  1  0
 13 14  1  0
 14 15  1  0
 15 16  1  0
 16 17  2  0
 16 18  2  0
 16 19  1  0
 19 20  2  0
 20 21  1  0
 21 22  2  0
 22 23  1  0
 23 24  2  0
 15 25  1  0
  5 26  1  0
 26 27  2  0
 27  2  1  0
 25 11  1  0
 24 19  1  0
  1 28  1  0
  1 29  1  0
  1 30  1  0
  3 31  1  0
  4 32  1  0
  6 33  1  0
  6 34  1  0
  7 35  1  0
  7 36  1  0
 11 37  1  1
 12 38  1  0
 12 39  1  0
 13 40  1  0
 13 41  1  0
 14 42  1  0
 14 43  1  0
 15 44  1  6
 20 45  1  0
 21 46  1  0
 22 47  1  0
 23 48  1  0
 24 49  1  0
 25 50  1  0
 25 51  1  0
 26 52  1  0
 27 53  1  0
M  CHG  2   8  -1  15   1
M  END
>  <UniqueID>  (6) 
5

>  <SMILES>  (6) 
Cc1ccc(CC[N-]C(=O)[C@H]2CCC[N@@H+](S(=O)(=O)c3ccccc3)C2)cc1

>  <Energy>  (6) 
58.82319002062983

>  <Genealogy>  (6) 
Cc1ccc(CC[N-]C(=O)C2CCC[NH+](S(=O)(=O)c3ccccc3)C2)cc1 (protonated)
Cc1ccc(CC[N-]C(=O)[C@H]2CCC[N@@H+](S(=O)(=O)c3ccccc3)C2)cc1 (chirality)
Cc1ccc(CC[N-]C(=O)[C@H]2CCC[N@@H+](S(=O)(=O)c3ccccc3)C2)cc1 (3D coordinates assigned)
Cc1ccc(CC[N-]C(=O)[C@H]2CCC[N@@H+](S(=O)(=O)c3ccccc3)C2)cc1 (nonaromatic ring conformer: 58.82319002062983 kcal/mol)

>  <smiles>  (6) 
Cc1ccc(CCNC(=O)C2CCCN(S(=O)(=O)c3ccccc3)C2)cc1

>  <score_type>  (6) 
oracle

>  <origin>  (6) 
adg

>  <m_score__min__energy>  (6) 
-8.7400000000000002

>  <m_primary>  (6) 
energy

$$$$
6:0
     RDKit          3D

 45 47  0  0  0  0  0  0  0  0999 V2000
   58.8590   34.8950   44.9410 C   0  0  0  0  0  0  0  0  0  0  0  0
   59.4090   33.6890   45.6360 C   0  0  0  0  0  0  0  0  0  0  0  0
   60.5030   33.7890   46.4410 N   0  0  0  0  0  0  0  0  0  0  0  0
   60.8610   32.6050   46.9870 C   0  0  0  0  0  0  0  0  0  0  0  0
   62.0150   32.4410   47.9000 C   0  0  0  0  0  0  0  0  0  0  0  0
   61.9970   31.4760   48.9260 C   0  0  0  0  0  0  0  0  0  0  0  0
   63.0940   31.3320   49.7810 C   0  0  0  0  0  0  0  0  0  0  0  0
   64.2180   32.1450   49.6240 C   0  0  0  0  0  0  0  0  0  0  0  0
   64.2480   33.1060   48.6110 C   0  0  0  0  0  0  0  0  0  0  0  0
   63.1540   33.2550   47.7530 C   0  0  0  0  0  0  0  0  0  0  0  0
   59.8180   31.3810   46.4860 S   0  0  0  0  0  0  0  0  0  0  0  0
   58.8720   32.3970   45.5310 C   0  0  0  0  0  0  0  0  0  0  0  0
   57.6900   31.9650   44.7510 C   0  0  0  0  0  0  0  0  0  0  0  0
   56.5570   32.4530   45.0090 O   0  0  0  0  0  0  0  0  0  0  0  0
   57.8220   30.9940   43.7020 N   0  0  0  0  0  0  0  0  0  0  0  0
   56.6690   30.4540   42.9820 C   0  0  0  0  0  0  0  0  0  0  0  0
   55.6440   29.8540   43.9510 C   0  0  0  0  0  0  0  0  0  0  0  0
   56.2770   29.5480   45.2420 N   0  0  0  0  0  0  0  0  0  0  0  0
   56.6640   28.1330   45.3210 C   0  0  0  0  0  0  0  0  0  0  0  0
   58.0330   27.9930   45.9340 C   0  0  0  0  0  0  0  0  0  0  0  0
   59.1880   28.2180   45.1730 C   0  0  0  0  0  0  0  0  0  0  0  0
   60.4480   28.1010   45.7660 C   0  0  0  0  0  0  0  0  0  0  0  0
   60.5390   27.7640   47.1170 C   0  0  0  0  0  0  0  0  0  0  0  0
   59.4090   27.5540   47.8440 N   0  0  0  0  0  0  0  0  0  0  0  0
   58.1720   27.6620   47.2900 C   0  0  0  0  0  0  0  0  0  0  0  0
   58.5244   35.6286   45.6892 H   0  0  0  0  0  0  0  0  0  0  0  0
   59.6413   35.3440   44.3115 H   0  0  0  0  0  0  0  0  0  0  0  0
   58.0070   34.5987   44.3115 H   0  0  0  0  0  0  0  0  0  0  0  0
   61.1147   30.8319   49.0554 H   0  0  0  0  0  0  0  0  0  0  0  0
   63.0713   30.5759   50.5796 H   0  0  0  0  0  0  0  0  0  0  0  0
   65.0796   32.0287   50.2979 H   0  0  0  0  0  0  0  0  0  0  0  0
   65.1337   33.7467   48.4879 H   0  0  0  0  0  0  0  0  0  0  0  0
   63.1836   34.0139   46.9573 H   0  0  0  0  0  0  0  0  0  0  0  0
   58.7720   30.6810   43.4010 H   0  0  0  0  0  0  0  0  0  0  0  0
   56.1916   31.2633   42.4100 H   0  0  0  0  0  0  0  0  0  0  0  0
   57.0196   29.6585   42.3080 H   0  0  0  0  0  0  0  0  0  0  0  0
   54.8290   30.5756   44.1090 H   0  0  0  0  0  0  0  0  0  0  0  0
   55.2468   28.9236   43.5190 H   0  0  0  0  0  0  0  0  0  0  0  0
   55.5680   29.7160   45.9940 H   0  0  0  0  0  0  0  0  0  0  0  0
   55.9333   27.5920   45.9402 H   0  0  0  0  0  0  0  0  0  0  0  0
   56.6851   27.7130   44.3045 H   0  0  0  0  0  0  0  0  0  0  0  0
   59.1029   28.4865   44.1097 H   0  0  0  0  0  0  0  0  0  0  0  0
   61.3589   28.2728   45.1737 H   0  0  0  0  0  0  0  0  0  0  0  0
   61.5254   27.6681   47.5943 H   0  0  0  0  0  0  0  0  0  0  0  0
   57.2778   27.4893   47.9069 H   0  0  0  0  0  0  0  0  0  0  0  0
  1  2  1  0
  2  3  1  0
  3  4  2  0
  4  5  1  0
  5  6  2  0
  6  7  1  0
  7  8  2  0
  8  9  1  0
  9 10  2  0
  4 11  1  0
 11 12  1  0
 12 13  1  0
 13 14  2  0
 13 15  1  0
 15 16  1  0
 16 17  1  0
 17 18  1  0
 18 19  1  0
 19 20  1  0
 20 21  2  0
 21 22  1  0
 22 23  2  0
 23 24  1  0
 24 25  2  0
 12  2  2  0
 25 20  1  0
 10  5  1  0
  1 26  1  0
  1 27  1  0
  1 28  1  0
  6 29  1  0
  7 30  1  0
  8 31  1  0
  9 32  1  0
 10 33  1  0
 15 34  1  0
 16 35  1  0
 16 36  1  0
 17 37  1  0
 17 38  1  0
 18 39  1  0
 19 40  1  0
 19 41  1  0
 21 42  1  0
 22 43  1  0
 23 44  1  0
 25 45  1  0
M  END
>  <UniqueID>  (7) 
6

>  <SMILES>  (7) 
Cc1nc(-c2ccccc2)sc1C(=O)NCCNCc1cccnc1

>  <Energy>  (7) 
73.1159883356288

>  <Genealogy>  (7) 
Cc1nc(-c2ccccc2)sc1C(=O)NCCNCc1cccnc1 (3D coordinates assigned)
Cc1nc(-c2ccccc2)sc1C(=O)NCCNCc1cccnc1 (optimized conformer: 73.1159883356288 kcal/mol)

>  <smiles>  (7) 
Cc1nc(-c2ccccc2)sc1C(=O)NCCNCc1cccnc1

>  <score_type>  (7) 
oracle

>  <origin>  (7) 
adg

>  <m_score__min__energy>  (7) 
-8.4399999999999995

>  <m_primary>  (7) 
energy

$$$$
7:0
     RDKit          3D

 36 38  0  0  0  0  0  0  0  0999 V2000
   55.7780   25.9870   45.9890 C   0  0  0  0  0  0  0  0  0  0  0  0
   55.8430   27.3600   45.6230 O   0  0  0  0  0  0  0  0  0  0  0  0
   57.0210   28.0280   45.2560 C   0  0  0  0  0  0  0  0  0  0  0  0
   58.1780   27.3430   44.8410 C   0  0  0  0  0  0  0  0  0  0  0  0
   59.3300   28.0540   44.4930 C   0  0  0  0  0  0  0  0  0  0  0  0
   59.3360   29.4490   44.5460 C   0  0  0  0  0  0  0  0  0  0  0  0
   58.1810   30.1450   44.9350 C   0  0  0  0  0  0  0  0  0  0  0  0
   58.1830   31.5780   44.9950 N   0  0  0  0  0  0  0  0  0  0  0  0
   57.6070   32.3940   44.0760 C   0  0  0  0  0  0  0  0  0  0  0  0
   57.6550   33.7210   44.4920 C   0  0  0  0  0  0  0  0  0  0  0  0
   58.2930   33.6800   45.7090 C   0  0  0  0  0  0  0  0  0  0  0  0
   58.5730   34.7010   46.5530 N   0  0  0  0  0  0  0  0  0  0  0  0
   59.2160   34.4170   47.7230 C   0  0  0  0  0  0  0  0  0  0  0  0
   59.5870   33.1310   48.0170 N   0  0  0  0  0  0  0  0  0  0  0  0
   59.3150   32.0940   47.1700 C   0  0  0  0  0  0  0  0  0  0  0  0
   59.8020   30.7790   47.4710 N   0  0  0  0  0  0  0  0  0  0  0  0
   61.2350   30.5080   47.3490 C   0  0  0  0  0  0  0  0  0  0  0  0
   59.0080   29.9180   48.3450 C   0  0  0  0  0  0  0  0  0  0  0  0
   58.6160   32.3860   45.9900 C   0  0  0  0  0  0  0  0  0  0  0  0
   57.0350   29.4270   45.3070 C   0  0  0  0  0  0  0  0  0  0  0  0
   55.7739   25.8996   47.0855 H   0  0  0  0  0  0  0  0  0  0  0  0
   54.8578   25.5423   45.5823 H   0  0  0  0  0  0  0  0  0  0  0  0
   56.6521   25.4573   45.5823 H   0  0  0  0  0  0  0  0  0  0  0  0
   58.1758   26.2442   44.7903 H   0  0  0  0  0  0  0  0  0  0  0  0
   60.2340   27.5130   44.1766 H   0  0  0  0  0  0  0  0  0  0  0  0
   60.2483   30.0041   44.2822 H   0  0  0  0  0  0  0  0  0  0  0  0
   57.1621   32.0523   43.1298 H   0  0  0  0  0  0  0  0  0  0  0  0
   57.2686   34.6056   43.9646 H   0  0  0  0  0  0  0  0  0  0  0  0
   59.4379   35.2259   48.4347 H   0  0  0  0  0  0  0  0  0  0  0  0
   61.6790   30.4240   48.3519 H   0  0  0  0  0  0  0  0  0  0  0  0
   61.3847   29.5656   46.8017 H   0  0  0  0  0  0  0  0  0  0  0  0
   61.7184   31.3306   46.8017 H   0  0  0  0  0  0  0  0  0  0  0  0
   59.2293   30.1579   49.3955 H   0  0  0  0  0  0  0  0  0  0  0  0
   57.9383   30.0829   48.1487 H   0  0  0  0  0  0  0  0  0  0  0  0
   59.2588   28.8651   48.1487 H   0  0  0  0  0  0  0  0  0  0  0  0
   56.1382   29.9686   45.6422 H   0  0  0  0  0  0  0  0  0  0  0  0
  1  2  1  0
  2  3  1  0
  3  4  2  0
  4  5  1  0
  5  6  2  0
  6  7  1  0
  7  8  1  0
  8  9  1  0
  9 10  2  0
 10 11  1  0
 11 12  2  0
 12 13  1  0
 13 14  2  0
 14 15  1  0
 15 16  1  0
 16 17  1  0
 16 18  1  0
 15 19  2  0
  7 20  2  0
 20  3  1  0
 19  8  1  0
 19 11  1  0
  1 21  1  0
  1 22  1  0
  1 23  1  0
  4 24  1  0
  5 25  1  0
  6 26  1  0
  9 27  1  0
 10 28  1  0
 13 29  1  0
 17 30  1  0
 17 31  1  0
 17 32  1  0
 18 33  1  0
 18 34  1  0
 18 35  1  0
 20 36  1  0
M  END
>  <UniqueID>  (8) 
7

>  <SMILES>  (8) 
COc1cccc(-n2ccc3ncnc(N(C)C)c32)c1

>  <Energy>  (8) 
83.53720819929379

>  <Genealogy>  (8) 
COc1cccc(-n2ccc3ncnc(N(C)C)c32)c1 (3D coordinates assigned)
COc1cccc(-n2ccc3ncnc(N(C)C)c32)c1 (optimized conformer: 83.53720819929379 kcal/mol)

>  <smiles>  (8) 
COc1cccc(-n2ccc3ncnc(N(C)C)c32)c1

>  <score_type>  (8) 
oracle

>  <origin>  (8) 
adg

>  <m_score__min__energy>  (8) 
-6.0199999999999996

>  <m_primary>  (8) 
energy

$$$$
8:0
     RDKit          3D

 40 41  0  0  0  0  0  0  0  0999 V2000
   59.1180   34.9560   46.0640 C   0  0  0  0  0  0  0  0  0  0  0  0
   57.8010   34.3100   46.1790 N   0  0  0  0  0  0  0  0  0  0  0  0
   57.8390   33.1890   47.1330 C   0  0  0  0  0  0  0  0  0  0  0  0
   57.2210   33.9360   44.8700 C   0  0  0  0  0  0  0  0  0  0  0  0
   57.5510   32.5020   44.4100 C   0  0  0  0  0  0  0  0  0  0  0  0
   56.5450   31.6130   44.8540 O   0  0  0  0  0  0  0  0  0  0  0  0
   56.6680   30.3560   44.2140 C   0  0  0  0  0  0  0  0  0  0  0  0
   56.2960   29.2810   45.1380 N   0  0  0  0  0  0  0  0  0  0  0  0
   57.4730   28.4940   45.5270 C   0  0  0  0  0  0  0  0  0  0  0  0
   58.3410   29.3040   46.4360 C   0  0  0  0  0  0  0  0  0  0  0  0
   59.3700   30.1310   46.0450 C   0  0  0  0  0  0  0  0  0  0  0  0
   59.9410   30.6220   47.1570 N   0  0  0  0  0  0  0  0  0  0  0  0
   61.0530   31.5250   47.2320 C   0  0  0  0  0  0  0  0  0  0  0  0
   62.2140   31.1350   47.8280 N   0  0  0  0  0  0  0  0  0  0  0  0
   63.2780   31.9740   47.9080 C   0  0  0  0  0  0  0  0  0  0  0  0
   63.1910   33.2600   47.3750 C   0  0  0  0  0  0  0  0  0  0  0  0
   61.9970   33.6470   46.7680 C   0  0  0  0  0  0  0  0  0  0  0  0
   60.9540   32.7770   46.7080 N   0  0  0  0  0  0  0  0  0  0  0  0
   59.2630   30.0790   48.1890 C   0  0  0  0  0  0  0  0  0  0  0  0
   58.2730   29.2550   47.7830 N   0  0  0  0  0  0  0  0  0  0  0  0
   59.5190   35.1527   47.0693 H   0  0  0  0  0  0  0  0  0  0  0  0
   59.8053   34.2928   45.5184 H   0  0  0  0  0  0  0  0  0  0  0  0
   59.0143   35.9055   45.5184 H   0  0  0  0  0  0  0  0  0  0  0  0
   57.8257   33.5814   48.1605 H   0  0  0  0  0  0  0  0  0  0  0  0
   56.9622   32.5437   46.9756 H   0  0  0  0  0  0  0  0  0  0  0  0
   58.7575   32.6045   46.9756 H   0  0  0  0  0  0  0  0  0  0  0  0
   56.1273   34.0314   44.9391 H   0  0  0  0  0  0  0  0  0  0  0  0
   57.6661   34.6131   44.1260 H   0  0  0  0  0  0  0  0  0  0  0  0
   57.6043   32.4740   43.3116 H   0  0  0  0  0  0  0  0  0  0  0  0
   58.5184   32.1976   44.8359 H   0  0  0  0  0  0  0  0  0  0  0  0
   56.0043   30.3278   43.3372 H   0  0  0  0  0  0  0  0  0  0  0  0
   57.7121   30.2137   43.8983 H   0  0  0  0  0  0  0  0  0  0  0  0
   55.8890   29.7180   45.9990 H   0  0  0  0  0  0  0  0  0  0  0  0
   57.1473   27.5820   46.0487 H   0  0  0  0  0  0  0  0  0  0  0  0
   58.0427   28.2201   44.6267 H   0  0  0  0  0  0  0  0  0  0  0  0
   59.6700   30.3499   45.0096 H   0  0  0  0  0  0  0  0  0  0  0  0
   64.2075   31.6402   48.3925 H   0  0  0  0  0  0  0  0  0  0  0  0
   64.0439   33.9522   47.4322 H   0  0  0  0  0  0  0  0  0  0  0  0
   61.8990   34.6548   46.3383 H   0  0  0  0  0  0  0  0  0  0  0  0
   59.4914   30.2847   49.2452 H   0  0  0  0  0  0  0  0  0  0  0  0
  1  2  1  0
  2  3  1  0
  2  4  1  0
  4  5  1  0
  5  6  1  0
  6  7  1  0
  7  8  1  0
  8  9  1  0
  9 10  1  0
 10 11  2  0
 11 12  1  0
 12 13  1  0
 13 14  2  0
 14 15  1  0
 15 16  2  0
 16 17  1  0
 17 18  2  0
 12 19  1  0
 19 20  2  0
 20 10  1  0
 18 13  1  0
  1 21  1  0
  1 22  1  0
  1 23  1  0
  3 24  1  0
  3 25  1  0
  3 26  1  0
  4 27  1  0
  4 28  1  0
  5 29  1  0
  5 30  1  0
  7 31  1  0
  7 32  1  0
  8 33  1  0
  9 34  1  0
  9 35  1  0
 11 36  1  0
 15 37  1  0
 16 38  1  0
 17 39  1  0
 19 40  1  0
M  END
>  <UniqueID>  (9) 
8

>  <SMILES>  (9) 
CN(C)CCOCNCc1cn(-c2ncccn2)cn1

>  <Energy>  (9) 
72.10228903586524

>  <Genealogy>  (9) 
CN(C)CCOCNCc1cn(-c2ncccn2)cn1 (3D coordinates assigned)
CN(C)CCOCNCc1cn(-c2ncccn2)cn1 (optimized conformer: 72.10228903586524 kcal/mol)

>  <smiles>  (9) 
CN(C)CCOCNCc1cn(-c2ncccn2)cn1

>  <score_type>  (9) 
oracle

>  <origin>  (9) 
adg

>  <m_score__min__energy>  (9) 
-6.5099999999999998

>  <m_primary>  (9) 
energy

$$$$
9:0
     RDKit          3D

 45 46  0  0  0  0  0  0  0  0999 V2000
   60.6920   27.3310   49.0480 C   0  0  0  0  0  0  0  0  0  0  0  0
   60.1510   28.5380   48.5840 O   0  0  0  0  0  0  0  0  0  0  0  0
   59.4240   28.7200   47.4210 C   0  0  0  0  0  0  0  0  0  0  0  0
   59.1020   27.7250   46.5410 C   0  0  0  0  0  0  0  0  0  0  0  0
   58.3820   27.8960   45.3860 C   0  0  0  0  0  0  0  0  0  0  0  0
   58.0900   26.7220   44.5060 C   0  0  0  0  0  0  0  0  0  0  0  0
   57.0510   25.8240   45.1380 C   0  0  0  0  0  0  0  0  0  0  0  0
   56.2210   26.5840   46.1560 C   0  0  0  0  0  0  0  0  0  0  0  0
   54.8600   26.2950   46.0060 O   0  0  0  0  0  0  0  0  0  0  0  0
   57.9360   29.1650   45.0700 C   0  0  0  0  0  0  0  0  0  0  0  0
   58.2460   30.1920   45.9420 C   0  0  0  0  0  0  0  0  0  0  0  0
   57.7900   31.4540   45.6070 O   0  0  0  0  0  0  0  0  0  0  0  0
   57.7800   31.9540   44.3030 C   0  0  0  0  0  0  0  0  0  0  0  0
   58.9700   30.0120   47.0980 C   0  0  0  0  0  0  0  0  0  0  0  0
   59.3140   31.0760   48.0520 C   0  0  0  0  0  0  0  0  0  0  0  0
   60.5620   31.7930   47.8110 C   0  0  0  0  0  0  0  0  0  0  0  0
   61.7500   31.1390   48.1770 C   0  0  0  0  0  0  0  0  0  0  0  0
   62.9580   31.7450   47.9750 N   0  0  0  0  0  0  0  0  0  0  0  0
   62.9330   32.9570   47.4240 C   0  0  0  0  0  0  0  0  0  0  0  0
   64.0890   33.5340   47.2330 N   0  0  0  0  0  0  0  0  0  0  0  0
   61.8580   33.6460   47.0500 N   0  0  0  0  0  0  0  0  0  0  0  0
   60.6360   33.0660   47.2410 C   0  0  0  0  0  0  0  0  0  0  0  0
   59.5410   33.6610   46.9020 N   0  0  0  0  0  0  0  0  0  0  0  0
   60.6931   27.3285   50.1480 H   0  0  0  0  0  0  0  0  0  0  0  0
   60.0841   26.4913   48.6801 H   0  0  0  0  0  0  0  0  0  0  0  0
   61.7233   27.2260   48.6801 H   0  0  0  0  0  0  0  0  0  0  0  0
   59.4472   26.7077   46.7774 H   0  0  0  0  0  0  0  0  0  0  0  0
   57.7143   27.0821   43.5369 H   0  0  0  0  0  0  0  0  0  0  0  0
   59.0167   26.1460   44.3667 H   0  0  0  0  0  0  0  0  0  0  0  0
   56.3874   25.4336   44.3524 H   0  0  0  0  0  0  0  0  0  0  0  0
   57.5668   24.9996   45.6521 H   0  0  0  0  0  0  0  0  0  0  0  0
   56.5409   26.2964   47.1684 H   0  0  0  0  0  0  0  0  0  0  0  0
   56.3711   27.6621   45.9976 H   0  0  0  0  0  0  0  0  0  0  0  0
   54.3870   26.7150   46.7650 H   0  0  0  0  0  0  0  0  0  0  0  0
   57.3539   29.3518   44.1555 H   0  0  0  0  0  0  0  0  0  0  0  0
   57.7580   33.0534   44.3320 H   0  0  0  0  0  0  0  0  0  0  0  0
   58.6850   31.6192   43.7750 H   0  0  0  0  0  0  0  0  0  0  0  0
   56.8891   31.5832   43.7750 H   0  0  0  0  0  0  0  0  0  0  0  0
   58.4978   31.8133   48.0378 H   0  0  0  0  0  0  0  0  0  0  0  0
   59.4549   30.5657   49.0162 H   0  0  0  0  0  0  0  0  0  0  0  0
   61.7078   30.1363   48.6274 H   0  0  0  0  0  0  0  0  0  0  0  0
   63.8170   31.2270   48.2590 H   0  0  0  0  0  0  0  0  0  0  0  0
   64.9330   33.0480   46.8720 H   0  0  0  0  0  0  0  0  0  0  0  0
   61.9250   34.6120   46.6170 H   0  0  0  0  0  0  0  0  0  0  0  0
   58.7690   33.0670   46.5330 H   0  0  0  0  0  0  0  0  0  0  0  0
  1  2  1  0
  2  3  1  0
  3  4  2  0
  4  5  1  0
  5  6  1  0
  6  7  1  0
  7  8  1  0
  8  9  1  0
  5 10  2  0
 10 11  1  0
 11 12  1  0
 12 13  1  0
 11 14  2  0
 14 15  1  0
 15 16  1  0
 16 17  2  0
 17 18  1  0
 18 19  1  0
 19 20  2  3
 19 21  1  0
 21 22  1  0
 22 23  2  3
 14  3  1  0
 22 16  1  0
  1 24  1  0
  1 25  1  0
  1 26  1  0
  4 27  1  0
  6 28  1  0
  6 29  1  0
  7 30  1  0
  7 31  1  0
  8 32  1  0
  8 33  1  0
  9 34  1  0
 10 35  1  0
 13 36  1  0
 13 37  1  0
 13 38  1  0
 15 39  1  0
 15 40  1  0
 17 41  1  0
 18 42  1  0
 20 43  1  0
 21 44  1  0
 23 45  1  0
M  END
>  <smiles>  (10) 
COc1cc(CCCO)cc(OC)c1Cc1c[nH]c(=N)[nH]c1=N

>  <score_type>  (10) 
oracle

>  <origin>  (10) 
adg

>  <m_score__min__energy>  (10) 
-6.1600000000000001

>  <m_primary>  (10) 
energy

$$$$
10:0
     RDKit          3D

 43 45  0  0  0  0  0  0  0  0999 V2000
   51.1620   32.7390   52.1000 O   0  0  0  0  0  0  0  0  0  0  0  0
   51.4140   32.0960   51.0480 C   0  0  0  0  0  0  0  0  0  0  0  0
   51.3880   32.7460   49.8210 O   0  0  0  0  0  0  0  0  0  0  0  0
   51.6840   30.6280   51.1100 C   0  0  0  0  0  0  0  0  0  0  0  0
   52.9680   30.3850   51.7620 N   0  0  0  0  0  0  0  0  0  0  0  0
   53.3530   29.2390   52.3590 C   0  0  0  0  0  0  0  0  0  0  0  0
   54.6520   29.3600   52.8120 C   0  0  0  0  0  0  0  0  0  0  0  0
   55.0670   30.6300   52.4550 C   0  0  0  0  0  0  0  0  0  0  0  0
   56.4010   31.2520   52.7650 C   0  0  0  0  0  0  0  0  0  0  0  0
   56.9970   31.9120   51.5780 N   0  0  0  0  0  0  0  0  0  0  0  0
   57.7880   30.9420   50.7670 C   0  0  0  0  0  0  0  0  0  0  0  0
   58.8800   31.6210   49.9350 C   0  0  0  0  0  0  0  0  0  0  0  0
   59.7910   32.3570   50.8200 N   0  0  0  0  0  0  0  0  0  0  0  0
   61.1860   32.5120   50.4810 C   0  0  0  0  0  0  0  0  0  0  0  0
   61.6940   33.7810   50.1440 C   0  0  0  0  0  0  0  0  0  0  0  0
   63.0440   33.9420   49.8180 C   0  0  0  0  0  0  0  0  0  0  0  0
   63.9000   32.8400   49.8220 C   0  0  0  0  0  0  0  0  0  0  0  0
   63.4100   31.5750   50.1490 C   0  0  0  0  0  0  0  0  0  0  0  0
   62.0600   31.4050   50.4770 C   0  0  0  0  0  0  0  0  0  0  0  0
   61.6070   30.1580   50.7560 F   0  0  0  0  0  0  0  0  0  0  0  0
   59.2760   32.8670   52.0960 C   0  0  0  0  0  0  0  0  0  0  0  0
   57.7670   33.1230   51.9870 C   0  0  0  0  0  0  0  0  0  0  0  0
   54.0090   31.2380   51.8100 C   0  0  0  0  0  0  0  0  0  0  0  0
   50.8851   30.1342   51.6827 H   0  0  0  0  0  0  0  0  0  0  0  0
   51.7147   30.2223   50.0880 H   0  0  0  0  0  0  0  0  0  0  0  0
   52.7261   28.3418   52.4688 H   0  0  0  0  0  0  0  0  0  0  0  0
   55.2383   28.5996   53.3486 H   0  0  0  0  0  0  0  0  0  0  0  0
   56.2670   32.0022   53.5583 H   0  0  0  0  0  0  0  0  0  0  0  0
   57.0828   30.4504   53.0855 H   0  0  0  0  0  0  0  0  0  0  0  0
   56.2030   32.2490   50.9790 H   0  0  0  0  0  0  0  0  0  0  0  0
   58.2619   30.2186   51.4468 H   0  0  0  0  0  0  0  0  0  0  0  0
   57.0954   30.4496   50.0686 H   0  0  0  0  0  0  0  0  0  0  0  0
   59.4458   30.8572   49.3813 H   0  0  0  0  0  0  0  0  0  0  0  0
   58.4149   32.3223   49.2265 H   0  0  0  0  0  0  0  0  0  0  0  0
   61.0234   34.6529   50.1371 H   0  0  0  0  0  0  0  0  0  0  0  0
   63.4316   34.9381   49.5582 H   0  0  0  0  0  0  0  0  0  0  0  0
   64.9623   32.9686   49.5671 H   0  0  0  0  0  0  0  0  0  0  0  0
   64.0872   30.7082   50.1490 H   0  0  0  0  0  0  0  0  0  0  0  0
   59.4638   32.1261   52.8871 H   0  0  0  0  0  0  0  0  0  0  0  0
   59.7860   33.8105   52.3405 H   0  0  0  0  0  0  0  0  0  0  0  0
   57.3970   33.4589   52.9669 H   0  0  0  0  0  0  0  0  0  0  0  0
   57.6186   33.8853   51.2080 H   0  0  0  0  0  0  0  0  0  0  0  0
   54.0151   32.2586   51.3998 H   0  0  0  0  0  0  0  0  0  0  0  0
  1  2  2  0
  2  3  1  0
  2  4  1  0
  4  5  1  0
  5  6  1  0
  6  7  2  0
  7  8  1  0
  8  9  1  0
  9 10  1  0
 10 11  1  0
 11 12  1  0
 12 13  1  0
 13 14  1  0
 14 15  2  0
 15 16  1  0
 16 17  2  0
 17 18  1  0
 18 19  2  0
 19 20  1  0
 13 21  1  0
 21 22  1  0
  8 23  2  0
 23  5  1  0
 22 10  1  0
 19 14  1  0
  4 24  1  0
  4 25  1  0
  6 26  1  0
  7 27  1  0
  9 28  1  0
  9 29  1  0
 10 30  1  0
 11 31  1  0
 11 32  1  0
 12 33  1  0
 12 34  1  0
 15 35  1  0
 16 36  1  0
 17 37  1  0
 18 38  1  0
 21 39  1  0
 21 40  1  0
 22 41  1  0
 22 42  1  0
 23 43  1  0
M  CHG  2   3  -1  10   1
M  END
>  <UniqueID>  (11) 
9

>  <SMILES>  (11) 
O=C([O-])Cn1ccc(C[NH+]2CCN(c3ccccc3F)CC2)c1

>  <Energy>  (11) 
79.7667209705642

>  <Genealogy>  (11) 
O=C([O-])Cn1ccc(C[NH+]2CCN(c3ccccc3F)CC2)c1 (protonated)
O=C([O-])Cn1ccc(C[NH+]2CCN(c3ccccc3F)CC2)c1 (3D coordinates assigned)
O=C([O-])Cn1ccc(C[NH+]2CCN(c3ccccc3F)CC2)c1 (nonaromatic ring conformer: 79.7667209705642 kcal/mol)

>  <smiles>  (11) 
O=C(O)Cn1ccc(CN2CCN(c3ccccc3F)CC2)c1

>  <score_type>  (11) 
oracle

>  <origin>  (11) 
adg

>  <m_score__min__energy>  (11) 
-8.8000000000000007

>  <m_primary>  (11) 
energy

$$$$
11:0
     RDKit          3D

 42 45  0  0  0  0  0  0  0  0999 V2000
   60.0381   30.1052   45.1457 H   0  0  0  0  0  0  0  0  0  0  0  0
   59.0930   30.3850   45.6340 C   0  0  0  0  0  0  0  0  0  0  0  0
   58.0560   29.5410   45.5320 C   0  0  0  0  0  0  0  0  0  0  0  0
   56.7600   29.8800   44.9680 C   0  0  0  0  0  0  0  0  0  0  0  0
   56.4350   31.0020   44.4950 O   0  0  0  0  0  0  0  0  0  0  0  0
   55.8740   28.7730   45.0300 N   0  0  0  0  0  0  0  0  0  0  0  0
   56.6800   27.7500   45.6140 C   0  0  0  0  0  0  0  0  0  0  0  0
   56.0690   26.2780   45.9900 S   0  0  0  0  0  0  0  0  0  0  0  0
   58.0190   28.1630   45.9290 N   0  0  0  0  0  0  0  0  0  0  0  0
   59.1700   27.2570   45.9720 C   0  0  0  0  0  0  0  0  0  0  0  0
   59.4341   27.0491   47.0194 H   0  0  0  0  0  0  0  0  0  0  0  0
   58.9144   26.3152   45.4644 H   0  0  0  0  0  0  0  0  0  0  0  0
   60.0255   27.7266   45.4644 H   0  0  0  0  0  0  0  0  0  0  0  0
   59.0410   31.6620   46.3600 C   0  0  0  0  0  0  0  0  0  0  0  0
   59.3200   31.8930   47.7170 C   0  0  0  0  0  0  0  0  0  0  0  0
   59.5140   30.8720   48.7700 C   0  0  0  0  0  0  0  0  0  0  0  0
   60.7190   30.1580   48.8340 C   0  0  0  0  0  0  0  0  0  0  0  0
   61.5122   30.3592   48.0989 H   0  0  0  0  0  0  0  0  0  0  0  0
   60.9200   29.1940   49.8230 C   0  0  0  0  0  0  0  0  0  0  0  0
   61.8673   28.6360   49.8576 H   0  0  0  0  0  0  0  0  0  0  0  0
   59.9180   28.9310   50.7770 C   0  0  0  0  0  0  0  0  0  0  0  0
   60.0820   27.9650   51.7820 O   0  0  0  0  0  0  0  0  0  0  0  0
   61.1460   27.0200   51.8270 C   0  0  0  0  0  0  0  0  0  0  0  0
   61.3955   26.7984   52.8752 H   0  0  0  0  0  0  0  0  0  0  0  0
   60.8358   26.0942   51.3203 H   0  0  0  0  0  0  0  0  0  0  0  0
   62.0287   27.4373   51.3203 H   0  0  0  0  0  0  0  0  0  0  0  0
   58.7160   29.6520   50.7330 C   0  0  0  0  0  0  0  0  0  0  0  0
   57.7360   29.3750   51.7000 O   0  0  0  0  0  0  0  0  0  0  0  0
   56.9980   30.3650   52.4090 C   0  0  0  0  0  0  0  0  0  0  0  0
   57.1166   30.2059   53.4910 H   0  0  0  0  0  0  0  0  0  0  0  0
   57.3737   31.3637   52.1419 H   0  0  0  0  0  0  0  0  0  0  0  0
   55.9336   30.2902   52.1419 H   0  0  0  0  0  0  0  0  0  0  0  0
   58.5220   30.6250   49.7340 C   0  0  0  0  0  0  0  0  0  0  0  0
   57.5835   31.1981   49.7079 H   0  0  0  0  0  0  0  0  0  0  0  0
   59.4240   33.2330   47.9560 N   0  0  0  0  0  0  0  0  0  0  0  0
   59.1970   33.7540   46.7360 C   0  0  0  0  0  0  0  0  0  0  0  0
   59.2750   35.3220   46.1530 S   0  0  0  0  0  0  0  0  0  0  0  0
   59.0120   34.7790   44.5470 C   0  0  0  0  0  0  0  0  0  0  0  0
   58.9455   35.4269   43.6605 H   0  0  0  0  0  0  0  0  0  0  0  0
   58.8950   33.3820   44.5390 C   0  0  0  0  0  0  0  0  0  0  0  0
   58.7453   32.7792   43.6311 H   0  0  0  0  0  0  0  0  0  0  0  0
   58.9890   32.8680   45.7850 N   0  0  0  0  0  0  0  0  0  0  0  0
  1  2  1  0
  2  3  2  0
  3  4  1  0
  4  5  2  0
  4  6  1  0
  6  7  1  0
  7  8  2  0
  7  9  1  0
  9 10  1  0
 10 11  1  0
 10 12  1  0
 10 13  1  0
  2 14  1  0
 14 15  2  0
 15 16  1  0
 16 17  2  0
 17 18  1  0
 17 19  1  0
 19 20  1  0
 19 21  2  0
 21 22  1  0
 22 23  1  0
 23 24  1  0
 23 25  1  0
 23 26  1  0
 21 27  1  0
 27 28  1  0
 28 29  1  0
 29 30  1  0
 29 31  1  0
 29 32  1  0
 27 33  2  0
 33 34  1  0
 15 35  1  0
 35 36  2  0
 36 37  1  0
 37 38  1  0
 38 39  1  0
 38 40  2  0
 40 41  1  0
 40 42  1  0
  9  3  1  0
 42 14  1  0
 33 16  1  0
 42 36  1  0
M  CHG  1   6  -1
M  END
>  <UniqueID>  (12) 
10

>  <SMILES>  (12) 
COc1ccc(-c2nc3sccn3c2/C=C2/C(=O)[N-]C(=S)N2C)cc1OC

>  <Energy>  (12) 
160.35891926685022

>  <Genealogy>  (12) 
COc1ccc(-c2nc3sccn3c2C=C2C(=O)[N-]C(=S)N2C)cc1OC (protonated)
COc1ccc(-c2nc3sccn3c2/C=C2/C(=O)[N-]C(=S)N2C)cc1OC (cis-trans isomerization)
COc1ccc(-c2nc3sccn3c2/C=C2/C(=O)[N-]C(=S)N2C)cc1OC (3D coordinates assigned)
COc1ccc(-c2nc3sccn3c2/C=C2/C(=O)[N-]C(=S)N2C)cc1OC (nonaromatic ring conformer: 160.35891926685022 kcal/mol)

>  <smiles>  (12) 
COc1ccc(-c2nc3sccn3c2C=C2C(=O)NC(=S)N2C)cc1OC

>  <score_type>  (12) 
oracle

>  <origin>  (12) 
adg

>  <m_score__min__energy>  (12) 
-8.9100000000000001

>  <m_primary>  (12) 
energy

$$$$
12:0
     RDKit          3D

 48 50  0  0  0  0  0  0  0  0999 V2000
   56.9640   31.5890   51.9880 C   0  0  0  0  0  0  0  0  0  0  0  0
   57.3630   30.4610   51.2390 O   0  0  0  0  0  0  0  0  0  0  0  0
   58.3540   30.8220   50.2950 C   0  0  0  0  0  0  0  0  0  0  0  0
   58.1690   32.2800   49.8610 C   0  0  0  0  0  0  0  0  0  0  0  0
   59.2550   32.6910   48.9440 N   0  0  0  0  0  0  0  0  0  0  0  0
   58.9930   33.1120   47.6520 C   0  0  0  0  0  0  0  0  0  0  0  0
   57.6030   33.1860   47.0570 C   0  0  0  0  0  0  0  0  0  0  0  0
   57.4780   32.2460   45.9250 N   0  0  0  0  0  0  0  0  0  0  0  0
   57.9820   32.8380   44.6710 C   0  0  0  0  0  0  0  0  0  0  0  0
   57.5860   31.9640   43.4670 C   0  0  0  0  0  0  0  0  0  0  0  0
   57.4480   30.4650   43.8240 C   0  0  0  0  0  0  0  0  0  0  0  0
   55.9920   30.0830   44.1370 C   0  0  0  0  0  0  0  0  0  0  0  0
   58.3890   30.0890   44.9830 C   0  0  0  0  0  0  0  0  0  0  0  0
   58.1820   30.9790   46.2300 C   0  0  0  0  0  0  0  0  0  0  0  0
   60.0170   33.4750   46.8370 N   0  0  0  0  0  0  0  0  0  0  0  0
   61.3040   33.4630   47.2490 C   0  0  0  0  0  0  0  0  0  0  0  0
   62.3250   33.8450   46.3700 C   0  0  0  0  0  0  0  0  0  0  0  0
   63.6550   33.8410   46.7990 C   0  0  0  0  0  0  0  0  0  0  0  0
   63.9670   33.4600   48.1060 C   0  0  0  0  0  0  0  0  0  0  0  0
   62.9520   33.0770   48.9890 C   0  0  0  0  0  0  0  0  0  0  0  0
   61.6090   33.0750   48.5630 C   0  0  0  0  0  0  0  0  0  0  0  0
   60.5520   32.6970   49.4070 C   0  0  0  0  0  0  0  0  0  0  0  0
   60.8040   32.3650   50.6000 O   0  0  0  0  0  0  0  0  0  0  0  0
   57.0439   31.3632   53.0616 H   0  0  0  0  0  0  0  0  0  0  0  0
   57.6153   32.4409   51.7430 H   0  0  0  0  0  0  0  0  0  0  0  0
   55.9219   31.8419   51.7430 H   0  0  0  0  0  0  0  0  0  0  0  0
   59.3487   30.7020   50.7492 H   0  0  0  0  0  0  0  0  0  0  0  0
   58.2616   30.1715   49.4127 H   0  0  0  0  0  0  0  0  0  0  0  0
   57.2023   32.3844   49.3466 H   0  0  0  0  0  0  0  0  0  0  0  0
   58.1957   32.9223   50.7536 H   0  0  0  0  0  0  0  0  0  0  0  0
   56.8639   32.9247   47.8286 H   0  0  0  0  0  0  0  0  0  0  0  0
   57.4239   34.2087   46.6936 H   0  0  0  0  0  0  0  0  0  0  0  0
   57.5521   33.8428   44.5463 H   0  0  0  0  0  0  0  0  0  0  0  0
   59.0791   32.8995   44.7215 H   0  0  0  0  0  0  0  0  0  0  0  0
   56.6213   32.3213   43.0774 H   0  0  0  0  0  0  0  0  0  0  0  0
   58.3894   32.0506   42.7207 H   0  0  0  0  0  0  0  0  0  0  0  0
   57.7486   29.8844   42.9394 H   0  0  0  0  0  0  0  0  0  0  0  0
   55.8490   30.0455   45.2270 H   0  0  0  0  0  0  0  0  0  0  0  0
   55.3147   30.8339   43.7040 H   0  0  0  0  0  0  0  0  0  0  0  0
   55.7706   29.0964   43.7040 H   0  0  0  0  0  0  0  0  0  0  0  0
   58.2022   29.0417   45.2628 H   0  0  0  0  0  0  0  0  0  0  0  0
   59.4218   30.2382   44.6352 H   0  0  0  0  0  0  0  0  0  0  0  0
   57.5897   30.4173   46.9674 H   0  0  0  0  0  0  0  0  0  0  0  0
   59.1778   31.2403   46.6173 H   0  0  0  0  0  0  0  0  0  0  0  0
   62.0800   34.1483   45.3414 H   0  0  0  0  0  0  0  0  0  0  0  0
   64.4567   34.1381   46.1069 H   0  0  0  0  0  0  0  0  0  0  0  0
   65.0144   33.4611   48.4421 H   0  0  0  0  0  0  0  0  0  0  0  0
   63.2026   32.7770   50.0172 H   0  0  0  0  0  0  0  0  0  0  0  0
  1  2  1  0
  2  3  1  0
  3  4  1  0
  4  5  1  0
  5  6  1  0
  6  7  1  0
  7  8  1  0
  8  9  1  0
  9 10  1  0
 10 11  1  0
 11 12  1  0
 11 13  1  0
 13 14  1  0
  6 15  2  0
 15 16  1  0
 16 17  2  0
 17 18  1  0
 18 19  2  0
 19 20  1  0
 20 21  2  0
 21 22  1  0
 22 23  2  0
 22  5  1  0
 14  8  1  0
 21 16  1  0
  1 24  1  0
  1 25  1  0
  1 26  1  0
  3 27  1  0
  3 28  1  0
  4 29  1  0
  4 30  1  0
  7 31  1  0
  7 32  1  0
  9 33  1  0
  9 34  1  0
 10 35  1  0
 10 36  1  0
 11 37  1  0
 12 38  1  0
 12 39  1  0
 12 40  1  0
 13 41  1  0
 13 42  1  0
 14 43  1  0
 14 44  1  0
 17 45  1  0
 18 46  1  0
 19 47  1  0
 20 48  1  0
M  END
>  <UniqueID>  (13) 
11

>  <SMILES>  (13) 
COCCn1c(CN2CCC(C)CC2)nc2ccccc2c1=O

>  <Energy>  (13) 
62.94171113448051

>  <Genealogy>  (13) 
COCCn1c(CN2CCC(C)CC2)nc2ccccc2c1=O (3D coordinates assigned)
COCCn1c(CN2CCC(C)CC2)nc2ccccc2c1=O (nonaromatic ring conformer: 62.94171113448051 kcal/mol)

>  <smiles>  (13) 
COCCn1c(CN2CCC(C)CC2)nc2ccccc2c1=O

>  <score_type>  (13) 
oracle

>  <origin>  (13) 
adg

>  <m_score__min__energy>  (13) 
-7.3899999999999997

>  <m_primary>  (13) 
energy

$$$$
13:0
     RDKit          3D

 71 75  0  0  0  0  0  0  0  0999 V2000
   62.6960   31.4630   47.4970 C   0  0  0  0  0  0  0  0  0  0  0  0
   63.7130   32.4460   48.0930 C   0  0  0  0  0  0  0  0  0  0  0  0
   63.6300   32.5150   49.5750 N   0  0  0  0  0  0  0  0  0  0  0  0
   63.4580   33.9260   50.0460 C   0  0  0  0  0  0  0  0  0  0  0  0
   62.2630   34.6070   49.3730 C   0  0  0  0  0  0  0  0  0  0  0  0
   64.8410   31.8930   50.1720 C   0  0  0  0  0  0  0  0  0  0  0  0
   64.4870   30.6900   51.0670 C   0  0  0  0  0  0  0  0  0  0  0  0
   63.8060   31.1410   52.3650 C   0  0  0  0  0  0  0  0  0  0  0  0
   62.5960   31.9290   52.0670 N   0  0  0  0  0  0  0  0  0  0  0  0
   61.3500   31.1870   52.3270 C   0  0  0  0  0  0  0  0  0  0  0  0
   61.0000   30.2840   51.1630 C   0  0  0  0  0  0  0  0  0  0  0  0
   60.4400   30.8240   49.9940 C   0  0  0  0  0  0  0  0  0  0  0  0
   60.0540   30.0060   48.9620 C   0  0  0  0  0  0  0  0  0  0  0  0
   60.1830   28.6610   49.0030 N   0  0  0  0  0  0  0  0  0  0  0  0
   60.7320   28.0740   50.1030 C   0  0  0  0  0  0  0  0  0  0  0  0
   60.8650   26.6810   50.1410 C   0  0  0  0  0  0  0  0  0  0  0  0
   61.4110   26.0580   51.2640 C   0  0  0  0  0  0  0  0  0  0  0  0
   61.8300   26.8200   52.3560 C   0  0  0  0  0  0  0  0  0  0  0  0
   61.7070   28.2110   52.3370 C   0  0  0  0  0  0  0  0  0  0  0  0
   61.1580   28.8660   51.2160 C   0  0  0  0  0  0  0  0  0  0  0  0
   59.4530   30.8220   47.9400 C   0  0  0  0  0  0  0  0  0  0  0  0
   58.8730   30.4230   46.7410 C   0  0  0  0  0  0  0  0  0  0  0  0
   58.3060   31.4070   45.8960 C   0  0  0  0  0  0  0  0  0  0  0  0
   58.3590   32.7670   46.3150 C   0  0  0  0  0  0  0  0  0  0  0  0
   58.9410   33.1010   47.5580 C   0  0  0  0  0  0  0  0  0  0  0  0
   58.9650   34.2970   47.9630 O   0  0  0  0  0  0  0  0  0  0  0  0
   59.4720   32.1140   48.3230 N   0  0  0  0  0  0  0  0  0  0  0  0
   60.0920   32.2490   49.6460 C   0  0  0  0  0  0  0  0  0  0  0  0
   57.7360   33.8250   45.4410 C   0  0  0  0  0  0  0  0  0  0  0  0
   57.9190   33.4920   44.0720 O   0  0  0  0  0  0  0  0  0  0  0  0
   57.7650   32.1850   43.6070 C   0  0  0  0  0  0  0  0  0  0  0  0
   57.7300   31.9900   42.3630 O   0  0  0  0  0  0  0  0  0  0  0  0
   57.5480   31.0460   44.5970 C   0  0  2  0  0  0  0  0  0  0  0  0
   56.1630   31.0060   44.8540 O   0  0  0  0  0  0  0  0  0  0  0  0
   58.0200   29.6870   43.9640 C   0  0  0  0  0  0  0  0  0  0  0  0
   57.3960   28.4360   44.5980 C   0  0  0  0  0  0  0  0  0  0  0  0
   62.1635   30.9483   48.3103 H   0  0  0  0  0  0  0  0  0  0  0  0
   61.9736   32.0139   46.8768 H   0  0  0  0  0  0  0  0  0  0  0  0
   63.2220   30.7223   46.8768 H   0  0  0  0  0  0  0  0  0  0  0  0
   64.7255   32.1220   47.8103 H   0  0  0  0  0  0  0  0  0  0  0  0
   63.4856   33.4466   47.6966 H   0  0  0  0  0  0  0  0  0  0  0  0
   62.8080   31.9260   49.8580 H   0  0  0  0  0  0  0  0  0  0  0  0
   63.2990   33.9214   51.1344 H   0  0  0  0  0  0  0  0  0  0  0  0
   64.3659   34.4882   49.7821 H   0  0  0  0  0  0  0  0  0  0  0  0
   61.5808   34.9957   50.1434 H   0  0  0  0  0  0  0  0  0  0  0  0
   62.6195   35.4376   48.7461 H   0  0  0  0  0  0  0  0  0  0  0  0
   61.7302   33.8769   48.7461 H   0  0  0  0  0  0  0  0  0  0  0  0
   65.5015   31.5511   49.3615 H   0  0  0  0  0  0  0  0  0  0  0  0
   65.3391   32.6484   50.7975 H   0  0  0  0  0  0  0  0  0  0  0  0
   63.8056   30.0234   50.5180 H   0  0  0  0  0  0  0  0  0  0  0  0
   65.4183   30.1661   51.3280 H   0  0  0  0  0  0  0  0  0  0  0  0
   63.5251   30.2549   52.9531 H   0  0  0  0  0  0  0  0  0  0  0  0
   64.5072   31.7681   52.9351 H   0  0  0  0  0  0  0  0  0  0  0  0
   62.5920   32.7590   52.7050 H   0  0  0  0  0  0  0  0  0  0  0  0
   61.4790   30.5739   53.2311 H   0  0  0  0  0  0  0  0  0  0  0  0
   60.5340   31.9118   52.4644 H   0  0  0  0  0  0  0  0  0  0  0  0
   60.5381   26.0755   49.2828 H   0  0  0  0  0  0  0  0  0  0  0  0
   61.5115   24.9629   51.2888 H   0  0  0  0  0  0  0  0  0  0  0  0
   62.2599   26.3215   53.2373 H   0  0  0  0  0  0  0  0  0  0  0  0
   62.0412   28.8002   53.2037 H   0  0  0  0  0  0  0  0  0  0  0  0
   58.8551   29.3612   46.4541 H   0  0  0  0  0  0  0  0  0  0  0  0
   60.9934   32.8778   49.5997 H   0  0  0  0  0  0  0  0  0  0  0  0
   59.4393   32.7332   50.3873 H   0  0  0  0  0  0  0  0  0  0  0  0
   56.6599   33.8911   45.6594 H   0  0  0  0  0  0  0  0  0  0  0  0
   58.2175   34.7927   45.6454 H   0  0  0  0  0  0  0  0  0  0  0  0
   55.7210   31.7130   44.3150 H   0  0  0  0  0  0  0  0  0  0  0  0
   57.7585   29.6970   42.8956 H   0  0  0  0  0  0  0  0  0  0  0  0
   59.1033   29.6196   44.1424 H   0  0  0  0  0  0  0  0  0  0  0  0
   57.4381   28.5205   45.6939 H   0  0  0  0  0  0  0  0  0  0  0  0
   56.3476   28.3464   44.2772 H   0  0  0  0  0  0  0  0  0  0  0  0
   57.9551   27.5446   44.2772 H   0  0  0  0  0  0  0  0  0  0  0  0
  1  2  1  0
  2  3  1  0
  3  4  1  0
  4  5  1  0
  3  6  1  0
  6  7  1  0
  7  8  1  0
  8  9  1  0
  9 10  1  0
 10 11  1  0
 11 12  2  0
 12 13  1  0
 13 14  2  0
 14 15  1  0
 15 16  2  0
 16 17  1  0
 17 18  2  0
 18 19  1  0
 19 20  2  0
 13 21  1  0
 21 22  2  0
 22 23  1  0
 23 24  2  0
 24 25  1  0
 25 26  2  0
 25 27  1  0
 27 28  1  0
 24 29  1  0
 29 30  1  0
 30 31  1  0
 31 32  2  0
 31 33  1  0
 33 34  1  1
 33 35  1  0
 35 36  1  0
 20 11  1  0
 27 21  1  0
 28 12  1  0
 20 15  1  0
 33 23  1  0
  1 37  1  0
  1 38  1  0
  1 39  1  0
  2 40  1  0
  2 41  1  0
  3 42  1  0
  4 43  1  0
  4 44  1  0
  5 45  1  0
  5 46  1  0
  5 47  1  0
  6 48  1  0
  6 49  1  0
  7 50  1  0
  7 51  1  0
  8 52  1  0
  8 53  1  0
  9 54  1  0
 10 55  1  0
 10 56  1  0
 16 57  1  0
 17 58  1  0
 18 59  1  0
 19 60  1  0
 22 61  1  0
 28 62  1  0
 28 63  1  0
 29 64  1  0
 29 65  1  0
 34 66  1  0
 35 67  1  0
 35 68  1  0
 36 69  1  0
 36 70  1  0
 36 71  1  0
M  CHG  1   3   1
M  END
>  <UniqueID>  (14) 
12

>  <SMILES>  (14) 
CC[NH+](CC)CCCNCc1c2c(nc3ccccc13)-c1cc3c(c(=O)n1C2)COC(=O)[C@@]3(O)CC

>  <Energy>  (14) 
116.37009794601478

>  <Genealogy>  (14) 
CC[NH+](CC)CCCNCc1c2c(nc3ccccc13)-c1cc3c(c(=O)n1C2)COC(=O)C3(O)CC (protonated)
CC[NH+](CC)CCCNCc1c2c(nc3ccccc13)-c1cc3c(c(=O)n1C2)COC(=O)[C@@]3(O)CC (chirality)
CC[NH+](CC)CCCNCc1c2c(nc3ccccc13)-c1cc3c(c(=O)n1C2)COC(=O)[C@@]3(O)CC (3D coordinates assigned)
CC[NH+](CC)CCCNCc1c2c(nc3ccccc13)-c1cc3c(c(=O)n1C2)COC(=O)[C@@]3(O)CC (nonaromatic ring conformer: 116.37009794601478 kcal/mol)

>  <smiles>  (14) 
CCN(CC)CCCNCc1c2c(nc3ccccc13)-c1cc3c(c(=O)n1C2)COC(=O)C3(O)CC

>  <score_type>  (14) 
oracle

>  <origin>  (14) 
adg

>  <m_score__min__energy>  (14) 
-6.3799999999999999

>  <m_primary>  (14) 
energy

$$$$
14:0
     RDKit          3D

 39 41  0  0  0  0  0  0  0  0999 V2000
   59.0650   22.2060   44.4740 C   0  0  0  0  0  0  0  0  0  0  0  0
   58.2020   23.2120   45.2320 C   0  0  0  0  0  0  0  0  0  0  0  0
   57.4740   24.0900   44.3030 N   0  0  0  0  0  0  0  0  0  0  0  0
   56.6440   23.4830   43.2500 C   0  0  0  0  0  0  0  0  0  0  0  0
   55.1970   23.3390   43.7150 C   0  0  0  0  0  0  0  0  0  0  0  0
   57.5780   25.5280   44.4270 C   0  0  0  0  0  0  0  0  0  0  0  0
   57.2300   26.1680   45.6280 C   0  0  0  0  0  0  0  0  0  0  0  0
   57.3210   27.5580   45.7460 C   0  0  0  0  0  0  0  0  0  0  0  0
   57.7580   28.3410   44.6660 C   0  0  0  0  0  0  0  0  0  0  0  0
   57.8470   29.7740   44.8040 N   0  0  0  0  0  0  0  0  0  0  0  0
   57.7030   30.4070   45.9680 N   0  0  0  0  0  0  0  0  0  0  0  0
   57.8400   31.7130   45.6780 C   0  0  0  0  0  0  0  0  0  0  0  0
   57.7720   32.8100   46.5320 C   0  0  0  0  0  0  0  0  0  0  0  0
   57.9410   34.0860   45.9580 C   0  0  0  0  0  0  0  0  0  0  0  0
   58.1670   34.2250   44.5660 C   0  0  0  0  0  0  0  0  0  0  0  0
   58.2280   33.0880   43.7350 C   0  0  0  0  0  0  0  0  0  0  0  0
   58.0600   31.8480   44.3420 C   0  0  0  0  0  0  0  0  0  0  0  0
   58.0630   30.6250   43.7990 N   0  0  0  0  0  0  0  0  0  0  0  0
   58.1180   27.7020   43.4670 C   0  0  0  0  0  0  0  0  0  0  0  0
   58.0290   26.3110   43.3500 C   0  0  0  0  0  0  0  0  0  0  0  0
   59.6075   21.5737   45.1922 H   0  0  0  0  0  0  0  0  0  0  0  0
   58.4229   21.5750   43.8418 H   0  0  0  0  0  0  0  0  0  0  0  0
   59.7863   22.7446   43.8418 H   0  0  0  0  0  0  0  0  0  0  0  0
   57.4769   22.6668   45.8540 H   0  0  0  0  0  0  0  0  0  0  0  0
   58.8583   23.8335   45.8589 H   0  0  0  0  0  0  0  0  0  0  0  0
   56.6732   24.1217   42.3549 H   0  0  0  0  0  0  0  0  0  0  0  0
   57.0415   22.4833   43.0205 H   0  0  0  0  0  0  0  0  0  0  0  0
   55.1638   23.3357   44.8145 H   0  0  0  0  0  0  0  0  0  0  0  0
   54.6034   24.1825   43.3328 H   0  0  0  0  0  0  0  0  0  0  0  0
   54.7812   22.3950   43.3328 H   0  0  0  0  0  0  0  0  0  0  0  0
   56.8827   25.5700   46.4834 H   0  0  0  0  0  0  0  0  0  0  0  0
   57.0474   28.0430   46.6946 H   0  0  0  0  0  0  0  0  0  0  0  0
   57.5937   32.6861   47.6104 H   0  0  0  0  0  0  0  0  0  0  0  0
   57.8971   34.9812   46.5957 H   0  0  0  0  0  0  0  0  0  0  0  0
   58.2957   35.2271   44.1309 H   0  0  0  0  0  0  0  0  0  0  0  0
   58.4011   33.1777   42.6524 H   0  0  0  0  0  0  0  0  0  0  0  0
   58.1740   30.3870   42.7890 H   0  0  0  0  0  0  0  0  0  0  0  0
   58.4723   28.3001   42.6145 H   0  0  0  0  0  0  0  0  0  0  0  0
   58.3148   25.8248   42.4056 H   0  0  0  0  0  0  0  0  0  0  0  0
  1  2  1  0
  2  3  1  0
  3  4  1  0
  4  5  1  0
  3  6  1  0
  6  7  2  0
  7  8  1  0
  8  9  2  0
  9 10  1  0
 10 11  1  0
 11 12  2  0
 12 13  1  0
 13 14  2  0
 14 15  1  0
 15 16  2  0
 16 17  1  0
 17 18  2  0
  9 19  1  0
 19 20  2  0
 20  6  1  0
 18 10  1  0
 17 12  1  0
  1 21  1  0
  1 22  1  0
  1 23  1  0
  2 24  1  0
  2 25  1  0
  4 26  1  0
  4 27  1  0
  5 28  1  0
  5 29  1  0
  5 30  1  0
  7 31  1  0
  8 32  1  0
 13 33  1  0
 14 34  1  0
 15 35  1  0
 16 36  1  0
 18 37  1  0
 19 38  1  0
 20 39  1  0
M  CHG  1  18   1
M  END
>  <UniqueID>  (15) 
13

>  <SMILES>  (15) 
CCN(CC)c1ccc(-n2nc3ccccc3[nH+]2)cc1

>  <Energy>  (15) 
85.00594382091262

>  <Genealogy>  (15) 
CCN(CC)c1ccc(-n2nc3ccccc3[nH+]2)cc1 (protonated)
CCN(CC)c1ccc(-n2nc3ccccc3[nH+]2)cc1 (3D coordinates assigned)
CCN(CC)c1ccc(-n2nc3ccccc3[nH+]2)cc1 (optimized conformer: 85.00594382091262 kcal/mol)

>  <smiles>  (15) 
CCN(CC)c1ccc(-n2nc3ccccc3n2)cc1

>  <score_type>  (15) 
oracle

>  <origin>  (15) 
adg

>  <m_score__min__energy>  (15) 
-5.6299999999999999

>  <m_primary>  (15) 
energy

$$$$
15:0
     RDKit          3D

 33 35  0  0  0  0  0  0  0  0999 V2000
   60.7560   29.6010   47.6210 C   0  0  0  0  0  0  0  0  0  0  0  0
   59.5570   30.0280   46.8020 C   0  0  0  0  0  0  0  0  0  0  0  0
   59.4180   31.3950   46.3830 C   0  0  0  0  0  0  0  0  0  0  0  0
   58.3320   31.7710   45.5480 C   0  0  0  0  0  0  0  0  0  0  0  0
   57.3850   30.7990   45.2330 C   0  0  0  0  0  0  0  0  0  0  0  0
   56.2740   30.9510   44.4940 N   0  0  0  0  0  0  0  0  0  0  0  0
   55.7230   29.7130   44.5220 C   0  0  0  0  0  0  0  0  0  0  0  0
   56.4290   28.8050   45.2400 N   0  0  0  0  0  0  0  0  0  0  0  0
   57.4770   29.5220   45.6810 C   0  0  0  0  0  0  0  0  0  0  0  0
   58.5340   29.0840   46.4850 C   0  0  0  0  0  0  0  0  0  0  0  0
   58.5790   27.6520   46.9570 C   0  0  0  0  0  0  0  0  0  0  0  0
   58.1320   33.1880   45.0780 C   0  0  0  0  0  0  0  0  0  0  0  0
   59.3770   34.0560   45.2940 C   0  0  0  0  0  0  0  0  0  0  0  0
   59.9980   33.8260   46.6140 N   0  0  1  0  0  0  0  0  0  0  0  0
   59.1140   34.2150   47.7310 C   0  0  0  0  0  0  0  0  0  0  0  0
   60.4700   32.4310   46.7470 C   0  0  0  0  0  0  0  0  0  0  0  0
   60.5178   29.6858   48.6915 H   0  0  0  0  0  0  0  0  0  0  0  0
   61.0095   28.5573   47.3833 H   0  0  0  0  0  0  0  0  0  0  0  0
   61.6121   30.2495   47.3833 H   0  0  0  0  0  0  0  0  0  0  0  0
   54.7833   29.4660   44.0063 H   0  0  0  0  0  0  0  0  0  0  0  0
   58.5797   27.6283   48.0567 H   0  0  0  0  0  0  0  0  0  0  0  0
   57.6973   27.1135   46.5792 H   0  0  0  0  0  0  0  0  0  0  0  0
   59.4927   27.1699   46.5792 H   0  0  0  0  0  0  0  0  0  0  0  0
   57.8931   33.1738   44.0044 H   0  0  0  0  0  0  0  0  0  0  0  0
   57.3122   33.6245   45.6673 H   0  0  0  0  0  0  0  0  0  0  0  0
   60.1128   33.8204   44.5110 H   0  0  0  0  0  0  0  0  0  0  0  0
   59.0649   35.1098   45.2478 H   0  0  0  0  0  0  0  0  0  0  0  0
   60.8410   34.4460   46.6670 H   0  0  0  0  0  0  0  0  0  0  0  0
   59.6125   33.9956   48.6867 H   0  0  0  0  0  0  0  0  0  0  0  0
   58.8972   35.2917   47.6692 H   0  0  0  0  0  0  0  0  0  0  0  0
   58.1737   33.6475   47.6692 H   0  0  0  0  0  0  0  0  0  0  0  0
   61.3377   32.2929   46.0852 H   0  0  0  0  0  0  0  0  0  0  0  0
   60.7228   32.2756   47.8062 H   0  0  0  0  0  0  0  0  0  0  0  0
  1  2  1  0
  2  3  2  0
  3  4  1  0
  4  5  2  0
  5  6  1  0
  6  7  2  0
  7  8  1  0
  8  9  1  0
  9 10  2  0
 10 11  1  0
  4 12  1  0
 12 13  1  0
 13 14  1  0
 14 15  1  0
 14 16  1  0
 10  2  1  0
 16  3  1  0
  9  5  1  0
  1 17  1  0
  1 18  1  0
  1 19  1  0
  7 20  1  0
 11 21  1  0
 11 22  1  0
 11 23  1  0
 12 24  1  0
 12 25  1  0
 13 26  1  0
 13 27  1  0
 14 28  1  6
 15 29  1  0
 15 30  1  0
 15 31  1  0
 16 32  1  0
 16 33  1  0
M  CHG  2   8  -1  14   1
M  END
>  <UniqueID>  (16) 
14

>  <SMILES>  (16) 
Cc1c2c(c3nc[n-]c3c1C)CC[N@@H+](C)C2

>  <Energy>  (16) 
77.1025494972431

>  <Genealogy>  (16) 
Cc1c2c(c3nc[n-]c3c1C)CC[NH+](C)C2 (protonated)
Cc1c2c(c3nc[n-]c3c1C)CC[N@@H+](C)C2 (chirality)
Cc1c2c(c3nc[n-]c3c1C)CC[N@@H+](C)C2 (3D coordinates assigned)
Cc1c2c(c3nc[n-]c3c1C)CC[N@@H+](C)C2 (nonaromatic ring conformer: 77.1025494972431 kcal/mol)

>  <smiles>  (16) 
Cc1c2c(c3nc[nH]c3c1C)CCN(C)C2

>  <score_type>  (16) 
oracle

>  <origin>  (16) 
adg

>  <m_score__min__energy>  (16) 
-6.4199999999999999

>  <m_primary>  (16) 
energy

$$$$
16:0
     RDKit          3D

 37 38  0  0  0  0  0  0  0  0999 V2000
   56.4770   29.7270   43.5080 C   0  0  0  0  0  0  0  0  0  0  0  0
   56.5750   30.2230   44.8390 O   0  0  0  0  0  0  0  0  0  0  0  0
   57.3670   31.3150   45.2300 C   0  0  0  0  0  0  0  0  0  0  0  0
   57.0230   32.6370   44.8790 C   0  0  0  0  0  0  0  0  0  0  0  0
   57.7970   33.7120   45.3210 C   0  0  0  0  0  0  0  0  0  0  0  0
   58.9180   33.4870   46.1210 C   0  0  0  0  0  0  0  0  0  0  0  0
   59.9680   34.9610   46.7300 Br  0  0  0  0  0  0  0  0  0  0  0  0
   59.2750   32.1830   46.4700 C   0  0  0  0  0  0  0  0  0  0  0  0
   58.5190   31.0870   46.0170 C   0  0  0  0  0  0  0  0  0  0  0  0
   58.9400   29.7200   46.3940 C   0  0  0  0  0  0  0  0  0  0  0  0
   60.1650   29.4810   46.5790 O   0  0  0  0  0  0  0  0  0  0  0  0
   57.9790   28.6590   46.5130 N   0  0  0  0  0  0  0  0  0  0  0  0
   58.3480   27.3140   46.9490 C   0  0  0  0  0  0  0  0  0  0  0  0
   57.8020   26.2900   45.9920 C   0  0  0  0  0  0  0  0  0  0  0  0
   58.0020   26.4430   44.6110 C   0  0  0  0  0  0  0  0  0  0  0  0
   57.5180   25.4830   43.7170 C   0  0  0  0  0  0  0  0  0  0  0  0
   56.8370   24.3580   44.1960 C   0  0  0  0  0  0  0  0  0  0  0  0
   56.2190   23.1260   43.0490 S   0  0  0  0  0  0  0  0  0  0  0  0
   57.3140   21.8160   43.6770 C   0  0  0  0  0  0  0  0  0  0  0  0
   56.6340   24.2010   45.5710 C   0  0  0  0  0  0  0  0  0  0  0  0
   57.1160   25.1590   46.4670 C   0  0  0  0  0  0  0  0  0  0  0  0
   56.2638   28.6482   43.5335 H   0  0  0  0  0  0  0  0  0  0  0  0
   55.6646   30.2489   42.9811 H   0  0  0  0  0  0  0  0  0  0  0  0
   57.4268   29.9007   42.9811 H   0  0  0  0  0  0  0  0  0  0  0  0
   56.1383   32.8227   44.2523 H   0  0  0  0  0  0  0  0  0  0  0  0
   57.5223   34.7388   45.0378 H   0  0  0  0  0  0  0  0  0  0  0  0
   60.1562   32.0112   47.1055 H   0  0  0  0  0  0  0  0  0  0  0  0
   56.9910   28.8240   46.2170 H   0  0  0  0  0  0  0  0  0  0  0  0
   59.4443   27.2311   46.9834 H   0  0  0  0  0  0  0  0  0  0  0  0
   57.9262   27.1322   47.9485 H   0  0  0  0  0  0  0  0  0  0  0  0
   58.5421   27.3224   44.2303 H   0  0  0  0  0  0  0  0  0  0  0  0
   57.6727   25.6122   42.6356 H   0  0  0  0  0  0  0  0  0  0  0  0
   57.3051   21.8267   44.7769 H   0  0  0  0  0  0  0  0  0  0  0  0
   56.9604   20.8386   43.3169 H   0  0  0  0  0  0  0  0  0  0  0  0
   58.3386   21.9906   43.3169 H   0  0  0  0  0  0  0  0  0  0  0  0
   56.0932   23.3206   45.9483 H   0  0  0  0  0  0  0  0  0  0  0  0
   56.9580   25.0275   47.5476 H   0  0  0  0  0  0  0  0  0  0  0  0
  1  2  1  0
  2  3  1  0
  3  4  2  0
  4  5  1  0
  5  6  2  0
  6  7  1  0
  6  8  1  0
  8  9  2  0
  9 10  1  0
 10 11  2  0
 10 12  1  0
 12 13  1  0
 13 14  1  0
 14 15  2  0
 15 16  1  0
 16 17  2  0
 17 18  1  0
 18 19  1  0
 17 20  1  0
 20 21  2  0
  9  3  1  0
 21 14  1  0
  1 22  1  0
  1 23  1  0
  1 24  1  0
  4 25  1  0
  5 26  1  0
  8 27  1  0
 12 28  1  0
 13 29  1  0
 13 30  1  0
 15 31  1  0
 16 32  1  0
 19 33  1  0
 19 34  1  0
 19 35  1  0
 20 36  1  0
 21 37  1  0
M  END
>  <UniqueID>  (17) 
15

>  <SMILES>  (17) 
COc1ccc(Br)cc1C(=O)NCc1ccc(SC)cc1

>  <Energy>  (17) 
34.17101254293332

>  <Genealogy>  (17) 
COc1ccc(Br)cc1C(=O)NCc1ccc(SC)cc1 (3D coordinates assigned)
COc1ccc(Br)cc1C(=O)NCc1ccc(SC)cc1 (optimized conformer: 34.17101254293332 kcal/mol)

>  <smiles>  (17) 
COc1ccc(Br)cc1C(=O)NCc1ccc(SC)cc1

>  <score_type>  (17) 
oracle

>  <origin>  (17) 
adg

>  <m_score__min__energy>  (17) 
-7.3200000000000003

>  <m_primary>  (17) 
energy

$$$$
17:0
     RDKit          3D

 51 54  0  0  0  0  0  0  0  0999 V2000
   66.5330   32.2030   51.3440 C   0  0  0  0  0  0  0  0  0  0  0  0
   65.2180   32.6930   51.5870 O   0  0  0  0  0  0  0  0  0  0  0  0
   64.3000   33.0320   50.5820 C   0  0  0  0  0  0  0  0  0  0  0  0
   64.4360   32.5850   49.2560 C   0  0  0  0  0  0  0  0  0  0  0  0
   63.4940   32.9520   48.2890 C   0  0  0  0  0  0  0  0  0  0  0  0
   62.4020   33.7710   48.6290 C   0  0  0  0  0  0  0  0  0  0  0  0
   61.3780   34.1790   47.5830 C   0  0  1  0  0  0  0  0  0  0  0  0
   61.3710   33.1810   46.3820 C   0  0  0  0  0  0  0  0  0  0  0  0
   60.3830   32.0530   46.5780 C   0  0  0  0  0  0  0  0  0  0  0  0
   60.7370   30.9030   46.3720 O   0  0  0  0  0  0  0  0  0  0  0  0
   58.9940   32.3450   47.1200 C   0  0  1  0  0  0  0  0  0  0  0  0
   58.9000   33.8370   47.3730 C   0  0  0  0  0  0  0  0  0  0  0  0
   58.2000   34.6290   46.6110 N   0  0  0  0  0  0  0  0  0  0  0  0
   57.4110   34.1580   45.5140 C   0  0  0  0  0  0  0  0  0  0  0  0
   56.6470   34.9520   44.9060 O   0  0  0  0  0  0  0  0  0  0  0  0
   57.5800   32.7520   45.0290 C   0  0  0  0  0  0  0  0  0  0  0  0
   57.8130   31.8390   46.2430 C   0  0  1  0  0  0  0  0  0  0  0  0
   57.9120   30.3570   45.9030 C   0  0  0  0  0  0  0  0  0  0  0  0
   58.2090   29.3750   46.8700 C   0  0  0  0  0  0  0  0  0  0  0  0
   58.2560   28.0220   46.5180 C   0  0  0  0  0  0  0  0  0  0  0  0
   58.0030   27.6300   45.2000 C   0  0  0  0  0  0  0  0  0  0  0  0
   58.0590   25.8940   44.7520 S   0  0  0  0  0  0  0  0  0  0  0  0
   57.7670   26.2160   42.9850 C   0  0  0  0  0  0  0  0  0  0  0  0
   57.6890   28.5920   44.2370 C   0  0  0  0  0  0  0  0  0  0  0  0
   57.6400   29.9440   44.5850 C   0  0  0  0  0  0  0  0  0  0  0  0
   59.9780   34.4230   48.2320 C   0  0  0  0  0  0  0  0  0  0  0  0
   62.2720   34.2130   49.9560 C   0  0  0  0  0  0  0  0  0  0  0  0
   63.2150   33.8450   50.9210 C   0  0  0  0  0  0  0  0  0  0  0  0
   67.0374   32.0151   52.3033 H   0  0  0  0  0  0  0  0  0  0  0  0
   66.4750   31.2661   50.7705 H   0  0  0  0  0  0  0  0  0  0  0  0
   67.1023   32.9494   50.7705 H   0  0  0  0  0  0  0  0  0  0  0  0
   65.2860   31.9445   48.9779 H   0  0  0  0  0  0  0  0  0  0  0  0
   63.6082   32.5972   47.2541 H   0  0  0  0  0  0  0  0  0  0  0  0
   61.6703   35.1477   47.1516 H   0  0  0  0  0  0  0  0  0  0  0  0
   61.1036   33.7304   45.4673 H   0  0  0  0  0  0  0  0  0  0  0  0
   62.3754   32.7389   46.3064 H   0  0  0  0  0  0  0  0  0  0  0  0
   58.8792   31.7692   48.0502 H   0  0  0  0  0  0  0  0  0  0  0  0
   56.6733   32.4330   44.4941 H   0  0  0  0  0  0  0  0  0  0  0  0
   58.4381   32.6917   44.3434 H   0  0  0  0  0  0  0  0  0  0  0  0
   56.9003   31.9113   46.8528 H   0  0  0  0  0  0  0  0  0  0  0  0
   58.4054   29.6752   47.9098 H   0  0  0  0  0  0  0  0  0  0  0  0
   58.4926   27.2647   47.2799 H   0  0  0  0  0  0  0  0  0  0  0  0
   57.0317   27.0269   42.8767 H   0  0  0  0  0  0  0  0  0  0  0  0
   58.7117   26.5112   42.5051 H   0  0  0  0  0  0  0  0  0  0  0  0
   57.3811   25.3045   42.5051 H   0  0  0  0  0  0  0  0  0  0  0  0
   57.4798   28.2841   43.2019 H   0  0  0  0  0  0  0  0  0  0  0  0
   57.3862   30.6937   43.8211 H   0  0  0  0  0  0  0  0  0  0  0  0
   59.8102   35.5050   48.3378 H   0  0  0  0  0  0  0  0  0  0  0  0
   59.9516   33.9402   49.2200 H   0  0  0  0  0  0  0  0  0  0  0  0
   61.4228   34.8528   50.2380 H   0  0  0  0  0  0  0  0  0  0  0  0
   63.1017   34.1987   51.9564 H   0  0  0  0  0  0  0  0  0  0  0  0
  1  2  1  0
  2  3  1  0
  3  4  2  0
  4  5  1  0
  5  6  2  0
  6  7  1  0
  7  8  1  0
  8  9  1  0
  9 10  2  0
  9 11  1  0
 11 12  1  0
 12 13  2  0
 13 14  1  0
 14 15  2  0
 14 16  1  0
 16 17  1  0
 17 18  1  0
 18 19  2  0
 19 20  1  0
 20 21  2  0
 21 22  1  0
 22 23  1  0
 21 24  1  0
 24 25  2  0
 12 26  1  0
  6 27  1  0
 27 28  2  0
 28  3  1  0
 26  7  1  0
 17 11  1  0
 25 18  1  0
  1 29  1  0
  1 30  1  0
  1 31  1  0
  4 32  1  0
  5 33  1  0
  7 34  1  6
  8 35  1  0
  8 36  1  0
 11 37  1  1
 16 38  1  0
 16 39  1  0
 17 40  1  1
 19 41  1  0
 20 42  1  0
 23 43  1  0
 23 44  1  0
 23 45  1  0
 24 46  1  0
 25 47  1  0
 26 48  1  0
 26 49  1  0
 27 50  1  0
 28 51  1  0
M  END
>  <UniqueID>  (18) 
16

>  <SMILES>  (18) 
COc1ccc([C@H]2CC(=O)[C@H]3C(=NC(=O)CC3c3ccc(SC)cc3)C2)cc1

>  <Energy>  (18) 
63.35113459056857

>  <Genealogy>  (18) 
COc1ccc([C@H]2CC(=O)[C@H]3C(=NC(=O)CC3c3ccc(SC)cc3)C2)cc1 (chirality)
COc1ccc([C@H]2CC(=O)[C@H]3C(=NC(=O)CC3c3ccc(SC)cc3)C2)cc1 (3D coordinates assigned)
COc1ccc([C@H]2CC(=O)[C@H]3C(=NC(=O)CC3c3ccc(SC)cc3)C2)cc1 (nonaromatic ring conformer: 63.35113459056857 kcal/mol)

>  <smiles>  (18) 
COc1ccc(C2CC(=O)C3C(=NC(=O)CC3c3ccc(SC)cc3)C2)cc1

>  <score_type>  (18) 
oracle

>  <origin>  (18) 
adg

>  <m_score__min__energy>  (18) 
-8.4399999999999995

>  <m_primary>  (18) 
energy

$$$$
18:0
     RDKit          3D

 44 46  0  0  0  0  0  0  0  0999 V2000
   57.0840   29.9950   52.7120 C   0  0  0  0  0  0  0  0  0  0  0  0
   57.7710   29.5610   51.5430 O   0  0  0  0  0  0  0  0  0  0  0  0
   58.2450   30.4190   50.5400 C   0  0  0  0  0  0  0  0  0  0  0  0
   58.1100   31.8000   50.7260 C   0  0  0  0  0  0  0  0  0  0  0  0
   58.5640   32.6960   49.7540 C   0  0  0  0  0  0  0  0  0  0  0  0
   59.1600   32.2190   48.5780 C   0  0  0  0  0  0  0  0  0  0  0  0
   59.6170   33.1410   47.5760 N   0  0  0  0  0  0  0  0  0  0  0  0
   60.8090   33.7690   47.5120 C   0  0  0  0  0  0  0  0  0  0  0  0
   61.9090   33.6340   48.5170 C   0  0  0  0  0  0  0  0  0  0  0  0
   60.8890   34.5610   46.4260 N   0  0  0  0  0  0  0  0  0  0  0  0
   59.7400   34.4440   45.7770 N   0  0  0  0  0  0  0  0  0  0  0  0
   58.9700   33.5890   46.4780 C   0  0  0  0  0  0  0  0  0  0  0  0
   57.5650   33.2270   46.0730 C   0  0  0  0  0  0  0  0  0  0  0  0
   57.4170   32.8980   44.5720 C   0  0  0  0  0  0  0  0  0  0  0  0
   57.7730   31.5110   44.2000 N   0  0  0  0  0  0  0  0  0  0  0  0
   58.0560   30.5880   45.3190 C   0  0  0  0  0  0  0  0  0  0  0  0
   57.1420   29.3580   45.3010 C   0  0  0  0  0  0  0  0  0  0  0  0
   55.8550   29.7270   44.8640 O   0  0  0  0  0  0  0  0  0  0  0  0
   55.8800   30.0050   43.4780 C   0  0  0  0  0  0  0  0  0  0  0  0
   57.0370   30.9410   43.0530 C   0  0  0  0  0  0  0  0  0  0  0  0
   59.3040   30.8380   48.3890 C   0  0  0  0  0  0  0  0  0  0  0  0
   58.8490   29.9420   49.3600 C   0  0  0  0  0  0  0  0  0  0  0  0
   57.6270   29.6520   53.6050 H   0  0  0  0  0  0  0  0  0  0  0  0
   57.0268   31.0935   52.7171 H   0  0  0  0  0  0  0  0  0  0  0  0
   56.0674   29.5749   52.7171 H   0  0  0  0  0  0  0  0  0  0  0  0
   57.6426   32.1833   51.6450 H   0  0  0  0  0  0  0  0  0  0  0  0
   58.4533   33.7789   49.9122 H   0  0  0  0  0  0  0  0  0  0  0  0
   61.4871   33.6858   49.5316 H   0  0  0  0  0  0  0  0  0  0  0  0
   62.4149   32.6670   48.3792 H   0  0  0  0  0  0  0  0  0  0  0  0
   62.6337   34.4499   48.3792 H   0  0  0  0  0  0  0  0  0  0  0  0
   57.2520   32.3469   46.6539 H   0  0  0  0  0  0  0  0  0  0  0  0
   56.9361   34.1071   46.2727 H   0  0  0  0  0  0  0  0  0  0  0  0
   56.3688   33.0700   44.2863 H   0  0  0  0  0  0  0  0  0  0  0  0
   58.1258   33.5511   44.0418 H   0  0  0  0  0  0  0  0  0  0  0  0
   59.1014   30.2535   45.2464 H   0  0  0  0  0  0  0  0  0  0  0  0
   57.8732   31.1305   46.2583 H   0  0  0  0  0  0  0  0  0  0  0  0
   57.5579   28.6039   44.6167 H   0  0  0  0  0  0  0  0  0  0  0  0
   57.0751   28.9400   46.3163 H   0  0  0  0  0  0  0  0  0  0  0  0
   55.9848   29.0543   42.9348 H   0  0  0  0  0  0  0  0  0  0  0  0
   54.9407   30.5243   43.2368 H   0  0  0  0  0  0  0  0  0  0  0  0
   57.7427   30.3667   42.4348 H   0  0  0  0  0  0  0  0  0  0  0  0
   56.5925   31.7808   42.4987 H   0  0  0  0  0  0  0  0  0  0  0  0
   59.7775   30.4574   47.4719 H   0  0  0  0  0  0  0  0  0  0  0  0
   58.9629   28.8593   49.2023 H   0  0  0  0  0  0  0  0  0  0  0  0
  1  2  1  0
  2  3  1  0
  3  4  2  0
  4  5  1  0
  5  6  2  0
  6  7  1  0
  7  8  1  0
  8  9  1  0
  8 10  2  0
 10 11  1  0
 11 12  2  0
 12 13  1  0
 13 14  1  0
 14 15  1  0
 15 16  1  0
 16 17  1  0
 17 18  1  0
 18 19  1  0
 19 20  1  0
  6 21  1  0
 21 22  2  0
 22  3  1  0
 12  7  1  0
 20 15  1  0
  1 23  1  0
  1 24  1  0
  1 25  1  0
  4 26  1  0
  5 27  1  0
  9 28  1  0
  9 29  1  0
  9 30  1  0
 13 31  1  0
 13 32  1  0
 14 33  1  0
 14 34  1  0
 16 35  1  0
 16 36  1  0
 17 37  1  0
 17 38  1  0
 19 39  1  0
 19 40  1  0
 20 41  1  0
 20 42  1  0
 21 43  1  0
 22 44  1  0
M  END
>  <UniqueID>  (19) 
17

>  <SMILES>  (19) 
COc1ccc(-n2c(C)nnc2CCN2CCOCC2)cc1

>  <Energy>  (19) 
98.68833344669775

>  <Genealogy>  (19) 
COc1ccc(-n2c(C)nnc2CCN2CCOCC2)cc1 (3D coordinates assigned)
COc1ccc(-n2c(C)nnc2CCN2CCOCC2)cc1 (nonaromatic ring conformer: 98.68833344669775 kcal/mol)

>  <smiles>  (19) 
COc1ccc(-n2c(C)nnc2CCN2CCOCC2)cc1

>  <score_type>  (19) 
oracle

>  <origin>  (19) 
adg

>  <m_score__min__energy>  (19) 
-7.0199999999999996

>  <m_primary>  (19) 
energy

$$$$
19:0
     RDKit          3D

 41 42  0  0  0  0  0  0  0  0999 V2000
   60.7590   30.1680   49.1840 C   0  0  0  0  0  0  0  0  0  0  0  0
   60.7460   29.0490   48.3050 O   0  0  0  0  0  0  0  0  0  0  0  0
   59.8880   28.9170   47.2030 C   0  0  0  0  0  0  0  0  0  0  0  0
   58.6430   28.2640   47.2900 C   0  0  0  0  0  0  0  0  0  0  0  0
   57.8220   28.1580   46.1620 C   0  0  0  0  0  0  0  0  0  0  0  0
   58.2350   28.6940   44.9330 C   0  0  0  0  0  0  0  0  0  0  0  0
   57.3360   28.6100   43.7260 C   0  0  0  0  0  0  0  0  0  0  0  0
   56.7990   29.9910   43.3250 C   0  0  0  0  0  0  0  0  0  0  0  0
   56.3810   30.7720   44.5010 N   0  0  0  0  0  0  0  0  0  0  0  0
   57.1060   32.0470   44.6340 C   0  0  0  0  0  0  0  0  0  0  0  0
   57.8720   32.1310   45.9320 C   0  0  0  0  0  0  0  0  0  0  0  0
   57.7920   31.1690   46.7430 O   0  0  0  0  0  0  0  0  0  0  0  0
   58.7110   33.2580   46.2500 N   0  0  0  0  0  0  0  0  0  0  0  0
   58.7670   34.4930   45.4850 C   0  0  0  0  0  0  0  0  0  0  0  0
   59.6570   35.4340   46.2860 C   0  0  0  0  0  0  0  0  0  0  0  0
   60.4070   34.5550   47.2830 C   0  0  0  0  0  0  0  0  0  0  0  0
   59.5910   33.2750   47.4060 C   0  0  0  0  0  0  0  0  0  0  0  0
   59.4710   29.3530   44.8490 C   0  0  0  0  0  0  0  0  0  0  0  0
   60.2900   29.4580   45.9770 C   0  0  0  0  0  0  0  0  0  0  0  0
   60.7549   29.8158   50.2261 H   0  0  0  0  0  0  0  0  0  0  0  0
   61.6642   30.7662   49.0027 H   0  0  0  0  0  0  0  0  0  0  0  0
   59.8680   30.7871   49.0027 H   0  0  0  0  0  0  0  0  0  0  0  0
   58.3149   27.8357   48.2486 H   0  0  0  0  0  0  0  0  0  0  0  0
   56.8483   27.6521   46.2391 H   0  0  0  0  0  0  0  0  0  0  0  0
   57.9066   28.1905   42.8843 H   0  0  0  0  0  0  0  0  0  0  0  0
   56.4796   27.9676   43.9786 H   0  0  0  0  0  0  0  0  0  0  0  0
   57.5897   30.5411   42.7937 H   0  0  0  0  0  0  0  0  0  0  0  0
   55.9207   29.8445   42.6792 H   0  0  0  0  0  0  0  0  0  0  0  0
   56.5450   30.1970   45.3610 H   0  0  0  0  0  0  0  0  0  0  0  0
   57.8140   32.1416   43.7974 H   0  0  0  0  0  0  0  0  0  0  0  0
   56.3658   32.8606   44.6238 H   0  0  0  0  0  0  0  0  0  0  0  0
   59.2001   34.3090   44.4908 H   0  0  0  0  0  0  0  0  0  0  0  0
   57.7650   34.9184   45.3268 H   0  0  0  0  0  0  0  0  0  0  0  0
   60.3661   35.9484   45.6208 H   0  0  0  0  0  0  0  0  0  0  0  0
   59.0675   36.2100   46.7962 H   0  0  0  0  0  0  0  0  0  0  0  0
   61.4175   34.3305   46.9108 H   0  0  0  0  0  0  0  0  0  0  0  0
   60.5230   35.0554   48.2557 H   0  0  0  0  0  0  0  0  0  0  0  0
   60.2524   32.3961   47.3977 H   0  0  0  0  0  0  0  0  0  0  0  0
   59.0245   33.2433   48.3484 H   0  0  0  0  0  0  0  0  0  0  0  0
   59.7964   29.7883   43.8926 H   0  0  0  0  0  0  0  0  0  0  0  0
   61.2600   29.9710   45.8999 H   0  0  0  0  0  0  0  0  0  0  0  0
  1  2  1  0
  2  3  1  0
  3  4  2  0
  4  5  1  0
  5  6  2  0
  6  7  1  0
  7  8  1  0
  8  9  1  0
  9 10  1  0
 10 11  1  0
 11 12  2  0
 11 13  1  0
 13 14  1  0
 14 15  1  0
 15 16  1  0
 16 17  1  0
  6 18  1  0
 18 19  2  0
 19  3  1  0
 17 13  1  0
  1 20  1  0
  1 21  1  0
  1 22  1  0
  4 23  1  0
  5 24  1  0
  7 25  1  0
  7 26  1  0
  8 27  1  0
  8 28  1  0
  9 29  1  0
 10 30  1  0
 10 31  1  0
 14 32  1  0
 14 33  1  0
 15 34  1  0
 15 35  1  0
 16 36  1  0
 16 37  1  0
 17 38  1  0
 17 39  1  0
 18 40  1  0
 19 41  1  0
M  END
>  <UniqueID>  (20) 
18

>  <SMILES>  (20) 
COc1ccc(CCNCC(=O)N2CCCC2)cc1

>  <Energy>  (20) 
35.56928009133711

>  <Genealogy>  (20) 
COc1ccc(CCNCC(=O)N2CCCC2)cc1 (3D coordinates assigned)
COc1ccc(CCNCC(=O)N2CCCC2)cc1 (nonaromatic ring conformer: 35.56928009133711 kcal/mol)

>  <smiles>  (20) 
COc1ccc(CCNCC(=O)N2CCCC2)cc1

>  <score_type>  (20) 
oracle

>  <origin>  (20) 
adg

>  <m_score__min__energy>  (20) 
-6.5700000000000003

>  <m_primary>  (20) 
energy

$$$$
20:0
     RDKit          3D

 39 42  0  0  0  0  0  0  0  0999 V2000
   58.9680   35.2900   46.4340 O   0  0  0  0  0  0  0  0  0  0  0  0
   59.0390   34.0390   46.5600 C   0  0  0  0  0  0  0  0  0  0  0  0
   59.6800   33.5080   47.7290 N   0  0  0  0  0  0  0  0  0  0  0  0
   61.0160   32.9920   47.8110 C   0  0  0  0  0  0  0  0  0  0  0  0
   62.0340   33.8620   48.2220 C   0  0  0  0  0  0  0  0  0  0  0  0
   63.3610   33.4330   48.2650 C   0  0  0  0  0  0  0  0  0  0  0  0
   63.6830   32.1220   47.9140 C   0  0  0  0  0  0  0  0  0  0  0  0
   62.6750   31.2330   47.5380 C   0  0  0  0  0  0  0  0  0  0  0  0
   61.3340   31.6480   47.4920 C   0  0  0  0  0  0  0  0  0  0  0  0
   60.3060   30.6760   47.2240 N   0  0  0  0  0  0  0  0  0  0  0  0
   60.2910   29.9360   45.9560 C   0  0  0  0  0  0  0  0  0  0  0  0
   60.4610   28.4210   46.2160 C   0  0  0  0  0  0  0  0  0  0  0  0
   60.2010   28.0290   47.5570 O   0  0  0  0  0  0  0  0  0  0  0  0
   59.0850   28.7220   48.0790 C   0  0  0  0  0  0  0  0  0  0  0  0
   59.4660   30.1860   48.3240 C   0  0  0  0  0  0  0  0  0  0  0  0
   58.4880   33.1740   45.4880 C   0  0  0  0  0  0  0  0  0  0  0  0
   58.6480   33.5130   44.1250 C   0  0  0  0  0  0  0  0  0  0  0  0
   58.1440   32.6860   43.1130 C   0  0  0  0  0  0  0  0  0  0  0  0
   57.4610   31.5220   43.4610 C   0  0  0  0  0  0  0  0  0  0  0  0
   56.9480   30.6680   42.5410 N   0  0  0  0  0  0  0  0  0  0  0  0
   56.2790   29.5330   43.5430 S   0  0  0  0  0  0  0  0  0  0  0  0
   56.5880   30.0420   45.0870 N   0  0  0  0  0  0  0  0  0  0  0  0
   57.2660   31.1880   44.8280 C   0  0  0  0  0  0  0  0  0  0  0  0
   57.7670   32.0140   45.8330 C   0  0  0  0  0  0  0  0  0  0  0  0
   61.7849   34.8930   48.5136 H   0  0  0  0  0  0  0  0  0  0  0  0
   64.1538   34.1292   48.5759 H   0  0  0  0  0  0  0  0  0  0  0  0
   64.7312   31.7889   47.9336 H   0  0  0  0  0  0  0  0  0  0  0  0
   62.9334   30.1966   47.2750 H   0  0  0  0  0  0  0  0  0  0  0  0
   59.3327   30.1111   45.4451 H   0  0  0  0  0  0  0  0  0  0  0  0
   61.1230   30.2865   45.3276 H   0  0  0  0  0  0  0  0  0  0  0  0
   59.7680   27.8776   45.5569 H   0  0  0  0  0  0  0  0  0  0  0  0
   61.5155   28.1813   46.0146 H   0  0  0  0  0  0  0  0  0  0  0  0
   58.2538   28.6742   47.3601 H   0  0  0  0  0  0  0  0  0  0  0  0
   58.7746   28.2588   49.0272 H   0  0  0  0  0  0  0  0  0  0  0  0
   58.5521   30.7953   48.3840 H   0  0  0  0  0  0  0  0  0  0  0  0
   60.0262   30.2607   49.2677 H   0  0  0  0  0  0  0  0  0  0  0  0
   59.1759   34.4396   43.8552 H   0  0  0  0  0  0  0  0  0  0  0  0
   58.2857   32.9523   42.0552 H   0  0  0  0  0  0  0  0  0  0  0  0
   57.6001   31.7612   46.8905 H   0  0  0  0  0  0  0  0  0  0  0  0
  1  2  2  0
  2  3  1  0
  3  4  1  0
  4  5  2  0
  5  6  1  0
  6  7  2  0
  7  8  1  0
  8  9  2  0
  9 10  1  0
 10 11  1  0
 11 12  1  0
 12 13  1  0
 13 14  1  0
 14 15  1  0
  2 16  1  0
 16 17  1  0
 17 18  2  0
 18 19  1  0
 19 20  2  0
 20 21  1  0
 21 22  1  0
 22 23  2  0
 23 24  1  0
  9  4  1  0
 15 10  1  0
 24 16  2  0
 23 19  1  0
  5 25  1  0
  6 26  1  0
  7 27  1  0
  8 28  1  0
 11 29  1  0
 11 30  1  0
 12 31  1  0
 12 32  1  0
 14 33  1  0
 14 34  1  0
 15 35  1  0
 15 36  1  0
 17 37  1  0
 18 38  1  0
 24 39  1  0
M  CHG  1   3  -1
M  END
>  <UniqueID>  (21) 
19

>  <SMILES>  (21) 
O=C([N-]c1ccccc1N1CCOCC1)c1ccc2nsnc2c1

>  <Energy>  (21) 
99.74993318632748

>  <Genealogy>  (21) 
O=C([N-]c1ccccc1N1CCOCC1)c1ccc2nsnc2c1 (protonated)
O=C([N-]c1ccccc1N1CCOCC1)c1ccc2nsnc2c1 (3D coordinates assigned)
O=C([N-]c1ccccc1N1CCOCC1)c1ccc2nsnc2c1 (nonaromatic ring conformer: 99.74993318632748 kcal/mol)

>  <smiles>  (21) 
O=C(Nc1ccccc1N1CCOCC1)c1ccc2nsnc2c1

>  <score_type>  (21) 
oracle

>  <origin>  (21) 
adg

>  <m_score__min__energy>  (21) 
-10.41

>  <m_primary>  (21) 
energy

$$$$
21:0
     RDKit          3D

 30 31  0  0  0  0  0  0  0  0999 V2000
   60.7310   31.0850   47.1510 C   0  0  0  0  0  0  0  0  0  0  0  0
   60.5210   30.0960   46.1480 O   0  0  0  0  0  0  0  0  0  0  0  0
   59.3760   29.2860   46.0510 C   0  0  0  0  0  0  0  0  0  0  0  0
   59.3780   27.9530   46.4850 C   0  0  0  0  0  0  0  0  0  0  0  0
   58.2270   27.1740   46.3750 C   0  0  0  0  0  0  0  0  0  0  0  0
   58.2200   25.8410   46.8060 C   0  0  0  0  0  0  0  0  0  0  0  0
   57.0550   25.0840   46.6840 C   0  0  0  0  0  0  0  0  0  0  0  0
   57.0390   23.7110   47.1260 C   0  0  0  0  0  0  0  0  0  0  0  0
   57.0250   22.6100   47.4810 N   0  0  0  0  0  0  0  0  0  0  0  0
   55.9190   25.6870   46.1300 C   0  0  0  0  0  0  0  0  0  0  0  0
   54.8460   25.0370   46.0040 O   0  0  0  0  0  0  0  0  0  0  0  0
   55.9610   26.9540   45.7310 O   0  0  0  0  0  0  0  0  0  0  0  0
   57.0470   27.7190   45.8260 C   0  0  0  0  0  0  0  0  0  0  0  0
   57.0300   29.0680   45.3820 C   0  0  0  0  0  0  0  0  0  0  0  0
   55.8820   29.6630   44.8260 O   0  0  0  0  0  0  0  0  0  0  0  0
   55.5270   29.7250   43.4490 C   0  0  0  0  0  0  0  0  0  0  0  0
   58.2130   29.8480   45.5010 C   0  0  0  0  0  0  0  0  0  0  0  0
   58.3070   31.1940   45.0930 O   0  0  0  0  0  0  0  0  0  0  0  0
   58.1240   31.7060   43.7780 C   0  0  0  0  0  0  0  0  0  0  0  0
   60.6334   30.6252   48.1455 H   0  0  0  0  0  0  0  0  0  0  0  0
   61.7395   31.5103   47.0411 H   0  0  0  0  0  0  0  0  0  0  0  0
   59.9824   31.8834   47.0411 H   0  0  0  0  0  0  0  0  0  0  0  0
   60.2929   27.5192   46.9148 H   0  0  0  0  0  0  0  0  0  0  0  0
   59.1277   25.3942   47.2379 H   0  0  0  0  0  0  0  0  0  0  0  0
   54.4472   29.9136   43.3569 H   0  0  0  0  0  0  0  0  0  0  0  0
   56.0842   30.5394   42.9630 H   0  0  0  0  0  0  0  0  0  0  0  0
   55.7752   28.7699   42.9630 H   0  0  0  0  0  0  0  0  0  0  0  0
   57.7543   32.7404   43.8354 H   0  0  0  0  0  0  0  0  0  0  0  0
   59.0839   31.6890   43.2410 H   0  0  0  0  0  0  0  0  0  0  0  0
   57.3924   31.0844   43.2410 H   0  0  0  0  0  0  0  0  0  0  0  0
  1  2  1  0
  2  3  1  0
  3  4  2  0
  4  5  1  0
  5  6  1  0
  6  7  2  0
  7  8  1  0
  8  9  3  0
  7 10  1  0
 10 11  2  0
 10 12  1  0
 12 13  1  0
 13 14  1  0
 14 15  1  0
 15 16  1  0
 14 17  2  0
 17 18  1  0
 18 19  1  0
 17  3  1  0
 13  5  2  0
  1 20  1  0
  1 21  1  0
  1 22  1  0
  4 23  1  0
  6 24  1  0
 16 25  1  0
 16 26  1  0
 16 27  1  0
 19 28  1  0
 19 29  1  0
 19 30  1  0
M  END
>  <UniqueID>  (22) 
20

>  <SMILES>  (22) 
COc1cc2cc(C#N)c(=O)oc2c(OC)c1OC

>  <Energy>  (22) 
39.03729232007633

>  <Genealogy>  (22) 
COc1cc2cc(C#N)c(=O)oc2c(OC)c1OC (3D coordinates assigned)
COc1cc2cc(C#N)c(=O)oc2c(OC)c1OC (optimized conformer: 39.03729232007633 kcal/mol)

>  <smiles>  (22) 
COc1cc2cc(C#N)c(=O)oc2c(OC)c1OC

>  <score_type>  (22) 
oracle

>  <origin>  (22) 
adg

>  <m_score__min__energy>  (22) 
-5.71

>  <m_primary>  (22) 
energy

$$$$
22:0
     RDKit          3D

 35 36  0  0  0  0  0  0  0  0999 V2000
   58.0330   32.7030   42.7870 C   0  0  0  0  0  0  0  0  0  0  0  0
   57.7310   31.4660   43.5900 C   0  0  0  0  0  0  0  0  0  0  0  0
   56.9300   30.4610   43.0260 C   0  0  0  0  0  0  0  0  0  0  0  0
   56.6600   29.2900   43.7340 C   0  0  0  0  0  0  0  0  0  0  0  0
   57.1810   29.1080   45.0150 C   0  0  0  0  0  0  0  0  0  0  0  0
   57.9640   30.1080   45.6120 C   0  0  0  0  0  0  0  0  0  0  0  0
   58.5130   29.8990   46.9970 C   0  0  0  0  0  0  0  0  0  0  0  0
   58.2290   31.3010   44.9060 C   0  0  0  0  0  0  0  0  0  0  0  0
   59.0300   32.3250   45.5130 N   0  0  0  0  0  0  0  0  0  0  0  0
   58.4600   33.5410   46.0130 C   0  0  0  0  0  0  0  0  0  0  0  0
   57.2090   33.6560   46.1310 O   0  0  0  0  0  0  0  0  0  0  0  0
   59.3450   34.7010   46.3450 C   0  0  0  0  0  0  0  0  0  0  0  0
   60.5630   34.2090   47.0760 C   0  0  0  0  0  0  0  0  0  0  0  0
   61.7170   33.8410   46.3630 C   0  0  0  0  0  0  0  0  0  0  0  0
   62.8700   33.4430   47.0480 C   0  0  0  0  0  0  0  0  0  0  0  0
   62.8820   33.4180   48.4460 C   0  0  0  0  0  0  0  0  0  0  0  0
   64.4600   32.8800   49.3780 Br  0  0  0  0  0  0  0  0  0  0  0  0
   61.7400   33.7940   49.1610 C   0  0  0  0  0  0  0  0  0  0  0  0
   60.5860   34.1920   48.4800 C   0  0  0  0  0  0  0  0  0  0  0  0
   58.2378   33.5417   43.4686 H   0  0  0  0  0  0  0  0  0  0  0  0
   58.9135   32.5226   42.1528 H   0  0  0  0  0  0  0  0  0  0  0  0
   57.1684   32.9486   42.1528 H   0  0  0  0  0  0  0  0  0  0  0  0
   56.5119   30.5979   42.0178 H   0  0  0  0  0  0  0  0  0  0  0  0
   56.0340   28.5073   43.2806 H   0  0  0  0  0  0  0  0  0  0  0  0
   56.9769   28.1749   45.5606 H   0  0  0  0  0  0  0  0  0  0  0  0
   57.7545   30.1878   47.7395 H   0  0  0  0  0  0  0  0  0  0  0  0
   58.7734   28.8388   47.1321 H   0  0  0  0  0  0  0  0  0  0  0  0
   59.4125   30.5176   47.1321 H   0  0  0  0  0  0  0  0  0  0  0  0
   60.0500   32.1470   45.6520 H   0  0  0  0  0  0  0  0  0  0  0  0
   59.6530   35.2047   45.4168 H   0  0  0  0  0  0  0  0  0  0  0  0
   58.7964   35.4101   46.9823 H   0  0  0  0  0  0  0  0  0  0  0  0
   61.7135   33.8660   45.2633 H   0  0  0  0  0  0  0  0  0  0  0  0
   63.7687   33.1492   46.4859 H   0  0  0  0  0  0  0  0  0  0  0  0
   61.7501   33.7764   50.2608 H   0  0  0  0  0  0  0  0  0  0  0  0
   59.6922   34.4931   49.0462 H   0  0  0  0  0  0  0  0  0  0  0  0
  1  2  1  0
  2  3  2  0
  3  4  1  0
  4  5  2  0
  5  6  1  0
  6  7  1  0
  6  8  2  0
  8  9  1  0
  9 10  1  0
 10 11  2  0
 10 12  1  0
 12 13  1  0
 13 14  2  0
 14 15  1  0
 15 16  2  0
 16 17  1  0
 16 18  1  0
 18 19  2  0
  8  2  1  0
 19 13  1  0
  1 20  1  0
  1 21  1  0
  1 22  1  0
  3 23  1  0
  4 24  1  0
  5 25  1  0
  7 26  1  0
  7 27  1  0
  7 28  1  0
  9 29  1  0
 12 30  1  0
 12 31  1  0
 14 32  1  0
 15 33  1  0
 18 34  1  0
 19 35  1  0
M  END
>  <UniqueID>  (23) 
21

>  <SMILES>  (23) 
Cc1cccc(C)c1NC(=O)Cc1ccc(Br)cc1

>  <Energy>  (23) 
37.62393398655491

>  <Genealogy>  (23) 
Cc1cccc(C)c1NC(=O)Cc1ccc(Br)cc1 (3D coordinates assigned)
Cc1cccc(C)c1NC(=O)Cc1ccc(Br)cc1 (optimized conformer: 37.62393398655491 kcal/mol)

>  <smiles>  (23) 
Cc1cccc(C)c1NC(=O)Cc1ccc(Br)cc1

>  <score_type>  (23) 
oracle

>  <origin>  (23) 
adg

>  <m_score__min__energy>  (23) 
-7.4699999999999998

>  <m_primary>  (23) 
energy

$$$$
23:0
     RDKit          3D

 37 39  0  0  0  0  0  0  0  0999 V2000
   59.2280   25.2660   46.3590 C   0  0  0  0  0  0  0  0  0  0  0  0
   58.4220   26.2370   47.0190 O   0  0  0  0  0  0  0  0  0  0  0  0
   58.2200   27.5540   46.5770 C   0  0  0  0  0  0  0  0  0  0  0  0
   59.1950   28.5460   46.7940 C   0  0  0  0  0  0  0  0  0  0  0  0
   59.0040   29.8580   46.3460 C   0  0  0  0  0  0  0  0  0  0  0  0
   60.0450   30.8820   46.6050 C   0  0  0  0  0  0  0  0  0  0  0  0
   61.2900   30.4690   46.9800 N   0  0  0  0  0  0  0  0  0  0  0  0
   62.3000   31.3400   47.2420 C   0  0  0  0  0  0  0  0  0  0  0  0
   62.0900   32.7140   47.1280 C   0  0  0  0  0  0  0  0  0  0  0  0
   60.8360   33.1790   46.7290 C   0  0  0  0  0  0  0  0  0  0  0  0
   60.6070   34.5110   46.5830 N   0  0  0  0  0  0  0  0  0  0  0  0
   59.3980   34.9750   46.1740 C   0  0  0  0  0  0  0  0  0  0  0  0
   58.3720   34.0700   45.8890 C   0  0  0  0  0  0  0  0  0  0  0  0
   58.5950   32.7370   46.0340 N   0  0  0  0  0  0  0  0  0  0  0  0
   59.7990   32.2630   46.4590 C   0  0  0  0  0  0  0  0  0  0  0  0
   57.8090   30.1930   45.6980 C   0  0  0  0  0  0  0  0  0  0  0  0
   56.8210   29.2200   45.4670 C   0  0  0  0  0  0  0  0  0  0  0  0
   55.6190   29.5280   44.8100 O   0  0  0  0  0  0  0  0  0  0  0  0
   55.4890   29.7160   43.4040 C   0  0  0  0  0  0  0  0  0  0  0  0
   57.0210   27.8980   45.8990 C   0  0  0  0  0  0  0  0  0  0  0  0
   55.9870   26.9820   45.6270 O   0  0  0  0  0  0  0  0  0  0  0  0
   56.0860   25.5630   45.6280 C   0  0  0  0  0  0  0  0  0  0  0  0
   59.7425   24.6462   47.1081 H   0  0  0  0  0  0  0  0  0  0  0  0
   58.5910   24.6273   45.7296 H   0  0  0  0  0  0  0  0  0  0  0  0
   59.9731   25.7746   45.7296 H   0  0  0  0  0  0  0  0  0  0  0  0
   60.1227   28.2855   47.3247 H   0  0  0  0  0  0  0  0  0  0  0  0
   63.2867   30.9598   47.5451 H   0  0  0  0  0  0  0  0  0  0  0  0
   62.9021   33.4220   47.3497 H   0  0  0  0  0  0  0  0  0  0  0  0
   59.2274   36.0565   46.0677 H   0  0  0  0  0  0  0  0  0  0  0  0
   57.3909   34.4338   45.5497 H   0  0  0  0  0  0  0  0  0  0  0  0
   57.6415   31.2283   45.3662 H   0  0  0  0  0  0  0  0  0  0  0  0
   54.8733   30.6064   43.2085 H   0  0  0  0  0  0  0  0  0  0  0  0
   56.4854   29.8542   42.9589 H   0  0  0  0  0  0  0  0  0  0  0  0
   55.0079   28.8326   42.9589 H   0  0  0  0  0  0  0  0  0  0  0  0
   56.1115   25.1980   46.6653 H   0  0  0  0  0  0  0  0  0  0  0  0
   55.2156   25.1343   45.1097 H   0  0  0  0  0  0  0  0  0  0  0  0
   57.0075   25.2594   45.1097 H   0  0  0  0  0  0  0  0  0  0  0  0
  1  2  1  0
  2  3  1  0
  3  4  2  0
  4  5  1  0
  5  6  1  0
  6  7  2  0
  7  8  1  0
  8  9  2  0
  9 10  1  0
 10 11  2  0
 11 12  1  0
 12 13  2  0
 13 14  1  0
 14 15  2  0
  5 16  2  0
 16 17  1  0
 17 18  1  0
 18 19  1  0
 17 20  2  0
 20 21  1  0
 21 22  1  0
 20  3  1  0
 15  6  1  0
 15 10  1  0
  1 23  1  0
  1 24  1  0
  1 25  1  0
  4 26  1  0
  8 27  1  0
  9 28  1  0
 12 29  1  0
 13 30  1  0
 16 31  1  0
 19 32  1  0
 19 33  1  0
 19 34  1  0
 22 35  1  0
 22 36  1  0
 22 37  1  0
M  END
>  <UniqueID>  (24) 
22

>  <SMILES>  (24) 
COc1cc(-c2nccc3nccnc23)cc(OC)c1OC

>  <Energy>  (24) 
51.83650486078096

>  <Genealogy>  (24) 
COc1cc(-c2nccc3nccnc23)cc(OC)c1OC (3D coordinates assigned)
COc1cc(-c2nccc3nccnc23)cc(OC)c1OC (optimized conformer: 51.83650486078096 kcal/mol)

>  <smiles>  (24) 
COc1cc(-c2nccc3nccnc23)cc(OC)c1OC

>  <score_type>  (24) 
oracle

>  <origin>  (24) 
adg

>  <m_score__min__energy>  (24) 
-6.2199999999999998

>  <m_primary>  (24) 
energy

$$$$
24:0
     RDKit          3D

 51 54  0  0  0  0  0  0  0  0999 V2000
   59.2093   27.8672   45.5105 H   0  0  0  0  0  0  0  0  0  0  0  0
   58.1810   28.2190   45.3410 C   0  0  0  0  0  0  0  0  0  0  0  0
   57.0630   27.5300   45.5830 C   0  0  0  0  0  0  0  0  0  0  0  0
   57.0270   26.1540   46.1690 C   0  0  0  0  0  0  0  0  0  0  0  0
   57.4935   25.4485   45.4657 H   0  0  0  0  0  0  0  0  0  0  0  0
   57.5767   26.1581   47.1218 H   0  0  0  0  0  0  0  0  0  0  0  0
   55.6820   25.7520   46.4140 O   0  0  0  0  0  0  0  0  0  0  0  0
   55.0090   24.8010   45.6360 C   0  0  0  0  0  0  0  0  0  0  0  0
   53.7490   24.8230   45.5610 O   0  0  0  0  0  0  0  0  0  0  0  0
   55.7770   23.7700   44.9020 C   0  0  0  0  0  0  0  0  0  0  0  0
   56.7360   22.9790   45.5650 C   0  0  0  0  0  0  0  0  0  0  0  0
   56.9184   23.1269   46.6396 H   0  0  0  0  0  0  0  0  0  0  0  0
   57.4580   22.0060   44.8640 C   0  0  0  0  0  0  0  0  0  0  0  0
   58.2054   21.3928   45.3888 H   0  0  0  0  0  0  0  0  0  0  0  0
   57.2310   21.8120   43.4980 C   0  0  0  0  0  0  0  0  0  0  0  0
   57.7975   21.0453   42.9492 H   0  0  0  0  0  0  0  0  0  0  0  0
   56.2840   22.5930   42.8310 C   0  0  0  0  0  0  0  0  0  0  0  0
   56.1068   22.4413   41.7560 H   0  0  0  0  0  0  0  0  0  0  0  0
   55.5600   23.5680   43.5270 C   0  0  0  0  0  0  0  0  0  0  0  0
   54.8166   24.1801   42.9953 H   0  0  0  0  0  0  0  0  0  0  0  0
   55.9150   28.2530   45.2580 O   0  0  0  0  0  0  0  0  0  0  0  0
   56.3410   29.4820   44.7870 C   0  0  0  0  0  0  0  0  0  0  0  0
   55.5690   30.4030   44.4070 O   0  0  0  0  0  0  0  0  0  0  0  0
   57.7920   29.5280   44.8090 C   0  0  0  0  0  0  0  0  0  0  0  0
   58.5730   30.5670   44.4950 C   0  0  0  0  0  0  0  0  0  0  0  0
   59.3571   30.4285   43.7360 H   0  0  0  0  0  0  0  0  0  0  0  0
   58.4240   31.8920   45.1270 C   0  0  0  0  0  0  0  0  0  0  0  0
   58.1540   33.0000   44.3100 C   0  0  0  0  0  0  0  0  0  0  0  0
   58.0615   32.8682   43.2218 H   0  0  0  0  0  0  0  0  0  0  0  0
   58.0020   34.2700   44.8720 C   0  0  0  0  0  0  0  0  0  0  0  0
   57.7759   35.1326   44.2280 H   0  0  0  0  0  0  0  0  0  0  0  0
   58.1370   34.4450   46.2510 C   0  0  0  0  0  0  0  0  0  0  0  0
   58.0071   35.4439   46.6929 H   0  0  0  0  0  0  0  0  0  0  0  0
   58.4370   33.3530   47.0710 C   0  0  0  0  0  0  0  0  0  0  0  0
   58.5499   33.4997   48.1553 H   0  0  0  0  0  0  0  0  0  0  0  0
   58.5960   32.0650   46.5190 C   0  0  0  0  0  0  0  0  0  0  0  0
   58.9500   30.9530   47.3050 O   0  0  0  0  0  0  0  0  0  0  0  0
   59.7940   30.9790   48.4570 C   0  0  0  0  0  0  0  0  0  0  0  0
   59.2456   31.4319   49.2961 H   0  0  0  0  0  0  0  0  0  0  0  0
   60.0866   29.9478   48.7042 H   0  0  0  0  0  0  0  0  0  0  0  0
   61.0370   31.7830   48.1880 C   0  0  0  0  0  0  0  0  0  0  0  0
   62.0670   31.2360   47.4060 C   0  0  0  0  0  0  0  0  0  0  0  0
   61.9612   30.2225   46.9916 H   0  0  0  0  0  0  0  0  0  0  0  0
   63.2270   31.9750   47.1520 C   0  0  0  0  0  0  0  0  0  0  0  0
   64.0325   31.5397   46.5423 H   0  0  0  0  0  0  0  0  0  0  0  0
   63.3650   33.2650   47.6710 C   0  0  0  0  0  0  0  0  0  0  0  0
   64.2809   33.8420   47.4756 H   0  0  0  0  0  0  0  0  0  0  0  0
   62.3390   33.8210   48.4380 C   0  0  0  0  0  0  0  0  0  0  0  0
   62.4452   34.8390   48.8410 H   0  0  0  0  0  0  0  0  0  0  0  0
   61.1770   33.0870   48.6950 C   0  0  0  0  0  0  0  0  0  0  0  0
   60.3697   33.5312   49.2958 H   0  0  0  0  0  0  0  0  0  0  0  0
  1  2  1  0
  2  3  2  0
  3  4  1  0
  4  5  1  0
  4  6  1  0
  4  7  1  0
  7  8  1  0
  8  9  2  0
  8 10  1  0
 10 11  2  0
 11 12  1  0
 11 13  1  0
 13 14  1  0
 13 15  2  0
 15 16  1  0
 15 17  1  0
 17 18  1  0
 17 19  2  0
 19 20  1  0
  3 21  1  0
 21 22  1  0
 22 23  2  0
 22 24  1  0
 24 25  2  0
 25 26  1  0
 25 27  1  0
 27 28  2  0
 28 29  1  0
 28 30  1  0
 30 31  1  0
 30 32  2  0
 32 33  1  0
 32 34  1  0
 34 35  1  0
 34 36  2  0
 36 37  1  0
 37 38  1  0
 38 39  1  0
 38 40  1  0
 38 41  1  0
 41 42  2  0
 42 43  1  0
 42 44  1  0
 44 45  1  0
 44 46  2  0
 46 47  1  0
 46 48  1  0
 48 49  1  0
 48 50  2  0
 50 51  1  0
 24  2  1  0
 36 27  1  0
 50 41  1  0
 19 10  1  0
M  END
>  <UniqueID>  (25) 
23

>  <SMILES>  (25) 
O=C1OC(COC(=O)c2ccccc2)=C/C1=C\c1ccccc1OCc1ccccc1

>  <Energy>  (25) 
83.42237616998541

>  <Genealogy>  (25) 
O=C1OC(COC(=O)c2ccccc2)=C/C1=C\c1ccccc1OCc1ccccc1 (cis-trans isomerization)
O=C1OC(COC(=O)c2ccccc2)=C/C1=C\c1ccccc1OCc1ccccc1 (3D coordinates assigned)
O=C1OC(COC(=O)c2ccccc2)=C/C1=C\c1ccccc1OCc1ccccc1 (nonaromatic ring conformer: 83.42237616998541 kcal/mol)

>  <smiles>  (25) 
O=C1OC(COC(=O)c2ccccc2)=CC1=Cc1ccccc1OCc1ccccc1

>  <score_type>  (25) 
oracle

>  <origin>  (25) 
adg

>  <m_score__min__energy>  (25) 
-10.710000000000001

>  <m_primary>  (25) 
energy

$$$$
25:0
     RDKit          3D

 50 52  0  0  0  0  0  0  0  0999 V2000
   56.7920   21.3760   43.3800 C   0  0  0  0  0  0  0  0  0  0  0  0
   55.9520   22.4160   43.8690 O   0  0  0  0  0  0  0  0  0  0  0  0
   56.4030   23.6940   44.2290 C   0  0  0  0  0  0  0  0  0  0  0  0
   56.0210   24.3210   45.4290 C   0  0  0  0  0  0  0  0  0  0  0  0
   56.4990   25.5960   45.7430 C   0  0  0  0  0  0  0  0  0  0  0  0
   57.3640   26.2770   44.8660 C   0  0  0  0  0  0  0  0  0  0  0  0
   57.8660   27.6320   45.2090 C   0  0  0  0  0  0  0  0  0  0  0  0
   57.3540   28.8520   44.7470 C   0  0  0  0  0  0  0  0  0  0  0  0
   58.0440   29.9590   45.2560 C   0  0  0  0  0  0  0  0  0  0  0  0
   57.7530   31.2950   44.9790 C   0  0  0  0  0  0  0  0  0  0  0  0
   58.5290   32.3070   45.5670 C   0  0  0  0  0  0  0  0  0  0  0  0
   58.2120   33.6400   45.2660 O   0  0  0  0  0  0  0  0  0  0  0  0
   59.1130   34.7340   45.4030 C   0  0  0  0  0  0  0  0  0  0  0  0
   59.5950   31.9600   46.4360 C   0  0  0  0  0  0  0  0  0  0  0  0
   59.8870   30.6060   46.7190 C   0  0  0  0  0  0  0  0  0  0  0  0
   60.9640   30.2240   47.5980 N   0  0  0  0  0  0  0  0  0  0  0  0
   61.9150   31.1870   48.1620 C   0  0  0  0  0  0  0  0  0  0  0  0
   63.0630   31.5070   47.1820 C   0  0  0  0  0  0  0  0  0  0  0  0
   63.7660   32.7740   47.5010 N   0  0  0  0  0  0  0  0  0  0  0  0
   63.3890   33.8640   46.5800 C   0  0  0  0  0  0  0  0  0  0  0  0
   63.4650   33.1750   48.8880 C   0  0  0  0  0  0  0  0  0  0  0  0
   59.0880   29.6320   46.1060 C   0  0  0  0  0  0  0  0  0  0  0  0
   59.1670   27.9590   46.2440 S   0  0  0  0  0  0  0  0  0  0  0  0
   57.7430   25.6420   43.6690 C   0  0  0  0  0  0  0  0  0  0  0  0
   57.2650   24.3650   43.3560 C   0  0  0  0  0  0  0  0  0  0  0  0
   57.2322   20.8310   44.2280 H   0  0  0  0  0  0  0  0  0  0  0  0
   56.1977   20.6823   42.7671 H   0  0  0  0  0  0  0  0  0  0  0  0
   57.5951   21.8110   42.7671 H   0  0  0  0  0  0  0  0  0  0  0  0
   55.3423   23.8048   46.1239 H   0  0  0  0  0  0  0  0  0  0  0  0
   56.1957   26.0730   46.6866 H   0  0  0  0  0  0  0  0  0  0  0  0
   56.5005   28.9315   44.0576 H   0  0  0  0  0  0  0  0  0  0  0  0
   56.9226   31.5536   44.3056 H   0  0  0  0  0  0  0  0  0  0  0  0
   59.2816   34.9387   46.4706 H   0  0  0  0  0  0  0  0  0  0  0  0
   60.0700   34.4833   44.9221 H   0  0  0  0  0  0  0  0  0  0  0  0
   58.6835   35.6252   44.9221 H   0  0  0  0  0  0  0  0  0  0  0  0
   60.2019   32.7541   46.8953 H   0  0  0  0  0  0  0  0  0  0  0  0
   61.0590   29.2150   47.8530 H   0  0  0  0  0  0  0  0  0  0  0  0
   61.3795   32.1184   48.3980 H   0  0  0  0  0  0  0  0  0  0  0  0
   62.3545   30.7408   49.0663 H   0  0  0  0  0  0  0  0  0  0  0  0
   63.7921   30.6841   47.2166 H   0  0  0  0  0  0  0  0  0  0  0  0
   62.6179   31.6221   46.1827 H   0  0  0  0  0  0  0  0  0  0  0  0
   64.8010   32.6220   47.4340 H   0  0  0  0  0  0  0  0  0  0  0  0
   63.0838   34.7464   47.1616 H   0  0  0  0  0  0  0  0  0  0  0  0
   64.2499   34.1226   45.9460 H   0  0  0  0  0  0  0  0  0  0  0  0
   62.5523   33.5354   45.9460 H   0  0  0  0  0  0  0  0  0  0  0  0
   63.9757   32.4947   49.5854 H   0  0  0  0  0  0  0  0  0  0  0  0
   63.8157   34.2039   49.0565 H   0  0  0  0  0  0  0  0  0  0  0  0
   62.3791   33.1255   49.0565 H   0  0  0  0  0  0  0  0  0  0  0  0
   58.4221   26.1549   42.9721 H   0  0  0  0  0  0  0  0  0  0  0  0
   57.5700   23.8844   42.4147 H   0  0  0  0  0  0  0  0  0  0  0  0
  1  2  1  0
  2  3  1  0
  3  4  2  0
  4  5  1  0
  5  6  2  0
  6  7  1  0
  7  8  2  0
  8  9  1  0
  9 10  2  0
 10 11  1  0
 11 12  1  0
 12 13  1  0
 11 14  2  0
 14 15  1  0
 15 16  1  0
 16 17  1  0
 17 18  1  0
 18 19  1  0
 19 20  1  0
 19 21  1  0
 15 22  2  0
 22 23  1  0
  6 24  1  0
 24 25  2  0
 25  3  1  0
 23  7  1  0
 22  9  1  0
  1 26  1  0
  1 27  1  0
  1 28  1  0
  4 29  1  0
  5 30  1  0
  8 31  1  0
 10 32  1  0
 13 33  1  0
 13 34  1  0
 13 35  1  0
 14 36  1  0
 16 37  1  0
 17 38  1  0
 17 39  1  0
 18 40  1  0
 18 41  1  0
 19 42  1  0
 20 43  1  0
 20 44  1  0
 20 45  1  0
 21 46  1  0
 21 47  1  0
 21 48  1  0
 24 49  1  0
 25 50  1  0
M  CHG  1  19   1
M  END
>  <UniqueID>  (26) 
24

>  <SMILES>  (26) 
COc1ccc(-c2cc3cc(OC)cc(NCC[NH+](C)C)c3s2)cc1

>  <Energy>  (26) 
83.85723532184839

>  <Genealogy>  (26) 
COc1ccc(-c2cc3cc(OC)cc(NCC[NH+](C)C)c3s2)cc1 (protonated)
COc1ccc(-c2cc3cc(OC)cc(NCC[NH+](C)C)c3s2)cc1 (3D coordinates assigned)
COc1ccc(-c2cc3cc(OC)cc(NCC[NH+](C)C)c3s2)cc1 (optimized conformer: 83.85723532184839 kcal/mol)

>  <smiles>  (26) 
COc1ccc(-c2cc3cc(OC)cc(NCCN(C)C)c3s2)cc1

>  <score_type>  (26) 
oracle

>  <origin>  (26) 
adg

>  <m_score__min__energy>  (26) 
-5.4500000000000002

>  <m_primary>  (26) 
energy

$$$$
26:0
     RDKit          3D

 47 49  0  0  0  0  0  0  0  0999 V2000
   65.6040   32.8150   49.9000 C   0  0  0  0  0  0  0  0  0  0  0  0
   64.2710   32.1120   49.6710 C   0  0  0  0  0  0  0  0  0  0  0  0
   63.3220   33.0500   49.0250 N   0  0  0  0  0  0  0  0  0  0  0  0
   62.9780   34.2060   49.8840 C   0  0  0  0  0  0  0  0  0  0  0  0
   62.2240   33.8210   51.1650 C   0  0  0  0  0  0  0  0  0  0  0  0
   63.7280   33.4530   47.6610 C   0  0  0  0  0  0  0  0  0  0  0  0
   62.5170   33.4710   46.7130 C   0  0  0  0  0  0  0  0  0  0  0  0
   61.3140   32.9440   47.3830 N   0  0  0  0  0  0  0  0  0  0  0  0
   60.0800   33.0360   46.6120 C   0  0  0  0  0  0  0  0  0  0  0  0
   59.5170   34.2890   46.2710 C   0  0  0  0  0  0  0  0  0  0  0  0
   58.3040   34.3740   45.5970 C   0  0  0  0  0  0  0  0  0  0  0  0
   57.6190   33.2220   45.2380 C   0  0  0  0  0  0  0  0  0  0  0  0
   58.1630   31.9570   45.5050 C   0  0  0  0  0  0  0  0  0  0  0  0
   59.4250   31.8500   46.1460 C   0  0  0  0  0  0  0  0  0  0  0  0
   60.0310   30.4880   46.2750 C   0  0  0  0  0  0  0  0  0  0  0  0
   61.2560   30.3480   46.5330 O   0  0  0  0  0  0  0  0  0  0  0  0
   59.2150   29.2780   46.0220 C   0  0  0  0  0  0  0  0  0  0  0  0
   59.7170   27.9990   46.3250 C   0  0  0  0  0  0  0  0  0  0  0  0
   58.9510   26.8580   46.0680 C   0  0  0  0  0  0  0  0  0  0  0  0
   57.6820   26.9820   45.5040 C   0  0  0  0  0  0  0  0  0  0  0  0
   57.1730   28.2440   45.1950 C   0  0  0  0  0  0  0  0  0  0  0  0
   57.9330   29.4010   45.4510 C   0  0  0  0  0  0  0  0  0  0  0  0
   57.4060   30.7400   45.1200 C   0  0  0  0  0  0  0  0  0  0  0  0
   56.3020   30.8480   44.5180 O   0  0  0  0  0  0  0  0  0  0  0  0
   65.7868   32.9114   50.9804 H   0  0  0  0  0  0  0  0  0  0  0  0
   66.4125   32.2260   49.4424 H   0  0  0  0  0  0  0  0  0  0  0  0
   65.5746   33.8149   49.4424 H   0  0  0  0  0  0  0  0  0  0  0  0
   64.4241   31.2389   49.0197 H   0  0  0  0  0  0  0  0  0  0  0  0
   63.8601   31.7818   50.6365 H   0  0  0  0  0  0  0  0  0  0  0  0
   63.9099   34.7158   50.1696 H   0  0  0  0  0  0  0  0  0  0  0  0
   62.3078   34.8529   49.2989 H   0  0  0  0  0  0  0  0  0  0  0  0
   62.8145   34.1225   52.0427 H   0  0  0  0  0  0  0  0  0  0  0  0
   61.2502   34.3322   51.1850 H   0  0  0  0  0  0  0  0  0  0  0  0
   62.0671   32.7324   51.1850 H   0  0  0  0  0  0  0  0  0  0  0  0
   64.1710   34.4591   47.6992 H   0  0  0  0  0  0  0  0  0  0  0  0
   64.4612   32.7257   47.2823 H   0  0  0  0  0  0  0  0  0  0  0  0
   62.3262   34.5059   46.3927 H   0  0  0  0  0  0  0  0  0  0  0  0
   62.7420   32.8343   45.8447 H   0  0  0  0  0  0  0  0  0  0  0  0
   61.4770   31.9390   47.6280 H   0  0  0  0  0  0  0  0  0  0  0  0
   61.1910   33.5080   48.2560 H   0  0  0  0  0  0  0  0  0  0  0  0
   60.0488   35.2123   46.5442 H   0  0  0  0  0  0  0  0  0  0  0  0
   57.8850   35.3599   45.3470 H   0  0  0  0  0  0  0  0  0  0  0  0
   56.6414   33.3014   44.7400 H   0  0  0  0  0  0  0  0  0  0  0  0
   60.7190   27.8961   46.7671 H   0  0  0  0  0  0  0  0  0  0  0  0
   59.3497   25.8620   46.3109 H   0  0  0  0  0  0  0  0  0  0  0  0
   57.0808   26.0832   45.3022 H   0  0  0  0  0  0  0  0  0  0  0  0
   56.1718   28.3353   44.7487 H   0  0  0  0  0  0  0  0  0  0  0  0
  1  2  1  0
  2  3  1  0
  3  4  1  0
  4  5  1  0
  3  6  1  0
  6  7  1  0
  7  8  1  0
  8  9  1  0
  9 10  2  0
 10 11  1  0
 11 12  2  0
 12 13  1  0
 13 14  2  0
 14 15  1  0
 15 16  2  0
 15 17  1  0
 17 18  2  0
 18 19  1  0
 19 20  2  0
 20 21  1  0
 21 22  2  0
 22 23  1  0
 23 24  2  0
 14  9  1  0
 22 17  1  0
 23 13  1  0
  1 25  1  0
  1 26  1  0
  1 27  1  0
  2 28  1  0
  2 29  1  0
  4 30  1  0
  4 31  1  0
  5 32  1  0
  5 33  1  0
  5 34  1  0
  6 35  1  0
  6 36  1  0
  7 37  1  0
  7 38  1  0
  8 39  1  0
  8 40  1  0
 10 41  1  0
 11 42  1  0
 12 43  1  0
 18 44  1  0
 19 45  1  0
 20 46  1  0
 21 47  1  0
M  CHG  1   8   1
M  END
>  <UniqueID>  (27) 
25

>  <SMILES>  (27) 
CCN(CC)CC[NH2+]c1cccc2c1C(=O)c1ccccc1C2=O

>  <Energy>  (27) 
65.19326695845575

>  <Genealogy>  (27) 
CCN(CC)CC[NH2+]c1cccc2c1C(=O)c1ccccc1C2=O (protonated)
CCN(CC)CC[NH2+]c1cccc2c1C(=O)c1ccccc1C2=O (3D coordinates assigned)
CCN(CC)CC[NH2+]c1cccc2c1C(=O)c1ccccc1C2=O (nonaromatic ring conformer: 65.19326695845575 kcal/mol)

>  <smiles>  (27) 
CCN(CC)CCNc1cccc2c1C(=O)c1ccccc1C2=O

>  <score_type>  (27) 
oracle

>  <origin>  (27) 
adg

>  <m_score__min__energy>  (27) 
-6.1399999999999997

>  <m_primary>  (27) 
energy

$$$$
27:0
     RDKit          3D

 68 70  0  0  0  0  0  0  0  0999 V2000
   60.6600   30.0650   46.5880 C   0  0  0  0  0  0  0  0  0  0  0  0
   60.8870   31.4710   46.5350 O   0  0  0  0  0  0  0  0  0  0  0  0
   61.9570   32.1250   47.1660 C   0  0  0  0  0  0  0  0  0  0  0  0
   62.3440   33.3800   46.6840 C   0  0  0  0  0  0  0  0  0  0  0  0
   63.4090   34.0670   47.2690 C   0  0  0  0  0  0  0  0  0  0  0  0
   64.0980   33.5060   48.3460 C   0  0  0  0  0  0  0  0  0  0  0  0
   63.7210   32.2500   48.8580 C   0  0  0  0  0  0  0  0  0  0  0  0
   64.4320   31.6690   50.0230 C   0  0  0  0  0  0  0  0  0  0  0  0
   65.6560   31.9220   50.2020 O   0  0  0  0  0  0  0  0  0  0  0  0
   63.7370   30.7920   50.9190 N   0  0  0  0  0  0  0  0  0  0  0  0
   62.3840   30.9150   51.3780 C   0  0  0  0  0  0  0  0  0  0  0  0
   61.7530   29.7780   51.8960 C   0  0  0  0  0  0  0  0  0  0  0  0
   60.4140   29.8300   52.2880 C   0  0  0  0  0  0  0  0  0  0  0  0
   59.6880   31.0150   52.1500 C   0  0  0  0  0  0  0  0  0  0  0  0
   60.3030   32.1690   51.6370 C   0  0  0  0  0  0  0  0  0  0  0  0
   59.5020   33.4290   51.4140 C   0  0  0  0  0  0  0  0  0  0  0  0
   59.0910   33.5590   50.0000 N   0  0  0  0  0  0  0  0  0  0  0  0
   60.0320   34.4270   49.2530 C   0  0  0  0  0  0  0  0  0  0  0  0
   59.6230   34.5800   47.7690 C   0  0  0  0  0  0  0  0  0  0  0  0
   58.3530   33.7820   47.4340 C   0  0  0  0  0  0  0  0  0  0  0  0
   58.0220   33.8580   45.9660 C   0  0  0  0  0  0  0  0  0  0  0  0
   56.9980   34.4980   45.6010 O   0  0  0  0  0  0  0  0  0  0  0  0
   58.8550   33.2210   44.9850 N   0  0  0  0  0  0  0  0  0  0  0  0
   58.4600   33.0920   43.5820 C   0  0  0  0  0  0  0  0  0  0  0  0
   57.6690   31.7990   43.3460 C   0  0  0  0  0  0  0  0  0  0  0  0
   57.8510   30.7990   44.5100 C   0  0  0  0  0  0  0  0  0  0  0  0
   56.6260   30.0470   44.8660 N   0  0  0  0  0  0  0  0  0  0  0  0
   56.9020   28.6620   45.2820 C   0  0  0  0  0  0  0  0  0  0  0  0
   55.5990   30.0920   43.8140 C   0  0  0  0  0  0  0  0  0  0  0  0
   58.4940   32.3220   47.9070 C   0  0  0  0  0  0  0  0  0  0  0  0
   59.0070   32.2290   49.3620 C   0  0  0  0  0  0  0  0  0  0  0  0
   61.6470   32.1070   51.2310 C   0  0  0  0  0  0  0  0  0  0  0  0
   62.6490   31.5620   48.2580 C   0  0  0  0  0  0  0  0  0  0  0  0
   60.6077   29.7414   47.6380 H   0  0  0  0  0  0  0  0  0  0  0  0
   59.7119   29.8274   46.0835 H   0  0  0  0  0  0  0  0  0  0  0  0
   61.4852   29.5411   46.0835 H   0  0  0  0  0  0  0  0  0  0  0  0
   61.8046   33.8291   45.8370 H   0  0  0  0  0  0  0  0  0  0  0  0
   63.7060   35.0524   46.8807 H   0  0  0  0  0  0  0  0  0  0  0  0
   64.9412   34.0492   48.7976 H   0  0  0  0  0  0  0  0  0  0  0  0
   62.3155   28.8379   51.9948 H   0  0  0  0  0  0  0  0  0  0  0  0
   59.9297   28.9354   52.7066 H   0  0  0  0  0  0  0  0  0  0  0  0
   58.6286   31.0448   52.4447 H   0  0  0  0  0  0  0  0  0  0  0  0
   58.6032   33.3994   52.0475 H   0  0  0  0  0  0  0  0  0  0  0  0
   60.1320   34.2924   51.6740 H   0  0  0  0  0  0  0  0  0  0  0  0
   60.0465   35.4219   49.7221 H   0  0  0  0  0  0  0  0  0  0  0  0
   61.0265   33.9581   49.2855 H   0  0  0  0  0  0  0  0  0  0  0  0
   59.4388   35.6441   47.5598 H   0  0  0  0  0  0  0  0  0  0  0  0
   60.4429   34.1875   47.1495 H   0  0  0  0  0  0  0  0  0  0  0  0
   57.5110   34.2374   47.9759 H   0  0  0  0  0  0  0  0  0  0  0  0
   59.7810   32.8280   45.2720 H   0  0  0  0  0  0  0  0  0  0  0  0
   57.8327   33.9522   43.3051 H   0  0  0  0  0  0  0  0  0  0  0  0
   59.3701   33.0616   42.9649 H   0  0  0  0  0  0  0  0  0  0  0  0
   56.6013   32.0461   43.2516 H   0  0  0  0  0  0  0  0  0  0  0  0
   58.0466   31.3282   42.4264 H   0  0  0  0  0  0  0  0  0  0  0  0
   58.6283   30.0752   44.2237 H   0  0  0  0  0  0  0  0  0  0  0  0
   58.1239   31.3927   45.3949 H   0  0  0  0  0  0  0  0  0  0  0  0
   56.9135   28.6045   46.3804 H   0  0  0  0  0  0  0  0  0  0  0  0
   56.1186   27.9978   44.8882 H   0  0  0  0  0  0  0  0  0  0  0  0
   57.8802   28.3489   44.8882 H   0  0  0  0  0  0  0  0  0  0  0  0
   54.6019   30.1357   44.2766 H   0  0  0  0  0  0  0  0  0  0  0  0
   55.7528   30.9843   43.1893 H   0  0  0  0  0  0  0  0  0  0  0  0
   55.6742   29.1897   43.1893 H   0  0  0  0  0  0  0  0  0  0  0  0
   57.5107   31.8328   47.8457 H   0  0  0  0  0  0  0  0  0  0  0  0
   59.2285   31.8247   47.2565 H   0  0  0  0  0  0  0  0  0  0  0  0
   58.3180   31.5983   49.9429 H   0  0  0  0  0  0  0  0  0  0  0  0
   60.0176   31.7952   49.3413 H   0  0  0  0  0  0  0  0  0  0  0  0
   62.1272   32.9955   50.7952 H   0  0  0  0  0  0  0  0  0  0  0  0
   62.3488   30.5769   48.6444 H   0  0  0  0  0  0  0  0  0  0  0  0
  1  2  1  0
  2  3  1  0
  3  4  2  0
  4  5  1  0
  5  6  2  0
  6  7  1  0
  7  8  1  0
  8  9  2  0
  8 10  1  0
 10 11  1  0
 11 12  2  0
 12 13  1  0
 13 14  2  0
 14 15  1  0
 15 16  1  0
 16 17  1  0
 17 18  1  0
 18 19  1  0
 19 20  1  0
 20 21  1  0
 21 22  2  0
 21 23  1  0
 23 24  1  0
 24 25  1  0
 25 26  1  0
 26 27  1  0
 27 28  1  0
 27 29  1  0
 20 30  1  0
 30 31  1  0
 15 32  2  0
  7 33  2  0
 33  3  1  0
 32 11  1  0
 31 17  1  0
  1 34  1  0
  1 35  1  0
  1 36  1  0
  4 37  1  0
  5 38  1  0
  6 39  1  0
 12 40  1  0
 13 41  1  0
 14 42  1  0
 16 43  1  0
 16 44  1  0
 18 45  1  0
 18 46  1  0
 19 47  1  0
 19 48  1  0
 20 49  1  0
 23 50  1  0
 24 51  1  0
 24 52  1  0
 25 53  1  0
 25 54  1  0
 26 55  1  0
 26 56  1  0
 28 57  1  0
 28 58  1  0
 28 59  1  0
 29 60  1  0
 29 61  1  0
 29 62  1  0
 30 63  1  0
 30 64  1  0
 31 65  1  0
 31 66  1  0
 32 67  1  0
 33 68  1  0
M  CHG  1  10  -1
M  END
>  <UniqueID>  (28) 
26

>  <SMILES>  (28) 
COc1cccc(C(=O)[N-]c2cccc(CN3CCC(C(=O)NCCCN(C)C)CC3)c2)c1

>  <Energy>  (28) 
74.86681742876918

>  <Genealogy>  (28) 
COc1cccc(C(=O)[N-]c2cccc(CN3CCC(C(=O)NCCCN(C)C)CC3)c2)c1 (protonated)
COc1cccc(C(=O)[N-]c2cccc(CN3CCC(C(=O)NCCCN(C)C)CC3)c2)c1 (3D coordinates assigned)
COc1cccc(C(=O)[N-]c2cccc(CN3CCC(C(=O)NCCCN(C)C)CC3)c2)c1 (nonaromatic ring conformer: 74.86681742876918 kcal/mol)

>  <smiles>  (28) 
COc1cccc(C(=O)Nc2cccc(CN3CCC(C(=O)NCCCN(C)C)CC3)c2)c1

>  <score_type>  (28) 
oracle

>  <origin>  (28) 
adg

>  <m_score__min__energy>  (28) 
-10.949999999999999

>  <m_primary>  (28) 
energy

$$$$
28:0
     RDKit          3D

 34 36  0  0  0  0  0  0  0  0999 V2000
   56.6409   21.9938   44.6032 H   0  0  0  0  0  0  0  0  0  0  0  0
   57.1080   22.9840   44.7100 C   0  0  0  0  0  0  0  0  0  0  0  0
   56.8730   23.9750   43.7530 C   0  0  0  0  0  0  0  0  0  0  0  0
   56.2148   23.7663   42.8967 H   0  0  0  0  0  0  0  0  0  0  0  0
   57.4730   25.2310   43.8820 C   0  0  0  0  0  0  0  0  0  0  0  0
   57.2696   26.0145   43.1371 H   0  0  0  0  0  0  0  0  0  0  0  0
   58.3330   25.4960   44.9570 C   0  0  0  0  0  0  0  0  0  0  0  0
   58.8940   26.8090   45.0930 N   0  0  0  0  0  0  0  0  0  0  0  0
   58.2470   27.9360   45.0220 C   0  0  0  0  0  0  0  0  0  0  0  0
   58.9690   29.4300   45.2720 S   0  0  0  0  0  0  0  0  0  0  0  0
   57.5300   30.2880   45.0600 C   0  0  0  0  0  0  0  0  0  0  0  0
   57.3900   31.7490   45.2310 C   0  0  0  0  0  0  0  0  0  0  0  0
   56.3120   32.3060   44.8870 O   0  0  0  0  0  0  0  0  0  0  0  0
   58.4640   32.5710   45.8390 C   0  0  0  0  0  0  0  0  0  0  0  0
   58.8490   33.8000   45.2690 C   0  0  0  0  0  0  0  0  0  0  0  0
   58.3562   34.1564   44.3524 H   0  0  0  0  0  0  0  0  0  0  0  0
   59.8540   34.5690   45.8620 C   0  0  0  0  0  0  0  0  0  0  0  0
   60.1536   35.5247   45.4071 H   0  0  0  0  0  0  0  0  0  0  0  0
   60.4790   34.1280   47.0300 C   0  0  0  0  0  0  0  0  0  0  0  0
   61.2731   34.7336   47.4911 H   0  0  0  0  0  0  0  0  0  0  0  0
   60.0960   32.9180   47.6130 C   0  0  0  0  0  0  0  0  0  0  0  0
   60.5860   32.5733   48.5356 H   0  0  0  0  0  0  0  0  0  0  0  0
   59.0900   32.1440   47.0250 C   0  0  0  0  0  0  0  0  0  0  0  0
   58.7863   31.1957   47.4925 H   0  0  0  0  0  0  0  0  0  0  0  0
   56.5090   29.3560   44.8200 C   0  0  0  0  0  0  0  0  0  0  0  0
   55.1440   29.7100   44.5790 N   0  0  0  0  0  0  0  0  0  0  0  0
   54.3960   28.9880   44.4940 H   0  0  0  0  0  0  0  0  0  0  0  0
   54.8630   30.7150   44.5520 H   0  0  0  0  0  0  0  0  0  0  0  0
   56.9160   28.0570   44.8030 N   0  0  0  0  0  0  0  0  0  0  0  0
   56.2530   27.2610   44.6740 H   0  0  0  0  0  0  0  0  0  0  0  0
   58.5390   24.5070   45.9350 C   0  0  0  0  0  0  0  0  0  0  0  0
   59.1754   24.7212   46.8062 H   0  0  0  0  0  0  0  0  0  0  0  0
   57.9370   23.2520   45.8030 C   0  0  0  0  0  0  0  0  0  0  0  0
   58.1160   22.4745   46.5603 H   0  0  0  0  0  0  0  0  0  0  0  0
  1  2  1  0
  2  3  2  0
  3  4  1  0
  3  5  1  0
  5  6  1  0
  5  7  2  0
  7  8  1  0
  8  9  2  0
  9 10  1  0
 10 11  1  0
 11 12  1  0
 12 13  2  0
 12 14  1  0
 14 15  2  0
 15 16  1  0
 15 17  1  0
 17 18  1  0
 17 19  2  0
 19 20  1  0
 19 21  1  0
 21 22  1  0
 21 23  2  0
 23 24  1  0
 11 25  2  0
 25 26  1  0
 26 27  1  0
 26 28  1  0
 25 29  1  0
 29 30  1  0
  7 31  1  0
 31 32  1  0
 31 33  2  0
 33 34  1  0
 33  2  1  0
 29  9  1  0
 23 14  1  0
M  END
>  <UniqueID>  (29) 
27

>  <SMILES>  (29) 
Nc1[nH]/c(=N\c2ccccc2)sc1C(=O)c1ccccc1

>  <Energy>  (29) 
79.5544841142007

>  <Genealogy>  (29) 
Nc1[nH]/c(=N\c2ccccc2)sc1C(=O)c1ccccc1 (cis-trans isomerization)
Nc1[nH]/c(=N\c2ccccc2)sc1C(=O)c1ccccc1 (3D coordinates assigned)
Nc1[nH]/c(=N\c2ccccc2)sc1C(=O)c1ccccc1 (optimized conformer: 79.5544841142007 kcal/mol)

>  <smiles>  (29) 
Nc1[nH]c(=Nc2ccccc2)sc1C(=O)c1ccccc1

>  <score_type>  (29) 
oracle

>  <origin>  (29) 
adg

>  <m_score__min__energy>  (29) 
-7.9900000000000002

>  <m_primary>  (29) 
energy

$$$$
29:0
     RDKit          3D

 79 79  0  0  0  0  0  0  0  0999 V2000
   63.7420   33.4060   47.1170 C   0  0  0  0  0  0  0  0  0  0  0  0
   62.3310   32.8220   47.1080 C   0  0  0  0  0  0  0  0  0  0  0  0
   61.2970   33.7470   46.4450 C   0  0  0  0  0  0  0  0  0  0  0  0
   60.2610   34.3250   47.4330 C   0  0  0  0  0  0  0  0  0  0  0  0
   58.9000   34.5820   46.7620 C   0  0  0  0  0  0  0  0  0  0  0  0
   58.0880   33.2910   46.5430 C   0  0  0  0  0  0  0  0  0  0  0  0
   57.2200   33.3150   45.2760 C   0  0  0  0  0  0  0  0  0  0  0  0
   57.3470   32.0570   44.4760 C   0  0  0  0  0  0  0  0  0  0  0  0
   58.1810   31.9990   43.5300 O   0  0  0  0  0  0  0  0  0  0  0  0
   56.5340   30.9620   44.7870 O   0  0  0  0  0  0  0  0  0  0  0  0
   56.6230   29.6990   44.1260 C   0  0  0  0  0  0  0  0  0  0  0  0
   57.4690   28.7100   44.9400 C   0  0  0  0  0  0  0  0  0  0  0  0
   58.9750   28.8400   44.6330 C   0  0  0  0  0  0  0  0  0  0  0  0
   59.6970   29.7380   45.6520 C   0  0  0  0  0  0  0  0  0  0  0  0
   58.8530   29.9410   46.9260 C   0  0  0  0  0  0  0  0  0  0  0  0
   59.4010   29.1450   48.1440 C   0  0  0  0  0  0  0  0  0  0  0  0
   59.7330   29.9520   49.3660 N   0  0  0  0  0  0  0  0  0  0  0  0
   60.9270   29.4140   50.0710 C   0  0  0  0  0  0  0  0  0  0  0  0
   60.0210   31.3540   48.9630 C   0  0  0  0  0  0  0  0  0  0  0  0
   58.5400   29.9940   50.2890 C   0  0  0  0  0  0  0  0  0  0  0  0
   58.1390   31.3670   50.9020 C   0  0  0  0  0  0  0  0  0  0  0  0
   57.1390   31.3040   52.0630 C   0  0  0  0  0  0  0  0  0  0  0  0
   56.3790   30.0960   51.9950 O   0  0  0  0  0  0  0  0  0  0  0  0
   54.9830   29.9950   52.1420 C   0  0  0  0  0  0  0  0  0  0  0  0
   54.0910   30.8430   51.4520 C   0  0  0  0  0  0  0  0  0  0  0  0
   52.7060   30.7090   51.6160 C   0  0  0  0  0  0  0  0  0  0  0  0
   51.7730   31.6400   50.8950 C   0  0  0  0  0  0  0  0  0  0  0  0
   52.2040   29.7450   52.4980 C   0  0  0  0  0  0  0  0  0  0  0  0
   53.0770   28.9010   53.1880 C   0  0  0  0  0  0  0  0  0  0  0  0
   54.4650   29.0190   53.0160 C   0  0  0  0  0  0  0  0  0  0  0  0
   55.3950   28.0920   53.7510 C   0  0  0  0  0  0  0  0  0  0  0  0
   64.0751   33.5439   48.1562 H   0  0  0  0  0  0  0  0  0  0  0  0
   64.4271   32.7175   46.6006 H   0  0  0  0  0  0  0  0  0  0  0  0
   63.7401   34.3773   46.6006 H   0  0  0  0  0  0  0  0  0  0  0  0
   62.3505   31.8690   46.5589 H   0  0  0  0  0  0  0  0  0  0  0  0
   62.0257   32.6886   48.1563 H   0  0  0  0  0  0  0  0  0  0  0  0
   61.8318   34.5842   45.9726 H   0  0  0  0  0  0  0  0  0  0  0  0
   60.7422   33.1395   45.7148 H   0  0  0  0  0  0  0  0  0  0  0  0
   60.1204   33.6105   48.2575 H   0  0  0  0  0  0  0  0  0  0  0  0
   60.6445   35.2885   47.8000 H   0  0  0  0  0  0  0  0  0  0  0  0
   58.3157   35.2603   47.4012 H   0  0  0  0  0  0  0  0  0  0  0  0
   59.0966   35.0210   45.7727 H   0  0  0  0  0  0  0  0  0  0  0  0
   58.7902   32.4477   46.4669 H   0  0  0  0  0  0  0  0  0  0  0  0
   57.4045   33.1920   47.3991 H   0  0  0  0  0  0  0  0  0  0  0  0
   56.1678   33.4420   45.5705 H   0  0  0  0  0  0  0  0  0  0  0  0
   57.5652   34.1493   44.6477 H   0  0  0  0  0  0  0  0  0  0  0  0
   55.6109   29.2872   43.9994 H   0  0  0  0  0  0  0  0  0  0  0  0
   57.1035   29.8487   43.1479 H   0  0  0  0  0  0  0  0  0  0  0  0
   57.3079   28.9038   46.0107 H   0  0  0  0  0  0  0  0  0  0  0  0
   57.1554   27.6921   44.6654 H   0  0  0  0  0  0  0  0  0  0  0  0
   59.4298   27.8387   44.6574 H   0  0  0  0  0  0  0  0  0  0  0  0
   59.0800   29.3015   43.6400 H   0  0  0  0  0  0  0  0  0  0  0  0
   60.6528   29.2685   45.9278 H   0  0  0  0  0  0  0  0  0  0  0  0
   59.8626   30.7215   45.1880 H   0  0  0  0  0  0  0  0  0  0  0  0
   58.8494   31.0116   47.1785 H   0  0  0  0  0  0  0  0  0  0  0  0
   57.8397   29.5685   46.7152 H   0  0  0  0  0  0  0  0  0  0  0  0
   58.6419   28.4014   48.4284 H   0  0  0  0  0  0  0  0  0  0  0  0
   60.3547   28.7115   47.8085 H   0  0  0  0  0  0  0  0  0  0  0  0
   60.7732   29.4833   51.1580 H   0  0  0  0  0  0  0  0  0  0  0  0
   61.0765   28.3615   49.7882 H   0  0  0  0  0  0  0  0  0  0  0  0
   61.8144   29.9992   49.7882 H   0  0  0  0  0  0  0  0  0  0  0  0
   60.1486   31.9751   49.8619 H   0  0  0  0  0  0  0  0  0  0  0  0
   60.9435   31.3813   48.3645 H   0  0  0  0  0  0  0  0  0  0  0  0
   59.1840   31.7428   48.3645 H   0  0  0  0  0  0  0  0  0  0  0  0
   57.6738   29.6237   49.7211 H   0  0  0  0  0  0  0  0  0  0  0  0
   58.8399   29.3839   51.1538 H   0  0  0  0  0  0  0  0  0  0  0  0
   59.0541   31.8548   51.2689 H   0  0  0  0  0  0  0  0  0  0  0  0
   57.6336   31.9213   50.0974 H   0  0  0  0  0  0  0  0  0  0  0  0
   57.6868   31.3354   53.0164 H   0  0  0  0  0  0  0  0  0  0  0  0
   56.4549   32.1626   51.9943 H   0  0  0  0  0  0  0  0  0  0  0  0
   54.4870   31.6172   50.7784 H   0  0  0  0  0  0  0  0  0  0  0  0
   51.1930   32.2188   51.6289 H   0  0  0  0  0  0  0  0  0  0  0  0
   52.3558   32.3272   50.2641 H   0  0  0  0  0  0  0  0  0  0  0  0
   51.0870   31.0557   50.2641 H   0  0  0  0  0  0  0  0  0  0  0  0
   51.1183   29.6519   52.6482 H   0  0  0  0  0  0  0  0  0  0  0  0
   52.6741   28.1386   53.8709 H   0  0  0  0  0  0  0  0  0  0  0  0
   55.2628   28.2237   54.8351 H   0  0  0  0  0  0  0  0  0  0  0  0
   55.1669   27.0512   53.4776 H   0  0  0  0  0  0  0  0  0  0  0  0
   56.4350   28.3234   53.4776 H   0  0  0  0  0  0  0  0  0  0  0  0
  1  2  1  0
  2  3  1  0
  3  4  1  0
  4  5  1  0
  5  6  1  0
  6  7  1  0
  7  8  1  0
  8  9  2  0
  8 10  1  0
 10 11  1  0
 11 12  1  0
 12 13  1  0
 13 14  1  0
 14 15  1  0
 15 16  1  0
 16 17  1  0
 17 18  1  0
 17 19  1  0
 17 20  1  0
 20 21  1  0
 21 22  1  0
 22 23  1  0
 23 24  1  0
 24 25  2  0
 25 26  1  0
 26 27  1  0
 26 28  2  0
 28 29  1  0
 29 30  2  0
 30 31  1  0
 30 24  1  0
  1 32  1  0
  1 33  1  0
  1 34  1  0
  2 35  1  0
  2 36  1  0
  3 37  1  0
  3 38  1  0
  4 39  1  0
  4 40  1  0
  5 41  1  0
  5 42  1  0
  6 43  1  0
  6 44  1  0
  7 45  1  0
  7 46  1  0
 11 47  1  0
 11 48  1  0
 12 49  1  0
 12 50  1  0
 13 51  1  0
 13 52  1  0
 14 53  1  0
 14 54  1  0
 15 55  1  0
 15 56  1  0
 16 57  1  0
 16 58  1  0
 18 59  1  0
 18 60  1  0
 18 61  1  0
 19 62  1  0
 19 63  1  0
 19 64  1  0
 20 65  1  0
 20 66  1  0
 21 67  1  0
 21 68  1  0
 22 69  1  0
 22 70  1  0
 25 71  1  0
 27 72  1  0
 27 73  1  0
 27 74  1  0
 28 75  1  0
 29 76  1  0
 31 77  1  0
 31 78  1  0
 31 79  1  0
M  CHG  1  17   1
M  END
>  <UniqueID>  (30) 
28

>  <SMILES>  (30) 
CCCCCCCC(=O)OCCCCCC[N+](C)(C)CCCOc1cc(C)ccc1C

>  <Energy>  (30) 
75.1138811940213

>  <Genealogy>  (30) 
CCCCCCCC(=O)OCCCCCC[N+](C)(C)CCCOc1cc(C)ccc1C (3D coordinates assigned)
CCCCCCCC(=O)OCCCCCC[N+](C)(C)CCCOc1cc(C)ccc1C (optimized conformer: 75.1138811940213 kcal/mol)

>  <smiles>  (30) 
CCCCCCCC(=O)OCCCCCC[N+](C)(C)CCCOc1cc(C)ccc1C

>  <score_type>  (30) 
oracle

>  <origin>  (30) 
adg

>  <m_score__min__energy>  (30) 
-5.7599999999999998

>  <m_primary>  (30) 
energy

$$$$
30:0
     RDKit          3D

 32 34  0  0  0  0  0  0  0  0999 V2000
   60.7180   26.7070   48.0330 C   0  0  0  0  0  0  0  0  0  0  0  0
   60.3220   26.8380   46.6720 O   0  0  0  0  0  0  0  0  0  0  0  0
   59.4810   27.8500   46.1860 C   0  0  0  0  0  0  0  0  0  0  0  0
   59.2520   29.0450   46.8930 C   0  0  0  0  0  0  0  0  0  0  0  0
   58.4090   30.0270   46.3690 C   0  0  0  0  0  0  0  0  0  0  0  0
   57.7860   29.8400   45.1230 C   0  0  0  0  0  0  0  0  0  0  0  0
   56.9360   30.8150   44.5580 C   0  0  0  0  0  0  0  0  0  0  0  0
   56.7040   32.0490   45.1790 O   0  0  0  0  0  0  0  0  0  0  0  0
   57.6830   33.0370   45.3630 C   0  0  0  0  0  0  0  0  0  0  0  0
   57.8670   33.5760   46.6410 C   0  0  0  0  0  0  0  0  0  0  0  0
   58.8320   34.5610   46.8540 C   0  0  0  0  0  0  0  0  0  0  0  0
   59.6050   35.0050   45.7800 C   0  0  0  0  0  0  0  0  0  0  0  0
   59.4130   34.4810   44.5410 N   0  0  0  0  0  0  0  0  0  0  0  0
   58.4790   33.5200   44.3080 C   0  0  0  0  0  0  0  0  0  0  0  0
   56.2900   30.5440   43.3500 C   0  0  0  0  0  0  0  0  0  0  0  0
   56.5220   29.3370   42.6930 C   0  0  0  0  0  0  0  0  0  0  0  0
   57.3680   28.4150   43.2270 N   0  0  0  0  0  0  0  0  0  0  0  0
   57.9980   28.6310   44.4190 C   0  0  0  0  0  0  0  0  0  0  0  0
   58.8490   27.6510   44.9540 C   0  0  0  0  0  0  0  0  0  0  0  0
   59.8786   26.9847   48.6875 H   0  0  0  0  0  0  0  0  0  0  0  0
   61.0086   25.6648   48.2316 H   0  0  0  0  0  0  0  0  0  0  0  0
   61.5728   27.3702   48.2316 H   0  0  0  0  0  0  0  0  0  0  0  0
   59.7405   29.2066   47.8652 H   0  0  0  0  0  0  0  0  0  0  0  0
   58.2312   30.9532   46.9351 H   0  0  0  0  0  0  0  0  0  0  0  0
   57.2494   33.2224   47.4798 H   0  0  0  0  0  0  0  0  0  0  0  0
   58.9821   34.9835   47.8585 H   0  0  0  0  0  0  0  0  0  0  0  0
   60.3701   35.7796   45.9366 H   0  0  0  0  0  0  0  0  0  0  0  0
   58.3456   33.1194   43.2923 H   0  0  0  0  0  0  0  0  0  0  0  0
   55.5988   31.2824   42.9175 H   0  0  0  0  0  0  0  0  0  0  0  0
   56.0184   29.1287   41.7375 H   0  0  0  0  0  0  0  0  0  0  0  0
   57.5200   27.5230   42.7040 H   0  0  0  0  0  0  0  0  0  0  0  0
   59.0206   26.7171   44.3987 H   0  0  0  0  0  0  0  0  0  0  0  0
  1  2  1  0
  2  3  1  0
  3  4  2  0
  4  5  1  0
  5  6  2  0
  6  7  1  0
  7  8  1  0
  8  9  1  0
  9 10  2  0
 10 11  1  0
 11 12  2  0
 12 13  1  0
 13 14  2  0
  7 15  2  0
 15 16  1  0
 16 17  2  0
 17 18  1  0
 18 19  2  0
 19  3  1  0
 18  6  1  0
 14  9  1  0
  1 20  1  0
  1 21  1  0
  1 22  1  0
  4 23  1  0
  5 24  1  0
 10 25  1  0
 11 26  1  0
 12 27  1  0
 14 28  1  0
 15 29  1  0
 16 30  1  0
 17 31  1  0
 19 32  1  0
M  CHG  1  17   1
M  END
>  <UniqueID>  (31) 
29

>  <SMILES>  (31) 
COc1ccc2c(Oc3cccnc3)cc[nH+]c2c1

>  <Energy>  (31) 
47.1516050555477

>  <Genealogy>  (31) 
COc1ccc2c(Oc3cccnc3)cc[nH+]c2c1 (protonated)
COc1ccc2c(Oc3cccnc3)cc[nH+]c2c1 (3D coordinates assigned)
COc1ccc2c(Oc3cccnc3)cc[nH+]c2c1 (optimized conformer: 47.1516050555477 kcal/mol)

>  <smiles>  (31) 
COc1ccc2c(Oc3cccnc3)ccnc2c1

>  <score_type>  (31) 
oracle

>  <origin>  (31) 
adg

>  <m_score__min__energy>  (31) 
-4.79

>  <m_primary>  (31) 
energy

$$$$
31:0
     RDKit          3D

 55 58  0  0  0  0  0  0  0  0999 V2000
   57.6936   27.9459   43.6386 H   0  0  0  0  0  0  0  0  0  0  0  0
   57.2110   28.4790   44.4710 C   0  0  0  0  0  0  0  0  0  0  0  0
   57.3500   27.8930   45.8280 C   0  0  0  0  0  0  0  0  0  0  0  0
   56.5170   27.0370   46.2310 O   0  0  0  0  0  0  0  0  0  0  0  0
   58.4190   28.2940   46.7080 N   0  0  0  0  0  0  0  0  0  0  0  0
   58.9950   27.2770   47.6020 C   0  0  0  0  0  0  0  0  0  0  0  0
   59.1749   26.3570   47.0265 H   0  0  0  0  0  0  0  0  0  0  0  0
   58.2827   27.0964   48.4206 H   0  0  0  0  0  0  0  0  0  0  0  0
   60.3170   27.7460   48.2140 C   0  0  0  0  0  0  0  0  0  0  0  0
   61.0946   27.7568   47.4361 H   0  0  0  0  0  0  0  0  0  0  0  0
   60.6051   27.0565   49.0212 H   0  0  0  0  0  0  0  0  0  0  0  0
   60.1650   29.0940   48.7660 N   0  0  0  0  0  0  0  0  0  0  0  0
   60.9130   29.4700   49.9320 C   0  0  0  0  0  0  0  0  0  0  0  0
   60.6200   28.8820   51.1210 N   0  0  0  0  0  0  0  0  0  0  0  0
   61.2820   29.2150   52.2580 C   0  0  0  0  0  0  0  0  0  0  0  0
   61.0254   28.7199   53.2062 H   0  0  0  0  0  0  0  0  0  0  0  0
   62.2600   30.1570   52.2300 N   0  0  0  0  0  0  0  0  0  0  0  0
   62.7510   30.3960   53.1210 H   0  0  0  0  0  0  0  0  0  0  0  0
   62.6050   30.7730   51.0640 C   0  0  0  0  0  0  0  0  0  0  0  0
   63.6240   31.7340   51.0440 C   0  0  0  0  0  0  0  0  0  0  0  0
   64.1408   31.9998   51.9780 H   0  0  0  0  0  0  0  0  0  0  0  0
   63.9930   32.3630   49.8390 C   0  0  0  0  0  0  0  0  0  0  0  0
   65.0080   33.3320   49.7850 O   0  0  0  0  0  0  0  0  0  0  0  0
   66.3680   33.0990   50.1330 C   0  0  0  0  0  0  0  0  0  0  0  0
   66.4684   33.0818   51.2283 H   0  0  0  0  0  0  0  0  0  0  0  0
   66.6917   32.1323   49.7199 H   0  0  0  0  0  0  0  0  0  0  0  0
   66.9951   33.9028   49.7199 H   0  0  0  0  0  0  0  0  0  0  0  0
   63.3390   32.0190   48.6460 C   0  0  0  0  0  0  0  0  0  0  0  0
   63.7350   32.6590   47.4620 O   0  0  0  0  0  0  0  0  0  0  0  0
   63.0540   33.7640   46.8730 C   0  0  0  0  0  0  0  0  0  0  0  0
   62.6540   34.4131   47.6659 H   0  0  0  0  0  0  0  0  0  0  0  0
   63.7558   34.3371   46.2493 H   0  0  0  0  0  0  0  0  0  0  0  0
   62.2266   33.3946   46.2493 H   0  0  0  0  0  0  0  0  0  0  0  0
   62.3160   31.0520   48.6650 C   0  0  0  0  0  0  0  0  0  0  0  0
   61.8098   30.7757   47.7283 H   0  0  0  0  0  0  0  0  0  0  0  0
   61.9360   30.4370   49.8690 C   0  0  0  0  0  0  0  0  0  0  0  0
   59.4360   30.1300   48.0280 C   0  0  0  0  0  0  0  0  0  0  0  0
   60.0890   31.0071   47.9081 H   0  0  0  0  0  0  0  0  0  0  0  0
   58.5318   30.3835   48.6008 H   0  0  0  0  0  0  0  0  0  0  0  0
   58.9980   29.6440   46.6390 C   0  0  0  0  0  0  0  0  0  0  0  0
   59.8729   29.6259   45.9725 H   0  0  0  0  0  0  0  0  0  0  0  0
   58.2321   30.3331   46.2536 H   0  0  0  0  0  0  0  0  0  0  0  0
   56.5440   29.6070   44.1770 C   0  0  0  0  0  0  0  0  0  0  0  0
   55.4547   29.5298   44.0452 H   0  0  0  0  0  0  0  0  0  0  0  0
   57.1540   30.9440   44.0160 C   0  0  0  0  0  0  0  0  0  0  0  0
   57.5170   31.4300   42.7480 C   0  0  0  0  0  0  0  0  0  0  0  0
   57.3119   30.8275   41.8508 H   0  0  0  0  0  0  0  0  0  0  0  0
   58.1380   32.6770   42.6230 C   0  0  0  0  0  0  0  0  0  0  0  0
   58.4038   33.0610   41.6271 H   0  0  0  0  0  0  0  0  0  0  0  0
   58.4210   33.4350   43.7610 C   0  0  0  0  0  0  0  0  0  0  0  0
   58.9041   34.4180   43.6600 H   0  0  0  0  0  0  0  0  0  0  0  0
   58.0910   32.9460   45.0290 C   0  0  0  0  0  0  0  0  0  0  0  0
   58.4940   33.9750   46.5860 Br  0  0  0  0  0  0  0  0  0  0  0  0
   57.4690   31.6980   45.1560 C   0  0  0  0  0  0  0  0  0  0  0  0
   57.2261   31.3068   46.1550 H   0  0  0  0  0  0  0  0  0  0  0  0
  1  2  1  0
  2  3  1  0
  3  4  2  0
  3  5  1  0
  5  6  1  0
  6  7  1  0
  6  8  1  0
  6  9  1  0
  9 10  1  0
  9 11  1  0
  9 12  1  0
 12 13  1  0
 13 14  2  0
 14 15  1  0
 15 16  1  0
 15 17  2  0
 17 18  1  0
 17 19  1  0
 19 20  2  0
 20 21  1  0
 20 22  1  0
 22 23  1  0
 23 24  1  0
 24 25  1  0
 24 26  1  0
 24 27  1  0
 22 28  2  0
 28 29  1  0
 29 30  1  0
 30 31  1  0
 30 32  1  0
 30 33  1  0
 28 34  1  0
 34 35  1  0
 34 36  2  0
 12 37  1  0
 37 38  1  0
 37 39  1  0
 37 40  1  0
 40 41  1  0
 40 42  1  0
  2 43  2  0
 43 44  1  0
 43 45  1  0
 45 46  2  0
 46 47  1  0
 46 48  1  0
 48 49  1  0
 48 50  2  0
 50 51  1  0
 50 52  1  0
 52 53  1  0
 52 54  2  0
 54 55  1  0
 40  5  1  0
 54 45  1  0
 36 13  1  0
 36 19  1  0
M  CHG  1  17   1
M  END
>  <UniqueID>  (32) 
30

>  <SMILES>  (32) 
COc1cc2[nH+]cnc(N3CCN(C(=O)/C=C\c4cccc(Br)c4)CC3)c2cc1OC

>  <Energy>  (32) 
76.3356736662979

>  <Genealogy>  (32) 
COc1cc2[nH+]cnc(N3CCN(C(=O)C=Cc4cccc(Br)c4)CC3)c2cc1OC (protonated)
COc1cc2[nH+]cnc(N3CCN(C(=O)/C=C\c4cccc(Br)c4)CC3)c2cc1OC (cis-trans isomerization)
COc1cc2[nH+]cnc(N3CCN(C(=O)/C=C\c4cccc(Br)c4)CC3)c2cc1OC (3D coordinates assigned)
COc1cc2[nH+]cnc(N3CCN(C(=O)/C=C\c4cccc(Br)c4)CC3)c2cc1OC (nonaromatic ring conformer: 76.3356736662979 kcal/mol)

>  <smiles>  (32) 
COc1cc2ncnc(N3CCN(C(=O)C=Cc4cccc(Br)c4)CC3)c2cc1OC

>  <score_type>  (32) 
oracle

>  <origin>  (32) 
adg

>  <m_score__min__energy>  (32) 
-7.29

>  <m_primary>  (32) 
energy

$$$$
32:0
     RDKit          3D

 44 46  0  0  0  0  0  0  0  0999 V2000
   59.2700   35.3260   44.8990 C   0  0  0  0  0  0  0  0  0  0  0  0
   59.1150   33.9390   45.1740 O   0  0  0  0  0  0  0  0  0  0  0  0
   59.9230   33.2500   46.0840 C   0  0  0  0  0  0  0  0  0  0  0  0
   60.9380   33.8970   46.7230 N   0  0  0  0  0  0  0  0  0  0  0  0
   61.7650   33.2650   47.5960 C   0  0  0  0  0  0  0  0  0  0  0  0
   62.7940   33.9720   48.2290 C   0  0  0  0  0  0  0  0  0  0  0  0
   63.6450   33.3170   49.1230 C   0  0  0  0  0  0  0  0  0  0  0  0
   63.4720   31.9550   49.3890 C   0  0  0  0  0  0  0  0  0  0  0  0
   62.4470   31.2400   48.7610 C   0  0  0  0  0  0  0  0  0  0  0  0
   61.5890   31.8910   47.8620 C   0  0  0  0  0  0  0  0  0  0  0  0
   60.5530   31.2040   47.2190 C   0  0  0  0  0  0  0  0  0  0  0  0
   59.7020   31.8790   46.3280 C   0  0  0  0  0  0  0  0  0  0  0  0
   58.6000   31.1420   45.6660 C   0  0  0  0  0  0  0  0  0  0  0  0
   57.4580   31.8120   45.2040 C   0  0  0  0  0  0  0  0  0  0  0  0
   56.4450   31.1180   44.6220 N   0  0  0  0  0  0  0  0  0  0  0  0
   56.4900   29.7680   44.4800 C   0  0  0  0  0  0  0  0  0  0  0  0
   57.5940   29.0430   44.9490 C   0  0  0  0  0  0  0  0  0  0  0  0
   57.6500   27.5360   44.8060 C   0  0  0  0  0  0  0  0  0  0  0  0
   57.5320   26.7970   46.0810 N   0  0  0  0  0  0  0  0  0  0  0  0
   58.7940   26.2030   46.5390 C   0  0  0  0  0  0  0  0  0  0  0  0
   56.2290   25.6290   46.1070 S   0  0  0  0  0  0  0  0  0  0  0  0
   56.3500   24.4280   44.7890 C   0  0  0  0  0  0  0  0  0  0  0  0
   54.9020   26.3290   46.0170 O   0  0  0  0  0  0  0  0  0  0  0  0
   56.2820   24.8880   47.4140 O   0  0  0  0  0  0  0  0  0  0  0  0
   58.6630   29.7480   45.5220 C   0  0  0  0  0  0  0  0  0  0  0  0
   59.3322   35.8828   45.8456 H   0  0  0  0  0  0  0  0  0  0  0  0
   60.1914   35.4841   44.3193 H   0  0  0  0  0  0  0  0  0  0  0  0
   58.4062   35.6836   44.3193 H   0  0  0  0  0  0  0  0  0  0  0  0
   62.9327   35.0435   48.0226 H   0  0  0  0  0  0  0  0  0  0  0  0
   64.4533   33.8743   49.6190 H   0  0  0  0  0  0  0  0  0  0  0  0
   64.1442   31.4444   50.0943 H   0  0  0  0  0  0  0  0  0  0  0  0
   62.3138   30.1686   48.9717 H   0  0  0  0  0  0  0  0  0  0  0  0
   60.4045   30.1313   47.4120 H   0  0  0  0  0  0  0  0  0  0  0  0
   57.3819   32.9039   45.3132 H   0  0  0  0  0  0  0  0  0  0  0  0
   55.6556   29.2409   43.9943 H   0  0  0  0  0  0  0  0  0  0  0  0
   56.8258   27.2219   44.1487 H   0  0  0  0  0  0  0  0  0  0  0  0
   58.6416   27.2962   44.3946 H   0  0  0  0  0  0  0  0  0  0  0  0
   58.8165   26.1924   47.6387 H   0  0  0  0  0  0  0  0  0  0  0  0
   58.8731   25.1731   46.1607 H   0  0  0  0  0  0  0  0  0  0  0  0
   59.6381   26.7984   46.1607 H   0  0  0  0  0  0  0  0  0  0  0  0
   56.4515   23.4206   45.2191 H   0  0  0  0  0  0  0  0  0  0  0  0
   55.4429   24.4720   44.1684 H   0  0  0  0  0  0  0  0  0  0  0  0
   57.2301   24.6521   44.1684 H   0  0  0  0  0  0  0  0  0  0  0  0
   59.5569   29.2038   45.8608 H   0  0  0  0  0  0  0  0  0  0  0  0
  1  2  1  0
  2  3  1  0
  3  4  2  0
  4  5  1  0
  5  6  2  0
  6  7  1  0
  7  8  2  0
  8  9  1  0
  9 10  2  0
 10 11  1  0
 11 12  2  0
 12 13  1  0
 13 14  2  0
 14 15  1  0
 15 16  2  0
 16 17  1  0
 17 18  1  0
 18 19  1  0
 19 20  1  0
 19 21  1  0
 21 22  1  0
 21 23  2  0
 21 24  2  0
 17 25  2  0
 12  3  1  0
 25 13  1  0
 10  5  1  0
  1 26  1  0
  1 27  1  0
  1 28  1  0
  6 29  1  0
  7 30  1  0
  8 31  1  0
  9 32  1  0
 11 33  1  0
 14 34  1  0
 16 35  1  0
 18 36  1  0
 18 37  1  0
 20 38  1  0
 20 39  1  0
 20 40  1  0
 22 41  1  0
 22 42  1  0
 22 43  1  0
 25 44  1  0
M  END
>  <UniqueID>  (33) 
31

>  <SMILES>  (33) 
COc1nc2ccccc2cc1-c1cncc(CN(C)S(C)(=O)=O)c1

>  <Energy>  (33) 
51.63856999594068

>  <Genealogy>  (33) 
COc1nc2ccccc2cc1-c1cncc(CN(C)S(C)(=O)=O)c1 (3D coordinates assigned)
COc1nc2ccccc2cc1-c1cncc(CN(C)S(C)(=O)=O)c1 (optimized conformer: 51.63856999594068 kcal/mol)

>  <smiles>  (33) 
COc1nc2ccccc2cc1-c1cncc(CN(C)S(C)(=O)=O)c1

>  <score_type>  (33) 
oracle

>  <origin>  (33) 
adg

>  <m_score__min__energy>  (33) 
-9.0700000000000003

>  <m_primary>  (33) 
energy

$$$$
33:0
     RDKit          3D

 58 61  0  0  0  0  0  0  0  0999 V2000
   58.3400   24.4490   46.2720 C   0  0  0  0  0  0  0  0  0  0  0  0
   59.1890   25.2950   46.1490 C   0  0  0  0  0  0  0  0  0  0  0  0
   60.2200   26.3310   45.9910 C   0  0  0  0  0  0  0  0  0  0  0  0
   60.6670   26.8810   47.3490 C   0  0  0  0  0  0  0  0  0  0  0  0
   59.6900   27.9270   47.9000 C   0  0  0  0  0  0  0  0  0  0  0  0
   59.3040   28.8660   46.8430 N   0  0  0  0  0  0  0  0  0  0  0  0
   60.0420   29.8920   46.3340 C   0  0  0  0  0  0  0  0  0  0  0  0
   61.3990   30.2910   46.8440 C   0  0  0  0  0  0  0  0  0  0  0  0
   61.3040   30.8390   48.2110 N   0  0  0  0  0  0  0  0  0  0  0  0
   59.9060   31.2180   48.5430 C   0  0  0  0  0  0  0  0  0  0  0  0
   59.8530   32.2410   49.6870 C   0  0  0  0  0  0  0  0  0  0  0  0
   60.5670   33.5000   49.3510 N   0  0  0  0  0  0  0  0  0  0  0  0
   59.6390   34.5790   48.9560 C   0  0  0  0  0  0  0  0  0  0  0  0
   59.1000   34.3350   47.5710 C   0  0  0  0  0  0  0  0  0  0  0  0
   58.0070   33.4730   47.3720 C   0  0  0  0  0  0  0  0  0  0  0  0
   57.5100   33.2550   46.0830 C   0  0  0  0  0  0  0  0  0  0  0  0
   58.0990   33.8950   44.9870 C   0  0  0  0  0  0  0  0  0  0  0  0
   59.1860   34.7520   45.1780 C   0  0  0  0  0  0  0  0  0  0  0  0
   59.6870   34.9710   46.4650 C   0  0  0  0  0  0  0  0  0  0  0  0
   61.6200   33.3230   48.3220 C   0  0  0  0  0  0  0  0  0  0  0  0
   62.2780   31.9400   48.4280 C   0  0  0  0  0  0  0  0  0  0  0  0
   59.4120   30.5740   45.3420 N   0  0  0  0  0  0  0  0  0  0  0  0
   58.2430   29.9170   45.2240 C   0  0  0  0  0  0  0  0  0  0  0  0
   58.1750   28.8880   46.1100 C   0  0  0  0  0  0  0  0  0  0  0  0
   57.0550   28.0610   46.1270 C   0  0  0  0  0  0  0  0  0  0  0  0
   56.9570   27.0860   46.9180 O   0  0  0  0  0  0  0  0  0  0  0  0
   56.0530   28.3320   45.2450 N   0  0  0  0  0  0  0  0  0  0  0  0
   56.1280   29.3800   44.3650 C   0  0  0  0  0  0  0  0  0  0  0  0
   55.1740   29.5750   43.5640 O   0  0  0  0  0  0  0  0  0  0  0  0
   57.2310   30.2050   44.3560 N   0  0  0  0  0  0  0  0  0  0  0  0
   57.3510   31.3130   43.4010 C   0  0  0  0  0  0  0  0  0  0  0  0
   57.5649   23.6766   46.3843 H   0  0  0  0  0  0  0  0  0  0  0  0
   61.0895   25.8960   45.4765 H   0  0  0  0  0  0  0  0  0  0  0  0
   59.7948   27.1582   45.4036 H   0  0  0  0  0  0  0  0  0  0  0  0
   60.7344   26.0478   48.0640 H   0  0  0  0  0  0  0  0  0  0  0  0
   61.6428   27.3697   47.2110 H   0  0  0  0  0  0  0  0  0  0  0  0
   58.7915   27.4196   48.2811 H   0  0  0  0  0  0  0  0  0  0  0  0
   60.1805   28.4832   48.7124 H   0  0  0  0  0  0  0  0  0  0  0  0
   62.0546   29.4078   46.8541 H   0  0  0  0  0  0  0  0  0  0  0  0
   61.8113   31.0659   46.1810 H   0  0  0  0  0  0  0  0  0  0  0  0
   59.4335   31.6554   47.6511 H   0  0  0  0  0  0  0  0  0  0  0  0
   59.3722   30.3124   48.8669 H   0  0  0  0  0  0  0  0  0  0  0  0
   58.8004   32.4777   49.9015 H   0  0  0  0  0  0  0  0  0  0  0  0
   60.3505   31.7949   50.5608 H   0  0  0  0  0  0  0  0  0  0  0  0
   58.8017   34.6144   49.6686 H   0  0  0  0  0  0  0  0  0  0  0  0
   60.1840   35.5345   48.9609 H   0  0  0  0  0  0  0  0  0  0  0  0
   57.5418   32.9690   48.2320 H   0  0  0  0  0  0  0  0  0  0  0  0
   56.6552   32.5797   45.9307 H   0  0  0  0  0  0  0  0  0  0  0  0
   57.7060   33.7233   43.9741 H   0  0  0  0  0  0  0  0  0  0  0  0
   59.6479   35.2547   44.3154 H   0  0  0  0  0  0  0  0  0  0  0  0
   60.5445   35.6442   46.6117 H   0  0  0  0  0  0  0  0  0  0  0  0
   61.1678   33.4290   47.3249 H   0  0  0  0  0  0  0  0  0  0  0  0
   62.3937   34.0883   48.4823 H   0  0  0  0  0  0  0  0  0  0  0  0
   63.0717   31.8659   47.6700 H   0  0  0  0  0  0  0  0  0  0  0  0
   62.6856   31.8360   49.4444 H   0  0  0  0  0  0  0  0  0  0  0  0
   57.4536   32.2607   43.9499 H   0  0  0  0  0  0  0  0  0  0  0  0
   58.2376   31.1577   42.7687 H   0  0  0  0  0  0  0  0  0  0  0  0
   56.4517   31.3511   42.7687 H   0  0  0  0  0  0  0  0  0  0  0  0
  1  2  3  0
  2  3  1  0
  3  4  1  0
  4  5  1  0
  5  6  1  0
  6  7  1  0
  7  8  1  0
  8  9  1  0
  9 10  1  0
 10 11  1  0
 11 12  1  0
 12 13  1  0
 13 14  1  0
 14 15  2  0
 15 16  1  0
 16 17  2  0
 17 18  1  0
 18 19  2  0
 12 20  1  0
 20 21  1  0
  7 22  2  0
 22 23  1  0
 23 24  2  0
 24 25  1  0
 25 26  2  0
 25 27  1  0
 27 28  1  0
 28 29  2  0
 28 30  1  0
 30 31  1  0
 24  6  1  0
 21  9  1  0
 30 23  1  0
 19 14  1  0
  1 32  1  0
  3 33  1  0
  3 34  1  0
  4 35  1  0
  4 36  1  0
  5 37  1  0
  5 38  1  0
  8 39  1  0
  8 40  1  0
 10 41  1  0
 10 42  1  0
 11 43  1  0
 11 44  1  0
 13 45  1  0
 13 46  1  0
 15 47  1  0
 16 48  1  0
 17 49  1  0
 18 50  1  0
 19 51  1  0
 20 52  1  0
 20 53  1  0
 21 54  1  0
 21 55  1  0
 31 56  1  0
 31 57  1  0
 31 58  1  0
M  CHG  1  27  -1
M  END
>  <UniqueID>  (34) 
32

>  <SMILES>  (34) 
C#CCCCn1c(CN2CCN(Cc3ccccc3)CC2)nc2c1c(=O)[n-]c(=O)n2C

>  <Energy>  (34) 
108.30918314664086

>  <Genealogy>  (34) 
C#CCCCn1c(CN2CCN(Cc3ccccc3)CC2)nc2c1c(=O)[n-]c(=O)n2C (protonated)
C#CCCCn1c(CN2CCN(Cc3ccccc3)CC2)nc2c1c(=O)[n-]c(=O)n2C (3D coordinates assigned)
C#CCCCn1c(CN2CCN(Cc3ccccc3)CC2)nc2c1c(=O)[n-]c(=O)n2C (nonaromatic ring conformer: 108.30918314664086 kcal/mol)

>  <smiles>  (34) 
C#CCCCn1c(CN2CCN(Cc3ccccc3)CC2)nc2c1c(=O)[nH]c(=O)n2C

>  <score_type>  (34) 
oracle

>  <origin>  (34) 
adg

>  <m_score__min__energy>  (34) 
-10.609999999999999

>  <m_primary>  (34) 
energy

$$$$
34:0
     RDKit          3D

 34 36  0  0  0  0  0  0  0  0999 V2000
   58.8770   34.2870   45.9890 C   0  0  0  0  0  0  0  0  0  0  0  0
   57.7090   33.3400   46.2800 C   0  0  0  0  0  0  0  0  0  0  0  0
   58.0580   31.9370   45.9870 N   0  0  0  0  0  0  0  0  0  0  0  0
   58.7460   31.1670   47.0040 C   0  0  0  0  0  0  0  0  0  0  0  0
   59.2000   31.7650   48.0190 O   0  0  0  0  0  0  0  0  0  0  0  0
   58.9440   29.6990   46.9340 C   0  0  0  0  0  0  0  0  0  0  0  0
   60.0840   29.1450   47.5440 C   0  0  0  0  0  0  0  0  0  0  0  0
   60.2390   27.7640   47.6430 C   0  0  0  0  0  0  0  0  0  0  0  0
   59.2470   26.9120   47.1660 C   0  0  0  0  0  0  0  0  0  0  0  0
   58.0860   27.4330   46.5700 C   0  0  0  0  0  0  0  0  0  0  0  0
   57.0270   26.5060   46.0160 C   0  0  0  0  0  0  0  0  0  0  0  0
   57.3520   26.1360   44.7220 F   0  0  0  0  0  0  0  0  0  0  0  0
   56.9520   25.3740   46.8040 F   0  0  0  0  0  0  0  0  0  0  0  0
   55.7820   27.1110   45.9890 F   0  0  0  0  0  0  0  0  0  0  0  0
   57.9560   28.8330   46.4190 C   0  0  0  0  0  0  0  0  0  0  0  0
   56.8440   29.3320   45.7410 O   0  0  0  0  0  0  0  0  0  0  0  0
   56.9920   30.1540   44.6300 C   0  0  0  0  0  0  0  0  0  0  0  0
   56.4530   29.7230   43.4110 C   0  0  0  0  0  0  0  0  0  0  0  0
   56.6310   30.4790   42.2530 C   0  0  0  0  0  0  0  0  0  0  0  0
   57.3410   31.6790   42.3070 C   0  0  0  0  0  0  0  0  0  0  0  0
   57.5680   32.6300   40.8510 Cl  0  0  0  0  0  0  0  0  0  0  0  0
   57.8520   32.1320   43.5270 C   0  0  0  0  0  0  0  0  0  0  0  0
   57.6750   31.3820   44.7080 C   0  0  0  0  0  0  0  0  0  0  0  0
   59.3097   34.6378   46.9375 H   0  0  0  0  0  0  0  0  0  0  0  0
   59.6457   33.7540   45.4102 H   0  0  0  0  0  0  0  0  0  0  0  0
   58.5145   35.1493   45.4102 H   0  0  0  0  0  0  0  0  0  0  0  0
   57.4371   33.4253   47.3425 H   0  0  0  0  0  0  0  0  0  0  0  0
   56.8664   33.6260   45.6333 H   0  0  0  0  0  0  0  0  0  0  0  0
   60.8620   29.8098   47.9475 H   0  0  0  0  0  0  0  0  0  0  0  0
   61.1481   27.3456   48.0995 H   0  0  0  0  0  0  0  0  0  0  0  0
   59.3728   25.8230   47.2563 H   0  0  0  0  0  0  0  0  0  0  0  0
   55.8855   28.7817   43.3670 H   0  0  0  0  0  0  0  0  0  0  0  0
   56.2121   30.1297   41.2977 H   0  0  0  0  0  0  0  0  0  0  0  0
   58.3990   33.0855   43.5661 H   0  0  0  0  0  0  0  0  0  0  0  0
  1  2  1  0
  2  3  1  0
  3  4  1  0
  4  5  2  0
  4  6  1  0
  6  7  2  0
  7  8  1  0
  8  9  2  0
  9 10  1  0
 10 11  1  0
 11 12  1  0
 11 13  1  0
 11 14  1  0
 10 15  2  0
 15 16  1  0
 16 17  1  0
 17 18  2  0
 18 19  1  0
 19 20  2  0
 20 21  1  0
 20 22  1  0
 22 23  2  0
 23  3  1  0
 15  6  1  0
 23 17  1  0
  1 24  1  0
  1 25  1  0
  1 26  1  0
  2 27  1  0
  2 28  1  0
  7 29  1  0
  8 30  1  0
  9 31  1  0
 18 32  1  0
 19 33  1  0
 22 34  1  0
M  END
>  <UniqueID>  (35) 
33

>  <SMILES>  (35) 
CCN1C(=O)c2cccc(C(F)(F)F)c2Oc2ccc(Cl)cc21

>  <Energy>  (35) 
62.33814268861241

>  <Genealogy>  (35) 
CCN1C(=O)c2cccc(C(F)(F)F)c2Oc2ccc(Cl)cc21 (3D coordinates assigned)
CCN1C(=O)c2cccc(C(F)(F)F)c2Oc2ccc(Cl)cc21 (nonaromatic ring conformer: 62.33814268861241 kcal/mol)

>  <smiles>  (35) 
CCN1C(=O)c2cccc(C(F)(F)F)c2Oc2ccc(Cl)cc21

>  <score_type>  (35) 
oracle

>  <origin>  (35) 
adg

>  <m_score__min__energy>  (35) 
-7.4299999999999997

>  <m_primary>  (35) 
energy

$$$$
35:0
     RDKit          3D

 46 49  0  0  0  0  0  0  0  0999 V2000
   66.9960   33.2610   50.5930 C   0  0  0  0  0  0  0  0  0  0  0  0
   65.5620   33.3600   50.3500 N   0  0  0  0  0  0  0  0  0  0  0  0
   64.8790   32.7200   49.3830 C   0  0  0  0  0  0  0  0  0  0  0  0
   63.5370   33.0150   49.5500 C   0  0  0  0  0  0  0  0  0  0  0  0
   62.4430   32.5660   48.7290 N   0  0  0  0  0  0  0  0  0  0  0  0
   62.0440   33.2820   47.5170 C   0  0  0  0  0  0  0  0  0  0  0  0
   60.4780   33.2920   47.3700 C   0  0  1  0  0  0  0  0  0  0  0  0
   59.8870   34.5600   48.0080 C   0  0  0  0  0  0  0  0  0  0  0  0
   59.2550   35.3420   46.8680 C   0  0  0  0  0  0  0  0  0  0  0  0
   58.9980   34.4020   45.7720 N   0  0  0  0  0  0  0  0  0  0  0  0
   57.6550   33.7930   45.8980 C   0  0  0  0  0  0  0  0  0  0  0  0
   57.4690   32.7120   44.8700 C   0  0  0  0  0  0  0  0  0  0  0  0
   57.9060   32.8880   43.5480 C   0  0  0  0  0  0  0  0  0  0  0  0
   57.7040   31.8670   42.6180 C   0  0  0  0  0  0  0  0  0  0  0  0
   57.0710   30.6860   43.0100 C   0  0  0  0  0  0  0  0  0  0  0  0
   56.6480   30.5440   44.3340 C   0  0  0  0  0  0  0  0  0  0  0  0
   56.8530   31.5500   45.2260 N   0  0  0  0  0  0  0  0  0  0  0  0
   60.0670   33.3980   45.8880 C   0  0  0  0  0  0  0  0  0  0  0  0
   59.8090   32.1690   47.9610 O   0  0  0  0  0  0  0  0  0  0  0  0
   60.6100   31.0090   48.0680 C   0  0  0  0  0  0  0  0  0  0  0  0
   61.7940   31.3060   48.9270 C   0  0  0  0  0  0  0  0  0  0  0  0
   62.2350   30.4520   49.7420 O   0  0  0  0  0  0  0  0  0  0  0  0
   63.4670   33.8460   50.6560 C   0  0  0  0  0  0  0  0  0  0  0  0
   64.7180   34.0270   51.1210 N   0  0  0  0  0  0  0  0  0  0  0  0
   67.1842   33.2480   51.6767 H   0  0  0  0  0  0  0  0  0  0  0  0
   67.3811   32.3341   50.1428 H   0  0  0  0  0  0  0  0  0  0  0  0
   67.5048   34.1262   50.1428 H   0  0  0  0  0  0  0  0  0  0  0  0
   65.3098   32.0779   48.6006 H   0  0  0  0  0  0  0  0  0  0  0  0
   62.4085   34.3184   47.5729 H   0  0  0  0  0  0  0  0  0  0  0  0
   62.4788   32.7722   46.6446 H   0  0  0  0  0  0  0  0  0  0  0  0
   59.1269   34.2932   48.7570 H   0  0  0  0  0  0  0  0  0  0  0  0
   60.6582   35.1501   48.5247 H   0  0  0  0  0  0  0  0  0  0  0  0
   58.3100   35.7947   47.2028 H   0  0  0  0  0  0  0  0  0  0  0  0
   59.9254   36.1482   46.5353 H   0  0  0  0  0  0  0  0  0  0  0  0
   57.5470   33.3593   46.9031 H   0  0  0  0  0  0  0  0  0  0  0  0
   56.8947   34.5715   45.7374 H   0  0  0  0  0  0  0  0  0  0  0  0
   58.4032   33.8221   43.2475 H   0  0  0  0  0  0  0  0  0  0  0  0
   58.0426   31.9925   41.5790 H   0  0  0  0  0  0  0  0  0  0  0  0
   56.9070   29.8759   42.2842 H   0  0  0  0  0  0  0  0  0  0  0  0
   56.1488   29.6179   44.6552 H   0  0  0  0  0  0  0  0  0  0  0  0
   59.7008   32.4231   45.5336 H   0  0  0  0  0  0  0  0  0  0  0  0
   60.9319   33.6953   45.2768 H   0  0  0  0  0  0  0  0  0  0  0  0
   60.0221   30.1967   48.5203 H   0  0  0  0  0  0  0  0  0  0  0  0
   60.9480   30.7004   47.0677 H   0  0  0  0  0  0  0  0  0  0  0  0
   62.5504   34.2817   51.0802 H   0  0  0  0  0  0  0  0  0  0  0  0
   64.9880   34.5940   51.9550 H   0  0  0  0  0  0  0  0  0  0  0  0
  1  2  1  0
  2  3  1  0
  3  4  2  0
  4  5  1  0
  5  6  1  0
  6  7  1  0
  7  8  1  0
  8  9  1  0
  9 10  1  0
 10 11  1  0
 11 12  1  0
 12 13  2  0
 13 14  1  0
 14 15  2  0
 15 16  1  0
 16 17  2  0
 10 18  1  0
  7 19  1  1
 19 20  1  0
 20 21  1  0
 21 22  2  0
  4 23  1  0
 23 24  2  0
 24  2  1  0
 21  5  1  0
 18  7  1  0
 17 12  1  0
  1 25  1  0
  1 26  1  0
  1 27  1  0
  3 28  1  0
  6 29  1  0
  6 30  1  0
  8 31  1  0
  8 32  1  0
  9 33  1  0
  9 34  1  0
 11 35  1  0
 11 36  1  0
 13 37  1  0
 14 38  1  0
 15 39  1  0
 16 40  1  0
 18 41  1  0
 18 42  1  0
 20 43  1  0
 20 44  1  0
 23 45  1  0
 24 46  1  0
M  CHG  1  24   1
M  END
>  <UniqueID>  (36) 
34

>  <SMILES>  (36) 
Cn1cc(N2C[C@]3(CCN(Cc4ccccn4)C3)OCC2=O)c[nH+]1

>  <Energy>  (36) 
98.98916123941825

>  <Genealogy>  (36) 
Cn1cc(N2CC3(CCN(Cc4ccccn4)C3)OCC2=O)c[nH+]1 (protonated)
Cn1cc(N2C[C@]3(CCN(Cc4ccccn4)C3)OCC2=O)c[nH+]1 (chirality)
Cn1cc(N2C[C@]3(CCN(Cc4ccccn4)C3)OCC2=O)c[nH+]1 (3D coordinates assigned)
Cn1cc(N2C[C@]3(CCN(Cc4ccccn4)C3)OCC2=O)c[nH+]1 (nonaromatic ring conformer: 98.98916123941825 kcal/mol)

>  <smiles>  (36) 
Cn1cc(N2CC3(CCN(Cc4ccccn4)C3)OCC2=O)cn1

>  <score_type>  (36) 
oracle

>  <origin>  (36) 
adg

>  <m_score__min__energy>  (36) 
-6.5300000000000002

>  <m_primary>  (36) 
energy

$$$$
36:0
     RDKit          3D

 33 34  0  0  0  0  0  0  0  0999 V2000
   60.6080   34.0150   46.9890 C   0  0  0  0  0  0  0  0  0  0  0  0
   59.4260   33.4090   46.2950 C   0  0  0  0  0  0  0  0  0  0  0  0
   58.2890   34.2060   45.9990 C   0  0  0  0  0  0  0  0  0  0  0  0
   57.1580   33.6410   45.3800 C   0  0  0  0  0  0  0  0  0  0  0  0
   57.1940   32.2830   45.0860 C   0  0  0  0  0  0  0  0  0  0  0  0
   56.2700   31.5440   44.5180 O   0  0  0  0  0  0  0  0  0  0  0  0
   56.7760   30.3250   44.4610 C   0  0  0  0  0  0  0  0  0  0  0  0
   56.1600   29.3440   43.9670 O   0  0  0  0  0  0  0  0  0  0  0  0
   58.0260   30.2430   44.9840 N   0  0  0  0  0  0  0  0  0  0  0  0
   58.8960   29.0690   45.0710 C   0  0  0  0  0  0  0  0  0  0  0  0
   58.1210   27.8160   45.5190 C   0  0  0  0  0  0  0  0  0  0  0  0
   57.6460   26.9920   44.3740 N   0  0  0  0  0  0  0  0  0  0  0  0
   57.6170   25.5630   44.7370 C   0  0  0  0  0  0  0  0  0  0  0  0
   58.5070   27.1740   43.1900 C   0  0  0  0  0  0  0  0  0  0  0  0
   58.2780   31.5050   45.3800 C   0  0  0  0  0  0  0  0  0  0  0  0
   59.4170   32.0280   45.9940 C   0  0  0  0  0  0  0  0  0  0  0  0
   60.4698   33.9442   48.0780 H   0  0  0  0  0  0  0  0  0  0  0  0
   61.5206   33.4736   46.6992 H   0  0  0  0  0  0  0  0  0  0  0  0
   60.7011   35.0720   46.6992 H   0  0  0  0  0  0  0  0  0  0  0  0
   58.2919   35.2756   46.2559 H   0  0  0  0  0  0  0  0  0  0  0  0
   56.2766   34.2528   45.1375 H   0  0  0  0  0  0  0  0  0  0  0  0
   59.3385   28.8795   44.0819 H   0  0  0  0  0  0  0  0  0  0  0  0
   59.6754   29.2752   45.8194 H   0  0  0  0  0  0  0  0  0  0  0  0
   58.7820   27.1992   46.1457 H   0  0  0  0  0  0  0  0  0  0  0  0
   57.2337   28.1558   46.0733 H   0  0  0  0  0  0  0  0  0  0  0  0
   56.6690   27.2600   44.1100 H   0  0  0  0  0  0  0  0  0  0  0  0
   57.6150   25.4629   45.8324 H   0  0  0  0  0  0  0  0  0  0  0  0
   56.7092   25.0983   44.3247 H   0  0  0  0  0  0  0  0  0  0  0  0
   58.5052   25.0618   44.3247 H   0  0  0  0  0  0  0  0  0  0  0  0
   59.5354   27.3914   43.5144 H   0  0  0  0  0  0  0  0  0  0  0  0
   58.4996   26.2544   42.5864 H   0  0  0  0  0  0  0  0  0  0  0  0
   58.1281   28.0119   42.5864 H   0  0  0  0  0  0  0  0  0  0  0  0
   60.2781   31.3875   46.2354 H   0  0  0  0  0  0  0  0  0  0  0  0
  1  2  1  0
  2  3  2  0
  3  4  1  0
  4  5  2  0
  5  6  1  0
  6  7  1  0
  7  8  2  0
  7  9  1  0
  9 10  1  0
 10 11  1  0
 11 12  1  0
 12 13  1  0
 12 14  1  0
  9 15  1  0
 15 16  2  0
 16  2  1  0
 15  5  1  0
  1 17  1  0
  1 18  1  0
  1 19  1  0
  3 20  1  0
  4 21  1  0
 10 22  1  0
 10 23  1  0
 11 24  1  0
 11 25  1  0
 12 26  1  0
 13 27  1  0
 13 28  1  0
 13 29  1  0
 14 30  1  0
 14 31  1  0
 14 32  1  0
 16 33  1  0
M  CHG  1  12   1
M  END
>  <UniqueID>  (37) 
35

>  <SMILES>  (37) 
Cc1ccc2oc(=O)n(CC[NH+](C)C)c2c1

>  <Energy>  (37) 
73.40753131634527

>  <Genealogy>  (37) 
Cc1ccc2oc(=O)n(CC[NH+](C)C)c2c1 (protonated)
Cc1ccc2oc(=O)n(CC[NH+](C)C)c2c1 (3D coordinates assigned)
Cc1ccc2oc(=O)n(CC[NH+](C)C)c2c1 (optimized conformer: 73.40753131634527 kcal/mol)

>  <smiles>  (37) 
Cc1ccc2oc(=O)n(CCN(C)C)c2c1

>  <score_type>  (37) 
oracle

>  <origin>  (37) 
adg

>  <m_score__min__energy>  (37) 
-4.5300000000000002

>  <m_primary>  (37) 
energy

$$$$
37:0
     RDKit          3D

 43 46  0  0  0  0  0  0  0  0999 V2000
   57.3060   24.1930   48.0720 C   0  0  0  0  0  0  0  0  0  0  0  0
   58.1540   24.7770   47.0880 O   0  0  0  0  0  0  0  0  0  0  0  0
   58.1890   26.1460   46.7800 C   0  0  0  0  0  0  0  0  0  0  0  0
   59.3600   26.9140   46.9230 C   0  0  0  0  0  0  0  0  0  0  0  0
   59.3570   28.2730   46.6090 C   0  0  0  0  0  0  0  0  0  0  0  0
   58.1860   28.9000   46.1510 C   0  0  0  0  0  0  0  0  0  0  0  0
   58.1670   30.3450   45.8030 C   0  0  0  0  0  0  0  0  0  0  0  0
   59.1700   31.2300   46.2730 C   0  0  0  0  0  0  0  0  0  0  0  0
   59.0590   32.5720   45.9080 C   0  0  0  0  0  0  0  0  0  0  0  0
   58.0490   33.0090   45.1080 C   0  0  0  0  0  0  0  0  0  0  0  0
   57.0650   32.1440   44.6530 C   0  0  0  0  0  0  0  0  0  0  0  0
   57.1480   30.8320   45.0200 N   0  0  0  0  0  0  0  0  0  0  0  0
   58.1990   34.3190   44.8540 N   0  0  0  0  0  0  0  0  0  0  0  0
   59.3290   34.6610   45.5190 C   0  0  0  0  0  0  0  0  0  0  0  0
   59.8760   33.6110   46.1840 N   0  0  0  0  0  0  0  0  0  0  0  0
   61.0630   33.6370   46.9940 C   0  0  0  0  0  0  0  0  0  0  0  0
   60.9600   33.6690   48.3950 C   0  0  0  0  0  0  0  0  0  0  0  0
   62.1110   33.6800   49.1880 C   0  0  0  0  0  0  0  0  0  0  0  0
   63.3750   33.6480   48.5900 C   0  0  0  0  0  0  0  0  0  0  0  0
   63.4870   33.5990   47.1980 C   0  0  0  0  0  0  0  0  0  0  0  0
   62.3370   33.5890   46.4020 C   0  0  0  0  0  0  0  0  0  0  0  0
   57.0200   28.1290   45.9970 C   0  0  0  0  0  0  0  0  0  0  0  0
   57.0150   26.7550   46.3140 C   0  0  0  0  0  0  0  0  0  0  0  0
   55.8640   25.9640   46.1780 O   0  0  0  0  0  0  0  0  0  0  0  0
   55.7510   24.8420   45.3090 C   0  0  0  0  0  0  0  0  0  0  0  0
   57.6778   24.4491   49.0751 H   0  0  0  0  0  0  0  0  0  0  0  0
   56.2832   24.5791   47.9504 H   0  0  0  0  0  0  0  0  0  0  0  0
   57.3020   23.0997   47.9504 H   0  0  0  0  0  0  0  0  0  0  0  0
   60.2838   26.4391   47.2849 H   0  0  0  0  0  0  0  0  0  0  0  0
   60.2807   28.8598   46.7211 H   0  0  0  0  0  0  0  0  0  0  0  0
   60.0010   30.8734   46.8993 H   0  0  0  0  0  0  0  0  0  0  0  0
   56.2434   32.5040   44.0163 H   0  0  0  0  0  0  0  0  0  0  0  0
   57.5910   34.9340   44.2690 H   0  0  0  0  0  0  0  0  0  0  0  0
   59.7552   35.6751   45.5200 H   0  0  0  0  0  0  0  0  0  0  0  0
   59.9681   33.6855   48.8703 H   0  0  0  0  0  0  0  0  0  0  0  0
   62.0226   33.7139   50.2839 H   0  0  0  0  0  0  0  0  0  0  0  0
   64.2801   33.6614   49.2149 H   0  0  0  0  0  0  0  0  0  0  0  0
   64.4809   33.5683   46.7276 H   0  0  0  0  0  0  0  0  0  0  0  0
   62.4300   33.5433   45.3069 H   0  0  0  0  0  0  0  0  0  0  0  0
   56.1003   28.6038   45.6246 H   0  0  0  0  0  0  0  0  0  0  0  0
   55.6585   23.9232   45.9067 H   0  0  0  0  0  0  0  0  0  0  0  0
   54.8600   24.9579   44.6744 H   0  0  0  0  0  0  0  0  0  0  0  0
   56.6472   24.7780   44.6744 H   0  0  0  0  0  0  0  0  0  0  0  0
  1  2  1  0
  2  3  1  0
  3  4  2  0
  4  5  1  0
  5  6  2  0
  6  7  1  0
  7  8  2  0
  8  9  1  0
  9 10  2  0
 10 11  1  0
 11 12  2  0
 10 13  1  0
 13 14  2  0
 14 15  1  0
 15 16  1  0
 16 17  2  0
 17 18  1  0
 18 19  2  0
 19 20  1  0
 20 21  2  0
  6 22  1  0
 22 23  2  0
 23 24  1  0
 24 25  1  0
 23  3  1  0
 12  7  1  0
 21 16  1  0
 15  9  1  0
  1 26  1  0
  1 27  1  0
  1 28  1  0
  4 29  1  0
  5 30  1  0
  8 31  1  0
 11 32  1  0
 13 33  1  0
 14 34  1  0
 17 35  1  0
 18 36  1  0
 19 37  1  0
 20 38  1  0
 21 39  1  0
 22 40  1  0
 25 41  1  0
 25 42  1  0
 25 43  1  0
M  CHG  1  13   1
M  END
>  <UniqueID>  (38) 
36

>  <SMILES>  (38) 
COc1ccc(-c2cc3c(cn2)[nH+]cn3-c2ccccc2)cc1OC

>  <Energy>  (38) 
96.16302544350195

>  <Genealogy>  (38) 
COc1ccc(-c2cc3c(cn2)[nH+]cn3-c2ccccc2)cc1OC (protonated)
COc1ccc(-c2cc3c(cn2)[nH+]cn3-c2ccccc2)cc1OC (3D coordinates assigned)
COc1ccc(-c2cc3c(cn2)[nH+]cn3-c2ccccc2)cc1OC (optimized conformer: 96.16302544350195 kcal/mol)

>  <smiles>  (38) 
COc1ccc(-c2cc3c(cn2)ncn3-c2ccccc2)cc1OC

>  <score_type>  (38) 
oracle

>  <origin>  (38) 
adg

>  <m_score__min__energy>  (38) 
-6.6100000000000003

>  <m_primary>  (38) 
energy

$$$$
38:0
     RDKit          3D

 47 49  0  0  0  0  0  0  0  0999 V2000
   62.9250   32.6780   47.4300 C   0  0  0  0  0  0  0  0  0  0  0  0
   61.5460   32.7750   46.7850 C   0  0  0  0  0  0  0  0  0  0  0  0
   60.5460   32.0810   47.6000 N   0  0  0  0  0  0  0  0  0  0  0  0
   59.9480   30.8840   47.3560 C   0  0  0  0  0  0  0  0  0  0  0  0
   60.2550   29.8750   45.9040 S   0  0  0  0  0  0  0  0  0  0  0  0
   58.6330   29.0380   45.9670 C   0  0  0  0  0  0  0  0  0  0  0  0
   57.6780   29.5930   44.9070 C   0  0  0  0  0  0  0  0  0  0  0  0
   57.0510   30.7940   45.3630 O   0  0  0  0  0  0  0  0  0  0  0  0
   57.6140   32.0810   45.3660 C   0  0  0  0  0  0  0  0  0  0  0  0
   57.6110   32.9080   46.5060 C   0  0  0  0  0  0  0  0  0  0  0  0
   58.1970   34.1750   46.4610 C   0  0  0  0  0  0  0  0  0  0  0  0
   58.7820   34.6340   45.2810 C   0  0  0  0  0  0  0  0  0  0  0  0
   58.7740   33.8330   44.1380 C   0  0  0  0  0  0  0  0  0  0  0  0
   58.1850   32.5530   44.1710 C   0  0  0  0  0  0  0  0  0  0  0  0
   58.1530   31.7200   43.0420 O   0  0  0  0  0  0  0  0  0  0  0  0
   57.7890   32.1470   41.7330 C   0  0  0  0  0  0  0  0  0  0  0  0
   59.0760   30.5240   48.3280 N   0  0  0  0  0  0  0  0  0  0  0  0
   59.1420   31.5280   49.2180 C   0  0  0  0  0  0  0  0  0  0  0  0
   58.4550   31.6570   50.4210 C   0  0  0  0  0  0  0  0  0  0  0  0
   58.6910   32.8150   51.1950 C   0  0  0  0  0  0  0  0  0  0  0  0
   58.0120   32.9830   52.5200 C   0  0  0  0  0  0  0  0  0  0  0  0
   59.6240   33.7850   50.7480 C   0  0  0  0  0  0  0  0  0  0  0  0
   60.3010   33.6220   49.5250 C   0  0  0  0  0  0  0  0  0  0  0  0
   60.0300   32.4720   48.7830 C   0  0  0  0  0  0  0  0  0  0  0  0
   62.8190   32.6855   48.5249 H   0  0  0  0  0  0  0  0  0  0  0  0
   63.4122   31.7434   47.1151 H   0  0  0  0  0  0  0  0  0  0  0  0
   63.5382   33.5352   47.1151 H   0  0  0  0  0  0  0  0  0  0  0  0
   61.2643   33.8342   46.6914 H   0  0  0  0  0  0  0  0  0  0  0  0
   61.5846   32.3026   45.7924 H   0  0  0  0  0  0  0  0  0  0  0  0
   58.7781   27.9620   45.7902 H   0  0  0  0  0  0  0  0  0  0  0  0
   58.1904   29.2137   46.9586 H   0  0  0  0  0  0  0  0  0  0  0  0
   58.2449   29.8089   43.9894 H   0  0  0  0  0  0  0  0  0  0  0  0
   56.8981   28.8428   44.7097 H   0  0  0  0  0  0  0  0  0  0  0  0
   57.1445   32.5540   47.4372 H   0  0  0  0  0  0  0  0  0  0  0  0
   58.1971   34.8120   47.3578 H   0  0  0  0  0  0  0  0  0  0  0  0
   59.2504   35.6288   45.2511 H   0  0  0  0  0  0  0  0  0  0  0  0
   59.2294   34.2024   43.2073 H   0  0  0  0  0  0  0  0  0  0  0  0
   57.0769   32.9823   41.8046 H   0  0  0  0  0  0  0  0  0  0  0  0
   58.6880   32.4769   41.1917 H   0  0  0  0  0  0  0  0  0  0  0  0
   57.3210   31.3116   41.1917 H   0  0  0  0  0  0  0  0  0  0  0  0
   58.4940   29.6580   48.3800 H   0  0  0  0  0  0  0  0  0  0  0  0
   57.7508   30.8823   50.7585 H   0  0  0  0  0  0  0  0  0  0  0  0
   58.7361   32.8038   53.3284 H   0  0  0  0  0  0  0  0  0  0  0  0
   57.6164   34.0061   52.6022 H   0  0  0  0  0  0  0  0  0  0  0  0
   57.1850   32.2624   52.6022 H   0  0  0  0  0  0  0  0  0  0  0  0
   59.8207   34.6748   51.3641 H   0  0  0  0  0  0  0  0  0  0  0  0
   61.0186   34.3748   49.1667 H   0  0  0  0  0  0  0  0  0  0  0  0
  1  2  1  0
  2  3  1  0
  3  4  1  0
  4  5  1  0
  5  6  1  0
  6  7  1  0
  7  8  1  0
  8  9  1  0
  9 10  2  0
 10 11  1  0
 11 12  2  0
 12 13  1  0
 13 14  2  0
 14 15  1  0
 15 16  1  0
  4 17  2  0
 17 18  1  0
 18 19  2  0
 19 20  1  0
 20 21  1  0
 20 22  2  0
 22 23  1  0
 23 24  2  0
 24  3  1  0
 14  9  1  0
 24 18  1  0
  1 25  1  0
  1 26  1  0
  1 27  1  0
  2 28  1  0
  2 29  1  0
  6 30  1  0
  6 31  1  0
  7 32  1  0
  7 33  1  0
 10 34  1  0
 11 35  1  0
 12 36  1  0
 13 37  1  0
 16 38  1  0
 16 39  1  0
 16 40  1  0
 17 41  1  0
 19 42  1  0
 21 43  1  0
 21 44  1  0
 21 45  1  0
 22 46  1  0
 23 47  1  0
M  CHG  1  17   1
M  END
>  <UniqueID>  (39) 
37

>  <SMILES>  (39) 
CCn1c(SCCOc2ccccc2OC)[nH+]c2cc(C)ccc21

>  <Energy>  (39) 
77.32708001665274

>  <Genealogy>  (39) 
CCn1c(SCCOc2ccccc2OC)[nH+]c2cc(C)ccc21 (protonated)
CCn1c(SCCOc2ccccc2OC)[nH+]c2cc(C)ccc21 (3D coordinates assigned)
CCn1c(SCCOc2ccccc2OC)[nH+]c2cc(C)ccc21 (optimized conformer: 77.32708001665274 kcal/mol)

>  <smiles>  (39) 
CCn1c(SCCOc2ccccc2OC)nc2cc(C)ccc21

>  <score_type>  (39) 
oracle

>  <origin>  (39) 
adg

>  <m_score__min__energy>  (39) 
-5.3799999999999999

>  <m_primary>  (39) 
energy

$$$$
39:0
     RDKit          3D

 57 59  0  0  0  0  0  0  0  0999 V2000
   54.3560   24.9250   45.6170 C   0  0  0  0  0  0  0  0  0  0  0  0
   54.8550   26.2220   45.9270 O   0  0  0  0  0  0  0  0  0  0  0  0
   56.2070   26.5160   46.1550 C   0  0  0  0  0  0  0  0  0  0  0  0
   57.0500   25.6700   46.8990 C   0  0  0  0  0  0  0  0  0  0  0  0
   58.3920   26.0080   47.0960 C   0  0  0  0  0  0  0  0  0  0  0  0
   58.9160   27.1910   46.5510 C   0  0  0  0  0  0  0  0  0  0  0  0
   60.3690   27.5620   46.7760 C   0  0  0  0  0  0  0  0  0  0  0  0
   60.5640   28.7990   47.5700 N   0  0  0  0  0  0  0  0  0  0  0  0
   60.6520   29.9970   46.7180 C   0  0  0  0  0  0  0  0  0  0  0  0
   59.5740   28.9920   48.6540 C   0  0  0  0  0  0  0  0  0  0  0  0
   59.9000   30.2110   49.5390 C   0  0  0  0  0  0  0  0  0  0  0  0
   58.6510   30.9580   50.0190 C   0  0  0  0  0  0  0  0  0  0  0  0
   58.5950   32.2890   49.4240 N   0  0  0  0  0  0  0  0  0  0  0  0
   59.6040   33.2860   49.6150 C   0  0  0  0  0  0  0  0  0  0  0  0
   59.3960   34.2190   50.4340 O   0  0  0  0  0  0  0  0  0  0  0  0
   60.8620   33.2670   48.8480 C   0  0  0  0  0  0  0  0  0  0  0  0
   62.0680   33.0090   49.5150 C   0  0  0  0  0  0  0  0  0  0  0  0
   63.2780   33.0710   48.8250 C   0  0  0  0  0  0  0  0  0  0  0  0
   64.9230   32.7250   49.7310 Br  0  0  0  0  0  0  0  0  0  0  0  0
   63.2740   33.4030   47.4690 C   0  0  0  0  0  0  0  0  0  0  0  0
   62.0990   33.6400   46.8310 N   0  0  0  0  0  0  0  0  0  0  0  0
   60.8970   33.5730   47.4700 C   0  0  0  0  0  0  0  0  0  0  0  0
   59.6920   33.7780   46.7140 N   0  0  0  0  0  0  0  0  0  0  0  0
   58.7880   32.6940   46.3660 C   0  0  0  0  0  0  0  0  0  0  0  0
   57.7730   33.2950   45.4050 C   0  0  0  0  0  0  0  0  0  0  0  0
   58.3890   34.5990   44.9060 C   0  0  0  0  0  0  0  0  0  0  0  0
   59.4680   34.9710   45.9160 C   0  0  0  0  0  0  0  0  0  0  0  0
   58.0690   28.0390   45.8200 C   0  0  0  0  0  0  0  0  0  0  0  0
   56.7280   27.6990   45.6210 C   0  0  0  0  0  0  0  0  0  0  0  0
   54.1464   24.3803   46.5494 H   0  0  0  0  0  0  0  0  0  0  0  0
   53.4298   25.0189   45.0311 H   0  0  0  0  0  0  0  0  0  0  0  0
   55.1063   24.3739   45.0311 H   0  0  0  0  0  0  0  0  0  0  0  0
   56.6513   24.7386   47.3274 H   0  0  0  0  0  0  0  0  0  0  0  0
   59.0423   25.3422   47.6824 H   0  0  0  0  0  0  0  0  0  0  0  0
   60.8593   26.7315   47.3051 H   0  0  0  0  0  0  0  0  0  0  0  0
   60.8045   27.7511   45.7837 H   0  0  0  0  0  0  0  0  0  0  0  0
   60.7179   30.8936   47.3518 H   0  0  0  0  0  0  0  0  0  0  0  0
   61.5477   29.9303   46.0829 H   0  0  0  0  0  0  0  0  0  0  0  0
   59.7562   30.0619   46.0829 H   0  0  0  0  0  0  0  0  0  0  0  0
   58.5812   29.1383   48.2035 H   0  0  0  0  0  0  0  0  0  0  0  0
   59.5993   28.0975   49.2937 H   0  0  0  0  0  0  0  0  0  0  0  0
   60.4603   29.8641   50.4198 H   0  0  0  0  0  0  0  0  0  0  0  0
   60.4863   30.9125   48.9272 H   0  0  0  0  0  0  0  0  0  0  0  0
   57.7548   30.3917   49.7256 H   0  0  0  0  0  0  0  0  0  0  0  0
   58.6932   31.0577   51.1137 H   0  0  0  0  0  0  0  0  0  0  0  0
   62.0595   32.7570   50.5857 H   0  0  0  0  0  0  0  0  0  0  0  0
   64.2230   33.4726   46.9172 H   0  0  0  0  0  0  0  0  0  0  0  0
   59.3396   31.8763   45.8789 H   0  0  0  0  0  0  0  0  0  0  0  0
   58.3014   32.2701   47.2568 H   0  0  0  0  0  0  0  0  0  0  0  0
   57.5918   32.6108   44.5630 H   0  0  0  0  0  0  0  0  0  0  0  0
   56.8048   33.4687   45.8974 H   0  0  0  0  0  0  0  0  0  0  0  0
   58.8322   34.4550   43.9096 H   0  0  0  0  0  0  0  0  0  0  0  0
   57.6322   35.3922   44.8162 H   0  0  0  0  0  0  0  0  0  0  0  0
   60.3929   35.2643   45.3978 H   0  0  0  0  0  0  0  0  0  0  0  0
   59.1616   35.8236   46.5399 H   0  0  0  0  0  0  0  0  0  0  0  0
   58.4631   28.9767   45.4013 H   0  0  0  0  0  0  0  0  0  0  0  0
   56.0766   28.3678   45.0392 H   0  0  0  0  0  0  0  0  0  0  0  0
  1  2  1  0
  2  3  1  0
  3  4  2  0
  4  5  1  0
  5  6  2  0
  6  7  1  0
  7  8  1  0
  8  9  1  0
  8 10  1  0
 10 11  1  0
 11 12  1  0
 12 13  1  0
 13 14  1  0
 14 15  2  0
 14 16  1  0
 16 17  2  0
 17 18  1  0
 18 19  1  0
 18 20  2  0
 20 21  1  0
 21 22  2  0
 22 23  1  0
 23 24  1  0
 24 25  1  0
 25 26  1  0
 26 27  1  0
  6 28  1  0
 28 29  2  0
 29  3  1  0
 22 16  1  0
 27 23  1  0
  1 30  1  0
  1 31  1  0
  1 32  1  0
  4 33  1  0
  5 34  1  0
  7 35  1  0
  7 36  1  0
  9 37  1  0
  9 38  1  0
  9 39  1  0
 10 40  1  0
 10 41  1  0
 11 42  1  0
 11 43  1  0
 12 44  1  0
 12 45  1  0
 17 46  1  0
 20 47  1  0
 24 48  1  0
 24 49  1  0
 25 50  1  0
 25 51  1  0
 26 52  1  0
 26 53  1  0
 27 54  1  0
 27 55  1  0
 28 56  1  0
 29 57  1  0
M  CHG  1  13  -1
M  END
>  <UniqueID>  (40) 
38

>  <SMILES>  (40) 
COc1ccc(CN(C)CCC[N-]C(=O)c2cc(Br)cnc2N2CCCC2)cc1

>  <Energy>  (40) 
64.92944220387828

>  <Genealogy>  (40) 
COc1ccc(CN(C)CCC[N-]C(=O)c2cc(Br)cnc2N2CCCC2)cc1 (protonated)
COc1ccc(CN(C)CCC[N-]C(=O)c2cc(Br)cnc2N2CCCC2)cc1 (3D coordinates assigned)
COc1ccc(CN(C)CCC[N-]C(=O)c2cc(Br)cnc2N2CCCC2)cc1 (nonaromatic ring conformer: 64.92944220387828 kcal/mol)

>  <smiles>  (40) 
COc1ccc(CN(C)CCCNC(=O)c2cc(Br)cnc2N2CCCC2)cc1

>  <score_type>  (40) 
oracle

>  <origin>  (40) 
adg

>  <m_score__min__energy>  (40) 
-9.7599999999999998

>  <m_primary>  (40) 
energy

$$$$
40:0
     RDKit          3D

 56 57  0  0  0  0  0  0  0  0999 V2000
   57.5070   29.6680   45.2350 C   0  0  0  0  0  0  0  0  0  0  0  0
   58.6760   30.6310   45.4250 C   0  0  0  0  0  0  0  0  0  0  0  0
   59.6170   30.1010   46.4370 N   0  0  0  0  0  0  0  0  0  0  0  0
   59.9940   28.6930   46.1580 C   0  0  0  0  0  0  0  0  0  0  0  0
   60.8250   28.5770   44.8830 C   0  0  0  0  0  0  0  0  0  0  0  0
   59.1370   30.3340   47.8230 C   0  0  0  0  0  0  0  0  0  0  0  0
   60.2100   30.9000   48.7700 C   0  0  0  0  0  0  0  0  0  0  0  0
   61.5190   30.8570   48.1270 N   0  0  0  0  0  0  0  0  0  0  0  0
   62.6690   31.4900   48.6990 C   0  0  0  0  0  0  0  0  0  0  0  0
   63.6650   32.3360   48.2320 C   0  0  0  0  0  0  0  0  0  0  0  0
   63.9770   32.9940   46.9990 N   0  0  0  0  0  0  0  0  0  0  0  0
   63.0970   33.9850   46.3880 C   0  0  0  0  0  0  0  0  0  0  0  0
   61.6390   33.5060   46.4140 C   0  0  0  0  0  0  0  0  0  0  0  0
   60.8420   34.1990   47.5330 C   0  0  0  0  0  0  0  0  0  0  0  0
   59.5240   34.6480   47.0390 N   0  0  0  0  0  0  0  0  0  0  0  0
   59.6020   35.2070   45.6580 C   0  0  0  0  0  0  0  0  0  0  0  0
   59.1220   34.2190   44.5820 C   0  0  0  0  0  0  0  0  0  0  0  0
   57.6660   33.7850   44.8250 C   0  0  0  0  0  0  0  0  0  0  0  0
   57.2840   33.8120   46.3160 C   0  0  0  0  0  0  0  0  0  0  0  0
   58.5130   33.5730   47.1980 C   0  0  0  0  0  0  0  0  0  0  0  0
   64.2550   32.3280   49.4840 C   0  0  0  0  0  0  0  0  0  0  0  0
   65.2880   32.8510   49.9790 O   0  0  0  0  0  0  0  0  0  0  0  0
   63.2300   31.5430   49.9630 C   0  0  0  0  0  0  0  0  0  0  0  0
   62.9350   31.0680   51.0920 O   0  0  0  0  0  0  0  0  0  0  0  0
   57.1266   29.3546   46.2184 H   0  0  0  0  0  0  0  0  0  0  0  0
   56.7049   30.1709   44.6748 H   0  0  0  0  0  0  0  0  0  0  0  0
   57.8471   28.7845   44.6748 H   0  0  0  0  0  0  0  0  0  0  0  0
   59.2038   30.7547   44.4679 H   0  0  0  0  0  0  0  0  0  0  0  0
   58.2887   31.6014   45.7691 H   0  0  0  0  0  0  0  0  0  0  0  0
   60.5816   28.3063   47.0037 H   0  0  0  0  0  0  0  0  0  0  0  0
   59.0713   28.1098   46.0221 H   0  0  0  0  0  0  0  0  0  0  0  0
   61.8826   28.4294   45.1468 H   0  0  0  0  0  0  0  0  0  0  0  0
   60.4715   27.7195   44.2916 H   0  0  0  0  0  0  0  0  0  0  0  0
   60.7198   29.4985   44.2916 H   0  0  0  0  0  0  0  0  0  0  0  0
   58.2996   31.0462   47.7839 H   0  0  0  0  0  0  0  0  0  0  0  0
   58.8412   29.3543   48.2264 H   0  0  0  0  0  0  0  0  0  0  0  0
   59.9615   31.9420   49.0201 H   0  0  0  0  0  0  0  0  0  0  0  0
   60.2387   30.2919   49.6862 H   0  0  0  0  0  0  0  0  0  0  0  0
   61.6190   30.3320   47.2290 H   0  0  0  0  0  0  0  0  0  0  0  0
   64.8990   32.7940   46.5510 H   0  0  0  0  0  0  0  0  0  0  0  0
   63.1764   34.9304   46.9447 H   0  0  0  0  0  0  0  0  0  0  0  0
   63.4023   34.1314   45.3414 H   0  0  0  0  0  0  0  0  0  0  0  0
   61.1696   33.7344   45.4457 H   0  0  0  0  0  0  0  0  0  0  0  0
   61.6332   32.4225   46.6038 H   0  0  0  0  0  0  0  0  0  0  0  0
   60.6942   33.4910   48.3618 H   0  0  0  0  0  0  0  0  0  0  0  0
   61.4077   35.0779   47.8758 H   0  0  0  0  0  0  0  0  0  0  0  0
   58.9755   36.1099   45.6094 H   0  0  0  0  0  0  0  0  0  0  0  0
   60.6595   35.4294   45.4523 H   0  0  0  0  0  0  0  0  0  0  0  0
   59.1912   34.7024   43.5963 H   0  0  0  0  0  0  0  0  0  0  0  0
   59.7608   33.3245   44.6249 H   0  0  0  0  0  0  0  0  0  0  0  0
   56.9986   34.4667   44.2774 H   0  0  0  0  0  0  0  0  0  0  0  0
   57.5629   32.7482   44.4722 H   0  0  0  0  0  0  0  0  0  0  0  0
   56.8511   34.7935   46.5594 H   0  0  0  0  0  0  0  0  0  0  0  0
   56.5530   33.0125   46.5067 H   0  0  0  0  0  0  0  0  0  0  0  0
   58.1944   33.5369   48.2502 H   0  0  0  0  0  0  0  0  0  0  0  0
   58.9740   32.6225   46.8912 H   0  0  0  0  0  0  0  0  0  0  0  0
  1  2  1  0
  2  3  1  0
  3  4  1  0
  4  5  1  0
  3  6  1  0
  6  7  1  0
  7  8  1  0
  8  9  1  0
  9 10  2  0
 10 11  1  0
 11 12  1  0
 12 13  1  0
 13 14  1  0
 14 15  1  0
 15 16  1  0
 16 17  1  0
 17 18  1  0
 18 19  1  0
 19 20  1  0
 10 21  1  0
 21 22  2  0
 21 23  1  0
 23 24  2  0
 23  9  1  0
 20 15  1  0
  1 25  1  0
  1 26  1  0
  1 27  1  0
  2 28  1  0
  2 29  1  0
  4 30  1  0
  4 31  1  0
  5 32  1  0
  5 33  1  0
  5 34  1  0
  6 35  1  0
  6 36  1  0
  7 37  1  0
  7 38  1  0
  8 39  1  0
 11 40  1  0
 12 41  1  0
 12 42  1  0
 13 43  1  0
 13 44  1  0
 14 45  1  0
 14 46  1  0
 16 47  1  0
 16 48  1  0
 17 49  1  0
 17 50  1  0
 18 51  1  0
 18 52  1  0
 19 53  1  0
 19 54  1  0
 20 55  1  0
 20 56  1  0
M  END
>  <UniqueID>  (41) 
39

>  <SMILES>  (41) 
CCN(CC)CCNc1c(NCCCN2CCCCC2)c(=O)c1=O

>  <Energy>  (41) 
44.140860764165346

>  <Genealogy>  (41) 
CCN(CC)CCNc1c(NCCCN2CCCCC2)c(=O)c1=O (3D coordinates assigned)
CCN(CC)CCNc1c(NCCCN2CCCCC2)c(=O)c1=O (nonaromatic ring conformer: 44.140860764165346 kcal/mol)

>  <smiles>  (41) 
CCN(CC)CCNc1c(NCCCN2CCCCC2)c(=O)c1=O

>  <score_type>  (41) 
oracle

>  <origin>  (41) 
adg

>  <m_score__min__energy>  (41) 
-7.0300000000000002

>  <m_primary>  (41) 
energy

$$$$
41:0
     RDKit          3D

 28 28  0  0  0  0  0  0  0  0999 V2000
   57.7220   31.9240   44.3080 C   0  0  0  0  0  0  0  0  0  0  0  0
   56.6480   31.1810   44.8720 O   0  0  0  0  0  0  0  0  0  0  0  0
   56.2440   29.9410   44.3670 C   0  0  0  0  0  0  0  0  0  0  0  0
   55.2360   29.3500   44.8430 O   0  0  0  0  0  0  0  0  0  0  0  0
   56.9920   29.3330   43.2200 C   0  0  0  0  0  0  0  0  0  0  0  0
   57.7320   28.0580   43.6390 C   0  0  0  0  0  0  0  0  0  0  0  0
   58.3240   28.1820   45.0260 C   0  0  0  0  0  0  0  0  0  0  0  0
   59.5410   28.8630   45.1940 C   0  0  0  0  0  0  0  0  0  0  0  0
   60.0960   29.0210   46.4640 C   0  0  0  0  0  0  0  0  0  0  0  0
   59.4370   28.5080   47.5820 C   0  0  0  0  0  0  0  0  0  0  0  0
   58.2210   27.8390   47.4340 C   0  0  0  0  0  0  0  0  0  0  0  0
   57.6480   27.6710   46.1560 C   0  0  0  0  0  0  0  0  0  0  0  0
   56.4210   27.0120   45.9780 O   0  0  0  0  0  0  0  0  0  0  0  0
   56.2690   25.6020   45.8550 C   0  0  0  0  0  0  0  0  0  0  0  0
   58.3370   32.3494   45.1147 H   0  0  0  0  0  0  0  0  0  0  0  0
   58.3407   31.2599   43.6866 H   0  0  0  0  0  0  0  0  0  0  0  0
   57.3188   32.7372   43.6866 H   0  0  0  0  0  0  0  0  0  0  0  0
   56.2785   29.0848   42.4204 H   0  0  0  0  0  0  0  0  0  0  0  0
   57.7369   30.0630   42.8705 H   0  0  0  0  0  0  0  0  0  0  0  0
   57.0246   27.2157   43.6278 H   0  0  0  0  0  0  0  0  0  0  0  0
   58.5558   27.8919   42.9292 H   0  0  0  0  0  0  0  0  0  0  0  0
   60.0608   29.2752   44.3166 H   0  0  0  0  0  0  0  0  0  0  0  0
   61.0530   29.5499   46.5842 H   0  0  0  0  0  0  0  0  0  0  0  0
   59.8771   28.6312   48.5826 H   0  0  0  0  0  0  0  0  0  0  0  0
   57.7058   27.4399   48.3202 H   0  0  0  0  0  0  0  0  0  0  0  0
   56.2202   25.1497   46.8565 H   0  0  0  0  0  0  0  0  0  0  0  0
   55.3417   25.3796   45.3067 H   0  0  0  0  0  0  0  0  0  0  0  0
   57.1276   25.1871   45.3067 H   0  0  0  0  0  0  0  0  0  0  0  0
  1  2  1  0
  2  3  1  0
  3  4  2  0
  3  5  1  0
  5  6  1  0
  6  7  1  0
  7  8  2  0
  8  9  1  0
  9 10  2  0
 10 11  1  0
 11 12  2  0
 12 13  1  0
 13 14  1  0
 12  7  1  0
  1 15  1  0
  1 16  1  0
  1 17  1  0
  5 18  1  0
  5 19  1  0
  6 20  1  0
  6 21  1  0
  8 22  1  0
  9 23  1  0
 10 24  1  0
 11 25  1  0
 14 26  1  0
 14 27  1  0
 14 28  1  0
M  END
>  <UniqueID>  (42) 
40

>  <SMILES>  (42) 
COC(=O)CCc1ccccc1OC

>  <Energy>  (42) 
19.25928406917109

>  <Genealogy>  (42) 
COC(=O)CCc1ccccc1OC (3D coordinates assigned)
COC(=O)CCc1ccccc1OC (optimized conformer: 19.25928406917109 kcal/mol)

>  <smiles>  (42) 
COC(=O)CCc1ccccc1OC

>  <score_type>  (42) 
oracle

>  <origin>  (42) 
adg

>  <m_score__min__energy>  (42) 
-5.3399999999999999

>  <m_primary>  (42) 
energy

$$$$
42:0
     RDKit          3D

 33 35  0  0  0  0  0  0  0  0999 V2000
   65.0820   32.1550   49.8550 C   0  0  0  0  0  0  0  0  0  0  0  0
   64.5310   33.0960   48.9380 O   0  0  0  0  0  0  0  0  0  0  0  0
   63.1710   33.1700   48.5970 C   0  0  0  0  0  0  0  0  0  0  0  0
   62.6060   32.3430   47.5970 C   0  0  0  0  0  0  0  0  0  0  0  0
   61.2500   32.4650   47.3040 C   0  0  0  0  0  0  0  0  0  0  0  0
   60.5990   31.7290   46.3670 N   0  0  0  0  0  0  0  0  0  0  0  0
   59.2830   32.0610   46.2990 C   0  0  0  0  0  0  0  0  0  0  0  0
   58.3330   31.4170   45.3630 C   0  0  0  0  0  0  0  0  0  0  0  0
   58.1500   31.9410   44.0700 C   0  0  0  0  0  0  0  0  0  0  0  0
   57.2550   31.3390   43.1810 C   0  0  0  0  0  0  0  0  0  0  0  0
   56.5300   30.2070   43.5670 C   0  0  0  0  0  0  0  0  0  0  0  0
   55.6430   29.6240   42.6640 O   0  0  0  0  0  0  0  0  0  0  0  0
   56.7050   29.6770   44.8540 C   0  0  0  0  0  0  0  0  0  0  0  0
   56.0100   28.5800   45.2440 F   0  0  0  0  0  0  0  0  0  0  0  0
   57.6000   30.2780   45.7450 C   0  0  0  0  0  0  0  0  0  0  0  0
   58.8950   33.2870   47.4090 S   0  0  0  0  0  0  0  0  0  0  0  0
   60.4680   33.3800   47.9820 C   0  0  0  0  0  0  0  0  0  0  0  0
   60.9850   34.2090   48.9710 C   0  0  0  0  0  0  0  0  0  0  0  0
   62.3590   34.1040   49.2850 C   0  0  0  0  0  0  0  0  0  0  0  0
   62.9570   34.9060   50.2700 O   0  0  0  0  0  0  0  0  0  0  0  0
   63.4300   34.4220   51.5230 C   0  0  0  0  0  0  0  0  0  0  0  0
   64.8865   32.4888   50.8847 H   0  0  0  0  0  0  0  0  0  0  0  0
   64.6174   31.1710   49.6941 H   0  0  0  0  0  0  0  0  0  0  0  0
   66.1675   32.0787   49.6941 H   0  0  0  0  0  0  0  0  0  0  0  0
   63.2294   31.6139   47.0586 H   0  0  0  0  0  0  0  0  0  0  0  0
   58.7154   32.8309   43.7565 H   0  0  0  0  0  0  0  0  0  0  0  0
   57.1202   31.7577   42.1728 H   0  0  0  0  0  0  0  0  0  0  0  0
   55.6430   28.6270   42.4830 H   0  0  0  0  0  0  0  0  0  0  0  0
   57.7321   29.8570   46.7526 H   0  0  0  0  0  0  0  0  0  0  0  0
   60.3404   34.9291   49.4963 H   0  0  0  0  0  0  0  0  0  0  0  0
   62.9140   34.9500   52.3385 H   0  0  0  0  0  0  0  0  0  0  0  0
   63.2283   33.3433   51.5992 H   0  0  0  0  0  0  0  0  0  0  0  0
   64.5130   34.5988   51.5992 H   0  0  0  0  0  0  0  0  0  0  0  0
  1  2  1  0
  2  3  1  0
  3  4  2  0
  4  5  1  0
  5  6  1  0
  6  7  2  0
  7  8  1  0
  8  9  2  0
  9 10  1  0
 10 11  2  0
 11 12  1  0
 11 13  1  0
 13 14  1  0
 13 15  2  0
  7 16  1  0
 16 17  1  0
 17 18  1  0
 18 19  2  0
 19 20  1  0
 20 21  1  0
 19  3  1  0
 17  5  2  0
 15  8  1  0
  1 22  1  0
  1 23  1  0
  1 24  1  0
  4 25  1  0
  9 26  1  0
 10 27  1  0
 12 28  1  0
 15 29  1  0
 18 30  1  0
 21 31  1  0
 21 32  1  0
 21 33  1  0
M  END
>  <UniqueID>  (43) 
41

>  <SMILES>  (43) 
COc1cc2nc(-c3ccc(O)c(F)c3)sc2cc1OC

>  <Energy>  (43) 
69.79343604207459

>  <Genealogy>  (43) 
COc1cc2nc(-c3ccc(O)c(F)c3)sc2cc1OC (3D coordinates assigned)
COc1cc2nc(-c3ccc(O)c(F)c3)sc2cc1OC (optimized conformer: 69.79343604207459 kcal/mol)

>  <smiles>  (43) 
COc1cc2nc(-c3ccc(O)c(F)c3)sc2cc1OC

>  <score_type>  (43) 
oracle

>  <origin>  (43) 
adg

>  <m_score__min__energy>  (43) 
-5.8899999999999997

>  <m_primary>  (43) 
energy

$$$$
43:0
     RDKit          3D

 49 52  0  0  1  0  0  0  0  0999 V2000
   53.7020   24.9210   45.6020 C   0  0  0  0  0  0  0  0  0  0  0  0
   54.9870   25.4770   45.6650 O   0  0  0  0  0  0  0  0  0  0  0  0
   56.1570   24.7650   45.4770 C   0  0  0  0  0  0  0  0  0  0  0  0
   56.2030   23.6490   44.6670 C   0  0  0  0  0  0  0  0  0  0  0  0
   57.3510   22.9130   44.4570 C   0  0  0  0  0  0  0  0  0  0  0  0
   58.4930   23.3570   45.1160 C   0  0  0  0  0  0  0  0  0  0  0  0
   59.9630   22.4450   44.8700 Cl  0  0  0  0  0  0  0  0  0  0  0  0
   58.5120   24.4550   45.9320 C   0  0  0  0  0  0  0  0  0  0  0  0
   57.3280   25.1470   46.1010 C   0  0  0  0  0  0  0  0  0  0  0  0
   57.3540   26.2920   46.9520 N   0  0  0  0  0  0  0  0  0  0  0  0
   57.4130   27.4560   46.4500 C   0  0  0  0  0  0  0  0  0  0  0  0
   58.3910   28.3990   46.8110 C   0  0  0  0  0  0  0  0  0  0  0  0
   58.3860   29.6450   46.2180 C   0  0  0  0  0  0  0  0  0  0  0  0
   57.5000   30.0250   45.3080 N   0  0  0  0  0  0  0  0  0  0  0  0
   56.5540   29.0850   44.9710 C   0  0  0  0  0  0  0  0  0  0  0  0
   55.6620   29.3400   44.1170 O   0  0  0  0  0  0  0  0  0  0  0  0
   56.5280   27.8680   45.5260 N   0  0  0  0  0  0  0  0  0  0  0  0
   57.3860   31.2720   44.6230 C   0  0  0  0  0  0  0  0  0  0  0  0
   58.4170   32.2630   45.0070 C   0  0  0  0  0  0  0  0  0  0  0  0
   59.3920   31.8230   46.0180 C   0  0  0  0  0  0  0  0  0  0  0  0
   60.3670   32.7650   46.3760 C   0  0  0  0  0  0  0  0  0  0  0  0
   61.3410   32.4900   47.3080 C   0  0  0  0  0  0  0  0  0  0  0  0
   62.3070   33.4180   47.6650 O   0  0  0  0  0  0  0  0  0  0  0  0
   63.6230   33.3300   47.1570 C   0  0  0  0  0  0  0  0  0  0  0  0
   61.3610   31.2520   47.9090 C   0  0  0  0  0  0  0  0  0  0  0  0
   62.3370   30.9700   48.8460 O   0  0  0  0  0  0  0  0  0  0  0  0
   62.2640   31.4500   50.1820 C   0  0  0  0  0  0  0  0  0  0  0  0
   60.3820   30.3230   47.5410 C   0  0  0  0  0  0  0  0  0  0  0  0
   59.4150   30.5900   46.6190 C   0  0  0  0  0  0  0  0  0  0  0  0
   53.3230   24.7570   46.6216 H   0  0  0  0  0  0  0  0  0  0  0  0
   53.0306   25.6091   45.0675 H   0  0  0  0  0  0  0  0  0  0  0  0
   53.7439   23.9605   45.0675 H   0  0  0  0  0  0  0  0  0  0  0  0
   55.2784   23.3302   44.1636 H   0  0  0  0  0  0  0  0  0  0  0  0
   57.3626   22.0263   43.8061 H   0  0  0  0  0  0  0  0  0  0  0  0
   59.4362   24.7753   46.4352 H   0  0  0  0  0  0  0  0  0  0  0  0
   59.1548   28.1455   47.5609 H   0  0  0  0  0  0  0  0  0  0  0  0
   55.7880   27.1760   45.2440 H   0  0  0  0  0  0  0  0  0  0  0  0
   57.4723   31.0831   43.5428 H   0  0  0  0  0  0  0  0  0  0  0  0
   56.4116   31.7009   44.8998 H   0  0  0  0  0  0  0  0  0  0  0  0
   58.9744   32.5373   44.0992 H   0  0  0  0  0  0  0  0  0  0  0  0
   57.8682   33.0972   45.4685 H   0  0  0  0  0  0  0  0  0  0  0  0
   60.3527   33.7550   45.8966 H   0  0  0  0  0  0  0  0  0  0  0  0
   64.3363   33.2823   47.9930 H   0  0  0  0  0  0  0  0  0  0  0  0
   63.7185   32.4235   46.5413 H   0  0  0  0  0  0  0  0  0  0  0  0
   63.8384   34.2158   46.5413 H   0  0  0  0  0  0  0  0  0  0  0  0
   62.3917   30.6102   50.8808 H   0  0  0  0  0  0  0  0  0  0  0  0
   63.0598   32.1907   50.3495 H   0  0  0  0  0  0  0  0  0  0  0  0
   61.2840   31.9206   50.3495 H   0  0  0  0  0  0  0  0  0  0  0  0
   60.3934   29.3317   48.0177 H   0  0  0  0  0  0  0  0  0  0  0  0
  1  2  1  0
  2  3  1  0
  3  4  2  0
  4  5  1  0
  5  6  2  0
  6  7  1  0
  6  8  1  0
  8  9  2  0
  9 10  1  0
 10 11  2  0
 11 12  1  0
 12 13  2  0
 13 14  1  0
 14 15  1  0
 15 16  2  0
 15 17  1  0
 14 18  1  0
 18 19  1  0
 19 20  1  0
 20 21  2  0
 21 22  1  0
 22 23  1  0
 23 24  1  0
 22 25  2  0
 25 26  1  0
 26 27  1  0
 25 28  1  0
 28 29  2  0
  9  3  1  0
 17 11  1  0
 29 20  1  0
 29 13  1  0
  1 30  1  0
  1 31  1  0
  1 32  1  0
  4 33  1  0
  5 34  1  0
  8 35  1  0
 12 36  1  0
 17 37  1  0
 18 38  1  0
 18 39  1  0
 19 40  1  0
 19 41  1  0
 21 42  1  0
 24 43  1  0
 24 44  1  0
 24 45  1  0
 27 46  1  0
 27 47  1  0
 27 48  1  0
 28 49  1  0
M  END
>  <smiles>  (44) 
COc1ccc(Cl)cc1N=c1cc2n(c(=O)[nH]1)CCc1cc(OC)c(OC)cc1-2

>  <score_type>  (44) 
oracle

>  <origin>  (44) 
adg

>  <m_score__min__energy>  (44) 
-8.4800000000000004

>  <m_primary>  (44) 
energy

$$$$
44:0
     RDKit          3D

 58 62  0  0  0  0  0  0  0  0999 V2000
   57.2070   31.9560   41.4430 C   0  0  0  0  0  0  0  0  0  0  0  0
   57.4120   31.6860   42.9000 C   0  0  0  0  0  0  0  0  0  0  0  0
   58.1630   32.5690   43.6850 C   0  0  0  0  0  0  0  0  0  0  0  0
   58.3570   32.3010   45.0510 C   0  0  0  0  0  0  0  0  0  0  0  0
   59.1540   33.2350   45.8840 C   0  0  0  0  0  0  0  0  0  0  0  0
   58.9670   34.5720   45.8950 N   0  0  0  0  0  0  0  0  0  0  0  0
   59.8500   35.0380   46.7290 O   0  0  0  0  0  0  0  0  0  0  0  0
   60.5580   34.0520   47.2250 C   0  0  0  0  0  0  0  0  0  0  0  0
   61.7000   34.2060   48.1970 C   0  0  0  0  0  0  0  0  0  0  0  0
   61.2100   34.0040   49.6410 C   0  0  0  0  0  0  0  0  0  0  0  0
   60.8270   32.5380   49.9440 C   0  0  0  0  0  0  0  0  0  0  0  0
   61.3820   31.5950   48.9480 N   0  0  0  0  0  0  0  0  0  0  0  0
   61.1530   30.1760   49.2960 C   0  0  0  0  0  0  0  0  0  0  0  0
   60.5030   29.3680   48.1920 C   0  0  0  0  0  0  0  0  0  0  0  0
   59.6160   28.3250   48.5020 C   0  0  0  0  0  0  0  0  0  0  0  0
   59.0180   27.5770   47.4840 C   0  0  0  0  0  0  0  0  0  0  0  0
   59.2870   27.8640   46.1340 C   0  0  0  0  0  0  0  0  0  0  0  0
   58.6530   27.0680   45.0520 C   0  0  0  0  0  0  0  0  0  0  0  0
   58.6790   27.5230   43.7190 C   0  0  0  0  0  0  0  0  0  0  0  0
   58.0840   26.7710   42.7020 C   0  0  0  0  0  0  0  0  0  0  0  0
   57.4580   25.5580   43.0020 C   0  0  0  0  0  0  0  0  0  0  0  0
   57.4260   25.0960   44.3190 C   0  0  0  0  0  0  0  0  0  0  0  0
   58.0180   25.8450   45.3400 C   0  0  0  0  0  0  0  0  0  0  0  0
   60.1630   28.9200   45.8270 C   0  0  0  0  0  0  0  0  0  0  0  0
   60.7620   29.6660   46.8450 C   0  0  0  0  0  0  0  0  0  0  0  0
   62.7840   31.9040   48.6160 C   0  0  0  0  0  0  0  0  0  0  0  0
   62.8750   33.2500   47.8720 C   0  0  0  0  0  0  0  0  0  0  0  0
   60.1560   32.8750   46.7130 N   0  0  0  0  0  0  0  0  0  0  0  0
   57.7830   31.1400   45.5980 C   0  0  0  0  0  0  0  0  0  0  0  0
   57.0430   30.2830   44.7800 C   0  0  0  0  0  0  0  0  0  0  0  0
   56.8750   30.5690   43.4630 N   0  0  0  0  0  0  0  0  0  0  0  0
   56.5459   32.8267   41.3209 H   0  0  0  0  0  0  0  0  0  0  0  0
   58.1775   32.1630   40.9684 H   0  0  0  0  0  0  0  0  0  0  0  0
   56.7468   31.0768   40.9684 H   0  0  0  0  0  0  0  0  0  0  0  0
   58.6007   33.4714   43.2333 H   0  0  0  0  0  0  0  0  0  0  0  0
   62.0832   35.2321   48.0954 H   0  0  0  0  0  0  0  0  0  0  0  0
   62.0121   34.3072   50.3299 H   0  0  0  0  0  0  0  0  0  0  0  0
   60.3058   34.6164   49.7725 H   0  0  0  0  0  0  0  0  0  0  0  0
   61.2132   32.2699   50.9385 H   0  0  0  0  0  0  0  0  0  0  0  0
   59.7303   32.4618   49.9048 H   0  0  0  0  0  0  0  0  0  0  0  0
   62.1239   29.7173   49.5346 H   0  0  0  0  0  0  0  0  0  0  0  0
   60.4586   30.1656   50.1490 H   0  0  0  0  0  0  0  0  0  0  0  0
   59.3900   28.0948   49.5536 H   0  0  0  0  0  0  0  0  0  0  0  0
   58.3313   26.7570   47.7410 H   0  0  0  0  0  0  0  0  0  0  0  0
   59.1709   28.4766   43.4768 H   0  0  0  0  0  0  0  0  0  0  0  0
   58.1085   27.1344   41.6641 H   0  0  0  0  0  0  0  0  0  0  0  0
   56.9905   24.9673   42.2004 H   0  0  0  0  0  0  0  0  0  0  0  0
   56.9339   24.1406   44.5537 H   0  0  0  0  0  0  0  0  0  0  0  0
   57.9875   25.4762   46.3759 H   0  0  0  0  0  0  0  0  0  0  0  0
   60.3787   29.1610   44.7756 H   0  0  0  0  0  0  0  0  0  0  0  0
   61.4413   30.4926   46.5892 H   0  0  0  0  0  0  0  0  0  0  0  0
   63.3720   31.9621   49.5439 H   0  0  0  0  0  0  0  0  0  0  0  0
   63.1806   31.1096   47.9667 H   0  0  0  0  0  0  0  0  0  0  0  0
   63.8163   33.7435   48.1555 H   0  0  0  0  0  0  0  0  0  0  0  0
   62.8317   33.0323   46.7946 H   0  0  0  0  0  0  0  0  0  0  0  0
   60.5480   31.9300   46.9140 H   0  0  0  0  0  0  0  0  0  0  0  0
   57.9160   30.9076   46.6649 H   0  0  0  0  0  0  0  0  0  0  0  0
   56.5944   29.3726   45.2043 H   0  0  0  0  0  0  0  0  0  0  0  0
  1  2  1  0
  2  3  2  0
  3  4  1  0
  4  5  1  0
  5  6  2  0
  6  7  1  0
  7  8  1  0
  8  9  1  0
  9 10  1  0
 10 11  1  0
 11 12  1  0
 12 13  1  0
 13 14  1  0
 14 15  2  0
 15 16  1  0
 16 17  2  0
 17 18  1  0
 18 19  2  0
 19 20  1  0
 20 21  2  0
 21 22  1  0
 22 23  2  0
 17 24  1  0
 24 25  2  0
 12 26  1  0
 26 27  1  0
  8 28  2  0
  4 29  2  0
 29 30  1  0
 30 31  2  0
 31  2  1  0
 28  5  1  0
 27  9  1  0
 25 14  1  0
 23 18  1  0
  1 32  1  0
  1 33  1  0
  1 34  1  0
  3 35  1  0
  9 36  1  0
 10 37  1  0
 10 38  1  0
 11 39  1  0
 11 40  1  0
 13 41  1  0
 13 42  1  0
 15 43  1  0
 16 44  1  0
 19 45  1  0
 20 46  1  0
 21 47  1  0
 22 48  1  0
 23 49  1  0
 24 50  1  0
 25 51  1  0
 26 52  1  0
 26 53  1  0
 27 54  1  0
 27 55  1  0
 28 56  1  0
 29 57  1  0
 30 58  1  0
M  CHG  1  28   1
M  END
>  <UniqueID>  (45) 
42

>  <SMILES>  (45) 
Cc1cc(-c2noc(C3CCN(Cc4ccc(-c5ccccc5)cc4)CC3)[nH+]2)ccn1

>  <Energy>  (45) 
112.57999542655683

>  <Genealogy>  (45) 
Cc1cc(-c2noc(C3CCN(Cc4ccc(-c5ccccc5)cc4)CC3)[nH+]2)ccn1 (protonated)
Cc1cc(-c2noc(C3CCN(Cc4ccc(-c5ccccc5)cc4)CC3)[nH+]2)ccn1 (3D coordinates assigned)
Cc1cc(-c2noc(C3CCN(Cc4ccc(-c5ccccc5)cc4)CC3)[nH+]2)ccn1 (nonaromatic ring conformer: 112.57999542655683 kcal/mol)

>  <smiles>  (45) 
Cc1cc(-c2noc(C3CCN(Cc4ccc(-c5ccccc5)cc4)CC3)n2)ccn1

>  <score_type>  (45) 
oracle

>  <origin>  (45) 
adg

>  <m_score__min__energy>  (45) 
-7.9299999999999997

>  <m_primary>  (45) 
energy

$$$$
45:0
     RDKit          3D

 52 54  0  0  0  0  0  0  0  0999 V2000
   56.3210   29.7140   42.6220 C   0  0  0  0  0  0  0  0  0  0  0  0
   55.9480   29.7800   44.0980 C   0  0  0  0  0  0  0  0  0  0  0  0
   57.0100   30.4950   44.8530 N   0  0  0  0  0  0  0  0  0  0  0  0
   58.1000   29.5860   45.2710 C   0  0  0  0  0  0  0  0  0  0  0  0
   58.4720   29.8010   46.7380 C   0  0  0  0  0  0  0  0  0  0  0  0
   57.5520   31.6390   44.0820 C   0  0  0  0  0  0  0  0  0  0  0  0
   58.4330   32.5340   44.9670 C   0  0  0  0  0  0  0  0  0  0  0  0
   57.7170   33.8310   45.3550 C   0  0  0  0  0  0  0  0  0  0  0  0
   57.4500   33.8400   46.7920 N   0  0  0  0  0  0  0  0  0  0  0  0
   58.3370   33.2510   47.7510 C   0  0  0  0  0  0  0  0  0  0  0  0
   57.8270   32.5790   48.8140 N   0  0  0  0  0  0  0  0  0  0  0  0
   58.6320   32.0050   49.7500 C   0  0  0  0  0  0  0  0  0  0  0  0
   58.0160   31.2780   50.8890 C   0  0  0  0  0  0  0  0  0  0  0  0
   58.4990   30.0220   51.3080 C   0  0  0  0  0  0  0  0  0  0  0  0
   57.9090   29.3600   52.3890 C   0  0  0  0  0  0  0  0  0  0  0  0
   56.8370   29.9420   53.0670 C   0  0  0  0  0  0  0  0  0  0  0  0
   56.3560   31.1920   52.6720 C   0  0  0  0  0  0  0  0  0  0  0  0
   56.9440   31.8600   51.5930 C   0  0  0  0  0  0  0  0  0  0  0  0
   60.0260   32.1030   49.6000 C   0  0  0  0  0  0  0  0  0  0  0  0
   60.5430   32.8060   48.5030 C   0  0  0  0  0  0  0  0  0  0  0  0
   61.9960   32.9690   48.2910 C   0  0  0  0  0  0  0  0  0  0  0  0
   62.6520   33.2640   47.0960 C   0  0  0  0  0  0  0  0  0  0  0  0
   64.0420   33.3590   47.2330 C   0  0  0  0  0  0  0  0  0  0  0  0
   64.4930   33.1440   48.5280 C   0  0  0  0  0  0  0  0  0  0  0  0
   63.1600   32.8340   49.5000 S   0  0  0  0  0  0  0  0  0  0  0  0
   59.6840   33.3620   47.6080 N   0  0  0  0  0  0  0  0  0  0  0  0
   57.3999   29.5231   42.5246 H   0  0  0  0  0  0  0  0  0  0  0  0
   55.7597   28.9012   42.1379 H   0  0  0  0  0  0  0  0  0  0  0  0
   56.0727   30.6700   42.1379 H   0  0  0  0  0  0  0  0  0  0  0  0
   54.9949   30.3175   44.2103 H   0  0  0  0  0  0  0  0  0  0  0  0
   55.8457   28.7586   44.4933 H   0  0  0  0  0  0  0  0  0  0  0  0
   57.7709   28.5454   45.1338 H   0  0  0  0  0  0  0  0  0  0  0  0
   58.9853   29.7994   44.6539 H   0  0  0  0  0  0  0  0  0  0  0  0
   57.6995   29.3545   47.3814 H   0  0  0  0  0  0  0  0  0  0  0  0
   59.4415   29.3240   46.9441 H   0  0  0  0  0  0  0  0  0  0  0  0
   58.5427   30.8792   46.9441 H   0  0  0  0  0  0  0  0  0  0  0  0
   58.1550   31.2554   43.2458 H   0  0  0  0  0  0  0  0  0  0  0  0
   56.7094   32.2387   43.7074 H   0  0  0  0  0  0  0  0  0  0  0  0
   58.6934   31.9833   45.8829 H   0  0  0  0  0  0  0  0  0  0  0  0
   59.3346   32.7989   44.3953 H   0  0  0  0  0  0  0  0  0  0  0  0
   58.3532   34.6904   45.0967 H   0  0  0  0  0  0  0  0  0  0  0  0
   56.7644   33.8967   44.8088 H   0  0  0  0  0  0  0  0  0  0  0  0
   56.5020   34.1410   47.1120 H   0  0  0  0  0  0  0  0  0  0  0  0
   59.3463   29.5592   50.7808 H   0  0  0  0  0  0  0  0  0  0  0  0
   58.2907   28.3782   52.7058 H   0  0  0  0  0  0  0  0  0  0  0  0
   56.3707   29.4158   53.9130 H   0  0  0  0  0  0  0  0  0  0  0  0
   55.5138   31.6518   53.2100 H   0  0  0  0  0  0  0  0  0  0  0  0
   56.5660   32.8481   51.2917 H   0  0  0  0  0  0  0  0  0  0  0  0
   60.7008   31.6353   50.3321 H   0  0  0  0  0  0  0  0  0  0  0  0
   62.1284   33.4079   46.1394 H   0  0  0  0  0  0  0  0  0  0  0  0
   64.7146   33.5833   46.3920 H   0  0  0  0  0  0  0  0  0  0  0  0
   65.5415   33.1719   48.8596 H   0  0  0  0  0  0  0  0  0  0  0  0
  1  2  1  0
  2  3  1  0
  3  4  1  0
  4  5  1  0
  3  6  1  0
  6  7  1  0
  7  8  1  0
  8  9  1  0
  9 10  1  0
 10 11  2  0
 11 12  1  0
 12 13  1  0
 13 14  2  0
 14 15  1  0
 15 16  2  0
 16 17  1  0
 17 18  2  0
 12 19  2  0
 19 20  1  0
 20 21  1  0
 21 22  2  0
 22 23  1  0
 23 24  2  0
 24 25  1  0
 20 26  2  0
 26 10  1  0
 18 13  1  0
 25 21  1  0
  1 27  1  0
  1 28  1  0
  1 29  1  0
  2 30  1  0
  2 31  1  0
  4 32  1  0
  4 33  1  0
  5 34  1  0
  5 35  1  0
  5 36  1  0
  6 37  1  0
  6 38  1  0
  7 39  1  0
  7 40  1  0
  8 41  1  0
  8 42  1  0
  9 43  1  0
 14 44  1  0
 15 45  1  0
 16 46  1  0
 17 47  1  0
 18 48  1  0
 19 49  1  0
 22 50  1  0
 23 51  1  0
 24 52  1  0
M  END
>  <UniqueID>  (46) 
43

>  <SMILES>  (46) 
CCN(CC)CCCNc1nc(-c2ccccc2)cc(-c2cccs2)n1

>  <Energy>  (46) 
77.9276209682474

>  <Genealogy>  (46) 
CCN(CC)CCCNc1nc(-c2ccccc2)cc(-c2cccs2)n1 (3D coordinates assigned)
CCN(CC)CCCNc1nc(-c2ccccc2)cc(-c2cccs2)n1 (optimized conformer: 77.9276209682474 kcal/mol)

>  <smiles>  (46) 
CCN(CC)CCCNc1nc(-c2ccccc2)cc(-c2cccs2)n1

>  <score_type>  (46) 
oracle

>  <origin>  (46) 
adg

>  <m_score__min__energy>  (46) 
-7.0899999999999999

>  <m_primary>  (46) 
energy

$$$$
46:0
     RDKit          3D

 39 40  0  0  0  0  0  0  0  0999 V2000
   60.7850   26.7850   48.8950 C   0  0  0  0  0  0  0  0  0  0  0  0
   60.4990   26.8580   47.5020 O   0  0  0  0  0  0  0  0  0  0  0  0
   59.4460   27.6010   46.9440 C   0  0  0  0  0  0  0  0  0  0  0  0
   58.3800   26.9890   46.2600 C   0  0  0  0  0  0  0  0  0  0  0  0
   57.3540   27.7620   45.7150 C   0  0  0  0  0  0  0  0  0  0  0  0
   57.3810   29.1540   45.8250 C   0  0  0  0  0  0  0  0  0  0  0  0
   56.3080   29.9060   45.2390 N   0  0  0  0  0  0  0  0  0  0  0  0
   55.8520   29.8380   43.8810 C   0  0  0  0  0  0  0  0  0  0  0  0
   54.7270   29.3460   43.6000 O   0  0  0  0  0  0  0  0  0  0  0  0
   56.6990   30.4170   42.7860 C   0  0  0  0  0  0  0  0  0  0  0  0
   57.9790   30.9510   43.2880 N   0  0  0  0  0  0  0  0  0  0  0  0
   58.0990   32.4170   43.1530 C   0  0  0  0  0  0  0  0  0  0  0  0
   58.2240   33.1040   44.4840 C   0  0  0  0  0  0  0  0  0  0  0  0
   57.4010   32.9060   45.5870 C   0  0  0  0  0  0  0  0  0  0  0  0
   57.7550   33.6950   46.6870 C   0  0  0  0  0  0  0  0  0  0  0  0
   58.8570   34.5090   46.4600 C   0  0  0  0  0  0  0  0  0  0  0  0
   59.3950   34.2420   44.8890 S   0  0  0  0  0  0  0  0  0  0  0  0
   58.4270   29.7700   46.5310 C   0  0  0  0  0  0  0  0  0  0  0  0
   59.4670   28.9970   47.0860 C   0  0  0  0  0  0  0  0  0  0  0  0
   60.5340   29.5800   47.7880 O   0  0  0  0  0  0  0  0  0  0  0  0
   61.1960   30.7810   47.4030 C   0  0  0  0  0  0  0  0  0  0  0  0
   59.8756   27.0171   49.4687 H   0  0  0  0  0  0  0  0  0  0  0  0
   61.1280   25.7705   49.1462 H   0  0  0  0  0  0  0  0  0  0  0  0
   61.5723   27.5110   49.1462 H   0  0  0  0  0  0  0  0  0  0  0  0
   58.3550   25.8944   46.1541 H   0  0  0  0  0  0  0  0  0  0  0  0
   56.5180   27.2714   45.1950 H   0  0  0  0  0  0  0  0  0  0  0  0
   56.9101   29.6288   42.0484 H   0  0  0  0  0  0  0  0  0  0  0  0
   56.1410   31.2513   42.3359 H   0  0  0  0  0  0  0  0  0  0  0  0
   58.7400   30.5180   42.7140 H   0  0  0  0  0  0  0  0  0  0  0  0
   58.1390   30.6490   44.2770 H   0  0  0  0  0  0  0  0  0  0  0  0
   58.9916   32.6450   42.5520 H   0  0  0  0  0  0  0  0  0  0  0  0
   57.1833   32.7864   42.6683 H   0  0  0  0  0  0  0  0  0  0  0  0
   56.5571   32.2005   45.5942 H   0  0  0  0  0  0  0  0  0  0  0  0
   57.2109   33.6726   47.6428 H   0  0  0  0  0  0  0  0  0  0  0  0
   59.3016   35.2083   47.1834 H   0  0  0  0  0  0  0  0  0  0  0  0
   58.4349   30.8633   46.6518 H   0  0  0  0  0  0  0  0  0  0  0  0
   61.5017   31.3357   48.3024 H   0  0  0  0  0  0  0  0  0  0  0  0
   62.0853   30.5339   46.8046 H   0  0  0  0  0  0  0  0  0  0  0  0
   60.5122   31.4010   46.8046 H   0  0  0  0  0  0  0  0  0  0  0  0
  1  2  1  0
  2  3  1  0
  3  4  2  0
  4  5  1  0
  5  6  2  0
  6  7  1  0
  7  8  1  0
  8  9  2  0
  8 10  1  0
 10 11  1  0
 11 12  1  0
 12 13  1  0
 13 14  2  0
 14 15  1  0
 15 16  2  0
 16 17  1  0
  6 18  1  0
 18 19  2  0
 19 20  1  0
 20 21  1  0
 19  3  1  0
 17 13  1  0
  1 22  1  0
  1 23  1  0
  1 24  1  0
  4 25  1  0
  5 26  1  0
 10 27  1  0
 10 28  1  0
 11 29  1  0
 11 30  1  0
 12 31  1  0
 12 32  1  0
 14 33  1  0
 15 34  1  0
 16 35  1  0
 18 36  1  0
 21 37  1  0
 21 38  1  0
 21 39  1  0
M  CHG  2   7  -1  11   1
M  END
>  <UniqueID>  (47) 
44

>  <SMILES>  (47) 
COc1ccc([N-]C(=O)C[NH2+]Cc2cccs2)cc1OC

>  <Energy>  (47) 
64.88496470865107

>  <Genealogy>  (47) 
COc1ccc([N-]C(=O)C[NH2+]Cc2cccs2)cc1OC (protonated)
COc1ccc([N-]C(=O)C[NH2+]Cc2cccs2)cc1OC (3D coordinates assigned)
COc1ccc([N-]C(=O)C[NH2+]Cc2cccs2)cc1OC (optimized conformer: 64.88496470865107 kcal/mol)

>  <smiles>  (47) 
COc1ccc(NC(=O)CNCc2cccs2)cc1OC

>  <score_type>  (47) 
oracle

>  <origin>  (47) 
adg

>  <m_score__min__energy>  (47) 
-6.6699999999999999

>  <m_primary>  (47) 
energy

$$$$
