0:0
     RDKit          3D

 44 46  0  0  0  0  0  0  0  0999 V2000
   55.3550   29.6320   44.8530 O   0  0  0  0  0  0  0  0  0  0  0  0
   56.2710   28.8460   45.2140 C   0  0  0  0  0  0  0  0  0  0  0  0
   57.7030   29.3040   45.1360 C   0  0  0  0  0  0  0  0  0  0  0  0
   57.7750   30.6630   44.6040 N   0  0  0  0  0  0  0  0  0  0  0  0
   57.5960   31.0200   43.1960 C   0  0  0  0  0  0  0  0  0  0  0  0
   57.7700   32.5580   43.1210 C   0  0  0  0  0  0  0  0  0  0  0  0
   58.0550   32.9430   44.5320 C   0  0  0  0  0  0  0  0  0  0  0  0
   58.3030   34.2170   45.0450 C   0  0  0  0  0  0  0  0  0  0  0  0
   58.5530   34.3490   46.4210 C   0  0  0  0  0  0  0  0  0  0  0  0
   58.5490   33.2130   47.2540 C   0  0  0  0  0  0  0  0  0  0  0  0
   58.2970   31.9410   46.7160 C   0  0  0  0  0  0  0  0  0  0  0  0
   58.0500   31.8410   45.3420 C   0  0  0  0  0  0  0  0  0  0  0  0
   55.9170   27.5230   45.6320 N   0  0  0  0  0  0  0  0  0  0  0  0
   56.8520   26.5390   46.1640 C   0  0  0  0  0  0  0  0  0  0  0  0
   56.2410   25.1380   46.1020 C   0  0  0  0  0  0  0  0  0  0  0  0
   56.1630   24.6100   44.6650 C   0  0  0  0  0  0  0  0  0  0  0  0
   57.1460   23.5470   44.4620 N   0  0  0  0  0  0  0  0  0  0  0  0
   58.4060   23.4490   45.1750 C   0  0  0  0  0  0  0  0  0  0  0  0
   59.0970   22.1770   44.6430 C   0  0  0  0  0  0  0  0  0  0  0  0
   58.0870   21.4510   43.7370 C   0  0  0  0  0  0  0  0  0  0  0  0
   56.9550   22.3940   43.6660 C   0  0  0  0  0  0  0  0  0  0  0  0
   55.9130   22.1880   42.9880 O   0  0  0  0  0  0  0  0  0  0  0  0
   58.1449   29.2852   46.1432 H   0  0  0  0  0  0  0  0  0  0  0  0
   58.2575   28.6292   44.4672 H   0  0  0  0  0  0  0  0  0  0  0  0
   58.3532   30.5188   42.5752 H   0  0  0  0  0  0  0  0  0  0  0  0
   56.6097   30.7070   42.8228 H   0  0  0  0  0  0  0  0  0  0  0  0
   58.6089   32.8275   42.4624 H   0  0  0  0  0  0  0  0  0  0  0  0
   56.8893   33.0699   42.7059 H   0  0  0  0  0  0  0  0  0  0  0  0
   58.3027   35.0981   44.3865 H   0  0  0  0  0  0  0  0  0  0  0  0
   58.7525   35.3424   46.8493 H   0  0  0  0  0  0  0  0  0  0  0  0
   58.7442   33.3231   48.3309 H   0  0  0  0  0  0  0  0  0  0  0  0
   58.2938   31.0471   47.3570 H   0  0  0  0  0  0  0  0  0  0  0  0
   57.7767   26.5582   45.5686 H   0  0  0  0  0  0  0  0  0  0  0  0
   57.0736   26.7865   47.2126 H   0  0  0  0  0  0  0  0  0  0  0  0
   56.8611   24.4531   46.6991 H   0  0  0  0  0  0  0  0  0  0  0  0
   55.2169   25.1954   46.4995 H   0  0  0  0  0  0  0  0  0  0  0  0
   55.1545   24.2123   44.4786 H   0  0  0  0  0  0  0  0  0  0  0  0
   56.3773   25.4339   43.9685 H   0  0  0  0  0  0  0  0  0  0  0  0
   59.0281   24.3340   44.9754 H   0  0  0  0  0  0  0  0  0  0  0  0
   58.2508   23.3985   46.2628 H   0  0  0  0  0  0  0  0  0  0  0  0
   59.9928   22.4490   44.0654 H   0  0  0  0  0  0  0  0  0  0  0  0
   59.4105   21.5281   45.4741 H   0  0  0  0  0  0  0  0  0  0  0  0
   58.5122   21.2701   42.7388 H   0  0  0  0  0  0  0  0  0  0  0  0
   57.7989   20.4611   44.1206 H   0  0  0  0  0  0  0  0  0  0  0  0
  1  2  2  0
  2  3  1  0
  3  4  1  0
  4  5  1  0
  5  6  1  0
  6  7  1  0
  7  8  2  0
  8  9  1  0
  9 10  2  0
 10 11  1  0
 11 12  2  0
  2 13  1  0
 13 14  1  0
 14 15  1  0
 15 16  1  0
 16 17  1  0
 17 18  1  0
 18 19  1  0
 19 20  1  0
 20 21  1  0
 21 22  2  0
 12  4  1  0
 21 17  1  0
 12  7  1  0
  3 23  1  0
  3 24  1  0
  5 25  1  0
  5 26  1  0
  6 27  1  0
  6 28  1  0
  8 29  1  0
  9 30  1  0
 10 31  1  0
 11 32  1  0
 14 33  1  0
 14 34  1  0
 15 35  1  0
 15 36  1  0
 16 37  1  0
 16 38  1  0
 18 39  1  0
 18 40  1  0
 19 41  1  0
 19 42  1  0
 20 43  1  0
 20 44  1  0
M  CHG  1  13  -1
M  END
>  <UniqueID>  (1) 
1

>  <SMILES>  (1) 
O=C(CN1CCc2ccccc21)[N-]CCCN1CCCC1=O

>  <Energy>  (1) 
54.73581227504535

>  <Genealogy>  (1) 
O=C(CN1CCc2ccccc21)[N-]CCCN1CCCC1=O (protonated)
O=C(CN1CCc2ccccc21)[N-]CCCN1CCCC1=O (3D coordinates assigned)
O=C(CN1CCc2ccccc21)[N-]CCCN1CCCC1=O (nonaromatic ring conformer: 54.73581227504535 kcal/mol)

>  <smiles>  (1) 
O=C(CN1CCc2ccccc21)NCCCN1CCCC1=O

>  <score_type>  (1) 
oracle

>  <origin>  (1) 
adg

>  <m_score__min__energy>  (1) 
-10.050000000000001

>  <m_primary>  (1) 
energy

$$$$
1:0
     RDKit          3D

 30 32  0  0  0  0  0  0  0  0999 V2000
   60.3190   26.7800   48.2830 C   0  0  0  0  0  0  0  0  0  0  0  0
   59.2040   27.2920   47.4680 N   0  0  0  0  0  0  0  0  0  0  0  0
   58.1640   26.4430   47.2000 C   0  0  0  0  0  0  0  0  0  0  0  0
   57.0620   26.8470   46.4330 C   0  0  0  0  0  0  0  0  0  0  0  0
   55.9610   25.8780   46.1750 C   0  0  0  0  0  0  0  0  0  0  0  0
   56.1790   24.6380   46.1500 O   0  0  0  0  0  0  0  0  0  0  0  0
   54.6640   26.3310   45.9590 O   0  0  0  0  0  0  0  0  0  0  0  0
   57.0360   28.1610   45.9330 C   0  0  0  0  0  0  0  0  0  0  0  0
   56.0590   28.5570   45.2380 O   0  0  0  0  0  0  0  0  0  0  0  0
   58.1020   29.0380   46.2050 C   0  0  0  0  0  0  0  0  0  0  0  0
   58.0940   30.3550   45.7120 C   0  0  0  0  0  0  0  0  0  0  0  0
   59.1500   31.2220   45.9820 C   0  0  0  0  0  0  0  0  0  0  0  0
   60.2420   30.7990   46.7510 C   0  0  0  0  0  0  0  0  0  0  0  0
   61.3500   31.7470   47.0200 C   0  0  0  0  0  0  0  0  0  0  0  0
   61.2970   33.1330   46.9860 C   0  0  0  0  0  0  0  0  0  0  0  0
   62.5660   33.5670   47.3040 C   0  0  0  0  0  0  0  0  0  0  0  0
   63.3170   32.4300   47.5130 C   0  0  0  0  0  0  0  0  0  0  0  0
   62.5690   31.3670   47.3360 O   0  0  0  0  0  0  0  0  0  0  0  0
   60.2590   29.4840   47.2480 C   0  0  0  0  0  0  0  0  0  0  0  0
   59.1970   28.5840   46.9860 C   0  0  0  0  0  0  0  0  0  0  0  0
   60.0751   26.8920   49.3498 H   0  0  0  0  0  0  0  0  0  0  0  0
   60.4825   25.7166   48.0539 H   0  0  0  0  0  0  0  0  0  0  0  0
   61.2321   27.3490   48.0539 H   0  0  0  0  0  0  0  0  0  0  0  0
   58.1937   25.4174   47.5966 H   0  0  0  0  0  0  0  0  0  0  0  0
   57.2445   30.7042   45.1066 H   0  0  0  0  0  0  0  0  0  0  0  0
   59.1264   32.2486   45.5877 H   0  0  0  0  0  0  0  0  0  0  0  0
   60.4218   33.7574   46.7531 H   0  0  0  0  0  0  0  0  0  0  0  0
   62.9098   34.6094   47.3764 H   0  0  0  0  0  0  0  0  0  0  0  0
   64.3823   32.4162   47.7868 H   0  0  0  0  0  0  0  0  0  0  0  0
   61.1141   29.1473   47.8524 H   0  0  0  0  0  0  0  0  0  0  0  0
  1  2  1  0
  2  3  1  0
  3  4  2  0
  4  5  1  0
  5  6  2  0
  5  7  1  0
  4  8  1  0
  8  9  2  0
  8 10  1  0
 10 11  2  0
 11 12  1  0
 12 13  2  0
 13 14  1  0
 14 15  2  0
 15 16  1  0
 16 17  2  0
 17 18  1  0
 13 19  1  0
 19 20  2  0
 20  2  1  0
 20 10  1  0
 18 14  1  0
  1 21  1  0
  1 22  1  0
  1 23  1  0
  3 24  1  0
 11 25  1  0
 12 26  1  0
 15 27  1  0
 16 28  1  0
 17 29  1  0
 19 30  1  0
M  CHG  1   7  -1
M  END
>  <UniqueID>  (2) 
2

>  <SMILES>  (2) 
Cn1cc(C(=O)[O-])c(=O)c2ccc(-c3ccco3)cc21

>  <Energy>  (2) 
71.44474376233953

>  <Genealogy>  (2) 
Cn1cc(C(=O)[O-])c(=O)c2ccc(-c3ccco3)cc21 (protonated)
Cn1cc(C(=O)[O-])c(=O)c2ccc(-c3ccco3)cc21 (3D coordinates assigned)
Cn1cc(C(=O)[O-])c(=O)c2ccc(-c3ccco3)cc21 (optimized conformer: 71.44474376233953 kcal/mol)

>  <smiles>  (2) 
Cn1cc(C(=O)O)c(=O)c2ccc(-c3ccco3)cc21

>  <score_type>  (2) 
oracle

>  <origin>  (2) 
adg

>  <m_score__min__energy>  (2) 
-9.1899999999999995

>  <m_primary>  (2) 
energy

$$$$
2:0
     RDKit          3D

 41 44  0  0  0  0  0  0  0  0999 V2000
   57.2290   32.3620   41.0680 C   0  0  0  0  0  0  0  0  0  0  0  0
   57.0100   31.4990   41.8810 C   0  0  0  0  0  0  0  0  0  0  0  0
   56.7410   30.4490   42.8680 C   0  0  0  0  0  0  0  0  0  0  0  0
   57.6740   30.5660   43.9890 N   0  0  0  0  0  0  0  0  0  0  0  0
   58.0830   31.7230   44.5610 C   0  0  0  0  0  0  0  0  0  0  0  0
   58.9190   31.4560   45.6390 C   0  0  0  0  0  0  0  0  0  0  0  0
   59.5310   32.4620   46.5240 C   0  0  0  0  0  0  0  0  0  0  0  0
   60.6850   32.1990   47.1990 N   0  0  0  0  0  0  0  0  0  0  0  0
   61.1020   33.2370   47.9670 C   0  0  0  0  0  0  0  0  0  0  0  0
   62.3320   33.2340   48.7950 C   0  0  0  0  0  0  0  0  0  0  0  0
   62.4760   34.1190   49.8810 C   0  0  0  0  0  0  0  0  0  0  0  0
   63.6420   34.1100   50.6540 C   0  0  0  0  0  0  0  0  0  0  0  0
   64.6760   33.2210   50.3540 C   0  0  0  0  0  0  0  0  0  0  0  0
   65.8050   33.2140   51.1050 F   0  0  0  0  0  0  0  0  0  0  0  0
   64.5480   32.3420   49.2760 C   0  0  0  0  0  0  0  0  0  0  0  0
   63.3860   32.3480   48.4990 C   0  0  0  0  0  0  0  0  0  0  0  0
   60.0220   34.5270   47.8400 S   0  0  0  0  0  0  0  0  0  0  0  0
   58.9900   33.7260   46.7790 C   0  0  0  0  0  0  0  0  0  0  0  0
   57.7070   34.2990   46.2650 C   0  0  0  0  0  0  0  0  0  0  0  0
   58.9800   30.0770   45.7400 C   0  0  0  0  0  0  0  0  0  0  0  0
   59.5810   29.2480   46.6890 C   0  0  0  0  0  0  0  0  0  0  0  0
   59.4190   27.8580   46.5480 C   0  0  0  0  0  0  0  0  0  0  0  0
   58.6490   27.3330   45.4890 C   0  0  0  0  0  0  0  0  0  0  0  0
   58.0290   28.1910   44.5640 C   0  0  0  0  0  0  0  0  0  0  0  0
   58.2140   29.5680   44.7190 C   0  0  0  0  0  0  0  0  0  0  0  0
   57.4288   33.1493   40.3263 H   0  0  0  0  0  0  0  0  0  0  0  0
   55.7107   30.5530   43.2390 H   0  0  0  0  0  0  0  0  0  0  0  0
   56.8686   29.4651   42.3929 H   0  0  0  0  0  0  0  0  0  0  0  0
   57.7953   32.7290   44.2217 H   0  0  0  0  0  0  0  0  0  0  0  0
   61.2050   31.2990   47.0950 H   0  0  0  0  0  0  0  0  0  0  0  0
   61.6658   34.8225   50.1232 H   0  0  0  0  0  0  0  0  0  0  0  0
   63.7445   34.8051   51.5004 H   0  0  0  0  0  0  0  0  0  0  0  0
   65.3636   31.6433   49.0379 H   0  0  0  0  0  0  0  0  0  0  0  0
   63.2941   31.6552   47.6496 H   0  0  0  0  0  0  0  0  0  0  0  0
   57.0673   34.5847   47.1130 H   0  0  0  0  0  0  0  0  0  0  0  0
   57.9215   35.1869   45.6520 H   0  0  0  0  0  0  0  0  0  0  0  0
   57.1890   33.5467   45.6520 H   0  0  0  0  0  0  0  0  0  0  0  0
   60.1635   29.6691   47.5217 H   0  0  0  0  0  0  0  0  0  0  0  0
   59.8956   27.1762   47.2678 H   0  0  0  0  0  0  0  0  0  0  0  0
   58.5328   26.2440   45.3862 H   0  0  0  0  0  0  0  0  0  0  0  0
   57.4165   27.7908   43.7426 H   0  0  0  0  0  0  0  0  0  0  0  0
  1  2  3  0
  2  3  1  0
  3  4  1  0
  4  5  1  0
  5  6  2  0
  6  7  1  0
  7  8  1  0
  8  9  2  0
  9 10  1  0
 10 11  2  0
 11 12  1  0
 12 13  2  0
 13 14  1  0
 13 15  1  0
 15 16  2  0
  9 17  1  0
 17 18  1  0
 18 19  1  0
  6 20  1  0
 20 21  2  0
 21 22  1  0
 22 23  2  0
 23 24  1  0
 24 25  2  0
 25  4  1  0
 18  7  2  0
 25 20  1  0
 16 10  1  0
  1 26  1  0
  3 27  1  0
  3 28  1  0
  5 29  1  0
  8 30  1  0
 11 31  1  0
 12 32  1  0
 15 33  1  0
 16 34  1  0
 19 35  1  0
 19 36  1  0
 19 37  1  0
 21 38  1  0
 22 39  1  0
 23 40  1  0
 24 41  1  0
M  CHG  1   8   1
M  END
>  <UniqueID>  (3) 
3

>  <SMILES>  (3) 
C#CCn1cc(-c2[nH+]c(-c3ccc(F)cc3)sc2C)c2ccccc21

>  <Energy>  (3) 
112.03229885857425

>  <Genealogy>  (3) 
C#CCn1cc(-c2[nH+]c(-c3ccc(F)cc3)sc2C)c2ccccc21 (protonated)
C#CCn1cc(-c2[nH+]c(-c3ccc(F)cc3)sc2C)c2ccccc21 (3D coordinates assigned)
C#CCn1cc(-c2[nH+]c(-c3ccc(F)cc3)sc2C)c2ccccc21 (optimized conformer: 112.03229885857425 kcal/mol)

>  <smiles>  (3) 
C#CCn1cc(-c2nc(-c3ccc(F)cc3)sc2C)c2ccccc21

>  <score_type>  (3) 
oracle

>  <origin>  (3) 
adg

>  <m_score__min__energy>  (3) 
-6.6100000000000003

>  <m_primary>  (3) 
energy

$$$$
3:0
     RDKit          3D

 42 43  0  0  0  0  0  0  0  0999 V2000
   51.7460   23.7800   44.6050 C   0  0  0  0  0  0  0  0  0  0  0  0
   52.9270   22.9900   44.7060 O   0  0  0  0  0  0  0  0  0  0  0  0
   54.2250   23.5160   44.7910 C   0  0  0  0  0  0  0  0  0  0  0  0
   54.5990   24.1760   45.9670 C   0  0  0  0  0  0  0  0  0  0  0  0
   55.8790   24.7200   46.1010 C   0  0  0  0  0  0  0  0  0  0  0  0
   56.8090   24.6090   45.0540 C   0  0  0  0  0  0  0  0  0  0  0  0
   58.2090   25.1420   45.2210 C   0  0  0  0  0  0  0  0  0  0  0  0
   58.2110   26.5230   45.8840 C   0  0  0  0  0  0  0  0  0  0  0  0
   57.2420   27.4090   45.2390 N   0  0  0  0  0  0  0  0  0  0  0  0
   57.3620   28.8410   45.2720 C   0  0  0  0  0  0  0  0  0  0  0  0
   58.4270   29.3780   45.6820 O   0  0  0  0  0  0  0  0  0  0  0  0
   56.2440   29.6980   44.8490 C   0  0  0  0  0  0  0  0  0  0  0  0
   55.1470   29.1820   44.5050 O   0  0  0  0  0  0  0  0  0  0  0  0
   56.4050   31.1210   44.8460 N   0  0  0  0  0  0  0  0  0  0  0  0
   57.5060   31.8070   44.1790 C   0  0  0  0  0  0  0  0  0  0  0  0
   58.0910   32.8610   45.0800 C   0  0  0  0  0  0  0  0  0  0  0  0
   57.9750   32.7540   46.4760 C   0  0  0  0  0  0  0  0  0  0  0  0
   58.5120   33.7440   47.3050 C   0  0  0  0  0  0  0  0  0  0  0  0
   59.1640   34.8470   46.7470 C   0  0  0  0  0  0  0  0  0  0  0  0
   59.2800   34.9620   45.3590 C   0  0  0  0  0  0  0  0  0  0  0  0
   58.7460   33.9730   44.5270 C   0  0  0  0  0  0  0  0  0  0  0  0
   56.4410   23.9390   43.8780 C   0  0  0  0  0  0  0  0  0  0  0  0
   55.1580   23.4000   43.7420 C   0  0  0  0  0  0  0  0  0  0  0  0
   51.3809   24.0242   45.6135 H   0  0  0  0  0  0  0  0  0  0  0  0
   51.9719   24.7094   44.0618 H   0  0  0  0  0  0  0  0  0  0  0  0
   50.9732   23.2164   44.0618 H   0  0  0  0  0  0  0  0  0  0  0  0
   53.8787   24.2673   46.7934 H   0  0  0  0  0  0  0  0  0  0  0  0
   56.1597   25.2374   47.0303 H   0  0  0  0  0  0  0  0  0  0  0  0
   58.7843   24.4444   45.8474 H   0  0  0  0  0  0  0  0  0  0  0  0
   58.6618   25.2386   44.2232 H   0  0  0  0  0  0  0  0  0  0  0  0
   57.9484   26.4135   46.9466 H   0  0  0  0  0  0  0  0  0  0  0  0
   59.2142   26.9625   45.7814 H   0  0  0  0  0  0  0  0  0  0  0  0
   56.3610   26.9800   44.8800 H   0  0  0  0  0  0  0  0  0  0  0  0
   58.2865   31.0755   43.9227 H   0  0  0  0  0  0  0  0  0  0  0  0
   57.1252   32.2892   43.2666 H   0  0  0  0  0  0  0  0  0  0  0  0
   57.4600   31.8886   46.9185 H   0  0  0  0  0  0  0  0  0  0  0  0
   58.4211   33.6544   48.3976 H   0  0  0  0  0  0  0  0  0  0  0  0
   59.5860   35.6248   47.4004 H   0  0  0  0  0  0  0  0  0  0  0  0
   59.7919   35.8314   44.9206 H   0  0  0  0  0  0  0  0  0  0  0  0
   58.8395   34.0666   43.4350 H   0  0  0  0  0  0  0  0  0  0  0  0
   57.1664   23.8369   43.0574 H   0  0  0  0  0  0  0  0  0  0  0  0
   54.8762   22.8835   42.8126 H   0  0  0  0  0  0  0  0  0  0  0  0
  1  2  1  0
  2  3  1  0
  3  4  2  0
  4  5  1  0
  5  6  2  0
  6  7  1  0
  7  8  1  0
  8  9  1  0
  9 10  1  0
 10 11  2  0
 10 12  1  0
 12 13  2  0
 12 14  1  0
 14 15  1  0
 15 16  1  0
 16 17  2  0
 17 18  1  0
 18 19  2  0
 19 20  1  0
 20 21  2  0
  6 22  1  0
 22 23  2  0
 23  3  1  0
 21 16  1  0
  1 24  1  0
  1 25  1  0
  1 26  1  0
  4 27  1  0
  5 28  1  0
  7 29  1  0
  7 30  1  0
  8 31  1  0
  8 32  1  0
  9 33  1  0
 15 34  1  0
 15 35  1  0
 17 36  1  0
 18 37  1  0
 19 38  1  0
 20 39  1  0
 21 40  1  0
 22 41  1  0
 23 42  1  0
M  CHG  1  14  -1
M  END
>  <UniqueID>  (4) 
4

>  <SMILES>  (4) 
COc1ccc(CCNC(=O)C(=O)[N-]Cc2ccccc2)cc1

>  <Energy>  (4) 
33.11720330473379

>  <Genealogy>  (4) 
COc1ccc(CCNC(=O)C(=O)[N-]Cc2ccccc2)cc1 (protonated)
COc1ccc(CCNC(=O)C(=O)[N-]Cc2ccccc2)cc1 (3D coordinates assigned)
COc1ccc(CCNC(=O)C(=O)[N-]Cc2ccccc2)cc1 (optimized conformer: 33.11720330473379 kcal/mol)

>  <smiles>  (4) 
COc1ccc(CCNC(=O)C(=O)NCc2ccccc2)cc1

>  <score_type>  (4) 
oracle

>  <origin>  (4) 
adg

>  <m_score__min__energy>  (4) 
-9.0700000000000003

>  <m_primary>  (4) 
energy

$$$$
4:0
     RDKit          3D

 49 51  0  0  0  0  0  0  0  0999 V2000
   56.8280   30.5950   43.8930 C   0  0  0  0  0  0  0  0  0  0  0  0
   56.9720   31.2240   45.1620 O   0  0  0  0  0  0  0  0  0  0  0  0
   57.7720   32.3520   45.4080 C   0  0  0  0  0  0  0  0  0  0  0  0
   57.7740   33.4630   44.5420 C   0  0  0  0  0  0  0  0  0  0  0  0
   58.5710   34.5770   44.8220 C   0  0  0  0  0  0  0  0  0  0  0  0
   59.3690   34.5980   45.9670 C   0  0  0  0  0  0  0  0  0  0  0  0
   59.3770   33.5040   46.8340 C   0  0  0  0  0  0  0  0  0  0  0  0
   58.5930   32.3710   46.5590 C   0  0  0  0  0  0  0  0  0  0  0  0
   58.5880   31.2150   47.5250 C   0  0  0  0  0  0  0  0  0  0  0  0
   58.8710   29.9380   46.7940 C   0  0  0  0  0  0  0  0  0  0  0  0
   60.0580   29.6600   46.4730 O   0  0  0  0  0  0  0  0  0  0  0  0
   57.7990   29.0380   46.4760 N   0  0  0  0  0  0  0  0  0  0  0  0
   57.9700   27.6260   46.2670 C   0  0  0  0  0  0  0  0  0  0  0  0
   56.8730   26.7830   46.0070 C   0  0  0  0  0  0  0  0  0  0  0  0
   57.0730   25.4210   45.7610 C   0  0  0  0  0  0  0  0  0  0  0  0
   58.3660   24.8850   45.7630 C   0  0  0  0  0  0  0  0  0  0  0  0
   58.6050   23.1780   45.4000 S   0  0  0  0  0  0  0  0  0  0  0  0
   57.7710   22.3700   46.3540 O   0  0  0  0  0  0  0  0  0  0  0  0
   60.0490   22.8120   45.6100 O   0  0  0  0  0  0  0  0  0  0  0  0
   58.1110   22.8230   43.7580 N   0  0  0  0  0  0  0  0  0  0  0  0
   57.8080   21.3920   43.5690 C   0  0  0  0  0  0  0  0  0  0  0  0
   56.4680   20.9860   44.2290 C   0  0  0  0  0  0  0  0  0  0  0  0
   55.6170   22.0850   44.5090 O   0  0  0  0  0  0  0  0  0  0  0  0
   55.6230   22.9940   43.4310 C   0  0  0  0  0  0  0  0  0  0  0  0
   56.9930   23.6890   43.3230 C   0  0  0  0  0  0  0  0  0  0  0  0
   59.4630   25.7260   45.9980 C   0  0  0  0  0  0  0  0  0  0  0  0
   59.2650   27.0880   46.2420 C   0  0  0  0  0  0  0  0  0  0  0  0
   56.5846   29.5319   44.0362 H   0  0  0  0  0  0  0  0  0  0  0  0
   56.0186   31.0840   43.3311 H   0  0  0  0  0  0  0  0  0  0  0  0
   57.7696   30.6831   43.3311 H   0  0  0  0  0  0  0  0  0  0  0  0
   57.1446   33.4540   43.6399 H   0  0  0  0  0  0  0  0  0  0  0  0
   58.5692   35.4388   44.1385 H   0  0  0  0  0  0  0  0  0  0  0  0
   59.9922   35.4775   46.1864 H   0  0  0  0  0  0  0  0  0  0  0  0
   60.0017   33.5292   47.7391 H   0  0  0  0  0  0  0  0  0  0  0  0
   59.3613   31.3761   48.2905 H   0  0  0  0  0  0  0  0  0  0  0  0
   57.5997   31.1471   48.0032 H   0  0  0  0  0  0  0  0  0  0  0  0
   56.8370   29.4360   46.3820 H   0  0  0  0  0  0  0  0  0  0  0  0
   55.8541   27.1974   45.9973 H   0  0  0  0  0  0  0  0  0  0  0  0
   56.2100   24.7677   45.5650 H   0  0  0  0  0  0  0  0  0  0  0  0
   57.7500   21.1816   42.4909 H   0  0  0  0  0  0  0  0  0  0  0  0
   58.6100   20.8109   44.0477 H   0  0  0  0  0  0  0  0  0  0  0  0
   55.9393   20.3011   43.5498 H   0  0  0  0  0  0  0  0  0  0  0  0
   56.7128   20.5141   45.1920 H   0  0  0  0  0  0  0  0  0  0  0  0
   55.4177   22.4502   42.4971 H   0  0  0  0  0  0  0  0  0  0  0  0
   54.8486   23.7562   43.6024 H   0  0  0  0  0  0  0  0  0  0  0  0
   57.1592   23.9773   42.2746 H   0  0  0  0  0  0  0  0  0  0  0  0
   56.9737   24.5644   43.9888 H   0  0  0  0  0  0  0  0  0  0  0  0
   60.4824   25.3128   45.9903 H   0  0  0  0  0  0  0  0  0  0  0  0
   60.1315   27.7429   46.4158 H   0  0  0  0  0  0  0  0  0  0  0  0
  1  2  1  0
  2  3  1  0
  3  4  2  0
  4  5  1  0
  5  6  2  0
  6  7  1  0
  7  8  2  0
  8  9  1  0
  9 10  1  0
 10 11  2  0
 10 12  1  0
 12 13  1  0
 13 14  2  0
 14 15  1  0
 15 16  2  0
 16 17  1  0
 17 18  2  0
 17 19  2  0
 17 20  1  0
 20 21  1  0
 21 22  1  0
 22 23  1  0
 23 24  1  0
 24 25  1  0
 16 26  1  0
 26 27  2  0
  8  3  1  0
 27 13  1  0
 25 20  1  0
  1 28  1  0
  1 29  1  0
  1 30  1  0
  4 31  1  0
  5 32  1  0
  6 33  1  0
  7 34  1  0
  9 35  1  0
  9 36  1  0
 12 37  1  0
 14 38  1  0
 15 39  1  0
 21 40  1  0
 21 41  1  0
 22 42  1  0
 22 43  1  0
 24 44  1  0
 24 45  1  0
 25 46  1  0
 25 47  1  0
 26 48  1  0
 27 49  1  0
M  END
>  <UniqueID>  (5) 
5

>  <SMILES>  (5) 
COc1ccccc1CC(=O)Nc1ccc(S(=O)(=O)N2CCOCC2)cc1

>  <Energy>  (5) 
61.897556269992066

>  <Genealogy>  (5) 
COc1ccccc1CC(=O)Nc1ccc(S(=O)(=O)N2CCOCC2)cc1 (3D coordinates assigned)
COc1ccccc1CC(=O)Nc1ccc(S(=O)(=O)N2CCOCC2)cc1 (nonaromatic ring conformer: 61.897556269992066 kcal/mol)

>  <smiles>  (5) 
COc1ccccc1CC(=O)Nc1ccc(S(=O)(=O)N2CCOCC2)cc1

>  <score_type>  (5) 
oracle

>  <origin>  (5) 
adg

>  <m_score__min__energy>  (5) 
-8.5299999999999994

>  <m_primary>  (5) 
energy

$$$$
5:0
     RDKit          3D

 28 29  0  0  0  0  0  0  0  0999 V2000
   59.8820   35.5930   46.3640 O   0  0  0  0  0  0  0  0  0  0  0  0
   59.6290   34.4490   45.9010 C   0  0  0  0  0  0  0  0  0  0  0  0
   58.5590   34.2990   44.8640 C   0  0  0  0  0  0  0  0  0  0  0  0
   57.0380   33.6010   45.5950 S   0  0  0  0  0  0  0  0  0  0  0  0
   57.3440   31.9330   45.0190 C   0  0  0  0  0  0  0  0  0  0  0  0
   56.3280   31.1970   44.4960 N   0  0  0  0  0  0  0  0  0  0  0  0
   56.5390   29.9260   44.0670 C   0  0  0  0  0  0  0  0  0  0  0  0
   57.8120   29.3620   44.1590 C   0  0  0  0  0  0  0  0  0  0  0  0
   58.8430   30.1350   44.6910 C   0  0  0  0  0  0  0  0  0  0  0  0
   58.5930   31.4030   45.1100 N   0  0  0  0  0  0  0  0  0  0  0  0
   60.4040   33.3090   46.3040 N   0  0  0  0  0  0  0  0  0  0  0  0
   61.4350   33.3670   47.3030 C   0  0  0  0  0  0  0  0  0  0  0  0
   62.7440   32.9960   46.9600 C   0  0  0  0  0  0  0  0  0  0  0  0
   63.7630   33.0340   47.9140 C   0  0  0  0  0  0  0  0  0  0  0  0
   63.4800   33.4250   49.2270 C   0  0  0  0  0  0  0  0  0  0  0  0
   64.7610   33.4680   50.4260 Cl  0  0  0  0  0  0  0  0  0  0  0  0
   62.1740   33.7690   49.5860 C   0  0  0  0  0  0  0  0  0  0  0  0
   61.1500   33.7350   48.6320 C   0  0  0  0  0  0  0  0  0  0  0  0
   59.8790   34.0100   49.0200 F   0  0  0  0  0  0  0  0  0  0  0  0
   58.3323   35.2861   44.4347 H   0  0  0  0  0  0  0  0  0  0  0  0
   58.9200   33.6144   44.0824 H   0  0  0  0  0  0  0  0  0  0  0  0
   55.7070   29.3415   43.6473 H   0  0  0  0  0  0  0  0  0  0  0  0
   57.9976   28.3322   43.8199 H   0  0  0  0  0  0  0  0  0  0  0  0
   59.8580   29.7187   44.7715 H   0  0  0  0  0  0  0  0  0  0  0  0
   60.3300   32.4380   45.7330 H   0  0  0  0  0  0  0  0  0  0  0  0
   62.9690   32.6731   45.9328 H   0  0  0  0  0  0  0  0  0  0  0  0
   64.7895   32.7561   47.6327 H   0  0  0  0  0  0  0  0  0  0  0  0
   61.9500   34.0673   50.6208 H   0  0  0  0  0  0  0  0  0  0  0  0
  1  2  2  0
  2  3  1  0
  3  4  1  0
  4  5  1  0
  5  6  2  0
  6  7  1  0
  7  8  2  0
  8  9  1  0
  9 10  2  0
  2 11  1  0
 11 12  1  0
 12 13  2  0
 13 14  1  0
 14 15  2  0
 15 16  1  0
 15 17  1  0
 17 18  2  0
 18 19  1  0
 10  5  1  0
 18 12  1  0
  3 20  1  0
  3 21  1  0
  7 22  1  0
  8 23  1  0
  9 24  1  0
 11 25  1  0
 13 26  1  0
 14 27  1  0
 17 28  1  0
M  END
>  <UniqueID>  (6) 
6

>  <SMILES>  (6) 
O=C(CSc1ncccn1)Nc1ccc(Cl)cc1F

>  <Energy>  (6) 
28.17420483507508

>  <Genealogy>  (6) 
O=C(CSc1ncccn1)Nc1ccc(Cl)cc1F (3D coordinates assigned)
O=C(CSc1ncccn1)Nc1ccc(Cl)cc1F (optimized conformer: 28.17420483507508 kcal/mol)

>  <smiles>  (6) 
O=C(CSc1ncccn1)Nc1ccc(Cl)cc1F

>  <score_type>  (6) 
oracle

>  <origin>  (6) 
adg

>  <m_score__min__energy>  (6) 
-6.46

>  <m_primary>  (6) 
energy

$$$$
6:0
     RDKit          3D

 42 43  0  0  0  0  0  0  0  0999 V2000
   61.4600   33.8290   47.8870 C   0  0  0  0  0  0  0  0  0  0  0  0
   61.1740   33.8760   46.3860 C   0  0  0  0  0  0  0  0  0  0  0  0
   59.7520   33.5780   46.1000 N   0  0  0  0  0  0  0  0  0  0  0  0
   59.2840   34.3010   44.8940 C   0  0  0  0  0  0  0  0  0  0  0  0
   57.7600   34.3790   44.8730 C   0  0  0  0  0  0  0  0  0  0  0  0
   58.8930   33.8790   47.2770 C   0  0  0  0  0  0  0  0  0  0  0  0
   57.9380   32.7160   47.5620 C   0  0  0  0  0  0  0  0  0  0  0  0
   58.5770   31.4260   47.2980 N   0  0  0  0  0  0  0  0  0  0  0  0
   59.6060   30.8950   48.0050 C   0  0  0  0  0  0  0  0  0  0  0  0
   60.0540   29.7340   47.4750 N   0  0  0  0  0  0  0  0  0  0  0  0
   59.2730   29.5400   46.3950 C   0  0  0  0  0  0  0  0  0  0  0  0
   58.3830   30.5560   46.2810 C   0  0  0  0  0  0  0  0  0  0  0  0
   57.5040   30.5940   45.2020 C   0  0  0  0  0  0  0  0  0  0  0  0
   56.6900   31.5460   45.0660 O   0  0  0  0  0  0  0  0  0  0  0  0
   57.5610   29.5740   44.2790 N   0  0  0  0  0  0  0  0  0  0  0  0
   56.6760   29.6060   43.1020 C   0  0  0  0  0  0  0  0  0  0  0  0
   58.5030   28.5660   44.4040 C   0  0  0  0  0  0  0  0  0  0  0  0
   58.5860   27.6750   43.5130 O   0  0  0  0  0  0  0  0  0  0  0  0
   59.3570   28.5310   45.4860 N   0  0  0  0  0  0  0  0  0  0  0  0
   60.3750   27.4820   45.6430 C   0  0  0  0  0  0  0  0  0  0  0  0
   60.5238   33.9829   48.4436 H   0  0  0  0  0  0  0  0  0  0  0  0
   61.8854   32.8489   48.1487 H   0  0  0  0  0  0  0  0  0  0  0  0
   62.1766   34.6214   48.1487 H   0  0  0  0  0  0  0  0  0  0  0  0
   61.4129   34.8806   46.0069 H   0  0  0  0  0  0  0  0  0  0  0  0
   61.7948   33.1153   45.8901 H   0  0  0  0  0  0  0  0  0  0  0  0
   59.6982   35.3200   44.8998 H   0  0  0  0  0  0  0  0  0  0  0  0
   59.6239   33.7575   44.0001 H   0  0  0  0  0  0  0  0  0  0  0  0
   57.3796   34.3985   45.9049 H   0  0  0  0  0  0  0  0  0  0  0  0
   57.4469   35.2943   44.3495 H   0  0  0  0  0  0  0  0  0  0  0  0
   57.3551   33.5004   44.3495 H   0  0  0  0  0  0  0  0  0  0  0  0
   59.5317   34.0457   48.1569 H   0  0  0  0  0  0  0  0  0  0  0  0
   58.2991   34.7792   47.0604 H   0  0  0  0  0  0  0  0  0  0  0  0
   57.6314   32.7546   48.6177 H   0  0  0  0  0  0  0  0  0  0  0  0
   57.0653   32.8131   46.8994 H   0  0  0  0  0  0  0  0  0  0  0  0
   60.0291   31.3574   48.9090 H   0  0  0  0  0  0  0  0  0  0  0  0
   60.8480   29.1500   47.8200 H   0  0  0  0  0  0  0  0  0  0  0  0
   55.6275   29.6439   43.4325 H   0  0  0  0  0  0  0  0  0  0  0  0
   56.9022   30.4966   42.4972 H   0  0  0  0  0  0  0  0  0  0  0  0
   56.8373   28.7014   42.4972 H   0  0  0  0  0  0  0  0  0  0  0  0
   60.5518   27.2999   46.7133 H   0  0  0  0  0  0  0  0  0  0  0  0
   60.0229   26.5551   45.1666 H   0  0  0  0  0  0  0  0  0  0  0  0
   61.3120   27.8061   45.1666 H   0  0  0  0  0  0  0  0  0  0  0  0
  1  2  1  0
  2  3  1  0
  3  4  1  0
  4  5  1  0
  3  6  1  0
  6  7  1  0
  7  8  1  0
  8  9  1  0
  9 10  2  0
 10 11  1  0
 11 12  2  0
 12 13  1  0
 13 14  2  0
 13 15  1  0
 15 16  1  0
 15 17  1  0
 17 18  2  0
 17 19  1  0
 19 20  1  0
 12  8  1  0
 19 11  1  0
  1 21  1  0
  1 22  1  0
  1 23  1  0
  2 24  1  0
  2 25  1  0
  4 26  1  0
  4 27  1  0
  5 28  1  0
  5 29  1  0
  5 30  1  0
  6 31  1  0
  6 32  1  0
  7 33  1  0
  7 34  1  0
  9 35  1  0
 10 36  1  0
 16 37  1  0
 16 38  1  0
 16 39  1  0
 20 40  1  0
 20 41  1  0
 20 42  1  0
M  CHG  1  10   1
M  END
>  <UniqueID>  (7) 
7

>  <SMILES>  (7) 
CCN(CC)CCn1c[nH+]c2c1c(=O)n(C)c(=O)n2C

>  <Energy>  (7) 
84.67304012850538

>  <Genealogy>  (7) 
CCN(CC)CCn1c[nH+]c2c1c(=O)n(C)c(=O)n2C (protonated)
CCN(CC)CCn1c[nH+]c2c1c(=O)n(C)c(=O)n2C (3D coordinates assigned)
CCN(CC)CCn1c[nH+]c2c1c(=O)n(C)c(=O)n2C (optimized conformer: 84.67304012850538 kcal/mol)

>  <smiles>  (7) 
CCN(CC)CCn1cnc2c1c(=O)n(C)c(=O)n2C

>  <score_type>  (7) 
oracle

>  <origin>  (7) 
adg

>  <m_score__min__energy>  (7) 
-4.1600000000000001

>  <m_primary>  (7) 
energy

$$$$
7:0
     RDKit          3D

 38 40  0  0  0  0  0  0  0  0999 V2000
   55.5750   29.3440   44.4070 C   0  0  0  0  0  0  0  0  0  0  0  0
   56.4290   30.4940   43.9800 C   0  0  0  0  0  0  0  0  0  0  0  0
   56.6540   30.7450   42.6220 C   0  0  0  0  0  0  0  0  0  0  0  0
   57.4730   31.8120   42.2500 C   0  0  0  0  0  0  0  0  0  0  0  0
   58.0530   32.6180   43.2280 C   0  0  0  0  0  0  0  0  0  0  0  0
   57.8000   32.3530   44.5840 C   0  0  0  0  0  0  0  0  0  0  0  0
   58.3990   33.1470   45.6260 N   0  0  0  0  0  0  0  0  0  0  0  0
   58.3490   32.6560   47.0130 C   0  0  0  0  0  0  0  0  0  0  0  0
   59.0900   33.5960   47.9690 C   0  0  0  0  0  0  0  0  0  0  0  0
   60.3550   34.0270   47.3600 N   0  0  0  0  0  0  0  0  0  0  0  0
   61.6040   33.8310   48.0530 C   0  0  0  0  0  0  0  0  0  0  0  0
   62.7010   33.2600   47.3900 C   0  0  0  0  0  0  0  0  0  0  0  0
   63.9010   33.0760   48.0770 C   0  0  0  0  0  0  0  0  0  0  0  0
   63.9990   33.4540   49.4160 C   0  0  0  0  0  0  0  0  0  0  0  0
   62.8900   34.0120   50.0500 C   0  0  0  0  0  0  0  0  0  0  0  0
   61.7240   34.1870   49.3670 N   0  0  0  0  0  0  0  0  0  0  0  0
   60.3560   34.5870   46.0000 C   0  0  0  0  0  0  0  0  0  0  0  0
   58.9730   34.4730   45.3470 C   0  0  0  0  0  0  0  0  0  0  0  0
   57.0090   31.2930   44.9170 N   0  0  0  0  0  0  0  0  0  0  0  0
   55.5421   29.2998   45.5056 H   0  0  0  0  0  0  0  0  0  0  0  0
   54.5561   29.4784   44.0148 H   0  0  0  0  0  0  0  0  0  0  0  0
   55.9983   28.4075   44.0148 H   0  0  0  0  0  0  0  0  0  0  0  0
   56.1899   30.1075   41.8551 H   0  0  0  0  0  0  0  0  0  0  0  0
   57.6606   32.0167   41.1856 H   0  0  0  0  0  0  0  0  0  0  0  0
   58.7046   33.4561   42.9399 H   0  0  0  0  0  0  0  0  0  0  0  0
   57.2977   32.5819   47.3281 H   0  0  0  0  0  0  0  0  0  0  0  0
   58.8390   31.6718   47.0483 H   0  0  0  0  0  0  0  0  0  0  0  0
   58.4640   34.4771   48.1734 H   0  0  0  0  0  0  0  0  0  0  0  0
   59.3011   33.0659   48.9094 H   0  0  0  0  0  0  0  0  0  0  0  0
   62.6152   32.9594   46.3353 H   0  0  0  0  0  0  0  0  0  0  0  0
   64.7678   32.6339   47.5640 H   0  0  0  0  0  0  0  0  0  0  0  0
   64.9413   33.3133   49.9658 H   0  0  0  0  0  0  0  0  0  0  0  0
   62.9565   34.3123   51.1061 H   0  0  0  0  0  0  0  0  0  0  0  0
   60.9050   34.5830   49.8790 H   0  0  0  0  0  0  0  0  0  0  0  0
   60.6418   35.6480   46.0500 H   0  0  0  0  0  0  0  0  0  0  0  0
   61.0741   34.0176   45.3916 H   0  0  0  0  0  0  0  0  0  0  0  0
   58.3110   35.2509   45.7551 H   0  0  0  0  0  0  0  0  0  0  0  0
   59.0724   34.6048   44.2594 H   0  0  0  0  0  0  0  0  0  0  0  0
  1  2  1  0
  2  3  2  0
  3  4  1  0
  4  5  2  0
  5  6  1  0
  6  7  1  0
  7  8  1  0
  8  9  1  0
  9 10  1  0
 10 11  1  0
 11 12  2  0
 12 13  1  0
 13 14  2  0
 14 15  1  0
 15 16  2  0
 10 17  1  0
 17 18  1  0
  6 19  2  0
 19  2  1  0
 18  7  1  0
 16 11  1  0
  1 20  1  0
  1 21  1  0
  1 22  1  0
  3 23  1  0
  4 24  1  0
  5 25  1  0
  8 26  1  0
  8 27  1  0
  9 28  1  0
  9 29  1  0
 12 30  1  0
 13 31  1  0
 14 32  1  0
 15 33  1  0
 16 34  1  0
 17 35  1  0
 17 36  1  0
 18 37  1  0
 18 38  1  0
M  CHG  1  16   1
M  END
>  <UniqueID>  (8) 
8

>  <SMILES>  (8) 
Cc1cccc(N2CCN(c3cccc[nH+]3)CC2)n1

>  <Energy>  (8) 
46.44838043594564

>  <Genealogy>  (8) 
Cc1cccc(N2CCN(c3cccc[nH+]3)CC2)n1 (protonated)
Cc1cccc(N2CCN(c3cccc[nH+]3)CC2)n1 (3D coordinates assigned)
Cc1cccc(N2CCN(c3cccc[nH+]3)CC2)n1 (nonaromatic ring conformer: 46.44838043594564 kcal/mol)

>  <smiles>  (8) 
Cc1cccc(N2CCN(c3ccccn3)CC2)n1

>  <score_type>  (8) 
oracle

>  <origin>  (8) 
adg

>  <m_score__min__energy>  (8) 
-5.9800000000000004

>  <m_primary>  (8) 
energy

$$$$
8:0
     RDKit          3D

 48 50  0  0  0  0  0  0  0  0999 V2000
   56.8890   21.3310   42.9720 C   0  0  0  0  0  0  0  0  0  0  0  0
   56.2110   22.6970   42.8430 C   0  0  0  0  0  0  0  0  0  0  0  0
   56.9710   23.7650   43.5090 N   0  0  0  0  0  0  0  0  0  0  0  0
   57.7660   23.2920   44.6590 C   0  0  0  0  0  0  0  0  0  0  0  0
   57.4330   24.0570   45.9520 C   0  0  1  0  0  0  0  0  0  0  0  0
   58.3700   25.2810   46.1670 C   0  0  0  0  0  0  0  0  0  0  0  0
   57.4990   26.4510   46.1180 N   0  0  0  0  0  0  0  0  0  0  0  0
   57.9370   27.8240   46.1450 C   0  0  0  0  0  0  0  0  0  0  0  0
   58.9960   28.2300   46.9760 C   0  0  0  0  0  0  0  0  0  0  0  0
   59.4050   29.5660   47.0030 C   0  0  0  0  0  0  0  0  0  0  0  0
   58.7600   30.5220   46.2050 C   0  0  0  0  0  0  0  0  0  0  0  0
   59.1890   31.8950   46.2390 N   0  0  0  0  0  0  0  0  0  0  0  0
   58.8890   32.7830   45.1100 C   0  0  0  0  0  0  0  0  0  0  0  0
   58.1860   34.0650   45.5760 C   0  0  0  0  0  0  0  0  0  0  0  0
   59.1490   34.9950   46.3400 C   0  0  0  0  0  0  0  0  0  0  0  0
   59.2350   34.7770   47.7410 O   0  0  0  0  0  0  0  0  0  0  0  0
   59.1050   33.4250   48.1610 C   0  0  0  0  0  0  0  0  0  0  0  0
   59.9500   32.3980   47.3870 C   0  0  0  0  0  0  0  0  0  0  0  0
   57.6910   30.1270   45.3870 C   0  0  0  0  0  0  0  0  0  0  0  0
   57.0300   31.0390   44.6310 F   0  0  0  0  0  0  0  0  0  0  0  0
   57.2820   28.7900   45.3620 C   0  0  0  0  0  0  0  0  0  0  0  0
   56.1740   25.9710   45.9740 C   0  0  0  0  0  0  0  0  0  0  0  0
   55.1490   26.7030   45.9970 O   0  0  0  0  0  0  0  0  0  0  0  0
   56.1180   24.6020   45.8740 O   0  0  0  0  0  0  0  0  0  0  0  0
   57.0126   21.0820   44.0363 H   0  0  0  0  0  0  0  0  0  0  0  0
   56.2664   20.5653   42.4862 H   0  0  0  0  0  0  0  0  0  0  0  0
   57.8754   21.3639   42.4862 H   0  0  0  0  0  0  0  0  0  0  0  0
   56.1153   22.9445   41.7755 H   0  0  0  0  0  0  0  0  0  0  0  0
   55.2275   22.6307   43.3311 H   0  0  0  0  0  0  0  0  0  0  0  0
   56.3260   24.5470   43.7700 H   0  0  0  0  0  0  0  0  0  0  0  0
   57.5590   22.2232   44.8168 H   0  0  0  0  0  0  0  0  0  0  0  0
   58.8276   23.4653   44.4288 H   0  0  0  0  0  0  0  0  0  0  0  0
   57.5455   23.3307   46.7705 H   0  0  0  0  0  0  0  0  0  0  0  0
   58.8708   25.2150   47.1442 H   0  0  0  0  0  0  0  0  0  0  0  0
   59.1613   25.3286   45.4044 H   0  0  0  0  0  0  0  0  0  0  0  0
   59.5066   27.4901   47.6099 H   0  0  0  0  0  0  0  0  0  0  0  0
   60.2380   29.8696   47.6542 H   0  0  0  0  0  0  0  0  0  0  0  0
   59.8296   33.0532   44.6077 H   0  0  0  0  0  0  0  0  0  0  0  0
   58.2167   32.2510   44.4209 H   0  0  0  0  0  0  0  0  0  0  0  0
   57.7972   34.5988   44.6963 H   0  0  0  0  0  0  0  0  0  0  0  0
   57.3695   33.7816   46.2564 H   0  0  0  0  0  0  0  0  0  0  0  0
   60.1549   34.8624   45.9151 H   0  0  0  0  0  0  0  0  0  0  0  0
   58.7436   36.0104   46.2192 H   0  0  0  0  0  0  0  0  0  0  0  0
   59.3961   33.3714   49.2204 H   0  0  0  0  0  0  0  0  0  0  0  0
   58.0564   33.1529   47.9702 H   0  0  0  0  0  0  0  0  0  0  0  0
   60.8734   32.8784   47.0312 H   0  0  0  0  0  0  0  0  0  0  0  0
   60.2021   31.5590   48.0522 H   0  0  0  0  0  0  0  0  0  0  0  0
   56.4384   28.4911   44.7225 H   0  0  0  0  0  0  0  0  0  0  0  0
  1  2  1  0
  2  3  1  0
  3  4  1  0
  4  5  1  0
  5  6  1  0
  6  7  1  0
  7  8  1  0
  8  9  2  0
  9 10  1  0
 10 11  2  0
 11 12  1  0
 12 13  1  0
 13 14  1  0
 14 15  1  0
 15 16  1  0
 16 17  1  0
 17 18  1  0
 11 19  1  0
 19 20  1  0
 19 21  2  0
  7 22  1  0
 22 23  2  0
 22 24  1  0
 24  5  1  0
 21  8  1  0
 18 12  1  0
  1 25  1  0
  1 26  1  0
  1 27  1  0
  2 28  1  0
  2 29  1  0
  3 30  1  0
  4 31  1  0
  4 32  1  0
  5 33  1  1
  6 34  1  0
  6 35  1  0
  9 36  1  0
 10 37  1  0
 13 38  1  0
 13 39  1  0
 14 40  1  0
 14 41  1  0
 15 42  1  0
 15 43  1  0
 17 44  1  0
 17 45  1  0
 18 46  1  0
 18 47  1  0
 21 48  1  0
M  END
>  <UniqueID>  (9) 
9

>  <SMILES>  (9) 
CCNC[C@H]1CN(c2ccc(N3CCCOCC3)c(F)c2)C(=O)O1

>  <Energy>  (9) 
83.00405372157098

>  <Genealogy>  (9) 
CCNC[C@H]1CN(c2ccc(N3CCCOCC3)c(F)c2)C(=O)O1 (chirality)
CCNC[C@H]1CN(c2ccc(N3CCCOCC3)c(F)c2)C(=O)O1 (3D coordinates assigned)
CCNC[C@H]1CN(c2ccc(N3CCCOCC3)c(F)c2)C(=O)O1 (nonaromatic ring conformer: 83.00405372157098 kcal/mol)

>  <smiles>  (9) 
CCNCC1CN(c2ccc(N3CCCOCC3)c(F)c2)C(=O)O1

>  <score_type>  (9) 
oracle

>  <origin>  (9) 
adg

>  <m_score__min__energy>  (9) 
-5.0700000000000003

>  <m_primary>  (9) 
energy

$$$$
9:0
     RDKit          3D

 52 56  0  0  0  0  0  0  0  0999 V2000
   58.5980   22.5290   45.3610 C   0  0  0  0  0  0  0  0  0  0  0  0
   58.5590   23.5410   46.3620 O   0  0  0  0  0  0  0  0  0  0  0  0
   58.3140   24.8990   46.1070 C   0  0  0  0  0  0  0  0  0  0  0  0
   59.3160   25.7730   45.6440 C   0  0  0  0  0  0  0  0  0  0  0  0
   59.0210   27.1190   45.4060 C   0  0  0  0  0  0  0  0  0  0  0  0
   57.7300   27.6130   45.6420 C   0  0  0  0  0  0  0  0  0  0  0  0
   57.4120   29.0250   45.3630 C   0  0  0  0  0  0  0  0  0  0  0  0
   56.4190   29.3410   44.4350 C   0  0  0  0  0  0  0  0  0  0  0  0
   56.4630   30.9890   44.1280 S   0  0  0  0  0  0  0  0  0  0  0  0
   57.7280   31.3280   45.1850 C   0  0  0  0  0  0  0  0  0  0  0  0
   58.1340   30.1640   45.8220 C   0  0  0  0  0  0  0  0  0  0  0  0
   59.1350   30.2480   46.8240 C   0  0  0  0  0  0  0  0  0  0  0  0
   59.4370   29.0600   47.7180 C   0  0  0  0  0  0  0  0  0  0  0  0
   59.7990   31.4490   47.0120 N   0  0  0  0  0  0  0  0  0  0  0  0
   60.9080   31.5020   47.9340 C   0  0  0  0  0  0  0  0  0  0  0  0
   62.2230   31.5780   47.4530 C   0  0  0  0  0  0  0  0  0  0  0  0
   63.2950   31.6380   48.3470 C   0  0  0  0  0  0  0  0  0  0  0  0
   63.0700   31.6260   49.7290 C   0  0  0  0  0  0  0  0  0  0  0  0
   64.1790   31.6890   50.5870 O   0  0  0  0  0  0  0  0  0  0  0  0
   65.4270   32.2810   50.2450 C   0  0  0  0  0  0  0  0  0  0  0  0
   61.7470   31.5530   50.2100 C   0  0  0  0  0  0  0  0  0  0  0  0
   60.6750   31.4930   49.3150 C   0  0  0  0  0  0  0  0  0  0  0  0
   59.4260   32.5960   46.3260 C   0  0  0  0  0  0  0  0  0  0  0  0
   60.0960   33.8310   46.5110 C   0  0  0  0  0  0  0  0  0  0  0  0
   59.6860   34.9790   45.8290 C   0  0  0  0  0  0  0  0  0  0  0  0
   58.6090   34.9240   44.9470 C   0  0  0  0  0  0  0  0  0  0  0  0
   57.9410   33.7200   44.7330 C   0  0  0  0  0  0  0  0  0  0  0  0
   58.3440   32.5550   45.4100 C   0  0  0  0  0  0  0  0  0  0  0  0
   56.7260   26.7380   46.0810 C   0  0  0  0  0  0  0  0  0  0  0  0
   57.0210   25.3920   46.3180 C   0  0  0  0  0  0  0  0  0  0  0  0
   58.6361   21.5399   45.8408 H   0  0  0  0  0  0  0  0  0  0  0  0
   57.6965   22.5981   44.7344 H   0  0  0  0  0  0  0  0  0  0  0  0
   59.4915   22.6672   44.7344 H   0  0  0  0  0  0  0  0  0  0  0  0
   60.3343   25.3958   45.4689 H   0  0  0  0  0  0  0  0  0  0  0  0
   59.8053   27.7935   45.0319 H   0  0  0  0  0  0  0  0  0  0  0  0
   55.7201   28.6247   43.9785 H   0  0  0  0  0  0  0  0  0  0  0  0
   59.3594   29.3652   48.7720 H   0  0  0  0  0  0  0  0  0  0  0  0
   58.7148   28.2555   47.5151 H   0  0  0  0  0  0  0  0  0  0  0  0
   60.4557   28.6980   47.5151 H   0  0  0  0  0  0  0  0  0  0  0  0
   62.4110   31.5904   46.3693 H   0  0  0  0  0  0  0  0  0  0  0  0
   64.3239   31.6951   47.9622 H   0  0  0  0  0  0  0  0  0  0  0  0
   65.9738   32.5404   51.1636 H   0  0  0  0  0  0  0  0  0  0  0  0
   66.0209   31.5687   49.6535 H   0  0  0  0  0  0  0  0  0  0  0  0
   65.2510   33.1916   49.6535 H   0  0  0  0  0  0  0  0  0  0  0  0
   61.5575   31.5432   51.2935 H   0  0  0  0  0  0  0  0  0  0  0  0
   59.6448   31.4385   49.6967 H   0  0  0  0  0  0  0  0  0  0  0  0
   60.9507   33.8863   47.2012 H   0  0  0  0  0  0  0  0  0  0  0  0
   60.2154   35.9299   45.9889 H   0  0  0  0  0  0  0  0  0  0  0  0
   58.2853   35.8328   44.4185 H   0  0  0  0  0  0  0  0  0  0  0  0
   57.0947   33.6806   44.0314 H   0  0  0  0  0  0  0  0  0  0  0  0
   55.7036   27.1116   46.2393 H   0  0  0  0  0  0  0  0  0  0  0  0
   56.2303   24.7148   46.6733 H   0  0  0  0  0  0  0  0  0  0  0  0
  1  2  1  0
  2  3  1  0
  3  4  2  0
  4  5  1  0
  5  6  2  0
  6  7  1  0
  7  8  2  0
  8  9  1  0
  9 10  1  0
 10 11  2  0
 11 12  1  0
 12 13  1  0
 12 14  2  0
 14 15  1  0
 15 16  2  0
 16 17  1  0
 17 18  2  0
 18 19  1  0
 19 20  1  0
 18 21  1  0
 21 22  2  0
 14 23  1  0
 23 24  2  0
 24 25  1  0
 25 26  2  0
 26 27  1  0
 27 28  2  0
  6 29  1  0
 29 30  2  0
 30  3  1  0
 11  7  1  0
 22 15  1  0
 28 23  1  0
 28 10  1  0
  1 31  1  0
  1 32  1  0
  1 33  1  0
  4 34  1  0
  5 35  1  0
  8 36  1  0
 13 37  1  0
 13 38  1  0
 13 39  1  0
 16 40  1  0
 17 41  1  0
 20 42  1  0
 20 43  1  0
 20 44  1  0
 21 45  1  0
 22 46  1  0
 24 47  1  0
 25 48  1  0
 26 49  1  0
 27 50  1  0
 29 51  1  0
 30 52  1  0
M  CHG  1  14   1
M  END
>  <UniqueID>  (10) 
10

>  <SMILES>  (10) 
COc1ccc(-c2csc3c2c(C)[n+](-c2ccc(OC)cc2)c2ccccc32)cc1

>  <Energy>  (10) 
116.66440199530952

>  <Genealogy>  (10) 
COc1ccc(-c2csc3c2c(C)[n+](-c2ccc(OC)cc2)c2ccccc32)cc1 (3D coordinates assigned)
COc1ccc(-c2csc3c2c(C)[n+](-c2ccc(OC)cc2)c2ccccc32)cc1 (optimized conformer: 116.66440199530952 kcal/mol)

>  <smiles>  (10) 
COc1ccc(-c2csc3c2c(C)[n+](-c2ccc(OC)cc2)c2ccccc32)cc1

>  <score_type>  (10) 
oracle

>  <origin>  (10) 
adg

>  <m_score__min__energy>  (10) 
-7.3200000000000003

>  <m_primary>  (10) 
energy

$$$$
10:0
     RDKit          3D

 46 47  0  0  0  0  0  0  0  0999 V2000
   56.3290   29.5960   42.6420 C   0  0  0  0  0  0  0  0  0  0  0  0
   55.8930   29.7630   44.0970 C   0  0  0  0  0  0  0  0  0  0  0  0
   56.8740   30.5660   44.8630 N   0  0  0  0  0  0  0  0  0  0  0  0
   57.0080   31.9450   44.3270 C   0  0  0  0  0  0  0  0  0  0  0  0
   58.1750   32.0040   43.3490 C   0  0  0  0  0  0  0  0  0  0  0  0
   58.1820   29.8720   44.9270 C   0  0  0  0  0  0  0  0  0  0  0  0
   58.3320   29.0970   46.2430 C   0  0  0  0  0  0  0  0  0  0  0  0
   58.6920   29.9930   47.3450 N   0  0  0  0  0  0  0  0  0  0  0  0
   59.8140   30.8920   47.2810 C   0  0  0  0  0  0  0  0  0  0  0  0
   61.1050   30.3900   47.4380 C   0  0  0  0  0  0  0  0  0  0  0  0
   62.1990   31.2420   47.3670 C   0  0  0  0  0  0  0  0  0  0  0  0
   62.0450   32.5850   47.1550 N   0  0  0  0  0  0  0  0  0  0  0  0
   63.2760   33.4010   47.1020 C   0  0  0  0  0  0  0  0  0  0  0  0
   64.1290   33.1730   48.3470 C   0  0  0  0  0  0  0  0  0  0  0  0
   60.7810   33.1190   46.9760 C   0  0  0  0  0  0  0  0  0  0  0  0
   60.5800   34.4990   46.7220 C   0  0  0  0  0  0  0  0  0  0  0  0
   59.2950   35.0220   46.5810 C   0  0  0  0  0  0  0  0  0  0  0  0
   58.1840   34.1930   46.6880 C   0  0  0  0  0  0  0  0  0  0  0  0
   58.3480   32.8300   46.9190 C   0  0  0  0  0  0  0  0  0  0  0  0
   59.6360   32.2720   47.0500 C   0  0  0  0  0  0  0  0  0  0  0  0
   57.3558   29.2027   42.6097 H   0  0  0  0  0  0  0  0  0  0  0  0
   55.6513   28.8938   42.1344 H   0  0  0  0  0  0  0  0  0  0  0  0
   56.2938   30.5713   42.1344 H   0  0  0  0  0  0  0  0  0  0  0  0
   54.9169   30.2695   44.1229 H   0  0  0  0  0  0  0  0  0  0  0  0
   55.8257   28.7658   44.5564 H   0  0  0  0  0  0  0  0  0  0  0  0
   56.0805   32.2271   43.8072 H   0  0  0  0  0  0  0  0  0  0  0  0
   57.1925   32.6425   45.1573 H   0  0  0  0  0  0  0  0  0  0  0  0
   59.1206   32.0518   43.9090 H   0  0  0  0  0  0  0  0  0  0  0  0
   58.1688   31.1044   42.7160 H   0  0  0  0  0  0  0  0  0  0  0  0
   58.0781   32.8984   42.7160 H   0  0  0  0  0  0  0  0  0  0  0  0
   58.2569   29.1682   44.0850 H   0  0  0  0  0  0  0  0  0  0  0  0
   58.9809   30.6262   44.8725 H   0  0  0  0  0  0  0  0  0  0  0  0
   57.3784   28.6022   46.4792 H   0  0  0  0  0  0  0  0  0  0  0  0
   59.1336   28.3536   46.1211 H   0  0  0  0  0  0  0  0  0  0  0  0
   58.1430   29.9240   48.2310 H   0  0  0  0  0  0  0  0  0  0  0  0
   61.2574   29.3157   47.6187 H   0  0  0  0  0  0  0  0  0  0  0  0
   63.2116   30.8284   47.4837 H   0  0  0  0  0  0  0  0  0  0  0  0
   63.8565   33.1212   46.2105 H   0  0  0  0  0  0  0  0  0  0  0  0
   62.9942   34.4633   47.0563 H   0  0  0  0  0  0  0  0  0  0  0  0
   63.5167   33.3367   49.2460 H   0  0  0  0  0  0  0  0  0  0  0  0
   64.5106   32.1413   48.3461 H   0  0  0  0  0  0  0  0  0  0  0  0
   64.9745   33.8767   48.3461 H   0  0  0  0  0  0  0  0  0  0  0  0
   61.4498   35.1667   46.6349 H   0  0  0  0  0  0  0  0  0  0  0  0
   59.1597   36.0958   46.3841 H   0  0  0  0  0  0  0  0  0  0  0  0
   57.1730   34.6151   46.5899 H   0  0  0  0  0  0  0  0  0  0  0  0
   57.4632   32.1815   47.0002 H   0  0  0  0  0  0  0  0  0  0  0  0
  1  2  1  0
  2  3  1  0
  3  4  1  0
  4  5  1  0
  3  6  1  0
  6  7  1  0
  7  8  1  0
  8  9  1  0
  9 10  2  0
 10 11  1  0
 11 12  2  0
 12 13  1  0
 13 14  1  0
 12 15  1  0
 15 16  2  0
 16 17  1  0
 17 18  2  0
 18 19  1  0
 19 20  2  0
 20  9  1  0
 20 15  1  0
  1 21  1  0
  1 22  1  0
  1 23  1  0
  2 24  1  0
  2 25  1  0
  4 26  1  0
  4 27  1  0
  5 28  1  0
  5 29  1  0
  5 30  1  0
  6 31  1  0
  6 32  1  0
  7 33  1  0
  7 34  1  0
  8 35  1  0
 10 36  1  0
 11 37  1  0
 13 38  1  0
 13 39  1  0
 14 40  1  0
 14 41  1  0
 14 42  1  0
 16 43  1  0
 17 44  1  0
 18 45  1  0
 19 46  1  0
M  CHG  1  12   1
M  END
>  <UniqueID>  (11) 
11

>  <SMILES>  (11) 
CCN(CC)CCNc1cc[n+](CC)c2ccccc12

>  <Energy>  (11) 
50.31573705910317

>  <Genealogy>  (11) 
CCN(CC)CCNc1cc[n+](CC)c2ccccc12 (3D coordinates assigned)
CCN(CC)CCNc1cc[n+](CC)c2ccccc12 (optimized conformer: 50.31573705910317 kcal/mol)

>  <smiles>  (11) 
CCN(CC)CCNc1cc[n+](CC)c2ccccc12

>  <score_type>  (11) 
oracle

>  <origin>  (11) 
adg

>  <m_score__min__energy>  (11) 
-5.1200000000000001

>  <m_primary>  (11) 
energy

$$$$
11:0
     RDKit          3D

 33 35  0  0  0  0  0  0  0  0999 V2000
   57.7490   26.5630   46.7220 C   0  0  0  0  0  0  0  0  0  0  0  0
   56.6910   27.0830   45.7550 C   0  0  0  0  0  0  0  0  0  0  0  0
   57.2080   28.2090   44.9830 N   0  0  0  0  0  0  0  0  0  0  0  0
   56.3980   29.3440   44.6350 C   0  0  0  0  0  0  0  0  0  0  0  0
   55.1600   29.3300   44.8770 O   0  0  0  0  0  0  0  0  0  0  0  0
   56.9890   30.5220   43.9600 C   0  0  0  0  0  0  0  0  0  0  0  0
   56.8390   30.6520   42.5690 C   0  0  0  0  0  0  0  0  0  0  0  0
   57.3940   31.7380   41.8920 C   0  0  0  0  0  0  0  0  0  0  0  0
   58.0960   32.7200   42.5910 C   0  0  0  0  0  0  0  0  0  0  0  0
   58.2410   32.6310   43.9880 C   0  0  0  0  0  0  0  0  0  0  0  0
   58.9230   33.6240   44.7210 C   0  0  0  0  0  0  0  0  0  0  0  0
   59.4390   34.6110   44.1260 O   0  0  0  0  0  0  0  0  0  0  0  0
   59.0230   33.5120   46.1210 C   0  0  0  0  0  0  0  0  0  0  0  0
   59.6910   34.4770   46.8990 C   0  0  0  0  0  0  0  0  0  0  0  0
   59.7640   34.3330   48.2880 C   0  0  0  0  0  0  0  0  0  0  0  0
   59.1730   33.2320   48.9130 C   0  0  0  0  0  0  0  0  0  0  0  0
   59.2470   33.1000   50.2610 F   0  0  0  0  0  0  0  0  0  0  0  0
   58.5060   32.2690   48.1530 C   0  0  0  0  0  0  0  0  0  0  0  0
   58.4280   32.4020   46.7610 C   0  0  0  0  0  0  0  0  0  0  0  0
   57.7820   31.4590   46.0300 N   0  0  0  0  0  0  0  0  0  0  0  0
   57.6790   31.5270   44.6750 C   0  0  0  0  0  0  0  0  0  0  0  0
   57.4131   26.7281   47.7564 H   0  0  0  0  0  0  0  0  0  0  0  0
   57.9024   25.4868   46.5536 H   0  0  0  0  0  0  0  0  0  0  0  0
   58.6947   27.0989   46.5536 H   0  0  0  0  0  0  0  0  0  0  0  0
   56.4024   26.2751   45.0666 H   0  0  0  0  0  0  0  0  0  0  0  0
   55.8183   27.4209   46.3331 H   0  0  0  0  0  0  0  0  0  0  0  0
   58.2050   28.1730   44.6710 H   0  0  0  0  0  0  0  0  0  0  0  0
   56.2783   29.8897   42.0083 H   0  0  0  0  0  0  0  0  0  0  0  0
   57.2775   31.8204   40.8013 H   0  0  0  0  0  0  0  0  0  0  0  0
   58.5384   33.5680   42.0477 H   0  0  0  0  0  0  0  0  0  0  0  0
   60.1568   35.3468   46.4127 H   0  0  0  0  0  0  0  0  0  0  0  0
   60.2885   35.0891   48.8906 H   0  0  0  0  0  0  0  0  0  0  0  0
   58.0409   31.4041   48.6486 H   0  0  0  0  0  0  0  0  0  0  0  0
  1  2  1  0
  2  3  1  0
  3  4  1  0
  4  5  2  0
  4  6  1  0
  6  7  2  0
  7  8  1  0
  8  9  2  0
  9 10  1  0
 10 11  1  0
 11 12  2  0
 11 13  1  0
 13 14  2  0
 14 15  1  0
 15 16  2  0
 16 17  1  0
 16 18  1  0
 18 19  2  0
 19 20  1  0
 20 21  1  0
 21  6  1  0
 21 10  2  0
 19 13  1  0
  1 22  1  0
  1 23  1  0
  1 24  1  0
  2 25  1  0
  2 26  1  0
  3 27  1  0
  7 28  1  0
  8 29  1  0
  9 30  1  0
 14 31  1  0
 15 32  1  0
 18 33  1  0
M  CHG  1  20  -1
M  END
>  <UniqueID>  (12) 
12

>  <SMILES>  (12) 
CCNC(=O)c1cccc2c(=O)c3ccc(F)cc3[n-]c12

>  <Energy>  (12) 
44.074814904061505

>  <Genealogy>  (12) 
CCNC(=O)c1cccc2c(=O)c3ccc(F)cc3[n-]c12 (protonated)
CCNC(=O)c1cccc2c(=O)c3ccc(F)cc3[n-]c12 (3D coordinates assigned)
CCNC(=O)c1cccc2c(=O)c3ccc(F)cc3[n-]c12 (optimized conformer: 44.074814904061505 kcal/mol)

>  <smiles>  (12) 
CCNC(=O)c1cccc2c(=O)c3ccc(F)cc3[nH]c12

>  <score_type>  (12) 
oracle

>  <origin>  (12) 
adg

>  <m_score__min__energy>  (12) 
-8.7400000000000002

>  <m_primary>  (12) 
energy

$$$$
12:0
     RDKit          3D

 48 50  0  0  0  0  0  0  0  0999 V2000
   60.7770   34.2370   46.0110 C   0  0  0  0  0  0  0  0  0  0  0  0
   60.2420   32.7800   46.0230 C   0  0  1  0  0  0  0  0  0  0  0  0
   60.6630   31.9630   47.2810 C   0  0  2  0  0  0  0  0  0  0  0  0
   60.6030   30.4710   46.8460 C   0  0  0  0  0  0  0  0  0  0  0  0
   59.2750   30.1060   46.2270 C   0  0  0  0  0  0  0  0  0  0  0  0
   58.9410   28.7470   46.1240 C   0  0  0  0  0  0  0  0  0  0  0  0
   57.7090   28.3570   45.6050 C   0  0  0  0  0  0  0  0  0  0  0  0
   56.7870   29.3200   45.1910 C   0  0  0  0  0  0  0  0  0  0  0  0
   55.5380   28.9410   44.7010 O   0  0  0  0  0  0  0  0  0  0  0  0
   57.1120   30.6760   45.2700 C   0  0  0  0  0  0  0  0  0  0  0  0
   58.3760   31.1000   45.7430 C   0  0  0  0  0  0  0  0  0  0  0  0
   58.7100   32.6090   45.8530 C   0  0  2  0  0  0  0  0  0  0  0  0
   58.2560   33.3400   44.5590 C   0  0  0  0  0  0  0  0  0  0  0  0
   57.9860   33.1950   47.0990 C   0  0  0  0  0  0  0  0  0  0  0  0
   58.8920   33.3990   48.3410 C   0  0  0  0  0  0  0  0  0  0  0  0
   59.9090   32.3180   48.5810 N   0  0  1  0  0  0  0  0  0  0  0  0
   59.1580   31.1700   49.1820 C   0  0  0  0  0  0  0  0  0  0  0  0
   60.9290   32.8290   49.5910 C   0  0  0  0  0  0  0  0  0  0  0  0
   61.7810   31.7420   50.2990 C   0  0  0  0  0  0  0  0  0  0  0  0
   61.9030   33.8910   49.0140 C   0  0  0  0  0  0  0  0  0  0  0  0
   60.9061   34.5887   47.0452 H   0  0  0  0  0  0  0  0  0  0  0  0
   61.7451   34.2678   45.4896 H   0  0  0  0  0  0  0  0  0  0  0  0
   60.0589   34.8870   45.4896 H   0  0  0  0  0  0  0  0  0  0  0  0
   60.7296   32.3825   45.1207 H   0  0  0  0  0  0  0  0  0  0  0  0
   61.6839   32.2256   47.5952 H   0  0  0  0  0  0  0  0  0  0  0  0
   60.7665   29.8380   47.7307 H   0  0  0  0  0  0  0  0  0  0  0  0
   61.3828   30.3109   46.0868 H   0  0  0  0  0  0  0  0  0  0  0  0
   59.6589   27.9827   46.4563 H   0  0  0  0  0  0  0  0  0  0  0  0
   57.4619   27.2884   45.5211 H   0  0  0  0  0  0  0  0  0  0  0  0
   55.1450   28.0290   44.9010 H   0  0  0  0  0  0  0  0  0  0  0  0
   56.3718   31.4278   44.9588 H   0  0  0  0  0  0  0  0  0  0  0  0
   57.6933   34.2461   44.8280 H   0  0  0  0  0  0  0  0  0  0  0  0
   59.1397   33.6195   43.9665 H   0  0  0  0  0  0  0  0  0  0  0  0
   57.6137   32.6718   43.9665 H   0  0  0  0  0  0  0  0  0  0  0  0
   57.1734   32.5079   47.3773 H   0  0  0  0  0  0  0  0  0  0  0  0
   57.6290   34.1941   46.8085 H   0  0  0  0  0  0  0  0  0  0  0  0
   58.2440   33.4584   49.2279 H   0  0  0  0  0  0  0  0  0  0  0  0
   59.4654   34.3182   48.1506 H   0  0  0  0  0  0  0  0  0  0  0  0
   59.2020   31.2372   50.2791 H   0  0  0  0  0  0  0  0  0  0  0  0
   58.1086   31.2065   48.8542 H   0  0  0  0  0  0  0  0  0  0  0  0
   59.6118   30.2231   48.8542 H   0  0  0  0  0  0  0  0  0  0  0  0
   60.2695   33.2863   50.3433 H   0  0  0  0  0  0  0  0  0  0  0  0
   61.6904   31.8576   51.3892 H   0  0  0  0  0  0  0  0  0  0  0  0
   61.4213   30.7450   50.0048 H   0  0  0  0  0  0  0  0  0  0  0  0
   62.8351   31.8531   50.0048 H   0  0  0  0  0  0  0  0  0  0  0  0
   62.3936   34.4260   49.8405 H   0  0  0  0  0  0  0  0  0  0  0  0
   62.6647   33.3927   48.3963 H   0  0  0  0  0  0  0  0  0  0  0  0
   61.3409   34.6069   48.3963 H   0  0  0  0  0  0  0  0  0  0  0  0
  1  2  1  0
  2  3  1  0
  3  4  1  0
  4  5  1  0
  5  6  2  0
  6  7  1  0
  7  8  2  0
  8  9  1  0
  8 10  1  0
 10 11  2  0
 11 12  1  0
 12 13  1  6
 12 14  1  0
 14 15  1  0
 15 16  1  0
 16 17  1  1
 16 18  1  0
 18 19  1  0
 18 20  1  0
 12  2  1  0
 16  3  1  0
 11  5  1  0
  1 21  1  0
  1 22  1  0
  1 23  1  0
  2 24  1  6
  3 25  1  1
  4 26  1  0
  4 27  1  0
  6 28  1  0
  7 29  1  0
  9 30  1  0
 10 31  1  0
 13 32  1  0
 13 33  1  0
 13 34  1  0
 14 35  1  0
 14 36  1  0
 15 37  1  0
 15 38  1  0
 17 39  1  0
 17 40  1  0
 17 41  1  0
 18 42  1  0
 19 43  1  0
 19 44  1  0
 19 45  1  0
 20 46  1  0
 20 47  1  0
 20 48  1  0
M  CHG  1  16   1
M  END
>  <UniqueID>  (13) 
13

>  <SMILES>  (13) 
CC(C)[N+]1(C)CCC2(C)c3cc(O)ccc3C[C@H]1[C@@H]2C

>  <Energy>  (13) 
99.31312325940597

>  <Genealogy>  (13) 
CC(C)[N+]1(C)CCC2(C)c3cc(O)ccc3C[C@H]1[C@@H]2C (chirality)
CC(C)[N+]1(C)CCC2(C)c3cc(O)ccc3C[C@H]1[C@@H]2C (3D coordinates assigned)
CC(C)[N+]1(C)CCC2(C)c3cc(O)ccc3C[C@H]1[C@@H]2C (nonaromatic ring conformer: 99.31312325940597 kcal/mol)

>  <smiles>  (13) 
CC1C2Cc3ccc(O)cc3C1(C)CC[N+]2(C)C(C)C

>  <score_type>  (13) 
oracle

>  <origin>  (13) 
adg

>  <m_score__min__energy>  (13) 
-6.2800000000000002

>  <m_primary>  (13) 
energy

$$$$
13:0
     RDKit          3D

 27 28  0  0  0  0  0  0  0  0999 V2000
   60.7390   28.9190   44.8890 C   0  0  0  0  0  0  0  0  0  0  0  0
   59.7310   28.5570   45.4440 C   0  0  0  0  0  0  0  0  0  0  0  0
   58.5030   28.1220   46.1210 C   0  0  0  0  0  0  0  0  0  0  0  0
   57.2830   28.2820   45.2080 C   0  0  0  0  0  0  0  0  0  0  0  0
   56.6930   29.6170   45.3340 N   0  0  0  0  0  0  0  0  0  0  0  0
   57.1300   30.7520   44.5630 C   0  0  0  0  0  0  0  0  0  0  0  0
   56.9690   30.7590   43.1690 C   0  0  0  0  0  0  0  0  0  0  0  0
   57.4360   31.8480   42.4290 C   0  0  0  0  0  0  0  0  0  0  0  0
   57.3020   31.8610   41.1770 O   0  0  0  0  0  0  0  0  0  0  0  0
   58.0250   32.8720   43.0350 O   0  0  0  0  0  0  0  0  0  0  0  0
   58.1970   32.9240   44.3530 C   0  0  0  0  0  0  0  0  0  0  0  0
   58.8170   34.0410   44.9200 C   0  0  0  0  0  0  0  0  0  0  0  0
   58.9870   34.1240   46.3040 C   0  0  0  0  0  0  0  0  0  0  0  0
   58.5310   33.0930   47.1270 C   0  0  0  0  0  0  0  0  0  0  0  0
   57.9110   31.9680   46.5740 C   0  0  0  0  0  0  0  0  0  0  0  0
   57.7500   31.8610   45.1770 C   0  0  0  0  0  0  0  0  0  0  0  0
   61.6582   29.2491   44.3829 H   0  0  0  0  0  0  0  0  0  0  0  0
   58.6041   27.0636   46.4032 H   0  0  0  0  0  0  0  0  0  0  0  0
   58.3558   28.7480   47.0134 H   0  0  0  0  0  0  0  0  0  0  0  0
   57.5937   28.1250   44.1645 H   0  0  0  0  0  0  0  0  0  0  0  0
   56.5277   27.5399   45.5060 H   0  0  0  0  0  0  0  0  0  0  0  0
   55.8920   29.7280   45.9950 H   0  0  0  0  0  0  0  0  0  0  0  0
   56.4791   29.9140   42.6631 H   0  0  0  0  0  0  0  0  0  0  0  0
   59.1723   34.8575   44.2742 H   0  0  0  0  0  0  0  0  0  0  0  0
   59.4805   35.0024   46.7455 H   0  0  0  0  0  0  0  0  0  0  0  0
   58.6601   33.1658   48.2170 H   0  0  0  0  0  0  0  0  0  0  0  0
   57.5477   31.1639   47.2308 H   0  0  0  0  0  0  0  0  0  0  0  0
  1  2  3  0
  2  3  1  0
  3  4  1  0
  4  5  1  0
  5  6  1  0
  6  7  2  0
  7  8  1  0
  8  9  2  0
  8 10  1  0
 10 11  1  0
 11 12  2  0
 12 13  1  0
 13 14  2  0
 14 15  1  0
 15 16  2  0
 16  6  1  0
 16 11  1  0
  1 17  1  0
  3 18  1  0
  3 19  1  0
  4 20  1  0
  4 21  1  0
  5 22  1  0
  7 23  1  0
 12 24  1  0
 13 25  1  0
 14 26  1  0
 15 27  1  0
M  END
>  <UniqueID>  (14) 
14

>  <SMILES>  (14) 
C#CCCNc1cc(=O)oc2ccccc12

>  <Energy>  (14) 
29.825478150294302

>  <Genealogy>  (14) 
C#CCCNc1cc(=O)oc2ccccc12 (3D coordinates assigned)
C#CCCNc1cc(=O)oc2ccccc12 (optimized conformer: 29.825478150294302 kcal/mol)

>  <smiles>  (14) 
C#CCCNc1cc(=O)oc2ccccc12

>  <score_type>  (14) 
oracle

>  <origin>  (14) 
adg

>  <m_score__min__energy>  (14) 
-5.6500000000000004

>  <m_primary>  (14) 
energy

$$$$
14:0
     RDKit          3D

 40 40  0  0  0  0  0  0  0  0999 V2000
   59.2094   36.0282   47.5254 H   0  0  0  0  0  0  0  0  0  0  0  0
   59.6170   35.0930   47.1140 C   0  0  0  0  0  0  0  0  0  0  0  0
   60.4280   34.2570   48.0180 C   0  0  0  0  0  0  0  0  0  0  0  0
   59.8390   33.5040   48.8400 O   0  0  0  0  0  0  0  0  0  0  0  0
   61.8250   34.2470   47.9340 O   0  0  0  0  0  0  0  0  0  0  0  0
   62.5280   33.5160   46.9350 C   0  0  0  0  0  0  0  0  0  0  0  0
   63.4364   34.0690   46.6539 H   0  0  0  0  0  0  0  0  0  0  0  0
   61.8737   33.3908   46.0596 H   0  0  0  0  0  0  0  0  0  0  0  0
   62.9250   32.1240   47.4630 C   0  0  0  0  0  0  0  0  0  0  0  0
   64.0216   32.0889   47.5420 H   0  0  0  0  0  0  0  0  0  0  0  0
   62.5153   31.3954   46.7479 H   0  0  0  0  0  0  0  0  0  0  0  0
   62.3540   31.7690   48.7930 N   0  0  0  0  0  0  0  0  0  0  0  0
   61.7810   32.5980   49.0850 H   0  0  0  0  0  0  0  0  0  0  0  0
   61.4410   30.5970   48.6930 C   0  0  0  0  0  0  0  0  0  0  0  0
   60.5951   30.7486   49.3796 H   0  0  0  0  0  0  0  0  0  0  0  0
   62.0184   29.6987   48.9569 H   0  0  0  0  0  0  0  0  0  0  0  0
   60.8940   30.4010   47.2730 C   0  0  0  0  0  0  0  0  0  0  0  0
   59.8597   30.0304   47.3264 H   0  0  0  0  0  0  0  0  0  0  0  0
   60.9121   31.3615   46.7373 H   0  0  0  0  0  0  0  0  0  0  0  0
   61.5180   29.6705   46.7373 H   0  0  0  0  0  0  0  0  0  0  0  0
   63.3870   31.5490   49.8390 C   0  0  0  0  0  0  0  0  0  0  0  0
   62.9366   31.7423   50.8238 H   0  0  0  0  0  0  0  0  0  0  0  0
   63.7358   30.5099   49.7464 H   0  0  0  0  0  0  0  0  0  0  0  0
   64.6060   32.4610   49.6710 C   0  0  0  0  0  0  0  0  0  0  0  0
   64.9889   32.7475   50.6616 H   0  0  0  0  0  0  0  0  0  0  0  0
   65.3903   31.9261   49.1154 H   0  0  0  0  0  0  0  0  0  0  0  0
   64.3142   33.3644   49.1154 H   0  0  0  0  0  0  0  0  0  0  0  0
   59.3330   34.8120   45.8330 C   0  0  0  0  0  0  0  0  0  0  0  0
   59.6230   35.5599   45.0803 H   0  0  0  0  0  0  0  0  0  0  0  0
   58.6650   33.5870   45.3420 C   0  0  0  0  0  0  0  0  0  0  0  0
   58.3940   33.4600   43.9710 C   0  0  0  0  0  0  0  0  0  0  0  0
   58.6595   34.2761   43.2829 H   0  0  0  0  0  0  0  0  0  0  0  0
   57.7880   32.3010   43.4750 C   0  0  0  0  0  0  0  0  0  0  0  0
   57.5614   32.2158   42.4020 H   0  0  0  0  0  0  0  0  0  0  0  0
   57.4700   31.2510   44.3410 C   0  0  0  0  0  0  0  0  0  0  0  0
   56.6270   29.6760   43.6660 Br  0  0  0  0  0  0  0  0  0  0  0  0
   57.7770   31.3510   45.7020 C   0  0  0  0  0  0  0  0  0  0  0  0
   57.5374   30.5201   46.3818 H   0  0  0  0  0  0  0  0  0  0  0  0
   58.3880   32.5060   46.1990 C   0  0  0  0  0  0  0  0  0  0  0  0
   58.6533   32.5700   47.2646 H   0  0  0  0  0  0  0  0  0  0  0  0
  1  2  1  0
  2  3  1  0
  3  4  2  0
  3  5  1  0
  5  6  1  0
  6  7  1  0
  6  8  1  0
  6  9  1  0
  9 10  1  0
  9 11  1  0
  9 12  1  0
 12 13  1  0
 12 14  1  0
 14 15  1  0
 14 16  1  0
 14 17  1  0
 17 18  1  0
 17 19  1  0
 17 20  1  0
 12 21  1  0
 21 22  1  0
 21 23  1  0
 21 24  1  0
 24 25  1  0
 24 26  1  0
 24 27  1  0
  2 28  2  0
 28 29  1  0
 28 30  1  0
 30 31  2  0
 31 32  1  0
 31 33  1  0
 33 34  1  0
 33 35  2  0
 35 36  1  0
 35 37  1  0
 37 38  1  0
 37 39  2  0
 39 40  1  0
 39 30  1  0
M  CHG  1  12   1
M  END
>  <UniqueID>  (15) 
15

>  <SMILES>  (15) 
CC[NH+](CC)CCOC(=O)/C=C\c1ccc(Br)cc1

>  <Energy>  (15) 
42.06880017399883

>  <Genealogy>  (15) 
CC[NH+](CC)CCOC(=O)C=Cc1ccc(Br)cc1 (protonated)
CC[NH+](CC)CCOC(=O)/C=C\c1ccc(Br)cc1 (cis-trans isomerization)
CC[NH+](CC)CCOC(=O)/C=C\c1ccc(Br)cc1 (3D coordinates assigned)
CC[NH+](CC)CCOC(=O)/C=C\c1ccc(Br)cc1 (optimized conformer: 42.06880017399883 kcal/mol)

>  <smiles>  (15) 
CCN(CC)CCOC(=O)C=Cc1ccc(Br)cc1

>  <score_type>  (15) 
oracle

>  <origin>  (15) 
adg

>  <m_score__min__energy>  (15) 
-4.8099999999999996

>  <m_primary>  (15) 
energy

$$$$
15:0
     RDKit          3D

 43 45  0  0  0  0  0  0  0  0999 V2000
   57.4243   34.6138   45.2959 H   0  0  0  0  0  0  0  0  0  0  0  0
   58.0240   33.9730   45.9590 C   0  0  0  0  0  0  0  0  0  0  0  0
   58.7440   34.5760   46.9170 C   0  0  0  0  0  0  0  0  0  0  0  0
   58.2498   35.3582   47.5119 H   0  0  0  0  0  0  0  0  0  0  0  0
   60.1610   34.2620   47.2310 C   0  0  0  0  0  0  0  0  0  0  0  0
   61.0600   34.1630   46.1600 C   0  0  0  0  0  0  0  0  0  0  0  0
   60.7151   34.3668   45.1355 H   0  0  0  0  0  0  0  0  0  0  0  0
   62.3800   33.8100   46.3850 C   0  0  0  0  0  0  0  0  0  0  0  0
   63.0896   33.7659   45.5456 H   0  0  0  0  0  0  0  0  0  0  0  0
   62.8070   33.5110   47.6760 C   0  0  0  0  0  0  0  0  0  0  0  0
   64.1360   33.1210   47.9000 C   0  0  0  0  0  0  0  0  0  0  0  0
   64.8423   33.0730   47.0580 H   0  0  0  0  0  0  0  0  0  0  0  0
   64.5650   32.7940   49.1860 C   0  0  0  0  0  0  0  0  0  0  0  0
   65.6095   32.4946   49.3572 H   0  0  0  0  0  0  0  0  0  0  0  0
   63.6730   32.8460   50.2530 C   0  0  0  0  0  0  0  0  0  0  0  0
   64.0131   32.5781   51.2642 H   0  0  0  0  0  0  0  0  0  0  0  0
   62.3470   33.2370   50.0460 C   0  0  0  0  0  0  0  0  0  0  0  0
   61.6514   33.2687   50.8975 H   0  0  0  0  0  0  0  0  0  0  0  0
   61.8870   33.5930   48.7540 C   0  0  0  0  0  0  0  0  0  0  0  0
   60.5830   34.0040   48.5220 N   0  0  0  0  0  0  0  0  0  0  0  0
   59.6520   34.1770   49.6570 C   0  0  0  0  0  0  0  0  0  0  0  0
   60.2040   34.0744   50.6029 H   0  0  0  0  0  0  0  0  0  0  0  0
   59.1937   35.1757   49.6064 H   0  0  0  0  0  0  0  0  0  0  0  0
   58.8655   33.4096   49.6064 H   0  0  0  0  0  0  0  0  0  0  0  0
   57.9740   32.5110   45.7250 C   0  0  0  0  0  0  0  0  0  0  0  0
   57.4410   32.0320   44.5230 C   0  0  0  0  0  0  0  0  0  0  0  0
   57.0570   32.7412   43.7749 H   0  0  0  0  0  0  0  0  0  0  0  0
   57.3930   30.6580   44.2660 C   0  0  0  0  0  0  0  0  0  0  0  0
   56.9588   30.2965   43.3222 H   0  0  0  0  0  0  0  0  0  0  0  0
   57.8950   29.7300   45.2030 C   0  0  0  0  0  0  0  0  0  0  0  0
   57.8410   28.3030   44.9400 N   0  0  0  0  0  0  0  0  0  0  0  0
   58.1530   27.7760   43.6060 C   0  0  0  0  0  0  0  0  0  0  0  0
   58.7111   26.8333   43.7055 H   0  0  0  0  0  0  0  0  0  0  0  0
   57.2180   27.5923   43.0564 H   0  0  0  0  0  0  0  0  0  0  0  0
   58.7637   28.5074   43.0564 H   0  0  0  0  0  0  0  0  0  0  0  0
   57.4690   27.3630   46.0050 C   0  0  0  0  0  0  0  0  0  0  0  0
   57.6529   27.8277   46.9849 H   0  0  0  0  0  0  0  0  0  0  0  0
   56.4026   27.1091   45.9139 H   0  0  0  0  0  0  0  0  0  0  0  0
   58.0728   26.4481   45.9139 H   0  0  0  0  0  0  0  0  0  0  0  0
   58.4590   30.2250   46.3960 C   0  0  0  0  0  0  0  0  0  0  0  0
   58.8680   29.5216   47.1362 H   0  0  0  0  0  0  0  0  0  0  0  0
   58.5050   31.5980   46.6500 C   0  0  0  0  0  0  0  0  0  0  0  0
   58.9604   31.9663   47.5811 H   0  0  0  0  0  0  0  0  0  0  0  0
  1  2  1  0
  2  3  2  0
  3  4  1  0
  3  5  1  0
  5  6  2  0
  6  7  1  0
  6  8  1  0
  8  9  1  0
  8 10  2  0
 10 11  1  0
 11 12  1  0
 11 13  2  0
 13 14  1  0
 13 15  1  0
 15 16  1  0
 15 17  2  0
 17 18  1  0
 17 19  1  0
 19 20  2  0
 20 21  1  0
 21 22  1  0
 21 23  1  0
 21 24  1  0
  2 25  1  0
 25 26  2  0
 26 27  1  0
 26 28  1  0
 28 29  1  0
 28 30  2  0
 30 31  1  0
 31 32  1  0
 32 33  1  0
 32 34  1  0
 32 35  1  0
 31 36  1  0
 36 37  1  0
 36 38  1  0
 36 39  1  0
 30 40  1  0
 40 41  1  0
 40 42  2  0
 42 43  1  0
 20  5  1  0
 42 25  1  0
 19 10  1  0
M  CHG  1  20   1
M  END
>  <UniqueID>  (16) 
16

>  <SMILES>  (16) 
CN(C)c1ccc(/C=C\c2ccc3ccccc3[n+]2C)cc1

>  <Energy>  (16) 
67.66797469925073

>  <Genealogy>  (16) 
CN(C)c1ccc(/C=C\c2ccc3ccccc3[n+]2C)cc1 (cis-trans isomerization)
CN(C)c1ccc(/C=C\c2ccc3ccccc3[n+]2C)cc1 (3D coordinates assigned)
CN(C)c1ccc(/C=C\c2ccc3ccccc3[n+]2C)cc1 (optimized conformer: 67.66797469925073 kcal/mol)

>  <smiles>  (16) 
CN(C)c1ccc(C=Cc2ccc3ccccc3[n+]2C)cc1

>  <score_type>  (16) 
oracle

>  <origin>  (16) 
adg

>  <m_score__min__energy>  (16) 
-6.2199999999999998

>  <m_primary>  (16) 
energy

$$$$
16:0
     RDKit          3D

 50 51  0  0  0  0  0  0  0  0999 V2000
   62.9650   33.5170   46.9000 C   0  0  0  0  0  0  0  0  0  0  0  0
   62.8860   32.1390   47.5550 C   0  0  0  0  0  0  0  0  0  0  0  0
   61.8040   32.0710   48.6550 C   0  0  0  0  0  0  0  0  0  0  0  0
   60.9000   30.9200   48.4680 N   0  0  0  0  0  0  0  0  0  0  0  0
   61.1120   30.0260   47.3130 C   0  0  0  0  0  0  0  0  0  0  0  0
   60.3040   30.4540   46.0660 C   0  0  0  0  0  0  0  0  0  0  0  0
   59.0200   29.7240   45.9230 N   0  0  0  0  0  0  0  0  0  0  0  0
   58.8810   28.6580   46.9430 C   0  0  0  0  0  0  0  0  0  0  0  0
   57.7430   27.6770   46.5960 C   0  0  0  0  0  0  0  0  0  0  0  0
   56.8890   28.2190   45.6100 O   0  0  0  0  0  0  0  0  0  0  0  0
   57.6000   28.3570   44.3920 C   0  0  0  0  0  0  0  0  0  0  0  0
   58.9230   29.1370   44.5690 C   0  0  0  0  0  0  0  0  0  0  0  0
   59.6540   30.9050   49.2050 C   0  0  0  0  0  0  0  0  0  0  0  0
   59.4470   30.0100   50.0660 O   0  0  0  0  0  0  0  0  0  0  0  0
   58.5850   31.9340   48.9800 C   0  0  0  0  0  0  0  0  0  0  0  0
   58.2830   32.0130   47.5890 O   0  0  0  0  0  0  0  0  0  0  0  0
   58.6240   33.0980   46.7610 C   0  0  0  0  0  0  0  0  0  0  0  0
   59.4210   34.1680   47.2220 C   0  0  0  0  0  0  0  0  0  0  0  0
   59.7370   35.2330   46.3720 C   0  0  0  0  0  0  0  0  0  0  0  0
   59.2690   35.2410   45.0570 C   0  0  0  0  0  0  0  0  0  0  0  0
   58.4870   34.1850   44.5870 C   0  0  0  0  0  0  0  0  0  0  0  0
   58.1570   33.1190   45.4350 C   0  0  0  0  0  0  0  0  0  0  0  0
   57.3190   32.0600   44.9360 C   0  0  0  0  0  0  0  0  0  0  0  0
   56.6370   31.2120   44.5430 N   0  0  0  0  0  0  0  0  0  0  0  0
   63.0094   34.2916   47.6798 H   0  0  0  0  0  0  0  0  0  0  0  0
   63.8679   33.5744   46.2743 H   0  0  0  0  0  0  0  0  0  0  0  0
   62.0746   33.6772   46.2743 H   0  0  0  0  0  0  0  0  0  0  0  0
   62.6507   31.3932   46.7815 H   0  0  0  0  0  0  0  0  0  0  0  0
   63.8582   31.9363   48.0280 H   0  0  0  0  0  0  0  0  0  0  0  0
   62.2974   31.9801   49.6339 H   0  0  0  0  0  0  0  0  0  0  0  0
   61.2019   32.9898   48.5978 H   0  0  0  0  0  0  0  0  0  0  0  0
   62.1818   30.0307   47.0569 H   0  0  0  0  0  0  0  0  0  0  0  0
   60.7656   29.0231   47.6032 H   0  0  0  0  0  0  0  0  0  0  0  0
   60.0880   31.5299   46.1416 H   0  0  0  0  0  0  0  0  0  0  0  0
   60.9153   30.2166   45.1829 H   0  0  0  0  0  0  0  0  0  0  0  0
   58.2290   30.4040   46.0320 H   0  0  0  0  0  0  0  0  0  0  0  0
   59.8263   28.0990   47.0046 H   0  0  0  0  0  0  0  0  0  0  0  0
   58.6396   29.1347   47.9045 H   0  0  0  0  0  0  0  0  0  0  0  0
   58.1786   26.7401   46.2187 H   0  0  0  0  0  0  0  0  0  0  0  0
   57.1530   27.4897   47.5053 H   0  0  0  0  0  0  0  0  0  0  0  0
   57.8300   27.3548   44.0013 H   0  0  0  0  0  0  0  0  0  0  0  0
   56.9658   28.9246   43.6951 H   0  0  0  0  0  0  0  0  0  0  0  0
   59.7681   28.4501   44.4142 H   0  0  0  0  0  0  0  0  0  0  0  0
   58.9474   29.9536   43.8324 H   0  0  0  0  0  0  0  0  0  0  0  0
   57.6795   31.6488   49.5357 H   0  0  0  0  0  0  0  0  0  0  0  0
   58.9403   32.9133   49.3331 H   0  0  0  0  0  0  0  0  0  0  0  0
   59.7959   34.1643   48.2561 H   0  0  0  0  0  0  0  0  0  0  0  0
   60.3550   36.0651   46.7403 H   0  0  0  0  0  0  0  0  0  0  0  0
   59.5168   36.0804   44.3906 H   0  0  0  0  0  0  0  0  0  0  0  0
   58.1283   34.1893   43.5471 H   0  0  0  0  0  0  0  0  0  0  0  0
  1  2  1  0
  2  3  1  0
  3  4  1  0
  4  5  1  0
  5  6  1  0
  6  7  1  0
  7  8  1  0
  8  9  1  0
  9 10  1  0
 10 11  1  0
 11 12  1  0
  4 13  1  0
 13 14  2  0
 13 15  1  0
 15 16  1  0
 16 17  1  0
 17 18  2  0
 18 19  1  0
 19 20  2  0
 20 21  1  0
 21 22  2  0
 22 23  1  0
 23 24  3  0
 12  7  1  0
 22 17  1  0
  1 25  1  0
  1 26  1  0
  1 27  1  0
  2 28  1  0
  2 29  1  0
  3 30  1  0
  3 31  1  0
  5 32  1  0
  5 33  1  0
  6 34  1  0
  6 35  1  0
  7 36  1  0
  8 37  1  0
  8 38  1  0
  9 39  1  0
  9 40  1  0
 11 41  1  0
 11 42  1  0
 12 43  1  0
 12 44  1  0
 15 45  1  0
 15 46  1  0
 18 47  1  0
 19 48  1  0
 20 49  1  0
 21 50  1  0
M  CHG  1   7   1
M  END
>  <UniqueID>  (17) 
17

>  <SMILES>  (17) 
CCCN(CC[NH+]1CCOCC1)C(=O)COc1ccccc1C#N

>  <Energy>  (17) 
55.903016580328256

>  <Genealogy>  (17) 
CCCN(CC[NH+]1CCOCC1)C(=O)COc1ccccc1C#N (protonated)
CCCN(CC[NH+]1CCOCC1)C(=O)COc1ccccc1C#N (3D coordinates assigned)
CCCN(CC[NH+]1CCOCC1)C(=O)COc1ccccc1C#N (nonaromatic ring conformer: 55.903016580328256 kcal/mol)

>  <smiles>  (17) 
CCCN(CCN1CCOCC1)C(=O)COc1ccccc1C#N

>  <score_type>  (17) 
oracle

>  <origin>  (17) 
adg

>  <m_score__min__energy>  (17) 
-5.1100000000000003

>  <m_primary>  (17) 
energy

$$$$
17:0
     RDKit          3D

 45 46  0  0  0  0  0  0  0  0999 V2000
   58.9010   28.7060   47.7120 C   0  0  0  0  0  0  0  0  0  0  0  0
   59.5460   28.3660   46.3700 C   0  0  0  0  0  0  0  0  0  0  0  0
   59.9420   29.6160   45.5710 C   0  0  0  0  0  0  0  0  0  0  0  0
   58.8200   30.6200   45.4470 C   0  0  0  0  0  0  0  0  0  0  0  0
   57.6310   30.4880   44.7330 C   0  0  0  0  0  0  0  0  0  0  0  0
   57.1730   29.3030   43.9370 C   0  0  0  0  0  0  0  0  0  0  0  0
   56.2930   29.7360   42.7710 C   0  0  0  0  0  0  0  0  0  0  0  0
   56.8880   31.6060   44.8710 N   0  0  0  0  0  0  0  0  0  0  0  0
   57.5690   32.4550   45.6250 N   0  0  0  0  0  0  0  0  0  0  0  0
   57.0880   33.7850   45.9750 C   0  0  0  0  0  0  0  0  0  0  0  0
   58.7380   31.8930   45.9910 C   0  0  0  0  0  0  0  0  0  0  0  0
   59.7380   32.5540   46.7800 N   0  0  0  0  0  0  0  0  0  0  0  0
   60.1970   31.9530   48.0360 C   0  0  0  0  0  0  0  0  0  0  0  0
   61.5500   32.5440   48.4550 C   0  0  0  0  0  0  0  0  0  0  0  0
   62.3990   32.7550   47.2640 N   0  0  0  0  0  0  0  0  0  0  0  0
   63.7720   33.1010   47.6690 C   0  0  0  0  0  0  0  0  0  0  0  0
   61.8450   33.8040   46.3690 C   0  0  0  0  0  0  0  0  0  0  0  0
   60.3010   33.8320   46.3360 C   0  0  0  0  0  0  0  0  0  0  0  0
   59.5523   28.3627   48.5293 H   0  0  0  0  0  0  0  0  0  0  0  0
   58.7619   29.7946   47.7866 H   0  0  0  0  0  0  0  0  0  0  0  0
   57.9243   28.2056   47.7866 H   0  0  0  0  0  0  0  0  0  0  0  0
   60.4490   27.7657   46.5552 H   0  0  0  0  0  0  0  0  0  0  0  0
   58.8049   27.8117   45.7754 H   0  0  0  0  0  0  0  0  0  0  0  0
   60.7908   30.1001   46.0762 H   0  0  0  0  0  0  0  0  0  0  0  0
   60.2015   29.2867   44.5540 H   0  0  0  0  0  0  0  0  0  0  0  0
   58.0525   28.7707   43.5457 H   0  0  0  0  0  0  0  0  0  0  0  0
   56.5855   28.6450   44.5942 H   0  0  0  0  0  0  0  0  0  0  0  0
   55.3691   30.1906   43.1580 H   0  0  0  0  0  0  0  0  0  0  0  0
   56.8338   30.4709   42.1566 H   0  0  0  0  0  0  0  0  0  0  0  0
   56.0408   28.8591   42.1566 H   0  0  0  0  0  0  0  0  0  0  0  0
   57.0517   33.8854   47.0698 H   0  0  0  0  0  0  0  0  0  0  0  0
   57.7692   34.5423   45.5597 H   0  0  0  0  0  0  0  0  0  0  0  0
   56.0800   33.9314   45.5597 H   0  0  0  0  0  0  0  0  0  0  0  0
   59.4559   32.1522   48.8241 H   0  0  0  0  0  0  0  0  0  0  0  0
   60.3138   30.8692   47.8886 H   0  0  0  0  0  0  0  0  0  0  0  0
   61.3861   33.5069   48.9609 H   0  0  0  0  0  0  0  0  0  0  0  0
   62.0537   31.8448   49.1387 H   0  0  0  0  0  0  0  0  0  0  0  0
   62.4530   31.8540   46.7290 H   0  0  0  0  0  0  0  0  0  0  0  0
   63.8373   33.1175   48.7669 H   0  0  0  0  0  0  0  0  0  0  0  0
   64.4716   32.3511   47.2713 H   0  0  0  0  0  0  0  0  0  0  0  0
   64.0326   34.0929   47.2713 H   0  0  0  0  0  0  0  0  0  0  0  0
   62.2038   34.7839   46.7170 H   0  0  0  0  0  0  0  0  0  0  0  0
   62.1867   33.5733   45.3492 H   0  0  0  0  0  0  0  0  0  0  0  0
   59.9424   34.6321   47.0002 H   0  0  0  0  0  0  0  0  0  0  0  0
   59.9781   34.0137   45.3003 H   0  0  0  0  0  0  0  0  0  0  0  0
  1  2  1  0
  2  3  1  0
  3  4  1  0
  4  5  1  0
  5  6  1  0
  6  7  1  0
  5  8  2  0
  8  9  1  0
  9 10  1  0
  9 11  1  0
 11 12  1  0
 12 13  1  0
 13 14  1  0
 14 15  1  0
 15 16  1  0
 15 17  1  0
 17 18  1  0
 11  4  2  0
 18 12  1  0
  1 19  1  0
  1 20  1  0
  1 21  1  0
  2 22  1  0
  2 23  1  0
  3 24  1  0
  3 25  1  0
  6 26  1  0
  6 27  1  0
  7 28  1  0
  7 29  1  0
  7 30  1  0
 10 31  1  0
 10 32  1  0
 10 33  1  0
 13 34  1  0
 13 35  1  0
 14 36  1  0
 14 37  1  0
 15 38  1  0
 16 39  1  0
 16 40  1  0
 16 41  1  0
 17 42  1  0
 17 43  1  0
 18 44  1  0
 18 45  1  0
M  CHG  1  15   1
M  END
>  <UniqueID>  (18) 
18

>  <SMILES>  (18) 
CCCc1c(CC)nn(C)c1N1CC[NH+](C)CC1

>  <Energy>  (18) 
73.6982326999629

>  <Genealogy>  (18) 
CCCc1c(CC)nn(C)c1N1CC[NH+](C)CC1 (protonated)
CCCc1c(CC)nn(C)c1N1CC[NH+](C)CC1 (3D coordinates assigned)
CCCc1c(CC)nn(C)c1N1CC[NH+](C)CC1 (nonaromatic ring conformer: 73.6982326999629 kcal/mol)

>  <smiles>  (18) 
CCCc1c(CC)nn(C)c1N1CCN(C)CC1

>  <score_type>  (18) 
oracle

>  <origin>  (18) 
adg

>  <m_score__min__energy>  (18) 
-4.6100000000000003

>  <m_primary>  (18) 
energy

$$$$
18:0
     RDKit          3D

 37 36  0  0  0  0  0  0  0  0999 V2000
   55.3570   29.2520   44.9810 N   0  0  0  0  0  0  0  0  0  0  0  0
   55.5180   29.7900   43.6340 C   0  0  0  0  0  0  0  0  0  0  0  0
   56.6710   30.7940   43.6000 C   0  0  0  0  0  0  0  0  0  0  0  0
   56.9450   31.2790   44.9580 N   0  0  0  0  0  0  0  0  0  0  0  0
   58.3680   31.5920   45.1750 C   0  0  0  0  0  0  0  0  0  0  0  0
   59.0750   30.5880   46.1010 C   0  0  0  0  0  0  0  0  0  0  0  0
   58.1280   29.5820   46.6000 N   0  0  0  0  0  0  0  0  0  0  0  0
   58.8070   28.3260   46.9620 C   0  0  0  0  0  0  0  0  0  0  0  0
   57.8190   27.1580   46.9290 C   0  0  0  0  0  0  0  0  0  0  0  0
   56.9420   27.2520   45.7540 N   0  0  0  0  0  0  0  0  0  0  0  0
   57.4240   26.4100   44.6450 C   0  0  0  0  0  0  0  0  0  0  0  0
   58.1230   27.2720   43.5890 C   0  0  0  0  0  0  0  0  0  0  0  0
   58.3790   28.6280   44.0760 N   0  0  0  0  0  0  0  0  0  0  0  0
   55.1570   28.2280   44.9020 H   0  0  0  0  0  0  0  0  0  0  0  0
   56.2780   29.3370   45.4680 H   0  0  0  0  0  0  0  0  0  0  0  0
   55.7328   28.9664   42.9372 H   0  0  0  0  0  0  0  0  0  0  0  0
   54.5894   30.3001   43.3381 H   0  0  0  0  0  0  0  0  0  0  0  0
   57.5704   30.3044   43.1982 H   0  0  0  0  0  0  0  0  0  0  0  0
   56.3951   31.6439   42.9584 H   0  0  0  0  0  0  0  0  0  0  0  0
   56.6250   30.5640   45.6530 H   0  0  0  0  0  0  0  0  0  0  0  0
   58.8791   31.5890   44.2009 H   0  0  0  0  0  0  0  0  0  0  0  0
   58.4153   32.5764   45.6635 H   0  0  0  0  0  0  0  0  0  0  0  0
   59.8758   30.0829   45.5409 H   0  0  0  0  0  0  0  0  0  0  0  0
   59.4936   31.1343   46.9591 H   0  0  0  0  0  0  0  0  0  0  0  0
   57.4430   29.3810   45.8350 H   0  0  0  0  0  0  0  0  0  0  0  0
   59.6198   28.1338   46.2461 H   0  0  0  0  0  0  0  0  0  0  0  0
   59.2145   28.4206   47.9793 H   0  0  0  0  0  0  0  0  0  0  0  0
   58.3793   26.2123   46.8865 H   0  0  0  0  0  0  0  0  0  0  0  0
   57.1987   27.1940   47.8367 H   0  0  0  0  0  0  0  0  0  0  0  0
   56.9460   28.2470   45.4290 H   0  0  0  0  0  0  0  0  0  0  0  0
   58.1349   25.6670   45.0357 H   0  0  0  0  0  0  0  0  0  0  0  0
   56.5654   25.9021   44.1816 H   0  0  0  0  0  0  0  0  0  0  0  0
   59.0816   26.8022   43.3237 H   0  0  0  0  0  0  0  0  0  0  0  0
   57.4612   27.3428   42.7132 H   0  0  0  0  0  0  0  0  0  0  0  0
   57.5080   29.0020   44.5160 H   0  0  0  0  0  0  0  0  0  0  0  0
   59.1410   28.6170   44.7930 H   0  0  0  0  0  0  0  0  0  0  0  0
   58.6460   29.2530   43.2820 H   0  0  0  0  0  0  0  0  0  0  0  0
  1  2  1  0
  2  3  1  0
  3  4  1  0
  4  5  1  0
  5  6  1  0
  6  7  1  0
  7  8  1  0
  8  9  1  0
  9 10  1  0
 10 11  1  0
 11 12  1  0
 12 13  1  0
  1 14  1  0
  1 15  1  0
  2 16  1  0
  2 17  1  0
  3 18  1  0
  3 19  1  0
  4 20  1  0
  5 21  1  0
  5 22  1  0
  6 23  1  0
  6 24  1  0
  7 25  1  0
  8 26  1  0
  8 27  1  0
  9 28  1  0
  9 29  1  0
 10 30  1  0
 11 31  1  0
 11 32  1  0
 12 33  1  0
 12 34  1  0
 13 35  1  0
 13 36  1  0
 13 37  1  0
M  CHG  1  13   1
M  END
>  <UniqueID>  (19) 
19

>  <SMILES>  (19) 
NCCNCCNCCNCC[NH3+]

>  <Energy>  (19) 
22.82270415242932

>  <Genealogy>  (19) 
NCCNCCNCCNCC[NH3+] (protonated)
NCCNCCNCCNCC[NH3+] (3D coordinates assigned)
NCCNCCNCCNCC[NH3+] (optimized conformer: 22.82270415242932 kcal/mol)

>  <smiles>  (19) 
NCCNCCNCCNCCN

>  <score_type>  (19) 
oracle

>  <origin>  (19) 
adg

>  <m_score__min__energy>  (19) 
-1.5900000000000001

>  <m_primary>  (19) 
energy

$$$$
19:0
     RDKit          3D

 24 24  0  0  0  0  0  0  0  0999 V2000
   58.8380   33.4670   44.6120 C   0  0  0  0  0  0  0  0  0  0  0  0
   58.4690   32.0760   44.8710 C   0  0  0  0  0  0  0  0  0  0  0  0
   58.1640   30.9290   45.0840 C   0  0  0  0  0  0  0  0  0  0  0  0
   57.8020   29.5540   45.3390 C   0  0  0  0  0  0  0  0  0  0  0  0
   58.7760   28.6370   45.7630 C   0  0  0  0  0  0  0  0  0  0  0  0
   60.1000   29.0780   45.9320 O   0  0  0  0  0  0  0  0  0  0  0  0
   61.1110   28.9990   44.9330 C   0  0  0  0  0  0  0  0  0  0  0  0
   58.3990   27.3040   46.0040 C   0  0  0  0  0  0  0  0  0  0  0  0
   57.0650   26.9140   45.8310 C   0  0  0  0  0  0  0  0  0  0  0  0
   56.6670   25.4850   46.0520 C   0  0  0  0  0  0  0  0  0  0  0  0
   56.1440   27.8230   45.3990 N   0  0  0  0  0  0  0  0  0  0  0  0
   56.4780   29.1210   45.1570 C   0  0  0  0  0  0  0  0  0  0  0  0
   55.5910   29.9290   44.7680 O   0  0  0  0  0  0  0  0  0  0  0  0
   58.9776   33.9934   45.5677 H   0  0  0  0  0  0  0  0  0  0  0  0
   59.7751   33.4967   44.0367 H   0  0  0  0  0  0  0  0  0  0  0  0
   58.0389   33.9573   44.0367 H   0  0  0  0  0  0  0  0  0  0  0  0
   62.0970   28.9220   45.4145 H   0  0  0  0  0  0  0  0  0  0  0  0
   60.9386   28.1116   44.3063 H   0  0  0  0  0  0  0  0  0  0  0  0
   61.0786   29.9024   44.3063 H   0  0  0  0  0  0  0  0  0  0  0  0
   59.1504   26.5688   46.3278 H   0  0  0  0  0  0  0  0  0  0  0  0
   56.6107   25.2829   47.1318 H   0  0  0  0  0  0  0  0  0  0  0  0
   55.6840   25.3030   45.5931 H   0  0  0  0  0  0  0  0  0  0  0  0
   57.4144   24.8210   45.5931 H   0  0  0  0  0  0  0  0  0  0  0  0
   55.1540   27.5200   45.2490 H   0  0  0  0  0  0  0  0  0  0  0  0
  1  2  1  0
  2  3  3  0
  3  4  1  0
  4  5  2  0
  5  6  1  0
  6  7  1  0
  5  8  1  0
  8  9  2  0
  9 10  1  0
  9 11  1  0
 11 12  1  0
 12 13  2  0
 12  4  1  0
  1 14  1  0
  1 15  1  0
  1 16  1  0
  7 17  1  0
  7 18  1  0
  7 19  1  0
  8 20  1  0
 10 21  1  0
 10 22  1  0
 10 23  1  0
 11 24  1  0
M  END
>  <UniqueID>  (20) 
20

>  <SMILES>  (20) 
CC#Cc1c(OC)cc(C)[nH]c1=O

>  <Energy>  (20) 
17.193981916517263

>  <Genealogy>  (20) 
CC#Cc1c(OC)cc(C)[nH]c1=O (3D coordinates assigned)
CC#Cc1c(OC)cc(C)[nH]c1=O (optimized conformer: 17.193981916517263 kcal/mol)

>  <smiles>  (20) 
CC#Cc1c(OC)cc(C)[nH]c1=O

>  <score_type>  (20) 
oracle

>  <origin>  (20) 
adg

>  <m_score__min__energy>  (20) 
-4.6799999999999997

>  <m_primary>  (20) 
energy

$$$$
20:0
     RDKit          3D

 35 36  0  0  0  0  0  0  0  0999 V2000
   57.7400   32.2890   42.2040 C   0  0  0  0  0  0  0  0  0  0  0  0
   57.9260   31.5720   43.3150 C   0  0  0  0  0  0  0  0  0  0  0  0
   56.8660   31.4640   44.3750 C   0  0  0  0  0  0  0  0  0  0  0  0
   56.8860   30.1370   44.9970 N   0  0  0  0  0  0  0  0  0  0  0  0
   55.9360   29.1890   44.8770 C   0  0  0  0  0  0  0  0  0  0  0  0
   54.7780   29.3290   44.1210 O   0  0  0  0  0  0  0  0  0  0  0  0
   56.2710   28.0790   45.6130 C   0  0  0  0  0  0  0  0  0  0  0  0
   55.5170   26.9150   45.7080 O   0  0  0  0  0  0  0  0  0  0  0  0
   57.4880   28.3380   46.2240 C   0  0  0  0  0  0  0  0  0  0  0  0
   58.2630   27.4280   47.1010 C   0  0  0  0  0  0  0  0  0  0  0  0
   58.5500   26.0150   46.7000 C   0  0  0  0  0  0  0  0  0  0  0  0
   58.7130   27.8480   48.2010 O   0  0  0  0  0  0  0  0  0  0  0  0
   57.8420   29.6250   45.8130 C   0  0  0  0  0  0  0  0  0  0  0  0
   59.0460   30.3640   46.2350 C   0  0  0  0  0  0  0  0  0  0  0  0
   60.2740   29.6980   46.3500 C   0  0  0  0  0  0  0  0  0  0  0  0
   61.4160   30.3960   46.7540 C   0  0  0  0  0  0  0  0  0  0  0  0
   61.3390   31.7630   47.0590 C   0  0  0  0  0  0  0  0  0  0  0  0
   62.5720   32.5200   47.4550 C   0  0  0  0  0  0  0  0  0  0  0  0
   60.1120   32.4310   46.9230 C   0  0  0  0  0  0  0  0  0  0  0  0
   58.9710   31.7330   46.5170 C   0  0  0  0  0  0  0  0  0  0  0  0
   58.5364   32.3476   41.4474 H   0  0  0  0  0  0  0  0  0  0  0  0
   56.7904   32.8211   42.0453 H   0  0  0  0  0  0  0  0  0  0  0  0
   58.8813   31.0459   43.4584 H   0  0  0  0  0  0  0  0  0  0  0  0
   57.0482   32.2267   45.1464 H   0  0  0  0  0  0  0  0  0  0  0  0
   55.8825   31.6198   43.9076 H   0  0  0  0  0  0  0  0  0  0  0  0
   58.6756   25.3965   47.6009 H   0  0  0  0  0  0  0  0  0  0  0  0
   57.7125   25.6262   46.1022 H   0  0  0  0  0  0  0  0  0  0  0  0
   59.4728   25.9837   46.1022 H   0  0  0  0  0  0  0  0  0  0  0  0
   60.3393   28.6239   46.1219 H   0  0  0  0  0  0  0  0  0  0  0  0
   62.3793   29.8708   46.8331 H   0  0  0  0  0  0  0  0  0  0  0  0
   62.6401   32.5618   48.5521 H   0  0  0  0  0  0  0  0  0  0  0  0
   63.4600   32.0113   47.0517 H   0  0  0  0  0  0  0  0  0  0  0  0
   62.5201   33.5421   47.0517 H   0  0  0  0  0  0  0  0  0  0  0  0
   60.0481   33.5081   47.1368 H   0  0  0  0  0  0  0  0  0  0  0  0
   58.0111   32.2612   46.4188 H   0  0  0  0  0  0  0  0  0  0  0  0
  1  2  2  0
  2  3  1  0
  3  4  1  0
  4  5  1  0
  5  6  1  0
  5  7  2  0
  7  8  1  0
  7  9  1  0
  9 10  1  0
 10 11  1  0
 10 12  2  0
  9 13  2  0
 13 14  1  0
 14 15  2  0
 15 16  1  0
 16 17  2  0
 17 18  1  0
 17 19  1  0
 19 20  2  0
 13  4  1  0
 20 14  1  0
  1 21  1  0
  1 22  1  0
  2 23  1  0
  3 24  1  0
  3 25  1  0
 11 26  1  0
 11 27  1  0
 11 28  1  0
 15 29  1  0
 16 30  1  0
 18 31  1  0
 18 32  1  0
 18 33  1  0
 19 34  1  0
 20 35  1  0
M  CHG  2   6  -1   8  -1
M  END
>  <UniqueID>  (21) 
21

>  <SMILES>  (21) 
C=CCn1c([O-])c([O-])c(C(C)=O)c1-c1ccc(C)cc1

>  <Energy>  (21) 
66.61676001269585

>  <Genealogy>  (21) 
C=CCn1c([O-])c([O-])c(C(C)=O)c1-c1ccc(C)cc1 (protonated)
C=CCn1c([O-])c([O-])c(C(C)=O)c1-c1ccc(C)cc1 (3D coordinates assigned)
C=CCn1c([O-])c([O-])c(C(C)=O)c1-c1ccc(C)cc1 (optimized conformer: 66.61676001269585 kcal/mol)

>  <smiles>  (21) 
C=CCn1c(O)c(O)c(C(C)=O)c1-c1ccc(C)cc1

>  <score_type>  (21) 
oracle

>  <origin>  (21) 
adg

>  <m_score__min__energy>  (21) 
-12.779999999999999

>  <m_primary>  (21) 
energy

$$$$
21:0
     RDKit          3D

 64 67  0  0  0  0  0  0  0  0999 V2000
   60.6800   28.8390   45.1460 C   0  0  0  0  0  0  0  0  0  0  0  0
   60.8750   29.7900   46.3330 C   0  0  0  0  0  0  0  0  0  0  0  0
   59.5830   30.2750   46.8840 N   0  0  1  0  0  0  0  0  0  0  0  0
   58.6580   30.5790   45.7750 C   0  0  0  0  0  0  0  0  0  0  0  0
   58.9800   29.2690   47.7970 C   0  0  0  0  0  0  0  0  0  0  0  0
   59.4370   29.4600   49.2520 C   0  0  0  0  0  0  0  0  0  0  0  0
   60.4160   30.4940   49.3370 O   0  0  0  0  0  0  0  0  0  0  0  0
   61.5870   30.4580   50.1160 C   0  0  0  0  0  0  0  0  0  0  0  0
   61.7080   29.6180   51.2420 C   0  0  0  0  0  0  0  0  0  0  0  0
   62.8880   29.5960   51.9870 C   0  0  0  0  0  0  0  0  0  0  0  0
   63.9600   30.4090   51.6240 C   0  0  0  0  0  0  0  0  0  0  0  0
   63.8570   31.2490   50.5140 C   0  0  0  0  0  0  0  0  0  0  0  0
   62.6750   31.2850   49.7520 C   0  0  0  0  0  0  0  0  0  0  0  0
   62.5750   32.1940   48.5830 C   0  0  0  0  0  0  0  0  0  0  0  0
   63.7230   32.7190   47.9680 C   0  0  0  0  0  0  0  0  0  0  0  0
   63.5850   33.5580   46.8620 C   0  0  0  0  0  0  0  0  0  0  0  0
   62.3140   33.8690   46.3750 C   0  0  0  0  0  0  0  0  0  0  0  0
   61.1830   33.3320   47.0090 C   0  0  0  0  0  0  0  0  0  0  0  0
   59.8140   33.6320   46.5260 C   0  0  0  0  0  0  0  0  0  0  0  0
   59.6290   34.2100   45.2560 C   0  0  0  0  0  0  0  0  0  0  0  0
   58.3460   34.4720   44.7760 C   0  0  0  0  0  0  0  0  0  0  0  0
   57.2310   34.1630   45.5550 C   0  0  0  0  0  0  0  0  0  0  0  0
   57.3960   33.5930   46.8190 C   0  0  0  0  0  0  0  0  0  0  0  0
   58.6860   33.3220   47.3200 C   0  0  0  0  0  0  0  0  0  0  0  0
   58.8860   32.7730   48.6000 O   0  0  0  0  0  0  0  0  0  0  0  0
   59.2710   33.4970   49.7690 C   0  0  0  0  0  0  0  0  0  0  0  0
   58.8780   32.7490   51.0130 C   0  0  0  0  0  0  0  0  0  0  0  0
   59.6250   32.9040   52.1920 C   0  0  0  0  0  0  0  0  0  0  0  0
   59.2500   32.2290   53.3580 C   0  0  0  0  0  0  0  0  0  0  0  0
   58.1320   31.3910   53.3530 C   0  0  0  0  0  0  0  0  0  0  0  0
   57.3800   31.2350   52.1850 C   0  0  0  0  0  0  0  0  0  0  0  0
   57.7460   31.9150   51.0200 C   0  0  0  0  0  0  0  0  0  0  0  0
   61.3490   32.5170   48.0860 N   0  0  0  0  0  0  0  0  0  0  0  0
   60.4721   27.8252   45.5187 H   0  0  0  0  0  0  0  0  0  0  0  0
   59.8342   29.1852   44.5339 H   0  0  0  0  0  0  0  0  0  0  0  0
   61.5938   28.8244   44.5339 H   0  0  0  0  0  0  0  0  0  0  0  0
   61.4209   29.2585   47.1264 H   0  0  0  0  0  0  0  0  0  0  0  0
   61.4382   30.6645   45.9751 H   0  0  0  0  0  0  0  0  0  0  0  0
   59.7530   31.1700   47.4030 H   0  0  0  0  0  0  0  0  0  0  0  0
   57.6878   30.8979   46.1837 H   0  0  0  0  0  0  0  0  0  0  0  0
   59.0788   31.3861   45.1573 H   0  0  0  0  0  0  0  0  0  0  0  0
   58.5179   29.6796   45.1573 H   0  0  0  0  0  0  0  0  0  0  0  0
   57.8848   29.3628   47.7542 H   0  0  0  0  0  0  0  0  0  0  0  0
   59.3089   28.2725   47.4671 H   0  0  0  0  0  0  0  0  0  0  0  0
   58.5693   29.7314   49.8712 H   0  0  0  0  0  0  0  0  0  0  0  0
   59.8807   28.5199   49.6116 H   0  0  0  0  0  0  0  0  0  0  0  0
   60.8654   28.9747   51.5357 H   0  0  0  0  0  0  0  0  0  0  0  0
   62.9720   28.9355   52.8626 H   0  0  0  0  0  0  0  0  0  0  0  0
   64.8887   30.3887   52.2131 H   0  0  0  0  0  0  0  0  0  0  0  0
   64.7070   31.8881   50.2328 H   0  0  0  0  0  0  0  0  0  0  0  0
   64.7224   32.4709   48.3549 H   0  0  0  0  0  0  0  0  0  0  0  0
   64.4780   33.9747   46.3733 H   0  0  0  0  0  0  0  0  0  0  0  0
   62.2002   34.5289   45.5023 H   0  0  0  0  0  0  0  0  0  0  0  0
   60.5039   34.4572   44.6367 H   0  0  0  0  0  0  0  0  0  0  0  0
   58.2132   34.9230   43.7815 H   0  0  0  0  0  0  0  0  0  0  0  0
   56.2202   34.3686   45.1730 H   0  0  0  0  0  0  0  0  0  0  0  0
   56.5125   33.3534   47.4289 H   0  0  0  0  0  0  0  0  0  0  0  0
   60.3618   33.6387   49.7627 H   0  0  0  0  0  0  0  0  0  0  0  0
   58.7588   34.4705   49.7659 H   0  0  0  0  0  0  0  0  0  0  0  0
   60.5087   33.5590   52.1984 H   0  0  0  0  0  0  0  0  0  0  0  0
   59.8358   32.3580   54.2800 H   0  0  0  0  0  0  0  0  0  0  0  0
   57.8435   30.8538   54.2685 H   0  0  0  0  0  0  0  0  0  0  0  0
   56.4991   30.5762   52.1828 H   0  0  0  0  0  0  0  0  0  0  0  0
   57.1463   31.7973   50.1054 H   0  0  0  0  0  0  0  0  0  0  0  0
  1  2  1  0
  2  3  1  0
  3  4  1  0
  3  5  1  0
  5  6  1  0
  6  7  1  0
  7  8  1  0
  8  9  2  0
  9 10  1  0
 10 11  2  0
 11 12  1  0
 12 13  2  0
 13 14  1  0
 14 15  2  0
 15 16  1  0
 16 17  2  0
 17 18  1  0
 18 19  1  0
 19 20  2  0
 20 21  1  0
 21 22  2  0
 22 23  1  0
 23 24  2  0
 24 25  1  0
 25 26  1  0
 26 27  1  0
 27 28  2  0
 28 29  1  0
 29 30  2  0
 30 31  1  0
 31 32  2  0
 18 33  2  0
 13  8  1  0
 33 14  1  0
 24 19  1  0
 32 27  1  0
  1 34  1  0
  1 35  1  0
  1 36  1  0
  2 37  1  0
  2 38  1  0
  3 39  1  1
  4 40  1  0
  4 41  1  0
  4 42  1  0
  5 43  1  0
  5 44  1  0
  6 45  1  0
  6 46  1  0
  9 47  1  0
 10 48  1  0
 11 49  1  0
 12 50  1  0
 15 51  1  0
 16 52  1  0
 17 53  1  0
 20 54  1  0
 21 55  1  0
 22 56  1  0
 23 57  1  0
 26 58  1  0
 26 59  1  0
 28 60  1  0
 29 61  1  0
 30 62  1  0
 31 63  1  0
 32 64  1  0
M  CHG  1   3   1
M  END
>  <UniqueID>  (22) 
22

>  <SMILES>  (22) 
CC[N@@H+](C)CCOc1ccccc1-c1cccc(-c2ccccc2OCc2ccccc2)n1

>  <Energy>  (22) 
76.29170144827147

>  <Genealogy>  (22) 
CC[NH+](C)CCOc1ccccc1-c1cccc(-c2ccccc2OCc2ccccc2)n1 (protonated)
CC[N@@H+](C)CCOc1ccccc1-c1cccc(-c2ccccc2OCc2ccccc2)n1 (chirality)
CC[N@@H+](C)CCOc1ccccc1-c1cccc(-c2ccccc2OCc2ccccc2)n1 (3D coordinates assigned)
CC[N@@H+](C)CCOc1ccccc1-c1cccc(-c2ccccc2OCc2ccccc2)n1 (optimized conformer: 76.29170144827147 kcal/mol)

>  <smiles>  (22) 
CCN(C)CCOc1ccccc1-c1cccc(-c2ccccc2OCc2ccccc2)n1

>  <score_type>  (22) 
oracle

>  <origin>  (22) 
adg

>  <m_score__min__energy>  (22) 
-7.04

>  <m_primary>  (22) 
energy

$$$$
22:0
     RDKit          3D

 62 65  0  0  0  0  0  0  0  0999 V2000
   55.2310   29.3410   44.8660 O   0  0  0  0  0  0  0  0  0  0  0  0
   56.4740   29.3690   44.6560 C   0  0  0  0  0  0  0  0  0  0  0  0
   57.2600   28.0980   44.8740 C   0  0  0  0  0  0  0  0  0  0  0  0
   57.9400   28.0290   46.2630 C   0  0  0  0  0  0  0  0  0  0  0  0
   58.7410   29.2230   46.6140 N   0  0  0  0  0  0  0  0  0  0  0  0
   60.1040   29.2120   46.0560 C   0  0  0  0  0  0  0  0  0  0  0  0
   60.7870   30.5540   46.3440 C   0  0  0  0  0  0  0  0  0  0  0  0
   60.7630   30.9180   47.7940 N   0  0  0  0  0  0  0  0  0  0  0  0
   62.1120   31.2230   48.3410 C   0  0  0  0  0  0  0  0  0  0  0  0
   62.2430   32.5960   48.9690 C   0  0  0  0  0  0  0  0  0  0  0  0
   61.4150   33.5040   48.6890 O   0  0  0  0  0  0  0  0  0  0  0  0
   63.3190   32.8830   49.8790 N   0  0  0  0  0  0  0  0  0  0  0  0
   63.0410   33.4010   51.2210 C   0  0  0  0  0  0  0  0  0  0  0  0
   64.0170   34.5280   51.5370 C   0  0  0  0  0  0  0  0  0  0  0  0
   65.4390   34.0880   51.3020 C   0  0  0  0  0  0  0  0  0  0  0  0
   66.4800   34.7220   51.9940 C   0  0  0  0  0  0  0  0  0  0  0  0
   67.8090   34.3550   51.7640 C   0  0  0  0  0  0  0  0  0  0  0  0
   68.1100   33.3640   50.8290 C   0  0  0  0  0  0  0  0  0  0  0  0
   67.0840   32.7360   50.1210 C   0  0  0  0  0  0  0  0  0  0  0  0
   65.7440   33.0910   50.3440 C   0  0  0  0  0  0  0  0  0  0  0  0
   64.6590   32.3570   49.5870 C   0  0  0  0  0  0  0  0  0  0  0  0
   60.0180   29.9650   48.6520 C   0  0  0  0  0  0  0  0  0  0  0  0
   58.6500   29.6190   48.0390 C   0  0  0  0  0  0  0  0  0  0  0  0
   57.1070   30.6450   44.2230 C   0  0  0  0  0  0  0  0  0  0  0  0
   57.2690   30.9610   42.8600 C   0  0  0  0  0  0  0  0  0  0  0  0
   57.8380   32.1770   42.4790 C   0  0  0  0  0  0  0  0  0  0  0  0
   58.2700   33.0880   43.4470 C   0  0  0  0  0  0  0  0  0  0  0  0
   58.1570   32.7790   44.8120 C   0  0  0  0  0  0  0  0  0  0  0  0
   58.5780   33.7720   45.8660 C   0  0  0  0  0  0  0  0  0  0  0  0
   57.5500   33.9310   46.7780 F   0  0  0  0  0  0  0  0  0  0  0  0
   59.7030   33.3160   46.5310 F   0  0  0  0  0  0  0  0  0  0  0  0
   58.8770   35.0010   45.3040 F   0  0  0  0  0  0  0  0  0  0  0  0
   57.5580   31.5640   45.1900 C   0  0  0  0  0  0  0  0  0  0  0  0
   56.5747   27.2429   44.7779 H   0  0  0  0  0  0  0  0  0  0  0  0
   58.0593   28.0757   44.1186 H   0  0  0  0  0  0  0  0  0  0  0  0
   57.1553   27.9058   47.0240 H   0  0  0  0  0  0  0  0  0  0  0  0
   58.6406   27.1818   46.2267 H   0  0  0  0  0  0  0  0  0  0  0  0
   60.6829   28.3994   46.5192 H   0  0  0  0  0  0  0  0  0  0  0  0
   60.0529   29.0534   44.9687 H   0  0  0  0  0  0  0  0  0  0  0  0
   61.8347   30.4928   46.0145 H   0  0  0  0  0  0  0  0  0  0  0  0
   60.2319   31.3314   45.7986 H   0  0  0  0  0  0  0  0  0  0  0  0
   60.2320   31.8200   47.8620 H   0  0  0  0  0  0  0  0  0  0  0  0
   62.3492   30.4710   49.1079 H   0  0  0  0  0  0  0  0  0  0  0  0
   62.8059   31.2032   47.4877 H   0  0  0  0  0  0  0  0  0  0  0  0
   62.0109   33.7848   51.2608 H   0  0  0  0  0  0  0  0  0  0  0  0
   63.1577   32.5941   51.9594 H   0  0  0  0  0  0  0  0  0  0  0  0
   63.7947   35.3893   50.8899 H   0  0  0  0  0  0  0  0  0  0  0  0
   63.9045   34.8045   52.5957 H   0  0  0  0  0  0  0  0  0  0  0  0
   66.2497   35.5133   52.7226 H   0  0  0  0  0  0  0  0  0  0  0  0
   68.6191   34.8484   52.3211 H   0  0  0  0  0  0  0  0  0  0  0  0
   69.1568   33.0774   50.6497 H   0  0  0  0  0  0  0  0  0  0  0  0
   67.3270   31.9573   49.3830 H   0  0  0  0  0  0  0  0  0  0  0  0
   64.8507   32.4576   48.5085 H   0  0  0  0  0  0  0  0  0  0  0  0
   64.6824   31.3039   49.9039 H   0  0  0  0  0  0  0  0  0  0  0  0
   60.6071   29.0423   48.7593 H   0  0  0  0  0  0  0  0  0  0  0  0
   59.8521   30.4347   49.6328 H   0  0  0  0  0  0  0  0  0  0  0  0
   58.2110   28.7859   48.6076 H   0  0  0  0  0  0  0  0  0  0  0  0
   58.0262   30.5235   48.0914 H   0  0  0  0  0  0  0  0  0  0  0  0
   56.9449   30.2446   42.0908 H   0  0  0  0  0  0  0  0  0  0  0  0
   57.9470   32.4197   41.4117 H   0  0  0  0  0  0  0  0  0  0  0  0
   58.7007   34.0518   43.1379 H   0  0  0  0  0  0  0  0  0  0  0  0
   57.4399   31.3278   46.2578 H   0  0  0  0  0  0  0  0  0  0  0  0
  1  2  2  0
  2  3  1  0
  3  4  1  0
  4  5  1  0
  5  6  1  0
  6  7  1  0
  7  8  1  0
  8  9  1  0
  9 10  1  0
 10 11  2  0
 10 12  1  0
 12 13  1  0
 13 14  1  0
 14 15  1  0
 15 16  2  0
 16 17  1  0
 17 18  2  0
 18 19  1  0
 19 20  2  0
 20 21  1  0
  8 22  1  0
 22 23  1  0
  2 24  1  0
 24 25  2  0
 25 26  1  0
 26 27  2  0
 27 28  1  0
 28 29  1  0
 29 30  1  0
 29 31  1  0
 29 32  1  0
 28 33  2  0
 23  5  1  0
 33 24  1  0
 21 12  1  0
 20 15  1  0
  3 34  1  0
  3 35  1  0
  4 36  1  0
  4 37  1  0
  6 38  1  0
  6 39  1  0
  7 40  1  0
  7 41  1  0
  8 42  1  0
  9 43  1  0
  9 44  1  0
 13 45  1  0
 13 46  1  0
 14 47  1  0
 14 48  1  0
 16 49  1  0
 17 50  1  0
 18 51  1  0
 19 52  1  0
 21 53  1  0
 21 54  1  0
 22 55  1  0
 22 56  1  0
 23 57  1  0
 23 58  1  0
 25 59  1  0
 26 60  1  0
 27 61  1  0
 33 62  1  0
M  CHG  1   8   1
M  END
>  <UniqueID>  (23) 
23

>  <SMILES>  (23) 
O=C(CCN1CC[NH+](CC(=O)N2CCc3ccccc3C2)CC1)c1cccc(C(F)(F)F)c1

>  <Energy>  (23) 
90.40702954596944

>  <Genealogy>  (23) 
O=C(CCN1CC[NH+](CC(=O)N2CCc3ccccc3C2)CC1)c1cccc(C(F)(F)F)c1 (protonated)
O=C(CCN1CC[NH+](CC(=O)N2CCc3ccccc3C2)CC1)c1cccc(C(F)(F)F)c1 (3D coordinates assigned)
O=C(CCN1CC[NH+](CC(=O)N2CCc3ccccc3C2)CC1)c1cccc(C(F)(F)F)c1 (nonaromatic ring conformer: 90.40702954596944 kcal/mol)

>  <smiles>  (23) 
O=C(CCN1CCN(CC(=O)N2CCc3ccccc3C2)CC1)c1cccc(C(F)(F)F)c1

>  <score_type>  (23) 
oracle

>  <origin>  (23) 
adg

>  <m_score__min__energy>  (23) 
-7.9900000000000002

>  <m_primary>  (23) 
energy

$$$$
23:0
     RDKit          3D

 37 39  0  0  0  0  0  0  0  0999 V2000
   59.6990   33.7400   51.0100 C   0  0  0  0  0  0  0  0  0  0  0  0
   59.6580   34.4570   49.7810 O   0  0  0  0  0  0  0  0  0  0  0  0
   59.3740   33.8780   48.5350 C   0  0  0  0  0  0  0  0  0  0  0  0
   59.2520   34.7200   47.4240 C   0  0  0  0  0  0  0  0  0  0  0  0
   58.9700   34.1980   46.1590 C   0  0  0  0  0  0  0  0  0  0  0  0
   58.8070   32.8130   45.9890 C   0  0  0  0  0  0  0  0  0  0  0  0
   58.5160   32.2380   44.7410 C   0  0  0  0  0  0  0  0  0  0  0  0
   58.3840   32.9530   43.7100 O   0  0  0  0  0  0  0  0  0  0  0  0
   58.3670   30.8540   44.6430 C   0  0  0  0  0  0  0  0  0  0  0  0
   58.5170   30.0640   45.7940 C   0  0  0  0  0  0  0  0  0  0  0  0
   58.3590   28.5930   45.7450 C   0  0  0  0  0  0  0  0  0  0  0  0
   59.4990   27.7900   45.9230 C   0  0  0  0  0  0  0  0  0  0  0  0
   59.3990   26.3980   45.8930 C   0  0  0  0  0  0  0  0  0  0  0  0
   58.1610   25.7900   45.6840 C   0  0  0  0  0  0  0  0  0  0  0  0
   57.0230   26.5730   45.4820 C   0  0  0  0  0  0  0  0  0  0  0  0
   57.1130   27.9760   45.4790 C   0  0  0  0  0  0  0  0  0  0  0  0
   55.9490   28.7820   45.2320 N   0  0  0  0  0  0  0  0  0  0  0  0
   55.7680   29.7210   44.1630 C   0  0  0  0  0  0  0  0  0  0  0  0
   56.2560   29.4480   42.7730 C   0  0  0  0  0  0  0  0  0  0  0  0
   55.2150   30.8240   44.4110 O   0  0  0  0  0  0  0  0  0  0  0  0
   58.7790   30.6430   46.9640 O   0  0  0  0  0  0  0  0  0  0  0  0
   58.9300   31.9560   47.1050 C   0  0  0  0  0  0  0  0  0  0  0  0
   59.2110   32.4880   48.3680 C   0  0  0  0  0  0  0  0  0  0  0  0
   59.6584   34.4493   51.8498 H   0  0  0  0  0  0  0  0  0  0  0  0
   58.8384   33.0571   51.0650 H   0  0  0  0  0  0  0  0  0  0  0  0
   60.6318   33.1596   51.0650 H   0  0  0  0  0  0  0  0  0  0  0  0
   59.3796   35.8055   47.5480 H   0  0  0  0  0  0  0  0  0  0  0  0
   58.8755   34.8723   45.2951 H   0  0  0  0  0  0  0  0  0  0  0  0
   58.1346   30.3870   43.6745 H   0  0  0  0  0  0  0  0  0  0  0  0
   60.4785   28.2628   46.0874 H   0  0  0  0  0  0  0  0  0  0  0  0
   60.2977   25.7796   46.0344 H   0  0  0  0  0  0  0  0  0  0  0  0
   58.0814   24.6929   45.6784 H   0  0  0  0  0  0  0  0  0  0  0  0
   56.0482   26.0884   45.3239 H   0  0  0  0  0  0  0  0  0  0  0  0
   57.2151   28.9114   42.8199 H   0  0  0  0  0  0  0  0  0  0  0  0
   55.5171   28.8322   42.2393 H   0  0  0  0  0  0  0  0  0  0  0  0
   56.3941   30.3999   42.2393 H   0  0  0  0  0  0  0  0  0  0  0  0
   59.3052   31.8180   49.2353 H   0  0  0  0  0  0  0  0  0  0  0  0
  1  2  1  0
  2  3  1  0
  3  4  2  0
  4  5  1  0
  5  6  2  0
  6  7  1  0
  7  8  2  0
  7  9  1  0
  9 10  2  0
 10 11  1  0
 11 12  2  0
 12 13  1  0
 13 14  2  0
 14 15  1  0
 15 16  2  0
 16 17  1  0
 17 18  1  0
 18 19  1  0
 18 20  2  0
 10 21  1  0
 21 22  1  0
 22 23  2  0
 23  3  1  0
 22  6  1  0
 16 11  1  0
  1 24  1  0
  1 25  1  0
  1 26  1  0
  4 27  1  0
  5 28  1  0
  9 29  1  0
 12 30  1  0
 13 31  1  0
 14 32  1  0
 15 33  1  0
 19 34  1  0
 19 35  1  0
 19 36  1  0
 23 37  1  0
M  CHG  1  17  -1
M  END
>  <UniqueID>  (24) 
24

>  <SMILES>  (24) 
COc1ccc2c(=O)cc(-c3ccccc3[N-]C(C)=O)oc2c1

>  <Energy>  (24) 
53.413692074768086

>  <Genealogy>  (24) 
COc1ccc2c(=O)cc(-c3ccccc3[N-]C(C)=O)oc2c1 (protonated)
COc1ccc2c(=O)cc(-c3ccccc3[N-]C(C)=O)oc2c1 (3D coordinates assigned)
COc1ccc2c(=O)cc(-c3ccccc3[N-]C(C)=O)oc2c1 (optimized conformer: 53.413692074768086 kcal/mol)

>  <smiles>  (24) 
COc1ccc2c(=O)cc(-c3ccccc3NC(C)=O)oc2c1

>  <score_type>  (24) 
oracle

>  <origin>  (24) 
adg

>  <m_score__min__energy>  (24) 
-9.1999999999999993

>  <m_primary>  (24) 
energy

$$$$
24:0
     RDKit          3D

 65 66  0  0  0  0  0  0  0  0999 V2000
   55.6310   30.7600   52.0740 C   0  0  0  0  0  0  0  0  0  0  0  0
   57.0230   30.1280   52.0520 C   0  0  0  0  0  0  0  0  0  0  0  0
   57.7740   30.4820   50.8250 N   0  0  0  0  0  0  0  0  0  0  0  0
   57.7760   31.9290   50.5010 C   0  0  0  0  0  0  0  0  0  0  0  0
   58.9360   32.7100   51.1330 C   0  0  0  0  0  0  0  0  0  0  0  0
   59.1370   29.9010   50.8280 C   0  0  0  0  0  0  0  0  0  0  0  0
   59.3980   29.1840   49.5020 C   0  0  0  0  0  0  0  0  0  0  0  0
   58.6240   29.7690   48.4540 O   0  0  0  0  0  0  0  0  0  0  0  0
   59.1770   30.2680   47.2630 C   0  0  0  0  0  0  0  0  0  0  0  0
   60.4360   30.3190   47.1270 O   0  0  0  0  0  0  0  0  0  0  0  0
   58.2870   30.8220   46.1570 C   0  0  1  0  0  0  0  0  0  0  0  0
   58.0700   32.3450   46.3350 C   0  0  0  0  0  0  0  0  0  0  0  0
   59.0740   33.0460   45.6340 O   0  0  0  0  0  0  0  0  0  0  0  0
   59.6290   34.3280   46.5910 S   0  0  0  0  0  0  0  0  0  0  0  0
   58.5640   34.7400   47.5720 O   0  0  0  0  0  0  0  0  0  0  0  0
   59.9310   35.5010   45.6970 O   0  0  0  0  0  0  0  0  0  0  0  0
   61.1060   33.8700   47.4350 C   0  0  0  0  0  0  0  0  0  0  0  0
   62.2300   33.4830   46.6940 C   0  0  0  0  0  0  0  0  0  0  0  0
   63.4020   33.0920   47.3460 C   0  0  0  0  0  0  0  0  0  0  0  0
   63.4570   33.0710   48.7480 C   0  0  0  0  0  0  0  0  0  0  0  0
   64.7250   32.6880   49.4520 C   0  0  0  0  0  0  0  0  0  0  0  0
   62.3350   33.4780   49.4890 C   0  0  0  0  0  0  0  0  0  0  0  0
   61.1620   33.8710   48.8360 C   0  0  0  0  0  0  0  0  0  0  0  0
   58.7260   30.4560   44.7690 N   0  0  2  0  0  0  0  0  0  0  0  0
   57.9520   31.2490   43.7610 C   0  0  0  0  0  0  0  0  0  0  0  0
   56.6330   30.6200   43.2560 C   0  0  0  0  0  0  0  0  0  0  0  0
   55.7700   30.0410   44.3850 C   0  0  0  0  0  0  0  0  0  0  0  0
   56.3460   28.8490   44.8770 O   0  0  0  0  0  0  0  0  0  0  0  0
   57.4080   28.4260   44.0440 C   0  0  0  0  0  0  0  0  0  0  0  0
   58.7700   28.9830   44.5220 C   0  0  0  0  0  0  0  0  0  0  0  0
   55.3108   30.9054   53.1163 H   0  0  0  0  0  0  0  0  0  0  0  0
   55.6617   31.7325   51.5608 H   0  0  0  0  0  0  0  0  0  0  0  0
   54.9191   30.0969   51.5608 H   0  0  0  0  0  0  0  0  0  0  0  0
   57.5871   30.4809   52.9279 H   0  0  0  0  0  0  0  0  0  0  0  0
   56.9002   29.0351   52.0717 H   0  0  0  0  0  0  0  0  0  0  0  0
   57.8404   32.0384   49.4084 H   0  0  0  0  0  0  0  0  0  0  0  0
   56.8475   32.3486   50.9155 H   0  0  0  0  0  0  0  0  0  0  0  0
   58.8589   32.6581   52.2291 H   0  0  0  0  0  0  0  0  0  0  0  0
   59.8919   32.2709   50.8115 H   0  0  0  0  0  0  0  0  0  0  0  0
   58.8887   33.7609   50.8115 H   0  0  0  0  0  0  0  0  0  0  0  0
   59.8762   30.7048   50.9601 H   0  0  0  0  0  0  0  0  0  0  0  0
   59.2222   29.1794   51.6538 H   0  0  0  0  0  0  0  0  0  0  0  0
   60.4660   29.2650   49.2512 H   0  0  0  0  0  0  0  0  0  0  0  0
   59.1112   28.1273   49.6075 H   0  0  0  0  0  0  0  0  0  0  0  0
   57.3124   30.3242   46.2681 H   0  0  0  0  0  0  0  0  0  0  0  0
   57.0826   32.6239   45.9385 H   0  0  0  0  0  0  0  0  0  0  0  0
   58.1205   32.6012   47.4036 H   0  0  0  0  0  0  0  0  0  0  0  0
   62.1897   33.4870   45.5947 H   0  0  0  0  0  0  0  0  0  0  0  0
   64.2847   32.7996   46.7584 H   0  0  0  0  0  0  0  0  0  0  0  0
   64.5690   32.7351   50.5399 H   0  0  0  0  0  0  0  0  0  0  0  0
   65.0082   31.6642   49.1662 H   0  0  0  0  0  0  0  0  0  0  0  0
   65.5276   33.3838   49.1662 H   0  0  0  0  0  0  0  0  0  0  0  0
   62.3791   33.4877   50.5881 H   0  0  0  0  0  0  0  0  0  0  0  0
   60.2838   34.1807   49.4215 H   0  0  0  0  0  0  0  0  0  0  0  0
   59.7130   30.8050   44.6950 H   0  0  0  0  0  0  0  0  0  0  0  0
   57.7068   32.2200   44.2161 H   0  0  0  0  0  0  0  0  0  0  0  0
   58.6030   31.3113   42.8765 H   0  0  0  0  0  0  0  0  0  0  0  0
   56.0527   31.3955   42.7346 H   0  0  0  0  0  0  0  0  0  0  0  0
   56.9015   29.7874   42.5891 H   0  0  0  0  0  0  0  0  0  0  0  0
   55.7000   30.7747   45.2016 H   0  0  0  0  0  0  0  0  0  0  0  0
   54.7667   29.8193   43.9922 H   0  0  0  0  0  0  0  0  0  0  0  0
   57.4504   27.3268   44.0516 H   0  0  0  0  0  0  0  0  0  0  0  0
   57.2196   28.8074   43.0296 H   0  0  0  0  0  0  0  0  0  0  0  0
   59.0509   28.4759   45.4569 H   0  0  0  0  0  0  0  0  0  0  0  0
   59.5069   28.7974   43.7267 H   0  0  0  0  0  0  0  0  0  0  0  0
  1  2  1  0
  2  3  1  0
  3  4  1  0
  4  5  1  0
  3  6  1  0
  6  7  1  0
  7  8  1  0
  8  9  1  0
  9 10  2  0
  9 11  1  0
 11 12  1  0
 12 13  1  0
 13 14  1  0
 14 15  2  0
 14 16  2  0
 14 17  1  0
 17 18  2  0
 18 19  1  0
 19 20  2  0
 20 21  1  0
 20 22  1  0
 22 23  2  0
 11 24  1  0
 24 25  1  0
 25 26  1  0
 26 27  1  0
 27 28  1  0
 28 29  1  0
 29 30  1  0
 23 17  1  0
 30 24  1  0
  1 31  1  0
  1 32  1  0
  1 33  1  0
  2 34  1  0
  2 35  1  0
  4 36  1  0
  4 37  1  0
  5 38  1  0
  5 39  1  0
  5 40  1  0
  6 41  1  0
  6 42  1  0
  7 43  1  0
  7 44  1  0
 11 45  1  1
 12 46  1  0
 12 47  1  0
 18 48  1  0
 19 49  1  0
 21 50  1  0
 21 51  1  0
 21 52  1  0
 22 53  1  0
 23 54  1  0
 24 55  1  1
 25 56  1  0
 25 57  1  0
 26 58  1  0
 26 59  1  0
 27 60  1  0
 27 61  1  0
 29 62  1  0
 29 63  1  0
 30 64  1  0
 30 65  1  0
M  CHG  1  24   1
M  END
>  <UniqueID>  (25) 
25

>  <SMILES>  (25) 
CCN(CC)CCOC(=O)[C@@H](COS(=O)(=O)c1ccc(C)cc1)[N@@H+]1CCCOCC1

>  <Energy>  (25) 
81.3782746908428

>  <Genealogy>  (25) 
CCN(CC)CCOC(=O)C(COS(=O)(=O)c1ccc(C)cc1)[NH+]1CCCOCC1 (protonated)
CCN(CC)CCOC(=O)[C@@H](COS(=O)(=O)c1ccc(C)cc1)[N@@H+]1CCCOCC1 (chirality)
CCN(CC)CCOC(=O)[C@@H](COS(=O)(=O)c1ccc(C)cc1)[N@@H+]1CCCOCC1 (3D coordinates assigned)
CCN(CC)CCOC(=O)[C@@H](COS(=O)(=O)c1ccc(C)cc1)[N@@H+]1CCCOCC1 (nonaromatic ring conformer: 81.3782746908428 kcal/mol)

>  <smiles>  (25) 
CCN(CC)CCOC(=O)C(COS(=O)(=O)c1ccc(C)cc1)N1CCCOCC1

>  <score_type>  (25) 
oracle

>  <origin>  (25) 
adg

>  <m_score__min__energy>  (25) 
-4.0800000000000001

>  <m_primary>  (25) 
energy

$$$$
25:0
     RDKit          3D

 46 49  0  0  1  0  0  0  0  0999 V2000
   67.0880   30.6630   51.2610 C   0  0  0  0  0  0  0  0  0  0  0  0
   67.2410   31.8980   51.9980 N   0  0  0  0  0  0  0  0  0  0  0  0
   68.2260   31.9540   53.0410 C   0  0  0  0  0  0  0  0  0  0  0  0
   66.4640   33.0670   51.7400 C   0  0  0  0  0  0  0  0  0  0  0  0
   66.6270   34.1270   52.4080 O   0  0  0  0  0  0  0  0  0  0  0  0
   65.4380   33.1190   50.7000 C   0  0  0  0  0  0  0  0  0  0  0  0
   64.0930   33.2980   51.0280 C   0  0  0  0  0  0  0  0  0  0  0  0
   63.4140   33.2970   49.8270 C   0  0  0  0  0  0  0  0  0  0  0  0
   62.0720   33.4340   49.5510 C   0  0  0  0  0  0  0  0  0  0  0  0
   61.5980   33.3990   48.2320 C   0  0  0  0  0  0  0  0  0  0  0  0
   60.1990   33.5510   48.0850 N   0  0  0  0  0  0  0  0  0  0  0  0
   59.5800   33.6420   46.9830 C   0  0  0  0  0  0  0  0  0  0  0  0
   59.0180   32.5640   46.3890 N   0  0  0  0  0  0  0  0  0  0  0  0
   58.3880   32.6810   45.2250 C   0  0  0  0  0  0  0  0  0  0  0  0
   57.7470   31.5720   44.5190 C   0  0  0  0  0  0  0  0  0  0  0  0
   57.3290   31.6540   43.2100 C   0  0  0  0  0  0  0  0  0  0  0  0
   56.7150   30.5610   42.5910 C   0  0  0  0  0  0  0  0  0  0  0  0
   56.5130   29.3670   43.2870 C   0  0  0  0  0  0  0  0  0  0  0  0
   56.9550   29.3520   44.5930 C   0  0  0  0  0  0  0  0  0  0  0  0
   56.8050   28.1780   45.4330 C   0  0  0  0  0  0  0  0  0  0  0  0
   56.6940   27.2340   46.0850 N   0  0  0  0  0  0  0  0  0  0  0  0
   57.5400   30.4140   45.1650 N   0  0  0  0  0  0  0  0  0  0  0  0
   58.3360   33.9420   44.6550 C   0  0  0  0  0  0  0  0  0  0  0  0
   58.8990   35.0590   45.2350 C   0  0  0  0  0  0  0  0  0  0  0  0
   59.5230   34.8780   46.4140 N   0  0  0  0  0  0  0  0  0  0  0  0
   62.4850   33.2270   47.1980 C   0  0  0  0  0  0  0  0  0  0  0  0
   63.8490   33.0890   47.4910 C   0  0  0  0  0  0  0  0  0  0  0  0
   64.3130   33.1230   48.7970 C   0  0  0  0  0  0  0  0  0  0  0  0
   65.5360   33.0190   49.3760 N   0  0  0  0  0  0  0  0  0  0  0  0
   66.9842   29.8254   51.9665 H   0  0  0  0  0  0  0  0  0  0  0  0
   66.1904   30.7226   50.6280 H   0  0  0  0  0  0  0  0  0  0  0  0
   67.9730   30.5017   50.6280 H   0  0  0  0  0  0  0  0  0  0  0  0
   67.7253   31.9255   54.0201 H   0  0  0  0  0  0  0  0  0  0  0  0
   68.9046   31.0930   52.9510 H   0  0  0  0  0  0  0  0  0  0  0  0
   68.8027   32.8864   52.9510 H   0  0  0  0  0  0  0  0  0  0  0  0
   63.6640   33.4154   52.0341 H   0  0  0  0  0  0  0  0  0  0  0  0
   61.3606   33.5731   50.3784 H   0  0  0  0  0  0  0  0  0  0  0  0
   57.4792   32.5867   42.6466 H   0  0  0  0  0  0  0  0  0  0  0  0
   56.3873   30.6423   41.5441 H   0  0  0  0  0  0  0  0  0  0  0  0
   56.0317   28.4937   42.8226 H   0  0  0  0  0  0  0  0  0  0  0  0
   57.8194   34.0584   43.6908 H   0  0  0  0  0  0  0  0  0  0  0  0
   58.8412   36.0486   44.7582 H   0  0  0  0  0  0  0  0  0  0  0  0
   59.9540   35.7110   46.8670 H   0  0  0  0  0  0  0  0  0  0  0  0
   62.1311   33.1980   46.1569 H   0  0  0  0  0  0  0  0  0  0  0  0
   64.5656   32.9509   46.6680 H   0  0  0  0  0  0  0  0  0  0  0  0
   66.4230   32.8800   48.8520 H   0  0  0  0  0  0  0  0  0  0  0  0
  1  2  1  0
  2  3  1  0
  2  4  1  0
  4  5  2  0
  4  6  1  0
  6  7  2  0
  7  8  1  0
  8  9  2  0
  9 10  1  0
 10 11  1  0
 11 12  2  0
 12 13  1  0
 13 14  2  0
 14 15  1  0
 15 16  2  0
 16 17  1  0
 17 18  2  0
 18 19  1  0
 19 20  1  0
 20 21  3  0
 19 22  2  0
 14 23  1  0
 23 24  2  0
 24 25  1  0
 10 26  2  0
 26 27  1  0
 27 28  2  0
 28 29  1  0
 29  6  1  0
 28  8  1  0
 25 12  1  0
 22 15  1  0
  1 30  1  0
  1 31  1  0
  1 32  1  0
  3 33  1  0
  3 34  1  0
  3 35  1  0
  7 36  1  0
  9 37  1  0
 16 38  1  0
 17 39  1  0
 18 40  1  0
 23 41  1  0
 24 42  1  0
 25 43  1  0
 26 44  1  0
 27 45  1  0
 29 46  1  0
M  END
>  <smiles>  (26) 
CN(C)C(=O)c1cc2cc(N=c3nc(-c4cccc(C#N)n4)cc[nH]3)ccc2[nH]1

>  <score_type>  (26) 
oracle

>  <origin>  (26) 
adg

>  <m_score__min__energy>  (26) 
-9.0999999999999996

>  <m_primary>  (26) 
energy

$$$$
26:0
     RDKit          3D

 25 26  0  0  0  0  0  0  0  0999 V2000
   58.1744   30.7621   43.4333 H   0  0  0  0  0  0  0  0  0  0  0  0
   57.6350   30.5880   44.3760 C   0  0  0  0  0  0  0  0  0  0  0  0
   56.9310   31.5690   44.8670 N   0  0  0  0  0  0  0  0  0  0  0  0
   57.4600   32.7160   45.4860 N   0  0  0  0  0  0  0  0  0  0  0  0
   57.8170   32.8790   46.7730 C   0  0  0  0  0  0  0  0  0  0  0  0
   57.5861   32.1705   47.5821 H   0  0  0  0  0  0  0  0  0  0  0  0
   58.4960   34.0300   46.9320 N   0  0  0  0  0  0  0  0  0  0  0  0
   58.6010   34.5930   45.7340 N   0  0  0  0  0  0  0  0  0  0  0  0
   57.9860   33.7770   44.8570 C   0  0  0  0  0  0  0  0  0  0  0  0
   57.9237   33.9562   43.7735 H   0  0  0  0  0  0  0  0  0  0  0  0
   57.7540   29.2570   45.0060 C   0  0  0  0  0  0  0  0  0  0  0  0
   58.9880   28.7800   45.4780 C   0  0  0  0  0  0  0  0  0  0  0  0
   59.8946   29.3909   45.3561 H   0  0  0  0  0  0  0  0  0  0  0  0
   59.0680   27.5340   46.1010 C   0  0  0  0  0  0  0  0  0  0  0  0
   60.0400   27.1591   46.4540 H   0  0  0  0  0  0  0  0  0  0  0  0
   57.9180   26.7610   46.2780 C   0  0  0  0  0  0  0  0  0  0  0  0
   57.9885   25.7760   46.7626 H   0  0  0  0  0  0  0  0  0  0  0  0
   56.6690   27.2390   45.8380 C   0  0  0  0  0  0  0  0  0  0  0  0
   55.4840   26.5080   46.0030 O   0  0  0  0  0  0  0  0  0  0  0  0
   55.3380   25.1280   45.6800 C   0  0  0  0  0  0  0  0  0  0  0  0
   55.2757   24.5391   46.6070 H   0  0  0  0  0  0  0  0  0  0  0  0
   54.4196   24.9843   45.0918 H   0  0  0  0  0  0  0  0  0  0  0  0
   56.2060   24.7953   45.0918 H   0  0  0  0  0  0  0  0  0  0  0  0
   56.5970   28.4900   45.2130 C   0  0  0  0  0  0  0  0  0  0  0  0
   55.6222   28.8761   44.8804 H   0  0  0  0  0  0  0  0  0  0  0  0
  1  2  1  0
  2  3  2  0
  3  4  1  0
  4  5  1  0
  5  6  1  0
  5  7  2  0
  7  8  1  0
  8  9  2  0
  9 10  1  0
  2 11  1  0
 11 12  2  0
 12 13  1  0
 12 14  1  0
 14 15  1  0
 14 16  2  0
 16 17  1  0
 16 18  1  0
 18 19  1  0
 19 20  1  0
 20 21  1  0
 20 22  1  0
 20 23  1  0
 18 24  2  0
 24 25  1  0
  9  4  1  0
 24 11  1  0
M  END
>  <UniqueID>  (27) 
26

>  <SMILES>  (27) 
COc1cccc(/C=N\n2cnnc2)c1

>  <Energy>  (27) 
70.3875908195085

>  <Genealogy>  (27) 
COc1cccc(/C=N\n2cnnc2)c1 (cis-trans isomerization)
COc1cccc(/C=N\n2cnnc2)c1 (3D coordinates assigned)
COc1cccc(/C=N\n2cnnc2)c1 (optimized conformer: 70.3875908195085 kcal/mol)

>  <smiles>  (27) 
COc1cccc(C=Nn2cnnc2)c1

>  <score_type>  (27) 
oracle

>  <origin>  (27) 
adg

>  <m_score__min__energy>  (27) 
-5.7000000000000002

>  <m_primary>  (27) 
energy

$$$$
27:0
     RDKit          3D

 59 61  0  0  0  0  0  0  0  0999 V2000
   60.7500   29.3990   49.3980 C   0  0  0  0  0  0  0  0  0  0  0  0
   61.1860   30.1610   50.6470 C   0  0  0  0  0  0  0  0  0  0  0  0
   62.7150   30.1620   50.7900 C   0  0  0  0  0  0  0  0  0  0  0  0
   63.3180   31.5760   50.8500 C   0  0  0  0  0  0  0  0  0  0  0  0
   64.7750   31.6590   50.3450 C   0  0  0  0  0  0  0  0  0  0  0  0
   64.9080   32.4610   49.1050 N   0  0  0  0  0  0  0  0  0  0  0  0
   63.8910   33.5240   48.9960 C   0  0  0  0  0  0  0  0  0  0  0  0
   63.1730   33.5200   47.6240 C   0  0  1  0  0  0  0  0  0  0  0  0
   63.8080   32.6780   46.6890 O   0  0  0  0  0  0  0  0  0  0  0  0
   61.7140   33.1420   47.7890 C   0  0  0  0  0  0  0  0  0  0  0  0
   61.0890   33.1700   49.0470 C   0  0  0  0  0  0  0  0  0  0  0  0
   59.7260   32.8520   49.1580 C   0  0  0  0  0  0  0  0  0  0  0  0
   59.0350   32.8360   50.4720 C   0  0  0  0  0  0  0  0  0  0  0  0
   58.0650   31.8540   50.7400 C   0  0  0  0  0  0  0  0  0  0  0  0
   57.4080   31.8240   51.9740 C   0  0  0  0  0  0  0  0  0  0  0  0
   57.7040   32.7760   52.9500 C   0  0  0  0  0  0  0  0  0  0  0  0
   58.6550   33.7670   52.6910 C   0  0  0  0  0  0  0  0  0  0  0  0
   59.3170   33.8010   51.4600 C   0  0  0  0  0  0  0  0  0  0  0  0
   59.0270   32.5260   48.0380 N   0  0  0  0  0  0  0  0  0  0  0  0
   59.5870   32.5040   46.7970 C   0  0  0  0  0  0  0  0  0  0  0  0
   58.7400   32.1680   45.6250 C   0  0  0  0  0  0  0  0  0  0  0  0
   58.6020   33.0560   44.5410 C   0  0  0  0  0  0  0  0  0  0  0  0
   57.7950   32.7230   43.4520 C   0  0  0  0  0  0  0  0  0  0  0  0
   57.1210   31.5000   43.4220 C   0  0  0  0  0  0  0  0  0  0  0  0
   57.2680   30.5890   44.4770 C   0  0  0  0  0  0  0  0  0  0  0  0
   56.5200   29.2900   44.4680 C   0  0  0  0  0  0  0  0  0  0  0  0
   58.0690   30.9320   45.5790 C   0  0  0  0  0  0  0  0  0  0  0  0
   60.9460   32.8300   46.6570 C   0  0  0  0  0  0  0  0  0  0  0  0
   60.2239   28.4796   49.6944 H   0  0  0  0  0  0  0  0  0  0  0  0
   60.0764   30.0303   48.7998 H   0  0  0  0  0  0  0  0  0  0  0  0
   61.6355   29.1382   48.7998 H   0  0  0  0  0  0  0  0  0  0  0  0
   60.8314   31.1998   50.5758 H   0  0  0  0  0  0  0  0  0  0  0  0
   60.7536   29.6637   51.5277 H   0  0  0  0  0  0  0  0  0  0  0  0
   62.9798   29.6296   51.7155 H   0  0  0  0  0  0  0  0  0  0  0  0
   63.1268   29.6691   49.8970 H   0  0  0  0  0  0  0  0  0  0  0  0
   62.6990   32.2426   50.2316 H   0  0  0  0  0  0  0  0  0  0  0  0
   63.3308   31.8720   51.9093 H   0  0  0  0  0  0  0  0  0  0  0  0
   65.3933   32.1196   51.1296 H   0  0  0  0  0  0  0  0  0  0  0  0
   65.1047   30.6352   50.1145 H   0  0  0  0  0  0  0  0  0  0  0  0
   65.8610   32.8830   49.0060 H   0  0  0  0  0  0  0  0  0  0  0  0
   64.7750   31.8210   48.2870 H   0  0  0  0  0  0  0  0  0  0  0  0
   63.1409   33.3769   49.7870 H   0  0  0  0  0  0  0  0  0  0  0  0
   64.4055   34.4906   49.1009 H   0  0  0  0  0  0  0  0  0  0  0  0
   63.2312   34.5425   47.2226 H   0  0  0  0  0  0  0  0  0  0  0  0
   64.7840   32.8600   46.7140 H   0  0  0  0  0  0  0  0  0  0  0  0
   61.6665   33.4406   49.9433 H   0  0  0  0  0  0  0  0  0  0  0  0
   57.8212   31.1039   49.9733 H   0  0  0  0  0  0  0  0  0  0  0  0
   56.6555   31.0475   52.1758 H   0  0  0  0  0  0  0  0  0  0  0  0
   57.1897   32.7467   53.9219 H   0  0  0  0  0  0  0  0  0  0  0  0
   58.8832   34.5221   53.4576 H   0  0  0  0  0  0  0  0  0  0  0  0
   60.0622   34.5853   51.2614 H   0  0  0  0  0  0  0  0  0  0  0  0
   59.1339   34.0188   44.5525 H   0  0  0  0  0  0  0  0  0  0  0  0
   57.6893   33.4270   42.6134 H   0  0  0  0  0  0  0  0  0  0  0  0
   56.4733   31.2512   42.5684 H   0  0  0  0  0  0  0  0  0  0  0  0
   56.3339   28.9669   45.5029 H   0  0  0  0  0  0  0  0  0  0  0  0
   55.5603   29.4231   43.9473 H   0  0  0  0  0  0  0  0  0  0  0  0
   57.1169   28.5268   43.9473 H   0  0  0  0  0  0  0  0  0  0  0  0
   58.1729   30.2258   46.4160 H   0  0  0  0  0  0  0  0  0  0  0  0
   61.4086   32.8407   45.6591 H   0  0  0  0  0  0  0  0  0  0  0  0
  1  2  1  0
  2  3  1  0
  3  4  1  0
  4  5  1  0
  5  6  1  0
  6  7  1  0
  7  8  1  0
  8  9  1  0
  8 10  1  0
 10 11  2  0
 11 12  1  0
 12 13  1  0
 13 14  2  0
 14 15  1  0
 15 16  2  0
 16 17  1  0
 17 18  2  0
 12 19  2  0
 19 20  1  0
 20 21  1  0
 21 22  2  0
 22 23  1  0
 23 24  2  0
 24 25  1  0
 25 26  1  0
 25 27  2  0
 20 28  2  0
 28 10  1  0
 18 13  1  0
 27 21  1  0
  1 29  1  0
  1 30  1  0
  1 31  1  0
  2 32  1  0
  2 33  1  0
  3 34  1  0
  3 35  1  0
  4 36  1  0
  4 37  1  0
  5 38  1  0
  5 39  1  0
  6 40  1  0
  6 41  1  0
  7 42  1  0
  7 43  1  0
  8 44  1  6
  9 45  1  0
 11 46  1  0
 14 47  1  0
 15 48  1  0
 16 49  1  0
 17 50  1  0
 18 51  1  0
 22 52  1  0
 23 53  1  0
 24 54  1  0
 26 55  1  0
 26 56  1  0
 26 57  1  0
 27 58  1  0
 28 59  1  0
M  CHG  1   6   1
M  END
>  <UniqueID>  (28) 
27

>  <SMILES>  (28) 
CCCCC[NH2+]C[C@@H](O)c1cc(-c2ccccc2)nc(-c2cccc(C)c2)c1

>  <Energy>  (28) 
66.3101016327211

>  <Genealogy>  (28) 
CCCCC[NH2+]CC(O)c1cc(-c2ccccc2)nc(-c2cccc(C)c2)c1 (protonated)
CCCCC[NH2+]C[C@@H](O)c1cc(-c2ccccc2)nc(-c2cccc(C)c2)c1 (chirality)
CCCCC[NH2+]C[C@@H](O)c1cc(-c2ccccc2)nc(-c2cccc(C)c2)c1 (3D coordinates assigned)
CCCCC[NH2+]C[C@@H](O)c1cc(-c2ccccc2)nc(-c2cccc(C)c2)c1 (optimized conformer: 66.3101016327211 kcal/mol)

>  <smiles>  (28) 
CCCCCNCC(O)c1cc(-c2ccccc2)nc(-c2cccc(C)c2)c1

>  <score_type>  (28) 
oracle

>  <origin>  (28) 
adg

>  <m_score__min__energy>  (28) 
-6.5199999999999996

>  <m_primary>  (28) 
energy

$$$$
28:0
     RDKit          3D

 36 37  0  0  0  0  0  0  0  0999 V2000
   55.7720   29.7120   43.3320 C   0  0  0  0  0  0  0  0  0  0  0  0
   56.0130   30.4870   44.4860 O   0  0  0  0  0  0  0  0  0  0  0  0
   57.0630   31.4060   44.2460 C   0  0  0  0  0  0  0  0  0  0  0  0
   58.0370   31.4440   45.4090 C   0  0  0  0  0  0  0  0  0  0  0  0
   58.5630   30.2280   45.8740 C   0  0  0  0  0  0  0  0  0  0  0  0
   59.4210   30.2130   46.9750 C   0  0  0  0  0  0  0  0  0  0  0  0
   59.9730   28.9220   47.4880 C   0  0  0  0  0  0  0  0  0  0  0  0
   59.7040   31.3700   47.6240 N   0  0  0  0  0  0  0  0  0  0  0  0
   59.2150   32.5710   47.2180 C   0  0  0  0  0  0  0  0  0  0  0  0
   59.5920   34.0120   48.2280 S   0  0  0  0  0  0  0  0  0  0  0  0
   61.3680   33.8140   48.0880 C   0  0  0  0  0  0  0  0  0  0  0  0
   61.9720   33.7320   46.8260 C   0  0  0  0  0  0  0  0  0  0  0  0
   63.3570   33.5660   46.7200 C   0  0  0  0  0  0  0  0  0  0  0  0
   64.1400   33.4690   47.8750 C   0  0  0  0  0  0  0  0  0  0  0  0
   63.5380   33.5300   49.1350 C   0  0  0  0  0  0  0  0  0  0  0  0
   62.1530   33.6950   49.2420 C   0  0  0  0  0  0  0  0  0  0  0  0
   58.3710   32.6430   46.0870 C   0  0  0  0  0  0  0  0  0  0  0  0
   57.6960   34.2400   45.5770 S   0  0  0  0  0  0  0  0  0  0  0  0
   59.2650   34.8620   44.8870 C   0  0  0  0  0  0  0  0  0  0  0  0
   55.4575   28.7005   43.6287 H   0  0  0  0  0  0  0  0  0  0  0  0
   54.9777   30.1823   42.7338 H   0  0  0  0  0  0  0  0  0  0  0  0
   56.6929   29.6489   42.7338 H   0  0  0  0  0  0  0  0  0  0  0  0
   57.6025   31.1044   43.3361 H   0  0  0  0  0  0  0  0  0  0  0  0
   56.6269   32.4085   44.1246 H   0  0  0  0  0  0  0  0  0  0  0  0
   58.2988   29.2865   45.3703 H   0  0  0  0  0  0  0  0  0  0  0  0
   59.9685   28.9326   48.5879 H   0  0  0  0  0  0  0  0  0  0  0  0
   59.3525   28.0886   47.1268 H   0  0  0  0  0  0  0  0  0  0  0  0
   61.0042   28.7948   47.1268 H   0  0  0  0  0  0  0  0  0  0  0  0
   61.3559   33.7983   45.9172 H   0  0  0  0  0  0  0  0  0  0  0  0
   63.8302   33.5118   45.7285 H   0  0  0  0  0  0  0  0  0  0  0  0
   65.2298   33.3447   47.7917 H   0  0  0  0  0  0  0  0  0  0  0  0
   64.1536   33.4482   50.0429 H   0  0  0  0  0  0  0  0  0  0  0  0
   61.6795   33.7314   50.2342 H   0  0  0  0  0  0  0  0  0  0  0  0
   59.9453   35.1317   45.7082 H   0  0  0  0  0  0  0  0  0  0  0  0
   59.7291   34.0798   44.2683 H   0  0  0  0  0  0  0  0  0  0  0  0
   59.0671   35.7497   44.2683 H   0  0  0  0  0  0  0  0  0  0  0  0
  1  2  1  0
  2  3  1  0
  3  4  1  0
  4  5  2  0
  5  6  1  0
  6  7  1  0
  6  8  2  0
  8  9  1  0
  9 10  1  0
 10 11  1  0
 11 12  2  0
 12 13  1  0
 13 14  2  0
 14 15  1  0
 15 16  2  0
  9 17  2  0
 17 18  1  0
 18 19  1  0
 17  4  1  0
 16 11  1  0
  1 20  1  0
  1 21  1  0
  1 22  1  0
  3 23  1  0
  3 24  1  0
  5 25  1  0
  7 26  1  0
  7 27  1  0
  7 28  1  0
 12 29  1  0
 13 30  1  0
 14 31  1  0
 15 32  1  0
 16 33  1  0
 19 34  1  0
 19 35  1  0
 19 36  1  0
M  END
>  <UniqueID>  (29) 
28

>  <SMILES>  (29) 
COCc1cc(C)nc(Sc2ccccc2)c1SC

>  <Energy>  (29) 
32.71061088710777

>  <Genealogy>  (29) 
COCc1cc(C)nc(Sc2ccccc2)c1SC (3D coordinates assigned)
COCc1cc(C)nc(Sc2ccccc2)c1SC (optimized conformer: 32.71061088710777 kcal/mol)

>  <smiles>  (29) 
COCc1cc(C)nc(Sc2ccccc2)c1SC

>  <score_type>  (29) 
oracle

>  <origin>  (29) 
adg

>  <m_score__min__energy>  (29) 
-7.1799999999999997

>  <m_primary>  (29) 
energy

$$$$
29:0
     RDKit          3D

 67 70  0  0  0  0  0  0  0  0999 V2000
   59.4370   33.4510   50.7960 C   0  0  0  0  0  0  0  0  0  0  0  0
   59.1480   31.9540   50.8970 C   0  0  0  0  0  0  0  0  0  0  0  0
   59.7740   31.2220   49.7790 N   0  0  0  0  0  0  0  0  0  0  0  0
   60.6170   30.0730   50.1970 C   0  0  2  0  0  0  0  0  0  0  0  0
   62.1280   30.4300   50.2680 C   0  0  0  0  0  0  0  0  0  0  0  0
   62.4930   31.5750   49.3560 C   0  0  0  0  0  0  0  0  0  0  0  0
   62.4910   31.3950   47.9610 C   0  0  0  0  0  0  0  0  0  0  0  0
   62.8370   32.4500   47.1110 C   0  0  0  0  0  0  0  0  0  0  0  0
   63.1880   33.6930   47.6460 C   0  0  0  0  0  0  0  0  0  0  0  0
   63.1920   33.8820   49.0300 C   0  0  0  0  0  0  0  0  0  0  0  0
   62.8450   32.8300   49.8850 C   0  0  0  0  0  0  0  0  0  0  0  0
   60.3690   28.8430   49.3440 C   0  0  0  0  0  0  0  0  0  0  0  0
   60.7660   27.7090   49.7320 O   0  0  0  0  0  0  0  0  0  0  0  0
   59.6050   28.9520   48.1380 N   0  0  0  0  0  0  0  0  0  0  0  0
   59.3920   27.8480   47.2040 C   0  0  0  0  0  0  0  0  0  0  0  0
   60.2420   28.0850   45.9390 C   0  0  0  0  0  0  0  0  0  0  0  0
   59.4560   28.8780   44.8900 C   0  0  0  0  0  0  0  0  0  0  0  0
   58.2530   28.1380   44.4420 N   0  0  0  0  0  0  0  0  0  0  0  0
   57.2930   28.9840   43.6990 C   0  0  0  0  0  0  0  0  0  0  0  0
   57.7420   30.4540   43.5420 C   0  0  0  0  0  0  0  0  0  0  0  0
   57.0020   31.3900   44.5080 C   0  0  0  0  0  0  0  0  0  0  0  0
   57.9040   31.8880   45.6010 C   0  0  0  0  0  0  0  0  0  0  0  0
   58.2400   31.2250   46.7790 C   0  0  0  0  0  0  0  0  0  0  0  0
   59.0120   31.9950   47.5260 O   0  0  0  0  0  0  0  0  0  0  0  0
   59.1860   33.1280   46.8880 C   0  0  0  0  0  0  0  0  0  0  0  0
   59.9210   34.2360   47.3060 C   0  0  0  0  0  0  0  0  0  0  0  0
   59.9590   35.3590   46.4580 C   0  0  0  0  0  0  0  0  0  0  0  0
   59.2690   35.3470   45.2240 C   0  0  0  0  0  0  0  0  0  0  0  0
   58.5370   34.2130   44.8270 C   0  0  0  0  0  0  0  0  0  0  0  0
   58.5210   33.1170   45.6910 C   0  0  0  0  0  0  0  0  0  0  0  0
   57.6380   27.2360   45.4490 C   0  0  0  0  0  0  0  0  0  0  0  0
   57.8840   27.7140   46.8880 C   0  0  0  0  0  0  0  0  0  0  0  0
   59.5193   33.8775   51.8066 H   0  0  0  0  0  0  0  0  0  0  0  0
   60.3817   33.6063   50.2544 H   0  0  0  0  0  0  0  0  0  0  0  0
   58.6180   33.9468   50.2544 H   0  0  0  0  0  0  0  0  0  0  0  0
   59.5497   31.5726   51.8474 H   0  0  0  0  0  0  0  0  0  0  0  0
   58.0595   31.8016   50.8522 H   0  0  0  0  0  0  0  0  0  0  0  0
   60.3630   31.8820   49.2170 H   0  0  0  0  0  0  0  0  0  0  0  0
   59.0210   30.8810   49.1350 H   0  0  0  0  0  0  0  0  0  0  0  0
   60.3070   29.8253   51.2229 H   0  0  0  0  0  0  0  0  0  0  0  0
   62.3765   30.7096   51.3025 H   0  0  0  0  0  0  0  0  0  0  0  0
   62.6965   29.5469   49.9409 H   0  0  0  0  0  0  0  0  0  0  0  0
   62.2156   30.4184   47.5362 H   0  0  0  0  0  0  0  0  0  0  0  0
   62.8330   32.3019   46.0210 H   0  0  0  0  0  0  0  0  0  0  0  0
   63.4611   34.5223   46.9769 H   0  0  0  0  0  0  0  0  0  0  0  0
   63.4687   34.8607   49.4490 H   0  0  0  0  0  0  0  0  0  0  0  0
   62.8475   32.9849   50.9740 H   0  0  0  0  0  0  0  0  0  0  0  0
   59.7142   26.8957   47.6504 H   0  0  0  0  0  0  0  0  0  0  0  0
   61.1458   28.6488   46.2133 H   0  0  0  0  0  0  0  0  0  0  0  0
   60.5121   27.1087   45.5103 H   0  0  0  0  0  0  0  0  0  0  0  0
   59.1435   29.8378   45.3271 H   0  0  0  0  0  0  0  0  0  0  0  0
   60.1075   29.0395   44.0185 H   0  0  0  0  0  0  0  0  0  0  0  0
   57.1579   28.5544   42.6954 H   0  0  0  0  0  0  0  0  0  0  0  0
   56.3610   28.9964   44.2831 H   0  0  0  0  0  0  0  0  0  0  0  0
   58.8216   30.5185   43.7428 H   0  0  0  0  0  0  0  0  0  0  0  0
   57.5073   30.7722   42.5155 H   0  0  0  0  0  0  0  0  0  0  0  0
   56.6165   32.2520   43.9437 H   0  0  0  0  0  0  0  0  0  0  0  0
   56.1815   30.8235   44.9726 H   0  0  0  0  0  0  0  0  0  0  0  0
   57.9113   30.2103   47.0479 H   0  0  0  0  0  0  0  0  0  0  0  0
   60.4545   34.2330   48.2680 H   0  0  0  0  0  0  0  0  0  0  0  0
   60.5288   36.2511   46.7572 H   0  0  0  0  0  0  0  0  0  0  0  0
   59.3047   36.2305   44.5697 H   0  0  0  0  0  0  0  0  0  0  0  0
   57.9963   34.1909   43.8693 H   0  0  0  0  0  0  0  0  0  0  0  0
   56.5533   27.1943   45.2708 H   0  0  0  0  0  0  0  0  0  0  0  0
   58.1017   26.2445   45.3401 H   0  0  0  0  0  0  0  0  0  0  0  0
   57.4042   28.6946   47.0234 H   0  0  0  0  0  0  0  0  0  0  0  0
   57.4586   26.9651   47.5723 H   0  0  0  0  0  0  0  0  0  0  0  0
  1  2  1  0
  2  3  1  0
  3  4  1  0
  4  5  1  0
  5  6  1  0
  6  7  2  0
  7  8  1  0
  8  9  2  0
  9 10  1  0
 10 11  2  0
  4 12  1  0
 12 13  2  0
 12 14  1  0
 14 15  1  0
 15 16  1  0
 16 17  1  0
 17 18  1  0
 18 19  1  0
 19 20  1  0
 20 21  1  0
 21 22  1  0
 22 23  2  0
 23 24  1  0
 24 25  1  0
 25 26  2  0
 26 27  1  0
 27 28  2  0
 28 29  1  0
 29 30  2  0
 18 31  1  0
 31 32  1  0
 11  6  1  0
 32 15  1  0
 30 22  1  0
 30 25  1  0
  1 33  1  0
  1 34  1  0
  1 35  1  0
  2 36  1  0
  2 37  1  0
  3 38  1  0
  3 39  1  0
  4 40  1  1
  5 41  1  0
  5 42  1  0
  7 43  1  0
  8 44  1  0
  9 45  1  0
 10 46  1  0
 11 47  1  0
 15 48  1  0
 16 49  1  0
 16 50  1  0
 17 51  1  0
 17 52  1  0
 19 53  1  0
 19 54  1  0
 20 55  1  0
 20 56  1  0
 21 57  1  0
 21 58  1  0
 23 59  1  0
 26 60  1  0
 27 61  1  0
 28 62  1  0
 29 63  1  0
 31 64  1  0
 31 65  1  0
 32 66  1  0
 32 67  1  0
M  CHG  2   3   1  14  -1
M  END
>  <UniqueID>  (30) 
29

>  <SMILES>  (30) 
CC[NH2+][C@H](Cc1ccccc1)C(=O)[N-]C1CCN(CCCc2coc3ccccc23)CC1

>  <Energy>  (30) 
107.35144315716676

>  <Genealogy>  (30) 
CC[NH2+]C(Cc1ccccc1)C(=O)[N-]C1CCN(CCCc2coc3ccccc23)CC1 (protonated)
CC[NH2+][C@H](Cc1ccccc1)C(=O)[N-]C1CCN(CCCc2coc3ccccc23)CC1 (chirality)
CC[NH2+][C@H](Cc1ccccc1)C(=O)[N-]C1CCN(CCCc2coc3ccccc23)CC1 (3D coordinates assigned)
CC[NH2+][C@H](Cc1ccccc1)C(=O)[N-]C1CCN(CCCc2coc3ccccc23)CC1 (nonaromatic ring conformer: 107.35144315716676 kcal/mol)

>  <smiles>  (30) 
CCNC(Cc1ccccc1)C(=O)NC1CCN(CCCc2coc3ccccc23)CC1

>  <score_type>  (30) 
oracle

>  <origin>  (30) 
adg

>  <m_score__min__energy>  (30) 
-10.32

>  <m_primary>  (30) 
energy

$$$$
30:0
     RDKit          3D

 65 66  0  0  0  0  0  0  0  0999 V2000
   58.6147   30.8163   47.7740 H   0  0  0  0  0  0  0  0  0  0  0  0
   58.5250   31.8940   47.9750 C   0  0  0  0  0  0  0  0  0  0  0  0
   58.2840   32.2820   49.1870 N   0  0  0  0  0  0  0  0  0  0  0  0
   58.1820   31.3170   50.2790 C   0  0  0  0  0  0  0  0  0  0  0  0
   58.8232   30.4517   50.0549 H   0  0  0  0  0  0  0  0  0  0  0  0
   57.1312   31.0055   50.3730 H   0  0  0  0  0  0  0  0  0  0  0  0
   58.6260   31.9380   51.6070 C   0  0  0  0  0  0  0  0  0  0  0  0
   58.0510   31.4875   52.4294 H   0  0  0  0  0  0  0  0  0  0  0  0
   58.4465   33.0228   51.5748 H   0  0  0  0  0  0  0  0  0  0  0  0
   60.0710   31.6920   51.8270 N   0  0  0  0  0  0  0  0  0  0  0  0
   60.5200   30.3770   51.3020 C   0  0  0  0  0  0  0  0  0  0  0  0
   59.8185   30.0522   50.5195 H   0  0  0  0  0  0  0  0  0  0  0  0
   60.5422   29.6719   52.1460 H   0  0  0  0  0  0  0  0  0  0  0  0
   61.9330   30.4300   50.7040 C   0  0  0  0  0  0  0  0  0  0  0  0
   62.1925   29.4371   50.3079 H   0  0  0  0  0  0  0  0  0  0  0  0
   62.6356   30.7273   51.4964 H   0  0  0  0  0  0  0  0  0  0  0  0
   62.0140   31.4220   49.6100 N   0  0  0  0  0  0  0  0  0  0  0  0
   61.5160   30.8640   48.3300 C   0  0  0  0  0  0  0  0  0  0  0  0
   60.4505   31.1143   48.2206 H   0  0  0  0  0  0  0  0  0  0  0  0
   61.6602   29.7736   48.3475 H   0  0  0  0  0  0  0  0  0  0  0  0
   62.2900   31.4360   47.1320 C   0  0  0  0  0  0  0  0  0  0  0  0
   61.7490   32.3105   46.7413 H   0  0  0  0  0  0  0  0  0  0  0  0
   62.3699   30.6510   46.3656 H   0  0  0  0  0  0  0  0  0  0  0  0
   63.6530   31.8480   47.5170 N   0  0  0  0  0  0  0  0  0  0  0  0
   63.8690   31.4560   48.4640 H   0  0  0  0  0  0  0  0  0  0  0  0
   64.3500   31.4570   46.8460 H   0  0  0  0  0  0  0  0  0  0  0  0
   63.7900   33.3160   47.6040 C   0  0  0  0  0  0  0  0  0  0  0  0
   62.8627   33.7729   47.2281 H   0  0  0  0  0  0  0  0  0  0  0  0
   64.6703   33.5898   47.0039 H   0  0  0  0  0  0  0  0  0  0  0  0
   64.0440   33.8390   49.0350 C   0  0  0  0  0  0  0  0  0  0  0  0
   63.1395   33.6681   49.6372 H   0  0  0  0  0  0  0  0  0  0  0  0
   64.2873   34.9090   48.9579 H   0  0  0  0  0  0  0  0  0  0  0  0
   65.2310   33.1430   49.7230 C   0  0  0  0  0  0  0  0  0  0  0  0
   65.5026   33.7038   50.6295 H   0  0  0  0  0  0  0  0  0  0  0  0
   66.0792   33.1155   49.0232 H   0  0  0  0  0  0  0  0  0  0  0  0
   64.8800   31.7650   50.0950 N   0  0  0  0  0  0  0  0  0  0  0  0
   63.9270   31.7780   50.5320 H   0  0  0  0  0  0  0  0  0  0  0  0
   65.8020   31.2220   51.0980 C   0  0  0  0  0  0  0  0  0  0  0  0
   65.4214   31.4462   52.1054 H   0  0  0  0  0  0  0  0  0  0  0  0
   65.8823   30.1324   50.9704 H   0  0  0  0  0  0  0  0  0  0  0  0
   66.7939   31.6802   50.9704 H   0  0  0  0  0  0  0  0  0  0  0  0
   61.3530   32.7170   49.9390 C   0  0  0  0  0  0  0  0  0  0  0  0
   60.4607   32.8230   49.3045 H   0  0  0  0  0  0  0  0  0  0  0  0
   62.0919   33.5115   49.7579 H   0  0  0  0  0  0  0  0  0  0  0  0
   60.9190   32.8310   51.4130 C   0  0  0  0  0  0  0  0  0  0  0  0
   60.3514   33.7639   51.5456 H   0  0  0  0  0  0  0  0  0  0  0  0
   61.8250   32.8265   52.0369 H   0  0  0  0  0  0  0  0  0  0  0  0
   58.6850   32.8440   46.8470 C   0  0  0  0  0  0  0  0  0  0  0  0
   59.4710   33.9900   47.0730 C   0  0  0  0  0  0  0  0  0  0  0  0
   59.9875   34.1130   48.0364 H   0  0  0  0  0  0  0  0  0  0  0  0
   59.6030   34.9710   46.0910 C   0  0  0  0  0  0  0  0  0  0  0  0
   60.2185   35.8622   46.2833 H   0  0  0  0  0  0  0  0  0  0  0  0
   58.9560   34.8230   44.8670 C   0  0  0  0  0  0  0  0  0  0  0  0
   59.0524   35.6029   44.0973 H   0  0  0  0  0  0  0  0  0  0  0  0
   58.1860   33.6880   44.6150 C   0  0  0  0  0  0  0  0  0  0  0  0
   57.6894   33.5730   43.6402 H   0  0  0  0  0  0  0  0  0  0  0  0
   58.0370   32.6860   45.5960 C   0  0  0  0  0  0  0  0  0  0  0  0
   57.2520   31.5440   45.3540 O   0  0  0  0  0  0  0  0  0  0  0  0
   56.8930   31.0740   44.0550 C   0  0  0  0  0  0  0  0  0  0  0  0
   56.0270   31.6443   43.6877 H   0  0  0  0  0  0  0  0  0  0  0  0
   57.7456   31.2101   43.3734 H   0  0  0  0  0  0  0  0  0  0  0  0
   56.5340   29.5970   44.1170 C   0  0  0  0  0  0  0  0  0  0  0  0
   57.4060   28.9460   44.9690 F   0  0  0  0  0  0  0  0  0  0  0  0
   56.6410   29.0410   42.8560 F   0  0  0  0  0  0  0  0  0  0  0  0
   55.2400   29.4380   44.5760 F   0  0  0  0  0  0  0  0  0  0  0  0
  1  2  1  0
  2  3  2  0
  3  4  1  0
  4  5  1  0
  4  6  1  0
  4  7  1  0
  7  8  1  0
  7  9  1  0
  7 10  1  0
 10 11  1  0
 11 12  1  0
 11 13  1  0
 11 14  1  0
 14 15  1  0
 14 16  1  0
 14 17  1  0
 17 18  1  0
 18 19  1  0
 18 20  1  0
 18 21  1  0
 21 22  1  0
 21 23  1  0
 21 24  1  0
 24 25  1  0
 24 26  1  0
 24 27  1  0
 27 28  1  0
 27 29  1  0
 27 30  1  0
 30 31  1  0
 30 32  1  0
 30 33  1  0
 33 34  1  0
 33 35  1  0
 33 36  1  0
 36 37  1  0
 36 38  1  0
 38 39  1  0
 38 40  1  0
 38 41  1  0
 17 42  1  0
 42 43  1  0
 42 44  1  0
 42 45  1  0
 45 46  1  0
 45 47  1  0
  2 48  1  0
 48 49  2  0
 49 50  1  0
 49 51  1  0
 51 52  1  0
 51 53  2  0
 53 54  1  0
 53 55  1  0
 55 56  1  0
 55 57  2  0
 57 58  1  0
 58 59  1  0
 59 60  1  0
 59 61  1  0
 59 62  1  0
 62 63  1  0
 62 64  1  0
 62 65  1  0
 45 10  1  0
 57 48  1  0
M  CHG  1  24   1
M  END
>  <UniqueID>  (31) 
30

>  <SMILES>  (31) 
CNCCC[NH2+]CCN1CCN(CC/N=C/c2ccccc2OCC(F)(F)F)CC1

>  <Energy>  (31) 
71.47923746026025

>  <Genealogy>  (31) 
CNCCC[NH2+]CCN1CCN(CCN=Cc2ccccc2OCC(F)(F)F)CC1 (protonated)
CNCCC[NH2+]CCN1CCN(CC/N=C/c2ccccc2OCC(F)(F)F)CC1 (cis-trans isomerization)
CNCCC[NH2+]CCN1CCN(CC/N=C/c2ccccc2OCC(F)(F)F)CC1 (3D coordinates assigned)
CNCCC[NH2+]CCN1CCN(CC/N=C/c2ccccc2OCC(F)(F)F)CC1 (nonaromatic ring conformer: 71.47923746026025 kcal/mol)

>  <smiles>  (31) 
CNCCCNCCN1CCN(CCN=Cc2ccccc2OCC(F)(F)F)CC1

>  <score_type>  (31) 
oracle

>  <origin>  (31) 
adg

>  <m_score__min__energy>  (31) 
-5.3499999999999996

>  <m_primary>  (31) 
energy

$$$$
31:0
     RDKit          3D

 51 55  0  0  0  0  0  0  0  0999 V2000
   53.9920   24.8310   45.6220 C   0  0  0  0  0  0  0  0  0  0  0  0
   54.6790   26.0280   45.9710 O   0  0  0  0  0  0  0  0  0  0  0  0
   56.0430   26.2580   45.7330 C   0  0  0  0  0  0  0  0  0  0  0  0
   56.7930   25.2420   45.1300 C   0  0  0  0  0  0  0  0  0  0  0  0
   58.1540   25.4220   44.8760 C   0  0  0  0  0  0  0  0  0  0  0  0
   58.7800   26.6220   45.2200 C   0  0  0  0  0  0  0  0  0  0  0  0
   58.0440   27.6560   45.8210 C   0  0  0  0  0  0  0  0  0  0  0  0
   58.6930   28.8930   46.1830 N   0  0  0  0  0  0  0  0  0  0  0  0
   59.8140   28.8510   46.9780 C   0  0  0  0  0  0  0  0  0  0  0  0
   60.4510   29.9990   47.3510 N   0  0  0  0  0  0  0  0  0  0  0  0
   59.9750   31.2010   46.9390 C   0  0  0  0  0  0  0  0  0  0  0  0
   60.5410   32.4540   47.2300 C   0  0  0  0  0  0  0  0  0  0  0  0
   61.7380   32.6700   48.0780 C   0  0  0  0  0  0  0  0  0  0  0  0
   61.6260   32.9830   49.4380 C   0  0  0  0  0  0  0  0  0  0  0  0
   62.7400   33.1820   50.1860 N   0  0  0  0  0  0  0  0  0  0  0  0
   63.9840   33.0800   49.6460 C   0  0  0  0  0  0  0  0  0  0  0  0
   65.1410   33.3080   50.4720 N   0  0  0  0  0  0  0  0  0  0  0  0
   65.0460   34.2480   51.5960 C   0  0  0  0  0  0  0  0  0  0  0  0
   66.4270   34.4890   52.2230 C   0  0  0  0  0  0  0  0  0  0  0  0
   67.4510   34.6030   51.1760 N   0  0  0  0  0  0  0  0  0  0  0  0
   67.6160   33.3540   50.4050 C   0  0  0  0  0  0  0  0  0  0  0  0
   66.3450   32.4810   50.3450 C   0  0  0  0  0  0  0  0  0  0  0  0
   64.1190   32.8040   48.3180 N   0  0  0  0  0  0  0  0  0  0  0  0
   63.0280   32.5990   47.5330 C   0  0  0  0  0  0  0  0  0  0  0  0
   59.8420   33.4980   46.6100 C   0  0  0  0  0  0  0  0  0  0  0  0
   58.5420   32.8610   45.7340 S   0  0  0  0  0  0  0  0  0  0  0  0
   58.8630   31.2630   46.1290 C   0  0  0  0  0  0  0  0  0  0  0  0
   58.2090   30.1000   45.7390 C   0  0  0  0  0  0  0  0  0  0  0  0
   57.2050   30.1660   44.9780 O   0  0  0  0  0  0  0  0  0  0  0  0
   56.6760   27.4680   46.0810 C   0  0  0  0  0  0  0  0  0  0  0  0
   53.6885   24.3022   46.5376 H   0  0  0  0  0  0  0  0  0  0  0  0
   53.0994   25.0800   45.0294 H   0  0  0  0  0  0  0  0  0  0  0  0
   54.6573   24.1859   45.0294 H   0  0  0  0  0  0  0  0  0  0  0  0
   56.3067   24.2947   44.8541 H   0  0  0  0  0  0  0  0  0  0  0  0
   58.7349   24.6162   44.4035 H   0  0  0  0  0  0  0  0  0  0  0  0
   59.8530   26.7577   45.0196 H   0  0  0  0  0  0  0  0  0  0  0  0
   60.2025   27.8796   47.3178 H   0  0  0  0  0  0  0  0  0  0  0  0
   60.6319   33.0678   49.9013 H   0  0  0  0  0  0  0  0  0  0  0  0
   64.6427   35.2049   51.2329 H   0  0  0  0  0  0  0  0  0  0  0  0
   64.3818   33.8181   52.3602 H   0  0  0  0  0  0  0  0  0  0  0  0
   66.4019   35.4199   52.8086 H   0  0  0  0  0  0  0  0  0  0  0  0
   66.6763   33.6391   52.8754 H   0  0  0  0  0  0  0  0  0  0  0  0
   67.1710   35.3700   50.5220 H   0  0  0  0  0  0  0  0  0  0  0  0
   67.9033   33.6178   49.3765 H   0  0  0  0  0  0  0  0  0  0  0  0
   68.3855   32.7609   50.9208 H   0  0  0  0  0  0  0  0  0  0  0  0
   66.3176   31.9490   49.3826 H   0  0  0  0  0  0  0  0  0  0  0  0
   66.3699   31.7629   51.1779 H   0  0  0  0  0  0  0  0  0  0  0  0
   65.0620   32.7780   47.8720 H   0  0  0  0  0  0  0  0  0  0  0  0
   63.1581   32.3761   46.4637 H   0  0  0  0  0  0  0  0  0  0  0  0
   60.0983   34.5653   46.6815 H   0  0  0  0  0  0  0  0  0  0  0  0
   56.0954   28.2706   46.5593 H   0  0  0  0  0  0  0  0  0  0  0  0
  1  2  1  0
  2  3  1  0
  3  4  2  0
  4  5  1  0
  5  6  2  0
  6  7  1  0
  7  8  1  0
  8  9  1  0
  9 10  2  0
 10 11  1  0
 11 12  1  0
 12 13  1  0
 13 14  2  0
 14 15  1  0
 15 16  2  0
 16 17  1  0
 17 18  1  0
 18 19  1  0
 19 20  1  0
 20 21  1  0
 21 22  1  0
 16 23  1  0
 23 24  2  0
 12 25  2  0
 25 26  1  0
 26 27  1  0
 27 28  1  0
 28 29  2  0
  7 30  2  0
 30  3  1  0
 28  8  1  0
 27 11  2  0
 24 13  1  0
 22 17  1  0
  1 31  1  0
  1 32  1  0
  1 33  1  0
  4 34  1  0
  5 35  1  0
  6 36  1  0
  9 37  1  0
 14 38  1  0
 18 39  1  0
 18 40  1  0
 19 41  1  0
 19 42  1  0
 20 43  1  0
 21 44  1  0
 21 45  1  0
 22 46  1  0
 22 47  1  0
 23 48  1  0
 24 49  1  0
 25 50  1  0
 30 51  1  0
M  CHG  1  23   1
M  END
>  <UniqueID>  (32) 
31

>  <SMILES>  (32) 
COc1cccc(-n2cnc3c(-c4cnc(N5CCNCC5)[nH+]c4)csc3c2=O)c1

>  <Energy>  (32) 
109.16280528054001

>  <Genealogy>  (32) 
COc1cccc(-n2cnc3c(-c4cnc(N5CCNCC5)[nH+]c4)csc3c2=O)c1 (protonated)
COc1cccc(-n2cnc3c(-c4cnc(N5CCNCC5)[nH+]c4)csc3c2=O)c1 (3D coordinates assigned)
COc1cccc(-n2cnc3c(-c4cnc(N5CCNCC5)[nH+]c4)csc3c2=O)c1 (nonaromatic ring conformer: 109.16280528054001 kcal/mol)

>  <smiles>  (32) 
COc1cccc(-n2cnc3c(-c4cnc(N5CCNCC5)nc4)csc3c2=O)c1

>  <score_type>  (32) 
oracle

>  <origin>  (32) 
adg

>  <m_score__min__energy>  (32) 
-7.6399999999999997

>  <m_primary>  (32) 
energy

$$$$
32:0
     RDKit          3D

 41 44  0  0  0  0  0  0  0  0999 V2000
   56.0900   24.0720   44.3810 C   0  0  0  0  0  0  0  0  0  0  0  0
   55.9540   24.6830   45.6600 O   0  0  0  0  0  0  0  0  0  0  0  0
   56.8030   25.6860   46.1530 C   0  0  0  0  0  0  0  0  0  0  0  0
   57.7520   25.4420   47.1570 C   0  0  0  0  0  0  0  0  0  0  0  0
   58.5720   26.4740   47.6130 C   0  0  0  0  0  0  0  0  0  0  0  0
   58.4700   27.7680   47.0770 C   0  0  0  0  0  0  0  0  0  0  0  0
   57.5110   28.0270   46.0600 C   0  0  0  0  0  0  0  0  0  0  0  0
   56.6880   26.9720   45.6210 C   0  0  0  0  0  0  0  0  0  0  0  0
   57.2630   29.3860   45.4990 C   0  0  0  0  0  0  0  0  0  0  0  0
   56.0760   29.7000   45.2030 O   0  0  0  0  0  0  0  0  0  0  0  0
   58.3190   30.3410   45.2550 N   0  0  0  0  0  0  0  0  0  0  0  0
   57.9680   31.7080   44.8560 C   0  0  0  0  0  0  0  0  0  0  0  0
   59.7240   29.9650   45.4110 C   0  0  0  0  0  0  0  0  0  0  0  0
   59.9910   29.7290   46.8610 C   0  0  0  0  0  0  0  0  0  0  0  0
   60.7430   30.4970   47.7380 C   0  0  0  0  0  0  0  0  0  0  0  0
   61.5930   31.6630   47.4260 C   0  0  0  0  0  0  0  0  0  0  0  0
   61.0650   32.7750   46.7520 C   0  0  0  0  0  0  0  0  0  0  0  0
   61.8990   33.8510   46.4450 C   0  0  0  0  0  0  0  0  0  0  0  0
   63.2480   33.8060   46.7970 C   0  0  0  0  0  0  0  0  0  0  0  0
   63.7470   32.6750   47.4450 C   0  0  0  0  0  0  0  0  0  0  0  0
   62.9230   31.6320   47.7370 N   0  0  0  0  0  0  0  0  0  0  0  0
   60.5710   30.0350   48.9940 N   0  0  0  0  0  0  0  0  0  0  0  0
   59.7280   28.9900   48.8560 C   0  0  0  0  0  0  0  0  0  0  0  0
   59.3480   28.7940   47.5760 N   0  0  0  0  0  0  0  0  0  0  0  0
   56.3274   23.0054   44.5076 H   0  0  0  0  0  0  0  0  0  0  0  0
   55.1471   24.1742   43.8237 H   0  0  0  0  0  0  0  0  0  0  0  0
   56.9005   24.5644   43.8237 H   0  0  0  0  0  0  0  0  0  0  0  0
   57.8497   24.4338   47.5859 H   0  0  0  0  0  0  0  0  0  0  0  0
   59.3092   26.2714   48.4039 H   0  0  0  0  0  0  0  0  0  0  0  0
   55.9370   27.1654   44.8408 H   0  0  0  0  0  0  0  0  0  0  0  0
   57.8101   32.3230   45.7542 H   0  0  0  0  0  0  0  0  0  0  0  0
   58.7853   32.1365   44.2573 H   0  0  0  0  0  0  0  0  0  0  0  0
   57.0454   31.6897   44.2573 H   0  0  0  0  0  0  0  0  0  0  0  0
   59.9281   29.0463   44.8414 H   0  0  0  0  0  0  0  0  0  0  0  0
   60.3741   30.7678   45.0330 H   0  0  0  0  0  0  0  0  0  0  0  0
   60.0025   32.7983   46.4680 H   0  0  0  0  0  0  0  0  0  0  0  0
   61.4935   34.7325   45.9267 H   0  0  0  0  0  0  0  0  0  0  0  0
   63.9113   34.6527   46.5664 H   0  0  0  0  0  0  0  0  0  0  0  0
   64.8107   32.6265   47.7208 H   0  0  0  0  0  0  0  0  0  0  0  0
   63.3260   30.7990   48.2230 H   0  0  0  0  0  0  0  0  0  0  0  0
   59.3877   28.3660   49.6955 H   0  0  0  0  0  0  0  0  0  0  0  0
  1  2  1  0
  2  3  1  0
  3  4  2  0
  4  5  1  0
  5  6  2  0
  6  7  1  0
  7  8  2  0
  7  9  1  0
  9 10  2  0
  9 11  1  0
 11 12  1  0
 11 13  1  0
 13 14  1  0
 14 15  2  0
 15 16  1  0
 16 17  2  0
 17 18  1  0
 18 19  2  0
 19 20  1  0
 20 21  2  0
 15 22  1  0
 22 23  2  0
 23 24  1  0
  8  3  1  0
 24 14  1  0
 24  6  1  0
 21 16  1  0
  1 25  1  0
  1 26  1  0
  1 27  1  0
  4 28  1  0
  5 29  1  0
  8 30  1  0
 12 31  1  0
 12 32  1  0
 12 33  1  0
 13 34  1  0
 13 35  1  0
 17 36  1  0
 18 37  1  0
 19 38  1  0
 20 39  1  0
 21 40  1  0
 23 41  1  0
M  CHG  1  21   1
M  END
>  <UniqueID>  (33) 
32

>  <SMILES>  (33) 
COc1ccc2c(c1)C(=O)N(C)Cc1c(-c3cccc[nH+]3)ncn1-2

>  <Energy>  (33) 
89.78650072539618

>  <Genealogy>  (33) 
COc1ccc2c(c1)C(=O)N(C)Cc1c(-c3cccc[nH+]3)ncn1-2 (protonated)
COc1ccc2c(c1)C(=O)N(C)Cc1c(-c3cccc[nH+]3)ncn1-2 (3D coordinates assigned)
COc1ccc2c(c1)C(=O)N(C)Cc1c(-c3cccc[nH+]3)ncn1-2 (nonaromatic ring conformer: 89.78650072539618 kcal/mol)

>  <smiles>  (33) 
COc1ccc2c(c1)C(=O)N(C)Cc1c(-c3ccccn3)ncn1-2

>  <score_type>  (33) 
oracle

>  <origin>  (33) 
adg

>  <m_score__min__energy>  (33) 
-5.6299999999999999

>  <m_primary>  (33) 
energy

$$$$
33:0
     RDKit          3D

 46 48  0  0  0  0  0  0  0  0999 V2000
   57.7460   26.1470   44.4390 C   0  0  0  0  0  0  0  0  0  0  0  0
   58.4060   27.3960   43.8710 C   0  0  0  0  0  0  0  0  0  0  0  0
   58.6980   28.3520   44.9470 N   0  0  0  0  0  0  0  0  0  0  0  0
   58.1560   29.5840   45.0990 C   0  0  0  0  0  0  0  0  0  0  0  0
   57.0130   30.1360   44.2910 C   0  0  0  0  0  0  0  0  0  0  0  0
   56.6250   31.4760   44.7600 N   0  0  0  0  0  0  0  0  0  0  0  0
   57.4040   32.5510   44.1240 C   0  0  0  0  0  0  0  0  0  0  0  0
   58.0980   33.3820   45.1620 C   0  0  0  0  0  0  0  0  0  0  0  0
   59.1810   34.2230   44.9430 C   0  0  0  0  0  0  0  0  0  0  0  0
   59.6390   34.8450   46.1100 C   0  0  0  0  0  0  0  0  0  0  0  0
   58.9120   34.5080   47.2440 C   0  0  0  0  0  0  0  0  0  0  0  0
   57.6990   33.4330   46.7950 S   0  0  0  0  0  0  0  0  0  0  0  0
   58.7290   30.2310   46.1770 C   0  0  0  0  0  0  0  0  0  0  0  0
   59.6750   29.3690   46.6940 C   0  0  0  0  0  0  0  0  0  0  0  0
   60.5130   29.6530   47.8740 C   0  0  0  0  0  0  0  0  0  0  0  0
   60.6140   28.7670   48.7660 O   0  0  0  0  0  0  0  0  0  0  0  0
   61.2010   30.9530   48.0610 C   0  0  0  0  0  0  0  0  0  0  0  0
   62.3670   31.2450   47.3280 C   0  0  0  0  0  0  0  0  0  0  0  0
   63.0250   32.4660   47.5040 C   0  0  0  0  0  0  0  0  0  0  0  0
   62.5330   33.4040   48.4150 C   0  0  0  0  0  0  0  0  0  0  0  0
   63.1740   34.5870   48.5830 F   0  0  0  0  0  0  0  0  0  0  0  0
   61.3850   33.1200   49.1580 C   0  0  0  0  0  0  0  0  0  0  0  0
   60.7240   31.8990   48.9870 C   0  0  0  0  0  0  0  0  0  0  0  0
   59.6220   28.2080   45.9280 C   0  0  0  0  0  0  0  0  0  0  0  0
   60.4070   26.9480   46.1720 C   0  0  0  0  0  0  0  0  0  0  0  0
   57.7678   26.1883   45.5380 H   0  0  0  0  0  0  0  0  0  0  0  0
   56.7026   26.0948   44.0947 H   0  0  0  0  0  0  0  0  0  0  0  0
   58.2908   25.2556   44.0947 H   0  0  0  0  0  0  0  0  0  0  0  0
   59.3444   27.1150   43.3706 H   0  0  0  0  0  0  0  0  0  0  0  0
   57.7211   27.8665   43.1503 H   0  0  0  0  0  0  0  0  0  0  0  0
   57.3179   30.1999   43.2360 H   0  0  0  0  0  0  0  0  0  0  0  0
   56.1497   29.4641   44.4065 H   0  0  0  0  0  0  0  0  0  0  0  0
   55.6220   31.6140   44.4940 H   0  0  0  0  0  0  0  0  0  0  0  0
   58.1552   32.1063   43.4548 H   0  0  0  0  0  0  0  0  0  0  0  0
   56.7200   33.1951   43.5518 H   0  0  0  0  0  0  0  0  0  0  0  0
   59.6329   34.3839   43.9531 H   0  0  0  0  0  0  0  0  0  0  0  0
   60.4947   35.5361   46.1273 H   0  0  0  0  0  0  0  0  0  0  0  0
   59.0977   34.8805   48.2622 H   0  0  0  0  0  0  0  0  0  0  0  0
   58.4802   31.2355   46.5499 H   0  0  0  0  0  0  0  0  0  0  0  0
   62.7625   30.5086   46.6130 H   0  0  0  0  0  0  0  0  0  0  0  0
   63.9325   32.6887   46.9236 H   0  0  0  0  0  0  0  0  0  0  0  0
   61.0003   33.8570   49.8783 H   0  0  0  0  0  0  0  0  0  0  0  0
   59.8250   31.6769   49.5806 H   0  0  0  0  0  0  0  0  0  0  0  0
   60.5094   26.7837   47.2548 H   0  0  0  0  0  0  0  0  0  0  0  0
   59.8805   26.0946   45.7198 H   0  0  0  0  0  0  0  0  0  0  0  0
   61.4051   27.0445   45.7198 H   0  0  0  0  0  0  0  0  0  0  0  0
  1  2  1  0
  2  3  1  0
  3  4  1  0
  4  5  1  0
  5  6  1  0
  6  7  1  0
  7  8  1  0
  8  9  2  0
  9 10  1  0
 10 11  2  0
 11 12  1  0
  4 13  2  0
 13 14  1  0
 14 15  1  0
 15 16  2  0
 15 17  1  0
 17 18  2  0
 18 19  1  0
 19 20  2  0
 20 21  1  0
 20 22  1  0
 22 23  2  0
 14 24  2  0
 24 25  1  0
 24  3  1  0
 12  8  1  0
 23 17  1  0
  1 26  1  0
  1 27  1  0
  1 28  1  0
  2 29  1  0
  2 30  1  0
  5 31  1  0
  5 32  1  0
  6 33  1  0
  7 34  1  0
  7 35  1  0
  9 36  1  0
 10 37  1  0
 11 38  1  0
 13 39  1  0
 18 40  1  0
 19 41  1  0
 22 42  1  0
 23 43  1  0
 25 44  1  0
 25 45  1  0
 25 46  1  0
M  END
>  <UniqueID>  (34) 
33

>  <SMILES>  (34) 
CCn1c(CNCc2cccs2)cc(C(=O)c2ccc(F)cc2)c1C

>  <Energy>  (34) 
97.50310388328874

>  <Genealogy>  (34) 
CCn1c(CNCc2cccs2)cc(C(=O)c2ccc(F)cc2)c1C (3D coordinates assigned)
CCn1c(CNCc2cccs2)cc(C(=O)c2ccc(F)cc2)c1C (optimized conformer: 97.50310388328874 kcal/mol)

>  <smiles>  (34) 
CCn1c(CNCc2cccs2)cc(C(=O)c2ccc(F)cc2)c1C

>  <score_type>  (34) 
oracle

>  <origin>  (34) 
adg

>  <m_score__min__energy>  (34) 
-7.9299999999999997

>  <m_primary>  (34) 
energy

$$$$
34:0
     RDKit          3D

 45 47  0  0  0  0  0  0  0  0999 V2000
   55.7440   30.0970   43.8790 C   0  0  0  0  0  0  0  0  0  0  0  0
   56.1180   29.6260   45.1680 O   0  0  0  0  0  0  0  0  0  0  0  0
   57.1950   28.7600   45.4200 C   0  0  0  0  0  0  0  0  0  0  0  0
   57.0850   27.3640   45.2610 C   0  0  0  0  0  0  0  0  0  0  0  0
   58.1890   26.5400   45.4850 C   0  0  0  0  0  0  0  0  0  0  0  0
   59.4130   27.0940   45.8650 C   0  0  0  0  0  0  0  0  0  0  0  0
   59.5320   28.4740   46.0320 C   0  0  0  0  0  0  0  0  0  0  0  0
   58.4250   29.3110   45.8320 C   0  0  0  0  0  0  0  0  0  0  0  0
   58.5710   30.7280   45.9960 N   0  0  0  0  0  0  0  0  0  0  0  0
   58.0600   31.6020   45.1430 N   0  0  0  0  0  0  0  0  0  0  0  0
   58.3430   32.8380   45.5980 C   0  0  0  0  0  0  0  0  0  0  0  0
   57.8750   34.0750   44.9020 C   0  0  0  0  0  0  0  0  0  0  0  0
   59.0440   32.7440   46.7960 C   0  0  0  0  0  0  0  0  0  0  0  0
   59.6130   34.0550   47.8460 S   0  0  0  0  0  0  0  0  0  0  0  0
   58.9010   35.3270   47.4790 O   0  0  0  0  0  0  0  0  0  0  0  0
   59.2730   33.7450   49.2760 O   0  0  0  0  0  0  0  0  0  0  0  0
   61.3370   34.3180   47.6930 N   0  0  0  0  0  0  0  0  0  0  0  0
   62.0950   33.7500   48.8280 C   0  0  0  0  0  0  0  0  0  0  0  0
   62.8990   32.5020   48.4220 C   0  0  0  0  0  0  0  0  0  0  0  0
   63.8240   32.7590   47.3750 O   0  0  0  0  0  0  0  0  0  0  0  0
   63.3480   33.6820   46.4010 C   0  0  0  0  0  0  0  0  0  0  0  0
   61.8190   33.8490   46.3810 C   0  0  0  0  0  0  0  0  0  0  0  0
   59.1890   31.3810   47.0060 C   0  0  0  0  0  0  0  0  0  0  0  0
   60.0040   30.7320   48.0910 C   0  0  0  0  0  0  0  0  0  0  0  0
   55.0632   30.9544   43.9852 H   0  0  0  0  0  0  0  0  0  0  0  0
   56.6432   30.4089   43.3275 H   0  0  0  0  0  0  0  0  0  0  0  0
   55.2364   29.2919   43.3275 H   0  0  0  0  0  0  0  0  0  0  0  0
   56.1243   26.9216   44.9589 H   0  0  0  0  0  0  0  0  0  0  0  0
   58.0945   25.4510   45.3618 H   0  0  0  0  0  0  0  0  0  0  0  0
   60.2833   26.4425   46.0327 H   0  0  0  0  0  0  0  0  0  0  0  0
   60.5001   28.9080   46.3223 H   0  0  0  0  0  0  0  0  0  0  0  0
   57.5893   34.8302   45.6490 H   0  0  0  0  0  0  0  0  0  0  0  0
   58.6857   34.4704   44.2724 H   0  0  0  0  0  0  0  0  0  0  0  0
   57.0056   33.8348   44.2724 H   0  0  0  0  0  0  0  0  0  0  0  0
   62.7915   34.5128   49.2063 H   0  0  0  0  0  0  0  0  0  0  0  0
   61.3723   33.4501   49.6011 H   0  0  0  0  0  0  0  0  0  0  0  0
   63.4540   32.1405   49.3003 H   0  0  0  0  0  0  0  0  0  0  0  0
   62.1830   31.7522   48.0544 H   0  0  0  0  0  0  0  0  0  0  0  0
   63.7991   34.6638   46.6074 H   0  0  0  0  0  0  0  0  0  0  0  0
   63.6336   33.2783   45.4184 H   0  0  0  0  0  0  0  0  0  0  0  0
   61.5445   34.5840   45.6100 H   0  0  0  0  0  0  0  0  0  0  0  0
   61.3563   32.8765   46.1572 H   0  0  0  0  0  0  0  0  0  0  0  0
   59.6175   31.0398   49.0738 H   0  0  0  0  0  0  0  0  0  0  0  0
   59.9358   29.6382   47.9963 H   0  0  0  0  0  0  0  0  0  0  0  0
   61.0547   31.0434   47.9963 H   0  0  0  0  0  0  0  0  0  0  0  0
  1  2  1  0
  2  3  1  0
  3  4  2  0
  4  5  1  0
  5  6  2  0
  6  7  1  0
  7  8  2  0
  8  9  1  0
  9 10  1  0
 10 11  2  0
 11 12  1  0
 11 13  1  0
 13 14  1  0
 14 15  2  0
 14 16  2  0
 14 17  1  0
 17 18  1  0
 18 19  1  0
 19 20  1  0
 20 21  1  0
 21 22  1  0
 13 23  2  0
 23 24  1  0
  8  3  1  0
 23  9  1  0
 22 17  1  0
  1 25  1  0
  1 26  1  0
  1 27  1  0
  4 28  1  0
  5 29  1  0
  6 30  1  0
  7 31  1  0
 12 32  1  0
 12 33  1  0
 12 34  1  0
 18 35  1  0
 18 36  1  0
 19 37  1  0
 19 38  1  0
 21 39  1  0
 21 40  1  0
 22 41  1  0
 22 42  1  0
 24 43  1  0
 24 44  1  0
 24 45  1  0
M  END
>  <UniqueID>  (35) 
34

>  <SMILES>  (35) 
COc1ccccc1-n1nc(C)c(S(=O)(=O)N2CCOCC2)c1C

>  <Energy>  (35) 
93.45297483382551

>  <Genealogy>  (35) 
COc1ccccc1-n1nc(C)c(S(=O)(=O)N2CCOCC2)c1C (3D coordinates assigned)
COc1ccccc1-n1nc(C)c(S(=O)(=O)N2CCOCC2)c1C (nonaromatic ring conformer: 93.45297483382551 kcal/mol)

>  <smiles>  (35) 
COc1ccccc1-n1nc(C)c(S(=O)(=O)N2CCOCC2)c1C

>  <score_type>  (35) 
oracle

>  <origin>  (35) 
adg

>  <m_score__min__energy>  (35) 
-8.0299999999999994

>  <m_primary>  (35) 
energy

$$$$
35:0
     RDKit          3D

 44 45  0  0  0  0  0  0  0  0999 V2000
   60.2070   30.9650   48.5910 C   0  0  0  0  0  0  0  0  0  0  0  0
   60.4680   31.1780   47.1610 N   0  0  0  0  0  0  0  0  0  0  0  0
   61.5260   32.1930   46.9550 C   0  0  0  0  0  0  0  0  0  0  0  0
   60.9880   33.5170   46.3570 C   0  0  0  0  0  0  0  0  0  0  0  0
   59.5120   33.6860   46.3900 N   0  0  0  0  0  0  0  0  0  0  0  0
   58.9550   34.1510   45.1070 C   0  0  0  0  0  0  0  0  0  0  0  0
   59.0500   34.5360   47.5030 C   0  0  0  0  0  0  0  0  0  0  0  0
   60.6520   29.9000   46.4190 C   0  0  0  0  0  0  0  0  0  0  0  0
   59.4160   29.0060   46.3530 C   0  0  0  0  0  0  0  0  0  0  0  0
   59.4790   27.7490   46.9820 C   0  0  0  0  0  0  0  0  0  0  0  0
   58.3920   26.8780   46.9650 C   0  0  0  0  0  0  0  0  0  0  0  0
   57.2300   27.2270   46.2860 C   0  0  0  0  0  0  0  0  0  0  0  0
   57.1520   28.4400   45.5940 C   0  0  0  0  0  0  0  0  0  0  0  0
   58.2380   29.3510   45.6250 C   0  0  0  0  0  0  0  0  0  0  0  0
   58.1640   30.5910   44.7500 C   0  0  0  0  0  0  0  0  0  0  0  0
   56.7220   31.0470   44.5090 C   0  0  0  0  0  0  0  0  0  0  0  0
   55.8870   29.8960   43.9570 C   0  0  0  0  0  0  0  0  0  0  0  0
   55.9570   28.7520   44.8590 N   0  0  0  0  0  0  0  0  0  0  0  0
   60.9239   31.5501   49.1857 H   0  0  0  0  0  0  0  0  0  0  0  0
   59.1830   31.2886   48.8290 H   0  0  0  0  0  0  0  0  0  0  0  0
   60.3187   29.8969   48.8290 H   0  0  0  0  0  0  0  0  0  0  0  0
   61.9951   32.4121   47.9256 H   0  0  0  0  0  0  0  0  0  0  0  0
   62.2457   31.7759   46.2353 H   0  0  0  0  0  0  0  0  0  0  0  0
   61.4361   34.3489   46.9201 H   0  0  0  0  0  0  0  0  0  0  0  0
   61.2641   33.4992   45.2924 H   0  0  0  0  0  0  0  0  0  0  0  0
   59.1130   32.7320   46.5610 H   0  0  0  0  0  0  0  0  0  0  0  0
   58.1235   34.8452   45.2984 H   0  0  0  0  0  0  0  0  0  0  0  0
   59.7385   34.6669   44.5326 H   0  0  0  0  0  0  0  0  0  0  0  0
   58.5873   33.2879   44.5326 H   0  0  0  0  0  0  0  0  0  0  0  0
   59.3089   34.0596   48.4601 H   0  0  0  0  0  0  0  0  0  0  0  0
   59.5373   35.5201   47.4396 H   0  0  0  0  0  0  0  0  0  0  0  0
   57.9591   34.6623   47.4396 H   0  0  0  0  0  0  0  0  0  0  0  0
   60.9516   30.1440   45.3891 H   0  0  0  0  0  0  0  0  0  0  0  0
   61.4128   29.3307   46.9731 H   0  0  0  0  0  0  0  0  0  0  0  0
   60.4036   27.4485   47.4966 H   0  0  0  0  0  0  0  0  0  0  0  0
   58.4531   25.9130   47.4894 H   0  0  0  0  0  0  0  0  0  0  0  0
   56.3669   26.5451   46.2931 H   0  0  0  0  0  0  0  0  0  0  0  0
   58.7148   31.4054   45.2433 H   0  0  0  0  0  0  0  0  0  0  0  0
   58.6055   30.3410   43.7740 H   0  0  0  0  0  0  0  0  0  0  0  0
   56.2859   31.3882   45.4594 H   0  0  0  0  0  0  0  0  0  0  0  0
   56.7246   31.8692   43.7783 H   0  0  0  0  0  0  0  0  0  0  0  0
   54.8402   30.2194   43.8593 H   0  0  0  0  0  0  0  0  0  0  0  0
   56.2805   29.6041   42.9722 H   0  0  0  0  0  0  0  0  0  0  0  0
   55.1440   28.0960   44.8880 H   0  0  0  0  0  0  0  0  0  0  0  0
  1  2  1  0
  2  3  1  0
  3  4  1  0
  4  5  1  0
  5  6  1  0
  5  7  1  0
  2  8  1  0
  8  9  1  0
  9 10  2  0
 10 11  1  0
 11 12  2  0
 12 13  1  0
 13 14  2  0
 14 15  1  0
 15 16  1  0
 16 17  1  0
 17 18  1  0
 14  9  1  0
 18 13  1  0
  1 19  1  0
  1 20  1  0
  1 21  1  0
  3 22  1  0
  3 23  1  0
  4 24  1  0
  4 25  1  0
  5 26  1  0
  6 27  1  0
  6 28  1  0
  6 29  1  0
  7 30  1  0
  7 31  1  0
  7 32  1  0
  8 33  1  0
  8 34  1  0
 10 35  1  0
 11 36  1  0
 12 37  1  0
 15 38  1  0
 15 39  1  0
 16 40  1  0
 16 41  1  0
 17 42  1  0
 17 43  1  0
 18 44  1  0
M  CHG  1   5   1
M  END
>  <UniqueID>  (36) 
35

>  <SMILES>  (36) 
CN(CC[NH+](C)C)Cc1cccc2c1CCCN2

>  <Energy>  (36) 
53.58956905763437

>  <Genealogy>  (36) 
CN(CC[NH+](C)C)Cc1cccc2c1CCCN2 (protonated)
CN(CC[NH+](C)C)Cc1cccc2c1CCCN2 (3D coordinates assigned)
CN(CC[NH+](C)C)Cc1cccc2c1CCCN2 (nonaromatic ring conformer: 53.58956905763437 kcal/mol)

>  <smiles>  (36) 
CN(C)CCN(C)Cc1cccc2c1CCCN2

>  <score_type>  (36) 
oracle

>  <origin>  (36) 
adg

>  <m_score__min__energy>  (36) 
-5.0999999999999996

>  <m_primary>  (36) 
energy

$$$$
36:0
     RDKit          3D

 36 36  0  0  0  0  0  0  0  0999 V2000
   62.9800   33.7450   49.5260 C   0  0  0  0  0  0  0  0  0  0  0  0
   64.1500   33.1070   48.7710 C   0  0  0  0  0  0  0  0  0  0  0  0
   63.7310   32.4950   47.4830 N   0  0  1  0  0  0  0  0  0  0  0  0
   62.5890   31.5730   47.6580 C   0  0  0  0  0  0  0  0  0  0  0  0
   63.4300   33.5310   46.4660 C   0  0  0  0  0  0  0  0  0  0  0  0
   62.0000   33.8950   46.4200 C   0  0  0  0  0  0  0  0  0  0  0  0
   60.8320   34.1890   46.3790 C   0  0  0  0  0  0  0  0  0  0  0  0
   59.4110   34.5500   46.3330 C   0  0  0  0  0  0  0  0  0  0  0  0
   58.7800   34.0570   45.0340 C   0  0  0  0  0  0  0  0  0  0  0  0
   57.0610   33.5320   45.3440 S   0  0  0  0  0  0  0  0  0  0  0  0
   57.3810   31.8200   44.9130 C   0  0  0  0  0  0  0  0  0  0  0  0
   58.3460   31.0870   45.6170 C   0  0  0  0  0  0  0  0  0  0  0  0
   58.5930   29.7520   45.2820 C   0  0  0  0  0  0  0  0  0  0  0  0
   57.8760   29.1450   44.2450 C   0  0  0  0  0  0  0  0  0  0  0  0
   58.2150   27.3220   43.7870 Br  0  0  0  0  0  0  0  0  0  0  0  0
   56.9090   29.8740   43.5440 C   0  0  0  0  0  0  0  0  0  0  0  0
   56.6610   31.2100   43.8780 C   0  0  0  0  0  0  0  0  0  0  0  0
   63.1487   33.6530   50.6091 H   0  0  0  0  0  0  0  0  0  0  0  0
   62.9055   34.8086   49.2556 H   0  0  0  0  0  0  0  0  0  0  0  0
   62.0455   33.2316   49.2556 H   0  0  0  0  0  0  0  0  0  0  0  0
   64.9017   33.8831   48.5646 H   0  0  0  0  0  0  0  0  0  0  0  0
   64.5588   32.3057   49.4041 H   0  0  0  0  0  0  0  0  0  0  0  0
   64.5320   31.9360   47.1060 H   0  0  0  0  0  0  0  0  0  0  0  0
   62.4013   31.4214   48.7312 H   0  0  0  0  0  0  0  0  0  0  0  0
   61.6938   32.0045   47.1865 H   0  0  0  0  0  0  0  0  0  0  0  0
   62.8221   30.6069   47.1865 H   0  0  0  0  0  0  0  0  0  0  0  0
   64.0141   34.4331   46.7009 H   0  0  0  0  0  0  0  0  0  0  0  0
   63.6956   33.1146   45.4831 H   0  0  0  0  0  0  0  0  0  0  0  0
   58.8919   34.0890   47.1862 H   0  0  0  0  0  0  0  0  0  0  0  0
   59.3187   35.6450   46.3820 H   0  0  0  0  0  0  0  0  0  0  0  0
   58.7857   34.8703   44.2933 H   0  0  0  0  0  0  0  0  0  0  0  0
   59.3575   33.2030   44.6504 H   0  0  0  0  0  0  0  0  0  0  0  0
   58.9095   31.5621   46.4336 H   0  0  0  0  0  0  0  0  0  0  0  0
   59.3518   29.1784   45.8344 H   0  0  0  0  0  0  0  0  0  0  0  0
   56.3436   29.3967   42.7301 H   0  0  0  0  0  0  0  0  0  0  0  0
   55.8997   31.7818   43.3271 H   0  0  0  0  0  0  0  0  0  0  0  0
  1  2  1  0
  2  3  1  0
  3  4  1  0
  3  5  1  0
  5  6  1  0
  6  7  3  0
  7  8  1  0
  8  9  1  0
  9 10  1  0
 10 11  1  0
 11 12  2  0
 12 13  1  0
 13 14  2  0
 14 15  1  0
 14 16  1  0
 16 17  2  0
 17 11  1  0
  1 18  1  0
  1 19  1  0
  1 20  1  0
  2 21  1  0
  2 22  1  0
  3 23  1  6
  4 24  1  0
  4 25  1  0
  4 26  1  0
  5 27  1  0
  5 28  1  0
  8 29  1  0
  8 30  1  0
  9 31  1  0
  9 32  1  0
 12 33  1  0
 13 34  1  0
 16 35  1  0
 17 36  1  0
M  CHG  1   3   1
M  END
>  <UniqueID>  (37) 
36

>  <SMILES>  (37) 
CC[N@@H+](C)CC#CCCSc1ccc(Br)cc1

>  <Energy>  (37) 
23.676434549722423

>  <Genealogy>  (37) 
CC[NH+](C)CC#CCCSc1ccc(Br)cc1 (protonated)
CC[N@@H+](C)CC#CCCSc1ccc(Br)cc1 (chirality)
CC[N@@H+](C)CC#CCCSc1ccc(Br)cc1 (3D coordinates assigned)
CC[N@@H+](C)CC#CCCSc1ccc(Br)cc1 (optimized conformer: 23.676434549722423 kcal/mol)

>  <smiles>  (37) 
CCN(C)CC#CCCSc1ccc(Br)cc1

>  <score_type>  (37) 
oracle

>  <origin>  (37) 
adg

>  <m_score__min__energy>  (37) 
-5.1200000000000001

>  <m_primary>  (37) 
energy

$$$$
37:0
     RDKit          3D

 50 51  0  0  0  0  0  0  0  0999 V2000
   57.5180   31.6449   43.0649 H   0  0  0  0  0  0  0  0  0  0  0  0
   57.2070   31.6350   44.1200 C   0  0  0  0  0  0  0  0  0  0  0  0
   56.2390   30.8440   44.4700 N   0  0  0  0  0  0  0  0  0  0  0  0
   56.4430   29.7030   45.2140 O   0  0  0  0  0  0  0  0  0  0  0  0
   57.1360   28.5960   44.6610 C   0  0  0  0  0  0  0  0  0  0  0  0
   57.6510   28.9087   43.7407 H   0  0  0  0  0  0  0  0  0  0  0  0
   56.4191   27.7952   44.4269 H   0  0  0  0  0  0  0  0  0  0  0  0
   58.1600   28.0820   45.6660 C   0  0  0  0  0  0  0  0  0  0  0  0
   58.9473   27.5258   45.1361 H   0  0  0  0  0  0  0  0  0  0  0  0
   57.6647   27.4159   46.3878 H   0  0  0  0  0  0  0  0  0  0  0  0
   58.7630   29.2300   46.3840 N   0  0  0  0  0  0  0  0  0  0  0  0
   58.9100   29.0060   47.8380 C   0  0  0  0  0  0  0  0  0  0  0  0
   57.9176   28.8278   48.2777 H   0  0  0  0  0  0  0  0  0  0  0  0
   59.3731   29.8969   48.2873 H   0  0  0  0  0  0  0  0  0  0  0  0
   59.8030   27.7990   48.1120 C   0  0  0  0  0  0  0  0  0  0  0  0
   59.9068   27.6587   49.1981 H   0  0  0  0  0  0  0  0  0  0  0  0
   59.3509   26.9000   47.6677 H   0  0  0  0  0  0  0  0  0  0  0  0
   60.7949   27.9684   47.6677 H   0  0  0  0  0  0  0  0  0  0  0  0
   60.0080   29.7170   45.7490 C   0  0  0  0  0  0  0  0  0  0  0  0
   59.7580   30.5767   45.1099 H   0  0  0  0  0  0  0  0  0  0  0  0
   60.6992   29.9837   46.5621 H   0  0  0  0  0  0  0  0  0  0  0  0
   60.7180   28.6620   44.8860 C   0  0  0  0  0  0  0  0  0  0  0  0
   61.2125   27.9272   45.5382 H   0  0  0  0  0  0  0  0  0  0  0  0
   59.9797   28.1504   44.2510 H   0  0  0  0  0  0  0  0  0  0  0  0
   61.4699   29.1533   44.2510 H   0  0  0  0  0  0  0  0  0  0  0  0
   57.9130   32.5240   45.0690 C   0  0  0  0  0  0  0  0  0  0  0  0
   58.6600   33.6310   44.6300 C   0  0  0  0  0  0  0  0  0  0  0  0
   58.7452   33.8404   43.5535 H   0  0  0  0  0  0  0  0  0  0  0  0
   59.2950   34.4670   45.5520 C   0  0  0  0  0  0  0  0  0  0  0  0
   59.8865   35.3241   45.1975 H   0  0  0  0  0  0  0  0  0  0  0  0
   59.1810   34.2170   46.9330 C   0  0  0  0  0  0  0  0  0  0  0  0
   59.8020   35.0240   47.8980 O   0  0  0  0  0  0  0  0  0  0  0  0
   60.6760   34.5380   48.9130 C   0  0  0  0  0  0  0  0  0  0  0  0
   61.2599   35.3738   49.3259 H   0  0  0  0  0  0  0  0  0  0  0  0
   60.0849   34.0735   49.7160 H   0  0  0  0  0  0  0  0  0  0  0  0
   61.6090   33.5180   48.3210 C   0  0  0  0  0  0  0  0  0  0  0  0
   62.5940   33.9250   47.4040 C   0  0  0  0  0  0  0  0  0  0  0  0
   62.6834   34.9878   47.1349 H   0  0  0  0  0  0  0  0  0  0  0  0
   63.4600   32.9900   46.8320 C   0  0  0  0  0  0  0  0  0  0  0  0
   64.2336   33.3197   46.1229 H   0  0  0  0  0  0  0  0  0  0  0  0
   63.3450   31.6380   47.1590 C   0  0  0  0  0  0  0  0  0  0  0  0
   64.0301   30.9036   46.7103 H   0  0  0  0  0  0  0  0  0  0  0  0
   62.3600   31.2170   48.0560 C   0  0  0  0  0  0  0  0  0  0  0  0
   62.2692   30.1501   48.3078 H   0  0  0  0  0  0  0  0  0  0  0  0
   61.4880   32.1460   48.6360 C   0  0  0  0  0  0  0  0  0  0  0  0
   60.2530   31.5580   49.7440 Cl  0  0  0  0  0  0  0  0  0  0  0  0
   58.4170   33.1280   47.3670 C   0  0  0  0  0  0  0  0  0  0  0  0
   58.3179   32.9268   48.4439 H   0  0  0  0  0  0  0  0  0  0  0  0
   57.7790   32.2940   46.4460 C   0  0  0  0  0  0  0  0  0  0  0  0
   57.1679   31.4518   46.8028 H   0  0  0  0  0  0  0  0  0  0  0  0
  1  2  1  0
  2  3  2  0
  3  4  1  0
  4  5  1  0
  5  6  1  0
  5  7  1  0
  5  8  1  0
  8  9  1  0
  8 10  1  0
  8 11  1  0
 11 12  1  0
 12 13  1  0
 12 14  1  0
 12 15  1  0
 15 16  1  0
 15 17  1  0
 15 18  1  0
 11 19  1  0
 19 20  1  0
 19 21  1  0
 19 22  1  0
 22 23  1  0
 22 24  1  0
 22 25  1  0
  2 26  1  0
 26 27  2  0
 27 28  1  0
 27 29  1  0
 29 30  1  0
 29 31  2  0
 31 32  1  0
 32 33  1  0
 33 34  1  0
 33 35  1  0
 33 36  1  0
 36 37  2  0
 37 38  1  0
 37 39  1  0
 39 40  1  0
 39 41  2  0
 41 42  1  0
 41 43  1  0
 43 44  1  0
 43 45  2  0
 45 46  1  0
 31 47  1  0
 47 48  1  0
 47 49  2  0
 49 50  1  0
 49 26  1  0
 45 36  1  0
M  END
>  <UniqueID>  (38) 
37

>  <SMILES>  (38) 
CCN(CC)CCO/N=C\c1ccc(OCc2ccccc2Cl)cc1

>  <Energy>  (38) 
50.38533140808788

>  <Genealogy>  (38) 
CCN(CC)CCO/N=C\c1ccc(OCc2ccccc2Cl)cc1 (cis-trans isomerization)
CCN(CC)CCO/N=C\c1ccc(OCc2ccccc2Cl)cc1 (3D coordinates assigned)
CCN(CC)CCO/N=C\c1ccc(OCc2ccccc2Cl)cc1 (optimized conformer: 50.38533140808788 kcal/mol)

>  <smiles>  (38) 
CCN(CC)CCON=Cc1ccc(OCc2ccccc2Cl)cc1

>  <score_type>  (38) 
oracle

>  <origin>  (38) 
adg

>  <m_score__min__energy>  (38) 
-7.25

>  <m_primary>  (38) 
energy

$$$$
38:0
     RDKit          3D

 64 66  0  0  0  0  0  0  0  0999 V2000
   60.0930   33.7970   50.5090 C   0  0  0  0  0  0  0  0  0  0  0  0
   61.2140   33.4240   51.4880 C   0  0  0  0  0  0  0  0  0  0  0  0
   62.3340   32.6230   50.9160 N   0  0  0  0  0  0  0  0  0  0  0  0
   63.3090   33.3790   50.0810 C   0  0  0  0  0  0  0  0  0  0  0  0
   64.7280   32.7960   50.0160 C   0  0  0  0  0  0  0  0  0  0  0  0
   62.9020   31.5700   51.8080 C   0  0  0  0  0  0  0  0  0  0  0  0
   62.8300   30.1190   51.2910 C   0  0  0  0  0  0  0  0  0  0  0  0
   62.1160   30.0390   50.0600 O   0  0  0  0  0  0  0  0  0  0  0  0
   60.7230   30.1330   49.9580 C   0  0  0  0  0  0  0  0  0  0  0  0
   60.0810   30.8640   50.7590 O   0  0  0  0  0  0  0  0  0  0  0  0
   60.0160   29.3260   48.9230 C   0  0  0  0  0  0  0  0  0  0  0  0
   59.9950   27.9670   48.9600 C   0  0  0  0  0  0  0  0  0  0  0  0
   60.7620   27.1670   49.9750 C   0  0  0  0  0  0  0  0  0  0  0  0
   59.1480   27.2300   48.0630 N   0  0  0  0  0  0  0  0  0  0  0  0
   58.5190   27.7520   47.0540 C   0  0  0  0  0  0  0  0  0  0  0  0
   57.6680   26.8700   46.1950 C   0  0  0  0  0  0  0  0  0  0  0  0
   58.7460   29.1960   46.6810 C   0  0  2  0  0  0  0  0  0  0  0  0
   59.7970   29.2730   45.6050 C   0  0  0  0  0  0  0  0  0  0  0  0
   60.9090   28.7030   45.7810 O   0  0  0  0  0  0  0  0  0  0  0  0
   59.5340   29.9570   44.4120 O   0  0  0  0  0  0  0  0  0  0  0  0
   58.2890   30.5910   44.1490 C   0  0  0  0  0  0  0  0  0  0  0  0
   59.0770   30.0330   47.9490 C   0  0  2  0  0  0  0  0  0  0  0  0
   59.4320   31.4880   47.6000 C   0  0  0  0  0  0  0  0  0  0  0  0
   58.3590   32.3950   47.5040 C   0  0  0  0  0  0  0  0  0  0  0  0
   58.5840   33.7350   47.2120 C   0  0  0  0  0  0  0  0  0  0  0  0
   59.8430   34.1850   46.9970 N   0  0  0  0  0  0  0  0  0  0  0  0
   60.9180   33.3580   47.0490 C   0  0  0  0  0  0  0  0  0  0  0  0
   62.1910   33.8860   46.8070 C   0  0  0  0  0  0  0  0  0  0  0  0
   63.3140   33.0610   46.8430 C   0  0  0  0  0  0  0  0  0  0  0  0
   63.1700   31.7020   47.1190 C   0  0  0  0  0  0  0  0  0  0  0  0
   61.9060   31.1620   47.3670 C   0  0  0  0  0  0  0  0  0  0  0  0
   60.7520   31.9770   47.3430 C   0  0  0  0  0  0  0  0  0  0  0  0
   59.1972   34.0951   51.0736 H   0  0  0  0  0  0  0  0  0  0  0  0
   60.4226   34.6339   49.8758 H   0  0  0  0  0  0  0  0  0  0  0  0
   59.8555   32.9295   49.8758 H   0  0  0  0  0  0  0  0  0  0  0  0
   61.6366   34.3571   51.8889 H   0  0  0  0  0  0  0  0  0  0  0  0
   60.7455   32.7824   52.2489 H   0  0  0  0  0  0  0  0  0  0  0  0
   61.8370   32.0450   50.1940 H   0  0  0  0  0  0  0  0  0  0  0  0
   62.9139   33.4202   49.0552 H   0  0  0  0  0  0  0  0  0  0  0  0
   63.4126   34.3633   50.5610 H   0  0  0  0  0  0  0  0  0  0  0  0
   65.1075   32.6401   51.0366 H   0  0  0  0  0  0  0  0  0  0  0  0
   64.7052   31.8344   49.4824 H   0  0  0  0  0  0  0  0  0  0  0  0
   65.3879   33.4959   49.4824 H   0  0  0  0  0  0  0  0  0  0  0  0
   63.9614   31.8120   51.9784 H   0  0  0  0  0  0  0  0  0  0  0  0
   62.2782   31.5879   52.7138 H   0  0  0  0  0  0  0  0  0  0  0  0
   63.8522   29.7432   51.1366 H   0  0  0  0  0  0  0  0  0  0  0  0
   62.2989   29.5117   52.0387 H   0  0  0  0  0  0  0  0  0  0  0  0
   60.4644   27.4774   50.9875 H   0  0  0  0  0  0  0  0  0  0  0  0
   60.5432   26.0974   49.8402 H   0  0  0  0  0  0  0  0  0  0  0  0
   61.8398   27.3406   49.8402 H   0  0  0  0  0  0  0  0  0  0  0  0
   57.0462   26.2256   46.8338 H   0  0  0  0  0  0  0  0  0  0  0  0
   57.0198   27.4917   45.5599 H   0  0  0  0  0  0  0  0  0  0  0  0
   58.3125   26.2445   45.5599 H   0  0  0  0  0  0  0  0  0  0  0  0
   57.8306   29.6389   46.2616 H   0  0  0  0  0  0  0  0  0  0  0  0
   57.7969   30.8416   45.1004 H   0  0  0  0  0  0  0  0  0  0  0  0
   58.4609   31.5113   43.5716 H   0  0  0  0  0  0  0  0  0  0  0  0
   57.6458   29.9106   43.5716 H   0  0  0  0  0  0  0  0  0  0  0  0
   58.1524   30.1137   48.5395 H   0  0  0  0  0  0  0  0  0  0  0  0
   57.3304   32.0386   47.6620 H   0  0  0  0  0  0  0  0  0  0  0  0
   57.7358   34.4331   47.1553 H   0  0  0  0  0  0  0  0  0  0  0  0
   62.3062   34.9577   46.5872 H   0  0  0  0  0  0  0  0  0  0  0  0
   64.3126   33.4817   46.6539 H   0  0  0  0  0  0  0  0  0  0  0  0
   64.0567   31.0515   47.1416 H   0  0  0  0  0  0  0  0  0  0  0  0
   61.8076   30.0881   47.5839 H   0  0  0  0  0  0  0  0  0  0  0  0
  1  2  1  0
  2  3  1  0
  3  4  1  0
  4  5  1  0
  3  6  1  0
  6  7  1  0
  7  8  1  0
  8  9  1  0
  9 10  2  0
  9 11  1  0
 11 12  2  0
 12 13  1  0
 12 14  1  0
 14 15  2  0
 15 16  1  0
 15 17  1  0
 17 18  1  0
 18 19  2  0
 18 20  1  0
 20 21  1  0
 17 22  1  0
 22 23  1  0
 23 24  2  0
 24 25  1  0
 25 26  2  0
 26 27  1  0
 27 28  2  0
 28 29  1  0
 29 30  2  0
 30 31  1  0
 31 32  2  0
 22 11  1  0
 32 23  1  0
 32 27  1  0
  1 33  1  0
  1 34  1  0
  1 35  1  0
  2 36  1  0
  2 37  1  0
  3 38  1  0
  4 39  1  0
  4 40  1  0
  5 41  1  0
  5 42  1  0
  5 43  1  0
  6 44  1  0
  6 45  1  0
  7 46  1  0
  7 47  1  0
 13 48  1  0
 13 49  1  0
 13 50  1  0
 16 51  1  0
 16 52  1  0
 16 53  1  0
 17 54  1  6
 21 55  1  0
 21 56  1  0
 21 57  1  0
 22 58  1  1
 24 59  1  0
 25 60  1  0
 28 61  1  0
 29 62  1  0
 30 63  1  0
 31 64  1  0
M  CHG  1   3   1
M  END
>  <UniqueID>  (39) 
38

>  <SMILES>  (39) 
CC[NH+](CC)CCOC(=O)C1=C(C)N=C(C)[C@H](C(=O)OC)[C@@H]1c1ccnc2ccccc12

>  <Energy>  (39) 
88.44385139529926

>  <Genealogy>  (39) 
CC[NH+](CC)CCOC(=O)C1=C(C)N=C(C)C(C(=O)OC)C1c1ccnc2ccccc12 (protonated)
CC[NH+](CC)CCOC(=O)C1=C(C)N=C(C)[C@H](C(=O)OC)[C@@H]1c1ccnc2ccccc12 (chirality)
CC[NH+](CC)CCOC(=O)C1=C(C)N=C(C)[C@H](C(=O)OC)[C@@H]1c1ccnc2ccccc12 (3D coordinates assigned)
CC[NH+](CC)CCOC(=O)C1=C(C)N=C(C)[C@H](C(=O)OC)[C@@H]1c1ccnc2ccccc12 (nonaromatic ring conformer: 88.44385139529926 kcal/mol)

>  <smiles>  (39) 
CCN(CC)CCOC(=O)C1=C(C)N=C(C)C(C(=O)OC)C1c1ccnc2ccccc12

>  <score_type>  (39) 
oracle

>  <origin>  (39) 
adg

>  <m_score__min__energy>  (39) 
-5.5800000000000001

>  <m_primary>  (39) 
energy

$$$$
39:0
     RDKit          3D

 38 41  0  0  0  0  0  0  0  0999 V2000
   56.9440   23.4690   47.8730 C   0  0  0  0  0  0  0  0  0  0  0  0
   57.7710   23.4600   46.7140 O   0  0  0  0  0  0  0  0  0  0  0  0
   57.4060   22.9050   45.4770 C   0  0  0  0  0  0  0  0  0  0  0  0
   57.2870   21.5110   45.2990 C   0  0  0  0  0  0  0  0  0  0  0  0
   56.8910   20.9860   44.0670 C   0  0  0  0  0  0  0  0  0  0  0  0
   56.6090   21.8380   43.0010 C   0  0  0  0  0  0  0  0  0  0  0  0
   56.7290   23.2190   43.1590 C   0  0  0  0  0  0  0  0  0  0  0  0
   57.1340   23.7650   44.3900 C   0  0  0  0  0  0  0  0  0  0  0  0
   57.2660   25.2370   44.5250 C   0  0  0  0  0  0  0  0  0  0  0  0
   57.7700   26.0090   43.4660 C   0  0  0  0  0  0  0  0  0  0  0  0
   57.8840   27.3960   43.5950 C   0  0  0  0  0  0  0  0  0  0  0  0
   57.4930   28.0390   44.7820 C   0  0  0  0  0  0  0  0  0  0  0  0
   57.6190   29.5100   44.9080 C   0  0  0  0  0  0  0  0  0  0  0  0
   58.3450   30.1110   45.8870 N   0  0  0  0  0  0  0  0  0  0  0  0
   58.2990   31.4640   45.7810 C   0  0  0  0  0  0  0  0  0  0  0  0
   58.9480   32.3450   46.6460 C   0  0  0  0  0  0  0  0  0  0  0  0
   58.8200   33.7290   46.4250 C   0  0  0  0  0  0  0  0  0  0  0  0
   59.6220   34.8620   47.4950 Cl  0  0  0  0  0  0  0  0  0  0  0  0
   58.0480   34.2080   45.3450 C   0  0  0  0  0  0  0  0  0  0  0  0
   57.4000   33.3110   44.4810 C   0  0  0  0  0  0  0  0  0  0  0  0
   57.5440   31.9480   44.7260 C   0  0  0  0  0  0  0  0  0  0  0  0
   56.8990   30.6540   43.8780 S   0  0  0  0  0  0  0  0  0  0  0  0
   56.9800   27.2640   45.8370 C   0  0  0  0  0  0  0  0  0  0  0  0
   56.8650   25.8770   45.7080 C   0  0  0  0  0  0  0  0  0  0  0  0
   57.5752   23.4621   48.7739 H   0  0  0  0  0  0  0  0  0  0  0  0
   56.3187   24.3740   47.8703 H   0  0  0  0  0  0  0  0  0  0  0  0
   56.2992   22.5778   47.8703 H   0  0  0  0  0  0  0  0  0  0  0  0
   57.5076   20.8326   46.1363 H   0  0  0  0  0  0  0  0  0  0  0  0
   56.8015   19.8973   43.9378 H   0  0  0  0  0  0  0  0  0  0  0  0
   56.2914   21.4213   42.0338 H   0  0  0  0  0  0  0  0  0  0  0  0
   56.5050   23.8862   42.3137 H   0  0  0  0  0  0  0  0  0  0  0  0
   58.0768   25.5196   42.5299 H   0  0  0  0  0  0  0  0  0  0  0  0
   58.2835   27.9899   42.7597 H   0  0  0  0  0  0  0  0  0  0  0  0
   59.5488   31.9650   47.4854 H   0  0  0  0  0  0  0  0  0  0  0  0
   57.9534   35.2913   45.1791 H   0  0  0  0  0  0  0  0  0  0  0  0
   56.7967   33.6741   43.6359 H   0  0  0  0  0  0  0  0  0  0  0  0
   56.6667   27.7530   46.7712 H   0  0  0  0  0  0  0  0  0  0  0  0
   56.4574   25.2830   46.5393 H   0  0  0  0  0  0  0  0  0  0  0  0
  1  2  1  0
  2  3  1  0
  3  4  2  0
  4  5  1  0
  5  6  2  0
  6  7  1  0
  7  8  2  0
  8  9  1  0
  9 10  2  0
 10 11  1  0
 11 12  2  0
 12 13  1  0
 13 14  2  0
 14 15  1  0
 15 16  2  0
 16 17  1  0
 17 18  1  0
 17 19  2  0
 19 20  1  0
 20 21  2  0
 21 22  1  0
 12 23  1  0
 23 24  2  0
  8  3  1  0
 24  9  1  0
 22 13  1  0
 21 15  1  0
  1 25  1  0
  1 26  1  0
  1 27  1  0
  4 28  1  0
  5 29  1  0
  6 30  1  0
  7 31  1  0
 10 32  1  0
 11 33  1  0
 16 34  1  0
 19 35  1  0
 20 36  1  0
 23 37  1  0
 24 38  1  0
M  END
>  <UniqueID>  (40) 
39

>  <SMILES>  (40) 
COc1ccccc1-c1ccc(-c2nc3cc(Cl)ccc3s2)cc1

>  <Energy>  (40) 
84.13730860654748

>  <Genealogy>  (40) 
COc1ccccc1-c1ccc(-c2nc3cc(Cl)ccc3s2)cc1 (3D coordinates assigned)
COc1ccccc1-c1ccc(-c2nc3cc(Cl)ccc3s2)cc1 (optimized conformer: 84.13730860654748 kcal/mol)

>  <smiles>  (40) 
COc1ccccc1-c1ccc(-c2nc3cc(Cl)ccc3s2)cc1

>  <score_type>  (40) 
oracle

>  <origin>  (40) 
adg

>  <m_score__min__energy>  (40) 
-8.1500000000000004

>  <m_primary>  (40) 
energy

$$$$
40:0
     RDKit          3D

 17 18  0  0  0  0  0  0  0  0999 V2000
   56.0690   29.7780   42.3420 O   0  0  0  0  0  0  0  0  0  0  0  0
   56.6530   30.3030   43.3260 C   0  0  0  0  0  0  0  0  0  0  0  0
   57.4220   31.5470   43.1710 C   0  0  0  0  0  0  0  0  0  0  0  0
   58.0590   32.0650   44.2280 C   0  0  0  0  0  0  0  0  0  0  0  0
   58.8950   33.6460   44.1200 S   0  0  0  0  0  0  0  0  0  0  0  0
   57.7440   34.4160   45.3230 C   0  0  0  0  0  0  0  0  0  0  0  0
   57.7660   33.7940   46.7470 C   0  0  0  0  0  0  0  0  0  0  0  0
   58.7500   32.2520   46.9400 S   0  0  0  0  0  0  0  0  0  0  0  0
   57.9660   31.4290   45.5600 C   0  0  0  0  0  0  0  0  0  0  0  0
   57.2620   30.3490   45.7490 N   0  0  0  0  0  0  0  0  0  0  0  0
   56.5800   29.7040   44.6660 C   0  0  0  0  0  0  0  0  0  0  0  0
   55.9280   28.6460   44.8690 O   0  0  0  0  0  0  0  0  0  0  0  0
   57.4733   32.0482   42.1932 H   0  0  0  0  0  0  0  0  0  0  0  0
   58.0061   35.4806   45.4120 H   0  0  0  0  0  0  0  0  0  0  0  0
   56.7308   34.2458   44.9299 H   0  0  0  0  0  0  0  0  0  0  0  0
   58.1797   34.5453   47.4358 H   0  0  0  0  0  0  0  0  0  0  0  0
   56.7253   33.5098   46.9619 H   0  0  0  0  0  0  0  0  0  0  0  0
  1  2  2  0
  2  3  1  0
  3  4  2  0
  4  5  1  0
  5  6  1  0
  6  7  1  0
  7  8  1  0
  8  9  1  0
  9 10  2  0
 10 11  1  0
 11 12  2  0
 11  2  1  0
  9  4  1  0
  3 13  1  0
  6 14  1  0
  6 15  1  0
  7 16  1  0
  7 17  1  0
M  END
>  <UniqueID>  (41) 
40

>  <SMILES>  (41) 
O=C1C=C2SCCSC2=NC1=O

>  <Energy>  (41) 
22.30424318725287

>  <Genealogy>  (41) 
O=C1C=C2SCCSC2=NC1=O (3D coordinates assigned)
O=C1C=C2SCCSC2=NC1=O (nonaromatic ring conformer: 22.30424318725287 kcal/mol)

>  <smiles>  (41) 
O=C1C=C2SCCSC2=NC1=O

>  <score_type>  (41) 
oracle

>  <origin>  (41) 
adg

>  <m_score__min__energy>  (41) 
-5.9199999999999999

>  <m_primary>  (41) 
energy

$$$$
41:0
     RDKit          3D

 44 46  0  0  0  0  0  0  0  0999 V2000
   65.2670   32.7670   49.7740 C   0  0  0  0  0  0  0  0  0  0  0  0
   64.0750   33.1010   48.9410 C   0  0  0  0  0  0  0  0  0  0  0  0
   62.8270   33.4600   49.4100 C   0  0  0  0  0  0  0  0  0  0  0  0
   62.1190   33.7470   48.2560 C   0  0  0  0  0  0  0  0  0  0  0  0
   60.6970   34.2120   48.1830 C   0  0  0  0  0  0  0  0  0  0  0  0
   59.8740   33.2710   47.3920 N   0  0  0  0  0  0  0  0  0  0  0  0
   60.3610   33.1690   45.9940 C   0  0  0  0  0  0  0  0  0  0  0  0
   59.5370   34.0320   45.0230 C   0  0  0  0  0  0  0  0  0  0  0  0
   58.0990   33.6550   45.0150 N   0  0  0  0  0  0  0  0  0  0  0  0
   57.7720   32.7910   43.8610 C   0  0  0  0  0  0  0  0  0  0  0  0
   57.4990   31.3770   44.3060 C   0  0  0  0  0  0  0  0  0  0  0  0
   56.2240   30.8130   44.1490 C   0  0  0  0  0  0  0  0  0  0  0  0
   55.9830   29.4930   44.5380 C   0  0  0  0  0  0  0  0  0  0  0  0
   57.0140   28.7110   45.0890 C   0  0  0  0  0  0  0  0  0  0  0  0
   56.7630   27.3510   45.4880 N   0  0  0  0  0  0  0  0  0  0  0  0
   57.6680   26.4930   45.4330 O   0  0  0  0  0  0  0  0  0  0  0  0
   55.5190   26.9730   45.9400 O   0  0  0  0  0  0  0  0  0  0  0  0
   58.2920   29.2790   45.2370 C   0  0  0  0  0  0  0  0  0  0  0  0
   58.5320   30.5990   44.8470 C   0  0  0  0  0  0  0  0  0  0  0  0
   57.6480   33.0480   46.2910 C   0  0  0  0  0  0  0  0  0  0  0  0
   58.4300   33.6060   47.4860 C   0  0  0  0  0  0  0  0  0  0  0  0
   62.9030   33.5810   47.2160 O   0  0  0  0  0  0  0  0  0  0  0  0
   64.0850   33.1970   47.5990 N   0  0  0  0  0  0  0  0  0  0  0  0
   65.0024   32.8411   50.8391 H   0  0  0  0  0  0  0  0  0  0  0  0
   65.5964   31.7420   49.5485 H   0  0  0  0  0  0  0  0  0  0  0  0
   66.0810   33.4716   49.5485 H   0  0  0  0  0  0  0  0  0  0  0  0
   62.4786   33.5067   50.4523 H   0  0  0  0  0  0  0  0  0  0  0  0
   60.2876   34.2800   49.2017 H   0  0  0  0  0  0  0  0  0  0  0  0
   60.6739   35.1966   47.6931 H   0  0  0  0  0  0  0  0  0  0  0  0
   61.4091   33.5010   45.9597 H   0  0  0  0  0  0  0  0  0  0  0  0
   60.2607   32.1199   45.6790 H   0  0  0  0  0  0  0  0  0  0  0  0
   59.6247   35.0861   45.3249 H   0  0  0  0  0  0  0  0  0  0  0  0
   59.9331   33.8702   44.0096 H   0  0  0  0  0  0  0  0  0  0  0  0
   56.8791   33.1880   43.3558 H   0  0  0  0  0  0  0  0  0  0  0  0
   58.6313   32.7829   43.1743 H   0  0  0  0  0  0  0  0  0  0  0  0
   55.4097   31.4134   43.7173 H   0  0  0  0  0  0  0  0  0  0  0  0
   54.9789   29.0618   44.4123 H   0  0  0  0  0  0  0  0  0  0  0  0
   59.1095   28.6790   45.6634 H   0  0  0  0  0  0  0  0  0  0  0  0
   59.5371   31.0301   44.9651 H   0  0  0  0  0  0  0  0  0  0  0  0
   56.5786   33.2641   46.4313 H   0  0  0  0  0  0  0  0  0  0  0  0
   57.8248   31.9636   46.2388 H   0  0  0  0  0  0  0  0  0  0  0  0
   58.3170   34.6999   47.5085 H   0  0  0  0  0  0  0  0  0  0  0  0
   58.0284   33.1535   48.4047 H   0  0  0  0  0  0  0  0  0  0  0  0
   64.8910   33.0150   46.9610 H   0  0  0  0  0  0  0  0  0  0  0  0
  1  2  1  0
  2  3  1  0
  3  4  2  0
  4  5  1  0
  5  6  1  0
  6  7  1  0
  7  8  1  0
  8  9  1  0
  9 10  1  0
 10 11  1  0
 11 12  2  0
 12 13  1  0
 13 14  2  0
 14 15  1  0
 15 16  2  0
 15 17  1  0
 14 18  1  0
 18 19  2  0
  9 20  1  0
 20 21  1  0
  4 22  1  0
 22 23  1  0
 23  2  2  0
 21  6  1  0
 19 11  1  0
  1 24  1  0
  1 25  1  0
  1 26  1  0
  3 27  1  0
  5 28  1  0
  5 29  1  0
  7 30  1  0
  7 31  1  0
  8 32  1  0
  8 33  1  0
 10 34  1  0
 10 35  1  0
 12 36  1  0
 13 37  1  0
 18 38  1  0
 19 39  1  0
 20 40  1  0
 20 41  1  0
 21 42  1  0
 21 43  1  0
 23 44  1  0
M  CHG  3  15   1  17  -1  23   1
M  END
>  <UniqueID>  (42) 
41

>  <SMILES>  (42) 
Cc1cc(CN2CCN(Cc3ccc([N+](=O)[O-])cc3)CC2)o[nH+]1

>  <Energy>  (42) 
88.19568074402639

>  <Genealogy>  (42) 
Cc1cc(CN2CCN(Cc3ccc([N+](=O)[O-])cc3)CC2)o[nH+]1 (protonated)
Cc1cc(CN2CCN(Cc3ccc([N+](=O)[O-])cc3)CC2)o[nH+]1 (3D coordinates assigned)
Cc1cc(CN2CCN(Cc3ccc([N+](=O)[O-])cc3)CC2)o[nH+]1 (nonaromatic ring conformer: 88.19568074402639 kcal/mol)

>  <smiles>  (42) 
Cc1cc(CN2CCN(Cc3ccc([N+](=O)[O-])cc3)CC2)on1

>  <score_type>  (42) 
oracle

>  <origin>  (42) 
adg

>  <m_score__min__energy>  (42) 
-7.1200000000000001

>  <m_primary>  (42) 
energy

$$$$
42:0
     RDKit          3D

 31 32  0  0  1  0  0  0  0  0999 V2000
   55.1840   23.1340   46.4760 C   0  0  0  0  0  0  0  0  0  0  0  0
   55.8470   24.4670   46.4080 C   0  0  0  0  0  0  0  0  0  0  0  0
   57.1870   24.6230   46.7770 C   0  0  0  0  0  0  0  0  0  0  0  0
   57.7840   25.8710   46.7070 C   0  0  0  0  0  0  0  0  0  0  0  0
   57.0100   26.9400   46.2640 C   0  0  0  0  0  0  0  0  0  0  0  0
   57.4880   28.1260   46.1710 N   0  0  0  0  0  0  0  0  0  0  0  0
   57.0370   29.2830   44.9850 S   0  0  0  0  0  0  0  0  0  0  0  0
   55.5540   29.4320   44.8640 O   0  0  0  0  0  0  0  0  0  0  0  0
   57.5530   28.9490   43.6170 O   0  0  0  0  0  0  0  0  0  0  0  0
   57.8070   30.7870   45.4530 C   0  0  0  0  0  0  0  0  0  0  0  0
   58.3280   31.0040   46.7100 C   0  0  0  0  0  0  0  0  0  0  0  0
   58.9320   32.1500   47.1180 C   0  0  0  0  0  0  0  0  0  0  0  0
   59.0540   33.1980   46.2300 C   0  0  0  0  0  0  0  0  0  0  0  0
   58.5480   33.0300   44.9580 C   0  0  0  0  0  0  0  0  0  0  0  0
   58.6730   34.0760   44.0840 F   0  0  0  0  0  0  0  0  0  0  0  0
   57.9300   31.8480   44.5530 C   0  0  0  0  0  0  0  0  0  0  0  0
   57.4070   31.7270   43.1740 C   0  0  0  0  0  0  0  0  0  0  0  0
   55.7230   26.7570   45.9170 N   0  0  0  0  0  0  0  0  0  0  0  0
   55.1650   25.5610   45.9880 N   0  0  0  0  0  0  0  0  0  0  0  0
   55.0420   22.8484   47.5287 H   0  0  0  0  0  0  0  0  0  0  0  0
   54.2062   23.1848   45.9747 H   0  0  0  0  0  0  0  0  0  0  0  0
   55.8145   22.3849   45.9747 H   0  0  0  0  0  0  0  0  0  0  0  0
   57.7669   23.7546   47.1228 H   0  0  0  0  0  0  0  0  0  0  0  0
   58.8368   26.0129   46.9925 H   0  0  0  0  0  0  0  0  0  0  0  0
   58.2485   30.1851   47.4401 H   0  0  0  0  0  0  0  0  0  0  0  0
   59.3189   32.2411   48.1437 H   0  0  0  0  0  0  0  0  0  0  0  0
   59.5400   34.1391   46.5270 H   0  0  0  0  0  0  0  0  0  0  0  0
   56.3358   31.4792   43.2085 H   0  0  0  0  0  0  0  0  0  0  0  0
   57.5458   32.6810   42.6442 H   0  0  0  0  0  0  0  0  0  0  0  0
   57.9506   30.9309   42.6442 H   0  0  0  0  0  0  0  0  0  0  0  0
   55.1470   27.5390   45.5900 H   0  0  0  0  0  0  0  0  0  0  0  0
  1  2  1  0
  2  3  1  0
  3  4  2  0
  4  5  1  0
  5  6  2  0
  6  7  1  0
  7  8  2  0
  7  9  2  0
  7 10  1  0
 10 11  2  0
 11 12  1  0
 12 13  2  0
 13 14  1  0
 14 15  1  0
 14 16  2  0
 16 17  1  0
  5 18  1  0
 18 19  1  0
 19  2  2  0
 16 10  1  0
  1 20  1  0
  1 21  1  0
  1 22  1  0
  3 23  1  0
  4 24  1  0
 11 25  1  0
 12 26  1  0
 13 27  1  0
 17 28  1  0
 17 29  1  0
 17 30  1  0
 18 31  1  0
M  END
>  <smiles>  (43) 
Cc1ccc(=NS(=O)(=O)c2cccc(F)c2C)[nH]n1

>  <score_type>  (43) 
oracle

>  <origin>  (43) 
adg

>  <m_score__min__energy>  (43) 
-7.7800000000000002

>  <m_primary>  (43) 
energy

$$$$
43:0
     RDKit          3D

 61 63  0  0  0  0  0  0  0  0999 V2000
   63.2770   33.8310   51.8120 C   0  0  0  0  0  0  0  0  0  0  0  0
   62.3820   33.4530   50.7700 O   0  0  0  0  0  0  0  0  0  0  0  0
   62.7670   33.1830   49.4470 C   0  0  0  0  0  0  0  0  0  0  0  0
   63.3840   34.1600   48.6370 C   0  0  0  0  0  0  0  0  0  0  0  0
   63.7710   33.8540   47.3300 C   0  0  0  0  0  0  0  0  0  0  0  0
   63.5490   32.5780   46.8130 C   0  0  0  0  0  0  0  0  0  0  0  0
   62.9290   31.6050   47.5990 C   0  0  0  0  0  0  0  0  0  0  0  0
   62.5350   31.8960   48.9170 C   0  0  0  0  0  0  0  0  0  0  0  0
   61.8240   30.8370   49.7340 C   0  0  0  0  0  0  0  0  0  0  0  0
   60.5380   31.3090   50.2870 N   0  0  0  0  0  0  0  0  0  0  0  0
   59.3630   31.0230   49.4380 C   0  0  0  0  0  0  0  0  0  0  0  0
   58.7370   32.2820   48.8030 C   0  0  0  0  0  0  0  0  0  0  0  0
   59.7310   33.4510   48.7200 C   0  0  0  0  0  0  0  0  0  0  0  0
   59.1900   34.6280   47.8910 C   0  0  0  0  0  0  0  0  0  0  0  0
   59.9880   34.9490   46.6100 C   0  0  0  0  0  0  0  0  0  0  0  0
   60.0300   33.7920   45.5980 C   0  0  0  0  0  0  0  0  0  0  0  0
   58.7480   33.6490   44.8830 N   0  0  0  0  0  0  0  0  0  0  0  0
   57.7710   32.8050   45.6010 C   0  0  0  0  0  0  0  0  0  0  0  0
   57.6840   31.4410   44.9520 C   0  0  0  0  0  0  0  0  0  0  0  0
   56.6170   31.1860   44.0710 C   0  0  0  0  0  0  0  0  0  0  0  0
   56.4650   29.9370   43.4710 C   0  0  0  0  0  0  0  0  0  0  0  0
   57.3770   28.9170   43.7300 C   0  0  0  0  0  0  0  0  0  0  0  0
   58.4550   29.1350   44.5970 C   0  0  0  0  0  0  0  0  0  0  0  0
   59.3630   28.0970   44.8560 C   0  0  0  0  0  0  0  0  0  0  0  0
   60.4320   28.2990   45.7290 C   0  0  0  0  0  0  0  0  0  0  0  0
   60.6040   29.5370   46.3500 C   0  0  0  0  0  0  0  0  0  0  0  0
   59.7120   30.5830   46.0990 C   0  0  0  0  0  0  0  0  0  0  0  0
   58.6210   30.4020   45.2220 C   0  0  0  0  0  0  0  0  0  0  0  0
   62.8086   33.6332   52.7874 H   0  0  0  0  0  0  0  0  0  0  0  0
   64.2062   33.2485   51.7266 H   0  0  0  0  0  0  0  0  0  0  0  0
   63.5073   34.9032   51.7266 H   0  0  0  0  0  0  0  0  0  0  0  0
   63.5614   35.1691   49.0373 H   0  0  0  0  0  0  0  0  0  0  0  0
   64.2524   34.6220   46.7067 H   0  0  0  0  0  0  0  0  0  0  0  0
   63.8623   32.3382   45.7862 H   0  0  0  0  0  0  0  0  0  0  0  0
   62.7473   30.6027   47.1839 H   0  0  0  0  0  0  0  0  0  0  0  0
   61.6313   29.9665   49.0898 H   0  0  0  0  0  0  0  0  0  0  0  0
   62.4753   30.5802   50.5824 H   0  0  0  0  0  0  0  0  0  0  0  0
   60.5940   32.3460   50.4230 H   0  0  0  0  0  0  0  0  0  0  0  0
   60.4000   30.8850   51.2330 H   0  0  0  0  0  0  0  0  0  0  0  0
   59.6749   30.3448   48.6301 H   0  0  0  0  0  0  0  0  0  0  0  0
   58.5970   30.5756   50.0885 H   0  0  0  0  0  0  0  0  0  0  0  0
   58.3977   32.0337   47.7865 H   0  0  0  0  0  0  0  0  0  0  0  0
   57.8988   32.5986   49.4411 H   0  0  0  0  0  0  0  0  0  0  0  0
   59.9436   33.8060   49.7392 H   0  0  0  0  0  0  0  0  0  0  0  0
   60.6396   33.0817   48.2219 H   0  0  0  0  0  0  0  0  0  0  0  0
   58.1564   34.3917   47.5981 H   0  0  0  0  0  0  0  0  0  0  0  0
   59.2714   35.5174   48.5331 H   0  0  0  0  0  0  0  0  0  0  0  0
   59.5252   35.8196   46.1223 H   0  0  0  0  0  0  0  0  0  0  0  0
   61.0259   35.1416   46.9193 H   0  0  0  0  0  0  0  0  0  0  0  0
   60.8273   33.9871   44.8657 H   0  0  0  0  0  0  0  0  0  0  0  0
   60.2223   32.8597   46.1492 H   0  0  0  0  0  0  0  0  0  0  0  0
   58.3380   34.6080   44.7910 H   0  0  0  0  0  0  0  0  0  0  0  0
   58.0897   32.6900   46.6475 H   0  0  0  0  0  0  0  0  0  0  0  0
   56.7825   33.2859   45.5607 H   0  0  0  0  0  0  0  0  0  0  0  0
   55.8921   31.9840   43.8525 H   0  0  0  0  0  0  0  0  0  0  0  0
   55.6206   29.7562   42.7896 H   0  0  0  0  0  0  0  0  0  0  0  0
   57.2500   27.9349   43.2511 H   0  0  0  0  0  0  0  0  0  0  0  0
   59.2312   27.1198   44.3685 H   0  0  0  0  0  0  0  0  0  0  0  0
   61.1404   27.4814   45.9283 H   0  0  0  0  0  0  0  0  0  0  0  0
   61.4463   29.6902   47.0407 H   0  0  0  0  0  0  0  0  0  0  0  0
   59.8615   31.5563   46.5893 H   0  0  0  0  0  0  0  0  0  0  0  0
  1  2  1  0
  2  3  1  0
  3  4  2  0
  4  5  1  0
  5  6  2  0
  6  7  1  0
  7  8  2  0
  8  9  1  0
  9 10  1  0
 10 11  1  0
 11 12  1  0
 12 13  1  0
 13 14  1  0
 14 15  1  0
 15 16  1  0
 16 17  1  0
 17 18  1  0
 18 19  1  0
 19 20  2  0
 20 21  1  0
 21 22  2  0
 22 23  1  0
 23 24  2  0
 24 25  1  0
 25 26  2  0
 26 27  1  0
 27 28  2  0
  8  3  1  0
 28 19  1  0
 28 23  1  0
  1 29  1  0
  1 30  1  0
  1 31  1  0
  4 32  1  0
  5 33  1  0
  6 34  1  0
  7 35  1  0
  9 36  1  0
  9 37  1  0
 10 38  1  0
 10 39  1  0
 11 40  1  0
 11 41  1  0
 12 42  1  0
 12 43  1  0
 13 44  1  0
 13 45  1  0
 14 46  1  0
 14 47  1  0
 15 48  1  0
 15 49  1  0
 16 50  1  0
 16 51  1  0
 17 52  1  0
 18 53  1  0
 18 54  1  0
 20 55  1  0
 21 56  1  0
 22 57  1  0
 24 58  1  0
 25 59  1  0
 26 60  1  0
 27 61  1  0
M  CHG  1  10   1
M  END
>  <UniqueID>  (44) 
42

>  <SMILES>  (44) 
COc1ccccc1C[NH2+]CCCCCCNCc1cccc2ccccc12

>  <Energy>  (44) 
58.69488677151857

>  <Genealogy>  (44) 
COc1ccccc1C[NH2+]CCCCCCNCc1cccc2ccccc12 (protonated)
COc1ccccc1C[NH2+]CCCCCCNCc1cccc2ccccc12 (3D coordinates assigned)
COc1ccccc1C[NH2+]CCCCCCNCc1cccc2ccccc12 (optimized conformer: 58.69488677151857 kcal/mol)

>  <smiles>  (44) 
COc1ccccc1CNCCCCCCNCc1cccc2ccccc12

>  <score_type>  (44) 
oracle

>  <origin>  (44) 
adg

>  <m_score__min__energy>  (44) 
-5.8899999999999997

>  <m_primary>  (44) 
energy

$$$$
44:0
     RDKit          3D

 38 40  0  0  0  0  0  0  0  0999 V2000
   63.2690   33.0340   47.1400 C   0  0  0  0  0  0  0  0  0  0  0  0
   61.8750   33.5430   47.3580 C   0  0  0  0  0  0  0  0  0  0  0  0
   61.3910   33.7310   48.6610 C   0  0  0  0  0  0  0  0  0  0  0  0
   60.0920   34.2020   48.8690 C   0  0  0  0  0  0  0  0  0  0  0  0
   59.2680   34.4920   47.7780 C   0  0  0  0  0  0  0  0  0  0  0  0
   59.7450   34.3310   46.4680 C   0  0  0  0  0  0  0  0  0  0  0  0
   58.8330   34.5740   45.2950 C   0  0  0  0  0  0  0  0  0  0  0  0
   57.1660   33.8900   45.6120 S   0  0  0  0  0  0  0  0  0  0  0  0
   57.5050   32.3230   44.8150 C   0  0  0  0  0  0  0  0  0  0  0  0
   57.9820   32.1980   43.5610 N   0  0  0  0  0  0  0  0  0  0  0  0
   58.1410   30.8980   43.3780 N   0  0  0  0  0  0  0  0  0  0  0  0
   57.7680   30.2770   44.5150 C   0  0  0  0  0  0  0  0  0  0  0  0
   57.8410   28.8220   44.7740 C   0  0  0  0  0  0  0  0  0  0  0  0
   57.7440   28.3510   46.0940 C   0  0  0  0  0  0  0  0  0  0  0  0
   57.8420   26.9840   46.3690 C   0  0  0  0  0  0  0  0  0  0  0  0
   58.0290   26.0690   45.3260 C   0  0  0  0  0  0  0  0  0  0  0  0
   58.1570   24.3480   45.6630 S   0  0  0  0  0  0  0  0  0  0  0  0
   59.6040   23.9400   45.6600 O   0  0  0  0  0  0  0  0  0  0  0  0
   57.5490   24.0510   47.0050 O   0  0  0  0  0  0  0  0  0  0  0  0
   57.3410   23.4680   44.4930 F   0  0  0  0  0  0  0  0  0  0  0  0
   58.1160   26.5300   44.0070 C   0  0  0  0  0  0  0  0  0  0  0  0
   58.0250   27.8980   43.7310 C   0  0  0  0  0  0  0  0  0  0  0  0
   57.3640   31.1570   45.3990 O   0  0  0  0  0  0  0  0  0  0  0  0
   61.0580   33.8710   46.2650 C   0  0  0  0  0  0  0  0  0  0  0  0
   63.7514   32.8579   48.1128 H   0  0  0  0  0  0  0  0  0  0  0  0
   63.2309   32.0918   46.5737 H   0  0  0  0  0  0  0  0  0  0  0  0
   63.8470   33.7791   46.5737 H   0  0  0  0  0  0  0  0  0  0  0  0
   62.0368   33.5067   49.5228 H   0  0  0  0  0  0  0  0  0  0  0  0
   59.7172   34.3448   49.8933 H   0  0  0  0  0  0  0  0  0  0  0  0
   58.2410   34.8480   47.9469 H   0  0  0  0  0  0  0  0  0  0  0  0
   58.7508   35.6570   45.1209 H   0  0  0  0  0  0  0  0  0  0  0  0
   59.2560   34.0740   44.4112 H   0  0  0  0  0  0  0  0  0  0  0  0
   58.5170   30.4710   42.5040 H   0  0  0  0  0  0  0  0  0  0  0  0
   57.5897   29.0636   46.9177 H   0  0  0  0  0  0  0  0  0  0  0  0
   57.7721   26.6265   47.4069 H   0  0  0  0  0  0  0  0  0  0  0  0
   58.2565   25.8134   43.1844 H   0  0  0  0  0  0  0  0  0  0  0  0
   58.0978   28.2527   42.6923 H   0  0  0  0  0  0  0  0  0  0  0  0
   61.4479   33.7674   45.2417 H   0  0  0  0  0  0  0  0  0  0  0  0
  1  2  1  0
  2  3  2  0
  3  4  1  0
  4  5  2  0
  5  6  1  0
  6  7  1  0
  7  8  1  0
  8  9  1  0
  9 10  2  0
 10 11  1  0
 11 12  2  0
 12 13  1  0
 13 14  2  0
 14 15  1  0
 15 16  2  0
 16 17  1  0
 17 18  2  0
 17 19  2  0
 17 20  1  0
 16 21  1  0
 21 22  2  0
 12 23  1  0
  6 24  2  0
 24  2  1  0
 23  9  1  0
 22 13  1  0
  1 25  1  0
  1 26  1  0
  1 27  1  0
  3 28  1  0
  4 29  1  0
  5 30  1  0
  7 31  1  0
  7 32  1  0
 11 33  1  0
 14 34  1  0
 15 35  1  0
 21 36  1  0
 22 37  1  0
 24 38  1  0
M  CHG  1  11   1
M  END
>  <UniqueID>  (45) 
43

>  <SMILES>  (45) 
Cc1cccc(CSc2n[nH+]c(-c3ccc(S(=O)(=O)F)cc3)o2)c1

>  <Energy>  (45) 
70.16662398480894

>  <Genealogy>  (45) 
Cc1cccc(CSc2n[nH+]c(-c3ccc(S(=O)(=O)F)cc3)o2)c1 (protonated)
Cc1cccc(CSc2n[nH+]c(-c3ccc(S(=O)(=O)F)cc3)o2)c1 (3D coordinates assigned)
Cc1cccc(CSc2n[nH+]c(-c3ccc(S(=O)(=O)F)cc3)o2)c1 (optimized conformer: 70.16662398480894 kcal/mol)

>  <smiles>  (45) 
Cc1cccc(CSc2nnc(-c3ccc(S(=O)(=O)F)cc3)o2)c1

>  <score_type>  (45) 
oracle

>  <origin>  (45) 
adg

>  <m_score__min__energy>  (45) 
-7.6600000000000001

>  <m_primary>  (45) 
energy

$$$$
