0:0
     RDKit          3D

 73 76  0  0  0  0  0  0  0  0999 V2000
   61.1860   26.3510   51.1290 C   0  0  0  0  0  0  0  0  0  0  0  0
   61.1540   27.8160   50.7930 C   0  0  0  0  0  0  0  0  0  0  0  0
   60.0880   28.1370   49.8250 N   0  0  0  0  0  0  0  0  0  0  0  0
   60.6280   27.8860   48.5420 C   0  0  0  0  0  0  0  0  0  0  0  0
   60.0830   28.7090   47.4010 C   0  0  0  0  0  0  0  0  0  0  0  0
   58.9530   29.5170   47.8150 N   0  0  0  0  0  0  0  0  0  0  0  0
   58.7030   30.6870   47.0890 C   0  0  0  0  0  0  0  0  0  0  0  0
   58.1210   30.5020   45.8200 C   0  0  0  0  0  0  0  0  0  0  0  0
   57.8850   29.2060   45.3500 C   0  0  0  0  0  0  0  0  0  0  0  0
   57.3250   28.9470   44.1310 C   0  0  0  0  0  0  0  0  0  0  0  0
   56.9830   30.0070   43.3360 C   0  0  0  0  0  0  0  0  0  0  0  0
   57.2110   31.2740   43.7850 C   0  0  0  0  0  0  0  0  0  0  0  0
   57.7830   31.5540   45.0340 C   0  0  0  0  0  0  0  0  0  0  0  0
   57.9830   32.8340   45.4210 N   0  0  0  0  0  0  0  0  0  0  0  0
   57.5720   33.8500   44.4880 C   0  0  0  0  0  0  0  0  0  0  0  0
   58.5320   33.0340   46.6140 C   0  0  0  0  0  0  0  0  0  0  0  0
   58.7410   34.3320   47.0410 C   0  0  0  0  0  0  0  0  0  0  0  0
   59.3000   34.6100   48.2750 C   0  0  0  0  0  0  0  0  0  0  0  0
   59.6550   33.5540   49.0860 C   0  0  0  0  0  0  0  0  0  0  0  0
   60.2160   33.8520   50.3210 O   0  0  0  0  0  0  0  0  0  0  0  0
   59.3910   33.8070   51.4560 C   0  0  0  0  0  0  0  0  0  0  0  0
   59.4590   32.2250   48.6850 C   0  0  0  0  0  0  0  0  0  0  0  0
   59.8750   31.2760   49.6090 O   0  0  0  0  0  0  0  0  0  0  0  0
   61.2420   30.9150   49.7300 C   0  0  0  0  0  0  0  0  0  0  0  0
   62.0790   31.9250   50.4050 C   0  0  0  0  0  0  0  0  0  0  0  0
   63.3910   32.1380   49.8440 N   0  0  0  0  0  0  0  0  0  0  0  0
   64.4230   31.3240   50.4750 C   0  0  0  0  0  0  0  0  0  0  0  0
   63.7930   33.5110   49.8550 C   0  0  0  0  0  0  0  0  0  0  0  0
   63.0140   34.3760   48.8990 C   0  0  0  0  0  0  0  0  0  0  0  0
   63.1140   33.8090   47.5010 C   0  0  0  0  0  0  0  0  0  0  0  0
   62.5050   32.4200   47.5480 C   0  0  0  0  0  0  0  0  0  0  0  0
   63.3260   31.5970   48.4810 C   0  0  0  0  0  0  0  0  0  0  0  0
   58.9030   31.9780   47.4680 C   0  0  0  0  0  0  0  0  0  0  0  0
   61.1887   26.2254   52.2218 H   0  0  0  0  0  0  0  0  0  0  0  0
   60.2984   25.8582   50.7055 H   0  0  0  0  0  0  0  0  0  0  0  0
   62.0943   25.8974   50.7055 H   0  0  0  0  0  0  0  0  0  0  0  0
   60.9799   28.3885   51.7160 H   0  0  0  0  0  0  0  0  0  0  0  0
   62.1190   28.0815   50.3367 H   0  0  0  0  0  0  0  0  0  0  0  0
   59.7730   29.1250   49.9690 H   0  0  0  0  0  0  0  0  0  0  0  0
   61.7115   28.0681   48.5957 H   0  0  0  0  0  0  0  0  0  0  0  0
   60.3455   26.8487   48.3090 H   0  0  0  0  0  0  0  0  0  0  0  0
   60.8777   29.3719   47.0281 H   0  0  0  0  0  0  0  0  0  0  0  0
   59.7423   28.0206   46.6136 H   0  0  0  0  0  0  0  0  0  0  0  0
   58.4120   29.1680   48.6350 H   0  0  0  0  0  0  0  0  0  0  0  0
   58.1630   28.3564   45.9911 H   0  0  0  0  0  0  0  0  0  0  0  0
   57.1535   27.9130   43.7972 H   0  0  0  0  0  0  0  0  0  0  0  0
   56.5301   29.8391   42.3477 H   0  0  0  0  0  0  0  0  0  0  0  0
   56.9327   32.1173   43.1359 H   0  0  0  0  0  0  0  0  0  0  0  0
   57.2152   34.7320   45.0400 H   0  0  0  0  0  0  0  0  0  0  0  0
   58.4259   34.1340   43.8555 H   0  0  0  0  0  0  0  0  0  0  0  0
   56.7607   33.4604   43.8555 H   0  0  0  0  0  0  0  0  0  0  0  0
   58.4553   35.1653   46.3822 H   0  0  0  0  0  0  0  0  0  0  0  0
   59.4574   35.6487   48.6012 H   0  0  0  0  0  0  0  0  0  0  0  0
   60.0127   33.8409   52.3628 H   0  0  0  0  0  0  0  0  0  0  0  0
   58.7080   34.6692   51.4473 H   0  0  0  0  0  0  0  0  0  0  0  0
   58.8058   32.8756   51.4473 H   0  0  0  0  0  0  0  0  0  0  0  0
   61.3015   29.9787   50.3042 H   0  0  0  0  0  0  0  0  0  0  0  0
   61.6331   30.8145   48.7068 H   0  0  0  0  0  0  0  0  0  0  0  0
   61.5402   32.8835   50.3739 H   0  0  0  0  0  0  0  0  0  0  0  0
   62.2504   31.5370   51.4199 H   0  0  0  0  0  0  0  0  0  0  0  0
   64.3301   31.3973   51.5686 H   0  0  0  0  0  0  0  0  0  0  0  0
   64.3025   30.2751   50.1662 H   0  0  0  0  0  0  0  0  0  0  0  0
   65.4150   31.6855   50.1662 H   0  0  0  0  0  0  0  0  0  0  0  0
   63.6546   33.9056   50.8724 H   0  0  0  0  0  0  0  0  0  0  0  0
   64.8445   33.5414   49.5334 H   0  0  0  0  0  0  0  0  0  0  0  0
   61.9586   34.4034   49.2078 H   0  0  0  0  0  0  0  0  0  0  0  0
   63.4286   35.3948   48.9092 H   0  0  0  0  0  0  0  0  0  0  0  0
   62.5580   34.4428   46.7944 H   0  0  0  0  0  0  0  0  0  0  0  0
   64.1604   33.7705   47.1640 H   0  0  0  0  0  0  0  0  0  0  0  0
   61.4686   32.4774   47.9120 H   0  0  0  0  0  0  0  0  0  0  0  0
   62.4942   31.9697   46.5445 H   0  0  0  0  0  0  0  0  0  0  0  0
   62.8910   30.5878   48.5284 H   0  0  0  0  0  0  0  0  0  0  0  0
   64.3531   31.5933   48.0874 H   0  0  0  0  0  0  0  0  0  0  0  0
  1  2  1  0
  2  3  1  0
  3  4  1  0
  4  5  1  0
  5  6  1  0
  6  7  1  0
  7  8  2  0
  8  9  1  0
  9 10  2  0
 10 11  1  0
 11 12  2  0
 12 13  1  0
 13 14  2  0
 14 15  1  0
 14 16  1  0
 16 17  2  0
 17 18  1  0
 18 19  2  0
 19 20  1  0
 20 21  1  0
 19 22  1  0
 22 23  1  0
 23 24  1  0
 24 25  1  0
 25 26  1  0
 26 27  1  0
 26 28  1  0
 28 29  1  0
 29 30  1  0
 30 31  1  0
 31 32  1  0
 22 33  2  0
 33  7  1  0
 13  8  1  0
 33 16  1  0
 32 26  1  0
  1 34  1  0
  1 35  1  0
  1 36  1  0
  2 37  1  0
  2 38  1  0
  3 39  1  0
  4 40  1  0
  4 41  1  0
  5 42  1  0
  5 43  1  0
  6 44  1  0
  9 45  1  0
 10 46  1  0
 11 47  1  0
 12 48  1  0
 15 49  1  0
 15 50  1  0
 15 51  1  0
 17 52  1  0
 18 53  1  0
 21 54  1  0
 21 55  1  0
 21 56  1  0
 24 57  1  0
 24 58  1  0
 25 59  1  0
 25 60  1  0
 27 61  1  0
 27 62  1  0
 27 63  1  0
 28 64  1  0
 28 65  1  0
 29 66  1  0
 29 67  1  0
 30 68  1  0
 30 69  1  0
 31 70  1  0
 31 71  1  0
 32 72  1  0
 32 73  1  0
M  CHG  2  14   1  26   1
M  END
>  <smiles>  (1) 
CCNCCNc1c2ccccc2[n+](C)c2ccc(OC)c(OCC[N+]3(C)CCCCC3)c12

>  <score_type>  (1) 
oracle

>  <origin>  (1) 
adg

>  <m_score__min__energy>  (1) 
-4.6200000000000001

>  <m_primary>  (1) 
energy

$$$$
1:0
     RDKit          3D

 52 54  0  0  0  0  0  0  0  0999 V2000
   57.9660   31.9460   42.3390 C   0  0  0  0  0  0  0  0  0  0  0  0
   56.6790   31.1990   42.0670 C   0  0  0  0  0  0  0  0  0  0  0  0
   56.6430   29.8460   42.7750 C   0  0  0  0  0  0  0  0  0  0  0  0
   55.5340   29.9360   43.8150 C   0  0  0  0  0  0  0  0  0  0  0  0
   55.8740   29.2970   45.0460 N   0  0  0  0  0  0  0  0  0  0  0  0
   57.1710   28.6970   45.1010 C   0  0  0  0  0  0  0  0  0  0  0  0
   58.0540   29.4810   46.0350 C   0  0  0  0  0  0  0  0  0  0  0  0
   58.9300   29.0040   46.9820 C   0  0  0  0  0  0  0  0  0  0  0  0
   59.1180   27.5330   47.2200 C   0  0  0  0  0  0  0  0  0  0  0  0
   59.5430   30.0310   47.6080 N   0  0  0  0  0  0  0  0  0  0  0  0
   60.5080   29.9140   48.6440 C   0  0  0  0  0  0  0  0  0  0  0  0
   61.6240   30.8440   48.6380 C   0  0  0  0  0  0  0  0  0  0  0  0
   62.2730   31.3120   47.5110 C   0  0  0  0  0  0  0  0  0  0  0  0
   63.3320   32.2000   47.5700 C   0  0  0  0  0  0  0  0  0  0  0  0
   63.7700   32.6490   48.8010 C   0  0  0  0  0  0  0  0  0  0  0  0
   64.8100   33.5240   48.9220 F   0  0  0  0  0  0  0  0  0  0  0  0
   63.1460   32.2030   49.9550 C   0  0  0  0  0  0  0  0  0  0  0  0
   62.0900   31.3160   49.8640 C   0  0  0  0  0  0  0  0  0  0  0  0
   59.0460   31.1710   47.0470 C   0  0  0  0  0  0  0  0  0  0  0  0
   59.2830   32.5200   47.2630 C   0  0  0  0  0  0  0  0  0  0  0  0
   58.6240   33.5060   46.5330 C   0  0  0  0  0  0  0  0  0  0  0  0
   58.8760   34.9550   46.7590 C   0  0  0  0  0  0  0  0  0  0  0  0
   57.6990   33.1440   45.5580 C   0  0  0  0  0  0  0  0  0  0  0  0
   57.4480   31.7920   45.3280 C   0  0  0  0  0  0  0  0  0  0  0  0
   58.1260   30.8570   46.0750 C   0  0  0  0  0  0  0  0  0  0  0  0
   58.1167   32.0335   43.4251 H   0  0  0  0  0  0  0  0  0  0  0  0
   58.8095   31.3971   41.8948 H   0  0  0  0  0  0  0  0  0  0  0  0
   57.9077   32.9506   41.8948 H   0  0  0  0  0  0  0  0  0  0  0  0
   55.8335   31.8075   42.4204 H   0  0  0  0  0  0  0  0  0  0  0  0
   56.6132   31.0180   40.9840 H   0  0  0  0  0  0  0  0  0  0  0  0
   56.4245   29.0446   42.0538 H   0  0  0  0  0  0  0  0  0  0  0  0
   57.6112   29.6141   43.2427 H   0  0  0  0  0  0  0  0  0  0  0  0
   55.3265   30.9974   44.0160 H   0  0  0  0  0  0  0  0  0  0  0  0
   54.6544   29.4176   43.4056 H   0  0  0  0  0  0  0  0  0  0  0  0
   55.1420   28.5770   45.2420 H   0  0  0  0  0  0  0  0  0  0  0  0
   57.0803   27.6631   45.4653 H   0  0  0  0  0  0  0  0  0  0  0  0
   57.6150   28.6966   44.0946 H   0  0  0  0  0  0  0  0  0  0  0  0
   59.1431   27.3369   48.3021 H   0  0  0  0  0  0  0  0  0  0  0  0
   58.2834   26.9785   46.7661 H   0  0  0  0  0  0  0  0  0  0  0  0
   60.0652   27.2062   46.7661 H   0  0  0  0  0  0  0  0  0  0  0  0
   59.9798   30.0415   49.6004 H   0  0  0  0  0  0  0  0  0  0  0  0
   60.9682   28.9278   48.4839 H   0  0  0  0  0  0  0  0  0  0  0  0
   61.9328   30.9633   46.5248 H   0  0  0  0  0  0  0  0  0  0  0  0
   63.8202   32.5450   46.6466 H   0  0  0  0  0  0  0  0  0  0  0  0
   63.4897   32.5534   50.9394 H   0  0  0  0  0  0  0  0  0  0  0  0
   61.6021   30.9718   50.7878 H   0  0  0  0  0  0  0  0  0  0  0  0
   60.0109   32.8193   48.0314 H   0  0  0  0  0  0  0  0  0  0  0  0
   58.9111   35.1569   47.8397 H   0  0  0  0  0  0  0  0  0  0  0  0
   59.8365   35.2358   46.3022 H   0  0  0  0  0  0  0  0  0  0  0  0
   58.0667   35.5435   46.3022 H   0  0  0  0  0  0  0  0  0  0  0  0
   57.1726   33.9150   44.9762 H   0  0  0  0  0  0  0  0  0  0  0  0
   56.7215   31.4790   44.5636 H   0  0  0  0  0  0  0  0  0  0  0  0
  1  2  1  0
  2  3  1  0
  3  4  1  0
  4  5  1  0
  5  6  1  0
  6  7  1  0
  7  8  2  0
  8  9  1  0
  8 10  1  0
 10 11  1  0
 11 12  1  0
 12 13  2  0
 13 14  1  0
 14 15  2  0
 15 16  1  0
 15 17  1  0
 17 18  2  0
 10 19  1  0
 19 20  2  0
 20 21  1  0
 21 22  1  0
 21 23  2  0
 23 24  1  0
 24 25  2  0
 25  7  1  0
 18 12  1  0
 25 19  1  0
  1 26  1  0
  1 27  1  0
  1 28  1  0
  2 29  1  0
  2 30  1  0
  3 31  1  0
  3 32  1  0
  4 33  1  0
  4 34  1  0
  5 35  1  0
  6 36  1  0
  6 37  1  0
  9 38  1  0
  9 39  1  0
  9 40  1  0
 11 41  1  0
 11 42  1  0
 13 43  1  0
 14 44  1  0
 17 45  1  0
 18 46  1  0
 20 47  1  0
 22 48  1  0
 22 49  1  0
 22 50  1  0
 23 51  1  0
 24 52  1  0
M  END
>  <smiles>  (2) 
CCCCNCc1c(C)n(Cc2ccc(F)cc2)c2cc(C)ccc12

>  <score_type>  (2) 
oracle

>  <origin>  (2) 
adg

>  <m_score__min__energy>  (2) 
-8.2300000000000004

>  <m_primary>  (2) 
energy

$$$$
2:0
     RDKit          3D

 32 33  0  0  0  0  0  0  0  0999 V2000
   57.4800   32.0490   41.7410 C   0  0  0  0  0  0  0  0  0  0  0  0
   57.0840   31.3700   43.0280 C   0  0  0  0  0  0  0  0  0  0  0  0
   56.5620   29.9680   42.8040 C   0  0  0  0  0  0  0  0  0  0  0  0
   55.2920   29.7170   43.5880 C   0  0  0  0  0  0  0  0  0  0  0  0
   55.5960   29.3290   44.9490 N   0  0  0  0  0  0  0  0  0  0  0  0
   56.8440   28.6370   45.0930 C   0  0  0  0  0  0  0  0  0  0  0  0
   57.9280   29.4850   45.5930 C   0  0  0  0  0  0  0  0  0  0  0  0
   59.2410   29.1910   45.9280 C   0  0  0  0  0  0  0  0  0  0  0  0
   59.8090   30.3230   46.3350 O   0  0  0  0  0  0  0  0  0  0  0  0
   58.9510   31.2840   46.2760 C   0  0  0  0  0  0  0  0  0  0  0  0
   59.1790   32.6780   46.6360 C   0  0  0  0  0  0  0  0  0  0  0  0
   59.4760   33.2460   47.8640 C   0  0  0  0  0  0  0  0  0  0  0  0
   59.6390   34.5610   47.9420 C   0  0  0  0  0  0  0  0  0  0  0  0
   59.5120   35.3270   46.8120 C   0  0  0  0  0  0  0  0  0  0  0  0
   59.1160   34.0650   45.4730 S   0  0  0  0  0  0  0  0  0  0  0  0
   57.7920   30.8130   45.8280 N   0  0  0  0  0  0  0  0  0  0  0  0
   58.0222   32.9786   41.9686 H   0  0  0  0  0  0  0  0  0  0  0  0
   58.1292   31.3793   41.1578 H   0  0  0  0  0  0  0  0  0  0  0  0
   56.5775   32.2843   41.1578 H   0  0  0  0  0  0  0  0  0  0  0  0
   57.9644   31.3182   43.6854 H   0  0  0  0  0  0  0  0  0  0  0  0
   56.2749   31.9601   43.4831 H   0  0  0  0  0  0  0  0  0  0  0  0
   56.3536   29.8311   41.7326 H   0  0  0  0  0  0  0  0  0  0  0  0
   57.3265   29.2560   43.1484 H   0  0  0  0  0  0  0  0  0  0  0  0
   54.6888   30.6368   43.6014 H   0  0  0  0  0  0  0  0  0  0  0  0
   54.7350   28.9007   43.1048 H   0  0  0  0  0  0  0  0  0  0  0  0
   55.4640   30.0930   45.6230 H   0  0  0  0  0  0  0  0  0  0  0  0
   56.7009   27.8038   45.7968 H   0  0  0  0  0  0  0  0  0  0  0  0
   57.1395   28.2912   44.0915 H   0  0  0  0  0  0  0  0  0  0  0  0
   59.7236   28.2043   45.8683 H   0  0  0  0  0  0  0  0  0  0  0  0
   59.5753   32.6169   48.7609 H   0  0  0  0  0  0  0  0  0  0  0  0
   59.8745   35.0332   48.9072 H   0  0  0  0  0  0  0  0  0  0  0  0
   59.6165   36.4174   46.7120 H   0  0  0  0  0  0  0  0  0  0  0  0
  1  2  1  0
  2  3  1  0
  3  4  1  0
  4  5  1  0
  5  6  1  0
  6  7  1  0
  7  8  2  0
  8  9  1  0
  9 10  1  0
 10 11  1  0
 11 12  2  0
 12 13  1  0
 13 14  2  0
 14 15  1  0
 10 16  2  0
 16  7  1  0
 15 11  1  0
  1 17  1  0
  1 18  1  0
  1 19  1  0
  2 20  1  0
  2 21  1  0
  3 22  1  0
  3 23  1  0
  4 24  1  0
  4 25  1  0
  5 26  1  0
  6 27  1  0
  6 28  1  0
  8 29  1  0
 12 30  1  0
 13 31  1  0
 14 32  1  0
M  END
>  <smiles>  (3) 
CCCCNCc1coc(-c2cccs2)n1

>  <score_type>  (3) 
oracle

>  <origin>  (3) 
adg

>  <m_score__min__energy>  (3) 
-6.7199999999999998

>  <m_primary>  (3) 
energy

$$$$
3:0
     RDKit          3D

 54 55  0  0  1  0  0  0  0  0999 V2000
   62.4880   32.1650   47.4810 C   0  0  0  0  0  0  0  0  0  0  0  0
   62.4030   33.5030   46.8010 C   0  0  0  0  0  0  0  0  0  0  0  0
   61.1580   33.9620   46.5600 O   0  0  0  0  0  0  0  0  0  0  0  0
   60.2760   34.1320   47.5630 C   0  0  0  0  0  0  0  0  0  0  0  0
   58.8940   34.5980   46.9660 C   0  0  0  0  0  0  0  0  0  0  0  0
   58.1730   33.4340   47.2950 N   0  0  0  0  0  0  0  0  0  0  0  0
   58.5260   32.2790   46.9400 C   0  0  0  0  0  0  0  0  0  0  0  0
   58.9040   31.4350   47.9460 N   0  0  0  0  0  0  0  0  0  0  0  0
   59.3500   30.1980   47.6880 C   0  0  0  0  0  0  0  0  0  0  0  0
   59.7190   29.3930   48.7420 C   0  0  0  0  0  0  0  0  0  0  0  0
   60.1770   28.1230   48.4570 C   0  0  0  0  0  0  0  0  0  0  0  0
   60.2460   27.7150   47.1410 C   0  0  0  0  0  0  0  0  0  0  0  0
   60.7380   26.3500   46.8190 C   0  0  0  0  0  0  0  0  0  0  0  0
   59.8690   28.5460   46.0970 C   0  0  0  0  0  0  0  0  0  0  0  0
   59.4110   29.8150   46.3690 C   0  0  0  0  0  0  0  0  0  0  0  0
   59.0280   30.6700   45.4010 C   0  0  0  0  0  0  0  0  0  0  0  0
   58.5620   31.9540   45.6590 N   0  0  0  0  0  0  0  0  0  0  0  0
   58.1090   32.6510   44.5230 C   0  0  0  0  0  0  0  0  0  0  0  0
   57.2500   31.5770   43.7620 C   0  0  0  0  0  0  0  0  0  0  0  0
   56.2680   31.0530   44.5090 O   0  0  0  0  0  0  0  0  0  0  0  0
   55.9250   29.7780   44.1500 C   0  0  0  0  0  0  0  0  0  0  0  0
   56.6560   28.6470   44.7860 C   0  0  0  0  0  0  0  0  0  0  0  0
   55.9430   27.8070   45.5830 O   0  0  0  0  0  0  0  0  0  0  0  0
   56.6340   26.6930   46.0480 C   0  0  0  0  0  0  0  0  0  0  0  0
   57.6230   26.2230   45.0230 C   0  0  0  0  0  0  0  0  0  0  0  0
   62.4790   32.3068   48.5718 H   0  0  0  0  0  0  0  0  0  0  0  0
   61.6273   31.5476   47.1844 H   0  0  0  0  0  0  0  0  0  0  0  0
   63.4199   31.6615   47.1844 H   0  0  0  0  0  0  0  0  0  0  0  0
   62.9161   34.2383   47.4382 H   0  0  0  0  0  0  0  0  0  0  0  0
   62.8666   33.3654   45.8130 H   0  0  0  0  0  0  0  0  0  0  0  0
   60.1426   33.1815   48.1004 H   0  0  0  0  0  0  0  0  0  0  0  0
   60.6527   34.8947   48.2604 H   0  0  0  0  0  0  0  0  0  0  0  0
   58.4990   35.4947   47.4658 H   0  0  0  0  0  0  0  0  0  0  0  0
   58.8882   34.9023   45.9089 H   0  0  0  0  0  0  0  0  0  0  0  0
   59.6508   29.7513   49.7798 H   0  0  0  0  0  0  0  0  0  0  0  0
   60.4828   27.4454   49.2678 H   0  0  0  0  0  0  0  0  0  0  0  0
   60.9356   25.8019   47.7520 H   0  0  0  0  0  0  0  0  0  0  0  0
   59.9763   25.8144   46.2333 H   0  0  0  0  0  0  0  0  0  0  0  0
   61.6662   26.4235   46.2333 H   0  0  0  0  0  0  0  0  0  0  0  0
   59.9356   28.1930   45.0573 H   0  0  0  0  0  0  0  0  0  0  0  0
   59.0869   30.3356   44.3547 H   0  0  0  0  0  0  0  0  0  0  0  0
   57.4940   33.5165   44.8104 H   0  0  0  0  0  0  0  0  0  0  0  0
   58.9277   33.0601   43.9128 H   0  0  0  0  0  0  0  0  0  0  0  0
   56.7997   32.0531   42.8785 H   0  0  0  0  0  0  0  0  0  0  0  0
   57.9266   30.7530   43.4913 H   0  0  0  0  0  0  0  0  0  0  0  0
   54.8579   29.6492   44.3838 H   0  0  0  0  0  0  0  0  0  0  0  0
   56.1948   29.7127   43.0856 H   0  0  0  0  0  0  0  0  0  0  0  0
   57.0939   28.0421   43.9783 H   0  0  0  0  0  0  0  0  0  0  0  0
   57.3803   29.1261   45.4612 H   0  0  0  0  0  0  0  0  0  0  0  0
   57.1687   26.9583   46.9720 H   0  0  0  0  0  0  0  0  0  0  0  0
   55.9145   25.8847   46.2451 H   0  0  0  0  0  0  0  0  0  0  0  0
   58.5049   25.8039   45.5296 H   0  0  0  0  0  0  0  0  0  0  0  0
   57.1592   25.4490   44.3939 H   0  0  0  0  0  0  0  0  0  0  0  0
   57.9302   27.0714   44.3939 H   0  0  0  0  0  0  0  0  0  0  0  0
  1  2  1  0
  2  3  1  0
  3  4  1  0
  4  5  1  0
  5  6  1  0
  6  7  2  0
  7  8  1  0
  8  9  2  0
  9 10  1  0
 10 11  2  0
 11 12  1  0
 12 13  1  0
 12 14  2  0
 14 15  1  0
 15 16  2  0
 16 17  1  0
 17 18  1  0
 18 19  1  0
 19 20  1  0
 20 21  1  0
 21 22  1  0
 22 23  1  0
 23 24  1  0
 24 25  1  0
 17  7  1  0
 15  9  1  0
  1 26  1  0
  1 27  1  0
  1 28  1  0
  2 29  1  0
  2 30  1  0
  4 31  1  0
  4 32  1  0
  5 33  1  0
  5 34  1  0
 10 35  1  0
 11 36  1  0
 13 37  1  0
 13 38  1  0
 13 39  1  0
 14 40  1  0
 16 41  1  0
 18 42  1  0
 18 43  1  0
 19 44  1  0
 19 45  1  0
 21 46  1  0
 21 47  1  0
 22 48  1  0
 22 49  1  0
 24 50  1  0
 24 51  1  0
 25 52  1  0
 25 53  1  0
 25 54  1  0
M  END
>  <smiles>  (4) 
CCOCCN=c1nc2ccc(C)cc2cn1CCOCCOCC

>  <score_type>  (4) 
oracle

>  <origin>  (4) 
adg

>  <m_score__min__energy>  (4) 
-6.4299999999999997

>  <m_primary>  (4) 
energy

$$$$
4:0
     RDKit          3D

 44 46  0  0  0  0  0  0  0  0999 V2000
   58.5220   34.2550   52.5870 C   0  0  0  0  0  0  0  0  0  0  0  0
   59.2730   33.4330   51.5770 C   0  0  0  0  0  0  0  0  0  0  0  0
   59.6530   34.2060   50.4880 O   0  0  0  0  0  0  0  0  0  0  0  0
   60.0740   33.7580   49.2510 C   0  0  0  0  0  0  0  0  0  0  0  0
   59.2500   33.1400   48.3340 C   0  0  0  0  0  0  0  0  0  0  0  0
   59.7380   32.7180   47.1180 C   0  0  0  0  0  0  0  0  0  0  0  0
   58.9210   32.0590   46.1060 C   0  0  0  0  0  0  0  0  0  0  0  0
   58.1790   30.9250   46.3530 C   0  0  0  0  0  0  0  0  0  0  0  0
   57.4060   30.3040   45.3870 C   0  0  0  0  0  0  0  0  0  0  0  0
   56.6630   29.1750   45.6180 O   0  0  0  0  0  0  0  0  0  0  0  0
   57.1870   27.8620   45.5440 C   0  0  0  0  0  0  0  0  0  0  0  0
   57.4030   30.8750   44.1320 C   0  0  0  0  0  0  0  0  0  0  0  0
   56.6490   30.3030   43.1160 C   0  0  0  0  0  0  0  0  0  0  0  0
   56.6480   30.8740   41.8700 C   0  0  0  0  0  0  0  0  0  0  0  0
   57.3820   32.0180   41.5810 C   0  0  0  0  0  0  0  0  0  0  0  0
   58.1280   32.5750   42.6050 C   0  0  0  0  0  0  0  0  0  0  0  0
   58.1370   32.0080   43.8670 C   0  0  0  0  0  0  0  0  0  0  0  0
   58.8530   32.5460   44.8390 N   0  0  0  0  0  0  0  0  0  0  0  0
   61.0720   32.9320   46.8470 C   0  0  0  0  0  0  0  0  0  0  0  0
   61.9200   33.5480   47.7450 C   0  0  0  0  0  0  0  0  0  0  0  0
   63.2760   33.7130   47.3500 N   0  0  0  0  0  0  0  0  0  0  0  0
   63.6280   34.3520   46.3400 O   0  0  0  0  0  0  0  0  0  0  0  0
   64.2450   33.1280   48.1370 O   0  0  0  0  0  0  0  0  0  0  0  0
   61.4250   33.9650   48.9540 C   0  0  0  0  0  0  0  0  0  0  0  0
   62.2660   34.5850   49.8690 O   0  0  0  0  0  0  0  0  0  0  0  0
   62.9400   33.7620   50.7910 C   0  0  0  0  0  0  0  0  0  0  0  0
   58.8088   33.9411   53.6015 H   0  0  0  0  0  0  0  0  0  0  0  0
   58.7669   35.3185   52.4493 H   0  0  0  0  0  0  0  0  0  0  0  0
   57.4407   34.1069   52.4493 H   0  0  0  0  0  0  0  0  0  0  0  0
   60.1725   33.0140   52.0518 H   0  0  0  0  0  0  0  0  0  0  0  0
   58.6135   32.6277   51.2213 H   0  0  0  0  0  0  0  0  0  0  0  0
   58.1889   32.9822   48.5774 H   0  0  0  0  0  0  0  0  0  0  0  0
   58.2018   30.4930   47.3644 H   0  0  0  0  0  0  0  0  0  0  0  0
   57.3428   27.4716   46.5605 H   0  0  0  0  0  0  0  0  0  0  0  0
   56.4785   27.2142   45.0070 H   0  0  0  0  0  0  0  0  0  0  0  0
   58.1468   27.8800   45.0070 H   0  0  0  0  0  0  0  0  0  0  0  0
   56.0560   29.3970   43.3099 H   0  0  0  0  0  0  0  0  0  0  0  0
   56.0468   30.4118   41.0731 H   0  0  0  0  0  0  0  0  0  0  0  0
   57.3705   32.4643   40.5757 H   0  0  0  0  0  0  0  0  0  0  0  0
   58.7218   33.4808   42.4129 H   0  0  0  0  0  0  0  0  0  0  0  0
   61.4759   32.5996   45.8793 H   0  0  0  0  0  0  0  0  0  0  0  0
   62.6852   34.0732   51.8148 H   0  0  0  0  0  0  0  0  0  0  0  0
   62.6359   32.7158   50.6393 H   0  0  0  0  0  0  0  0  0  0  0  0
   64.0256   33.8539   50.6393 H   0  0  0  0  0  0  0  0  0  0  0  0
  1  2  1  0
  2  3  1  0
  3  4  1  0
  4  5  2  0
  5  6  1  0
  6  7  1  0
  7  8  2  0
  8  9  1  0
  9 10  1  0
 10 11  1  0
  9 12  2  0
 12 13  1  0
 13 14  2  0
 14 15  1  0
 15 16  2  0
 16 17  1  0
 17 18  2  0
  6 19  2  0
 19 20  1  0
 20 21  1  0
 21 22  2  0
 21 23  1  0
 20 24  2  0
 24 25  1  0
 25 26  1  0
 24  4  1  0
 18  7  1  0
 17 12  1  0
  1 27  1  0
  1 28  1  0
  1 29  1  0
  2 30  1  0
  2 31  1  0
  5 32  1  0
  8 33  1  0
 11 34  1  0
 11 35  1  0
 11 36  1  0
 13 37  1  0
 14 38  1  0
 15 39  1  0
 16 40  1  0
 19 41  1  0
 26 42  1  0
 26 43  1  0
 26 44  1  0
M  CHG  2  21   1  23  -1
M  END
>  <smiles>  (5) 
CCOc1cc(-c2cc(OC)c3ccccc3n2)cc([N+](=O)[O-])c1OC

>  <score_type>  (5) 
oracle

>  <origin>  (5) 
adg

>  <m_score__min__energy>  (5) 
-7.25

>  <m_primary>  (5) 
energy

$$$$
5:0
     RDKit          3D

 53 55  0  0  0  0  0  0  0  0999 V2000
   59.9050   35.1020   46.1410 C   0  0  0  0  0  0  0  0  0  0  0  0
   58.8730   34.6120   47.1570 C   0  0  0  0  0  0  0  0  0  0  0  0
   57.9560   33.8400   46.5030 O   0  0  0  0  0  0  0  0  0  0  0  0
   58.1040   33.8680   45.1430 C   0  0  0  0  0  0  0  0  0  0  0  0
   57.4830   32.7100   44.4480 C   0  0  0  0  0  0  0  0  0  0  0  0
   57.2660   31.5570   45.3370 N   0  0  0  0  0  0  0  0  0  0  0  0
   58.2560   30.5450   45.1230 C   0  0  0  0  0  0  0  0  0  0  0  0
   58.2900   29.5230   46.2190 C   0  0  0  0  0  0  0  0  0  0  0  0
   59.2320   29.9310   47.2910 C   0  0  0  0  0  0  0  0  0  0  0  0
   59.1950   31.3500   47.6130 N   0  0  0  0  0  0  0  0  0  0  0  0
   59.8620   31.9560   48.6800 C   0  0  0  0  0  0  0  0  0  0  0  0
   61.1680   32.4050   48.4400 C   0  0  0  0  0  0  0  0  0  0  0  0
   61.7440   32.2390   47.1820 C   0  0  0  0  0  0  0  0  0  0  0  0
   63.0270   32.6670   46.8990 C   0  0  0  0  0  0  0  0  0  0  0  0
   63.7730   33.2800   47.8820 C   0  0  0  0  0  0  0  0  0  0  0  0
   63.2020   33.4460   49.1300 C   0  0  0  0  0  0  0  0  0  0  0  0
   61.9130   33.0190   49.4240 C   0  0  0  0  0  0  0  0  0  0  0  0
   61.4120   33.2190   50.6830 N   0  0  0  0  0  0  0  0  0  0  0  0
   62.2340   33.8500   51.6240 C   0  0  0  0  0  0  0  0  0  0  0  0
   60.1530   32.7840   50.9040 C   0  0  0  0  0  0  0  0  0  0  0  0
   59.5970   32.9730   52.1460 C   0  0  0  0  0  0  0  0  0  0  0  0
   58.2940   32.5630   52.4470 C   0  0  0  0  0  0  0  0  0  0  0  0
   57.5270   31.9490   51.4800 C   0  0  0  0  0  0  0  0  0  0  0  0
   58.1040   31.7690   50.2420 C   0  0  0  0  0  0  0  0  0  0  0  0
   59.3830   32.1690   49.9440 C   0  0  0  0  0  0  0  0  0  0  0  0
   60.7751   35.5151   46.6723 H   0  0  0  0  0  0  0  0  0  0  0  0
   60.2264   34.2604   45.5098 H   0  0  0  0  0  0  0  0  0  0  0  0
   59.4560   35.8830   45.5098 H   0  0  0  0  0  0  0  0  0  0  0  0
   59.3721   34.0164   47.9355 H   0  0  0  0  0  0  0  0  0  0  0  0
   58.3743   35.4696   47.6322 H   0  0  0  0  0  0  0  0  0  0  0  0
   57.6404   34.7901   44.7626 H   0  0  0  0  0  0  0  0  0  0  0  0
   59.1837   33.8238   44.9372 H   0  0  0  0  0  0  0  0  0  0  0  0
   56.5118   33.0257   44.0393 H   0  0  0  0  0  0  0  0  0  0  0  0
   58.1761   32.3901   43.6560 H   0  0  0  0  0  0  0  0  0  0  0  0
   56.2860   31.2150   45.2030 H   0  0  0  0  0  0  0  0  0  0  0  0
   58.0370   30.0346   44.1735 H   0  0  0  0  0  0  0  0  0  0  0  0
   59.2374   31.0414   45.1032 H   0  0  0  0  0  0  0  0  0  0  0  0
   57.2816   29.4181   46.6457 H   0  0  0  0  0  0  0  0  0  0  0  0
   58.6289   28.5651   45.7975 H   0  0  0  0  0  0  0  0  0  0  0  0
   58.9845   29.3647   48.2010 H   0  0  0  0  0  0  0  0  0  0  0  0
   60.2448   29.7191   46.9177 H   0  0  0  0  0  0  0  0  0  0  0  0
   58.6150   31.9800   46.9880 H   0  0  0  0  0  0  0  0  0  0  0  0
   61.1584   31.7515   46.3886 H   0  0  0  0  0  0  0  0  0  0  0  0
   63.4504   32.5192   45.8946 H   0  0  0  0  0  0  0  0  0  0  0  0
   64.7965   33.6283   47.6790 H   0  0  0  0  0  0  0  0  0  0  0  0
   63.7906   33.9348   49.9204 H   0  0  0  0  0  0  0  0  0  0  0  0
   61.8963   33.5908   52.6383 H   0  0  0  0  0  0  0  0  0  0  0  0
   63.2727   33.5151   51.4866 H   0  0  0  0  0  0  0  0  0  0  0  0
   62.1790   34.9400   51.4866 H   0  0  0  0  0  0  0  0  0  0  0  0
   60.1955   33.4623   52.9286 H   0  0  0  0  0  0  0  0  0  0  0  0
   57.8822   32.7302   53.4532 H   0  0  0  0  0  0  0  0  0  0  0  0
   56.4990   31.6172   51.6878 H   0  0  0  0  0  0  0  0  0  0  0  0
   57.5112   31.2812   49.4542 H   0  0  0  0  0  0  0  0  0  0  0  0
  1  2  1  0
  2  3  1  0
  3  4  1  0
  4  5  1  0
  5  6  1  0
  6  7  1  0
  7  8  1  0
  8  9  1  0
  9 10  1  0
 10 11  1  0
 11 12  2  0
 12 13  1  0
 13 14  2  0
 14 15  1  0
 15 16  2  0
 16 17  1  0
 17 18  2  0
 18 19  1  0
 18 20  1  0
 20 21  2  0
 21 22  1  0
 22 23  2  0
 23 24  1  0
 24 25  2  0
 25 11  1  0
 17 12  1  0
 25 20  1  0
  1 26  1  0
  1 27  1  0
  1 28  1  0
  2 29  1  0
  2 30  1  0
  4 31  1  0
  4 32  1  0
  5 33  1  0
  5 34  1  0
  6 35  1  0
  7 36  1  0
  7 37  1  0
  8 38  1  0
  8 39  1  0
  9 40  1  0
  9 41  1  0
 10 42  1  0
 13 43  1  0
 14 44  1  0
 15 45  1  0
 16 46  1  0
 19 47  1  0
 19 48  1  0
 19 49  1  0
 21 50  1  0
 22 51  1  0
 23 52  1  0
 24 53  1  0
M  CHG  1  18   1
M  END
>  <smiles>  (6) 
CCOCCNCCCNc1c2ccccc2[n+](C)c2ccccc12

>  <score_type>  (6) 
oracle

>  <origin>  (6) 
adg

>  <m_score__min__energy>  (6) 
-5.5899999999999999

>  <m_primary>  (6) 
energy

$$$$
6:0
     RDKit          3D

 35 36  0  0  0  0  0  0  0  0999 V2000
   59.4800   34.6280   46.1060 C   0  0  0  0  0  0  0  0  0  0  0  0
   58.1350   33.9390   46.1740 C   0  0  0  0  0  0  0  0  0  0  0  0
   58.0080   32.9770   45.1270 N   0  0  0  0  0  0  0  0  0  0  0  0
   57.7720   33.2050   43.8640 N   0  0  0  0  0  0  0  0  0  0  0  0
   57.7190   32.0460   43.1730 C   0  0  0  0  0  0  0  0  0  0  0  0
   57.4680   31.9720   41.7250 C   0  0  0  0  0  0  0  0  0  0  0  0
   57.9430   30.9860   44.0860 C   0  0  0  0  0  0  0  0  0  0  0  0
   58.0150   29.6500   44.0440 C   0  0  0  0  0  0  0  0  0  0  0  0
   58.2710   29.0050   45.2730 C   0  0  0  0  0  0  0  0  0  0  0  0
   58.4030   27.5870   45.5430 C   0  0  0  0  0  0  0  0  0  0  0  0
   59.5040   27.1970   45.9900 O   0  0  0  0  0  0  0  0  0  0  0  0
   57.3100   26.7490   45.2920 N   0  0  0  0  0  0  0  0  0  0  0  0
   57.1640   25.3410   45.4620 C   0  0  0  0  0  0  0  0  0  0  0  0
   55.9390   24.9730   46.2230 C   0  0  0  0  0  0  0  0  0  0  0  0
   54.7920   25.6650   45.9790 O   0  0  0  0  0  0  0  0  0  0  0  0
   53.7310   24.8000   45.6100 C   0  0  0  0  0  0  0  0  0  0  0  0
   58.4010   30.3450   46.4680 S   0  0  0  0  0  0  0  0  0  0  0  0
   58.1140   31.6230   45.2700 C   0  0  0  0  0  0  0  0  0  0  0  0
   59.8475   34.8163   47.1256 H   0  0  0  0  0  0  0  0  0  0  0  0
   60.1948   33.9850   45.5715 H   0  0  0  0  0  0  0  0  0  0  0  0
   59.3758   35.5837   45.5715 H   0  0  0  0  0  0  0  0  0  0  0  0
   58.0380   33.4311   47.1449 H   0  0  0  0  0  0  0  0  0  0  0  0
   57.3440   34.6946   46.0582 H   0  0  0  0  0  0  0  0  0  0  0  0
   56.4266   31.6650   41.5486 H   0  0  0  0  0  0  0  0  0  0  0  0
   57.6409   32.9593   41.2720 H   0  0  0  0  0  0  0  0  0  0  0  0
   58.1489   31.2364   41.2720 H   0  0  0  0  0  0  0  0  0  0  0  0
   57.8825   29.0883   43.1075 H   0  0  0  0  0  0  0  0  0  0  0  0
   56.4350   27.2530   44.9090 H   0  0  0  0  0  0  0  0  0  0  0  0
   57.1145   24.8709   44.4688 H   0  0  0  0  0  0  0  0  0  0  0  0
   58.0303   24.9869   46.0401 H   0  0  0  0  0  0  0  0  0  0  0  0
   55.7308   23.9138   46.0115 H   0  0  0  0  0  0  0  0  0  0  0  0
   56.1855   25.2182   47.2666 H   0  0  0  0  0  0  0  0  0  0  0  0
   53.2474   24.4057   46.5159 H   0  0  0  0  0  0  0  0  0  0  0  0
   52.9937   25.3577   45.0139 H   0  0  0  0  0  0  0  0  0  0  0  0
   54.1287   23.9655   45.0139 H   0  0  0  0  0  0  0  0  0  0  0  0
  1  2  1  0
  2  3  1  0
  3  4  1  0
  4  5  2  0
  5  6  1  0
  5  7  1  0
  7  8  1  0
  8  9  2  0
  9 10  1  0
 10 11  2  0
 10 12  1  0
 12 13  1  0
 13 14  1  0
 14 15  1  0
 15 16  1  0
  9 17  1  0
 17 18  1  0
 18  3  1  0
 18  7  2  0
  1 19  1  0
  1 20  1  0
  1 21  1  0
  2 22  1  0
  2 23  1  0
  6 24  1  0
  6 25  1  0
  6 26  1  0
  8 27  1  0
 12 28  1  0
 13 29  1  0
 13 30  1  0
 14 31  1  0
 14 32  1  0
 16 33  1  0
 16 34  1  0
 16 35  1  0
M  END
>  <smiles>  (7) 
CCn1nc(C)c2cc(C(=O)NCCOC)sc21

>  <score_type>  (7) 
oracle

>  <origin>  (7) 
adg

>  <m_score__min__energy>  (7) 
-6.3300000000000001

>  <m_primary>  (7) 
energy

$$$$
8:0
     RDKit          3D

 61 63  0  0  0  0  0  0  0  0999 V2000
   64.3860   32.6940   49.0690 C   0  0  0  0  0  0  0  0  0  0  0  0
   63.3690   31.5820   49.3650 C   0  0  0  0  0  0  0  0  0  0  0  0
   62.3040   31.6230   48.4350 N   0  0  0  0  0  0  0  0  0  0  0  0
   62.5760   32.3720   47.2770 C   0  0  0  0  0  0  0  0  0  0  0  0
   61.8000   33.6840   47.1630 C   0  0  0  0  0  0  0  0  0  0  0  0
   61.3140   34.1460   48.5060 C   0  0  0  0  0  0  0  0  0  0  0  0
   60.2650   33.4990   49.0640 O   0  0  0  0  0  0  0  0  0  0  0  0
   59.9710   33.7650   50.3760 C   0  0  0  0  0  0  0  0  0  0  0  0
   59.5770   32.4710   51.0920 C   0  0  0  0  0  0  0  0  0  0  0  0
   60.2180   31.4020   50.4800 O   0  0  0  0  0  0  0  0  0  0  0  0
   59.5030   30.2420   50.4160 C   0  0  0  0  0  0  0  0  0  0  0  0
   59.0700   29.7910   49.0620 C   0  0  0  0  0  0  0  0  0  0  0  0
   59.4320   30.7350   48.0170 N   0  0  0  0  0  0  0  0  0  0  0  0
   58.8630   30.6750   46.7170 C   0  0  0  0  0  0  0  0  0  0  0  0
   58.7170   29.5090   45.9980 C   0  0  0  0  0  0  0  0  0  0  0  0
   58.1440   29.5900   44.7470 C   0  0  0  0  0  0  0  0  0  0  0  0
   57.7270   30.7750   44.2160 N   0  0  0  0  0  0  0  0  0  0  0  0
   57.1220   30.8250   42.8770 C   0  0  0  0  0  0  0  0  0  0  0  0
   57.8680   31.9120   44.9170 C   0  0  0  0  0  0  0  0  0  0  0  0
   57.4320   33.0830   44.3360 C   0  0  0  0  0  0  0  0  0  0  0  0
   57.5720   34.2710   45.0460 C   0  0  0  0  0  0  0  0  0  0  0  0
   58.1410   34.2540   46.3090 C   0  0  0  0  0  0  0  0  0  0  0  0
   58.5760   33.0730   46.8840 C   0  0  0  0  0  0  0  0  0  0  0  0
   58.4330   31.8870   46.1710 C   0  0  0  0  0  0  0  0  0  0  0  0
   58.0640   28.2550   44.1240 C   0  0  0  0  0  0  0  0  0  0  0  0
   59.0740   27.4610   44.9100 C   0  0  0  0  0  0  0  0  0  0  0  0
   59.0680   28.0940   46.2850 C   0  0  0  0  0  0  0  0  0  0  0  0
   64.7637   33.1070   50.0160 H   0  0  0  0  0  0  0  0  0  0  0  0
   65.2241   32.2796   48.4895 H   0  0  0  0  0  0  0  0  0  0  0  0
   63.8986   33.4919   48.4895 H   0  0  0  0  0  0  0  0  0  0  0  0
   63.8708   30.6055   49.2976 H   0  0  0  0  0  0  0  0  0  0  0  0
   62.9634   31.7315   50.3765 H   0  0  0  0  0  0  0  0  0  0  0  0
   61.3520   31.7460   48.7860 H   0  0  0  0  0  0  0  0  0  0  0  0
   63.6503   32.6083   47.2672 H   0  0  0  0  0  0  0  0  0  0  0  0
   62.2594   31.7510   46.4261 H   0  0  0  0  0  0  0  0  0  0  0  0
   62.4586   34.4543   46.7353 H   0  0  0  0  0  0  0  0  0  0  0  0
   60.9268   33.5169   46.5153 H   0  0  0  0  0  0  0  0  0  0  0  0
   62.1588   34.0612   49.2053 H   0  0  0  0  0  0  0  0  0  0  0  0
   60.9405   35.1647   48.3248 H   0  0  0  0  0  0  0  0  0  0  0  0
   60.8540   34.1997   50.8672 H   0  0  0  0  0  0  0  0  0  0  0  0
   59.1328   34.4758   50.4233 H   0  0  0  0  0  0  0  0  0  0  0  0
   59.8799   32.5270   52.1480 H   0  0  0  0  0  0  0  0  0  0  0  0
   58.4872   32.3323   51.0356 H   0  0  0  0  0  0  0  0  0  0  0  0
   60.1242   29.4442   50.8493 H   0  0  0  0  0  0  0  0  0  0  0  0
   58.5705   30.4491   50.9615 H   0  0  0  0  0  0  0  0  0  0  0  0
   59.5462   28.8237   48.8436 H   0  0  0  0  0  0  0  0  0  0  0  0
   57.9731   29.7094   49.0725 H   0  0  0  0  0  0  0  0  0  0  0  0
   60.1350   31.5090   48.1690 H   0  0  0  0  0  0  0  0  0  0  0  0
   56.0298   30.9153   42.9713 H   0  0  0  0  0  0  0  0  0  0  0  0
   57.5158   31.6937   42.3289 H   0  0  0  0  0  0  0  0  0  0  0  0
   57.3678   29.9035   42.3289 H   0  0  0  0  0  0  0  0  0  0  0  0
   56.9827   33.0784   43.3319 H   0  0  0  0  0  0  0  0  0  0  0  0
   57.2322   35.2203   44.6063 H   0  0  0  0  0  0  0  0  0  0  0  0
   58.2490   35.1969   46.8651 H   0  0  0  0  0  0  0  0  0  0  0  0
   59.0270   33.0719   47.8873 H   0  0  0  0  0  0  0  0  0  0  0  0
   57.0556   27.8283   44.2289 H   0  0  0  0  0  0  0  0  0  0  0  0
   58.2637   28.2657   43.0423 H   0  0  0  0  0  0  0  0  0  0  0  0
   58.7772   26.4034   44.9677 H   0  0  0  0  0  0  0  0  0  0  0  0
   60.0714   27.4780   44.4464 H   0  0  0  0  0  0  0  0  0  0  0  0
   58.3148   27.6233   46.9340 H   0  0  0  0  0  0  0  0  0  0  0  0
   60.0238   27.9833   46.8182 H   0  0  0  0  0  0  0  0  0  0  0  0
  1  2  1  0
  2  3  1  0
  3  4  1  0
  4  5  1  0
  5  6  1  0
  6  7  1  0
  7  8  1  0
  8  9  1  0
  9 10  1  0
 10 11  1  0
 11 12  1  0
 12 13  1  0
 13 14  1  0
 14 15  2  0
 15 16  1  0
 16 17  2  0
 17 18  1  0
 17 19  1  0
 19 20  2  0
 20 21  1  0
 21 22  2  0
 22 23  1  0
 23 24  2  0
 16 25  1  0
 25 26  1  0
 26 27  1  0
 24 14  1  0
 27 15  1  0
 24 19  1  0
  1 28  1  0
  1 29  1  0
  1 30  1  0
  2 31  1  0
  2 32  1  0
  3 33  1  0
  4 34  1  0
  4 35  1  0
  5 36  1  0
  5 37  1  0
  6 38  1  0
  6 39  1  0
  8 40  1  0
  8 41  1  0
  9 42  1  0
  9 43  1  0
 11 44  1  0
 11 45  1  0
 12 46  1  0
 12 47  1  0
 13 48  1  0
 18 49  1  0
 18 50  1  0
 18 51  1  0
 20 52  1  0
 21 53  1  0
 22 54  1  0
 23 55  1  0
 25 56  1  0
 25 57  1  0
 26 58  1  0
 26 59  1  0
 27 60  1  0
 27 61  1  0
M  CHG  1  17   1
M  END
>  <smiles>  (8) 
CCNCCCOCCOCCNc1c2c([n+](C)c3ccccc13)CCC2

>  <score_type>  (8) 
oracle

>  <origin>  (8) 
adg

>  <m_score__min__energy>  (8) 
-5.5599999999999996

>  <m_primary>  (8) 
energy

$$$$
9:0
     RDKit          3D

 38 39  0  0  0  0  0  0  0  0999 V2000
   58.4570   33.1940   45.8050 C   0  0  0  0  0  0  0  0  0  0  0  0
   59.5550   33.8900   46.6170 C   0  0  0  0  0  0  0  0  0  0  0  0
   60.0290   32.9630   47.7020 C   0  0  0  0  0  0  0  0  0  0  0  0
   60.7820   31.7860   47.1060 C   0  0  0  0  0  0  0  0  0  0  0  0
   59.9180   30.6490   46.9600 N   0  0  0  0  0  0  0  0  0  0  0  0
   60.5330   29.3940   47.2750 C   0  0  0  0  0  0  0  0  0  0  0  0
   60.3310   28.4040   46.1640 C   0  0  0  0  0  0  0  0  0  0  0  0
   58.9700   27.8050   46.1870 C   0  0  0  0  0  0  0  0  0  0  0  0
   58.7120   26.6050   46.8110 C   0  0  0  0  0  0  0  0  0  0  0  0
   57.4530   26.0670   46.8230 C   0  0  0  0  0  0  0  0  0  0  0  0
   56.3980   26.7210   46.2040 C   0  0  0  0  0  0  0  0  0  0  0  0
   55.1180   26.1850   46.2110 O   0  0  0  0  0  0  0  0  0  0  0  0
   56.6600   27.9380   45.5720 C   0  0  0  0  0  0  0  0  0  0  0  0
   55.6500   28.5440   44.9900 O   0  0  0  0  0  0  0  0  0  0  0  0
   55.8420   29.6900   44.3820 C   0  0  0  0  0  0  0  0  0  0  0  0
   54.8330   30.2470   43.8290 O   0  0  0  0  0  0  0  0  0  0  0  0
   57.0700   30.3160   44.3110 C   0  0  0  0  0  0  0  0  0  0  0  0
   58.1310   29.6800   44.9220 C   0  0  0  0  0  0  0  0  0  0  0  0
   57.9370   28.4690   45.5670 C   0  0  0  0  0  0  0  0  0  0  0  0
   57.7303   32.7334   46.4904 H   0  0  0  0  0  0  0  0  0  0  0  0
   57.9455   33.9332   45.1710 H   0  0  0  0  0  0  0  0  0  0  0  0
   58.9072   32.4160   45.1710 H   0  0  0  0  0  0  0  0  0  0  0  0
   60.3968   34.1438   45.9560 H   0  0  0  0  0  0  0  0  0  0  0  0
   59.1555   34.8114   47.0659 H   0  0  0  0  0  0  0  0  0  0  0  0
   60.6966   33.5129   48.3817 H   0  0  0  0  0  0  0  0  0  0  0  0
   59.1553   32.5840   48.2524 H   0  0  0  0  0  0  0  0  0  0  0  0
   61.1730   32.0710   46.1181 H   0  0  0  0  0  0  0  0  0  0  0  0
   61.6074   31.5170   47.7816 H   0  0  0  0  0  0  0  0  0  0  0  0
   59.0800   30.8400   47.5520 H   0  0  0  0  0  0  0  0  0  0  0  0
   61.6113   29.5495   47.4271 H   0  0  0  0  0  0  0  0  0  0  0  0
   60.0694   28.9953   48.1894 H   0  0  0  0  0  0  0  0  0  0  0  0
   60.4764   28.9167   45.2017 H   0  0  0  0  0  0  0  0  0  0  0  0
   61.0603   27.5915   46.2984 H   0  0  0  0  0  0  0  0  0  0  0  0
   59.5329   26.0684   47.3093 H   0  0  0  0  0  0  0  0  0  0  0  0
   57.2764   25.1063   47.3287 H   0  0  0  0  0  0  0  0  0  0  0  0
   54.2970   26.7220   45.9060 H   0  0  0  0  0  0  0  0  0  0  0  0
   57.1969   31.2772   43.7915 H   0  0  0  0  0  0  0  0  0  0  0  0
   59.1322   30.1348   44.8971 H   0  0  0  0  0  0  0  0  0  0  0  0
  1  2  1  0
  2  3  1  0
  3  4  1  0
  4  5  1  0
  5  6  1  0
  6  7  1  0
  7  8  1  0
  8  9  2  0
  9 10  1  0
 10 11  2  0
 11 12  1  0
 11 13  1  0
 13 14  1  0
 14 15  1  0
 15 16  2  0
 15 17  1  0
 17 18  2  0
 18 19  1  0
 19  8  1  0
 19 13  2  0
  1 20  1  0
  1 21  1  0
  1 22  1  0
  2 23  1  0
  2 24  1  0
  3 25  1  0
  3 26  1  0
  4 27  1  0
  4 28  1  0
  5 29  1  0
  6 30  1  0
  6 31  1  0
  7 32  1  0
  7 33  1  0
  9 34  1  0
 10 35  1  0
 12 36  1  0
 17 37  1  0
 18 38  1  0
M  END
>  <smiles>  (9) 
CCCCNCCc1ccc(O)c2oc(=O)ccc12

>  <score_type>  (9) 
oracle

>  <origin>  (9) 
adg

>  <m_score__min__energy>  (9) 
-7.2000000000000002

>  <m_primary>  (9) 
energy

$$$$
10:0
     RDKit          3D

 68 71  0  0  0  0  0  0  0  0999 V2000
   60.2790   33.5570   50.6820 C   0  0  0  0  0  0  0  0  0  0  0  0
   58.9380   32.8990   50.7490 C   0  0  0  0  0  0  0  0  0  0  0  0
   58.3560   32.8880   52.0860 N   0  0  0  0  0  0  0  0  0  0  0  0
   59.2920   32.1260   52.9020 C   0  0  0  0  0  0  0  0  0  0  0  0
   58.2650   34.2380   52.6130 C   0  0  0  0  0  0  0  0  0  0  0  0
   57.0450   32.3200   52.0230 C   0  0  0  0  0  0  0  0  0  0  0  0
   56.9240   30.9220   52.5240 C   0  0  0  0  0  0  0  0  0  0  0  0
   57.4450   29.8960   51.8980 O   0  0  0  0  0  0  0  0  0  0  0  0
   58.1430   29.7840   50.7910 C   0  0  0  0  0  0  0  0  0  0  0  0
   59.5560   29.3540   50.9220 C   0  0  0  0  0  0  0  0  0  0  0  0
   60.4950   30.3090   50.4970 O   0  0  0  0  0  0  0  0  0  0  0  0
   61.4610   29.8210   49.6570 C   0  0  0  0  0  0  0  0  0  0  0  0
   61.1360   30.2580   48.2170 C   0  0  0  0  0  0  0  0  0  0  0  0
   59.7220   30.5140   48.1960 N   0  0  0  0  0  0  0  0  0  0  0  0
   59.0380   30.4370   46.9510 C   0  0  0  0  0  0  0  0  0  0  0  0
   58.5460   29.1950   46.5710 C   0  0  0  0  0  0  0  0  0  0  0  0
   58.7300   28.0910   47.3910 C   0  0  0  0  0  0  0  0  0  0  0  0
   58.2410   26.8560   47.0140 C   0  0  0  0  0  0  0  0  0  0  0  0
   57.5780   26.7420   45.8250 C   0  0  0  0  0  0  0  0  0  0  0  0
   57.3750   27.8170   44.9800 C   0  0  0  0  0  0  0  0  0  0  0  0
   57.8680   29.0570   45.3650 C   0  0  0  0  0  0  0  0  0  0  0  0
   57.6980   30.1500   44.5750 N   0  0  0  0  0  0  0  0  0  0  0  0
   56.9850   29.9560   43.3290 C   0  0  0  0  0  0  0  0  0  0  0  0
   58.1700   31.3600   44.9330 C   0  0  0  0  0  0  0  0  0  0  0  0
   58.1240   32.5680   44.3240 N   0  0  0  0  0  0  0  0  0  0  0  0
   58.7530   33.4810   45.1030 C   0  0  0  0  0  0  0  0  0  0  0  0
   58.9640   34.8310   44.9120 C   0  0  0  0  0  0  0  0  0  0  0  0
   59.6500   35.5330   45.8870 C   0  0  0  0  0  0  0  0  0  0  0  0
   60.1110   34.8920   47.0260 C   0  0  0  0  0  0  0  0  0  0  0  0
   59.9050   33.5330   47.2300 C   0  0  0  0  0  0  0  0  0  0  0  0
   59.2240   32.8510   46.2540 C   0  0  0  0  0  0  0  0  0  0  0  0
   58.8490   31.5310   46.1260 C   0  0  0  0  0  0  0  0  0  0  0  0
   60.6496   33.7388   51.7016 H   0  0  0  0  0  0  0  0  0  0  0  0
   60.9826   32.9018   50.1475 H   0  0  0  0  0  0  0  0  0  0  0  0
   60.1913   34.5144   50.1475 H   0  0  0  0  0  0  0  0  0  0  0  0
   58.2534   33.4369   50.0768 H   0  0  0  0  0  0  0  0  0  0  0  0
   59.0800   31.8495   50.4518 H   0  0  0  0  0  0  0  0  0  0  0  0
   59.0771   32.3009   53.9665 H   0  0  0  0  0  0  0  0  0  0  0  0
   59.1858   31.0543   52.6778 H   0  0  0  0  0  0  0  0  0  0  0  0
   60.3198   32.4474   52.6778 H   0  0  0  0  0  0  0  0  0  0  0  0
   58.2673   34.2033   53.7125 H   0  0  0  0  0  0  0  0  0  0  0  0
   59.1255   34.8271   52.2629 H   0  0  0  0  0  0  0  0  0  0  0  0
   57.3333   34.7063   52.2629 H   0  0  0  0  0  0  0  0  0  0  0  0
   56.3729   32.9531   52.6209 H   0  0  0  0  0  0  0  0  0  0  0  0
   56.7855   32.2802   50.9548 H   0  0  0  0  0  0  0  0  0  0  0  0
   57.3668   30.9206   53.5309 H   0  0  0  0  0  0  0  0  0  0  0  0
   55.8472   30.7342   52.4003 H   0  0  0  0  0  0  0  0  0  0  0  0
   57.6318   29.0505   50.1502 H   0  0  0  0  0  0  0  0  0  0  0  0
   58.1935   30.8043   50.3830 H   0  0  0  0  0  0  0  0  0  0  0  0
   59.7501   29.1281   51.9809 H   0  0  0  0  0  0  0  0  0  0  0  0
   59.6799   28.4788   50.2672 H   0  0  0  0  0  0  0  0  0  0  0  0
   62.4427   30.2204   49.9515 H   0  0  0  0  0  0  0  0  0  0  0  0
   61.4870   28.7229   49.7166 H   0  0  0  0  0  0  0  0  0  0  0  0
   61.6944   31.1697   47.9580 H   0  0  0  0  0  0  0  0  0  0  0  0
   61.4190   29.4865   47.4858 H   0  0  0  0  0  0  0  0  0  0  0  0
   59.1460   30.7550   49.0290 H   0  0  0  0  0  0  0  0  0  0  0  0
   59.2673   28.2000   48.3447 H   0  0  0  0  0  0  0  0  0  0  0  0
   58.3830   25.9777   47.6609 H   0  0  0  0  0  0  0  0  0  0  0  0
   57.1905   25.7562   45.5284 H   0  0  0  0  0  0  0  0  0  0  0  0
   56.8375   27.6936   44.0283 H   0  0  0  0  0  0  0  0  0  0  0  0
   55.9438   29.6727   43.5426 H   0  0  0  0  0  0  0  0  0  0  0  0
   56.9991   30.8906   42.7491 H   0  0  0  0  0  0  0  0  0  0  0  0
   57.4707   29.1574   42.7491 H   0  0  0  0  0  0  0  0  0  0  0  0
   57.6710   32.7480   43.4010 H   0  0  0  0  0  0  0  0  0  0  0  0
   58.5960   35.3366   44.0070 H   0  0  0  0  0  0  0  0  0  0  0  0
   59.8313   36.6101   45.7570 H   0  0  0  0  0  0  0  0  0  0  0  0
   60.6530   35.4729   47.7868 H   0  0  0  0  0  0  0  0  0  0  0  0
   60.2720   33.0263   48.1347 H   0  0  0  0  0  0  0  0  0  0  0  0
  1  2  1  0
  2  3  1  0
  3  4  1  0
  3  5  1  0
  3  6  1  0
  6  7  1  0
  7  8  1  0
  8  9  1  0
  9 10  1  0
 10 11  1  0
 11 12  1  0
 12 13  1  0
 13 14  1  0
 14 15  1  0
 15 16  2  0
 16 17  1  0
 17 18  2  0
 18 19  1  0
 19 20  2  0
 20 21  1  0
 21 22  2  0
 22 23  1  0
 22 24  1  0
 24 25  1  0
 25 26  1  0
 26 27  2  0
 27 28  1  0
 28 29  2  0
 29 30  1  0
 30 31  2  0
 31 32  1  0
 32 15  1  0
 21 16  1  0
 32 24  2  0
 31 26  1  0
  1 33  1  0
  1 34  1  0
  1 35  1  0
  2 36  1  0
  2 37  1  0
  4 38  1  0
  4 39  1  0
  4 40  1  0
  5 41  1  0
  5 42  1  0
  5 43  1  0
  6 44  1  0
  6 45  1  0
  7 46  1  0
  7 47  1  0
  9 48  1  0
  9 49  1  0
 10 50  1  0
 10 51  1  0
 12 52  1  0
 12 53  1  0
 13 54  1  0
 13 55  1  0
 14 56  1  0
 17 57  1  0
 18 58  1  0
 19 59  1  0
 20 60  1  0
 23 61  1  0
 23 62  1  0
 23 63  1  0
 25 64  1  0
 27 65  1  0
 28 66  1  0
 29 67  1  0
 30 68  1  0
M  CHG  2   3   1  22   1
M  END
>  <smiles>  (10) 
CC[N+](C)(C)CCOCCOCCNc1c2ccccc2[n+](C)c2[nH]c3ccccc3c12

>  <score_type>  (10) 
oracle

>  <origin>  (10) 
adg

>  <m_score__min__energy>  (10) 
-4.7400000000000002

>  <m_primary>  (10) 
energy

$$$$
11:0
     RDKit          3D

 62 63  0  0  0  0  0  0  0  0999 V2000
   65.2630   32.7250   49.7430 C   0  0  0  0  0  0  0  0  0  0  0  0
   63.9490   33.3570   49.4000 C   0  0  0  0  0  0  0  0  0  0  0  0
   63.1340   32.6340   48.4860 N   0  0  0  0  0  0  0  0  0  0  0  0
   63.7330   32.6040   47.1690 C   0  0  0  0  0  0  0  0  0  0  0  0
   63.3460   33.8510   46.3870 C   0  0  0  0  0  0  0  0  0  0  0  0
   62.6790   31.3520   48.8840 C   0  0  0  0  0  0  0  0  0  0  0  0
   62.5400   31.1400   50.3740 C   0  0  0  0  0  0  0  0  0  0  0  0
   61.2320   30.3790   50.5560 C   0  0  0  0  0  0  0  0  0  0  0  0
   60.0790   31.2950   50.9170 C   0  0  0  0  0  0  0  0  0  0  0  0
   59.2730   31.5520   49.6700 C   0  0  0  0  0  0  0  0  0  0  0  0
   59.0300   33.0390   49.5100 C   0  0  0  0  0  0  0  0  0  0  0  0
   60.1570   33.7740   48.8500 C   0  0  0  0  0  0  0  0  0  0  0  0
   60.3840   33.1710   47.5400 N   0  0  0  0  0  0  0  0  0  0  0  0
   59.3750   33.1930   46.5370 C   0  0  0  0  0  0  0  0  0  0  0  0
   58.8010   34.3790   46.1410 C   0  0  0  0  0  0  0  0  0  0  0  0
   57.8290   34.4370   45.1330 C   0  0  0  0  0  0  0  0  0  0  0  0
   57.4050   33.2990   44.4930 C   0  0  0  0  0  0  0  0  0  0  0  0
   57.9880   32.1070   44.8970 C   0  0  0  0  0  0  0  0  0  0  0  0
   58.9450   32.0440   45.8890 C   0  0  0  0  0  0  0  0  0  0  0  0
   59.2870   30.7150   46.0150 C   0  0  0  0  0  0  0  0  0  0  0  0
   60.2500   30.0870   46.9200 C   0  0  0  0  0  0  0  0  0  0  0  0
   58.5100   30.0190   45.0790 C   0  0  0  0  0  0  0  0  0  0  0  0
   58.5350   28.5400   44.8410 C   0  0  0  0  0  0  0  0  0  0  0  0
   57.7270   30.8760   44.4090 N   0  0  0  0  0  0  0  0  0  0  0  0
   56.8040   30.5030   43.3750 C   0  0  0  0  0  0  0  0  0  0  0  0
   65.3706   32.6732   50.8365 H   0  0  0  0  0  0  0  0  0  0  0  0
   65.3024   31.7094   49.3222 H   0  0  0  0  0  0  0  0  0  0  0  0
   66.0810   33.3282   49.3222 H   0  0  0  0  0  0  0  0  0  0  0  0
   63.3805   33.4814   50.3335 H   0  0  0  0  0  0  0  0  0  0  0  0
   64.1953   34.3034   48.8964 H   0  0  0  0  0  0  0  0  0  0  0  0
   64.8277   32.5627   47.2686 H   0  0  0  0  0  0  0  0  0  0  0  0
   63.3711   31.7158   46.6303 H   0  0  0  0  0  0  0  0  0  0  0  0
   63.0948   34.6604   47.0883 H   0  0  0  0  0  0  0  0  0  0  0  0
   64.1895   34.1632   45.7537 H   0  0  0  0  0  0  0  0  0  0  0  0
   62.4739   33.6308   45.7537 H   0  0  0  0  0  0  0  0  0  0  0  0
   61.6931   31.1858   48.4254 H   0  0  0  0  0  0  0  0  0  0  0  0
   63.4509   30.6427   48.5507 H   0  0  0  0  0  0  0  0  0  0  0  0
   63.3849   30.5501   50.7590 H   0  0  0  0  0  0  0  0  0  0  0  0
   62.5380   32.0928   50.9236 H   0  0  0  0  0  0  0  0  0  0  0  0
   60.9909   29.8602   49.6165 H   0  0  0  0  0  0  0  0  0  0  0  0
   61.3688   29.6678   51.3839 H   0  0  0  0  0  0  0  0  0  0  0  0
   59.4456   30.8144   51.6772 H   0  0  0  0  0  0  0  0  0  0  0  0
   60.4603   32.2428   51.3248 H   0  0  0  0  0  0  0  0  0  0  0  0
   59.8245   31.1764   48.7955 H   0  0  0  0  0  0  0  0  0  0  0  0
   58.3061   31.0338   49.7507 H   0  0  0  0  0  0  0  0  0  0  0  0
   58.1237   33.1778   48.9022 H   0  0  0  0  0  0  0  0  0  0  0  0
   58.9289   33.4554   50.5231 H   0  0  0  0  0  0  0  0  0  0  0  0
   59.8919   34.8350   48.7315 H   0  0  0  0  0  0  0  0  0  0  0  0
   61.0674   33.7076   49.4638 H   0  0  0  0  0  0  0  0  0  0  0  0
   61.3210   32.7430   47.4210 H   0  0  0  0  0  0  0  0  0  0  0  0
   59.1152   35.3121   46.6315 H   0  0  0  0  0  0  0  0  0  0  0  0
   57.3993   35.4093   44.8504 H   0  0  0  0  0  0  0  0  0  0  0  0
   56.6424   33.3308   43.7009 H   0  0  0  0  0  0  0  0  0  0  0  0
   59.9540   30.2800   47.9617 H   0  0  0  0  0  0  0  0  0  0  0  0
   60.2694   29.0021   46.7393 H   0  0  0  0  0  0  0  0  0  0  0  0
   61.2506   30.5067   46.7393 H   0  0  0  0  0  0  0  0  0  0  0  0
   58.5439   28.0133   45.8067 H   0  0  0  0  0  0  0  0  0  0  0  0
   57.6417   28.2452   44.2708 H   0  0  0  0  0  0  0  0  0  0  0  0
   59.4377   28.2756   44.2708 H   0  0  0  0  0  0  0  0  0  0  0  0
   55.8755   30.1278   43.8302 H   0  0  0  0  0  0  0  0  0  0  0  0
   56.5780   31.3804   42.7512 H   0  0  0  0  0  0  0  0  0  0  0  0
   57.2511   29.7150   42.7512 H   0  0  0  0  0  0  0  0  0  0  0  0
  1  2  1  0
  2  3  1  0
  3  4  1  0
  4  5  1  0
  3  6  1  0
  6  7  1  0
  7  8  1  0
  8  9  1  0
  9 10  1  0
 10 11  1  0
 11 12  1  0
 12 13  1  0
 13 14  1  0
 14 15  2  0
 15 16  1  0
 16 17  2  0
 17 18  1  0
 18 19  2  0
 19 20  1  0
 20 21  1  0
 20 22  2  0
 22 23  1  0
 22 24  1  0
 24 25  1  0
 19 14  1  0
 24 18  1  0
  1 26  1  0
  1 27  1  0
  1 28  1  0
  2 29  1  0
  2 30  1  0
  4 31  1  0
  4 32  1  0
  5 33  1  0
  5 34  1  0
  5 35  1  0
  6 36  1  0
  6 37  1  0
  7 38  1  0
  7 39  1  0
  8 40  1  0
  8 41  1  0
  9 42  1  0
  9 43  1  0
 10 44  1  0
 10 45  1  0
 11 46  1  0
 11 47  1  0
 12 48  1  0
 12 49  1  0
 13 50  1  0
 15 51  1  0
 16 52  1  0
 17 53  1  0
 21 54  1  0
 21 55  1  0
 21 56  1  0
 23 57  1  0
 23 58  1  0
 23 59  1  0
 25 60  1  0
 25 61  1  0
 25 62  1  0
M  END
>  <smiles>  (11) 
CCN(CC)CCCCCCCNc1cccc2c1c(C)c(C)n2C

>  <score_type>  (11) 
oracle

>  <origin>  (11) 
adg

>  <m_score__min__energy>  (11) 
-6.9100000000000001

>  <m_primary>  (11) 
energy

$$$$
12:0
     RDKit          3D

 49 52  0  0  0  0  0  0  0  0999 V2000
   57.6490   25.9520   45.6740 C   0  0  0  0  0  0  0  0  0  0  0  0
   56.3640   26.6470   46.0090 C   0  0  0  0  0  0  0  0  0  0  0  0
   56.3440   28.0230   45.5480 N   0  0  0  0  0  0  0  0  0  0  0  0
   57.4040   28.1120   44.5420 C   0  0  0  0  0  0  0  0  0  0  0  0
   57.0230   29.2990   43.6470 C   0  0  0  0  0  0  0  0  0  0  0  0
   57.5600   30.5780   44.2000 C   0  0  0  0  0  0  0  0  0  0  0  0
   57.4730   30.5970   45.6450 N   0  0  0  0  0  0  0  0  0  0  0  0
   58.4550   31.3110   46.3850 C   0  0  0  0  0  0  0  0  0  0  0  0
   59.1510   30.6590   47.3870 C   0  0  0  0  0  0  0  0  0  0  0  0
   60.1150   31.3330   48.1260 C   0  0  0  0  0  0  0  0  0  0  0  0
   60.4080   32.6390   47.8970 N   0  0  0  0  0  0  0  0  0  0  0  0
   61.3990   33.3490   48.6490 C   0  0  0  0  0  0  0  0  0  0  0  0
   59.7220   33.2790   46.9110 C   0  0  0  0  0  0  0  0  0  0  0  0
   59.9530   34.6080   46.6050 C   0  0  0  0  0  0  0  0  0  0  0  0
   59.2690   35.2750   45.6100 C   0  0  0  0  0  0  0  0  0  0  0  0
   58.3110   34.5940   44.8810 C   0  0  0  0  0  0  0  0  0  0  0  0
   58.0490   33.2670   45.1510 C   0  0  0  0  0  0  0  0  0  0  0  0
   58.7570   32.6370   46.1560 C   0  0  0  0  0  0  0  0  0  0  0  0
   60.6410   30.3620   49.0790 C   0  0  0  0  0  0  0  0  0  0  0  0
   61.5750   30.4530   50.0270 N   0  0  0  0  0  0  0  0  0  0  0  0
   61.9270   29.4450   50.8130 C   0  0  0  0  0  0  0  0  0  0  0  0
   61.3240   28.2180   50.6840 C   0  0  0  0  0  0  0  0  0  0  0  0
   60.3360   28.0570   49.7090 C   0  0  0  0  0  0  0  0  0  0  0  0
   60.0140   29.1400   48.9240 C   0  0  0  0  0  0  0  0  0  0  0  0
   59.0460   29.2760   47.8460 C   0  0  0  0  0  0  0  0  0  0  0  0
   58.2760   28.3930   47.3990 O   0  0  0  0  0  0  0  0  0  0  0  0
   58.1672   25.6717   46.6029 H   0  0  0  0  0  0  0  0  0  0  0  0
   57.4341   25.0471   45.0866 H   0  0  0  0  0  0  0  0  0  0  0  0
   58.2887   26.6271   45.0866 H   0  0  0  0  0  0  0  0  0  0  0  0
   55.5339   26.1032   45.5345 H   0  0  0  0  0  0  0  0  0  0  0  0
   56.2639   26.6583   47.1044 H   0  0  0  0  0  0  0  0  0  0  0  0
   56.6030   28.6670   46.3370 H   0  0  0  0  0  0  0  0  0  0  0  0
   58.3767   28.2906   45.0236 H   0  0  0  0  0  0  0  0  0  0  0  0
   57.4977   27.1801   43.9651 H   0  0  0  0  0  0  0  0  0  0  0  0
   57.4382   29.1392   42.6410 H   0  0  0  0  0  0  0  0  0  0  0  0
   55.9260   29.3683   43.6036 H   0  0  0  0  0  0  0  0  0  0  0  0
   58.6135   30.6843   43.9019 H   0  0  0  0  0  0  0  0  0  0  0  0
   56.9604   31.4101   43.8024 H   0  0  0  0  0  0  0  0  0  0  0  0
   56.7130   30.1040   46.1660 H   0  0  0  0  0  0  0  0  0  0  0  0
   61.2101   33.2136   49.7242 H   0  0  0  0  0  0  0  0  0  0  0  0
   62.3971   32.9592   48.4002 H   0  0  0  0  0  0  0  0  0  0  0  0
   61.3509   34.4194   48.4002 H   0  0  0  0  0  0  0  0  0  0  0  0
   60.7143   35.1562   47.1794 H   0  0  0  0  0  0  0  0  0  0  0  0
   59.4824   36.3333   45.3993 H   0  0  0  0  0  0  0  0  0  0  0  0
   57.7569   35.1118   44.0842 H   0  0  0  0  0  0  0  0  0  0  0  0
   57.2885   32.7192   44.5753 H   0  0  0  0  0  0  0  0  0  0  0  0
   62.7076   29.5926   51.5739 H   0  0  0  0  0  0  0  0  0  0  0  0
   61.6127   27.3793   51.3346 H   0  0  0  0  0  0  0  0  0  0  0  0
   59.8293   27.0902   49.5728 H   0  0  0  0  0  0  0  0  0  0  0  0
  1  2  1  0
  2  3  1  0
  3  4  1  0
  4  5  1  0
  5  6  1  0
  6  7  1  0
  7  8  1  0
  8  9  2  0
  9 10  1  0
 10 11  2  0
 11 12  1  0
 11 13  1  0
 13 14  2  0
 14 15  1  0
 15 16  2  0
 16 17  1  0
 17 18  2  0
 10 19  1  0
 19 20  2  0
 20 21  1  0
 21 22  2  0
 22 23  1  0
 23 24  2  0
 24 25  1  0
 25 26  2  0
 18  8  1  0
 24 19  1  0
 25  9  1  0
 18 13  1  0
  1 27  1  0
  1 28  1  0
  1 29  1  0
  2 30  1  0
  2 31  1  0
  3 32  1  0
  4 33  1  0
  4 34  1  0
  5 35  1  0
  5 36  1  0
  6 37  1  0
  6 38  1  0
  7 39  1  0
 12 40  1  0
 12 41  1  0
 12 42  1  0
 14 43  1  0
 15 44  1  0
 16 45  1  0
 17 46  1  0
 21 47  1  0
 22 48  1  0
 23 49  1  0
M  CHG  1  11   1
M  END
>  <smiles>  (12) 
CCNCCCNc1c2c([n+](C)c3ccccc13)-c1ncccc1C2=O

>  <score_type>  (12) 
oracle

>  <origin>  (12) 
adg

>  <m_score__min__energy>  (12) 
-6.1299999999999999

>  <m_primary>  (12) 
energy

$$$$
13:0
     RDKit          3D

 49 50  0  0  0  0  0  0  0  0999 V2000
   59.3070   34.5990   47.5530 C   0  0  0  0  0  0  0  0  0  0  0  0
   59.3810   34.3210   46.0790 C   0  0  0  0  0  0  0  0  0  0  0  0
   59.2380   33.0050   45.7240 O   0  0  0  0  0  0  0  0  0  0  0  0
   58.4710   32.7650   44.6090 C   0  0  0  0  0  0  0  0  0  0  0  0
   57.0210   32.6320   44.9220 C   0  0  0  0  0  0  0  0  0  0  0  0
   56.5450   31.3520   44.7930 O   0  0  0  0  0  0  0  0  0  0  0  0
   56.6100   30.8340   43.5230 C   0  0  0  0  0  0  0  0  0  0  0  0
   56.9590   29.3470   43.6730 C   0  0  0  0  0  0  0  0  0  0  0  0
   56.9140   28.9510   45.0140 O   0  0  0  0  0  0  0  0  0  0  0  0
   57.9040   29.0600   45.9480 C   0  0  0  0  0  0  0  0  0  0  0  0
   58.6230   30.2040   46.2190 C   0  0  0  0  0  0  0  0  0  0  0  0
   59.6140   30.2490   47.1790 C   0  0  0  0  0  0  0  0  0  0  0  0
   60.4610   31.1740   47.6590 N   0  0  0  0  0  0  0  0  0  0  0  0
   61.2410   30.6370   48.6320 C   0  0  0  0  0  0  0  0  0  0  0  0
   62.5230   31.4350   49.5890 S   0  0  0  0  0  0  0  0  0  0  0  0
   63.2520   32.7710   48.5960 C   0  0  0  0  0  0  0  0  0  0  0  0
   64.6110   33.0620   49.1840 C   0  0  0  0  0  0  0  0  0  0  0  0
   63.3630   32.2380   47.1800 C   0  0  0  0  0  0  0  0  0  0  0  0
   62.3850   33.9770   48.6910 C   0  0  0  0  0  0  0  0  0  0  0  0
   60.8490   29.3430   48.7390 N   0  0  0  0  0  0  0  0  0  0  0  0
   59.8660   29.0840   47.8700 C   0  0  0  0  0  0  0  0  0  0  0  0
   59.1890   27.9040   47.6550 C   0  0  0  0  0  0  0  0  0  0  0  0
   58.2090   27.9130   46.6870 C   0  0  0  0  0  0  0  0  0  0  0  0
   57.2620   26.2910   46.3730 Br  0  0  0  0  0  0  0  0  0  0  0  0
   59.5508   33.6832   48.1115 H   0  0  0  0  0  0  0  0  0  0  0  0
   60.0259   35.3897   47.8135 H   0  0  0  0  0  0  0  0  0  0  0  0
   58.2901   34.9277   47.8135 H   0  0  0  0  0  0  0  0  0  0  0  0
   58.5838   34.8952   45.5843 H   0  0  0  0  0  0  0  0  0  0  0  0
   60.3939   34.6129   45.7645 H   0  0  0  0  0  0  0  0  0  0  0  0
   58.6032   33.6001   43.9054 H   0  0  0  0  0  0  0  0  0  0  0  0
   58.8050   31.8100   44.1773 H   0  0  0  0  0  0  0  0  0  0  0  0
   56.8579   32.9605   45.9591 H   0  0  0  0  0  0  0  0  0  0  0  0
   56.4766   33.2526   44.1951 H   0  0  0  0  0  0  0  0  0  0  0  0
   55.6399   30.9469   43.0170 H   0  0  0  0  0  0  0  0  0  0  0  0
   57.3641   31.3593   42.9185 H   0  0  0  0  0  0  0  0  0  0  0  0
   56.2371   28.7489   43.0976 H   0  0  0  0  0  0  0  0  0  0  0  0
   57.9803   29.1885   43.2964 H   0  0  0  0  0  0  0  0  0  0  0  0
   58.3985   31.1170   45.6480 H   0  0  0  0  0  0  0  0  0  0  0  0
   60.4970   32.1430   47.3230 H   0  0  0  0  0  0  0  0  0  0  0  0
   64.5461   33.0481   50.2820 H   0  0  0  0  0  0  0  0  0  0  0  0
   65.3268   32.2968   48.8493 H   0  0  0  0  0  0  0  0  0  0  0  0
   64.9507   34.0532   48.8493 H   0  0  0  0  0  0  0  0  0  0  0  0
   63.5872   31.1615   47.2100 H   0  0  0  0  0  0  0  0  0  0  0  0
   62.4119   32.3999   46.6517 H   0  0  0  0  0  0  0  0  0  0  0  0
   64.1704   32.7661   46.6517 H   0  0  0  0  0  0  0  0  0  0  0  0
   62.2100   34.2204   49.7494 H   0  0  0  0  0  0  0  0  0  0  0  0
   62.8813   34.8253   48.1969 H   0  0  0  0  0  0  0  0  0  0  0  0
   61.4228   33.7767   48.1969 H   0  0  0  0  0  0  0  0  0  0  0  0
   59.4204   26.9954   48.2303 H   0  0  0  0  0  0  0  0  0  0  0  0
  1  2  1  0
  2  3  1  0
  3  4  1  0
  4  5  1  0
  5  6  1  0
  6  7  1  0
  7  8  1  0
  8  9  1  0
  9 10  1  0
 10 11  2  0
 11 12  1  0
 12 13  1  0
 13 14  1  0
 14 15  1  0
 15 16  1  0
 16 17  1  0
 16 18  1  0
 16 19  1  0
 14 20  2  0
 20 21  1  0
 21 22  1  0
 22 23  2  0
 23 24  1  0
 23 10  1  0
 21 12  2  0
  1 25  1  0
  1 26  1  0
  1 27  1  0
  2 28  1  0
  2 29  1  0
  4 30  1  0
  4 31  1  0
  5 32  1  0
  5 33  1  0
  7 34  1  0
  7 35  1  0
  8 36  1  0
  8 37  1  0
 11 38  1  0
 13 39  1  0
 17 40  1  0
 17 41  1  0
 17 42  1  0
 18 43  1  0
 18 44  1  0
 18 45  1  0
 19 46  1  0
 19 47  1  0
 19 48  1  0
 22 49  1  0
M  END
>  <smiles>  (13) 
CCOCCOCCOc1cc2[nH]c(SC(C)(C)C)nc2cc1Br

>  <score_type>  (13) 
oracle

>  <origin>  (13) 
adg

>  <m_score__min__energy>  (13) 
-7.2699999999999996

>  <m_primary>  (13) 
energy

$$$$
14:0
     RDKit          3D

 61 63  0  0  0  0  0  0  0  0999 V2000
   61.9990   30.2070   50.4240 C   0  0  0  0  0  0  0  0  0  0  0  0
   63.1120   31.2240   50.3910 C   0  0  0  0  0  0  0  0  0  0  0  0
   62.8660   32.2390   49.4140 N   0  0  0  0  0  0  0  0  0  0  0  0
   63.1590   33.5710   49.8720 C   0  0  0  0  0  0  0  0  0  0  0  0
   63.3790   31.9450   48.1110 C   0  0  0  0  0  0  0  0  0  0  0  0
   62.3630   31.4700   47.1360 C   0  0  0  0  0  0  0  0  0  0  0  0
   61.0180   31.5750   47.7180 N   0  0  0  0  0  0  0  0  0  0  0  0
   59.9480   31.2850   46.8000 C   0  0  0  0  0  0  0  0  0  0  0  0
   59.6930   29.9380   46.5990 C   0  0  0  0  0  0  0  0  0  0  0  0
   60.4080   28.9750   47.2870 C   0  0  0  0  0  0  0  0  0  0  0  0
   60.1430   27.6270   47.0860 C   0  0  0  0  0  0  0  0  0  0  0  0
   59.1500   27.3200   46.1840 C   0  0  0  0  0  0  0  0  0  0  0  0
   58.4360   28.2860   45.4980 C   0  0  0  0  0  0  0  0  0  0  0  0
   58.6920   29.6270   45.6910 C   0  0  0  0  0  0  0  0  0  0  0  0
   57.9870   30.5430   45.0250 N   0  0  0  0  0  0  0  0  0  0  0  0
   56.9490   30.2510   44.0670 C   0  0  0  0  0  0  0  0  0  0  0  0
   58.2600   31.8560   45.2500 C   0  0  0  0  0  0  0  0  0  0  0  0
   57.5520   32.8640   44.6230 C   0  0  0  0  0  0  0  0  0  0  0  0
   57.7920   34.2080   44.8560 C   0  0  0  0  0  0  0  0  0  0  0  0
   58.7730   34.5830   45.7500 C   0  0  0  0  0  0  0  0  0  0  0  0
   59.4890   33.5910   46.3850 C   0  0  0  0  0  0  0  0  0  0  0  0
   60.6960   34.1260   47.6010 S   0  0  0  0  0  0  0  0  0  0  0  0
   59.9080   34.1890   49.2180 C   0  0  0  0  0  0  0  0  0  0  0  0
   58.8940   33.0850   49.3770 C   0  0  0  0  0  0  0  0  0  0  0  0
   59.3850   32.0670   50.2850 N   0  0  0  0  0  0  0  0  0  0  0  0
   58.5870   30.8620   50.0750 C   0  0  0  0  0  0  0  0  0  0  0  0
   59.2410   32.4570   51.6900 C   0  0  0  0  0  0  0  0  0  0  0  0
   59.2430   32.2600   46.1420 C   0  0  0  0  0  0  0  0  0  0  0  0
   61.7451   29.9750   51.4689 H   0  0  0  0  0  0  0  0  0  0  0  0
   61.1142   30.6151   49.9136 H   0  0  0  0  0  0  0  0  0  0  0  0
   62.3258   29.2890   49.9136 H   0  0  0  0  0  0  0  0  0  0  0  0
   63.1958   31.6944   51.3818 H   0  0  0  0  0  0  0  0  0  0  0  0
   64.0448   30.7061   50.1232 H   0  0  0  0  0  0  0  0  0  0  0  0
   63.1627   33.5880   50.9719 H   0  0  0  0  0  0  0  0  0  0  0  0
   64.1463   33.8787   49.4972 H   0  0  0  0  0  0  0  0  0  0  0  0
   62.3920   34.2646   49.4972 H   0  0  0  0  0  0  0  0  0  0  0  0
   63.8380   32.8603   47.7090 H   0  0  0  0  0  0  0  0  0  0  0  0
   64.0964   31.1209   48.2383 H   0  0  0  0  0  0  0  0  0  0  0  0
   62.4152   32.0865   46.2265 H   0  0  0  0  0  0  0  0  0  0  0  0
   62.5667   30.4181   46.8869 H   0  0  0  0  0  0  0  0  0  0  0  0
   60.8550   31.8380   48.7110 H   0  0  0  0  0  0  0  0  0  0  0  0
   61.1910   29.2785   47.9974 H   0  0  0  0  0  0  0  0  0  0  0  0
   60.6992   26.8433   47.6212 H   0  0  0  0  0  0  0  0  0  0  0  0
   58.9140   26.2614   46.0007 H   0  0  0  0  0  0  0  0  0  0  0  0
   57.6530   27.9800   44.7886 H   0  0  0  0  0  0  0  0  0  0  0  0
   56.0221   29.9902   44.5988 H   0  0  0  0  0  0  0  0  0  0  0  0
   56.7735   31.1346   43.4358 H   0  0  0  0  0  0  0  0  0  0  0  0
   57.2599   29.4054   43.4358 H   0  0  0  0  0  0  0  0  0  0  0  0
   56.7636   32.5867   43.9078 H   0  0  0  0  0  0  0  0  0  0  0  0
   57.2025   34.9734   44.3301 H   0  0  0  0  0  0  0  0  0  0  0  0
   58.9784   35.6448   45.9508 H   0  0  0  0  0  0  0  0  0  0  0  0
   60.6782   34.0829   49.9962 H   0  0  0  0  0  0  0  0  0  0  0  0
   59.3884   35.1538   49.3134 H   0  0  0  0  0  0  0  0  0  0  0  0
   57.9604   33.5068   49.7777 H   0  0  0  0  0  0  0  0  0  0  0  0
   58.7134   32.6256   48.3940 H   0  0  0  0  0  0  0  0  0  0  0  0
   58.3043   30.4351   51.0486 H   0  0  0  0  0  0  0  0  0  0  0  0
   57.6790   31.1175   49.5091 H   0  0  0  0  0  0  0  0  0  0  0  0
   59.1767   30.1257   49.5091 H   0  0  0  0  0  0  0  0  0  0  0  0
   59.5494   31.6217   52.3359 H   0  0  0  0  0  0  0  0  0  0  0  0
   59.8753   33.3321   51.8945 H   0  0  0  0  0  0  0  0  0  0  0  0
   58.1902   32.7100   51.8945 H   0  0  0  0  0  0  0  0  0  0  0  0
  1  2  1  0
  2  3  1  0
  3  4  1  0
  3  5  1  0
  5  6  1  0
  6  7  1  0
  7  8  1  0
  8  9  2  0
  9 10  1  0
 10 11  2  0
 11 12  1  0
 12 13  2  0
 13 14  1  0
 14 15  2  0
 15 16  1  0
 15 17  1  0
 17 18  2  0
 18 19  1  0
 19 20  2  0
 20 21  1  0
 21 22  1  0
 22 23  1  0
 23 24  1  0
 24 25  1  0
 25 26  1  0
 25 27  1  0
 21 28  2  0
 28  8  1  0
 14  9  1  0
 28 17  1  0
  1 29  1  0
  1 30  1  0
  1 31  1  0
  2 32  1  0
  2 33  1  0
  4 34  1  0
  4 35  1  0
  4 36  1  0
  5 37  1  0
  5 38  1  0
  6 39  1  0
  6 40  1  0
  7 41  1  0
 10 42  1  0
 11 43  1  0
 12 44  1  0
 13 45  1  0
 16 46  1  0
 16 47  1  0
 16 48  1  0
 18 49  1  0
 19 50  1  0
 20 51  1  0
 23 52  1  0
 23 53  1  0
 24 54  1  0
 24 55  1  0
 26 56  1  0
 26 57  1  0
 26 58  1  0
 27 59  1  0
 27 60  1  0
 27 61  1  0
M  CHG  1  15   1
M  END
>  <smiles>  (14) 
CCN(C)CCNc1c2ccccc2[n+](C)c2cccc(SCCN(C)C)c12

>  <score_type>  (14) 
oracle

>  <origin>  (14) 
adg

>  <m_score__min__energy>  (14) 
-5.4400000000000004

>  <m_primary>  (14) 
energy

$$$$
15:0
     RDKit          3D

 44 46  0  0  0  0  0  0  0  0999 V2000
   56.6740   29.8930   43.0590 C   0  0  0  0  0  0  0  0  0  0  0  0
   55.5120   29.9550   44.0340 C   0  0  0  0  0  0  0  0  0  0  0  0
   55.7330   29.1200   45.1860 N   0  0  0  0  0  0  0  0  0  0  0  0
   56.7980   28.1760   45.0230 C   0  0  0  0  0  0  0  0  0  0  0  0
   57.4250   27.7260   46.3280 C   0  0  0  0  0  0  0  0  0  0  0  0
   58.8500   28.2260   46.3270 C   0  0  0  0  0  0  0  0  0  0  0  0
   58.9340   29.6940   46.3480 C   0  0  0  0  0  0  0  0  0  0  0  0
   60.0620   30.2460   46.9670 C   0  0  0  0  0  0  0  0  0  0  0  0
   60.2350   31.6290   47.0390 C   0  0  0  0  0  0  0  0  0  0  0  0
   61.4120   32.0850   47.7520 C   0  0  0  0  0  0  0  0  0  0  0  0
   62.6450   32.2890   47.1580 C   0  0  0  0  0  0  0  0  0  0  0  0
   63.7540   32.7360   47.8490 C   0  0  0  0  0  0  0  0  0  0  0  0
   63.5930   32.9840   49.2140 C   0  0  0  0  0  0  0  0  0  0  0  0
   62.3690   32.7880   49.8360 C   0  0  0  0  0  0  0  0  0  0  0  0
   61.2620   32.3360   49.1180 C   0  0  0  0  0  0  0  0  0  0  0  0
   59.2680   32.4110   46.4870 C   0  0  0  0  0  0  0  0  0  0  0  0
   59.4060   33.7790   46.5200 C   0  0  0  0  0  0  0  0  0  0  0  0
   60.7860   34.5930   47.2180 Cl  0  0  0  0  0  0  0  0  0  0  0  0
   58.4340   34.5710   45.9540 C   0  0  0  0  0  0  0  0  0  0  0  0
   57.3100   34.0600   45.3400 C   0  0  0  0  0  0  0  0  0  0  0  0
   57.1860   32.6840   45.3110 C   0  0  0  0  0  0  0  0  0  0  0  0
   58.1650   31.8570   45.8830 C   0  0  0  0  0  0  0  0  0  0  0  0
   57.9770   30.5050   45.8020 N   0  0  0  0  0  0  0  0  0  0  0  0
   57.6198   29.8425   43.6184 H   0  0  0  0  0  0  0  0  0  0  0  0
   56.5742   28.9989   42.4260 H   0  0  0  0  0  0  0  0  0  0  0  0
   56.6699   30.7926   42.4260 H   0  0  0  0  0  0  0  0  0  0  0  0
   55.3831   30.9951   44.3681 H   0  0  0  0  0  0  0  0  0  0  0  0
   54.6125   29.5906   43.5162 H   0  0  0  0  0  0  0  0  0  0  0  0
   55.9500   29.7200   46.0010 H   0  0  0  0  0  0  0  0  0  0  0  0
   56.3997   27.2902   44.5065 H   0  0  0  0  0  0  0  0  0  0  0  0
   57.5873   28.6813   44.4470 H   0  0  0  0  0  0  0  0  0  0  0  0
   56.8749   28.1539   47.1790 H   0  0  0  0  0  0  0  0  0  0  0  0
   57.3928   26.6305   46.4225 H   0  0  0  0  0  0  0  0  0  0  0  0
   59.3626   27.8310   47.2165 H   0  0  0  0  0  0  0  0  0  0  0  0
   59.3245   27.8783   45.3975 H   0  0  0  0  0  0  0  0  0  0  0  0
   60.8221   29.5807   47.4024 H   0  0  0  0  0  0  0  0  0  0  0  0
   62.7469   32.0850   46.0819 H   0  0  0  0  0  0  0  0  0  0  0  0
   64.7206   32.8898   47.3470 H   0  0  0  0  0  0  0  0  0  0  0  0
   64.4499   33.3402   49.8046 H   0  0  0  0  0  0  0  0  0  0  0  0
   62.2697   32.9922   50.9123 H   0  0  0  0  0  0  0  0  0  0  0  0
   60.2934   32.1808   49.6157 H   0  0  0  0  0  0  0  0  0  0  0  0
   58.5593   35.6631   45.9930 H   0  0  0  0  0  0  0  0  0  0  0  0
   56.5482   34.7166   44.8944 H   0  0  0  0  0  0  0  0  0  0  0  0
   56.3061   32.2297   44.8320 H   0  0  0  0  0  0  0  0  0  0  0  0
  1  2  1  0
  2  3  1  0
  3  4  1  0
  4  5  1  0
  5  6  1  0
  6  7  1  0
  7  8  2  0
  8  9  1  0
  9 10  1  0
 10 11  2  0
 11 12  1  0
 12 13  2  0
 13 14  1  0
 14 15  2  0
  9 16  2  0
 16 17  1  0
 17 18  1  0
 17 19  2  0
 19 20  1  0
 20 21  2  0
 21 22  1  0
 22 23  2  0
 23  7  1  0
 15 10  1  0
 22 16  1  0
  1 24  1  0
  1 25  1  0
  1 26  1  0
  2 27  1  0
  2 28  1  0
  3 29  1  0
  4 30  1  0
  4 31  1  0
  5 32  1  0
  5 33  1  0
  6 34  1  0
  6 35  1  0
  8 36  1  0
 11 37  1  0
 12 38  1  0
 13 39  1  0
 14 40  1  0
 15 41  1  0
 19 42  1  0
 20 43  1  0
 21 44  1  0
M  END
>  <smiles>  (15) 
CCNCCCc1cc(-c2ccccc2)c2c(Cl)cccc2n1

>  <score_type>  (15) 
oracle

>  <origin>  (15) 
adg

>  <m_score__min__energy>  (15) 
-8.3200000000000003

>  <m_primary>  (15) 
energy

$$$$
16:0
     RDKit          3D

 49 51  0  0  1  0  0  0  0  0999 V2000
   55.9360   23.6710   45.3380 C   0  0  0  0  0  0  0  0  0  0  0  0
   56.5060   23.7640   46.7480 C   0  0  0  0  0  0  0  0  0  0  0  0
   56.4960   25.1330   47.1070 O   0  0  0  0  0  0  0  0  0  0  0  0
   56.3000   26.1600   46.2190 C   0  0  0  0  0  0  0  0  0  0  0  0
   55.1300   26.6120   45.9950 O   0  0  0  0  0  0  0  0  0  0  0  0
   57.4900   26.7240   45.5310 C   0  0  2  0  0  0  0  0  0  0  0  0
   58.7890   26.3870   46.2090 C   0  0  0  0  0  0  0  0  0  0  0  0
   59.1520   27.6470   46.8930 C   0  0  0  0  0  0  0  0  0  0  0  0
   60.1270   27.8430   47.8650 C   0  0  0  0  0  0  0  0  0  0  0  0
   60.3740   29.0780   48.4270 C   0  0  0  0  0  0  0  0  0  0  0  0
   59.5950   30.1390   47.9770 C   0  0  0  0  0  0  0  0  0  0  0  0
   58.6300   29.9290   47.0130 C   0  0  0  0  0  0  0  0  0  0  0  0
   58.3840   28.7010   46.4520 C   0  0  0  0  0  0  0  0  0  0  0  0
   57.4980   28.1650   45.4770 N   0  0  0  0  0  0  0  0  0  0  0  0
   56.7150   28.9190   44.5650 C   0  0  0  0  0  0  0  0  0  0  0  0
   55.6300   29.4430   45.0000 O   0  0  0  0  0  0  0  0  0  0  0  0
   57.0270   29.1670   43.1540 C   0  0  0  0  0  0  0  0  0  0  0  0
   56.7480   30.5960   42.7130 C   0  0  0  0  0  0  0  0  0  0  0  0
   57.6230   31.6170   43.3660 C   0  0  0  0  0  0  0  0  0  0  0  0
   56.9440   32.3210   44.8660 S   0  0  0  0  0  0  0  0  0  0  0  0
   58.0620   33.3330   45.7850 C   0  0  0  0  0  0  0  0  0  0  0  0
   58.2900   33.2450   47.1340 C   0  0  0  0  0  0  0  0  0  0  0  0
   59.1850   34.0460   47.8150 C   0  0  0  0  0  0  0  0  0  0  0  0
   59.8970   34.9900   47.1100 C   0  0  0  0  0  0  0  0  0  0  0  0
   59.6890   35.1080   45.7320 C   0  0  0  0  0  0  0  0  0  0  0  0
   58.7860   34.2910   45.0860 C   0  0  0  0  0  0  0  0  0  0  0  0
   54.8517   23.4941   45.3918 H   0  0  0  0  0  0  0  0  0  0  0  0
   56.1278   24.6123   44.8021 H   0  0  0  0  0  0  0  0  0  0  0  0
   56.4171   22.8395   44.8021 H   0  0  0  0  0  0  0  0  0  0  0  0
   55.8835   23.1854   47.4464 H   0  0  0  0  0  0  0  0  0  0  0  0
   57.5261   23.3544   46.7877 H   0  0  0  0  0  0  0  0  0  0  0  0
   57.4118   26.2727   44.5309 H   0  0  0  0  0  0  0  0  0  0  0  0
   58.6553   25.5698   46.9331 H   0  0  0  0  0  0  0  0  0  0  0  0
   59.5626   26.0387   45.5088 H   0  0  0  0  0  0  0  0  0  0  0  0
   60.7235   26.9809   48.1980 H   0  0  0  0  0  0  0  0  0  0  0  0
   61.1498   29.2173   49.1943 H   0  0  0  0  0  0  0  0  0  0  0  0
   59.7484   31.1469   48.3901 H   0  0  0  0  0  0  0  0  0  0  0  0
   58.0291   30.7873   46.6782 H   0  0  0  0  0  0  0  0  0  0  0  0
   58.0938   28.9542   42.9907 H   0  0  0  0  0  0  0  0  0  0  0  0
   56.3749   28.5113   42.5583 H   0  0  0  0  0  0  0  0  0  0  0  0
   56.8978   30.6574   41.6250 H   0  0  0  0  0  0  0  0  0  0  0  0
   55.7146   30.8249   43.0126 H   0  0  0  0  0  0  0  0  0  0  0  0
   58.5829   31.1401   43.6134 H   0  0  0  0  0  0  0  0  0  0  0  0
   57.7282   32.4452   42.6497 H   0  0  0  0  0  0  0  0  0  0  0  0
   57.7275   32.4930   47.7068 H   0  0  0  0  0  0  0  0  0  0  0  0
   59.3264   33.9320   48.8999 H   0  0  0  0  0  0  0  0  0  0  0  0
   60.6191   35.6421   47.6231 H   0  0  0  0  0  0  0  0  0  0  0  0
   60.2511   35.8597   45.1584 H   0  0  0  0  0  0  0  0  0  0  0  0
   58.6365   34.3990   44.0016 H   0  0  0  0  0  0  0  0  0  0  0  0
  1  2  1  0
  2  3  1  0
  3  4  1  0
  4  5  2  0
  4  6  1  0
  6  7  1  0
  7  8  1  0
  8  9  2  0
  9 10  1  0
 10 11  2  0
 11 12  1  0
 12 13  2  0
 13 14  1  0
 14 15  1  0
 15 16  2  0
 15 17  1  0
 17 18  1  0
 18 19  1  0
 19 20  1  0
 20 21  1  0
 21 22  2  0
 22 23  1  0
 23 24  2  0
 24 25  1  0
 25 26  2  0
 14  6  1  0
 26 21  1  0
 13  8  1  0
  1 27  1  0
  1 28  1  0
  1 29  1  0
  2 30  1  0
  2 31  1  0
  6 32  1  6
  7 33  1  0
  7 34  1  0
  9 35  1  0
 10 36  1  0
 11 37  1  0
 12 38  1  0
 17 39  1  0
 17 40  1  0
 18 41  1  0
 18 42  1  0
 19 43  1  0
 19 44  1  0
 22 45  1  0
 23 46  1  0
 24 47  1  0
 25 48  1  0
 26 49  1  0
M  END
>  <smiles>  (16) 
CCOC(=O)C1Cc2ccccc2N1C(=O)CCCSc1ccccc1

>  <score_type>  (16) 
oracle

>  <origin>  (16) 
adg

>  <m_score__min__energy>  (16) 
-9.1999999999999993

>  <m_primary>  (16) 
energy

$$$$
