0:0
     RDKit          3D

 58 60  0  0  0  0  0  0  0  0999 V2000
   55.6790   30.6220   52.2170 C   0  0  0  0  0  0  0  0  0  0  0  0
   57.0410   29.9310   52.1910 C   0  0  0  0  0  0  0  0  0  0  0  0
   57.9840   30.6690   51.3280 N   0  0  0  0  0  0  0  0  0  0  0  0
   57.3940   31.9520   50.9090 C   0  0  0  0  0  0  0  0  0  0  0  0
   59.3000   30.8820   51.9850 C   0  0  0  0  0  0  0  0  0  0  0  0
   60.2220   29.6900   51.7080 C   0  0  0  0  0  0  0  0  0  0  0  0
   59.6540   28.8330   50.6620 N   0  0  0  0  0  0  0  0  0  0  0  0
   60.6680   28.4550   49.6650 C   0  0  0  0  0  0  0  0  0  0  0  0
   60.7900   29.5420   48.5930 C   0  0  0  0  0  0  0  0  0  0  0  0
   59.6250   30.4330   48.5710 N   0  0  0  0  0  0  0  0  0  0  0  0
   59.0610   30.9470   47.3500 C   0  0  0  0  0  0  0  0  0  0  0  0
   58.5570   30.0420   46.3980 C   0  0  0  0  0  0  0  0  0  0  0  0
   58.4610   28.6650   46.6960 C   0  0  0  0  0  0  0  0  0  0  0  0
   58.0500   27.7540   45.7280 C   0  0  0  0  0  0  0  0  0  0  0  0
   57.7430   28.1930   44.4460 C   0  0  0  0  0  0  0  0  0  0  0  0
   57.8190   29.5490   44.1320 C   0  0  0  0  0  0  0  0  0  0  0  0
   58.1910   30.5100   45.1090 C   0  0  0  0  0  0  0  0  0  0  0  0
   58.2440   31.8590   44.8180 N   0  0  0  0  0  0  0  0  0  0  0  0
   57.6480   32.3670   43.5610 C   0  0  0  0  0  0  0  0  0  0  0  0
   58.8170   32.7420   45.7150 C   0  0  0  0  0  0  0  0  0  0  0  0
   59.1240   34.0740   45.3440 C   0  0  0  0  0  0  0  0  0  0  0  0
   59.5930   34.9900   46.2770 C   0  0  0  0  0  0  0  0  0  0  0  0
   59.7430   34.6190   47.6040 C   0  0  0  0  0  0  0  0  0  0  0  0
   59.4960   33.2970   48.0100 C   0  0  0  0  0  0  0  0  0  0  0  0
   59.5630   32.9440   49.3690 O   0  0  0  0  0  0  0  0  0  0  0  0
   60.4960   33.4750   50.3070 C   0  0  0  0  0  0  0  0  0  0  0  0
   59.1320   32.3230   47.0380 C   0  0  0  0  0  0  0  0  0  0  0  0
   55.3678   30.7799   53.2602 H   0  0  0  0  0  0  0  0  0  0  0  0
   55.7505   31.5928   51.7048 H   0  0  0  0  0  0  0  0  0  0  0  0
   54.9378   29.9909   51.7048 H   0  0  0  0  0  0  0  0  0  0  0  0
   57.4443   29.8892   53.2136 H   0  0  0  0  0  0  0  0  0  0  0  0
   56.9145   28.9150   51.7888 H   0  0  0  0  0  0  0  0  0  0  0  0
   57.1239   32.5394   51.7990 H   0  0  0  0  0  0  0  0  0  0  0  0
   58.1248   32.5126   50.3076 H   0  0  0  0  0  0  0  0  0  0  0  0
   56.4928   31.7621   50.3076 H   0  0  0  0  0  0  0  0  0  0  0  0
   59.7609   31.7990   51.5890 H   0  0  0  0  0  0  0  0  0  0  0  0
   59.1506   30.9788   53.0705 H   0  0  0  0  0  0  0  0  0  0  0  0
   61.2038   30.0608   51.3786 H   0  0  0  0  0  0  0  0  0  0  0  0
   60.3290   29.1012   52.6310 H   0  0  0  0  0  0  0  0  0  0  0  0
   58.9210   29.3950   50.1710 H   0  0  0  0  0  0  0  0  0  0  0  0
   61.6393   28.3281   50.1654 H   0  0  0  0  0  0  0  0  0  0  0  0
   60.3650   27.5123   49.1860 H   0  0  0  0  0  0  0  0  0  0  0  0
   61.6899   30.1408   48.7968 H   0  0  0  0  0  0  0  0  0  0  0  0
   60.8527   29.0446   47.6139 H   0  0  0  0  0  0  0  0  0  0  0  0
   59.1610   30.6750   49.4760 H   0  0  0  0  0  0  0  0  0  0  0  0
   58.7141   28.3084   47.7053 H   0  0  0  0  0  0  0  0  0  0  0  0
   57.9681   26.6859   45.9777 H   0  0  0  0  0  0  0  0  0  0  0  0
   57.4390   27.4682   43.6764 H   0  0  0  0  0  0  0  0  0  0  0  0
   57.5867   29.8805   43.1092 H   0  0  0  0  0  0  0  0  0  0  0  0
   56.8305   33.0638   43.7982 H   0  0  0  0  0  0  0  0  0  0  0  0
   58.4180   32.8908   42.9756 H   0  0  0  0  0  0  0  0  0  0  0  0
   57.2528   31.5237   42.9756 H   0  0  0  0  0  0  0  0  0  0  0  0
   58.9887   34.3886   44.2987 H   0  0  0  0  0  0  0  0  0  0  0  0
   59.8461   36.0130   45.9617 H   0  0  0  0  0  0  0  0  0  0  0  0
   60.0585   35.3669   48.3464 H   0  0  0  0  0  0  0  0  0  0  0  0
   60.1429   33.2740   51.3292 H   0  0  0  0  0  0  0  0  0  0  0  0
   61.4768   32.9998   50.1578 H   0  0  0  0  0  0  0  0  0  0  0  0
   60.5882   34.5609   50.1578 H   0  0  0  0  0  0  0  0  0  0  0  0
  1  2  1  0
  2  3  1  0
  3  4  1  0
  3  5  1  0
  5  6  1  0
  6  7  1  0
  7  8  1  0
  8  9  1  0
  9 10  1  0
 10 11  1  0
 11 12  2  0
 12 13  1  0
 13 14  2  0
 14 15  1  0
 15 16  2  0
 16 17  1  0
 17 18  2  0
 18 19  1  0
 18 20  1  0
 20 21  2  0
 21 22  1  0
 22 23  2  0
 23 24  1  0
 24 25  1  0
 25 26  1  0
 24 27  2  0
 27 11  1  0
 17 12  1  0
 27 20  1  0
  1 28  1  0
  1 29  1  0
  1 30  1  0
  2 31  1  0
  2 32  1  0
  4 33  1  0
  4 34  1  0
  4 35  1  0
  5 36  1  0
  5 37  1  0
  6 38  1  0
  6 39  1  0
  7 40  1  0
  8 41  1  0
  8 42  1  0
  9 43  1  0
  9 44  1  0
 10 45  1  0
 13 46  1  0
 14 47  1  0
 15 48  1  0
 16 49  1  0
 19 50  1  0
 19 51  1  0
 19 52  1  0
 21 53  1  0
 22 54  1  0
 23 55  1  0
 26 56  1  0
 26 57  1  0
 26 58  1  0
M  CHG  1  18   1
M  END
>  <UniqueID>  (1) 
1

>  <SMILES>  (1) 
CCN(C)CCNCCNc1c2ccccc2[n+](C)c2cccc(OC)c12

>  <Energy>  (1) 
82.95592908738391

>  <Genealogy>  (1) 
CCN(C)CCNCCNc1c2ccccc2[n+](C)c2cccc(OC)c12 (3D coordinates assigned)
CCN(C)CCNCCNc1c2ccccc2[n+](C)c2cccc(OC)c12 (optimized conformer: 82.95592908738391 kcal/mol)

>  <smiles>  (1) 
CCN(C)CCNCCNc1c2ccccc2[n+](C)c2cccc(OC)c12

>  <score_type>  (1) 
oracle

>  <origin>  (1) 
adg

>  <m_score__min__energy>  (1) 
-4.7699999999999996

>  <m_primary>  (1) 
energy

$$$$
1:0
     RDKit          3D

 56 59  0  0  0  0  0  0  0  0999 V2000
   56.6450   30.1400   42.6670 C   0  0  0  0  0  0  0  0  0  0  0  0
   56.3220   30.0170   44.1550 C   0  0  0  0  0  0  0  0  0  0  0  0
   56.6430   31.2140   44.8350 O   0  0  0  0  0  0  0  0  0  0  0  0
   57.3940   32.0930   44.0170 C   0  0  0  0  0  0  0  0  0  0  0  0
   58.3980   32.7960   44.8670 C   0  0  0  0  0  0  0  0  0  0  0  0
   58.5780   34.1710   44.9450 C   0  0  0  0  0  0  0  0  0  0  0  0
   59.5360   34.5480   45.8940 C   0  0  0  0  0  0  0  0  0  0  0  0
   60.0780   33.4700   46.5880 C   0  0  0  0  0  0  0  0  0  0  0  0
   61.1720   33.5190   47.5710 C   0  0  0  0  0  0  0  0  0  0  0  0
   62.4380   33.1480   47.2540 N   0  0  0  0  0  0  0  0  0  0  0  0
   63.1380   33.3420   48.3810 C   0  0  0  0  0  0  0  0  0  0  0  0
   64.4910   33.1000   48.6050 C   0  0  0  0  0  0  0  0  0  0  0  0
   64.9950   33.3560   49.8930 C   0  0  0  0  0  0  0  0  0  0  0  0
   64.1420   33.8380   50.9130 C   0  0  0  0  0  0  0  0  0  0  0  0
   62.7770   34.0680   50.6530 C   0  0  0  0  0  0  0  0  0  0  0  0
   62.3100   33.8100   49.3600 C   0  0  0  0  0  0  0  0  0  0  0  0
   61.0580   33.9280   48.8700 N   0  0  0  0  0  0  0  0  0  0  0  0
   59.8440   34.2230   49.6440 C   0  0  0  0  0  0  0  0  0  0  0  0
   59.2770   32.9490   50.2920 C   0  0  0  0  0  0  0  0  0  0  0  0
   58.6800   31.9590   49.2750 C   0  0  0  0  0  0  0  0  0  0  0  0
   58.9500   30.5390   49.6170 N   0  0  0  0  0  0  0  0  0  0  0  0
   58.9270   29.6560   48.4210 C   0  0  0  0  0  0  0  0  0  0  0  0
   60.3290   29.2090   47.9490 C   0  0  0  0  0  0  0  0  0  0  0  0
   61.3270   30.2580   48.1700 N   0  0  0  0  0  0  0  0  0  0  0  0
   61.4580   30.6120   49.5950 C   0  0  0  0  0  0  0  0  0  0  0  0
   60.1770   30.3380   50.4140 C   0  0  0  0  0  0  0  0  0  0  0  0
   59.4030   32.0500   45.9900 S   0  0  0  0  0  0  0  0  0  0  0  0
   57.6666   30.5290   42.5445 H   0  0  0  0  0  0  0  0  0  0  0  0
   56.5701   29.1504   42.1925 H   0  0  0  0  0  0  0  0  0  0  0  0
   55.9309   30.8291   42.1925 H   0  0  0  0  0  0  0  0  0  0  0  0
   55.2485   29.8094   44.2758 H   0  0  0  0  0  0  0  0  0  0  0  0
   56.9187   29.1967   44.5805 H   0  0  0  0  0  0  0  0  0  0  0  0
   57.9096   31.5192   43.2328 H   0  0  0  0  0  0  0  0  0  0  0  0
   56.7256   32.8263   43.5421 H   0  0  0  0  0  0  0  0  0  0  0  0
   58.0242   34.8907   44.3243 H   0  0  0  0  0  0  0  0  0  0  0  0
   59.8310   35.5924   46.0733 H   0  0  0  0  0  0  0  0  0  0  0  0
   62.7930   32.7960   46.3370 H   0  0  0  0  0  0  0  0  0  0  0  0
   65.1424   32.7221   47.8032 H   0  0  0  0  0  0  0  0  0  0  0  0
   66.0593   33.1802   50.1083 H   0  0  0  0  0  0  0  0  0  0  0  0
   64.5475   34.0346   51.9164 H   0  0  0  0  0  0  0  0  0  0  0  0
   62.1020   34.4375   51.4390 H   0  0  0  0  0  0  0  0  0  0  0  0
   60.0888   34.9490   50.4333 H   0  0  0  0  0  0  0  0  0  0  0  0
   59.0860   34.6346   48.9614 H   0  0  0  0  0  0  0  0  0  0  0  0
   60.0888   32.4434   50.8355 H   0  0  0  0  0  0  0  0  0  0  0  0
   58.4602   33.2604   50.9598 H   0  0  0  0  0  0  0  0  0  0  0  0
   57.5909   32.1092   49.2380 H   0  0  0  0  0  0  0  0  0  0  0  0
   59.1565   32.1589   48.3039 H   0  0  0  0  0  0  0  0  0  0  0  0
   58.3402   28.7579   48.6641 H   0  0  0  0  0  0  0  0  0  0  0  0
   58.4835   30.2392   47.6005 H   0  0  0  0  0  0  0  0  0  0  0  0
   60.6252   28.3096   48.5088 H   0  0  0  0  0  0  0  0  0  0  0  0
   60.2805   28.9991   46.8703 H   0  0  0  0  0  0  0  0  0  0  0  0
   61.0510   31.1040   47.6190 H   0  0  0  0  0  0  0  0  0  0  0  0
   62.2808   30.0232   50.0266 H   0  0  0  0  0  0  0  0  0  0  0  0
   61.6511   31.6938   49.6451 H   0  0  0  0  0  0  0  0  0  0  0  0
   60.2008   29.2978   50.7710 H   0  0  0  0  0  0  0  0  0  0  0  0
   60.1545   31.0494   51.2527 H   0  0  0  0  0  0  0  0  0  0  0  0
  1  2  1  0
  2  3  1  0
  3  4  1  0
  4  5  1  0
  5  6  2  0
  6  7  1  0
  7  8  2  0
  8  9  1  0
  9 10  2  0
 10 11  1  0
 11 12  2  0
 12 13  1  0
 13 14  2  0
 14 15  1  0
 15 16  2  0
 16 17  1  0
 17 18  1  0
 18 19  1  0
 19 20  1  0
 20 21  1  0
 21 22  1  0
 22 23  1  0
 23 24  1  0
 24 25  1  0
 25 26  1  0
  8 27  1  0
 27  5  1  0
 17  9  1  0
 26 21  1  0
 16 11  1  0
  1 28  1  0
  1 29  1  0
  1 30  1  0
  2 31  1  0
  2 32  1  0
  4 33  1  0
  4 34  1  0
  6 35  1  0
  7 36  1  0
 10 37  1  0
 12 38  1  0
 13 39  1  0
 14 40  1  0
 15 41  1  0
 18 42  1  0
 18 43  1  0
 19 44  1  0
 19 45  1  0
 20 46  1  0
 20 47  1  0
 22 48  1  0
 22 49  1  0
 23 50  1  0
 23 51  1  0
 24 52  1  0
 25 53  1  0
 25 54  1  0
 26 55  1  0
 26 56  1  0
M  CHG  1  10   1
M  END
>  <UniqueID>  (2) 
2

>  <SMILES>  (2) 
CCOCc1ccc(-c2[nH+]c3ccccc3n2CCCN2CCNCC2)s1

>  <Energy>  (2) 
132.30046881968528

>  <Genealogy>  (2) 
CCOCc1ccc(-c2[nH+]c3ccccc3n2CCCN2CCNCC2)s1 (protonated)
CCOCc1ccc(-c2[nH+]c3ccccc3n2CCCN2CCNCC2)s1 (3D coordinates assigned)
CCOCc1ccc(-c2[nH+]c3ccccc3n2CCCN2CCNCC2)s1 (nonaromatic ring conformer: 132.30046881968528 kcal/mol)

>  <smiles>  (2) 
CCOCc1ccc(-c2nc3ccccc3n2CCCN2CCNCC2)s1

>  <score_type>  (2) 
oracle

>  <origin>  (2) 
adg

>  <m_score__min__energy>  (2) 
-7.1600000000000001

>  <m_primary>  (2) 
energy

$$$$
2:0
     RDKit          3D

 57 60  0  0  0  0  0  0  0  0999 V2000
   56.6940   21.8860   42.9790 C   0  0  0  0  0  0  0  0  0  0  0  0
   56.2990   23.3550   42.8450 C   0  0  0  0  0  0  0  0  0  0  0  0
   56.4250   24.0540   44.1350 N   0  0  0  0  0  0  0  0  0  0  0  0
   57.5430   23.5440   44.9520 C   0  0  0  0  0  0  0  0  0  0  0  0
   57.2320   23.4400   46.4590 C   0  0  0  0  0  0  0  0  0  0  0  0
   56.0850   24.3570   46.9030 C   0  0  0  0  0  0  0  0  0  0  0  0
   56.0570   25.5410   46.1040 O   0  0  0  0  0  0  0  0  0  0  0  0
   56.8490   26.6820   46.3120 C   0  0  0  0  0  0  0  0  0  0  0  0
   57.8810   26.6090   47.2670 C   0  0  0  0  0  0  0  0  0  0  0  0
   58.7090   27.7120   47.5280 C   0  0  0  0  0  0  0  0  0  0  0  0
   58.5210   28.8950   46.7970 C   0  0  0  0  0  0  0  0  0  0  0  0
   57.4850   28.9680   45.8780 C   0  0  0  0  0  0  0  0  0  0  0  0
   56.6470   27.8880   45.6070 C   0  0  0  0  0  0  0  0  0  0  0  0
   57.4170   30.3120   45.3420 C   0  0  0  0  0  0  0  0  0  0  0  0
   56.5850   30.7200   44.4900 O   0  0  0  0  0  0  0  0  0  0  0  0
   58.4830   31.0830   45.9860 C   0  0  0  0  0  0  0  0  0  0  0  0
   59.1770   30.2360   46.8460 C   0  0  0  0  0  0  0  0  0  0  0  0
   60.2870   30.6700   47.5370 N   0  0  0  0  0  0  0  0  0  0  0  0
   61.1140   29.7630   48.3530 C   0  0  0  0  0  0  0  0  0  0  0  0
   60.5750   29.6810   49.7870 C   0  0  0  0  0  0  0  0  0  0  0  0
   59.1650   29.8070   49.8030 O   0  0  0  0  0  0  0  0  0  0  0  0
   58.7830   31.0330   50.3870 C   0  0  0  0  0  0  0  0  0  0  0  0
   60.6440   32.0020   47.4530 C   0  0  0  0  0  0  0  0  0  0  0  0
   61.6190   32.4360   48.1310 O   0  0  0  0  0  0  0  0  0  0  0  0
   59.9360   32.8990   46.6150 C   0  0  0  0  0  0  0  0  0  0  0  0
   60.3110   34.2550   46.5170 C   0  0  0  0  0  0  0  0  0  0  0  0
   59.6140   35.1250   45.6760 C   0  0  0  0  0  0  0  0  0  0  0  0
   59.9860   36.4260   45.5910 F   0  0  0  0  0  0  0  0  0  0  0  0
   58.5370   34.6580   44.9230 C   0  0  0  0  0  0  0  0  0  0  0  0
   58.1480   33.3200   45.0060 C   0  0  0  0  0  0  0  0  0  0  0  0
   58.8390   32.4300   45.8510 C   0  0  0  0  0  0  0  0  0  0  0  0
   56.7652   21.6212   44.0443 H   0  0  0  0  0  0  0  0  0  0  0  0
   55.9333   21.2561   42.4946 H   0  0  0  0  0  0  0  0  0  0  0  0
   57.6680   21.7226   42.4946 H   0  0  0  0  0  0  0  0  0  0  0  0
   56.9566   23.8387   42.1078 H   0  0  0  0  0  0  0  0  0  0  0  0
   55.2500   23.4079   42.5182 H   0  0  0  0  0  0  0  0  0  0  0  0
   56.6140   25.0670   43.9510 H   0  0  0  0  0  0  0  0  0  0  0  0
   55.5260   23.9940   44.6660 H   0  0  0  0  0  0  0  0  0  0  0  0
   57.8086   22.5416   44.5851 H   0  0  0  0  0  0  0  0  0  0  0  0
   58.3644   24.2684   44.8491 H   0  0  0  0  0  0  0  0  0  0  0  0
   56.9572   22.3999   46.6885 H   0  0  0  0  0  0  0  0  0  0  0  0
   58.1342   23.7579   47.0021 H   0  0  0  0  0  0  0  0  0  0  0  0
   55.1300   23.8225   46.7926 H   0  0  0  0  0  0  0  0  0  0  0  0
   56.2403   24.6395   47.9547 H   0  0  0  0  0  0  0  0  0  0  0  0
   58.0413   25.6708   47.8184 H   0  0  0  0  0  0  0  0  0  0  0  0
   59.4947   27.6499   48.2953 H   0  0  0  0  0  0  0  0  0  0  0  0
   55.8448   27.9736   44.8592 H   0  0  0  0  0  0  0  0  0  0  0  0
   61.0997   28.7590   47.9038 H   0  0  0  0  0  0  0  0  0  0  0  0
   62.1422   30.1528   48.3833 H   0  0  0  0  0  0  0  0  0  0  0  0
   60.8551   28.7105   50.2224 H   0  0  0  0  0  0  0  0  0  0  0  0
   61.0088   30.5040   50.3739 H   0  0  0  0  0  0  0  0  0  0  0  0
   58.8114   30.9418   51.4828 H   0  0  0  0  0  0  0  0  0  0  0  0
   59.4773   31.8238   50.0668 H   0  0  0  0  0  0  0  0  0  0  0  0
   57.7624   31.2894   50.0668 H   0  0  0  0  0  0  0  0  0  0  0  0
   61.1595   34.6304   47.1079 H   0  0  0  0  0  0  0  0  0  0  0  0
   57.9919   35.3469   44.2610 H   0  0  0  0  0  0  0  0  0  0  0  0
   57.2978   32.9590   44.4086 H   0  0  0  0  0  0  0  0  0  0  0  0
  1  2  1  0
  2  3  1  0
  3  4  1  0
  4  5  1  0
  5  6  1  0
  6  7  1  0
  7  8  1  0
  8  9  2  0
  9 10  1  0
 10 11  2  0
 11 12  1  0
 12 13  2  0
 12 14  1  0
 14 15  2  0
 14 16  1  0
 16 17  2  0
 17 18  1  0
 18 19  1  0
 19 20  1  0
 20 21  1  0
 21 22  1  0
 18 23  1  0
 23 24  2  0
 23 25  1  0
 25 26  2  0
 26 27  1  0
 27 28  1  0
 27 29  2  0
 29 30  1  0
 30 31  2  0
 13  8  1  0
 31 16  1  0
 17 11  1  0
 31 25  1  0
  1 32  1  0
  1 33  1  0
  1 34  1  0
  2 35  1  0
  2 36  1  0
  3 37  1  0
  3 38  1  0
  4 39  1  0
  4 40  1  0
  5 41  1  0
  5 42  1  0
  6 43  1  0
  6 44  1  0
  9 45  1  0
 10 46  1  0
 13 47  1  0
 19 48  1  0
 19 49  1  0
 20 50  1  0
 20 51  1  0
 22 52  1  0
 22 53  1  0
 22 54  1  0
 26 55  1  0
 29 56  1  0
 30 57  1  0
M  CHG  1   3   1
M  END
>  <UniqueID>  (3) 
3

>  <SMILES>  (3) 
CC[NH2+]CCCOc1ccc2c(c1)C(=O)c1c-2n(CCOC)c(=O)c2cc(F)ccc12

>  <Energy>  (3) 
104.42298120660882

>  <Genealogy>  (3) 
CC[NH2+]CCCOc1ccc2c(c1)C(=O)c1c-2n(CCOC)c(=O)c2cc(F)ccc12 (protonated)
CC[NH2+]CCCOc1ccc2c(c1)C(=O)c1c-2n(CCOC)c(=O)c2cc(F)ccc12 (3D coordinates assigned)
CC[NH2+]CCCOc1ccc2c(c1)C(=O)c1c-2n(CCOC)c(=O)c2cc(F)ccc12 (nonaromatic ring conformer: 104.42298120660882 kcal/mol)

>  <smiles>  (3) 
CCNCCCOc1ccc2c(c1)C(=O)c1c-2n(CCOC)c(=O)c2cc(F)ccc12

>  <score_type>  (3) 
oracle

>  <origin>  (3) 
adg

>  <m_score__min__energy>  (3) 
-6.96

>  <m_primary>  (3) 
energy

$$$$
3:0
     RDKit          3D

 55 57  0  0  0  0  0  0  0  0999 V2000
   63.3540   33.8480   46.3320 C   0  0  0  0  0  0  0  0  0  0  0  0
   63.4050   32.7770   47.4200 C   0  0  0  0  0  0  0  0  0  0  0  0
   63.8420   33.3640   48.7080 N   0  0  0  0  0  0  0  0  0  0  0  0
   62.6820   33.9120   49.4420 C   0  0  0  0  0  0  0  0  0  0  0  0
   64.5490   32.3510   49.5250 C   0  0  0  0  0  0  0  0  0  0  0  0
   63.6410   31.7390   50.6050 C   0  0  0  0  0  0  0  0  0  0  0  0
   62.5190   31.0900   50.0320 O   0  0  0  0  0  0  0  0  0  0  0  0
   61.5420   30.7830   51.0070 C   0  0  0  0  0  0  0  0  0  0  0  0
   60.2730   30.2420   50.3440 C   0  0  0  0  0  0  0  0  0  0  0  0
   59.8310   31.1270   49.3290 O   0  0  0  0  0  0  0  0  0  0  0  0
   60.7570   31.1700   48.3210 N   0  0  0  0  0  0  0  0  0  0  0  0
   60.0360   31.2200   47.0650 C   0  0  0  0  0  0  0  0  0  0  0  0
   59.7650   30.0340   46.3400 C   0  0  0  0  0  0  0  0  0  0  0  0
   60.3710   28.8020   46.6860 C   0  0  0  0  0  0  0  0  0  0  0  0
   60.1070   27.6450   45.9570 C   0  0  0  0  0  0  0  0  0  0  0  0
   59.2570   27.6910   44.8610 C   0  0  0  0  0  0  0  0  0  0  0  0
   58.6610   28.8930   44.4880 C   0  0  0  0  0  0  0  0  0  0  0  0
   58.8840   30.0840   45.2250 C   0  0  0  0  0  0  0  0  0  0  0  0
   58.2870   31.2760   44.8660 N   0  0  0  0  0  0  0  0  0  0  0  0
   57.1450   31.2820   43.9270 C   0  0  0  0  0  0  0  0  0  0  0  0
   58.7640   32.4650   45.3810 C   0  0  0  0  0  0  0  0  0  0  0  0
   58.4150   33.7140   44.8040 C   0  0  0  0  0  0  0  0  0  0  0  0
   58.8890   34.9110   45.3360 C   0  0  0  0  0  0  0  0  0  0  0  0
   59.7380   34.8980   46.4370 C   0  0  0  0  0  0  0  0  0  0  0  0
   60.1260   33.6890   47.0060 C   0  0  0  0  0  0  0  0  0  0  0  0
   59.6430   32.4580   46.5000 C   0  0  0  0  0  0  0  0  0  0  0  0
   63.3066   34.8429   46.7988 H   0  0  0  0  0  0  0  0  0  0  0  0
   64.2565   33.7789   45.7069 H   0  0  0  0  0  0  0  0  0  0  0  0
   62.4622   33.6934   45.7069 H   0  0  0  0  0  0  0  0  0  0  0  0
   62.4036   32.3388   47.5434 H   0  0  0  0  0  0  0  0  0  0  0  0
   64.1251   32.0011   47.1209 H   0  0  0  0  0  0  0  0  0  0  0  0
   62.8599   33.8280   50.5243 H   0  0  0  0  0  0  0  0  0  0  0  0
   62.5450   34.9700   49.1740 H   0  0  0  0  0  0  0  0  0  0  0  0
   61.7778   33.3459   49.1740 H   0  0  0  0  0  0  0  0  0  0  0  0
   64.9039   31.5471   48.8633 H   0  0  0  0  0  0  0  0  0  0  0  0
   65.3871   32.8513   50.0322 H   0  0  0  0  0  0  0  0  0  0  0  0
   64.2201   31.0060   51.1858 H   0  0  0  0  0  0  0  0  0  0  0  0
   63.2775   32.5511   51.2518 H   0  0  0  0  0  0  0  0  0  0  0  0
   61.9430   30.0236   51.6944 H   0  0  0  0  0  0  0  0  0  0  0  0
   61.2908   31.7004   51.5594 H   0  0  0  0  0  0  0  0  0  0  0  0
   60.4870   29.2587   49.8998 H   0  0  0  0  0  0  0  0  0  0  0  0
   59.4843   30.1490   51.1051 H   0  0  0  0  0  0  0  0  0  0  0  0
   61.4000   30.3450   48.3450 H   0  0  0  0  0  0  0  0  0  0  0  0
   61.3710   32.0120   48.4150 H   0  0  0  0  0  0  0  0  0  0  0  0
   61.0599   28.7581   47.5425 H   0  0  0  0  0  0  0  0  0  0  0  0
   60.5732   26.6929   46.2506 H   0  0  0  0  0  0  0  0  0  0  0  0
   59.0536   26.7759   44.2856 H   0  0  0  0  0  0  0  0  0  0  0  0
   58.0051   28.9192   43.6054 H   0  0  0  0  0  0  0  0  0  0  0  0
   56.2031   31.2869   44.4952 H   0  0  0  0  0  0  0  0  0  0  0  0
   57.1958   32.1799   43.2936 H   0  0  0  0  0  0  0  0  0  0  0  0
   57.1864   30.3836   43.2936 H   0  0  0  0  0  0  0  0  0  0  0  0
   57.7589   33.7371   43.9214 H   0  0  0  0  0  0  0  0  0  0  0  0
   58.5910   35.8686   44.8841 H   0  0  0  0  0  0  0  0  0  0  0  0
   60.1038   35.8456   46.8592 H   0  0  0  0  0  0  0  0  0  0  0  0
   60.8179   33.6896   47.8612 H   0  0  0  0  0  0  0  0  0  0  0  0
  1  2  1  0
  2  3  1  0
  3  4  1  0
  3  5  1  0
  5  6  1  0
  6  7  1  0
  7  8  1  0
  8  9  1  0
  9 10  1  0
 10 11  1  0
 11 12  1  0
 12 13  2  0
 13 14  1  0
 14 15  2  0
 15 16  1  0
 16 17  2  0
 17 18  1  0
 18 19  2  0
 19 20  1  0
 19 21  1  0
 21 22  2  0
 22 23  1  0
 23 24  2  0
 24 25  1  0
 25 26  2  0
 26 12  1  0
 18 13  1  0
 26 21  1  0
  1 27  1  0
  1 28  1  0
  1 29  1  0
  2 30  1  0
  2 31  1  0
  4 32  1  0
  4 33  1  0
  4 34  1  0
  5 35  1  0
  5 36  1  0
  6 37  1  0
  6 38  1  0
  8 39  1  0
  8 40  1  0
  9 41  1  0
  9 42  1  0
 11 43  1  0
 11 44  1  0
 14 45  1  0
 15 46  1  0
 16 47  1  0
 17 48  1  0
 20 49  1  0
 20 50  1  0
 20 51  1  0
 22 52  1  0
 23 53  1  0
 24 54  1  0
 25 55  1  0
M  CHG  2  11   1  19   1
M  END
>  <UniqueID>  (4) 
4

>  <SMILES>  (4) 
CCN(C)CCOCCO[NH2+]c1c2ccccc2[n+](C)c2ccccc12

>  <Energy>  (4) 
87.34892507053925

>  <Genealogy>  (4) 
CCN(C)CCOCCO[NH2+]c1c2ccccc2[n+](C)c2ccccc12 (protonated)
CCN(C)CCOCCO[NH2+]c1c2ccccc2[n+](C)c2ccccc12 (3D coordinates assigned)
CCN(C)CCOCCO[NH2+]c1c2ccccc2[n+](C)c2ccccc12 (optimized conformer: 87.34892507053925 kcal/mol)

>  <smiles>  (4) 
CCN(C)CCOCCONc1c2ccccc2[n+](C)c2ccccc12

>  <score_type>  (4) 
oracle

>  <origin>  (4) 
adg

>  <m_score__min__energy>  (4) 
-3.3999999999999999

>  <m_primary>  (4) 
energy

$$$$
4:0
     RDKit          3D

 45 46  0  0  0  0  0  0  0  0999 V2000
   61.1750   30.5840   47.8420 C   0  0  0  0  0  0  0  0  0  0  0  0
   60.5820   29.8800   46.6200 C   0  0  0  0  0  0  0  0  0  0  0  0
   59.5970   30.7140   45.9100 N   0  0  0  0  0  0  0  0  0  0  0  0
   58.9700   30.0370   44.7500 C   0  0  0  0  0  0  0  0  0  0  0  0
   58.1390   30.9870   43.8720 C   0  0  0  0  0  0  0  0  0  0  0  0
   56.9630   31.9800   44.8620 S   0  0  0  0  0  0  0  0  0  0  0  0
   58.2510   32.8700   45.6980 N   0  0  0  0  0  0  0  0  0  0  0  0
   57.9110   32.9880   47.1290 C   0  0  0  0  0  0  0  0  0  0  0  0
   58.8640   33.9580   47.8590 C   0  0  0  0  0  0  0  0  0  0  0  0
   59.9870   34.3240   46.9870 N   0  0  0  0  0  0  0  0  0  0  0  0
   61.3480   34.0440   47.3650 C   0  0  0  0  0  0  0  0  0  0  0  0
   62.3070   33.7630   46.3810 C   0  0  0  0  0  0  0  0  0  0  0  0
   63.6240   33.4730   46.7440 C   0  0  0  0  0  0  0  0  0  0  0  0
   63.9910   33.4440   48.0920 C   0  0  0  0  0  0  0  0  0  0  0  0
   63.0350   33.6830   49.0940 C   0  0  0  0  0  0  0  0  0  0  0  0
   63.4430   33.6850   50.5460 C   0  0  0  0  0  0  0  0  0  0  0  0
   63.4050   34.9700   51.0590 F   0  0  0  0  0  0  0  0  0  0  0  0
   62.5720   32.8870   51.2640 F   0  0  0  0  0  0  0  0  0  0  0  0
   64.7290   33.1980   50.6990 F   0  0  0  0  0  0  0  0  0  0  0  0
   61.7180   34.0050   48.7200 C   0  0  0  0  0  0  0  0  0  0  0  0
   59.6900   34.8500   45.6480 C   0  0  0  0  0  0  0  0  0  0  0  0
   58.4130   34.1990   45.0940 C   0  0  0  0  0  0  0  0  0  0  0  0
   60.7835   30.1192   48.7588 H   0  0  0  0  0  0  0  0  0  0  0  0
   62.2709   30.4909   47.8229 H   0  0  0  0  0  0  0  0  0  0  0  0
   60.8970   31.6481   47.8229 H   0  0  0  0  0  0  0  0  0  0  0  0
   61.3983   29.6307   45.9261 H   0  0  0  0  0  0  0  0  0  0  0  0
   60.0619   28.9778   46.9743 H   0  0  0  0  0  0  0  0  0  0  0  0
   58.8390   30.9470   46.5960 H   0  0  0  0  0  0  0  0  0  0  0  0
   60.0410   31.6200   45.6430 H   0  0  0  0  0  0  0  0  0  0  0  0
   59.7649   29.5947   44.1316 H   0  0  0  0  0  0  0  0  0  0  0  0
   58.2839   29.2746   45.1476 H   0  0  0  0  0  0  0  0  0  0  0  0
   58.8206   31.6681   43.3415 H   0  0  0  0  0  0  0  0  0  0  0  0
   57.5581   30.3764   43.1651 H   0  0  0  0  0  0  0  0  0  0  0  0
   56.8806   33.3618   47.2219 H   0  0  0  0  0  0  0  0  0  0  0  0
   58.0103   31.9943   47.5903 H   0  0  0  0  0  0  0  0  0  0  0  0
   58.3114   34.8669   48.1393 H   0  0  0  0  0  0  0  0  0  0  0  0
   59.2573   33.4626   48.7589 H   0  0  0  0  0  0  0  0  0  0  0  0
   62.0207   33.7711   45.3190 H   0  0  0  0  0  0  0  0  0  0  0  0
   64.3745   33.2668   45.9667 H   0  0  0  0  0  0  0  0  0  0  0  0
   65.0340   33.2329   48.3704 H   0  0  0  0  0  0  0  0  0  0  0  0
   60.9706   34.2284   49.4955 H   0  0  0  0  0  0  0  0  0  0  0  0
   59.5459   35.9388   45.7089 H   0  0  0  0  0  0  0  0  0  0  0  0
   60.5307   34.6197   44.9770 H   0  0  0  0  0  0  0  0  0  0  0  0
   57.5430   34.8249   45.3418 H   0  0  0  0  0  0  0  0  0  0  0  0
   58.4899   34.1028   44.0009 H   0  0  0  0  0  0  0  0  0  0  0  0
  1  2  1  0
  2  3  1  0
  3  4  1  0
  4  5  1  0
  5  6  1  0
  6  7  1  0
  7  8  1  0
  8  9  1  0
  9 10  1  0
 10 11  1  0
 11 12  2  0
 12 13  1  0
 13 14  2  0
 14 15  1  0
 15 16  1  0
 16 17  1  0
 16 18  1  0
 16 19  1  0
 15 20  2  0
 10 21  1  0
 21 22  1  0
 22  7  1  0
 20 11  1  0
  1 23  1  0
  1 24  1  0
  1 25  1  0
  2 26  1  0
  2 27  1  0
  3 28  1  0
  3 29  1  0
  4 30  1  0
  4 31  1  0
  5 32  1  0
  5 33  1  0
  8 34  1  0
  8 35  1  0
  9 36  1  0
  9 37  1  0
 12 38  1  0
 13 39  1  0
 14 40  1  0
 20 41  1  0
 21 42  1  0
 21 43  1  0
 22 44  1  0
 22 45  1  0
M  CHG  1   3   1
M  END
>  <UniqueID>  (5) 
5

>  <SMILES>  (5) 
CC[NH2+]CCSN1CCN(c2cccc(C(F)(F)F)c2)CC1

>  <Energy>  (5) 
47.86541122553671

>  <Genealogy>  (5) 
CC[NH2+]CCSN1CCN(c2cccc(C(F)(F)F)c2)CC1 (protonated)
CC[NH2+]CCSN1CCN(c2cccc(C(F)(F)F)c2)CC1 (3D coordinates assigned)
CC[NH2+]CCSN1CCN(c2cccc(C(F)(F)F)c2)CC1 (nonaromatic ring conformer: 47.86541122553671 kcal/mol)

>  <smiles>  (5) 
CCNCCSN1CCN(c2cccc(C(F)(F)F)c2)CC1

>  <score_type>  (5) 
oracle

>  <origin>  (5) 
adg

>  <m_score__min__energy>  (5) 
-4.2599999999999998

>  <m_primary>  (5) 
energy

$$$$
5:0
     RDKit          3D

 51 54  0  0  0  0  0  0  0  0999 V2000
   56.6460   22.5160   43.0770 C   0  0  0  0  0  0  0  0  0  0  0  0
   56.7130   24.0020   43.4240 C   0  0  0  0  0  0  0  0  0  0  0  0
   56.6190   24.2470   44.9360 C   0  0  0  0  0  0  0  0  0  0  0  0
   56.2630   25.6360   45.2380 N   0  0  0  0  0  0  0  0  0  0  0  0
   57.2140   26.6100   45.7090 C   0  0  0  0  0  0  0  0  0  0  0  0
   58.4100   26.2290   46.3500 C   0  0  0  0  0  0  0  0  0  0  0  0
   59.3160   27.1970   46.7980 C   0  0  0  0  0  0  0  0  0  0  0  0
   59.0400   28.5570   46.6120 C   0  0  0  0  0  0  0  0  0  0  0  0
   59.9250   29.5460   47.0580 C   0  0  0  0  0  0  0  0  0  0  0  0
   59.6220   30.9040   46.8750 C   0  0  0  0  0  0  0  0  0  0  0  0
   60.5390   31.9290   47.4270 C   0  0  0  0  0  0  0  0  0  0  0  0
   60.5290   32.4830   48.6980 C   0  0  0  0  0  0  0  0  0  0  0  0
   61.5670   33.3330   48.8220 N   0  0  0  0  0  0  0  0  0  0  0  0
   62.2190   33.3370   47.6700 N   0  0  0  0  0  0  0  0  0  0  0  0
   63.4470   34.0840   47.4360 C   0  0  0  0  0  0  0  0  0  0  0  0
   61.6410   32.4830   46.8070 C   0  0  0  0  0  0  0  0  0  0  0  0
   58.4240   31.2480   46.2030 C   0  0  0  0  0  0  0  0  0  0  0  0
   58.1010   32.6130   45.8930 N   0  0  0  0  0  0  0  0  0  0  0  0
   57.7680   33.5550   46.9650 C   0  0  0  0  0  0  0  0  0  0  0  0
   58.8890   34.5930   47.0740 C   0  0  0  0  0  0  0  0  0  0  0  0
   59.1240   35.2140   45.8210 O   0  0  0  0  0  0  0  0  0  0  0  0
   59.5840   34.2580   44.8800 C   0  0  0  0  0  0  0  0  0  0  0  0
   58.5100   33.1980   44.6160 C   0  0  0  0  0  0  0  0  0  0  0  0
   57.5790   30.2640   45.7870 N   0  0  0  0  0  0  0  0  0  0  0  0
   57.8470   28.9460   45.9750 C   0  0  0  0  0  0  0  0  0  0  0  0
   56.9440   27.9770   45.5290 C   0  0  0  0  0  0  0  0  0  0  0  0
   56.6193   21.9239   44.0037 H   0  0  0  0  0  0  0  0  0  0  0  0
   55.7380   22.3174   42.4887 H   0  0  0  0  0  0  0  0  0  0  0  0
   57.5325   22.2365   42.4887 H   0  0  0  0  0  0  0  0  0  0  0  0
   57.6669   24.4091   43.0574 H   0  0  0  0  0  0  0  0  0  0  0  0
   55.8564   24.5001   42.9464 H   0  0  0  0  0  0  0  0  0  0  0  0
   55.8509   23.5821   45.3580 H   0  0  0  0  0  0  0  0  0  0  0  0
   57.6045   24.0411   45.3791 H   0  0  0  0  0  0  0  0  0  0  0  0
   55.2700   25.9410   45.1200 H   0  0  0  0  0  0  0  0  0  0  0  0
   58.6331   25.1623   46.4993 H   0  0  0  0  0  0  0  0  0  0  0  0
   60.2466   26.8889   47.2971 H   0  0  0  0  0  0  0  0  0  0  0  0
   60.8630   29.2570   47.5546 H   0  0  0  0  0  0  0  0  0  0  0  0
   59.7896   32.2631   49.4821 H   0  0  0  0  0  0  0  0  0  0  0  0
   63.8986   34.3587   48.4007 H   0  0  0  0  0  0  0  0  0  0  0  0
   64.1518   33.4615   46.8653 H   0  0  0  0  0  0  0  0  0  0  0  0
   63.2182   34.9961   46.8653 H   0  0  0  0  0  0  0  0  0  0  0  0
   61.9859   32.2641   45.7857 H   0  0  0  0  0  0  0  0  0  0  0  0
   56.8183   34.0591   46.7327 H   0  0  0  0  0  0  0  0  0  0  0  0
   57.6633   33.0157   47.9180 H   0  0  0  0  0  0  0  0  0  0  0  0
   58.6003   35.3598   47.8080 H   0  0  0  0  0  0  0  0  0  0  0  0
   59.8105   34.0844   47.3937 H   0  0  0  0  0  0  0  0  0  0  0  0
   59.8274   34.7683   43.9364 H   0  0  0  0  0  0  0  0  0  0  0  0
   60.4775   33.7624   45.2873 H   0  0  0  0  0  0  0  0  0  0  0  0
   57.6416   33.6650   44.1283 H   0  0  0  0  0  0  0  0  0  0  0  0
   58.9125   32.4141   43.9576 H   0  0  0  0  0  0  0  0  0  0  0  0
   56.0130   28.2876   45.0323 H   0  0  0  0  0  0  0  0  0  0  0  0
  1  2  1  0
  2  3  1  0
  3  4  1  0
  4  5  1  0
  5  6  2  0
  6  7  1  0
  7  8  2  0
  8  9  1  0
  9 10  2  0
 10 11  1  0
 11 12  1  0
 12 13  2  0
 13 14  1  0
 14 15  1  0
 14 16  1  0
 10 17  1  0
 17 18  1  0
 18 19  1  0
 19 20  1  0
 20 21  1  0
 21 22  1  0
 22 23  1  0
 17 24  2  0
 24 25  1  0
 25 26  2  0
 26  5  1  0
 25  8  1  0
 16 11  2  0
 23 18  1  0
  1 27  1  0
  1 28  1  0
  1 29  1  0
  2 30  1  0
  2 31  1  0
  3 32  1  0
  3 33  1  0
  4 34  1  0
  6 35  1  0
  7 36  1  0
  9 37  1  0
 12 38  1  0
 15 39  1  0
 15 40  1  0
 15 41  1  0
 16 42  1  0
 19 43  1  0
 19 44  1  0
 20 45  1  0
 20 46  1  0
 22 47  1  0
 22 48  1  0
 23 49  1  0
 23 50  1  0
 26 51  1  0
M  END
>  <UniqueID>  (6) 
6

>  <SMILES>  (6) 
CCCNc1ccc2cc(-c3cnn(C)c3)c(N3CCOCC3)nc2c1

>  <Energy>  (6) 
91.36206950111304

>  <Genealogy>  (6) 
CCCNc1ccc2cc(-c3cnn(C)c3)c(N3CCOCC3)nc2c1 (3D coordinates assigned)
CCCNc1ccc2cc(-c3cnn(C)c3)c(N3CCOCC3)nc2c1 (nonaromatic ring conformer: 91.36206950111304 kcal/mol)

>  <smiles>  (6) 
CCCNc1ccc2cc(-c3cnn(C)c3)c(N3CCOCC3)nc2c1

>  <score_type>  (6) 
oracle

>  <origin>  (6) 
adg

>  <m_score__min__energy>  (6) 
-7.0599999999999996

>  <m_primary>  (6) 
energy

$$$$
6:0
     RDKit          3D

 50 52  0  0  0  0  0  0  0  0999 V2000
   59.4890   33.1710   50.0340 C   0  0  0  0  0  0  0  0  0  0  0  0
   58.5350   32.0240   50.3420 C   0  0  0  0  0  0  0  0  0  0  0  0
   58.5360   31.0590   49.2350 N   0  0  0  0  0  0  0  0  0  0  0  0
   59.5420   30.0070   49.4410 C   0  0  0  0  0  0  0  0  0  0  0  0
   59.6220   29.1000   48.2090 C   0  0  0  0  0  0  0  0  0  0  0  0
   60.5730   29.6220   47.2240 N   0  0  0  0  0  0  0  0  0  0  0  0
   60.5120   30.9900   46.7880 C   0  0  0  0  0  0  0  0  0  0  0  0
   61.4570   31.9050   47.2820 C   0  0  0  0  0  0  0  0  0  0  0  0
   62.6150   31.4510   47.9530 C   0  0  0  0  0  0  0  0  0  0  0  0
   63.5270   32.3530   48.4930 C   0  0  0  0  0  0  0  0  0  0  0  0
   63.2970   33.7190   48.3870 C   0  0  0  0  0  0  0  0  0  0  0  0
   62.1710   34.1920   47.7150 C   0  0  0  0  0  0  0  0  0  0  0  0
   61.2460   33.2970   47.1150 C   0  0  0  0  0  0  0  0  0  0  0  0
   60.1410   33.7510   46.4220 N   0  0  0  0  0  0  0  0  0  0  0  0
   60.0330   35.1820   46.0610 C   0  0  0  0  0  0  0  0  0  0  0  0
   59.1570   32.8640   46.0260 C   0  0  0  0  0  0  0  0  0  0  0  0
   57.8870   33.3180   45.6070 C   0  0  0  0  0  0  0  0  0  0  0  0
   56.9230   32.4360   45.1360 C   0  0  0  0  0  0  0  0  0  0  0  0
   57.2120   31.0750   44.9950 C   0  0  0  0  0  0  0  0  0  0  0  0
   56.2720   30.1810   44.4530 O   0  0  0  0  0  0  0  0  0  0  0  0
   56.2150   29.7890   43.0850 C   0  0  0  0  0  0  0  0  0  0  0  0
   58.4710   30.5870   45.4010 C   0  0  0  0  0  0  0  0  0  0  0  0
   58.8410   29.1700   45.0190 C   0  0  0  0  0  0  0  0  0  0  0  0
   59.3900   31.4610   46.0630 C   0  0  0  0  0  0  0  0  0  0  0  0
   59.8527   33.6083   50.9755 H   0  0  0  0  0  0  0  0  0  0  0  0
   60.3421   32.7922   49.4520 H   0  0  0  0  0  0  0  0  0  0  0  0
   58.9611   33.9408   49.4520 H   0  0  0  0  0  0  0  0  0  0  0  0
   58.8574   31.5199   51.2650 H   0  0  0  0  0  0  0  0  0  0  0  0
   57.5186   32.4244   50.4711 H   0  0  0  0  0  0  0  0  0  0  0  0
   58.7940   31.5800   48.3630 H   0  0  0  0  0  0  0  0  0  0  0  0
   60.5237   30.4723   49.6135 H   0  0  0  0  0  0  0  0  0  0  0  0
   59.2537   29.4017   50.3131 H   0  0  0  0  0  0  0  0  0  0  0  0
   59.9460   28.0968   48.5231 H   0  0  0  0  0  0  0  0  0  0  0  0
   58.6266   29.0594   47.7427 H   0  0  0  0  0  0  0  0  0  0  0  0
   61.4500   29.0810   47.0500 H   0  0  0  0  0  0  0  0  0  0  0  0
   62.7979   30.3706   48.0497 H   0  0  0  0  0  0  0  0  0  0  0  0
   64.4292   31.9847   49.0033 H   0  0  0  0  0  0  0  0  0  0  0  0
   64.0064   34.4303   48.8352 H   0  0  0  0  0  0  0  0  0  0  0  0
   61.9962   35.2760   47.6484 H   0  0  0  0  0  0  0  0  0  0  0  0
   59.9872   35.7889   46.9773 H   0  0  0  0  0  0  0  0  0  0  0  0
   60.9114   35.4780   45.4687 H   0  0  0  0  0  0  0  0  0  0  0  0
   59.1202   35.3428   45.4687 H   0  0  0  0  0  0  0  0  0  0  0  0
   57.6565   34.3925   45.6547 H   0  0  0  0  0  0  0  0  0  0  0  0
   55.9234   32.8113   44.8716 H   0  0  0  0  0  0  0  0  0  0  0  0
   56.0570   28.7023   43.0213 H   0  0  0  0  0  0  0  0  0  0  0  0
   55.3832   30.3102   42.5886 H   0  0  0  0  0  0  0  0  0  0  0  0
   57.1608   30.0517   42.5886 H   0  0  0  0  0  0  0  0  0  0  0  0
   58.9968   28.5735   45.9300 H   0  0  0  0  0  0  0  0  0  0  0  0
   58.0286   28.7264   44.4247 H   0  0  0  0  0  0  0  0  0  0  0  0
   59.7666   29.1803   44.4247 H   0  0  0  0  0  0  0  0  0  0  0  0
  1  2  1  0
  2  3  1  0
  3  4  1  0
  4  5  1  0
  5  6  1  0
  6  7  1  0
  7  8  2  0
  8  9  1  0
  9 10  2  0
 10 11  1  0
 11 12  2  0
 12 13  1  0
 13 14  2  0
 14 15  1  0
 14 16  1  0
 16 17  2  0
 17 18  1  0
 18 19  2  0
 19 20  1  0
 20 21  1  0
 19 22  1  0
 22 23  1  0
 22 24  2  0
 24  7  1  0
 13  8  1  0
 24 16  1  0
  1 25  1  0
  1 26  1  0
  1 27  1  0
  2 28  1  0
  2 29  1  0
  3 30  1  0
  4 31  1  0
  4 32  1  0
  5 33  1  0
  5 34  1  0
  6 35  1  0
  9 36  1  0
 10 37  1  0
 11 38  1  0
 12 39  1  0
 15 40  1  0
 15 41  1  0
 15 42  1  0
 17 43  1  0
 18 44  1  0
 21 45  1  0
 21 46  1  0
 21 47  1  0
 23 48  1  0
 23 49  1  0
 23 50  1  0
M  CHG  1  14   1
M  END
>  <UniqueID>  (7) 
7

>  <SMILES>  (7) 
CCNCCNc1c2ccccc2[n+](C)c2ccc(OC)c(C)c12

>  <Energy>  (7) 
82.41247977787386

>  <Genealogy>  (7) 
CCNCCNc1c2ccccc2[n+](C)c2ccc(OC)c(C)c12 (3D coordinates assigned)
CCNCCNc1c2ccccc2[n+](C)c2ccc(OC)c(C)c12 (optimized conformer: 82.41247977787386 kcal/mol)

>  <smiles>  (7) 
CCNCCNc1c2ccccc2[n+](C)c2ccc(OC)c(C)c12

>  <score_type>  (7) 
oracle

>  <origin>  (7) 
adg

>  <m_score__min__energy>  (7) 
-5.6500000000000004

>  <m_primary>  (7) 
energy

$$$$
7:0
     RDKit          3D

 49 51  0  0  0  0  0  0  0  0999 V2000
   63.0340   33.8250   46.5740 C   0  0  0  0  0  0  0  0  0  0  0  0
   63.6880   32.8600   47.5560 C   0  0  0  0  0  0  0  0  0  0  0  0
   62.6740   32.3160   48.4670 N   0  0  0  0  0  0  0  0  0  0  0  0
   62.5140   33.1470   49.6700 C   0  0  0  0  0  0  0  0  0  0  0  0
   61.2260   33.9910   49.6270 C   0  0  0  0  0  0  0  0  0  0  0  0
   60.0980   33.4520   50.5240 C   0  0  0  0  0  0  0  0  0  0  0  0
   59.1480   32.4790   49.7940 C   0  0  0  0  0  0  0  0  0  0  0  0
   59.8500   31.7280   48.7500 N   0  0  0  0  0  0  0  0  0  0  0  0
   59.3010   31.5640   47.4300 C   0  0  0  0  0  0  0  0  0  0  0  0
   59.1450   32.6780   46.5880 C   0  0  0  0  0  0  0  0  0  0  0  0
   59.6180   33.9510   46.9730 C   0  0  0  0  0  0  0  0  0  0  0  0
   59.4850   35.0460   46.1250 C   0  0  0  0  0  0  0  0  0  0  0  0
   58.8960   34.8930   44.8760 C   0  0  0  0  0  0  0  0  0  0  0  0
   58.4090   33.6480   44.4780 C   0  0  0  0  0  0  0  0  0  0  0  0
   58.4910   32.5220   45.3360 C   0  0  0  0  0  0  0  0  0  0  0  0
   57.9590   31.2970   44.9820 N   0  0  0  0  0  0  0  0  0  0  0  0
   57.0150   31.1980   43.8460 C   0  0  0  0  0  0  0  0  0  0  0  0
   58.2920   30.1660   45.7030 C   0  0  0  0  0  0  0  0  0  0  0  0
   58.0070   28.8620   45.2200 C   0  0  0  0  0  0  0  0  0  0  0  0
   58.3340   27.7290   45.9660 C   0  0  0  0  0  0  0  0  0  0  0  0
   57.9330   25.9890   45.2870 Br  0  0  0  0  0  0  0  0  0  0  0  0
   58.9730   27.8630   47.1940 C   0  0  0  0  0  0  0  0  0  0  0  0
   59.2960   29.1260   47.6790 C   0  0  0  0  0  0  0  0  0  0  0  0
   58.9570   30.2870   46.9520 C   0  0  0  0  0  0  0  0  0  0  0  0
   62.5018   34.6102   47.1309 H   0  0  0  0  0  0  0  0  0  0  0  0
   63.8076   34.2845   45.9412 H   0  0  0  0  0  0  0  0  0  0  0  0
   62.3206   33.2767   45.9412 H   0  0  0  0  0  0  0  0  0  0  0  0
   64.1591   32.0362   46.9998 H   0  0  0  0  0  0  0  0  0  0  0  0
   64.4507   33.3964   48.1395 H   0  0  0  0  0  0  0  0  0  0  0  0
   61.7590   32.3270   47.9590 H   0  0  0  0  0  0  0  0  0  0  0  0
   62.4781   32.4905   50.5519 H   0  0  0  0  0  0  0  0  0  0  0  0
   63.3688   33.8375   49.7196 H   0  0  0  0  0  0  0  0  0  0  0  0
   61.4702   35.0126   49.9536 H   0  0  0  0  0  0  0  0  0  0  0  0
   60.8555   33.9561   48.5919 H   0  0  0  0  0  0  0  0  0  0  0  0
   60.5516   32.9237   51.3755 H   0  0  0  0  0  0  0  0  0  0  0  0
   59.4962   34.3154   50.8440 H   0  0  0  0  0  0  0  0  0  0  0  0
   58.7305   31.7708   50.5248 H   0  0  0  0  0  0  0  0  0  0  0  0
   58.3487   33.0669   49.3191 H   0  0  0  0  0  0  0  0  0  0  0  0
   60.8050   31.3560   48.9510 H   0  0  0  0  0  0  0  0  0  0  0  0
   60.0973   34.0788   47.9548 H   0  0  0  0  0  0  0  0  0  0  0  0
   59.8468   36.0346   46.4440 H   0  0  0  0  0  0  0  0  0  0  0  0
   58.8135   35.7561   44.1991 H   0  0  0  0  0  0  0  0  0  0  0  0
   57.9540   33.5379   43.4826 H   0  0  0  0  0  0  0  0  0  0  0  0
   55.9897   31.0905   44.2296 H   0  0  0  0  0  0  0  0  0  0  0  0
   57.0833   32.1082   43.2321 H   0  0  0  0  0  0  0  0  0  0  0  0
   57.2706   30.3217   43.2321 H   0  0  0  0  0  0  0  0  0  0  0  0
   57.5200   28.7426   44.2409 H   0  0  0  0  0  0  0  0  0  0  0  0
   59.2235   26.9683   47.7829 H   0  0  0  0  0  0  0  0  0  0  0  0
   59.8218   29.2209   48.6405 H   0  0  0  0  0  0  0  0  0  0  0  0
  1  2  1  0
  2  3  1  0
  3  4  1  0
  4  5  1  0
  5  6  1  0
  6  7  1  0
  7  8  1  0
  8  9  1  0
  9 10  2  0
 10 11  1  0
 11 12  2  0
 12 13  1  0
 13 14  2  0
 14 15  1  0
 15 16  2  0
 16 17  1  0
 16 18  1  0
 18 19  2  0
 19 20  1  0
 20 21  1  0
 20 22  2  0
 22 23  1  0
 23 24  2  0
 24  9  1  0
 15 10  1  0
 24 18  1  0
  1 25  1  0
  1 26  1  0
  1 27  1  0
  2 28  1  0
  2 29  1  0
  3 30  1  0
  4 31  1  0
  4 32  1  0
  5 33  1  0
  5 34  1  0
  6 35  1  0
  6 36  1  0
  7 37  1  0
  7 38  1  0
  8 39  1  0
 11 40  1  0
 12 41  1  0
 13 42  1  0
 14 43  1  0
 17 44  1  0
 17 45  1  0
 17 46  1  0
 19 47  1  0
 22 48  1  0
 23 49  1  0
M  CHG  1  16   1
M  END
>  <UniqueID>  (8) 
8

>  <SMILES>  (8) 
CCNCCCCNc1c2ccccc2[n+](C)c2cc(Br)ccc12

>  <Energy>  (8) 
66.64916792147179

>  <Genealogy>  (8) 
CCNCCCCNc1c2ccccc2[n+](C)c2cc(Br)ccc12 (3D coordinates assigned)
CCNCCCCNc1c2ccccc2[n+](C)c2cc(Br)ccc12 (optimized conformer: 66.64916792147179 kcal/mol)

>  <smiles>  (8) 
CCNCCCCNc1c2ccccc2[n+](C)c2cc(Br)ccc12

>  <score_type>  (8) 
oracle

>  <origin>  (8) 
adg

>  <m_score__min__energy>  (8) 
-6.6100000000000003

>  <m_primary>  (8) 
energy

$$$$
8:0
     RDKit          3D

 32 32  0  0  0  0  0  0  0  0999 V2000
   57.9420   26.7860   46.5480 C   0  0  0  0  0  0  0  0  0  0  0  0
   57.3900   27.3270   45.2340 C   0  0  0  0  0  0  0  0  0  0  0  0
   56.2970   28.2660   45.4920 N   0  0  0  0  0  0  0  0  0  0  0  0
   56.4720   29.7120   44.5410 S   0  0  0  0  0  0  0  0  0  0  0  0
   56.8570   29.3370   43.1380 O   0  0  0  0  0  0  0  0  0  0  0  0
   55.1680   30.4590   44.4930 O   0  0  0  0  0  0  0  0  0  0  0  0
   57.7360   30.7310   45.2270 C   0  0  0  0  0  0  0  0  0  0  0  0
   58.7990   30.1420   45.9170 C   0  0  0  0  0  0  0  0  0  0  0  0
   59.8010   30.9350   46.4790 C   0  0  0  0  0  0  0  0  0  0  0  0
   59.7550   32.3380   46.3580 C   0  0  0  0  0  0  0  0  0  0  0  0
   60.7400   33.1760   46.9120 O   0  0  0  0  0  0  0  0  0  0  0  0
   61.7860   32.7770   47.8000 C   0  0  0  0  0  0  0  0  0  0  0  0
   63.1600   33.0300   47.1800 C   0  0  0  0  0  0  0  0  0  0  0  0
   63.0310   33.8640   46.0840 F   0  0  0  0  0  0  0  0  0  0  0  0
   63.7410   31.8430   46.7770 F   0  0  0  0  0  0  0  0  0  0  0  0
   63.9810   33.6360   48.1130 F   0  0  0  0  0  0  0  0  0  0  0  0
   58.6770   32.9320   45.6690 C   0  0  0  0  0  0  0  0  0  0  0  0
   58.6010   34.4270   45.5370 C   0  0  0  0  0  0  0  0  0  0  0  0
   57.6740   32.1240   45.1090 C   0  0  0  0  0  0  0  0  0  0  0  0
   57.4363   27.2816   47.3899 H   0  0  0  0  0  0  0  0  0  0  0  0
   57.7653   25.7016   46.6011 H   0  0  0  0  0  0  0  0  0  0  0  0
   59.0226   26.9845   46.6011 H   0  0  0  0  0  0  0  0  0  0  0  0
   58.1927   27.8450   44.6888 H   0  0  0  0  0  0  0  0  0  0  0  0
   57.0079   26.4884   44.6334 H   0  0  0  0  0  0  0  0  0  0  0  0
   58.8464   29.0477   46.0178 H   0  0  0  0  0  0  0  0  0  0  0  0
   60.6329   30.4609   47.0205 H   0  0  0  0  0  0  0  0  0  0  0  0
   61.7023   33.3509   48.7347 H   0  0  0  0  0  0  0  0  0  0  0  0
   61.6847   31.6997   47.9977 H   0  0  0  0  0  0  0  0  0  0  0  0
   58.5778   34.8828   46.5379 H   0  0  0  0  0  0  0  0  0  0  0  0
   59.4818   34.7919   44.9882 H   0  0  0  0  0  0  0  0  0  0  0  0
   57.6878   34.7007   44.9882 H   0  0  0  0  0  0  0  0  0  0  0  0
   56.8334   32.5896   44.5736 H   0  0  0  0  0  0  0  0  0  0  0  0
  1  2  1  0
  2  3  1  0
  3  4  1  0
  4  5  2  0
  4  6  2  0
  4  7  1  0
  7  8  2  0
  8  9  1  0
  9 10  2  0
 10 11  1  0
 11 12  1  0
 12 13  1  0
 13 14  1  0
 13 15  1  0
 13 16  1  0
 10 17  1  0
 17 18  1  0
 17 19  2  0
 19  7  1  0
  1 20  1  0
  1 21  1  0
  1 22  1  0
  2 23  1  0
  2 24  1  0
  8 25  1  0
  9 26  1  0
 12 27  1  0
 12 28  1  0
 18 29  1  0
 18 30  1  0
 18 31  1  0
 19 32  1  0
M  CHG  1   3  -1
M  END
>  <UniqueID>  (9) 
9

>  <SMILES>  (9) 
CC[N-]S(=O)(=O)c1ccc(OCC(F)(F)F)c(C)c1

>  <Energy>  (9) 
25.83744191650736

>  <Genealogy>  (9) 
CC[N-]S(=O)(=O)c1ccc(OCC(F)(F)F)c(C)c1 (protonated)
CC[N-]S(=O)(=O)c1ccc(OCC(F)(F)F)c(C)c1 (3D coordinates assigned)
CC[N-]S(=O)(=O)c1ccc(OCC(F)(F)F)c(C)c1 (optimized conformer: 25.83744191650736 kcal/mol)

>  <smiles>  (9) 
CCNS(=O)(=O)c1ccc(OCC(F)(F)F)c(C)c1

>  <score_type>  (9) 
oracle

>  <origin>  (9) 
adg

>  <m_score__min__energy>  (9) 
-7.1200000000000001

>  <m_primary>  (9) 
energy

$$$$
9:0
     RDKit          3D

 53 56  0  0  0  0  0  0  0  0999 V2000
   58.8480   29.2610   48.3780 C   0  0  0  0  0  0  0  0  0  0  0  0
   60.1650   28.6250   48.1980 N   0  0  0  0  0  0  0  0  0  0  0  0
   60.9300   28.7310   49.4520 C   0  0  0  0  0  0  0  0  0  0  0  0
   60.0200   27.2010   47.8190 C   0  0  0  0  0  0  0  0  0  0  0  0
   60.3890   26.9820   46.3430 C   0  0  0  0  0  0  0  0  0  0  0  0
   60.1150   28.1760   45.5240 N   0  0  0  0  0  0  0  0  0  0  0  0
   58.6970   28.3450   45.1490 C   0  0  0  0  0  0  0  0  0  0  0  0
   58.2490   29.7830   45.1890 C   0  0  0  0  0  0  0  0  0  0  0  0
   59.0810   30.7980   45.4980 N   0  0  0  0  0  0  0  0  0  0  0  0
   58.3100   31.8810   45.2650 C   0  0  0  0  0  0  0  0  0  0  0  0
   58.7990   33.2640   45.4080 C   0  0  0  0  0  0  0  0  0  0  0  0
   58.6230   34.2090   44.4620 N   0  0  0  0  0  0  0  0  0  0  0  0
   59.2250   35.3160   44.9370 C   0  0  0  0  0  0  0  0  0  0  0  0
   59.7570   35.0330   46.1780 C   0  0  0  0  0  0  0  0  0  0  0  0
   59.4770   33.7500   46.4760 N   0  0  0  0  0  0  0  0  0  0  0  0
   59.8320   33.0790   47.6970 C   0  0  0  0  0  0  0  0  0  0  0  0
   58.8220   32.7510   48.6100 C   0  0  0  0  0  0  0  0  0  0  0  0
   59.1490   32.1380   49.8190 C   0  0  0  0  0  0  0  0  0  0  0  0
   60.4440   31.8520   50.1120 N   0  0  0  0  0  0  0  0  0  0  0  0
   61.4550   32.1350   49.2480 C   0  0  0  0  0  0  0  0  0  0  0  0
   62.7730   31.8150   49.5930 C   0  0  0  0  0  0  0  0  0  0  0  0
   63.8160   32.0870   48.7050 C   0  0  0  0  0  0  0  0  0  0  0  0
   63.5470   32.6710   47.4640 C   0  0  0  0  0  0  0  0  0  0  0  0
   62.2350   32.9930   47.1060 C   0  0  0  0  0  0  0  0  0  0  0  0
   61.1740   32.7470   48.0010 C   0  0  0  0  0  0  0  0  0  0  0  0
   57.0740   31.5580   44.8330 N   0  0  0  0  0  0  0  0  0  0  0  0
   57.0410   30.2390   44.7990 N   0  0  0  0  0  0  0  0  0  0  0  0
   55.9160   29.4740   44.2720 C   0  0  0  0  0  0  0  0  0  0  0  0
   58.6344   29.3642   49.4521 H   0  0  0  0  0  0  0  0  0  0  0  0
   58.8538   30.2556   47.9081 H   0  0  0  0  0  0  0  0  0  0  0  0
   58.0727   28.6380   47.9081 H   0  0  0  0  0  0  0  0  0  0  0  0
   60.2458   28.6362   50.3081 H   0  0  0  0  0  0  0  0  0  0  0  0
   61.6811   27.9283   49.4923 H   0  0  0  0  0  0  0  0  0  0  0  0
   61.4345   29.7076   49.4923 H   0  0  0  0  0  0  0  0  0  0  0  0
   60.6840   26.5917   48.4497 H   0  0  0  0  0  0  0  0  0  0  0  0
   58.9706   26.9053   47.9649 H   0  0  0  0  0  0  0  0  0  0  0  0
   61.4607   26.7435   46.2762 H   0  0  0  0  0  0  0  0  0  0  0  0
   59.7735   26.1560   45.9572 H   0  0  0  0  0  0  0  0  0  0  0  0
   60.4160   29.0180   46.0670 H   0  0  0  0  0  0  0  0  0  0  0  0
   58.5555   27.9613   44.1279 H   0  0  0  0  0  0  0  0  0  0  0  0
   58.0927   27.7897   45.8814 H   0  0  0  0  0  0  0  0  0  0  0  0
   58.1340   34.1070   43.5440 H   0  0  0  0  0  0  0  0  0  0  0  0
   59.2830   36.2856   44.4208 H   0  0  0  0  0  0  0  0  0  0  0  0
   60.3146   35.7353   46.8151 H   0  0  0  0  0  0  0  0  0  0  0  0
   57.7717   32.9767   48.3736 H   0  0  0  0  0  0  0  0  0  0  0  0
   58.3556   31.8852   50.5377 H   0  0  0  0  0  0  0  0  0  0  0  0
   62.9879   31.3483   50.5656 H   0  0  0  0  0  0  0  0  0  0  0  0
   64.8515   31.8411   48.9829 H   0  0  0  0  0  0  0  0  0  0  0  0
   64.3716   32.8781   46.7660 H   0  0  0  0  0  0  0  0  0  0  0  0
   62.0295   33.4401   46.1222 H   0  0  0  0  0  0  0  0  0  0  0  0
   55.3235   29.0711   45.1066 H   0  0  0  0  0  0  0  0  0  0  0  0
   55.2831   30.1298   43.6560 H   0  0  0  0  0  0  0  0  0  0  0  0
   56.2932   28.6444   43.6560 H   0  0  0  0  0  0  0  0  0  0  0  0
  1  2  1  0
  2  3  1  0
  2  4  1  0
  4  5  1  0
  5  6  1  0
  6  7  1  0
  7  8  1  0
  8  9  2  0
  9 10  1  0
 10 11  1  0
 11 12  2  0
 12 13  1  0
 13 14  2  0
 14 15  1  0
 15 16  1  0
 16 17  2  0
 17 18  1  0
 18 19  2  0
 19 20  1  0
 20 21  2  0
 21 22  1  0
 22 23  2  0
 23 24  1  0
 24 25  2  0
 10 26  2  0
 26 27  1  0
 27 28  1  0
 27  8  1  0
 15 11  1  0
 25 16  1  0
 25 20  1  0
  1 29  1  0
  1 30  1  0
  1 31  1  0
  3 32  1  0
  3 33  1  0
  3 34  1  0
  4 35  1  0
  4 36  1  0
  5 37  1  0
  5 38  1  0
  6 39  1  0
  7 40  1  0
  7 41  1  0
 12 42  1  0
 13 43  1  0
 14 44  1  0
 17 45  1  0
 18 46  1  0
 21 47  1  0
 22 48  1  0
 23 49  1  0
 24 50  1  0
 28 51  1  0
 28 52  1  0
 28 53  1  0
M  CHG  1  12   1
M  END
>  <UniqueID>  (10) 
10

>  <SMILES>  (10) 
CN(C)CCNCc1nc(-c2[nH+]ccn2-c2ccnc3ccccc23)nn1C

>  <Energy>  (10) 
128.3309582930266

>  <Genealogy>  (10) 
CN(C)CCNCc1nc(-c2[nH+]ccn2-c2ccnc3ccccc23)nn1C (protonated)
CN(C)CCNCc1nc(-c2[nH+]ccn2-c2ccnc3ccccc23)nn1C (3D coordinates assigned)
CN(C)CCNCc1nc(-c2[nH+]ccn2-c2ccnc3ccccc23)nn1C (optimized conformer: 128.3309582930266 kcal/mol)

>  <smiles>  (10) 
CN(C)CCNCc1nc(-c2nccn2-c2ccnc3ccccc23)nn1C

>  <score_type>  (10) 
oracle

>  <origin>  (10) 
adg

>  <m_score__min__energy>  (10) 
-6.4199999999999999

>  <m_primary>  (10) 
energy

$$$$
10:0
     RDKit          3D

 75 78  0  0  0  0  0  0  0  0999 V2000
   66.6730   28.2125   51.4290 H   0  0  0  0  0  0  0  0  0  0  0  0
   65.9940   29.0590   51.6090 C   0  0  0  0  0  0  0  0  0  0  0  0
   64.6380   28.8270   51.8430 C   0  0  0  0  0  0  0  0  0  0  0  0
   64.2541   27.7963   51.8577 H   0  0  0  0  0  0  0  0  0  0  0  0
   63.7640   29.8980   52.0590 C   0  0  0  0  0  0  0  0  0  0  0  0
   62.6980   29.7034   52.2481 H   0  0  0  0  0  0  0  0  0  0  0  0
   64.2400   31.2250   52.0360 C   0  0  0  0  0  0  0  0  0  0  0  0
   63.3780   32.3350   52.2420 C   0  0  0  0  0  0  0  0  0  0  0  0
   61.9540   32.1540   52.3830 N   0  0  0  0  0  0  0  0  0  0  0  0
   61.5710   32.0150   53.3430 H   0  0  0  0  0  0  0  0  0  0  0  0
   61.0930   31.7950   51.2910 C   0  0  0  0  0  0  0  0  0  0  0  0
   60.3240   30.5880   51.4050 N   0  0  0  0  0  0  0  0  0  0  0  0
   60.4280   30.0000   52.2630 H   0  0  0  0  0  0  0  0  0  0  0  0
   59.5620   30.1210   50.3790 O   0  0  0  0  0  0  0  0  0  0  0  0
   60.1630   28.9340   49.9300 C   0  0  0  0  0  0  0  0  0  0  0  0
   59.4097   28.1335   49.8870 H   0  0  0  0  0  0  0  0  0  0  0  0
   60.9654   28.6406   50.6229 H   0  0  0  0  0  0  0  0  0  0  0  0
   60.7440   29.1620   48.5410 C   0  0  0  0  0  0  0  0  0  0  0  0
   59.9375   29.1219   47.7940 H   0  0  0  0  0  0  0  0  0  0  0  0
   61.4856   28.3806   48.3185 H   0  0  0  0  0  0  0  0  0  0  0  0
   61.3650   30.4310   48.4980 O   0  0  0  0  0  0  0  0  0  0  0  0
   61.8790   30.6930   47.2060 C   0  0  0  0  0  0  0  0  0  0  0  0
   61.0752   31.0924   46.5701 H   0  0  0  0  0  0  0  0  0  0  0  0
   62.2677   29.7565   46.7795 H   0  0  0  0  0  0  0  0  0  0  0  0
   63.0240   31.7210   47.2830 C   0  0  0  0  0  0  0  0  0  0  0  0
   63.5072   31.7916   46.2973 H   0  0  0  0  0  0  0  0  0  0  0  0
   63.7388   31.3830   48.0478 H   0  0  0  0  0  0  0  0  0  0  0  0
   62.5290   33.0600   47.6720 N   0  0  0  0  0  0  0  0  0  0  0  0
   62.4610   33.9230   46.4770 C   0  0  0  0  0  0  0  0  0  0  0  0
   62.3781   34.9747   46.7885 H   0  0  0  0  0  0  0  0  0  0  0  0
   63.3725   33.7894   45.8759 H   0  0  0  0  0  0  0  0  0  0  0  0
   61.5817   33.6483   45.8759 H   0  0  0  0  0  0  0  0  0  0  0  0
   63.3850   33.6810   48.7090 C   0  0  0  0  0  0  0  0  0  0  0  0
   62.8062   33.7943   49.6375 H   0  0  0  0  0  0  0  0  0  0  0  0
   63.7218   34.6658   48.3530 H   0  0  0  0  0  0  0  0  0  0  0  0
   64.6060   32.8060   48.9800 C   0  0  0  0  0  0  0  0  0  0  0  0
   64.7496   32.7031   50.0657 H   0  0  0  0  0  0  0  0  0  0  0  0
   64.4510   31.8121   48.5348 H   0  0  0  0  0  0  0  0  0  0  0  0
   65.4973   33.2722   48.5348 H   0  0  0  0  0  0  0  0  0  0  0  0
   60.9930   32.5470   50.2220 N   0  0  0  0  0  0  0  0  0  0  0  0
   61.3760   32.1880   49.3210 H   0  0  0  0  0  0  0  0  0  0  0  0
   60.4170   33.8980   50.2080 C   0  0  0  0  0  0  0  0  0  0  0  0
   59.7402   34.0081   51.0682 H   0  0  0  0  0  0  0  0  0  0  0  0
   61.2390   34.6268   50.2642 H   0  0  0  0  0  0  0  0  0  0  0  0
   59.6300   34.1540   48.9170 C   0  0  0  0  0  0  0  0  0  0  0  0
   58.5786   34.3518   49.1729 H   0  0  0  0  0  0  0  0  0  0  0  0
   60.0786   35.0184   48.4056 H   0  0  0  0  0  0  0  0  0  0  0  0
   59.6910   33.0040   48.0130 N   0  0  0  0  0  0  0  0  0  0  0  0
   60.5140   32.3690   48.1180 H   0  0  0  0  0  0  0  0  0  0  0  0
   59.1080   33.0970   46.7020 C   0  0  0  0  0  0  0  0  0  0  0  0
   59.0750   34.3470   46.0640 C   0  0  0  0  0  0  0  0  0  0  0  0
   59.5902   35.2044   46.5217 H   0  0  0  0  0  0  0  0  0  0  0  0
   58.3970   34.5150   44.8570 C   0  0  0  0  0  0  0  0  0  0  0  0
   58.3687   35.5043   44.3770 H   0  0  0  0  0  0  0  0  0  0  0  0
   57.7540   33.4310   44.2560 C   0  0  0  0  0  0  0  0  0  0  0  0
   57.1912   33.5768   43.3222 H   0  0  0  0  0  0  0  0  0  0  0  0
   57.8230   32.1580   44.8380 C   0  0  0  0  0  0  0  0  0  0  0  0
   57.2070   31.0600   44.2140 C   0  0  0  0  0  0  0  0  0  0  0  0
   56.6300   31.2084   43.2893 H   0  0  0  0  0  0  0  0  0  0  0  0
   57.3240   29.7830   44.7620 C   0  0  0  0  0  0  0  0  0  0  0  0
   56.8507   28.9254   44.2616 H   0  0  0  0  0  0  0  0  0  0  0  0
   58.0410   29.5910   45.9450 C   0  0  0  0  0  0  0  0  0  0  0  0
   58.1466   28.5793   46.3637 H   0  0  0  0  0  0  0  0  0  0  0  0
   58.6250   30.6800   46.5990 C   0  0  0  0  0  0  0  0  0  0  0  0
   59.1718   30.5218   47.5402 H   0  0  0  0  0  0  0  0  0  0  0  0
   58.5190   31.9770   46.0630 C   0  0  0  0  0  0  0  0  0  0  0  0
   63.9230   33.6330   52.2580 C   0  0  0  0  0  0  0  0  0  0  0  0
   63.2634   34.4970   52.4264 H   0  0  0  0  0  0  0  0  0  0  0  0
   65.2890   33.8370   52.0630 C   0  0  0  0  0  0  0  0  0  0  0  0
   65.6981   34.8578   52.0846 H   0  0  0  0  0  0  0  0  0  0  0  0
   66.1380   32.7550   51.8410 C   0  0  0  0  0  0  0  0  0  0  0  0
   67.2126   32.9257   51.6793 H   0  0  0  0  0  0  0  0  0  0  0  0
   65.6280   31.4500   51.8230 C   0  0  0  0  0  0  0  0  0  0  0  0
   66.4900   30.3640   51.6030 C   0  0  0  0  0  0  0  0  0  0  0  0
   67.5608   30.5421   51.4251 H   0  0  0  0  0  0  0  0  0  0  0  0
  1  2  1  0
  2  3  2  0
  3  4  1  0
  3  5  1  0
  5  6  1  0
  5  7  2  0
  7  8  1  0
  8  9  1  0
  9 10  1  0
  9 11  1  0
 11 12  1  0
 12 13  1  0
 12 14  1  0
 14 15  1  0
 15 16  1  0
 15 17  1  0
 15 18  1  0
 18 19  1  0
 18 20  1  0
 18 21  1  0
 21 22  1  0
 22 23  1  0
 22 24  1  0
 22 25  1  0
 25 26  1  0
 25 27  1  0
 25 28  1  0
 28 29  1  0
 29 30  1  0
 29 31  1  0
 29 32  1  0
 28 33  1  0
 33 34  1  0
 33 35  1  0
 33 36  1  0
 36 37  1  0
 36 38  1  0
 36 39  1  0
 11 40  2  0
 40 41  1  0
 40 42  1  0
 42 43  1  0
 42 44  1  0
 42 45  1  0
 45 46  1  0
 45 47  1  0
 45 48  1  0
 48 49  1  0
 48 50  1  0
 50 51  2  0
 51 52  1  0
 51 53  1  0
 53 54  1  0
 53 55  2  0
 55 56  1  0
 55 57  1  0
 57 58  2  0
 58 59  1  0
 58 60  1  0
 60 61  1  0
 60 62  2  0
 62 63  1  0
 62 64  1  0
 64 65  1  0
 64 66  2  0
  8 67  2  0
 67 68  1  0
 67 69  1  0
 69 70  1  0
 69 71  2  0
 71 72  1  0
 71 73  1  0
 73 74  2  0
 74 75  1  0
 74  2  1  0
 73  7  1  0
 66 50  1  0
 66 57  1  0
M  CHG  1  40   1
M  END
>  <UniqueID>  (11) 
11

>  <SMILES>  (11) 
CCN(C)CCOCCON/C(Nc1cccc2ccccc12)=[NH+]/CCNc1cccc2ccccc12

>  <Energy>  (11) 
91.13298192621157

>  <Genealogy>  (11) 
CCN(C)CCOCCONC(Nc1cccc2ccccc12)=[NH+]CCNc1cccc2ccccc12 (protonated)
CCN(C)CCOCCON/C(Nc1cccc2ccccc12)=[NH+]/CCNc1cccc2ccccc12 (cis-trans isomerization)
CCN(C)CCOCCON/C(Nc1cccc2ccccc12)=[NH+]/CCNc1cccc2ccccc12 (3D coordinates assigned)
CCN(C)CCOCCON/C(Nc1cccc2ccccc12)=[NH+]/CCNc1cccc2ccccc12 (optimized conformer: 91.13298192621157 kcal/mol)

>  <smiles>  (11) 
CCN(C)CCOCCONC(=NCCNc1cccc2ccccc12)Nc1cccc2ccccc12

>  <score_type>  (11) 
oracle

>  <origin>  (11) 
adg

>  <m_score__min__energy>  (11) 
-6.9900000000000002

>  <m_primary>  (11) 
energy

$$$$
11:0
     RDKit          3D

 38 39  0  0  0  0  0  0  0  0999 V2000
   57.7900   33.7180   45.6150 C   0  0  0  0  0  0  0  0  0  0  0  0
   57.5460   32.6370   44.6170 C   0  0  0  0  0  0  0  0  0  0  0  0
   57.8140   32.7170   43.2640 C   0  0  0  0  0  0  0  0  0  0  0  0
   57.4240   31.5050   42.7350 C   0  0  0  0  0  0  0  0  0  0  0  0
   56.9410   30.7690   43.8000 C   0  0  0  0  0  0  0  0  0  0  0  0
   56.4250   29.3700   43.7330 C   0  0  0  0  0  0  0  0  0  0  0  0
   56.9540   28.4660   45.2260 S   0  0  0  0  0  0  0  0  0  0  0  0
   58.5950   27.9800   44.5870 C   0  0  0  0  0  0  0  0  0  0  0  0
   59.5920   29.1400   44.7180 C   0  0  0  0  0  0  0  0  0  0  0  0
   59.1540   30.1400   45.7180 N   0  0  0  0  0  0  0  0  0  0  0  0
   60.0490   30.2280   46.8860 C   0  0  0  0  0  0  0  0  0  0  0  0
   60.1730   31.6400   47.4030 C   0  0  0  0  0  0  0  0  0  0  0  0
   59.1540   32.2050   48.1880 C   0  0  0  0  0  0  0  0  0  0  0  0
   59.2580   33.5250   48.6360 C   0  0  0  0  0  0  0  0  0  0  0  0
   60.3790   34.2900   48.3030 C   0  0  0  0  0  0  0  0  0  0  0  0
   61.3980   33.7370   47.5220 C   0  0  0  0  0  0  0  0  0  0  0  0
   61.2960   32.4170   47.0710 C   0  0  0  0  0  0  0  0  0  0  0  0
   57.0280   31.4660   44.9090 O   0  0  0  0  0  0  0  0  0  0  0  0
   57.6972   33.3068   46.6310 H   0  0  0  0  0  0  0  0  0  0  0  0
   58.8025   34.1245   45.4751 H   0  0  0  0  0  0  0  0  0  0  0  0
   57.0503   34.5200   45.4751 H   0  0  0  0  0  0  0  0  0  0  0  0
   58.2481   33.5700   42.7218 H   0  0  0  0  0  0  0  0  0  0  0  0
   57.4848   31.1893   41.6830 H   0  0  0  0  0  0  0  0  0  0  0  0
   55.3263   29.3848   43.6814 H   0  0  0  0  0  0  0  0  0  0  0  0
   56.8232   28.8709   42.8373 H   0  0  0  0  0  0  0  0  0  0  0  0
   58.9657   27.1183   45.1614 H   0  0  0  0  0  0  0  0  0  0  0  0
   58.4970   27.7154   43.5238 H   0  0  0  0  0  0  0  0  0  0  0  0
   60.5681   28.7359   45.0244 H   0  0  0  0  0  0  0  0  0  0  0  0
   59.6570   29.6429   43.7418 H   0  0  0  0  0  0  0  0  0  0  0  0
   58.1700   29.9620   46.0330 H   0  0  0  0  0  0  0  0  0  0  0  0
   59.1540   31.0810   45.2590 H   0  0  0  0  0  0  0  0  0  0  0  0
   59.6484   29.5908   47.6882 H   0  0  0  0  0  0  0  0  0  0  0  0
   61.0488   29.8941   46.5716 H   0  0  0  0  0  0  0  0  0  0  0  0
   58.2700   31.6057   48.4514 H   0  0  0  0  0  0  0  0  0  0  0  0
   58.4572   33.9617   49.2508 H   0  0  0  0  0  0  0  0  0  0  0  0
   60.4597   35.3287   48.6559 H   0  0  0  0  0  0  0  0  0  0  0  0
   62.2804   34.3402   47.2620 H   0  0  0  0  0  0  0  0  0  0  0  0
   62.0979   31.9853   46.4540 H   0  0  0  0  0  0  0  0  0  0  0  0
  1  2  1  0
  2  3  2  0
  3  4  1  0
  4  5  2  0
  5  6  1  0
  6  7  1  0
  7  8  1  0
  8  9  1  0
  9 10  1  0
 10 11  1  0
 11 12  1  0
 12 13  2  0
 13 14  1  0
 14 15  2  0
 15 16  1  0
 16 17  2  0
  5 18  1  0
 18  2  1  0
 17 12  1  0
  1 19  1  0
  1 20  1  0
  1 21  1  0
  3 22  1  0
  4 23  1  0
  6 24  1  0
  6 25  1  0
  8 26  1  0
  8 27  1  0
  9 28  1  0
  9 29  1  0
 10 30  1  0
 10 31  1  0
 11 32  1  0
 11 33  1  0
 13 34  1  0
 14 35  1  0
 15 36  1  0
 16 37  1  0
 17 38  1  0
M  CHG  1  10   1
M  END
>  <UniqueID>  (12) 
12

>  <SMILES>  (12) 
Cc1ccc(CSCC[NH2+]Cc2ccccc2)o1

>  <Energy>  (12) 
57.747012183674144

>  <Genealogy>  (12) 
Cc1ccc(CSCC[NH2+]Cc2ccccc2)o1 (protonated)
Cc1ccc(CSCC[NH2+]Cc2ccccc2)o1 (3D coordinates assigned)
Cc1ccc(CSCC[NH2+]Cc2ccccc2)o1 (optimized conformer: 57.747012183674144 kcal/mol)

>  <smiles>  (12) 
Cc1ccc(CSCCNCc2ccccc2)o1

>  <score_type>  (12) 
oracle

>  <origin>  (12) 
adg

>  <m_score__min__energy>  (12) 
-4.2800000000000002

>  <m_primary>  (12) 
energy

$$$$
12:0
     RDKit          3D

 42 44  0  0  0  0  0  0  0  0999 V2000
   57.4390   30.7470   45.7750 H   0  0  0  0  0  0  0  0  0  0  0  0
   57.7950   31.6990   46.0050 N   0  0  0  0  0  0  0  0  0  0  0  0
   58.9900   31.9600   46.4490 C   0  0  0  0  0  0  0  0  0  0  0  0
   59.9010   30.9260   46.7730 C   0  0  0  0  0  0  0  0  0  0  0  0
   59.5250   29.4930   46.7650 C   0  0  0  0  0  0  0  0  0  0  0  0
   58.3100   29.1190   46.2800 N   0  0  0  0  0  0  0  0  0  0  0  0
   57.9170   27.8180   46.2790 C   0  0  0  0  0  0  0  0  0  0  0  0
   56.6630   27.4580   45.7610 C   0  0  0  0  0  0  0  0  0  0  0  0
   55.8280   28.4640   45.2480 O   0  0  0  0  0  0  0  0  0  0  0  0
   56.1810   29.3400   44.1830 C   0  0  0  0  0  0  0  0  0  0  0  0
   56.5619   30.2853   44.5968 H   0  0  0  0  0  0  0  0  0  0  0  0
   56.9600   28.8701   43.5646 H   0  0  0  0  0  0  0  0  0  0  0  0
   55.2939   29.5415   43.5646 H   0  0  0  0  0  0  0  0  0  0  0  0
   56.2810   26.1000   45.7720 C   0  0  0  0  0  0  0  0  0  0  0  0
   55.3014   25.8045   45.3683 H   0  0  0  0  0  0  0  0  0  0  0  0
   57.1400   25.1270   46.2930 C   0  0  0  0  0  0  0  0  0  0  0  0
   56.8309   24.0714   46.3013 H   0  0  0  0  0  0  0  0  0  0  0  0
   58.3890   25.4900   46.8030 C   0  0  0  0  0  0  0  0  0  0  0  0
   59.0641   24.7208   47.2063 H   0  0  0  0  0  0  0  0  0  0  0  0
   58.7800   26.8340   46.8000 C   0  0  0  0  0  0  0  0  0  0  0  0
   60.0190   27.2380   47.3050 C   0  0  0  0  0  0  0  0  0  0  0  0
   60.7136   26.4922   47.7188 H   0  0  0  0  0  0  0  0  0  0  0  0
   60.3660   28.5520   47.2850 N   0  0  0  0  0  0  0  0  0  0  0  0
   61.3000   28.8320   47.6630 H   0  0  0  0  0  0  0  0  0  0  0  0
   61.2000   31.2730   47.1610 C   0  0  0  0  0  0  0  0  0  0  0  0
   61.9321   30.4864   47.3961 H   0  0  0  0  0  0  0  0  0  0  0  0
   61.5680   32.6200   47.2500 C   0  0  0  0  0  0  0  0  0  0  0  0
   62.8940   33.0280   47.6600 N   0  0  0  0  0  0  0  0  0  0  0  0
   63.4480   32.6300   48.9610 C   0  0  0  0  0  0  0  0  0  0  0  0
   62.8403   33.0666   49.7673 H   0  0  0  0  0  0  0  0  0  0  0  0
   63.4352   31.5333   49.0449 H   0  0  0  0  0  0  0  0  0  0  0  0
   64.4833   32.9921   49.0449 H   0  0  0  0  0  0  0  0  0  0  0  0
   63.7080   33.8290   46.7380 C   0  0  0  0  0  0  0  0  0  0  0  0
   64.3757   34.4860   47.3146 H   0  0  0  0  0  0  0  0  0  0  0  0
   64.3091   33.1605   46.1042 H   0  0  0  0  0  0  0  0  0  0  0  0
   63.0492   34.4408   46.1042 H   0  0  0  0  0  0  0  0  0  0  0  0
   60.6360   33.5660   46.9560 N   0  0  0  0  0  0  0  0  0  0  0  0
   59.3940   33.2670   46.5710 N   0  0  0  0  0  0  0  0  0  0  0  0
   58.4840   34.3710   46.2630 C   0  0  0  0  0  0  0  0  0  0  0  0
   58.1172   34.8160   47.1997 H   0  0  0  0  0  0  0  0  0  0  0  0
   59.0185   35.1347   45.6789 H   0  0  0  0  0  0  0  0  0  0  0  0
   57.6324   33.9921   45.6789 H   0  0  0  0  0  0  0  0  0  0  0  0
  1  2  1  0
  2  3  2  0
  3  4  1  0
  4  5  1  0
  5  6  2  0
  6  7  1  0
  7  8  2  0
  8  9  1  0
  9 10  1  0
 10 11  1  0
 10 12  1  0
 10 13  1  0
  8 14  1  0
 14 15  1  0
 14 16  2  0
 16 17  1  0
 16 18  1  0
 18 19  1  0
 18 20  2  0
 20 21  1  0
 21 22  1  0
 21 23  2  0
 23 24  1  0
  4 25  2  0
 25 26  1  0
 25 27  1  0
 27 28  1  0
 28 29  1  0
 29 30  1  0
 29 31  1  0
 29 32  1  0
 28 33  1  0
 33 34  1  0
 33 35  1  0
 33 36  1  0
 27 37  2  0
 37 38  1  0
 38 39  1  0
 39 40  1  0
 39 41  1  0
 39 42  1  0
 38  3  1  0
 23  5  1  0
 20  7  1  0
M  CHG  1  23   1
M  END
>  <UniqueID>  (13) 
13

>  <SMILES>  (13) 
[H]/N=c1\c(-c2nc3c(OC)cccc3c[nH+]2)cc(N(C)C)nn1C

>  <Energy>  (13) 
55.198484198049876

>  <Genealogy>  (13) 
COc1cccc2c[nH+]c(-c3cc(N(C)C)nn(C)c3=N)nc12 (protonated)
[H]/N=c1\c(-c2nc3c(OC)cccc3c[nH+]2)cc(N(C)C)nn1C (cis-trans isomerization)
[H]/N=c1\c(-c2nc3c(OC)cccc3c[nH+]2)cc(N(C)C)nn1C (3D coordinates assigned)
[H]/N=c1\c(-c2nc3c(OC)cccc3c[nH+]2)cc(N(C)C)nn1C (optimized conformer: 55.198484198049876 kcal/mol)

>  <smiles>  (13) 
COc1cccc2cnc(-c3cc(N(C)C)nn(C)c3=N)nc12

>  <score_type>  (13) 
oracle

>  <origin>  (13) 
adg

>  <m_score__min__energy>  (13) 
-5.6600000000000001

>  <m_primary>  (13) 
energy

$$$$
13:0
     RDKit          3D

 52 54  0  0  0  0  0  0  0  0999 V2000
   61.3441   29.2858   47.6782 H   0  0  0  0  0  0  0  0  0  0  0  0
   61.2670   30.3640   47.8820 C   0  0  0  0  0  0  0  0  0  0  0  0
   62.1860   31.1740   47.3270 C   0  0  0  0  0  0  0  0  0  0  0  0
   62.0573   31.4575   46.2720 H   0  0  0  0  0  0  0  0  0  0  0  0
   63.3870   31.7180   48.0700 C   0  0  0  0  0  0  0  0  0  0  0  0
   64.0674   30.8856   48.3027 H   0  0  0  0  0  0  0  0  0  0  0  0
   63.0263   32.2058   48.9876 H   0  0  0  0  0  0  0  0  0  0  0  0
   64.1190   32.7240   47.2770 N   0  0  0  0  0  0  0  0  0  0  0  0
   64.5070   32.2610   46.4200 H   0  0  0  0  0  0  0  0  0  0  0  0
   64.9390   33.0680   47.8310 H   0  0  0  0  0  0  0  0  0  0  0  0
   63.2830   33.8750   46.8870 C   0  0  0  0  0  0  0  0  0  0  0  0
   62.7769   33.6395   45.9391 H   0  0  0  0  0  0  0  0  0  0  0  0
   63.9418   34.7499   46.7842 H   0  0  0  0  0  0  0  0  0  0  0  0
   62.2230   34.2080   47.9420 C   0  0  0  0  0  0  0  0  0  0  0  0
   62.6506   34.0737   48.9465 H   0  0  0  0  0  0  0  0  0  0  0  0
   61.8979   35.2516   47.8184 H   0  0  0  0  0  0  0  0  0  0  0  0
   61.3595   33.5378   47.8184 H   0  0  0  0  0  0  0  0  0  0  0  0
   60.1390   30.8330   48.7640 C   0  0  0  0  0  0  0  0  0  0  0  0
   60.1817   30.2983   49.7244 H   0  0  0  0  0  0  0  0  0  0  0  0
   60.2404   31.9152   48.9331 H   0  0  0  0  0  0  0  0  0  0  0  0
   58.8540   30.5680   48.1200 N   0  0  0  0  0  0  0  0  0  0  0  0
   58.0980   30.1030   48.6730 H   0  0  0  0  0  0  0  0  0  0  0  0
   58.7120   30.6700   46.6970 C   0  0  0  0  0  0  0  0  0  0  0  0
   58.7190   31.9430   46.1010 C   0  0  0  0  0  0  0  0  0  0  0  0
   59.1230   33.0840   46.8290 C   0  0  0  0  0  0  0  0  0  0  0  0
   59.4150   32.9802   47.8845 H   0  0  0  0  0  0  0  0  0  0  0  0
   59.1560   34.3390   46.2260 C   0  0  0  0  0  0  0  0  0  0  0  0
   59.4663   35.2200   46.8070 H   0  0  0  0  0  0  0  0  0  0  0  0
   58.7970   34.4790   44.8900 C   0  0  0  0  0  0  0  0  0  0  0  0
   58.8484   35.4666   44.4083 H   0  0  0  0  0  0  0  0  0  0  0  0
   58.3720   33.3700   44.1600 C   0  0  0  0  0  0  0  0  0  0  0  0
   58.0965   33.4919   43.1021 H   0  0  0  0  0  0  0  0  0  0  0  0
   58.2890   32.0870   44.7590 C   0  0  0  0  0  0  0  0  0  0  0  0
   57.7920   30.9970   44.0770 N   0  0  0  0  0  0  0  0  0  0  0  0
   57.0180   31.1990   42.8310 C   0  0  0  0  0  0  0  0  0  0  0  0
   55.9819   31.4694   43.0827 H   0  0  0  0  0  0  0  0  0  0  0  0
   57.4754   32.0079   42.2423 H   0  0  0  0  0  0  0  0  0  0  0  0
   57.0217   30.2698   42.2423 H   0  0  0  0  0  0  0  0  0  0  0  0
   57.9980   29.7200   44.5650 C   0  0  0  0  0  0  0  0  0  0  0  0
   57.7620   28.5820   43.7560 C   0  0  0  0  0  0  0  0  0  0  0  0
   57.4317   28.7194   42.7158 H   0  0  0  0  0  0  0  0  0  0  0  0
   57.9390   27.2970   44.2490 C   0  0  0  0  0  0  0  0  0  0  0  0
   57.7132   26.4294   43.6115 H   0  0  0  0  0  0  0  0  0  0  0  0
   58.3990   27.1030   45.5410 C   0  0  0  0  0  0  0  0  0  0  0  0
   58.5304   26.0798   45.9228 H   0  0  0  0  0  0  0  0  0  0  0  0
   58.6980   28.1900   46.3650 C   0  0  0  0  0  0  0  0  0  0  0  0
   59.4750   27.7750   47.9400 S   0  0  0  0  0  0  0  0  0  0  0  0
   60.7430   26.7170   47.1760 C   0  0  0  0  0  0  0  0  0  0  0  0
   61.3329   26.2248   47.9633 H   0  0  0  0  0  0  0  0  0  0  0  0
   60.2559   25.9537   46.5514 H   0  0  0  0  0  0  0  0  0  0  0  0
   61.4067   27.3329   46.5514 H   0  0  0  0  0  0  0  0  0  0  0  0
   58.4710   29.5240   45.9000 C   0  0  0  0  0  0  0  0  0  0  0  0
  1  2  1  0
  2  3  2  0
  3  4  1  0
  3  5  1  0
  5  6  1  0
  5  7  1  0
  5  8  1  0
  8  9  1  0
  8 10  1  0
  8 11  1  0
 11 12  1  0
 11 13  1  0
 11 14  1  0
 14 15  1  0
 14 16  1  0
 14 17  1  0
  2 18  1  0
 18 19  1  0
 18 20  1  0
 18 21  1  0
 21 22  1  0
 21 23  1  0
 23 24  2  0
 24 25  1  0
 25 26  1  0
 25 27  2  0
 27 28  1  0
 27 29  1  0
 29 30  1  0
 29 31  2  0
 31 32  1  0
 31 33  1  0
 33 34  2  0
 34 35  1  0
 35 36  1  0
 35 37  1  0
 35 38  1  0
 34 39  1  0
 39 40  2  0
 40 41  1  0
 40 42  1  0
 42 43  1  0
 42 44  2  0
 44 45  1  0
 44 46  1  0
 46 47  1  0
 47 48  1  0
 48 49  1  0
 48 50  1  0
 48 51  1  0
 46 52  2  0
 52 23  1  0
 33 24  1  0
 52 39  1  0
M  CHG  2   8   1  34   1
M  END
>  <UniqueID>  (14) 
14

>  <SMILES>  (14) 
CC[NH2+]C/C=C\CNc1c2ccccc2[n+](C)c2cccc(SC)c12

>  <Energy>  (14) 
77.39454068426453

>  <Genealogy>  (14) 
CC[NH2+]CC=CCNc1c2ccccc2[n+](C)c2cccc(SC)c12 (protonated)
CC[NH2+]C/C=C\CNc1c2ccccc2[n+](C)c2cccc(SC)c12 (cis-trans isomerization)
CC[NH2+]C/C=C\CNc1c2ccccc2[n+](C)c2cccc(SC)c12 (3D coordinates assigned)
CC[NH2+]C/C=C\CNc1c2ccccc2[n+](C)c2cccc(SC)c12 (optimized conformer: 77.39454068426453 kcal/mol)

>  <smiles>  (14) 
CCNCC=CCNc1c2ccccc2[n+](C)c2cccc(SC)c12

>  <score_type>  (14) 
oracle

>  <origin>  (14) 
adg

>  <m_score__min__energy>  (14) 
-4.7000000000000002

>  <m_primary>  (14) 
energy

$$$$
14:0
     RDKit          3D

 66 68  0  0  0  0  0  0  0  0999 V2000
   56.9750   34.3940   45.2710 C   0  0  0  0  0  0  0  0  0  0  0  0
   58.4860   34.1320   45.4490 C   0  0  0  0  0  0  0  0  0  0  0  0
   58.8860   32.8790   44.6370 C   0  0  0  0  0  0  0  0  0  0  0  0
   59.2500   35.3380   44.8510 C   0  0  0  0  0  0  0  0  0  0  0  0
   58.7900   33.9040   46.9430 C   0  0  0  0  0  0  0  0  0  0  0  0
   59.7140   34.6960   47.6650 C   0  0  0  0  0  0  0  0  0  0  0  0
   59.9670   34.4530   49.0180 C   0  0  0  0  0  0  0  0  0  0  0  0
   59.3170   33.4050   49.6880 C   0  0  0  0  0  0  0  0  0  0  0  0
   59.5640   33.0900   51.0330 O   0  0  0  0  0  0  0  0  0  0  0  0
   60.6310   32.2730   51.5200 C   0  0  0  0  0  0  0  0  0  0  0  0
   61.9720   32.6860   50.8930 C   0  0  0  0  0  0  0  0  0  0  0  0
   62.5640   31.5650   50.1300 N   0  0  0  0  0  0  0  0  0  0  0  0
   62.6130   31.8630   48.6390 C   0  0  0  0  0  0  0  0  0  0  0  0
   61.2830   31.4320   47.8840 C   0  0  1  0  0  0  0  0  0  0  0  0
   61.4130   30.3430   46.7340 C   0  0  0  0  0  0  0  0  0  0  0  0
   60.6010   29.0790   47.0120 N   0  0  0  0  0  0  0  0  0  0  0  0
   59.2070   29.2430   46.5210 C   0  0  0  0  0  0  0  0  0  0  0  0
   59.0960   29.0040   45.0020 C   0  0  0  0  0  0  0  0  0  0  0  0
   57.7080   28.4720   44.6290 C   0  0  0  0  0  0  0  0  0  0  0  0
   56.5450   29.8090   44.3960 S   0  0  0  0  0  0  0  0  0  0  0  0
   56.4660   30.2710   42.6790 C   0  0  0  0  0  0  0  0  0  0  0  0
   56.9630   30.9980   45.2140 O   0  0  0  0  0  0  0  0  0  0  0  0
   55.1820   29.3600   44.8450 O   0  0  0  0  0  0  0  0  0  0  0  0
   60.6190   28.6090   48.4610 C   0  0  0  0  0  0  0  0  0  0  0  0
   61.1490   29.7480   49.3090 C   0  0  2  0  0  0  0  0  0  0  0  0
   61.9300   30.2410   50.5120 C   0  0  0  0  0  0  0  0  0  0  0  0
   60.4520   30.8820   48.8480 O   0  0  0  0  0  0  0  0  0  0  0  0
   58.3720   32.6440   48.9970 C   0  0  0  0  0  0  0  0  0  0  0  0
   58.1090   32.8880   47.6480 C   0  0  0  0  0  0  0  0  0  0  0  0
   56.4983   34.4767   46.2589 H   0  0  0  0  0  0  0  0  0  0  0  0
   56.8285   35.3310   44.7136 H   0  0  0  0  0  0  0  0  0  0  0  0
   56.5216   33.5611   44.7136 H   0  0  0  0  0  0  0  0  0  0  0  0
   59.1466   32.0628   45.3269 H   0  0  0  0  0  0  0  0  0  0  0  0
   58.0424   32.5681   44.0032 H   0  0  0  0  0  0  0  0  0  0  0  0
   59.7537   33.1144   44.0032 H   0  0  0  0  0  0  0  0  0  0  0  0
   59.6454   35.9622   45.6659 H   0  0  0  0  0  0  0  0  0  0  0  0
   60.0825   34.9738   44.2311 H   0  0  0  0  0  0  0  0  0  0  0  0
   58.5651   35.9351   44.2311 H   0  0  0  0  0  0  0  0  0  0  0  0
   60.2410   35.5151   47.1538 H   0  0  0  0  0  0  0  0  0  0  0  0
   60.6814   35.0883   49.5621 H   0  0  0  0  0  0  0  0  0  0  0  0
   60.6966   32.3808   52.6127 H   0  0  0  0  0  0  0  0  0  0  0  0
   60.4241   31.2276   51.2474 H   0  0  0  0  0  0  0  0  0  0  0  0
   61.8061   33.5359   50.2146 H   0  0  0  0  0  0  0  0  0  0  0  0
   62.6654   32.9683   51.6989 H   0  0  0  0  0  0  0  0  0  0  0  0
   62.7616   32.9441   48.5008 H   0  0  0  0  0  0  0  0  0  0  0  0
   63.4421   31.2806   48.2106 H   0  0  0  0  0  0  0  0  0  0  0  0
   60.9241   32.3427   47.3821 H   0  0  0  0  0  0  0  0  0  0  0  0
   61.0600   30.7857   45.7909 H   0  0  0  0  0  0  0  0  0  0  0  0
   62.4713   30.0480   46.6793 H   0  0  0  0  0  0  0  0  0  0  0  0
   61.0470   28.3260   46.4360 H   0  0  0  0  0  0  0  0  0  0  0  0
   58.5602   28.5217   47.0419 H   0  0  0  0  0  0  0  0  0  0  0  0
   58.8953   30.2780   46.7250 H   0  0  0  0  0  0  0  0  0  0  0  0
   59.2708   29.9535   44.4749 H   0  0  0  0  0  0  0  0  0  0  0  0
   59.8479   28.2563   44.7093 H   0  0  0  0  0  0  0  0  0  0  0  0
   57.7837   27.8954   43.6953 H   0  0  0  0  0  0  0  0  0  0  0  0
   57.3468   27.8350   45.4498 H   0  0  0  0  0  0  0  0  0  0  0  0
   56.2811   31.3523   42.5984 H   0  0  0  0  0  0  0  0  0  0  0  0
   57.4193   30.0245   42.1887 H   0  0  0  0  0  0  0  0  0  0  0  0
   55.6487   29.7217   42.1887 H   0  0  0  0  0  0  0  0  0  0  0  0
   59.6004   28.3456   48.7820 H   0  0  0  0  0  0  0  0  0  0  0  0
   61.2567   27.7193   48.5693 H   0  0  0  0  0  0  0  0  0  0  0  0
   61.8589   28.9323   49.5105 H   0  0  0  0  0  0  0  0  0  0  0  0
   61.2533   30.3813   51.3678 H   0  0  0  0  0  0  0  0  0  0  0  0
   62.7002   29.5107   50.8008 H   0  0  0  0  0  0  0  0  0  0  0  0
   57.8290   31.8438   49.5212 H   0  0  0  0  0  0  0  0  0  0  0  0
   57.3579   32.2779   47.1250 H   0  0  0  0  0  0  0  0  0  0  0  0
  1  2  1  0
  2  3  1  0
  2  4  1  0
  2  5  1  0
  5  6  2  0
  6  7  1  0
  7  8  2  0
  8  9  1  0
  9 10  1  0
 10 11  1  0
 11 12  1  0
 12 13  1  0
 13 14  1  0
 14 15  1  0
 15 16  1  0
 16 17  1  0
 17 18  1  0
 18 19  1  0
 19 20  1  0
 20 21  1  0
 20 22  2  0
 20 23  2  0
 16 24  1  0
 24 25  1  0
 25 26  1  0
 25 27  1  0
  8 28  1  0
 28 29  2  0
 29  5  1  0
 26 12  1  0
 27 14  1  0
  1 30  1  0
  1 31  1  0
  1 32  1  0
  3 33  1  0
  3 34  1  0
  3 35  1  0
  4 36  1  0
  4 37  1  0
  4 38  1  0
  6 39  1  0
  7 40  1  0
 10 41  1  0
 10 42  1  0
 11 43  1  0
 11 44  1  0
 13 45  1  0
 13 46  1  0
 14 47  1  6
 15 48  1  0
 15 49  1  0
 16 50  1  0
 17 51  1  0
 17 52  1  0
 18 53  1  0
 18 54  1  0
 19 55  1  0
 19 56  1  0
 21 57  1  0
 21 58  1  0
 21 59  1  0
 24 60  1  0
 24 61  1  0
 25 62  1  6
 26 63  1  0
 26 64  1  0
 28 65  1  0
 29 66  1  0
M  CHG  1  16   1
M  END
>  <UniqueID>  (15) 
15

>  <SMILES>  (15) 
CC(C)(C)c1ccc(OCCN2C[C@H]3C[NH+](CCCS(C)(=O)=O)C[C@H](C2)O3)cc1

>  <Energy>  (15) 
174.86562768286123

>  <Genealogy>  (15) 
CC(C)(C)c1ccc(OCCN2CC3C[NH+](CCCS(C)(=O)=O)CC(C2)O3)cc1 (protonated)
CC(C)(C)c1ccc(OCCN2C[C@H]3C[NH+](CCCS(C)(=O)=O)C[C@H](C2)O3)cc1 (chirality)
CC(C)(C)c1ccc(OCCN2C[C@H]3C[NH+](CCCS(C)(=O)=O)C[C@H](C2)O3)cc1 (3D coordinates assigned)
CC(C)(C)c1ccc(OCCN2C[C@H]3C[NH+](CCCS(C)(=O)=O)C[C@H](C2)O3)cc1 (nonaromatic ring conformer: 174.86562768286123 kcal/mol)

>  <smiles>  (15) 
CC(C)(C)c1ccc(OCCN2CC3CN(CCCS(C)(=O)=O)CC(C2)O3)cc1

>  <score_type>  (15) 
oracle

>  <origin>  (15) 
adg

>  <m_score__min__energy>  (15) 
-7.5599999999999996

>  <m_primary>  (15) 
energy

$$$$
15:0
     RDKit          3D

 43 46  0  0  0  0  0  0  0  0999 V2000
   63.1950   32.2180   47.3120 C   0  0  0  0  0  0  0  0  0  0  0  0
   62.8990   32.2850   48.8190 C   0  0  1  0  0  0  0  0  0  0  0  0
   63.9250   33.0910   49.5630 C   0  0  0  0  0  0  0  0  0  0  0  0
   65.2590   33.1340   49.3790 N   0  0  0  0  0  0  0  0  0  0  0  0
   65.7770   33.8170   50.3920 N   0  0  0  0  0  0  0  0  0  0  0  0
   64.8120   34.2040   51.2170 N   0  0  0  0  0  0  0  0  0  0  0  0
   65.0290   34.9000   52.4770 C   0  0  0  0  0  0  0  0  0  0  0  0
   63.6480   33.7280   50.7360 C   0  0  0  0  0  0  0  0  0  0  0  0
   62.2790   33.8280   51.3300 C   0  0  0  0  0  0  0  0  0  0  0  0
   61.3240   32.8350   50.6160 C   0  0  0  0  0  0  0  0  0  0  0  0
   61.5240   32.7800   49.1360 N   0  0  0  0  0  0  0  0  0  0  0  0
   61.1850   34.0650   48.4740 C   0  0  0  0  0  0  0  0  0  0  0  0
   60.3060   33.8540   47.2770 C   0  0  0  0  0  0  0  0  0  0  0  0
   59.6870   34.8460   46.5280 C   0  0  0  0  0  0  0  0  0  0  0  0
   58.9130   34.3900   45.5080 N   0  0  0  0  0  0  0  0  0  0  0  0
   58.9040   33.0370   45.4340 C   0  0  0  0  0  0  0  0  0  0  0  0
   58.1380   32.2830   44.4150 C   0  0  0  0  0  0  0  0  0  0  0  0
   57.3930   31.1480   44.7860 C   0  0  0  0  0  0  0  0  0  0  0  0
   56.6690   30.4300   43.8290 C   0  0  0  0  0  0  0  0  0  0  0  0
   56.6800   30.8360   42.4930 C   0  0  0  0  0  0  0  0  0  0  0  0
   57.4170   31.9600   42.1110 C   0  0  0  0  0  0  0  0  0  0  0  0
   58.1430   32.6810   43.0640 C   0  0  0  0  0  0  0  0  0  0  0  0
   59.8640   32.3610   46.6460 S   0  0  0  0  0  0  0  0  0  0  0  0
   64.2572   31.9776   47.1573 H   0  0  0  0  0  0  0  0  0  0  0  0
   62.5715   31.4383   46.8502 H   0  0  0  0  0  0  0  0  0  0  0  0
   62.9681   33.1902   46.8502 H   0  0  0  0  0  0  0  0  0  0  0  0
   62.9545   31.2421   49.1645 H   0  0  0  0  0  0  0  0  0  0  0  0
   65.8110   32.6890   48.6130 H   0  0  0  0  0  0  0  0  0  0  0  0
   64.8165   34.2183   53.3138 H   0  0  0  0  0  0  0  0  0  0  0  0
   66.0747   35.2365   52.5347 H   0  0  0  0  0  0  0  0  0  0  0  0
   64.3598   35.7711   52.5347 H   0  0  0  0  0  0  0  0  0  0  0  0
   62.3267   33.5829   52.4013 H   0  0  0  0  0  0  0  0  0  0  0  0
   61.9006   34.8528   51.2014 H   0  0  0  0  0  0  0  0  0  0  0  0
   61.4943   31.8296   51.0285 H   0  0  0  0  0  0  0  0  0  0  0  0
   60.2972   33.1881   50.7922 H   0  0  0  0  0  0  0  0  0  0  0  0
   60.6594   34.7097   49.1938 H   0  0  0  0  0  0  0  0  0  0  0  0
   62.1202   34.5352   48.1357 H   0  0  0  0  0  0  0  0  0  0  0  0
   59.8132   35.9173   46.7434 H   0  0  0  0  0  0  0  0  0  0  0  0
   57.3801   30.8232   45.8369 H   0  0  0  0  0  0  0  0  0  0  0  0
   56.0900   29.5441   44.1291 H   0  0  0  0  0  0  0  0  0  0  0  0
   56.1087   30.2712   41.7416 H   0  0  0  0  0  0  0  0  0  0  0  0
   57.4261   32.2784   41.0581 H   0  0  0  0  0  0  0  0  0  0  0  0
   58.7217   33.5646   42.7566 H   0  0  0  0  0  0  0  0  0  0  0  0
  1  2  1  0
  2  3  1  0
  3  4  1  0
  4  5  2  0
  5  6  1  0
  6  7  1  0
  6  8  1  0
  8  9  1  0
  9 10  1  0
 10 11  1  0
 11 12  1  0
 12 13  1  0
 13 14  2  0
 14 15  1  0
 15 16  2  0
 16 17  1  0
 17 18  2  0
 18 19  1  0
 19 20  2  0
 20 21  1  0
 21 22  2  0
 16 23  1  0
 11  2  1  0
 23 13  1  0
  8  3  2  0
 22 17  1  0
  1 24  1  0
  1 25  1  0
  1 26  1  0
  2 27  1  1
  4 28  1  0
  7 29  1  0
  7 30  1  0
  7 31  1  0
  9 32  1  0
  9 33  1  0
 10 34  1  0
 10 35  1  0
 12 36  1  0
 12 37  1  0
 14 38  1  0
 18 39  1  0
 19 40  1  0
 20 41  1  0
 21 42  1  0
 22 43  1  0
M  CHG  1   4   1
M  END
>  <UniqueID>  (16) 
16

>  <SMILES>  (16) 
C[C@H]1c2[nH+]nn(C)c2CCN1Cc1cnc(-c2ccccc2)s1

>  <Energy>  (16) 
122.42919474783692

>  <Genealogy>  (16) 
CC1c2[nH+]nn(C)c2CCN1Cc1cnc(-c2ccccc2)s1 (protonated)
C[C@H]1c2[nH+]nn(C)c2CCN1Cc1cnc(-c2ccccc2)s1 (chirality)
C[C@H]1c2[nH+]nn(C)c2CCN1Cc1cnc(-c2ccccc2)s1 (3D coordinates assigned)
C[C@H]1c2[nH+]nn(C)c2CCN1Cc1cnc(-c2ccccc2)s1 (nonaromatic ring conformer: 122.42919474783692 kcal/mol)

>  <smiles>  (16) 
CC1c2nnn(C)c2CCN1Cc1cnc(-c2ccccc2)s1

>  <score_type>  (16) 
oracle

>  <origin>  (16) 
adg

>  <m_score__min__energy>  (16) 
-6.6399999999999997

>  <m_primary>  (16) 
energy

$$$$
16:0
     RDKit          3D

 44 46  0  0  0  0  0  0  0  0999 V2000
   63.3600   33.8350   46.2310 C   0  0  0  0  0  0  0  0  0  0  0  0
   63.7040   33.7930   47.7230 C   0  0  0  0  0  0  0  0  0  0  0  0
   64.1420   32.4570   48.1630 N   0  0  0  0  0  0  0  0  0  0  0  0
   63.2160   31.8640   49.1440 C   0  0  0  0  0  0  0  0  0  0  0  0
   62.2450   30.8820   48.4750 C   0  0  0  0  0  0  0  0  0  0  0  0
   60.8720   31.3760   48.5390 N   0  0  0  0  0  0  0  0  0  0  0  0
   60.1240   31.5950   47.3360 C   0  0  0  0  0  0  0  0  0  0  0  0
   59.8340   32.8930   46.9220 C   0  0  0  0  0  0  0  0  0  0  0  0
   59.0830   33.1170   45.7950 C   0  0  0  0  0  0  0  0  0  0  0  0
   58.5480   32.0950   45.0500 N   0  0  0  0  0  0  0  0  0  0  0  0
   57.6120   32.3950   43.9500 C   0  0  0  0  0  0  0  0  0  0  0  0
   58.9020   30.7920   45.3630 C   0  0  0  0  0  0  0  0  0  0  0  0
   58.5410   29.6990   44.5380 C   0  0  0  0  0  0  0  0  0  0  0  0
   58.8790   28.3920   44.8860 C   0  0  0  0  0  0  0  0  0  0  0  0
   59.5960   28.1370   46.0520 C   0  0  0  0  0  0  0  0  0  0  0  0
   60.0570   26.3410   46.5130 Br  0  0  0  0  0  0  0  0  0  0  0  0
   59.9990   29.1910   46.8700 C   0  0  0  0  0  0  0  0  0  0  0  0
   59.6730   30.5210   46.5390 C   0  0  0  0  0  0  0  0  0  0  0  0
   58.9860   34.5570   45.5980 C   0  0  0  0  0  0  0  0  0  0  0  0
   58.5020   35.1330   44.5890 O   0  0  0  0  0  0  0  0  0  0  0  0
   59.6480   35.2850   46.7180 C   0  0  0  0  0  0  0  0  0  0  0  0
   60.2370   34.1670   47.6000 C   0  0  0  0  0  0  0  0  0  0  0  0
   62.2749   33.9675   46.1085 H   0  0  0  0  0  0  0  0  0  0  0  0
   63.8879   34.6754   45.7565 H   0  0  0  0  0  0  0  0  0  0  0  0
   63.6702   32.8923   45.7565 H   0  0  0  0  0  0  0  0  0  0  0  0
   64.5132   34.5119   47.9189 H   0  0  0  0  0  0  0  0  0  0  0  0
   62.7925   34.0477   48.2837 H   0  0  0  0  0  0  0  0  0  0  0  0
   64.1780   31.8420   47.3180 H   0  0  0  0  0  0  0  0  0  0  0  0
   65.1050   32.5140   48.5690 H   0  0  0  0  0  0  0  0  0  0  0  0
   63.7987   31.3272   49.9071 H   0  0  0  0  0  0  0  0  0  0  0  0
   62.6289   32.6748   49.5999 H   0  0  0  0  0  0  0  0  0  0  0  0
   62.5323   30.7543   47.4209 H   0  0  0  0  0  0  0  0  0  0  0  0
   62.2963   29.9213   49.0082 H   0  0  0  0  0  0  0  0  0  0  0  0
   60.3310   31.1940   49.4150 H   0  0  0  0  0  0  0  0  0  0  0  0
   56.6429   32.7056   44.3676 H   0  0  0  0  0  0  0  0  0  0  0  0
   58.0217   33.2068   43.3311 H   0  0  0  0  0  0  0  0  0  0  0  0
   57.4734   31.4963   43.3311 H   0  0  0  0  0  0  0  0  0  0  0  0
   57.9847   29.8843   43.6073 H   0  0  0  0  0  0  0  0  0  0  0  0
   58.5776   27.5575   44.2358 H   0  0  0  0  0  0  0  0  0  0  0  0
   60.5769   28.9825   47.7824 H   0  0  0  0  0  0  0  0  0  0  0  0
   60.4439   35.9431   46.3391 H   0  0  0  0  0  0  0  0  0  0  0  0
   58.9511   35.9334   47.2693 H   0  0  0  0  0  0  0  0  0  0  0  0
   61.3328   34.2496   47.6501 H   0  0  0  0  0  0  0  0  0  0  0  0
   59.8719   34.2196   48.6363 H   0  0  0  0  0  0  0  0  0  0  0  0
  1  2  1  0
  2  3  1  0
  3  4  1  0
  4  5  1  0
  5  6  1  0
  6  7  1  0
  7  8  2  0
  8  9  1  0
  9 10  2  0
 10 11  1  0
 10 12  1  0
 12 13  2  0
 13 14  1  0
 14 15  2  0
 15 16  1  0
 15 17  1  0
 17 18  2  0
  9 19  1  0
 19 20  2  0
 19 21  1  0
 21 22  1  0
 18  7  1  0
 22  8  1  0
 18 12  1  0
  1 23  1  0
  1 24  1  0
  1 25  1  0
  2 26  1  0
  2 27  1  0
  3 28  1  0
  3 29  1  0
  4 30  1  0
  4 31  1  0
  5 32  1  0
  5 33  1  0
  6 34  1  0
 11 35  1  0
 11 36  1  0
 11 37  1  0
 13 38  1  0
 14 39  1  0
 17 40  1  0
 21 41  1  0
 21 42  1  0
 22 43  1  0
 22 44  1  0
M  CHG  2   3   1  10   1
M  END
>  <UniqueID>  (17) 
17

>  <SMILES>  (17) 
CC[NH2+]CCNc1c2c([n+](C)c3ccc(Br)cc13)C(=O)CC2

>  <Energy>  (17) 
71.87328853949349

>  <Genealogy>  (17) 
CC[NH2+]CCNc1c2c([n+](C)c3ccc(Br)cc13)C(=O)CC2 (protonated)
CC[NH2+]CCNc1c2c([n+](C)c3ccc(Br)cc13)C(=O)CC2 (3D coordinates assigned)
CC[NH2+]CCNc1c2c([n+](C)c3ccc(Br)cc13)C(=O)CC2 (nonaromatic ring conformer: 71.87328853949349 kcal/mol)

>  <smiles>  (17) 
CCNCCNc1c2c([n+](C)c3ccc(Br)cc13)C(=O)CC2

>  <score_type>  (17) 
oracle

>  <origin>  (17) 
adg

>  <m_score__min__energy>  (17) 
-4.5300000000000002

>  <m_primary>  (17) 
energy

$$$$
17:0
     RDKit          3D

 51 53  0  0  0  0  0  0  0  0999 V2000
   55.4685   30.2776   43.2672 H   0  0  0  0  0  0  0  0  0  0  0  0
   56.4310   30.1580   43.7860 C   0  0  0  0  0  0  0  0  0  0  0  0
   57.5270   30.7360   43.2700 C   0  0  0  0  0  0  0  0  0  0  0  0
   58.2437   30.1215   42.7055 H   0  0  0  0  0  0  0  0  0  0  0  0
   57.7980   32.2100   43.4470 C   0  0  0  0  0  0  0  0  0  0  0  0
   58.6098   32.5068   42.7667 H   0  0  0  0  0  0  0  0  0  0  0  0
   56.8713   32.7574   43.2199 H   0  0  0  0  0  0  0  0  0  0  0  0
   58.1960   32.5350   44.8410 N   0  0  2  0  0  0  0  0  0  0  0  0
   58.5370   31.6530   45.2980 H   0  0  0  0  0  0  0  0  0  0  0  0
   57.0790   33.1160   45.6100 C   0  0  1  0  0  0  0  0  0  0  0  0
   56.1263   32.6012   45.4168 H   0  0  0  0  0  0  0  0  0  0  0  0
   57.4000   33.0030   47.1250 C   0  0  0  0  0  0  0  0  0  0  0  0
   57.2281   31.9659   47.4489 H   0  0  0  0  0  0  0  0  0  0  0  0
   56.7438   33.7005   47.6662 H   0  0  0  0  0  0  0  0  0  0  0  0
   58.8410   33.3800   47.4270 C   0  0  0  0  0  0  0  0  0  0  0  0
   59.1930   33.4890   48.5920 O   0  0  0  0  0  0  0  0  0  0  0  0
   59.8650   33.5710   46.3230 C   0  0  0  0  0  0  0  0  0  0  0  0
   60.5810   32.7365   46.3533 H   0  0  0  0  0  0  0  0  0  0  0  0
   60.3716   34.5331   46.4894 H   0  0  0  0  0  0  0  0  0  0  0  0
   59.2010   33.6120   44.9220 C   0  0  2  0  0  0  0  0  0  0  0  0
   59.9869   33.5084   44.1593 H   0  0  0  0  0  0  0  0  0  0  0  0
   58.4260   34.9290   44.7470 C   0  0  0  0  0  0  0  0  0  0  0  0
   58.4357   35.2496   43.6948 H   0  0  0  0  0  0  0  0  0  0  0  0
   58.8664   35.7550   45.3248 H   0  0  0  0  0  0  0  0  0  0  0  0
   57.0070   34.5960   45.1970 C   0  0  0  0  0  0  0  0  0  0  0  0
   56.2931   34.7364   44.3720 H   0  0  0  0  0  0  0  0  0  0  0  0
   56.6614   35.2451   46.0150 H   0  0  0  0  0  0  0  0  0  0  0  0
   56.4830   29.3520   45.0530 C   0  0  0  0  0  0  0  0  0  0  0  0
   56.8378   28.3362   44.8244 H   0  0  0  0  0  0  0  0  0  0  0  0
   55.4759   29.3047   45.4929 H   0  0  0  0  0  0  0  0  0  0  0  0
   57.3930   29.9790   46.0050 N   0  0  0  0  0  0  0  0  0  0  0  0
   58.7860   29.6600   46.0980 C   0  0  0  0  0  0  0  0  0  0  0  0
   59.6290   30.2650   45.3810 O   0  0  0  0  0  0  0  0  0  0  0  0
   59.2540   28.6470   47.0940 C   0  0  0  0  0  0  0  0  0  0  0  0
   60.2601   28.3007   46.8148 H   0  0  0  0  0  0  0  0  0  0  0  0
   58.5534   27.7990   47.1000 H   0  0  0  0  0  0  0  0  0  0  0  0
   59.2990   29.2240   48.4000 O   0  0  0  0  0  0  0  0  0  0  0  0
   60.1370   30.2820   48.8010 C   0  0  0  0  0  0  0  0  0  0  0  0
   61.1480   30.7940   47.9630 C   0  0  0  0  0  0  0  0  0  0  0  0
   61.2868   30.3718   46.9568 H   0  0  0  0  0  0  0  0  0  0  0  0
   61.9770   31.8340   48.3980 C   0  0  0  0  0  0  0  0  0  0  0  0
   63.3570   32.4590   47.2260 Br  0  0  0  0  0  0  0  0  0  0  0  0
   61.7930   32.3850   49.6760 C   0  0  0  0  0  0  0  0  0  0  0  0
   62.9000   33.8110   50.3250 Br  0  0  0  0  0  0  0  0  0  0  0  0
   60.7840   31.8910   50.5080 C   0  0  0  0  0  0  0  0  0  0  0  0
   60.6417   32.3256   51.5084 H   0  0  0  0  0  0  0  0  0  0  0  0
   59.9500   30.8450   50.0790 C   0  0  0  0  0  0  0  0  0  0  0  0
   58.8870   30.3050   50.9970 C   0  0  0  0  0  0  0  0  0  0  0  0
   59.1921   30.4600   52.0424 H   0  0  0  0  0  0  0  0  0  0  0  0
   57.9392   30.8309   50.8098 H   0  0  0  0  0  0  0  0  0  0  0  0
   58.7527   29.2294   50.8098 H   0  0  0  0  0  0  0  0  0  0  0  0
  1  2  1  0
  2  3  2  0
  3  4  1  0
  3  5  1  0
  5  6  1  0
  5  7  1  0
  5  8  1  0
  8  9  1  1
  8 10  1  0
 10 11  1  1
 10 12  1  0
 12 13  1  0
 12 14  1  0
 12 15  1  0
 15 16  2  0
 15 17  1  0
 17 18  1  0
 17 19  1  0
 17 20  1  0
 20 21  1  6
 20 22  1  0
 22 23  1  0
 22 24  1  0
 22 25  1  0
 25 26  1  0
 25 27  1  0
  2 28  1  0
 28 29  1  0
 28 30  1  0
 28 31  1  0
 31 32  1  0
 32 33  2  0
 32 34  1  0
 34 35  1  0
 34 36  1  0
 34 37  1  0
 37 38  1  0
 38 39  2  0
 39 40  1  0
 39 41  1  0
 41 42  1  0
 41 43  2  0
 43 44  1  0
 43 45  1  0
 45 46  1  0
 45 47  2  0
 47 48  1  0
 48 49  1  0
 48 50  1  0
 48 51  1  0
 20  8  1  0
 47 38  1  0
 25 10  1  0
M  CHG  2   8   1  31  -1
M  END
>  <UniqueID>  (18) 
18

>  <SMILES>  (18) 
Cc1cc(Br)c(Br)cc1OCC(=O)[N-]C/C=C/C[NH+]1[C@@H]2CC[C@H]1CC(=O)C2

>  <Energy>  (18) 
57.366347546280565

>  <Genealogy>  (18) 
Cc1cc(Br)c(Br)cc1OCC(=O)[N-]CC=CC[NH+]1C2CCC1CC(=O)C2 (protonated)
Cc1cc(Br)c(Br)cc1OCC(=O)[N-]CC=CC[NH+]1[C@@H]2CC[C@H]1CC(=O)C2 (chirality)
Cc1cc(Br)c(Br)cc1OCC(=O)[N-]C/C=C/C[NH+]1[C@@H]2CC[C@H]1CC(=O)C2 (cis-trans isomerization)
Cc1cc(Br)c(Br)cc1OCC(=O)[N-]C/C=C/C[NH+]1[C@@H]2CC[C@H]1CC(=O)C2 (3D coordinates assigned)
Cc1cc(Br)c(Br)cc1OCC(=O)[N-]C/C=C/C[NH+]1[C@@H]2CC[C@H]1CC(=O)C2 (nonaromatic ring conformer: 57.366347546280565 kcal/mol)

>  <smiles>  (18) 
Cc1cc(Br)c(Br)cc1OCC(=O)NCC=CCN1C2CCC1CC(=O)C2

>  <score_type>  (18) 
oracle

>  <origin>  (18) 
adg

>  <m_score__min__energy>  (18) 
-9.0500000000000007

>  <m_primary>  (18) 
energy

$$$$
