0:0
     RDKit          3D

 28 29  0  0  0  0  0  0  0  0999 V2000
   58.5400   32.7120   48.0310 C   0  0  0  0  0  0  0  0  0  0  0  0
   58.2420   32.6220   46.5640 C   0  0  0  0  0  0  0  0  0  0  0  0
   57.7480   33.7390   45.8730 C   0  0  0  0  0  0  0  0  0  0  0  0
   57.5120   33.6690   44.4980 C   0  0  0  0  0  0  0  0  0  0  0  0
   57.7770   32.4880   43.8000 C   0  0  0  0  0  0  0  0  0  0  0  0
   58.2810   31.3620   44.4730 C   0  0  0  0  0  0  0  0  0  0  0  0
   58.5940   30.1570   43.7460 N   0  0  0  0  0  0  0  0  0  0  0  0
   58.3500   29.0100   44.5830 C   0  0  0  0  0  0  0  0  0  0  0  0
   59.4220   28.3330   45.1940 C   0  0  0  0  0  0  0  0  0  0  0  0
   59.1810   27.2390   46.0310 C   0  0  0  0  0  0  0  0  0  0  0  0
   57.8710   26.8150   46.2720 C   0  0  0  0  0  0  0  0  0  0  0  0
   57.6430   25.7540   47.0860 F   0  0  0  0  0  0  0  0  0  0  0  0
   56.7980   27.4850   45.6780 C   0  0  0  0  0  0  0  0  0  0  0  0
   55.5270   27.0790   45.9140 F   0  0  0  0  0  0  0  0  0  0  0  0
   57.0340   28.5810   44.8390 C   0  0  0  0  0  0  0  0  0  0  0  0
   58.5250   31.4430   45.8560 C   0  0  0  0  0  0  0  0  0  0  0  0
   57.6417   32.4407   48.6050 H   0  0  0  0  0  0  0  0  0  0  0  0
   59.3581   32.0209   48.2820 H   0  0  0  0  0  0  0  0  0  0  0  0
   58.8388   33.7405   48.2820 H   0  0  0  0  0  0  0  0  0  0  0  0
   57.5457   34.6737   46.4165 H   0  0  0  0  0  0  0  0  0  0  0  0
   57.1167   34.5455   43.9636 H   0  0  0  0  0  0  0  0  0  0  0  0
   57.5900   32.4393   42.7171 H   0  0  0  0  0  0  0  0  0  0  0  0
   58.0120   30.0990   42.8770 H   0  0  0  0  0  0  0  0  0  0  0  0
   59.5950   30.1710   43.4380 H   0  0  0  0  0  0  0  0  0  0  0  0
   60.4545   28.6661   45.0122 H   0  0  0  0  0  0  0  0  0  0  0  0
   60.0240   26.7110   46.5007 H   0  0  0  0  0  0  0  0  0  0  0  0
   56.1867   29.1094   44.3776 H   0  0  0  0  0  0  0  0  0  0  0  0
   58.9413   30.5747   46.3877 H   0  0  0  0  0  0  0  0  0  0  0  0
  1  2  1  0
  2  3  2  0
  3  4  1  0
  4  5  2  0
  5  6  1  0
  6  7  1  0
  7  8  1  0
  8  9  2  0
  9 10  1  0
 10 11  2  0
 11 12  1  0
 11 13  1  0
 13 14  1  0
 13 15  2  0
  6 16  2  0
 16  2  1  0
 15  8  1  0
  1 17  1  0
  1 18  1  0
  1 19  1  0
  3 20  1  0
  4 21  1  0
  5 22  1  0
  7 23  1  0
  7 24  1  0
  9 25  1  0
 10 26  1  0
 15 27  1  0
 16 28  1  0
M  CHG  1   7   1
M  END
>  <UniqueID>  (1) 
1

>  <SMILES>  (1) 
Cc1cccc([NH2+]c2ccc(F)c(F)c2)c1

>  <Energy>  (1) 
29.574118566964888

>  <Genealogy>  (1) 
Cc1cccc([NH2+]c2ccc(F)c(F)c2)c1 (protonated)
Cc1cccc([NH2+]c2ccc(F)c(F)c2)c1 (3D coordinates assigned)
Cc1cccc([NH2+]c2ccc(F)c(F)c2)c1 (optimized conformer: 29.574118566964888 kcal/mol)

>  <smiles>  (1) 
Cc1cccc(Nc2ccc(F)c(F)c2)c1

>  <score_type>  (1) 
oracle

>  <origin>  (1) 
adg

>  <m_score__min__energy>  (1) 
-4.4199999999999999

>  <m_primary>  (1) 
energy

$$$$
1:0
     RDKit          3D

 56 58  0  0  0  0  0  0  0  0999 V2000
   56.8930   23.9990   46.4510 C   0  0  0  0  0  0  0  0  0  0  0  0
   57.6930   24.8470   45.4680 C   0  0  0  0  0  0  0  0  0  0  0  0
   57.7940   26.2290   45.9520 N   0  0  0  0  0  0  0  0  0  0  0  0
   58.8250   26.5930   46.9370 C   0  0  0  0  0  0  0  0  0  0  0  0
   60.2340   26.4400   46.3660 C   0  0  0  0  0  0  0  0  0  0  0  0
   56.7020   27.1360   45.7070 C   0  0  0  0  0  0  0  0  0  0  0  0
   55.5180   26.7400   45.8860 O   0  0  0  0  0  0  0  0  0  0  0  0
   56.9430   28.5220   45.2550 C   0  0  0  0  0  0  0  0  0  0  0  0
   58.2410   29.0570   45.2650 C   0  0  0  0  0  0  0  0  0  0  0  0
   58.4670   30.3720   44.8520 C   0  0  0  0  0  0  0  0  0  0  0  0
   57.3980   31.1890   44.4490 C   0  0  0  0  0  0  0  0  0  0  0  0
   57.6540   32.6190   44.0070 C   0  0  0  0  0  0  0  0  0  0  0  0
   58.1700   33.5150   45.0780 N   0  0  0  0  0  0  0  0  0  0  0  0
   58.0520   32.9260   46.4430 C   0  0  0  0  0  0  0  0  0  0  0  0
   59.3990   32.4740   47.0210 C   0  0  0  0  0  0  0  0  0  0  0  0
   60.3410   33.6020   47.0260 N   0  0  0  0  0  0  0  0  0  0  0  0
   61.3570   33.7080   48.0450 C   0  0  0  0  0  0  0  0  0  0  0  0
   62.7060   33.4650   47.7230 C   0  0  0  0  0  0  0  0  0  0  0  0
   63.6990   33.5770   48.7000 C   0  0  0  0  0  0  0  0  0  0  0  0
   63.3590   33.9300   50.0070 C   0  0  0  0  0  0  0  0  0  0  0  0
   62.0240   34.1660   50.3420 C   0  0  0  0  0  0  0  0  0  0  0  0
   61.0240   34.0550   49.3700 C   0  0  0  0  0  0  0  0  0  0  0  0
   59.7320   34.2550   49.7330 F   0  0  0  0  0  0  0  0  0  0  0  0
   60.2090   34.6420   45.9960 C   0  0  0  0  0  0  0  0  0  0  0  0
   59.5170   34.0630   44.7590 C   0  0  0  0  0  0  0  0  0  0  0  0
   56.1030   30.6450   44.4200 C   0  0  0  0  0  0  0  0  0  0  0  0
   55.8760   29.3310   44.8360 C   0  0  0  0  0  0  0  0  0  0  0  0
   57.1594   24.2814   47.4802 H   0  0  0  0  0  0  0  0  0  0  0  0
   55.8180   24.1683   46.2909 H   0  0  0  0  0  0  0  0  0  0  0  0
   57.1246   22.9356   46.2909 H   0  0  0  0  0  0  0  0  0  0  0  0
   58.7032   24.4246   45.3629 H   0  0  0  0  0  0  0  0  0  0  0  0
   57.1806   24.8454   44.4946 H   0  0  0  0  0  0  0  0  0  0  0  0
   58.6750   27.6400   47.2392 H   0  0  0  0  0  0  0  0  0  0  0  0
   58.7295   25.9155   47.7983 H   0  0  0  0  0  0  0  0  0  0  0  0
   60.9574   26.3614   47.1909 H   0  0  0  0  0  0  0  0  0  0  0  0
   60.2825   25.5313   45.7480 H   0  0  0  0  0  0  0  0  0  0  0  0
   60.4764   27.3171   45.7480 H   0  0  0  0  0  0  0  0  0  0  0  0
   59.0853   28.4366   45.6002 H   0  0  0  0  0  0  0  0  0  0  0  0
   59.4918   30.7715   44.8423 H   0  0  0  0  0  0  0  0  0  0  0  0
   58.3915   32.5993   43.1911 H   0  0  0  0  0  0  0  0  0  0  0  0
   56.6810   33.0293   43.6988 H   0  0  0  0  0  0  0  0  0  0  0  0
   57.5240   34.3420   45.0700 H   0  0  0  0  0  0  0  0  0  0  0  0
   57.6188   33.6820   47.1144 H   0  0  0  0  0  0  0  0  0  0  0  0
   57.4137   32.0338   46.3616 H   0  0  0  0  0  0  0  0  0  0  0  0
   59.2529   32.1154   48.0506 H   0  0  0  0  0  0  0  0  0  0  0  0
   59.8069   31.6623   46.4007 H   0  0  0  0  0  0  0  0  0  0  0  0
   62.9802   33.1850   46.6952 H   0  0  0  0  0  0  0  0  0  0  0  0
   64.7504   33.3866   48.4386 H   0  0  0  0  0  0  0  0  0  0  0  0
   64.1428   34.0223   50.7732 H   0  0  0  0  0  0  0  0  0  0  0  0
   61.7578   34.4401   51.3735 H   0  0  0  0  0  0  0  0  0  0  0  0
   59.6102   35.4750   46.3929 H   0  0  0  0  0  0  0  0  0  0  0  0
   61.2091   35.0045   45.7160 H   0  0  0  0  0  0  0  0  0  0  0  0
   59.4076   34.8593   44.0080 H   0  0  0  0  0  0  0  0  0  0  0  0
   60.1373   33.2385   44.3776 H   0  0  0  0  0  0  0  0  0  0  0  0
   55.2612   31.2587   44.0669 H   0  0  0  0  0  0  0  0  0  0  0  0
   54.8527   28.9274   44.8351 H   0  0  0  0  0  0  0  0  0  0  0  0
  1  2  1  0
  2  3  1  0
  3  4  1  0
  4  5  1  0
  3  6  1  0
  6  7  2  0
  6  8  1  0
  8  9  2  0
  9 10  1  0
 10 11  2  0
 11 12  1  0
 12 13  1  0
 13 14  1  0
 14 15  1  0
 15 16  1  0
 16 17  1  0
 17 18  2  0
 18 19  1  0
 19 20  2  0
 20 21  1  0
 21 22  2  0
 22 23  1  0
 16 24  1  0
 24 25  1  0
 11 26  1  0
 26 27  2  0
 27  8  1  0
 25 13  1  0
 22 17  1  0
  1 28  1  0
  1 29  1  0
  1 30  1  0
  2 31  1  0
  2 32  1  0
  4 33  1  0
  4 34  1  0
  5 35  1  0
  5 36  1  0
  5 37  1  0
  9 38  1  0
 10 39  1  0
 12 40  1  0
 12 41  1  0
 13 42  1  0
 14 43  1  0
 14 44  1  0
 15 45  1  0
 15 46  1  0
 18 47  1  0
 19 48  1  0
 20 49  1  0
 21 50  1  0
 24 51  1  0
 24 52  1  0
 25 53  1  0
 25 54  1  0
 26 55  1  0
 27 56  1  0
M  CHG  1  13   1
M  END
>  <UniqueID>  (2) 
2

>  <SMILES>  (2) 
CCN(CC)C(=O)c1ccc(C[NH+]2CCN(c3ccccc3F)CC2)cc1

>  <Energy>  (2) 
70.77362179065167

>  <Genealogy>  (2) 
CCN(CC)C(=O)c1ccc(C[NH+]2CCN(c3ccccc3F)CC2)cc1 (protonated)
CCN(CC)C(=O)c1ccc(C[NH+]2CCN(c3ccccc3F)CC2)cc1 (3D coordinates assigned)
CCN(CC)C(=O)c1ccc(C[NH+]2CCN(c3ccccc3F)CC2)cc1 (nonaromatic ring conformer: 70.77362179065167 kcal/mol)

>  <smiles>  (2) 
CCN(CC)C(=O)c1ccc(CN2CCN(c3ccccc3F)CC2)cc1

>  <score_type>  (2) 
oracle

>  <origin>  (2) 
adg

>  <m_score__min__energy>  (2) 
-6.5499999999999998

>  <m_primary>  (2) 
energy

$$$$
2:0
     RDKit          3D

 40 42  0  0  0  0  0  0  0  0999 V2000
   63.1940   31.5940   47.5930 C   0  0  0  0  0  0  0  0  0  0  0  0
   63.7920   32.7620   46.8230 C   0  0  0  0  0  0  0  0  0  0  0  0
   62.5160   34.0320   46.5310 S   0  0  0  0  0  0  0  0  0  0  0  0
   61.8310   33.8960   48.1850 C   0  0  0  0  0  0  0  0  0  0  0  0
   62.5480   34.1440   49.2980 N   0  0  0  0  0  0  0  0  0  0  0  0
   61.7520   33.8630   50.3170 N   0  0  0  0  0  0  0  0  0  0  0  0
   60.5690   33.4430   49.8270 C   0  0  0  0  0  0  0  0  0  0  0  0
   59.4230   33.0470   50.6760 C   0  0  0  0  0  0  0  0  0  0  0  0
   58.6770   31.8900   50.3870 C   0  0  0  0  0  0  0  0  0  0  0  0
   57.5950   31.5280   51.1940 C   0  0  0  0  0  0  0  0  0  0  0  0
   57.2420   32.3190   52.2900 C   0  0  0  0  0  0  0  0  0  0  0  0
   57.9690   33.4780   52.5780 C   0  0  0  0  0  0  0  0  0  0  0  0
   59.0520   33.8440   51.7730 C   0  0  0  0  0  0  0  0  0  0  0  0
   60.5850   33.4560   48.4750 N   0  0  0  0  0  0  0  0  0  0  0  0
   59.6250   32.8970   47.5630 C   0  0  0  0  0  0  0  0  0  0  0  0
   58.5500   33.6760   47.1050 C   0  0  0  0  0  0  0  0  0  0  0  0
   57.6180   33.1390   46.2110 C   0  0  0  0  0  0  0  0  0  0  0  0
   57.7480   31.8110   45.7640 C   0  0  0  0  0  0  0  0  0  0  0  0
   56.8400   31.2270   44.8680 O   0  0  0  0  0  0  0  0  0  0  0  0
   57.1660   30.8250   43.5410 C   0  0  0  0  0  0  0  0  0  0  0  0
   58.8200   31.0370   46.2250 C   0  0  0  0  0  0  0  0  0  0  0  0
   59.7520   31.5750   47.1160 C   0  0  0  0  0  0  0  0  0  0  0  0
   63.2891   31.7797   48.6730 H   0  0  0  0  0  0  0  0  0  0  0  0
   62.1308   31.4882   47.3313 H   0  0  0  0  0  0  0  0  0  0  0  0
   63.7297   30.6696   47.3313 H   0  0  0  0  0  0  0  0  0  0  0  0
   64.6155   33.1998   47.4062 H   0  0  0  0  0  0  0  0  0  0  0  0
   64.1718   32.4014   45.8557 H   0  0  0  0  0  0  0  0  0  0  0  0
   62.0210   33.9660   51.3210 H   0  0  0  0  0  0  0  0  0  0  0  0
   58.9466   31.2670   49.5214 H   0  0  0  0  0  0  0  0  0  0  0  0
   57.0201   30.6184   50.9657 H   0  0  0  0  0  0  0  0  0  0  0  0
   56.3924   32.0301   52.9262 H   0  0  0  0  0  0  0  0  0  0  0  0
   57.6886   34.1026   53.4389 H   0  0  0  0  0  0  0  0  0  0  0  0
   59.6167   34.7605   51.9992 H   0  0  0  0  0  0  0  0  0  0  0  0
   58.4404   34.7143   47.4513 H   0  0  0  0  0  0  0  0  0  0  0  0
   56.7802   33.7571   45.8559 H   0  0  0  0  0  0  0  0  0  0  0  0
   57.8585   29.9711   43.5762 H   0  0  0  0  0  0  0  0  0  0  0  0
   56.2480   30.5310   43.0110 H   0  0  0  0  0  0  0  0  0  0  0  0
   57.6432   31.6625   43.0110 H   0  0  0  0  0  0  0  0  0  0  0  0
   58.9292   29.9973   45.8829 H   0  0  0  0  0  0  0  0  0  0  0  0
   60.5908   30.9569   47.4688 H   0  0  0  0  0  0  0  0  0  0  0  0
  1  2  1  0
  2  3  1  0
  3  4  1  0
  4  5  2  0
  5  6  1  0
  6  7  2  0
  7  8  1  0
  8  9  2  0
  9 10  1  0
 10 11  2  0
 11 12  1  0
 12 13  2  0
  7 14  1  0
 14 15  1  0
 15 16  2  0
 16 17  1  0
 17 18  2  0
 18 19  1  0
 19 20  1  0
 18 21  1  0
 21 22  2  0
 14  4  1  0
 22 15  1  0
 13  8  1  0
  1 23  1  0
  1 24  1  0
  1 25  1  0
  2 26  1  0
  2 27  1  0
  6 28  1  0
  9 29  1  0
 10 30  1  0
 11 31  1  0
 12 32  1  0
 13 33  1  0
 16 34  1  0
 17 35  1  0
 20 36  1  0
 20 37  1  0
 20 38  1  0
 21 39  1  0
 22 40  1  0
M  CHG  1   6   1
M  END
>  <UniqueID>  (3) 
3

>  <SMILES>  (3) 
CCSc1n[nH+]c(-c2ccccc2)n1-c1ccc(OC)cc1

>  <Energy>  (3) 
79.92137886407835

>  <Genealogy>  (3) 
CCSc1n[nH+]c(-c2ccccc2)n1-c1ccc(OC)cc1 (protonated)
CCSc1n[nH+]c(-c2ccccc2)n1-c1ccc(OC)cc1 (3D coordinates assigned)
CCSc1n[nH+]c(-c2ccccc2)n1-c1ccc(OC)cc1 (optimized conformer: 79.92137886407835 kcal/mol)

>  <smiles>  (3) 
CCSc1nnc(-c2ccccc2)n1-c1ccc(OC)cc1

>  <score_type>  (3) 
oracle

>  <origin>  (3) 
adg

>  <m_score__min__energy>  (3) 
-5.5499999999999998

>  <m_primary>  (3) 
energy

$$$$
3:0
     RDKit          3D

 43 44  0  0  0  0  0  0  0  0999 V2000
   60.7810   28.8490   44.4870 C   0  0  0  0  0  0  0  0  0  0  0  0
   60.7810   28.2110   45.8720 C   0  0  0  0  0  0  0  0  0  0  0  0
   59.9630   26.9140   45.8850 C   0  0  0  0  0  0  0  0  0  0  0  0
   58.8860   26.9890   46.8800 N   0  0  0  0  0  0  0  0  0  0  0  0
   59.1930   27.4430   48.2460 C   0  0  0  0  0  0  0  0  0  0  0  0
   58.8570   28.9300   48.4060 C   0  0  0  0  0  0  0  0  0  0  0  0
   60.0740   29.7250   48.8690 C   0  0  0  0  0  0  0  0  0  0  0  0
   57.5530   26.5320   46.5700 C   0  0  0  0  0  0  0  0  0  0  0  0
   56.8840   25.9220   47.4490 O   0  0  0  0  0  0  0  0  0  0  0  0
   56.8930   26.8540   45.2590 C   0  0  0  0  0  0  0  0  0  0  0  0
   56.7630   28.3370   45.1150 C   0  0  0  0  0  0  0  0  0  0  0  0
   57.7660   29.2610   45.3190 C   0  0  0  0  0  0  0  0  0  0  0  0
   57.1350   30.4800   45.1530 C   0  0  0  0  0  0  0  0  0  0  0  0
   57.7450   31.8260   45.2740 C   0  0  0  0  0  0  0  0  0  0  0  0
   58.0030   32.5880   44.1180 C   0  0  0  0  0  0  0  0  0  0  0  0
   58.5800   33.8570   44.2180 C   0  0  0  0  0  0  0  0  0  0  0  0
   58.9040   34.3840   45.4700 C   0  0  0  0  0  0  0  0  0  0  0  0
   59.4620   35.6150   45.5640 F   0  0  0  0  0  0  0  0  0  0  0  0
   58.6510   33.6400   46.6250 C   0  0  0  0  0  0  0  0  0  0  0  0
   58.0760   32.3680   46.5310 C   0  0  0  0  0  0  0  0  0  0  0  0
   55.8320   30.2730   44.8700 N   0  0  0  0  0  0  0  0  0  0  0  0
   55.6040   28.9690   44.8540 N   0  0  0  0  0  0  0  0  0  0  0  0
   61.8181   29.0024   44.1540 H   0  0  0  0  0  0  0  0  0  0  0  0
   60.2625   28.1867   43.7782 H   0  0  0  0  0  0  0  0  0  0  0  0
   60.2625   29.8182   44.5297 H   0  0  0  0  0  0  0  0  0  0  0  0
   61.8174   27.9845   46.1627 H   0  0  0  0  0  0  0  0  0  0  0  0
   60.3249   28.9176   46.5810 H   0  0  0  0  0  0  0  0  0  0  0  0
   59.5240   26.7541   44.8892 H   0  0  0  0  0  0  0  0  0  0  0  0
   60.6290   26.0788   46.1474 H   0  0  0  0  0  0  0  0  0  0  0  0
   58.5989   26.8584   48.9638 H   0  0  0  0  0  0  0  0  0  0  0  0
   60.2668   27.2986   48.4359 H   0  0  0  0  0  0  0  0  0  0  0  0
   58.5164   29.3268   47.4383 H   0  0  0  0  0  0  0  0  0  0  0  0
   58.0676   29.0285   49.1657 H   0  0  0  0  0  0  0  0  0  0  0  0
   60.1030   29.7439   49.9685 H   0  0  0  0  0  0  0  0  0  0  0  0
   60.9894   29.2502   48.4862 H   0  0  0  0  0  0  0  0  0  0  0  0
   60.0071   30.7541   48.4862 H   0  0  0  0  0  0  0  0  0  0  0  0
   57.5039   26.4581   44.4344 H   0  0  0  0  0  0  0  0  0  0  0  0
   55.8939   26.3947   45.2298 H   0  0  0  0  0  0  0  0  0  0  0  0
   58.8229   29.0721   45.5583 H   0  0  0  0  0  0  0  0  0  0  0  0
   57.7483   32.1810   43.1283 H   0  0  0  0  0  0  0  0  0  0  0  0
   58.7794   34.4422   43.3082 H   0  0  0  0  0  0  0  0  0  0  0  0
   58.9047   34.0555   47.6114 H   0  0  0  0  0  0  0  0  0  0  0  0
   57.8812   31.7875   47.4448 H   0  0  0  0  0  0  0  0  0  0  0  0
  1  2  1  0
  2  3  1  0
  3  4  1  0
  4  5  1  0
  5  6  1  0
  6  7  1  0
  4  8  1  0
  8  9  2  0
  8 10  1  0
 10 11  1  0
 11 12  2  0
 12 13  1  0
 13 14  1  0
 14 15  2  0
 15 16  1  0
 16 17  2  0
 17 18  1  0
 17 19  1  0
 19 20  2  0
 13 21  2  0
 21 22  1  0
 22 11  1  0
 20 14  1  0
  1 23  1  0
  1 24  1  0
  1 25  1  0
  2 26  1  0
  2 27  1  0
  3 28  1  0
  3 29  1  0
  5 30  1  0
  5 31  1  0
  6 32  1  0
  6 33  1  0
  7 34  1  0
  7 35  1  0
  7 36  1  0
 10 37  1  0
 10 38  1  0
 12 39  1  0
 15 40  1  0
 16 41  1  0
 19 42  1  0
 20 43  1  0
M  CHG  1  22  -1
M  END
>  <UniqueID>  (4) 
4

>  <SMILES>  (4) 
CCCN(CCC)C(=O)Cc1cc(-c2ccc(F)cc2)n[n-]1

>  <Energy>  (4) 
60.67364195171674

>  <Genealogy>  (4) 
CCCN(CCC)C(=O)Cc1cc(-c2ccc(F)cc2)n[n-]1 (protonated)
CCCN(CCC)C(=O)Cc1cc(-c2ccc(F)cc2)n[n-]1 (3D coordinates assigned)
CCCN(CCC)C(=O)Cc1cc(-c2ccc(F)cc2)n[n-]1 (optimized conformer: 60.67364195171674 kcal/mol)

>  <smiles>  (4) 
CCCN(CCC)C(=O)Cc1cc(-c2ccc(F)cc2)n[nH]1

>  <score_type>  (4) 
oracle

>  <origin>  (4) 
adg

>  <m_score__min__energy>  (4) 
-9.6300000000000008

>  <m_primary>  (4) 
energy

$$$$
4:0
     RDKit          3D

 68 72  0  0  0  0  0  0  0  0999 V2000
   67.5830   26.8400   49.7860 C   0  0  0  0  0  0  0  0  0  0  0  0
   67.9740   27.2810   51.1400 N   0  0  0  0  0  0  0  0  0  0  0  0
   67.1880   26.6170   52.1990 C   0  0  0  0  0  0  0  0  0  0  0  0
   65.7030   27.0260   52.1970 C   0  0  0  0  0  0  0  0  0  0  0  0
   65.4850   28.4790   51.8630 C   0  0  0  0  0  0  0  0  0  0  0  0
   64.2310   29.0050   51.9370 N   0  0  0  0  0  0  0  0  0  0  0  0
   63.9680   30.2960   51.5830 C   0  0  0  0  0  0  0  0  0  0  0  0
   62.6030   30.7640   51.5630 N   0  0  0  0  0  0  0  0  0  0  0  0
   61.5640   29.8790   51.0200 C   0  0  0  0  0  0  0  0  0  0  0  0
   60.4220   30.6960   50.4050 C   0  0  0  0  0  0  0  0  0  0  0  0
   59.9190   31.8590   51.3070 C   0  0  0  0  0  0  0  0  0  0  0  0
   60.0320   33.1150   50.6270 O   0  0  0  0  0  0  0  0  0  0  0  0
   59.5560   33.3980   49.3370 C   0  0  0  0  0  0  0  0  0  0  0  0
   59.8930   34.5750   48.6420 C   0  0  0  0  0  0  0  0  0  0  0  0
   59.3360   34.8340   47.3850 C   0  0  0  0  0  0  0  0  0  0  0  0
   58.4630   33.9130   46.7980 C   0  0  0  0  0  0  0  0  0  0  0  0
   57.8620   34.2020   45.5230 C   0  0  0  0  0  0  0  0  0  0  0  0
   57.3780   34.4430   44.5010 N   0  0  0  0  0  0  0  0  0  0  0  0
   58.1470   32.7270   47.4720 C   0  0  0  0  0  0  0  0  0  0  0  0
   58.6940   32.4720   48.7340 C   0  0  0  0  0  0  0  0  0  0  0  0
   60.6990   31.9560   52.6270 C   0  0  0  0  0  0  0  0  0  0  0  0
   62.2120   31.9310   52.3690 C   0  0  0  0  0  0  0  0  0  0  0  0
   65.0370   31.1100   51.1550 C   0  0  0  0  0  0  0  0  0  0  0  0
   64.8440   32.4770   50.7660 N   0  0  0  0  0  0  0  0  0  0  0  0
   64.9190   33.4910   51.8180 C   0  0  0  0  0  0  0  0  0  0  0  0
   65.2180   32.8730   49.4040 C   0  0  0  0  0  0  0  0  0  0  0  0
   64.0420   32.7870   48.4630 C   0  0  0  0  0  0  0  0  0  0  0  0
   63.2020   31.6590   48.4800 C   0  0  0  0  0  0  0  0  0  0  0  0
   62.0780   31.6070   47.6470 C   0  0  0  0  0  0  0  0  0  0  0  0
   61.8080   32.6590   46.7680 C   0  0  0  0  0  0  0  0  0  0  0  0
   62.6540   33.7720   46.7260 C   0  0  0  0  0  0  0  0  0  0  0  0
   63.7640   33.8400   47.5740 C   0  0  0  0  0  0  0  0  0  0  0  0
   66.2820   30.5740   51.0640 N   0  0  0  0  0  0  0  0  0  0  0  0
   66.5300   29.2780   51.3810 C   0  0  0  0  0  0  0  0  0  0  0  0
   67.9330   28.7470   51.2810 C   0  0  0  0  0  0  0  0  0  0  0  0
   66.8551   26.0190   49.8637 H   0  0  0  0  0  0  0  0  0  0  0  0
   67.1293   27.6821   49.2428 H   0  0  0  0  0  0  0  0  0  0  0  0
   68.4734   26.4904   49.2428 H   0  0  0  0  0  0  0  0  0  0  0  0
   67.2514   25.5288   52.0516 H   0  0  0  0  0  0  0  0  0  0  0  0
   67.6121   26.9276   53.1653 H   0  0  0  0  0  0  0  0  0  0  0  0
   65.1732   26.4134   51.4526 H   0  0  0  0  0  0  0  0  0  0  0  0
   65.3195   26.8649   53.2153 H   0  0  0  0  0  0  0  0  0  0  0  0
   63.4500   28.3950   52.2680 H   0  0  0  0  0  0  0  0  0  0  0  0
   62.0064   29.2365   50.2445 H   0  0  0  0  0  0  0  0  0  0  0  0
   61.1588   29.2662   51.8387 H   0  0  0  0  0  0  0  0  0  0  0  0
   60.7750   31.1231   49.4547 H   0  0  0  0  0  0  0  0  0  0  0  0
   59.5745   30.0077   50.2712 H   0  0  0  0  0  0  0  0  0  0  0  0
   58.8657   31.6367   51.5331 H   0  0  0  0  0  0  0  0  0  0  0  0
   60.5964   35.2932   49.0886 H   0  0  0  0  0  0  0  0  0  0  0  0
   59.5858   35.7658   46.8565 H   0  0  0  0  0  0  0  0  0  0  0  0
   57.4684   31.9955   47.0089 H   0  0  0  0  0  0  0  0  0  0  0  0
   58.4455   31.5370   49.2574 H   0  0  0  0  0  0  0  0  0  0  0  0
   60.4350   32.8960   53.1337 H   0  0  0  0  0  0  0  0  0  0  0  0
   60.4344   31.0941   53.2571 H   0  0  0  0  0  0  0  0  0  0  0  0
   62.4982   32.8478   51.8327 H   0  0  0  0  0  0  0  0  0  0  0  0
   62.7263   31.8678   53.3393 H   0  0  0  0  0  0  0  0  0  0  0  0
   64.8828   33.0014   52.8024 H   0  0  0  0  0  0  0  0  0  0  0  0
   65.8610   34.0507   51.7213 H   0  0  0  0  0  0  0  0  0  0  0  0
   64.0696   34.1832   51.7213 H   0  0  0  0  0  0  0  0  0  0  0  0
   65.5875   33.9089   49.4213 H   0  0  0  0  0  0  0  0  0  0  0  0
   65.9988   32.1859   49.0459 H   0  0  0  0  0  0  0  0  0  0  0  0
   63.4287   30.8159   49.1492 H   0  0  0  0  0  0  0  0  0  0  0  0
   61.4064   30.7366   47.6846 H   0  0  0  0  0  0  0  0  0  0  0  0
   60.9291   32.6118   46.1083 H   0  0  0  0  0  0  0  0  0  0  0  0
   62.4462   34.5943   46.0256 H   0  0  0  0  0  0  0  0  0  0  0  0
   64.4222   34.7209   47.5453 H   0  0  0  0  0  0  0  0  0  0  0  0
   68.4194   29.1992   50.4041 H   0  0  0  0  0  0  0  0  0  0  0  0
   68.4555   29.0073   52.2133 H   0  0  0  0  0  0  0  0  0  0  0  0
  1  2  1  0
  2  3  1  0
  3  4  1  0
  4  5  1  0
  5  6  2  0
  6  7  1  0
  7  8  1  0
  8  9  1  0
  9 10  1  0
 10 11  1  0
 11 12  1  0
 12 13  1  0
 13 14  2  0
 14 15  1  0
 15 16  2  0
 16 17  1  0
 17 18  3  0
 16 19  1  0
 19 20  2  0
 11 21  1  0
 21 22  1  0
  7 23  2  0
 23 24  1  0
 24 25  1  0
 24 26  1  0
 26 27  1  0
 27 28  2  0
 28 29  1  0
 29 30  2  0
 30 31  1  0
 31 32  2  0
 23 33  1  0
 33 34  2  0
 34 35  1  0
 35  2  1  0
 34  5  1  0
 22  8  1  0
 32 27  1  0
 20 13  1  0
  1 36  1  0
  1 37  1  0
  1 38  1  0
  3 39  1  0
  3 40  1  0
  4 41  1  0
  4 42  1  0
  6 43  1  0
  9 44  1  0
  9 45  1  0
 10 46  1  0
 10 47  1  0
 11 48  1  0
 14 49  1  0
 15 50  1  0
 19 51  1  0
 20 52  1  0
 21 53  1  0
 21 54  1  0
 22 55  1  0
 22 56  1  0
 25 57  1  0
 25 58  1  0
 25 59  1  0
 26 60  1  0
 26 61  1  0
 28 62  1  0
 29 63  1  0
 30 64  1  0
 31 65  1  0
 32 66  1  0
 35 67  1  0
 35 68  1  0
M  CHG  1   6   1
M  END
>  <UniqueID>  (5) 
5

>  <SMILES>  (5) 
CN1CCc2[nH+]c(N3CCC(Oc4ccc(C#N)cc4)CC3)c(N(C)Cc3ccccc3)nc2C1

>  <Energy>  (5) 
83.27987650693419

>  <Genealogy>  (5) 
CN1CCc2[nH+]c(N3CCC(Oc4ccc(C#N)cc4)CC3)c(N(C)Cc3ccccc3)nc2C1 (protonated)
CN1CCc2[nH+]c(N3CCC(Oc4ccc(C#N)cc4)CC3)c(N(C)Cc3ccccc3)nc2C1 (3D coordinates assigned)
CN1CCc2[nH+]c(N3CCC(Oc4ccc(C#N)cc4)CC3)c(N(C)Cc3ccccc3)nc2C1 (nonaromatic ring conformer: 83.27987650693419 kcal/mol)

>  <smiles>  (5) 
CN1CCc2nc(N3CCC(Oc4ccc(C#N)cc4)CC3)c(N(C)Cc3ccccc3)nc2C1

>  <score_type>  (5) 
oracle

>  <origin>  (5) 
adg

>  <m_score__min__energy>  (5) 
-7.2800000000000002

>  <m_primary>  (5) 
energy

$$$$
5:0
     RDKit          3D

 37 40  0  0  0  0  0  0  0  0999 V2000
   58.5250   34.9590   44.8780 C   0  0  0  0  0  0  0  0  0  0  0  0
   58.4930   33.4700   45.0640 C   0  0  0  0  0  0  0  0  0  0  0  0
   57.9170   32.6480   44.0860 C   0  0  0  0  0  0  0  0  0  0  0  0
   57.8530   31.2640   44.2750 C   0  0  0  0  0  0  0  0  0  0  0  0
   58.3520   30.6820   45.4530 C   0  0  0  0  0  0  0  0  0  0  0  0
   58.2850   29.2170   45.6540 C   0  0  0  0  0  0  0  0  0  0  0  0
   58.2610   28.6400   46.8890 N   0  0  0  0  0  0  0  0  0  0  0  0
   58.2000   27.3340   46.5990 C   0  0  0  0  0  0  0  0  0  0  0  0
   58.1520   26.2560   47.4720 C   0  0  0  0  0  0  0  0  0  0  0  0
   58.0910   24.9700   46.9050 C   0  0  0  0  0  0  0  0  0  0  0  0
   58.0820   24.8170   45.4900 C   0  0  0  0  0  0  0  0  0  0  0  0
   58.0200   23.4830   44.8610 C   0  0  0  0  0  0  0  0  0  0  0  0
   58.7980   22.3650   45.1310 C   0  0  0  0  0  0  0  0  0  0  0  0
   58.3910   21.3590   44.3360 N   0  0  0  0  0  0  0  0  0  0  0  0
   57.4030   21.7950   43.5700 N   0  0  0  0  0  0  0  0  0  0  0  0
   56.6550   20.9620   42.6360 C   0  0  0  0  0  0  0  0  0  0  0  0
   57.1390   23.0800   43.8710 C   0  0  0  0  0  0  0  0  0  0  0  0
   58.1310   25.9280   44.6890 N   0  0  0  0  0  0  0  0  0  0  0  0
   58.1890   27.1560   45.2590 C   0  0  0  0  0  0  0  0  0  0  0  0
   58.2420   28.3310   44.6200 N   0  0  0  0  0  0  0  0  0  0  0  0
   58.9130   31.5120   46.4390 C   0  0  0  0  0  0  0  0  0  0  0  0
   58.9770   32.8960   46.2490 C   0  0  0  0  0  0  0  0  0  0  0  0
   58.5356   35.4512   45.8617 H   0  0  0  0  0  0  0  0  0  0  0  0
   59.4294   35.2392   44.3180 H   0  0  0  0  0  0  0  0  0  0  0  0
   57.6335   35.2778   44.3180 H   0  0  0  0  0  0  0  0  0  0  0  0
   57.5132   33.0938   43.1650 H   0  0  0  0  0  0  0  0  0  0  0  0
   57.4090   30.6263   43.4963 H   0  0  0  0  0  0  0  0  0  0  0  0
   58.1613   26.4013   48.5623 H   0  0  0  0  0  0  0  0  0  0  0  0
   58.0503   24.0833   47.5548 H   0  0  0  0  0  0  0  0  0  0  0  0
   59.6105   22.3110   45.8706 H   0  0  0  0  0  0  0  0  0  0  0  0
   58.7740   20.3880   44.3240 H   0  0  0  0  0  0  0  0  0  0  0  0
   56.0230   20.2582   43.1975 H   0  0  0  0  0  0  0  0  0  0  0  0
   56.0206   21.5997   42.0029 H   0  0  0  0  0  0  0  0  0  0  0  0
   57.3571   20.3996   42.0029 H   0  0  0  0  0  0  0  0  0  0  0  0
   56.3582   23.7029   43.4102 H   0  0  0  0  0  0  0  0  0  0  0  0
   59.3046   31.0696   47.3669 H   0  0  0  0  0  0  0  0  0  0  0  0
   59.4086   33.5371   47.0318 H   0  0  0  0  0  0  0  0  0  0  0  0
  1  2  1  0
  2  3  2  0
  3  4  1  0
  4  5  2  0
  5  6  1  0
  6  7  2  0
  7  8  1  0
  8  9  2  0
  9 10  1  0
 10 11  2  0
 11 12  1  0
 12 13  1  0
 13 14  2  0
 14 15  1  0
 15 16  1  0
 15 17  1  0
 11 18  1  0
 18 19  2  0
 19 20  1  0
  5 21  1  0
 21 22  2  0
 22  2  1  0
 20  6  1  0
 19  8  1  0
 17 12  2  0
  1 23  1  0
  1 24  1  0
  1 25  1  0
  3 26  1  0
  4 27  1  0
  9 28  1  0
 10 29  1  0
 13 30  1  0
 14 31  1  0
 16 32  1  0
 16 33  1  0
 16 34  1  0
 17 35  1  0
 21 36  1  0
 22 37  1  0
M  CHG  2  14   1  20  -1
M  END
>  <UniqueID>  (6) 
6

>  <SMILES>  (6) 
Cc1ccc(-c2nc3ccc(-c4c[nH+]n(C)c4)nc3[n-]2)cc1

>  <Energy>  (6) 
108.28993392394622

>  <Genealogy>  (6) 
Cc1ccc(-c2nc3ccc(-c4c[nH+]n(C)c4)nc3[n-]2)cc1 (protonated)
Cc1ccc(-c2nc3ccc(-c4c[nH+]n(C)c4)nc3[n-]2)cc1 (3D coordinates assigned)
Cc1ccc(-c2nc3ccc(-c4c[nH+]n(C)c4)nc3[n-]2)cc1 (optimized conformer: 108.28993392394622 kcal/mol)

>  <smiles>  (6) 
Cc1ccc(-c2nc3ccc(-c4cnn(C)c4)nc3[nH]2)cc1

>  <score_type>  (6) 
oracle

>  <origin>  (6) 
adg

>  <m_score__min__energy>  (6) 
-7.2699999999999996

>  <m_primary>  (6) 
energy

$$$$
6:0
     RDKit          3D

 41 43  0  0  0  0  0  0  0  0999 V2000
   59.4420   22.4640   44.8920 C   0  0  0  0  0  0  0  0  0  0  0  0
   58.1300   22.7820   45.6180 C   0  0  0  0  0  0  0  0  0  0  0  0
   56.9460   22.0680   44.9550 C   0  0  0  0  0  0  0  0  0  0  0  0
   57.8960   24.2800   45.6900 C   0  0  0  0  0  0  0  0  0  0  0  0
   58.9680   25.1860   45.6380 C   0  0  0  0  0  0  0  0  0  0  0  0
   58.7360   26.5620   45.7060 C   0  0  0  0  0  0  0  0  0  0  0  0
   57.4350   27.0660   45.8270 C   0  0  0  0  0  0  0  0  0  0  0  0
   57.2770   28.4920   45.8910 N   0  0  0  0  0  0  0  0  0  0  0  0
   56.6420   29.5360   44.6630 S   0  0  0  0  0  0  0  0  0  0  0  0
   55.1590   29.7030   44.8430 O   0  0  0  0  0  0  0  0  0  0  0  0
   56.9210   28.9630   43.3010 O   0  0  0  0  0  0  0  0  0  0  0  0
   57.4260   31.1070   44.8010 C   0  0  0  0  0  0  0  0  0  0  0  0
   57.6280   31.8950   43.6610 C   0  0  0  0  0  0  0  0  0  0  0  0
   58.2380   33.1480   43.7670 C   0  0  0  0  0  0  0  0  0  0  0  0
   58.6470   33.6300   45.0190 C   0  0  0  0  0  0  0  0  0  0  0  0
   59.2610   34.8870   45.1370 C   0  0  0  0  0  0  0  0  0  0  0  0
   59.6620   35.3560   46.3920 C   0  0  0  0  0  0  0  0  0  0  0  0
   59.4560   34.5770   47.5330 C   0  0  0  0  0  0  0  0  0  0  0  0
   58.8450   33.3230   47.4290 C   0  0  0  0  0  0  0  0  0  0  0  0
   58.4390   32.8400   46.1750 C   0  0  0  0  0  0  0  0  0  0  0  0
   57.8260   31.5830   46.0580 C   0  0  0  0  0  0  0  0  0  0  0  0
   56.3540   26.1600   45.8820 C   0  0  0  0  0  0  0  0  0  0  0  0
   55.0740   26.5790   46.0070 F   0  0  0  0  0  0  0  0  0  0  0  0
   56.5900   24.7820   45.8120 C   0  0  0  0  0  0  0  0  0  0  0  0
   60.2332   22.2722   45.6317 H   0  0  0  0  0  0  0  0  0  0  0  0
   59.3056   21.5729   44.2616 H   0  0  0  0  0  0  0  0  0  0  0  0
   59.7287   23.3187   44.2616 H   0  0  0  0  0  0  0  0  0  0  0  0
   58.2144   22.4055   46.6481 H   0  0  0  0  0  0  0  0  0  0  0  0
   56.2789   21.6657   45.7316 H   0  0  0  0  0  0  0  0  0  0  0  0
   56.3911   22.7822   44.3289 H   0  0  0  0  0  0  0  0  0  0  0  0
   57.3187   21.2439   44.3289 H   0  0  0  0  0  0  0  0  0  0  0  0
   59.9972   24.8096   45.5431 H   0  0  0  0  0  0  0  0  0  0  0  0
   59.5863   27.2586   45.6640 H   0  0  0  0  0  0  0  0  0  0  0  0
   57.3047   31.5257   42.6766 H   0  0  0  0  0  0  0  0  0  0  0  0
   58.3978   33.7580   42.8657 H   0  0  0  0  0  0  0  0  0  0  0  0
   59.4269   35.5037   44.2413 H   0  0  0  0  0  0  0  0  0  0  0  0
   60.1414   36.3420   46.4809 H   0  0  0  0  0  0  0  0  0  0  0  0
   59.7754   34.9510   48.5169 H   0  0  0  0  0  0  0  0  0  0  0  0
   58.6825   32.7146   48.3309 H   0  0  0  0  0  0  0  0  0  0  0  0
   57.6587   30.9691   46.9553 H   0  0  0  0  0  0  0  0  0  0  0  0
   55.7415   24.0832   45.8531 H   0  0  0  0  0  0  0  0  0  0  0  0
  1  2  1  0
  2  3  1  0
  2  4  1  0
  4  5  2  0
  5  6  1  0
  6  7  2  0
  7  8  1  0
  8  9  1  0
  9 10  2  0
  9 11  2  0
  9 12  1  0
 12 13  2  0
 13 14  1  0
 14 15  2  0
 15 16  1  0
 16 17  2  0
 17 18  1  0
 18 19  2  0
 19 20  1  0
 20 21  2  0
  7 22  1  0
 22 23  1  0
 22 24  2  0
 24  4  1  0
 21 12  1  0
 20 15  1  0
  1 25  1  0
  1 26  1  0
  1 27  1  0
  2 28  1  0
  3 29  1  0
  3 30  1  0
  3 31  1  0
  5 32  1  0
  6 33  1  0
 13 34  1  0
 14 35  1  0
 16 36  1  0
 17 37  1  0
 18 38  1  0
 19 39  1  0
 21 40  1  0
 24 41  1  0
M  CHG  1   8  -1
M  END
>  <UniqueID>  (7) 
7

>  <SMILES>  (7) 
CC(C)c1ccc([N-]S(=O)(=O)c2ccc3ccccc3c2)c(F)c1

>  <Energy>  (7) 
49.49744756523475

>  <Genealogy>  (7) 
CC(C)c1ccc([N-]S(=O)(=O)c2ccc3ccccc3c2)c(F)c1 (protonated)
CC(C)c1ccc([N-]S(=O)(=O)c2ccc3ccccc3c2)c(F)c1 (3D coordinates assigned)
CC(C)c1ccc([N-]S(=O)(=O)c2ccc3ccccc3c2)c(F)c1 (optimized conformer: 49.49744756523475 kcal/mol)

>  <smiles>  (7) 
CC(C)c1ccc(NS(=O)(=O)c2ccc3ccccc3c2)c(F)c1

>  <score_type>  (7) 
oracle

>  <origin>  (7) 
adg

>  <m_score__min__energy>  (7) 
-10.75

>  <m_primary>  (7) 
energy

$$$$
7:0
     RDKit          3D

 54 57  0  0  0  0  0  0  0  0999 V2000
   56.4730   20.0880   45.0360 C   0  0  0  0  0  0  0  0  0  0  0  0
   57.7880   20.7330   44.8750 N   0  0  0  0  0  0  0  0  0  0  0  0
   58.0420   21.6900   45.9670 C   0  0  0  0  0  0  0  0  0  0  0  0
   57.9770   21.3280   43.5270 C   0  0  0  0  0  0  0  0  0  0  0  0
   56.6760   21.6360   42.7520 C   0  0  0  0  0  0  0  0  0  0  0  0
   55.8910   22.6360   43.4020 O   0  0  0  0  0  0  0  0  0  0  0  0
   56.3690   23.8590   43.8990 C   0  0  0  0  0  0  0  0  0  0  0  0
   55.9910   24.3750   45.1520 C   0  0  0  0  0  0  0  0  0  0  0  0
   56.4980   25.6000   45.5940 C   0  0  0  0  0  0  0  0  0  0  0  0
   57.3940   26.3330   44.7960 C   0  0  0  0  0  0  0  0  0  0  0  0
   57.9320   27.6360   45.2650 C   0  0  0  0  0  0  0  0  0  0  0  0
   57.6420   28.8220   44.5670 C   0  0  0  0  0  0  0  0  0  0  0  0
   58.1460   30.0480   45.0090 C   0  0  0  0  0  0  0  0  0  0  0  0
   58.9540   30.1170   46.1570 C   0  0  0  0  0  0  0  0  0  0  0  0
   59.4940   31.4100   46.6330 C   0  0  0  0  0  0  0  0  0  0  0  0
   60.5880   31.5170   47.4200 N   0  0  0  0  0  0  0  0  0  0  0  0
   60.8970   32.8090   47.7300 C   0  0  0  0  0  0  0  0  0  0  0  0
   62.0610   33.1390   48.5930 C   0  0  0  0  0  0  0  0  0  0  0  0
   63.3480   32.6930   48.2320 C   0  0  0  0  0  0  0  0  0  0  0  0
   64.4550   32.9950   49.0300 C   0  0  0  0  0  0  0  0  0  0  0  0
   64.2960   33.7490   50.1940 C   0  0  0  0  0  0  0  0  0  0  0  0
   63.0290   34.2040   50.5610 C   0  0  0  0  0  0  0  0  0  0  0  0
   61.9170   33.9050   49.7680 C   0  0  0  0  0  0  0  0  0  0  0  0
   60.0250   33.7540   47.1800 C   0  0  0  0  0  0  0  0  0  0  0  0
   58.8610   32.9320   46.2920 S   0  0  0  0  0  0  0  0  0  0  0  0
   59.2440   28.9310   46.8540 C   0  0  0  0  0  0  0  0  0  0  0  0
   58.7380   27.7060   46.4140 C   0  0  0  0  0  0  0  0  0  0  0  0
   57.7720   25.8110   43.5470 C   0  0  0  0  0  0  0  0  0  0  0  0
   57.2650   24.5850   43.1080 C   0  0  0  0  0  0  0  0  0  0  0  0
   56.2475   19.9774   46.1069 H   0  0  0  0  0  0  0  0  0  0  0  0
   55.6994   20.7089   44.5606 H   0  0  0  0  0  0  0  0  0  0  0  0
   56.4904   19.0962   44.5606 H   0  0  0  0  0  0  0  0  0  0  0  0
   58.5080   19.9770   44.9650 H   0  0  0  0  0  0  0  0  0  0  0  0
   57.9081   21.1855   46.9353 H   0  0  0  0  0  0  0  0  0  0  0  0
   59.0718   22.0689   45.8903 H   0  0  0  0  0  0  0  0  0  0  0  0
   57.3356   22.5297   45.8903 H   0  0  0  0  0  0  0  0  0  0  0  0
   58.5324   22.2699   43.6463 H   0  0  0  0  0  0  0  0  0  0  0  0
   58.5125   20.5722   42.9336 H   0  0  0  0  0  0  0  0  0  0  0  0
   56.9382   21.9898   41.7440 H   0  0  0  0  0  0  0  0  0  0  0  0
   56.0804   20.7123   42.7067 H   0  0  0  0  0  0  0  0  0  0  0  0
   55.2924   23.8110   45.7875 H   0  0  0  0  0  0  0  0  0  0  0  0
   56.1934   25.9942   46.5747 H   0  0  0  0  0  0  0  0  0  0  0  0
   57.0130   28.7842   43.6654 H   0  0  0  0  0  0  0  0  0  0  0  0
   57.9083   30.9673   44.4536 H   0  0  0  0  0  0  0  0  0  0  0  0
   63.4826   32.1020   47.3141 H   0  0  0  0  0  0  0  0  0  0  0  0
   65.4541   32.6376   48.7401 H   0  0  0  0  0  0  0  0  0  0  0  0
   65.1685   33.9842   50.8212 H   0  0  0  0  0  0  0  0  0  0  0  0
   62.9047   34.7999   51.4772 H   0  0  0  0  0  0  0  0  0  0  0  0
   60.9222   34.2701   50.0630 H   0  0  0  0  0  0  0  0  0  0  0  0
   60.0903   34.8447   47.3069 H   0  0  0  0  0  0  0  0  0  0  0  0
   59.8752   28.9683   47.7541 H   0  0  0  0  0  0  0  0  0  0  0  0
   58.9725   26.7875   46.9720 H   0  0  0  0  0  0  0  0  0  0  0  0
   58.4721   26.3717   42.9103 H   0  0  0  0  0  0  0  0  0  0  0  0
   57.5739   24.1869   42.1302 H   0  0  0  0  0  0  0  0  0  0  0  0
  1  2  1  0
  2  3  1  0
  2  4  1  0
  4  5  1  0
  5  6  1  0
  6  7  1  0
  7  8  2  0
  8  9  1  0
  9 10  2  0
 10 11  1  0
 11 12  2  0
 12 13  1  0
 13 14  2  0
 14 15  1  0
 15 16  2  0
 16 17  1  0
 17 18  1  0
 18 19  2  0
 19 20  1  0
 20 21  2  0
 21 22  1  0
 22 23  2  0
 17 24  2  0
 24 25  1  0
 14 26  1  0
 26 27  2  0
 10 28  1  0
 28 29  2  0
 29  7  1  0
 27 11  1  0
 25 15  1  0
 23 18  1  0
  1 30  1  0
  1 31  1  0
  1 32  1  0
  2 33  1  0
  3 34  1  0
  3 35  1  0
  3 36  1  0
  4 37  1  0
  4 38  1  0
  5 39  1  0
  5 40  1  0
  8 41  1  0
  9 42  1  0
 12 43  1  0
 13 44  1  0
 19 45  1  0
 20 46  1  0
 21 47  1  0
 22 48  1  0
 23 49  1  0
 24 50  1  0
 26 51  1  0
 27 52  1  0
 28 53  1  0
 29 54  1  0
M  CHG  1   2   1
M  END
>  <UniqueID>  (8) 
8

>  <SMILES>  (8) 
C[NH+](C)CCOc1ccc(-c2ccc(-c3nc(-c4ccccc4)cs3)cc2)cc1

>  <Energy>  (8) 
99.20957808661421

>  <Genealogy>  (8) 
C[NH+](C)CCOc1ccc(-c2ccc(-c3nc(-c4ccccc4)cs3)cc2)cc1 (protonated)
C[NH+](C)CCOc1ccc(-c2ccc(-c3nc(-c4ccccc4)cs3)cc2)cc1 (3D coordinates assigned)
C[NH+](C)CCOc1ccc(-c2ccc(-c3nc(-c4ccccc4)cs3)cc2)cc1 (optimized conformer: 99.20957808661421 kcal/mol)

>  <smiles>  (8) 
CN(C)CCOc1ccc(-c2ccc(-c3nc(-c4ccccc4)cs3)cc2)cc1

>  <score_type>  (8) 
oracle

>  <origin>  (8) 
adg

>  <m_score__min__energy>  (8) 
-7.0700000000000003

>  <m_primary>  (8) 
energy

$$$$
8:0
     RDKit          3D

 41 44  0  0  0  0  0  0  0  0999 V2000
   55.2160   29.7090   43.5870 C   0  0  0  0  0  0  0  0  0  0  0  0
   55.4780   29.1640   44.8760 O   0  0  0  0  0  0  0  0  0  0  0  0
   56.6770   28.5330   45.2490 C   0  0  0  0  0  0  0  0  0  0  0  0
   56.7020   27.1790   45.6450 C   0  0  0  0  0  0  0  0  0  0  0  0
   57.8930   26.5830   46.0610 C   0  0  0  0  0  0  0  0  0  0  0  0
   57.9030   25.2820   46.4440 F   0  0  0  0  0  0  0  0  0  0  0  0
   59.0720   27.3250   46.0930 C   0  0  0  0  0  0  0  0  0  0  0  0
   59.0670   28.6640   45.6970 C   0  0  0  0  0  0  0  0  0  0  0  0
   57.8810   29.2770   45.2570 C   0  0  0  0  0  0  0  0  0  0  0  0
   57.9260   30.6960   44.8340 C   0  0  0  0  0  0  0  0  0  0  0  0
   57.9020   31.1180   43.5030 C   0  0  0  0  0  0  0  0  0  0  0  0
   58.0100   32.7960   43.4870 S   0  0  0  0  0  0  0  0  0  0  0  0
   58.0910   32.9180   45.1610 C   0  0  0  0  0  0  0  0  0  0  0  0
   58.2020   34.2060   45.9290 C   0  0  0  0  0  0  0  0  0  0  0  0
   59.4070   34.2830   46.7840 N   0  0  0  0  0  0  0  0  0  0  0  0
   59.1920   33.7150   48.1340 C   0  0  0  0  0  0  0  0  0  0  0  0
   60.3470   34.1210   49.0650 C   0  0  0  0  0  0  0  0  0  0  0  0
   61.6240   33.9420   48.3770 N   0  0  0  0  0  0  0  0  0  0  0  0
   62.8610   33.9680   48.8890 C   0  0  0  0  0  0  0  0  0  0  0  0
   63.7480   33.8320   47.8400 C   0  0  0  0  0  0  0  0  0  0  0  0
   63.0710   33.7340   46.6730 N   0  0  0  0  0  0  0  0  0  0  0  0
   61.7780   33.8260   47.0490 C   0  0  0  0  0  0  0  0  0  0  0  0
   60.6050   33.7120   46.1280 C   0  0  0  0  0  0  0  0  0  0  0  0
   58.0430   31.7020   45.7460 N   0  0  0  0  0  0  0  0  0  0  0  0
   54.7417   30.6956   43.6955 H   0  0  0  0  0  0  0  0  0  0  0  0
   56.1614   29.8154   43.0348 H   0  0  0  0  0  0  0  0  0  0  0  0
   54.5425   29.0371   43.0348 H   0  0  0  0  0  0  0  0  0  0  0  0
   55.7744   26.5881   45.6256 H   0  0  0  0  0  0  0  0  0  0  0  0
   60.0077   26.8554   46.4306 H   0  0  0  0  0  0  0  0  0  0  0  0
   60.0005   29.2450   45.7297 H   0  0  0  0  0  0  0  0  0  0  0  0
   57.8258   30.4668   42.6198 H   0  0  0  0  0  0  0  0  0  0  0  0
   58.2317   35.0382   45.2102 H   0  0  0  0  0  0  0  0  0  0  0  0
   57.3289   34.2606   46.5959 H   0  0  0  0  0  0  0  0  0  0  0  0
   58.2440   34.0950   48.5424 H   0  0  0  0  0  0  0  0  0  0  0  0
   59.1541   32.6180   48.0626 H   0  0  0  0  0  0  0  0  0  0  0  0
   60.2313   35.1768   49.3513 H   0  0  0  0  0  0  0  0  0  0  0  0
   60.3275   33.4886   49.9648 H   0  0  0  0  0  0  0  0  0  0  0  0
   63.1227   34.0777   49.9518 H   0  0  0  0  0  0  0  0  0  0  0  0
   64.8433   33.8070   47.9385 H   0  0  0  0  0  0  0  0  0  0  0  0
   60.8127   34.2636   45.1992 H   0  0  0  0  0  0  0  0  0  0  0  0
   60.4248   32.6528   45.8921 H   0  0  0  0  0  0  0  0  0  0  0  0
  1  2  1  0
  2  3  1  0
  3  4  2  0
  4  5  1  0
  5  6  1  0
  5  7  2  0
  7  8  1  0
  8  9  2  0
  9 10  1  0
 10 11  2  0
 11 12  1  0
 12 13  1  0
 13 14  1  0
 14 15  1  0
 15 16  1  0
 16 17  1  0
 17 18  1  0
 18 19  1  0
 19 20  2  0
 20 21  1  0
 21 22  2  0
 22 23  1  0
 13 24  2  0
  9  3  1  0
 24 10  1  0
 23 15  1  0
 22 18  1  0
  1 25  1  0
  1 26  1  0
  1 27  1  0
  4 28  1  0
  7 29  1  0
  8 30  1  0
 11 31  1  0
 14 32  1  0
 14 33  1  0
 16 34  1  0
 16 35  1  0
 17 36  1  0
 17 37  1  0
 19 38  1  0
 20 39  1  0
 23 40  1  0
 23 41  1  0
M  END
>  <UniqueID>  (9) 
9

>  <SMILES>  (9) 
COc1cc(F)ccc1-c1csc(CN2CCn3ccnc3C2)n1

>  <Energy>  (9) 
111.54859408814036

>  <Genealogy>  (9) 
COc1cc(F)ccc1-c1csc(CN2CCn3ccnc3C2)n1 (3D coordinates assigned)
COc1cc(F)ccc1-c1csc(CN2CCn3ccnc3C2)n1 (nonaromatic ring conformer: 111.54859408814036 kcal/mol)

>  <smiles>  (9) 
COc1cc(F)ccc1-c1csc(CN2CCn3ccnc3C2)n1

>  <score_type>  (9) 
oracle

>  <origin>  (9) 
adg

>  <m_score__min__energy>  (9) 
-8.0199999999999996

>  <m_primary>  (9) 
energy

$$$$
9:0
     RDKit          3D

 42 44  0  0  0  0  0  0  0  0999 V2000
   65.5190   32.6320   49.7760 C   0  0  0  0  0  0  0  0  0  0  0  0
   64.8640   33.1740   48.6690 O   0  0  0  0  0  0  0  0  0  0  0  0
   63.5410   32.8640   48.3850 C   0  0  0  0  0  0  0  0  0  0  0  0
   63.2200   31.8620   47.4980 C   0  0  0  0  0  0  0  0  0  0  0  0
   61.8970   31.5720   47.2320 C   0  0  0  0  0  0  0  0  0  0  0  0
   61.3520   30.6570   46.4270 N   0  0  0  0  0  0  0  0  0  0  0  0
   59.9900   30.7620   46.5140 C   0  0  0  0  0  0  0  0  0  0  0  0
   59.1420   29.8610   45.7410 C   0  0  0  0  0  0  0  0  0  0  0  0
   59.5950   28.6900   45.1670 C   0  0  0  0  0  0  0  0  0  0  0  0
   58.6610   27.9390   44.4780 C   0  0  0  0  0  0  0  0  0  0  0  0
   57.3770   28.3370   44.3770 N   0  0  0  0  0  0  0  0  0  0  0  0
   56.9470   29.4950   44.9500 C   0  0  0  0  0  0  0  0  0  0  0  0
   55.7060   29.8230   44.8180 N   0  0  0  0  0  0  0  0  0  0  0  0
   57.8330   30.2470   45.6270 N   0  0  0  0  0  0  0  0  0  0  0  0
   59.6600   31.7440   47.3720 N   0  0  0  0  0  0  0  0  0  0  0  0
   58.3500   32.1730   47.7370 C   0  0  0  0  0  0  0  0  0  0  0  0
   57.9890   33.5140   47.0750 C   0  0  0  0  0  0  0  0  0  0  0  0
   58.1360   32.4270   49.2080 C   0  0  0  0  0  0  0  0  0  0  0  0
   60.8430   32.2430   47.8160 C   0  0  0  0  0  0  0  0  0  0  0  0
   61.1970   33.2490   48.7070 C   0  0  0  0  0  0  0  0  0  0  0  0
   62.5130   33.5590   48.9900 C   0  0  0  0  0  0  0  0  0  0  0  0
   62.8800   34.5620   49.8790 O   0  0  0  0  0  0  0  0  0  0  0  0
   63.0730   34.2490   51.2460 C   0  0  0  0  0  0  0  0  0  0  0  0
   65.0574   33.0140   50.6985 H   0  0  0  0  0  0  0  0  0  0  0  0
   65.4353   31.5355   49.7510 H   0  0  0  0  0  0  0  0  0  0  0  0
   66.5805   32.9194   49.7510 H   0  0  0  0  0  0  0  0  0  0  0  0
   64.0184   31.2917   47.0006 H   0  0  0  0  0  0  0  0  0  0  0  0
   60.6442   28.3712   45.2534 H   0  0  0  0  0  0  0  0  0  0  0  0
   58.9720   26.9972   44.0023 H   0  0  0  0  0  0  0  0  0  0  0  0
   56.7260   27.7120   43.8370 H   0  0  0  0  0  0  0  0  0  0  0  0
   55.1000   30.0960   45.6320 H   0  0  0  0  0  0  0  0  0  0  0  0
   57.7296   31.3271   47.4061 H   0  0  0  0  0  0  0  0  0  0  0  0
   57.7870   34.2645   47.8534 H   0  0  0  0  0  0  0  0  0  0  0  0
   58.8282   33.8516   46.4491 H   0  0  0  0  0  0  0  0  0  0  0  0
   57.0937   33.3847   46.4491 H   0  0  0  0  0  0  0  0  0  0  0  0
   58.7358   31.7151   49.7941 H   0  0  0  0  0  0  0  0  0  0  0  0
   58.4449   33.4543   49.4515 H   0  0  0  0  0  0  0  0  0  0  0  0
   57.0712   32.2969   49.4515 H   0  0  0  0  0  0  0  0  0  0  0  0
   60.3996   33.8197   49.2054 H   0  0  0  0  0  0  0  0  0  0  0  0
   62.5974   35.0204   51.8695 H   0  0  0  0  0  0  0  0  0  0  0  0
   62.6213   33.2703   51.4654 H   0  0  0  0  0  0  0  0  0  0  0  0
   64.1503   34.2131   51.4654 H   0  0  0  0  0  0  0  0  0  0  0  0
  1  2  1  0
  2  3  1  0
  3  4  2  0
  4  5  1  0
  5  6  1  0
  6  7  2  0
  7  8  1  0
  8  9  1  0
  9 10  2  0
 10 11  1  0
 11 12  1  0
 12 13  2  3
 12 14  1  0
  7 15  1  0
 15 16  1  0
 16 17  1  0
 16 18  1  0
 15 19  1  0
 19 20  1  0
 20 21  2  0
 21 22  1  0
 22 23  1  0
 21  3  1  0
 19  5  2  0
 14  8  2  0
  1 24  1  0
  1 25  1  0
  1 26  1  0
  4 27  1  0
  9 28  1  0
 10 29  1  0
 11 30  1  0
 13 31  1  0
 16 32  1  0
 17 33  1  0
 17 34  1  0
 17 35  1  0
 18 36  1  0
 18 37  1  0
 18 38  1  0
 20 39  1  0
 23 40  1  0
 23 41  1  0
 23 42  1  0
M  END
>  <smiles>  (10) 
COc1cc2nc(-c3cc[nH]c(=N)n3)n(C(C)C)c2cc1OC

>  <score_type>  (10) 
oracle

>  <origin>  (10) 
adg

>  <m_score__min__energy>  (10) 
-7.2300000000000004

>  <m_primary>  (10) 
energy

$$$$
10:0
     RDKit          3D

 22 22  0  0  0  0  0  0  0  0999 V2000
   57.0370   22.0300   43.6000 C   0  0  0  0  0  0  0  0  0  0  0  0
   56.4080   23.7280   43.4760 S   0  0  0  0  0  0  0  0  0  0  0  0
   55.1040   23.9240   44.7020 C   0  0  0  0  0  0  0  0  0  0  0  0
   55.6390   23.9880   46.1190 C   0  0  0  0  0  0  0  0  0  0  0  0
   55.6290   25.3780   46.4900 N   0  0  0  0  0  0  0  0  0  0  0  0
   56.5380   26.2230   46.2210 C   0  0  0  0  0  0  0  0  0  0  0  0
   57.8210   25.9860   46.5540 N   0  0  0  0  0  0  0  0  0  0  0  0
   58.7290   26.9210   46.2400 C   0  0  0  0  0  0  0  0  0  0  0  0
   60.4110   26.6650   46.6490 Cl  0  0  0  0  0  0  0  0  0  0  0  0
   58.3930   28.1100   45.5920 C   0  0  0  0  0  0  0  0  0  0  0  0
   59.5920   29.3190   45.1900 Cl  0  0  0  0  0  0  0  0  0  0  0  0
   57.0760   28.3030   45.2760 C   0  0  0  0  0  0  0  0  0  0  0  0
   56.5290   29.7720   44.4530 Cl  0  0  0  0  0  0  0  0  0  0  0  0
   56.1620   27.3620   45.5910 N   0  0  0  0  0  0  0  0  0  0  0  0
   57.1395   21.7534   44.6597 H   0  0  0  0  0  0  0  0  0  0  0  0
   56.3342   21.3418   43.1077 H   0  0  0  0  0  0  0  0  0  0  0  0
   58.0186   21.9657   43.1077 H   0  0  0  0  0  0  0  0  0  0  0  0
   54.5580   24.8550   44.4895 H   0  0  0  0  0  0  0  0  0  0  0  0
   54.4482   23.0435   44.6336 H   0  0  0  0  0  0  0  0  0  0  0  0
   54.9948   23.4080   46.7963 H   0  0  0  0  0  0  0  0  0  0  0  0
   56.6515   23.5632   46.1845 H   0  0  0  0  0  0  0  0  0  0  0  0
   55.1410   27.5180   45.3430 H   0  0  0  0  0  0  0  0  0  0  0  0
  1  2  1  0
  2  3  1  0
  3  4  1  0
  4  5  1  0
  5  6  2  3
  6  7  1  0
  7  8  2  0
  8  9  1  0
  8 10  1  0
 10 11  1  0
 10 12  2  0
 12 13  1  0
 12 14  1  0
 14  6  1  0
  1 15  1  0
  1 16  1  0
  1 17  1  0
  3 18  1  0
  3 19  1  0
  4 20  1  0
  4 21  1  0
 14 22  1  0
M  END
>  <smiles>  (11) 
CSCCN=c1nc(Cl)c(Cl)c(Cl)[nH]1

>  <score_type>  (11) 
oracle

>  <origin>  (11) 
adg

>  <m_score__min__energy>  (11) 
-5.6299999999999999

>  <m_primary>  (11) 
energy

$$$$
11:0
     RDKit          3D

 44 45  0  0  0  0  0  0  0  0999 V2000
   56.2170   19.6580   44.8760 C   0  0  0  0  0  0  0  0  0  0  0  0
   55.9900   20.7750   44.0240 O   0  0  0  0  0  0  0  0  0  0  0  0
   55.8550   22.0980   44.4730 C   0  0  0  0  0  0  0  0  0  0  0  0
   56.5120   23.1770   43.8530 C   0  0  0  0  0  0  0  0  0  0  0  0
   56.3430   24.4790   44.3370 C   0  0  0  0  0  0  0  0  0  0  0  0
   55.5050   24.7220   45.4400 C   0  0  0  0  0  0  0  0  0  0  0  0
   55.3310   26.0370   45.9830 N   0  0  0  0  0  0  0  0  0  0  0  0
   56.3160   27.0770   46.0010 C   0  0  0  0  0  0  0  0  0  0  0  0
   56.1310   28.1480   45.3630 O   0  0  0  0  0  0  0  0  0  0  0  0
   57.5680   26.8980   46.8150 C   0  0  0  0  0  0  0  0  0  0  0  0
   58.7920   26.7390   45.9920 N   0  0  0  0  0  0  0  0  0  0  0  0
   59.1760   25.3260   45.8480 C   0  0  0  0  0  0  0  0  0  0  0  0
   59.9340   27.5460   46.4720 C   0  0  0  0  0  0  0  0  0  0  0  0
   59.8150   28.9650   46.0030 C   0  0  0  0  0  0  0  0  0  0  0  0
   60.7750   29.7630   46.1850 O   0  0  0  0  0  0  0  0  0  0  0  0
   58.6220   29.3970   45.3310 N   0  0  0  0  0  0  0  0  0  0  0  0
   58.2860   30.7730   45.0940 C   0  0  0  0  0  0  0  0  0  0  0  0
   58.0790   31.2650   43.7900 C   0  0  0  0  0  0  0  0  0  0  0  0
   57.7790   32.6150   43.5850 C   0  0  0  0  0  0  0  0  0  0  0  0
   57.6950   33.4880   44.6740 C   0  0  0  0  0  0  0  0  0  0  0  0
   57.9220   33.0140   45.9690 C   0  0  0  0  0  0  0  0  0  0  0  0
   57.8520   33.8630   47.0230 F   0  0  0  0  0  0  0  0  0  0  0  0
   58.2220   31.6640   46.1770 C   0  0  0  0  0  0  0  0  0  0  0  0
   54.8700   23.6430   46.0660 C   0  0  0  0  0  0  0  0  0  0  0  0
   55.0360   22.3430   45.5810 C   0  0  0  0  0  0  0  0  0  0  0  0
   56.1518   19.9787   45.9262 H   0  0  0  0  0  0  0  0  0  0  0  0
   55.4572   18.8871   44.6802 H   0  0  0  0  0  0  0  0  0  0  0  0
   57.2175   19.2448   44.6802 H   0  0  0  0  0  0  0  0  0  0  0  0
   57.1615   22.9961   42.9838 H   0  0  0  0  0  0  0  0  0  0  0  0
   56.8677   25.3158   43.8528 H   0  0  0  0  0  0  0  0  0  0  0  0
   57.6938   27.7810   47.4588 H   0  0  0  0  0  0  0  0  0  0  0  0
   57.4463   25.9717   47.3957 H   0  0  0  0  0  0  0  0  0  0  0  0
   59.2983   24.8759   46.8442 H   0  0  0  0  0  0  0  0  0  0  0  0
   58.3917   24.7873   45.2961 H   0  0  0  0  0  0  0  0  0  0  0  0
   60.1251   25.2584   45.2961 H   0  0  0  0  0  0  0  0  0  0  0  0
   59.9508   27.5295   47.5717 H   0  0  0  0  0  0  0  0  0  0  0  0
   60.8637   27.1175   46.0694 H   0  0  0  0  0  0  0  0  0  0  0  0
   57.9900   28.6620   44.9390 H   0  0  0  0  0  0  0  0  0  0  0  0
   58.1538   30.5839   42.9295 H   0  0  0  0  0  0  0  0  0  0  0  0
   57.6088   32.9910   42.5654 H   0  0  0  0  0  0  0  0  0  0  0  0
   57.4502   34.5480   44.5114 H   0  0  0  0  0  0  0  0  0  0  0  0
   58.4093   31.2974   47.1971 H   0  0  0  0  0  0  0  0  0  0  0  0
   54.2352   23.8198   46.9468 H   0  0  0  0  0  0  0  0  0  0  0  0
   54.5192   21.5062   46.0737 H   0  0  0  0  0  0  0  0  0  0  0  0
  1  2  1  0
  2  3  1  0
  3  4  2  0
  4  5  1  0
  5  6  2  0
  6  7  1  0
  7  8  1  0
  8  9  2  0
  8 10  1  0
 10 11  1  0
 11 12  1  0
 11 13  1  0
 13 14  1  0
 14 15  2  0
 14 16  1  0
 16 17  1  0
 17 18  2  0
 18 19  1  0
 19 20  2  0
 20 21  1  0
 21 22  1  0
 21 23  2  0
  6 24  1  0
 24 25  2  0
 25  3  1  0
 23 17  1  0
  1 26  1  0
  1 27  1  0
  1 28  1  0
  4 29  1  0
  5 30  1  0
 10 31  1  0
 10 32  1  0
 12 33  1  0
 12 34  1  0
 12 35  1  0
 13 36  1  0
 13 37  1  0
 16 38  1  0
 18 39  1  0
 19 40  1  0
 20 41  1  0
 23 42  1  0
 24 43  1  0
 25 44  1  0
M  CHG  1   7  -1
M  END
>  <UniqueID>  (12) 
10

>  <SMILES>  (12) 
COc1ccc([N-]C(=O)CN(C)CC(=O)Nc2cccc(F)c2)cc1

>  <Energy>  (12) 
51.05697812189251

>  <Genealogy>  (12) 
COc1ccc([N-]C(=O)CN(C)CC(=O)Nc2cccc(F)c2)cc1 (protonated)
COc1ccc([N-]C(=O)CN(C)CC(=O)Nc2cccc(F)c2)cc1 (3D coordinates assigned)
COc1ccc([N-]C(=O)CN(C)CC(=O)Nc2cccc(F)c2)cc1 (optimized conformer: 51.05697812189251 kcal/mol)

>  <smiles>  (12) 
COc1ccc(NC(=O)CN(C)CC(=O)Nc2cccc(F)c2)cc1

>  <score_type>  (12) 
oracle

>  <origin>  (12) 
adg

>  <m_score__min__energy>  (12) 
-9.0899999999999999

>  <m_primary>  (12) 
energy

$$$$
12:0
     RDKit          3D

 47 49  0  0  0  0  0  0  0  0999 V2000
   62.0920   31.8000   47.4190 C   0  0  0  0  0  0  0  0  0  0  0  0
   61.5240   30.4940   47.4550 O   0  0  0  0  0  0  0  0  0  0  0  0
   60.2680   30.1550   46.9300 C   0  0  0  0  0  0  0  0  0  0  0  0
   59.7910   30.7270   45.7330 C   0  0  0  0  0  0  0  0  0  0  0  0
   58.5120   30.4150   45.2520 C   0  0  0  0  0  0  0  0  0  0  0  0
   57.6860   29.5510   45.9910 C   0  0  0  0  0  0  0  0  0  0  0  0
   58.1540   28.9800   47.1760 C   0  0  0  0  0  0  0  0  0  0  0  0
   59.4500   29.2420   47.6310 C   0  0  0  0  0  0  0  0  0  0  0  0
   59.8770   28.5960   48.8000 O   0  0  0  0  0  0  0  0  0  0  0  0
   59.6380   29.0690   50.1290 C   0  0  0  0  0  0  0  0  0  0  0  0
   58.9380   30.4370   50.1230 C   0  0  0  0  0  0  0  0  0  0  0  0
   59.8410   31.6270   50.4990 C   0  0  0  0  0  0  0  0  0  0  0  0
   59.5950   32.8860   49.6620 C   0  0  0  0  0  0  0  0  0  0  0  0
   58.6050   32.6360   48.6670 O   0  0  0  0  0  0  0  0  0  0  0  0
   58.5380   33.3020   47.4340 C   0  0  0  0  0  0  0  0  0  0  0  0
   57.3400   33.2430   46.7110 C   0  0  0  0  0  0  0  0  0  0  0  0
   57.2260   33.8840   45.4730 C   0  0  0  0  0  0  0  0  0  0  0  0
   58.3120   34.5900   44.9490 C   0  0  0  0  0  0  0  0  0  0  0  0
   59.5120   34.6570   45.6620 C   0  0  0  0  0  0  0  0  0  0  0  0
   59.6290   34.0180   46.9000 C   0  0  0  0  0  0  0  0  0  0  0  0
   56.3710   29.2400   45.5220 N   0  0  0  0  0  0  0  0  0  0  0  0
   55.9540   29.6390   44.2150 C   0  0  0  0  0  0  0  0  0  0  0  0
   54.7720   29.4210   43.8400 O   0  0  0  0  0  0  0  0  0  0  0  0
   56.9520   30.2410   43.2690 C   0  0  0  0  0  0  0  0  0  0  0  0
   57.9670   31.1090   44.0250 C   0  0  0  0  0  0  0  0  0  0  0  0
   62.2486   32.1602   48.4465 H   0  0  0  0  0  0  0  0  0  0  0  0
   63.0566   31.7659   46.8914 H   0  0  0  0  0  0  0  0  0  0  0  0
   61.4093   32.4823   46.8914 H   0  0  0  0  0  0  0  0  0  0  0  0
   60.4289   31.4250   45.1710 H   0  0  0  0  0  0  0  0  0  0  0  0
   57.4965   28.3172   47.7577 H   0  0  0  0  0  0  0  0  0  0  0  0
   59.0012   28.3441   50.6572 H   0  0  0  0  0  0  0  0  0  0  0  0
   60.6082   29.1802   50.6353 H   0  0  0  0  0  0  0  0  0  0  0  0
   58.5419   30.6141   49.1122 H   0  0  0  0  0  0  0  0  0  0  0  0
   58.1549   30.3872   50.8938 H   0  0  0  0  0  0  0  0  0  0  0  0
   59.6642   31.8746   51.5561 H   0  0  0  0  0  0  0  0  0  0  0  0
   60.8773   31.3135   50.3044 H   0  0  0  0  0  0  0  0  0  0  0  0
   59.2505   33.6972   50.3202 H   0  0  0  0  0  0  0  0  0  0  0  0
   60.5339   33.1741   49.1665 H   0  0  0  0  0  0  0  0  0  0  0  0
   56.4824   32.6885   47.1197 H   0  0  0  0  0  0  0  0  0  0  0  0
   56.2813   33.8323   44.9119 H   0  0  0  0  0  0  0  0  0  0  0  0
   58.2223   35.0932   43.9750 H   0  0  0  0  0  0  0  0  0  0  0  0
   60.3660   35.2135   45.2485 H   0  0  0  0  0  0  0  0  0  0  0  0
   60.5747   34.0740   47.4590 H   0  0  0  0  0  0  0  0  0  0  0  0
   57.4864   29.4335   42.7471 H   0  0  0  0  0  0  0  0  0  0  0  0
   56.4153   30.8747   42.5476 H   0  0  0  0  0  0  0  0  0  0  0  0
   58.8035   31.3442   43.3505 H   0  0  0  0  0  0  0  0  0  0  0  0
   57.4497   32.0217   44.3558 H   0  0  0  0  0  0  0  0  0  0  0  0
  1  2  1  0
  2  3  1  0
  3  4  2  0
  4  5  1  0
  5  6  2  0
  6  7  1  0
  7  8  2  0
  8  9  1  0
  9 10  1  0
 10 11  1  0
 11 12  1  0
 12 13  1  0
 13 14  1  0
 14 15  1  0
 15 16  2  0
 16 17  1  0
 17 18  2  0
 18 19  1  0
 19 20  2  0
  6 21  1  0
 21 22  1  0
 22 23  2  0
 22 24  1  0
 24 25  1  0
  8  3  1  0
 20 15  1  0
 25  5  1  0
  1 26  1  0
  1 27  1  0
  1 28  1  0
  4 29  1  0
  7 30  1  0
 10 31  1  0
 10 32  1  0
 11 33  1  0
 11 34  1  0
 12 35  1  0
 12 36  1  0
 13 37  1  0
 13 38  1  0
 16 39  1  0
 17 40  1  0
 18 41  1  0
 19 42  1  0
 20 43  1  0
 24 44  1  0
 24 45  1  0
 25 46  1  0
 25 47  1  0
M  CHG  1  21  -1
M  END
>  <UniqueID>  (13) 
11

>  <SMILES>  (13) 
COc1cc2c(cc1OCCCCOc1ccccc1)[N-]C(=O)CC2

>  <Energy>  (13) 
47.77140749822582

>  <Genealogy>  (13) 
COc1cc2c(cc1OCCCCOc1ccccc1)[N-]C(=O)CC2 (protonated)
COc1cc2c(cc1OCCCCOc1ccccc1)[N-]C(=O)CC2 (3D coordinates assigned)
COc1cc2c(cc1OCCCCOc1ccccc1)[N-]C(=O)CC2 (nonaromatic ring conformer: 47.77140749822582 kcal/mol)

>  <smiles>  (13) 
COc1cc2c(cc1OCCCCOc1ccccc1)NC(=O)CC2

>  <score_type>  (13) 
oracle

>  <origin>  (13) 
adg

>  <m_score__min__energy>  (13) 
-9.5

>  <m_primary>  (13) 
energy

$$$$
13:0
     RDKit          3D

 44 46  0  0  0  0  0  0  0  0999 V2000
   65.4570   33.0780   49.7500 C   0  0  0  0  0  0  0  0  0  0  0  0
   64.6820   33.4430   48.6130 O   0  0  0  0  0  0  0  0  0  0  0  0
   63.3340   33.1010   48.4310 C   0  0  0  0  0  0  0  0  0  0  0  0
   62.9200   32.1230   47.5060 C   0  0  0  0  0  0  0  0  0  0  0  0
   61.5630   31.8210   47.3600 C   0  0  0  0  0  0  0  0  0  0  0  0
   60.6040   32.4880   48.1320 C   0  0  0  0  0  0  0  0  0  0  0  0
   58.8890   32.1380   47.9340 S   0  0  0  0  0  0  0  0  0  0  0  0
   58.2010   32.3490   49.2550 O   0  0  0  0  0  0  0  0  0  0  0  0
   58.7020   30.7030   47.5230 O   0  0  0  0  0  0  0  0  0  0  0  0
   58.2070   33.2100   46.7290 N   0  0  0  0  0  0  0  0  0  0  0  0
   58.5130   34.6110   47.0470 C   0  0  0  0  0  0  0  0  0  0  0  0
   59.6570   35.0440   46.1570 C   0  0  0  0  0  0  0  0  0  0  0  0
   59.4920   34.2040   44.9160 C   0  0  0  0  0  0  0  0  0  0  0  0
   58.7710   32.9380   45.3930 C   0  0  2  0  0  0  0  0  0  0  0  0
   57.6550   32.5300   44.4160 C   0  0  0  0  0  0  0  0  0  0  0  0
   56.9830   31.3520   44.8630 O   0  0  0  0  0  0  0  0  0  0  0  0
   57.5130   30.0490   44.8690 C   0  0  0  0  0  0  0  0  0  0  0  0
   58.8580   29.7590   44.5640 C   0  0  0  0  0  0  0  0  0  0  0  0
   59.3100   28.4390   44.5950 C   0  0  0  0  0  0  0  0  0  0  0  0
   58.4220   27.4170   44.9340 C   0  0  0  0  0  0  0  0  0  0  0  0
   57.1290   27.7120   45.2290 N   0  0  0  0  0  0  0  0  0  0  0  0
   56.6630   28.9900   45.2040 C   0  0  0  0  0  0  0  0  0  0  0  0
   61.0150   33.4570   49.0560 C   0  0  0  0  0  0  0  0  0  0  0  0
   62.3700   33.7620   49.2020 C   0  0  0  0  0  0  0  0  0  0  0  0
   64.9073   33.3369   50.6669 H   0  0  0  0  0  0  0  0  0  0  0  0
   65.6486   31.9950   49.7308 H   0  0  0  0  0  0  0  0  0  0  0  0
   66.4140   33.6201   49.7308 H   0  0  0  0  0  0  0  0  0  0  0  0
   63.6675   31.5947   46.8960 H   0  0  0  0  0  0  0  0  0  0  0  0
   61.2471   31.0560   46.6354 H   0  0  0  0  0  0  0  0  0  0  0  0
   57.6309   35.2400   46.8563 H   0  0  0  0  0  0  0  0  0  0  0  0
   58.7882   34.7148   48.1070 H   0  0  0  0  0  0  0  0  0  0  0  0
   59.5820   36.1149   45.9171 H   0  0  0  0  0  0  0  0  0  0  0  0
   60.6391   34.9072   46.6333 H   0  0  0  0  0  0  0  0  0  0  0  0
   58.8873   34.7351   44.1662 H   0  0  0  0  0  0  0  0  0  0  0  0
   60.4559   33.9773   44.4369 H   0  0  0  0  0  0  0  0  0  0  0  0
   59.4855   32.1029   45.4387 H   0  0  0  0  0  0  0  0  0  0  0  0
   56.9271   33.3512   44.3394 H   0  0  0  0  0  0  0  0  0  0  0  0
   58.1089   32.3216   43.4359 H   0  0  0  0  0  0  0  0  0  0  0  0
   59.5508   30.5722   44.3018 H   0  0  0  0  0  0  0  0  0  0  0  0
   60.3577   28.2059   44.3542 H   0  0  0  0  0  0  0  0  0  0  0  0
   58.7687   26.3735   44.9623 H   0  0  0  0  0  0  0  0  0  0  0  0
   55.6098   29.1919   45.4491 H   0  0  0  0  0  0  0  0  0  0  0  0
   60.2669   33.9803   49.6696 H   0  0  0  0  0  0  0  0  0  0  0  0
   62.6823   34.5271   49.9280 H   0  0  0  0  0  0  0  0  0  0  0  0
  1  2  1  0
  2  3  1  0
  3  4  2  0
  4  5  1  0
  5  6  2  0
  6  7  1  0
  7  8  2  0
  7  9  2  0
  7 10  1  0
 10 11  1  0
 11 12  1  0
 12 13  1  0
 13 14  1  0
 14 15  1  0
 15 16  1  0
 16 17  1  0
 17 18  2  0
 18 19  1  0
 19 20  2  0
 20 21  1  0
 21 22  2  0
  6 23  1  0
 23 24  2  0
 24  3  1  0
 14 10  1  0
 22 17  1  0
  1 25  1  0
  1 26  1  0
  1 27  1  0
  4 28  1  0
  5 29  1  0
 11 30  1  0
 11 31  1  0
 12 32  1  0
 12 33  1  0
 13 34  1  0
 13 35  1  0
 14 36  1  1
 15 37  1  0
 15 38  1  0
 18 39  1  0
 19 40  1  0
 20 41  1  0
 22 42  1  0
 23 43  1  0
 24 44  1  0
M  END
>  <UniqueID>  (14) 
12

>  <SMILES>  (14) 
COc1ccc(S(=O)(=O)N2CCC[C@@H]2COc2cccnc2)cc1

>  <Energy>  (14) 
43.78146257468179

>  <Genealogy>  (14) 
COc1ccc(S(=O)(=O)N2CCC[C@@H]2COc2cccnc2)cc1 (chirality)
COc1ccc(S(=O)(=O)N2CCC[C@@H]2COc2cccnc2)cc1 (3D coordinates assigned)
COc1ccc(S(=O)(=O)N2CCC[C@@H]2COc2cccnc2)cc1 (nonaromatic ring conformer: 43.78146257468179 kcal/mol)

>  <smiles>  (14) 
COc1ccc(S(=O)(=O)N2CCCC2COc2cccnc2)cc1

>  <score_type>  (14) 
oracle

>  <origin>  (14) 
adg

>  <m_score__min__energy>  (14) 
-7.9100000000000001

>  <m_primary>  (14) 
energy

$$$$
14:0
     RDKit          3D

 44 46  0  0  0  0  0  0  0  0999 V2000
   63.3560   33.0260   47.3800 C   0  0  0  0  0  0  0  0  0  0  0  0
   62.1910   33.3580   48.1260 O   0  0  0  0  0  0  0  0  0  0  0  0
   60.8810   33.2810   47.6270 C   0  0  0  0  0  0  0  0  0  0  0  0
   59.8780   34.1960   47.9980 C   0  0  0  0  0  0  0  0  0  0  0  0
   58.5920   34.0840   47.4640 C   0  0  0  0  0  0  0  0  0  0  0  0
   58.2920   33.0600   46.5650 C   0  0  0  0  0  0  0  0  0  0  0  0
   59.2780   32.1260   46.1950 C   0  0  0  0  0  0  0  0  0  0  0  0
   58.9630   31.0120   45.2130 C   0  0  2  0  0  0  0  0  0  0  0  0
   57.9270   31.5040   44.1890 C   0  0  0  0  0  0  0  0  0  0  0  0
   57.4500   30.3720   43.3790 N   0  0  0  0  0  0  0  0  0  0  0  0
   56.6410   30.8630   42.2540 C   0  0  0  0  0  0  0  0  0  0  0  0
   56.6450   29.4650   44.2180 C   0  0  0  0  0  0  0  0  0  0  0  0
   57.4350   28.9720   45.4130 C   0  0  0  0  0  0  0  0  0  0  0  0
   57.0530   27.7870   46.0830 C   0  0  0  0  0  0  0  0  0  0  0  0
   55.9260   27.0210   45.6470 N   0  0  0  0  0  0  0  0  0  0  0  0
   55.9330   25.5910   45.6230 C   0  0  0  0  0  0  0  0  0  0  0  0
   56.9530   24.8700   44.8080 C   0  0  0  0  0  0  0  0  0  0  0  0
   55.0640   24.9360   46.2580 O   0  0  0  0  0  0  0  0  0  0  0  0
   57.7690   27.3540   47.2040 C   0  0  0  0  0  0  0  0  0  0  0  0
   58.8700   28.0780   47.6590 C   0  0  0  0  0  0  0  0  0  0  0  0
   59.2490   29.2540   47.0130 C   0  0  0  0  0  0  0  0  0  0  0  0
   58.5160   29.7380   45.9130 C   0  0  0  0  0  0  0  0  0  0  0  0
   60.5730   32.2540   46.7260 C   0  0  0  0  0  0  0  0  0  0  0  0
   64.1793   32.7914   48.0708 H   0  0  0  0  0  0  0  0  0  0  0  0
   63.1486   32.1512   46.7462 H   0  0  0  0  0  0  0  0  0  0  0  0
   63.6409   33.8787   46.7462 H   0  0  0  0  0  0  0  0  0  0  0  0
   60.1074   35.0019   48.7107 H   0  0  0  0  0  0  0  0  0  0  0  0
   57.8135   34.8053   47.7532 H   0  0  0  0  0  0  0  0  0  0  0  0
   57.2792   32.9821   46.1430 H   0  0  0  0  0  0  0  0  0  0  0  0
   59.8869   30.7494   44.6769 H   0  0  0  0  0  0  0  0  0  0  0  0
   57.0766   31.9577   44.7191 H   0  0  0  0  0  0  0  0  0  0  0  0
   58.3941   32.2507   43.5300 H   0  0  0  0  0  0  0  0  0  0  0  0
   55.7608   31.3972   42.6410 H   0  0  0  0  0  0  0  0  0  0  0  0
   57.2444   31.5474   41.6396 H   0  0  0  0  0  0  0  0  0  0  0  0
   56.3125   30.0118   41.6396 H   0  0  0  0  0  0  0  0  0  0  0  0
   55.7545   30.0033   44.5748 H   0  0  0  0  0  0  0  0  0  0  0  0
   56.3570   28.5947   43.6100 H   0  0  0  0  0  0  0  0  0  0  0  0
   57.6665   24.3656   45.4762 H   0  0  0  0  0  0  0  0  0  0  0  0
   56.4540   24.1229   44.1734 H   0  0  0  0  0  0  0  0  0  0  0  0
   57.4908   25.5897   44.1734 H   0  0  0  0  0  0  0  0  0  0  0  0
   57.4617   26.4376   47.7291 H   0  0  0  0  0  0  0  0  0  0  0  0
   59.4406   27.7209   48.5290 H   0  0  0  0  0  0  0  0  0  0  0  0
   60.1301   29.8095   47.3667 H   0  0  0  0  0  0  0  0  0  0  0  0
   61.3544   31.5386   46.4302 H   0  0  0  0  0  0  0  0  0  0  0  0
  1  2  1  0
  2  3  1  0
  3  4  2  0
  4  5  1  0
  5  6  2  0
  6  7  1  0
  7  8  1  0
  8  9  1  0
  9 10  1  0
 10 11  1  0
 10 12  1  0
 12 13  1  0
 13 14  2  0
 14 15  1  0
 15 16  1  0
 16 17  1  0
 16 18  2  0
 14 19  1  0
 19 20  2  0
 20 21  1  0
 21 22  2  0
  7 23  2  0
 23  3  1  0
 22  8  1  0
 22 13  1  0
  1 24  1  0
  1 25  1  0
  1 26  1  0
  4 27  1  0
  5 28  1  0
  6 29  1  0
  8 30  1  6
  9 31  1  0
  9 32  1  0
 11 33  1  0
 11 34  1  0
 11 35  1  0
 12 36  1  0
 12 37  1  0
 17 38  1  0
 17 39  1  0
 17 40  1  0
 19 41  1  0
 20 42  1  0
 21 43  1  0
 23 44  1  0
M  CHG  1  15  -1
M  END
>  <UniqueID>  (15) 
13

>  <SMILES>  (15) 
COc1cccc([C@@H]2CN(C)Cc3c([N-]C(C)=O)cccc32)c1

>  <Energy>  (15) 
55.54088310890759

>  <Genealogy>  (15) 
COc1cccc(C2CN(C)Cc3c([N-]C(C)=O)cccc32)c1 (protonated)
COc1cccc([C@@H]2CN(C)Cc3c([N-]C(C)=O)cccc32)c1 (chirality)
COc1cccc([C@@H]2CN(C)Cc3c([N-]C(C)=O)cccc32)c1 (3D coordinates assigned)
COc1cccc([C@@H]2CN(C)Cc3c([N-]C(C)=O)cccc32)c1 (nonaromatic ring conformer: 55.54088310890759 kcal/mol)

>  <smiles>  (15) 
COc1cccc(C2CN(C)Cc3c(NC(C)=O)cccc32)c1

>  <score_type>  (15) 
oracle

>  <origin>  (15) 
adg

>  <m_score__min__energy>  (15) 
-9.3499999999999996

>  <m_primary>  (15) 
energy

$$$$
15:0
     RDKit          3D

 46 49  0  0  0  0  0  0  0  0999 V2000
   55.8480   29.9840   53.5940 C   0  0  0  0  0  0  0  0  0  0  0  0
   55.9160   31.2180   52.7010 C   0  0  0  0  0  0  0  0  0  0  0  0
   57.3100   31.5560   52.3830 N   0  0  0  0  0  0  0  0  0  0  0  0
   57.9880   32.6020   53.1700 C   0  0  0  0  0  0  0  0  0  0  0  0
   58.1300   33.8950   52.3700 C   0  0  0  0  0  0  0  0  0  0  0  0
   58.0280   30.7490   51.4240 C   0  0  0  0  0  0  0  0  0  0  0  0
   57.7550   29.5220   51.3240 O   0  0  0  0  0  0  0  0  0  0  0  0
   59.0630   31.3270   50.5380 C   0  0  0  0  0  0  0  0  0  0  0  0
   58.6930   31.9980   49.3400 C   0  0  0  0  0  0  0  0  0  0  0  0
   59.6780   32.5700   48.5000 C   0  0  0  0  0  0  0  0  0  0  0  0
   59.3120   33.2660   47.2420 C   0  0  0  0  0  0  0  0  0  0  0  0
   58.2810   32.7660   46.4250 C   0  0  0  0  0  0  0  0  0  0  0  0
   57.9360   33.4230   45.2400 C   0  0  0  0  0  0  0  0  0  0  0  0
   58.6090   34.5860   44.8610 C   0  0  0  0  0  0  0  0  0  0  0  0
   59.6300   35.0940   45.6660 C   0  0  0  0  0  0  0  0  0  0  0  0
   59.9820   34.4410   46.8520 C   0  0  0  0  0  0  0  0  0  0  0  0
   61.0070   32.4380   48.9110 C   0  0  0  0  0  0  0  0  0  0  0  0
   62.1060   32.8530   48.3060 O   0  0  0  0  0  0  0  0  0  0  0  0
   63.1120   32.4820   49.0760 C   0  0  0  0  0  0  0  0  0  0  0  0
   64.4310   32.6990   48.8420 N   0  0  0  0  0  0  0  0  0  0  0  0
   65.3510   32.2420   49.7460 C   0  0  0  0  0  0  0  0  0  0  0  0
   64.9370   31.5490   50.9090 C   0  0  0  0  0  0  0  0  0  0  0  0
   63.5690   31.3270   51.1450 C   0  0  0  0  0  0  0  0  0  0  0  0
   62.6780   31.8150   50.1980 C   0  0  0  0  0  0  0  0  0  0  0  0
   61.3160   31.7910   50.0820 C   0  0  0  0  0  0  0  0  0  0  0  0
   60.3810   31.2430   50.8920 N   0  0  0  0  0  0  0  0  0  0  0  0
   55.8651   30.2937   54.6494 H   0  0  0  0  0  0  0  0  0  0  0  0
   54.9182   29.4334   53.3884 H   0  0  0  0  0  0  0  0  0  0  0  0
   56.7117   29.3346   53.3884 H   0  0  0  0  0  0  0  0  0  0  0  0
   55.3714   31.0173   51.7666 H   0  0  0  0  0  0  0  0  0  0  0  0
   55.4610   32.0651   53.2351 H   0  0  0  0  0  0  0  0  0  0  0  0
   57.4003   32.8050   54.0774 H   0  0  0  0  0  0  0  0  0  0  0  0
   58.9946   32.2427   53.4300 H   0  0  0  0  0  0  0  0  0  0  0  0
   58.2234   34.7455   53.0613 H   0  0  0  0  0  0  0  0  0  0  0  0
   59.0272   33.8374   51.7362 H   0  0  0  0  0  0  0  0  0  0  0  0
   57.2417   34.0335   51.7362 H   0  0  0  0  0  0  0  0  0  0  0  0
   57.6310   32.0732   49.0635 H   0  0  0  0  0  0  0  0  0  0  0  0
   57.7434   31.8529   46.7204 H   0  0  0  0  0  0  0  0  0  0  0  0
   57.1323   33.0225   44.6047 H   0  0  0  0  0  0  0  0  0  0  0  0
   58.3349   35.1016   43.9288 H   0  0  0  0  0  0  0  0  0  0  0  0
   60.1594   36.0106   45.3668 H   0  0  0  0  0  0  0  0  0  0  0  0
   60.7862   34.8476   47.4829 H   0  0  0  0  0  0  0  0  0  0  0  0
   64.7390   33.2080   47.9840 H   0  0  0  0  0  0  0  0  0  0  0  0
   66.4226   32.4148   49.5673 H   0  0  0  0  0  0  0  0  0  0  0  0
   65.6855   31.1843   51.6278 H   0  0  0  0  0  0  0  0  0  0  0  0
   63.2199   30.7907   52.0397 H   0  0  0  0  0  0  0  0  0  0  0  0
  1  2  1  0
  2  3  1  0
  3  4  1  0
  4  5  1  0
  3  6  1  0
  6  7  2  0
  6  8  1  0
  8  9  2  0
  9 10  1  0
 10 11  1  0
 11 12  2  0
 12 13  1  0
 13 14  2  0
 14 15  1  0
 15 16  2  0
 10 17  2  0
 17 18  1  0
 18 19  1  0
 19 20  2  0
 20 21  1  0
 21 22  2  0
 22 23  1  0
 23 24  2  0
 24 25  1  0
 25 26  2  0
 26  8  1  0
 16 11  1  0
 25 17  1  0
 24 19  1  0
  1 27  1  0
  1 28  1  0
  1 29  1  0
  2 30  1  0
  2 31  1  0
  4 32  1  0
  4 33  1  0
  5 34  1  0
  5 35  1  0
  5 36  1  0
  9 37  1  0
 12 38  1  0
 13 39  1  0
 14 40  1  0
 15 41  1  0
 16 42  1  0
 20 43  1  0
 21 44  1  0
 22 45  1  0
 23 46  1  0
M  CHG  1  20   1
M  END
>  <UniqueID>  (16) 
14

>  <SMILES>  (16) 
CCN(CC)C(=O)c1cc(-c2ccccc2)c2oc3[nH+]cccc3c2n1

>  <Energy>  (16) 
97.84042037190032

>  <Genealogy>  (16) 
CCN(CC)C(=O)c1cc(-c2ccccc2)c2oc3[nH+]cccc3c2n1 (protonated)
CCN(CC)C(=O)c1cc(-c2ccccc2)c2oc3[nH+]cccc3c2n1 (3D coordinates assigned)
CCN(CC)C(=O)c1cc(-c2ccccc2)c2oc3[nH+]cccc3c2n1 (optimized conformer: 97.84042037190032 kcal/mol)

>  <smiles>  (16) 
CCN(CC)C(=O)c1cc(-c2ccccc2)c2oc3ncccc3c2n1

>  <score_type>  (16) 
oracle

>  <origin>  (16) 
adg

>  <m_score__min__energy>  (16) 
-5.9400000000000004

>  <m_primary>  (16) 
energy

$$$$
16:0
     RDKit          3D

 45 48  0  0  0  0  0  0  0  0999 V2000
   57.0230   27.4700   45.6960 C   0  0  0  0  0  0  0  0  0  0  0  0
   57.7490   28.7510   45.9490 C   0  0  0  0  0  0  0  0  0  0  0  0
   57.3670   29.9430   45.4250 N   0  0  0  0  0  0  0  0  0  0  0  0
   58.2910   30.8070   45.9030 C   0  0  0  0  0  0  0  0  0  0  0  0
   58.3590   32.1780   45.6570 C   0  0  0  0  0  0  0  0  0  0  0  0
   57.4180   32.8430   44.8570 C   0  0  0  0  0  0  0  0  0  0  0  0
   57.5240   34.2200   44.6580 C   0  0  0  0  0  0  0  0  0  0  0  0
   58.5610   34.9400   45.2560 C   0  0  0  0  0  0  0  0  0  0  0  0
   59.5060   34.2880   46.0540 C   0  0  0  0  0  0  0  0  0  0  0  0
   59.4250   32.8980   46.2580 C   0  0  0  0  0  0  0  0  0  0  0  0
   60.3690   32.2000   47.0610 C   0  0  0  0  0  0  0  0  0  0  0  0
   61.4820   32.8770   47.6600 N   0  0  0  0  0  0  0  0  0  0  0  0
   62.5590   33.4040   46.8130 C   0  0  0  0  0  0  0  0  0  0  0  0
   63.9100   32.9880   47.3980 C   0  0  0  0  0  0  0  0  0  0  0  0
   64.0910   33.4740   48.8630 C   0  0  0  0  0  0  0  0  0  0  0  0
   64.9020   32.4550   49.6730 C   0  0  0  0  0  0  0  0  0  0  0  0
   62.7520   33.8080   49.5700 C   0  0  0  0  0  0  0  0  0  0  0  0
   61.6060   32.8910   49.1220 C   0  0  0  0  0  0  0  0  0  0  0  0
   60.2230   30.8550   47.2550 N   0  0  0  0  0  0  0  0  0  0  0  0
   59.2060   30.2140   46.6810 N   0  0  0  0  0  0  0  0  0  0  0  0
   58.8860   28.9130   46.7320 C   0  0  0  0  0  0  0  0  0  0  0  0
   59.6540   27.8610   47.4730 C   0  0  0  0  0  0  0  0  0  0  0  0
   56.7582   27.0028   46.6560 H   0  0  0  0  0  0  0  0  0  0  0  0
   56.1067   27.6748   45.1228 H   0  0  0  0  0  0  0  0  0  0  0  0
   57.6695   26.7892   45.1228 H   0  0  0  0  0  0  0  0  0  0  0  0
   56.5980   32.2799   44.3874 H   0  0  0  0  0  0  0  0  0  0  0  0
   56.7880   34.7407   44.0277 H   0  0  0  0  0  0  0  0  0  0  0  0
   58.6345   36.0261   45.0982 H   0  0  0  0  0  0  0  0  0  0  0  0
   60.3164   34.8642   46.5244 H   0  0  0  0  0  0  0  0  0  0  0  0
   62.4584   32.9985   45.7954 H   0  0  0  0  0  0  0  0  0  0  0  0
   62.4954   34.5015   46.7753 H   0  0  0  0  0  0  0  0  0  0  0  0
   63.9819   31.8905   47.3776 H   0  0  0  0  0  0  0  0  0  0  0  0
   64.6990   33.4527   46.7885 H   0  0  0  0  0  0  0  0  0  0  0  0
   64.6510   34.4194   48.8116 H   0  0  0  0  0  0  0  0  0  0  0  0
   64.7548   32.6400   50.7473 H   0  0  0  0  0  0  0  0  0  0  0  0
   64.5637   31.4378   49.4263 H   0  0  0  0  0  0  0  0  0  0  0  0
   65.9692   32.5564   49.4263 H   0  0  0  0  0  0  0  0  0  0  0  0
   62.8890   33.6966   50.6557 H   0  0  0  0  0  0  0  0  0  0  0  0
   62.4798   34.8391   49.3003 H   0  0  0  0  0  0  0  0  0  0  0  0
   61.8048   31.8685   49.4756 H   0  0  0  0  0  0  0  0  0  0  0  0
   60.6664   33.2717   49.5489 H   0  0  0  0  0  0  0  0  0  0  0  0
   60.9160   30.3350   47.8400 H   0  0  0  0  0  0  0  0  0  0  0  0
   59.5395   28.0178   48.5557 H   0  0  0  0  0  0  0  0  0  0  0  0
   59.2677   26.8669   47.2036 H   0  0  0  0  0  0  0  0  0  0  0  0
   60.7185   27.9261   47.2036 H   0  0  0  0  0  0  0  0  0  0  0  0
  1  2  1  0
  2  3  1  0
  3  4  2  0
  4  5  1  0
  5  6  2  0
  6  7  1  0
  7  8  2  0
  8  9  1  0
  9 10  2  0
 10 11  1  0
 11 12  1  0
 12 13  1  0
 13 14  1  0
 14 15  1  0
 15 16  1  0
 15 17  1  0
 17 18  1  0
 11 19  2  0
 19 20  1  0
 20 21  1  0
 21 22  1  0
 21  2  2  0
 20  4  1  0
 10  5  1  0
 18 12  1  0
  1 23  1  0
  1 24  1  0
  1 25  1  0
  6 26  1  0
  7 27  1  0
  8 28  1  0
  9 29  1  0
 13 30  1  0
 13 31  1  0
 14 32  1  0
 14 33  1  0
 15 34  1  0
 16 35  1  0
 16 36  1  0
 16 37  1  0
 17 38  1  0
 17 39  1  0
 18 40  1  0
 18 41  1  0
 19 42  1  0
 22 43  1  0
 22 44  1  0
 22 45  1  0
M  CHG  1  19   1
M  END
>  <UniqueID>  (17) 
15

>  <SMILES>  (17) 
Cc1nc2c3ccccc3c(N3CCC(C)CC3)[nH+]n2c1C

>  <Energy>  (17) 
91.15066649383908

>  <Genealogy>  (17) 
Cc1nc2c3ccccc3c(N3CCC(C)CC3)[nH+]n2c1C (protonated)
Cc1nc2c3ccccc3c(N3CCC(C)CC3)[nH+]n2c1C (3D coordinates assigned)
Cc1nc2c3ccccc3c(N3CCC(C)CC3)[nH+]n2c1C (nonaromatic ring conformer: 91.15066649383908 kcal/mol)

>  <smiles>  (17) 
Cc1nc2c3ccccc3c(N3CCC(C)CC3)nn2c1C

>  <score_type>  (17) 
oracle

>  <origin>  (17) 
adg

>  <m_score__min__energy>  (17) 
-6.71

>  <m_primary>  (17) 
energy

$$$$
17:0
     RDKit          3D

 22 21  0  0  0  0  0  0  0  0999 V2000
   57.3790   28.3630   45.5850 C   0  0  0  0  0  0  0  0  0  0  0  0
   57.9630   29.6900   45.1100 C   0  0  0  0  0  0  0  0  0  0  0  0
   56.8800   30.6750   44.8790 N   0  0  0  0  0  0  0  0  0  0  0  0
   55.7810   30.0850   44.0810 C   0  0  0  0  0  0  0  0  0  0  0  0
   56.2740   29.7370   42.6780 C   0  0  0  0  0  0  0  0  0  0  0  0
   57.4040   31.9050   44.2400 C   0  0  0  0  0  0  0  0  0  0  0  0
   57.4000   33.0620   45.2350 C   0  0  0  0  0  0  0  0  0  0  0  0
   57.3687   28.3396   46.6847 H   0  0  0  0  0  0  0  0  0  0  0  0
   56.3516   28.2581   45.2064 H   0  0  0  0  0  0  0  0  0  0  0  0
   57.9957   27.5345   45.2064 H   0  0  0  0  0  0  0  0  0  0  0  0
   58.6501   30.0790   45.8759 H   0  0  0  0  0  0  0  0  0  0  0  0
   58.5045   29.5256   44.1667 H   0  0  0  0  0  0  0  0  0  0  0  0
   55.4224   29.1710   44.5769 H   0  0  0  0  0  0  0  0  0  0  0  0
   54.9629   30.8161   44.0023 H   0  0  0  0  0  0  0  0  0  0  0  0
   57.1707   29.1040   42.7509 H   0  0  0  0  0  0  0  0  0  0  0  0
   55.4852   29.1944   42.1363 H   0  0  0  0  0  0  0  0  0  0  0  0
   56.5211   30.6619   42.1363 H   0  0  0  0  0  0  0  0  0  0  0  0
   58.4335   31.7252   43.8968 H   0  0  0  0  0  0  0  0  0  0  0  0
   56.7619   32.1657   43.3857 H   0  0  0  0  0  0  0  0  0  0  0  0
   57.4014   32.6638   46.2604 H   0  0  0  0  0  0  0  0  0  0  0  0
   58.2960   33.6812   45.0809 H   0  0  0  0  0  0  0  0  0  0  0  0
   56.4997   33.6750   45.0809 H   0  0  0  0  0  0  0  0  0  0  0  0
  1  2  1  0
  2  3  1  0
  3  4  1  0
  4  5  1  0
  3  6  1  0
  6  7  1  0
  1  8  1  0
  1  9  1  0
  1 10  1  0
  2 11  1  0
  2 12  1  0
  4 13  1  0
  4 14  1  0
  5 15  1  0
  5 16  1  0
  5 17  1  0
  6 18  1  0
  6 19  1  0
  7 20  1  0
  7 21  1  0
  7 22  1  0
M  END
>  <UniqueID>  (18) 
16

>  <SMILES>  (18) 
CCN(CC)CC

>  <Energy>  (18) 
13.880065856992006

>  <Genealogy>  (18) 
CCN(CC)CC (3D coordinates assigned)
CCN(CC)CC (optimized conformer: 13.880065856992006 kcal/mol)

>  <smiles>  (18) 
CCN(CC)CC

>  <score_type>  (18) 
oracle

>  <origin>  (18) 
adg

>  <m_score__min__energy>  (18) 
-3.2400000000000002

>  <m_primary>  (18) 
energy

$$$$
18:0
     RDKit          3D

 38 40  0  0  0  0  0  0  0  0999 V2000
   59.2880   32.4620   51.9970 C   0  0  0  0  0  0  0  0  0  0  0  0
   59.2380   32.9440   50.5880 C   0  0  0  0  0  0  0  0  0  0  0  0
   59.8490   34.0690   50.1620 N   0  0  0  0  0  0  0  0  0  0  0  0
   59.7110   34.2500   48.8200 C   0  0  0  0  0  0  0  0  0  0  0  0
   58.9950   33.2480   48.1570 C   0  0  0  0  0  0  0  0  0  0  0  0
   58.6990   33.1750   46.7030 C   0  0  0  0  0  0  0  0  0  0  0  0
   58.9710   34.2750   45.8680 C   0  0  0  0  0  0  0  0  0  0  0  0
   58.6900   34.2150   44.5010 C   0  0  0  0  0  0  0  0  0  0  0  0
   58.1380   33.0600   43.9480 C   0  0  0  0  0  0  0  0  0  0  0  0
   57.8700   31.9510   44.7580 C   0  0  0  0  0  0  0  0  0  0  0  0
   57.1630   30.5030   44.0450 S   0  0  0  0  0  0  0  0  0  0  0  0
   55.9800   30.0850   44.8740 O   0  0  0  0  0  0  0  0  0  0  0  0
   56.6910   30.7930   42.6470 O   0  0  0  0  0  0  0  0  0  0  0  0
   58.3510   29.2200   44.0180 N   0  0  0  0  0  0  0  0  0  0  0  0
   59.5170   29.6010   44.8440 C   0  0  0  0  0  0  0  0  0  0  0  0
   60.2990   28.3540   45.2900 C   0  0  0  0  0  0  0  0  0  0  0  0
   59.5380   27.4380   46.0690 O   0  0  0  0  0  0  0  0  0  0  0  0
   58.1350   27.5480   45.8740 C   0  0  0  0  0  0  0  0  0  0  0  0
   57.7510   27.9260   44.4320 C   0  0  0  0  0  0  0  0  0  0  0  0
   58.1480   32.0110   46.1320 C   0  0  0  0  0  0  0  0  0  0  0  0
   58.5340   32.1080   49.3130 S   0  0  0  0  0  0  0  0  0  0  0  0
   59.1991   33.3189   52.6810 H   0  0  0  0  0  0  0  0  0  0  0  0
   58.4575   31.7630   52.1751 H   0  0  0  0  0  0  0  0  0  0  0  0
   60.2442   31.9483   52.1751 H   0  0  0  0  0  0  0  0  0  0  0  0
   60.1317   35.1205   48.2954 H   0  0  0  0  0  0  0  0  0  0  0  0
   59.4084   35.1893   46.2954 H   0  0  0  0  0  0  0  0  0  0  0  0
   58.9049   35.0817   43.8586 H   0  0  0  0  0  0  0  0  0  0  0  0
   57.9126   33.0206   42.8721 H   0  0  0  0  0  0  0  0  0  0  0  0
   58.6710   29.1270   43.0250 H   0  0  0  0  0  0  0  0  0  0  0  0
   60.1801   30.2511   44.2544 H   0  0  0  0  0  0  0  0  0  0  0  0
   59.1582   30.1316   45.7383 H   0  0  0  0  0  0  0  0  0  0  0  0
   60.6552   27.8299   44.3909 H   0  0  0  0  0  0  0  0  0  0  0  0
   61.1210   28.7075   45.9298 H   0  0  0  0  0  0  0  0  0  0  0  0
   57.6713   26.5806   46.1171 H   0  0  0  0  0  0  0  0  0  0  0  0
   57.7760   28.3547   46.5300 H   0  0  0  0  0  0  0  0  0  0  0  0
   58.1042   27.1369   43.7519 H   0  0  0  0  0  0  0  0  0  0  0  0
   56.6567   28.0289   44.3874 H   0  0  0  0  0  0  0  0  0  0  0  0
   57.9336   31.1406   46.7695 H   0  0  0  0  0  0  0  0  0  0  0  0
  1  2  1  0
  2  3  2  0
  3  4  1  0
  4  5  2  0
  5  6  1  0
  6  7  2  0
  7  8  1  0
  8  9  2  0
  9 10  1  0
 10 11  1  0
 11 12  2  0
 11 13  2  0
 11 14  1  0
 14 15  1  0
 15 16  1  0
 16 17  1  0
 17 18  1  0
 18 19  1  0
 10 20  2  0
  5 21  1  0
 21  2  1  0
 20  6  1  0
 19 14  1  0
  1 22  1  0
  1 23  1  0
  1 24  1  0
  4 25  1  0
  7 26  1  0
  8 27  1  0
  9 28  1  0
 14 29  1  0
 15 30  1  0
 15 31  1  0
 16 32  1  0
 16 33  1  0
 18 34  1  0
 18 35  1  0
 19 36  1  0
 19 37  1  0
 20 38  1  0
M  CHG  1  14   1
M  END
>  <UniqueID>  (19) 
17

>  <SMILES>  (19) 
Cc1ncc(-c2cccc(S(=O)(=O)[NH+]3CCOCC3)c2)s1

>  <Energy>  (19) 
81.855740306649

>  <Genealogy>  (19) 
Cc1ncc(-c2cccc(S(=O)(=O)[NH+]3CCOCC3)c2)s1 (protonated)
Cc1ncc(-c2cccc(S(=O)(=O)[NH+]3CCOCC3)c2)s1 (3D coordinates assigned)
Cc1ncc(-c2cccc(S(=O)(=O)[NH+]3CCOCC3)c2)s1 (nonaromatic ring conformer: 81.855740306649 kcal/mol)

>  <smiles>  (19) 
Cc1ncc(-c2cccc(S(=O)(=O)N3CCOCC3)c2)s1

>  <score_type>  (19) 
oracle

>  <origin>  (19) 
adg

>  <m_score__min__energy>  (19) 
-6.8200000000000003

>  <m_primary>  (19) 
energy

$$$$
19:0
     RDKit          3D

 30 32  0  0  0  0  0  0  0  0999 V2000
   55.1740   29.2150   44.7200 O   0  0  0  0  0  0  0  0  0  0  0  0
   56.2680   29.8320   44.8220 C   0  0  0  0  0  0  0  0  0  0  0  0
   56.2720   31.1900   44.8010 N   0  0  0  0  0  0  0  0  0  0  0  0
   57.4270   31.8950   44.9080 C   0  0  0  0  0  0  0  0  0  0  0  0
   57.3890   33.6830   44.8710 S   0  0  0  0  0  0  0  0  0  0  0  0
   57.7970   33.8420   46.6400 C   0  0  0  0  0  0  0  0  0  0  0  0
   59.2370   33.4710   46.8590 C   0  0  0  0  0  0  0  0  0  0  0  0
   60.2520   34.1670   46.1800 C   0  0  0  0  0  0  0  0  0  0  0  0
   61.5950   33.8480   46.4010 C   0  0  0  0  0  0  0  0  0  0  0  0
   61.9360   32.8420   47.3080 C   0  0  0  0  0  0  0  0  0  0  0  0
   63.2400   32.5350   47.5220 F   0  0  0  0  0  0  0  0  0  0  0  0
   60.9340   32.1560   47.9990 C   0  0  0  0  0  0  0  0  0  0  0  0
   59.5880   32.4690   47.7830 C   0  0  0  0  0  0  0  0  0  0  0  0
   58.6310   31.8000   48.4740 F   0  0  0  0  0  0  0  0  0  0  0  0
   58.6130   31.2460   45.0420 N   0  0  0  0  0  0  0  0  0  0  0  0
   58.6690   29.8900   45.0700 C   0  0  0  0  0  0  0  0  0  0  0  0
   59.9010   29.2400   45.2080 C   0  0  0  0  0  0  0  0  0  0  0  0
   59.9570   27.8440   45.2350 C   0  0  0  0  0  0  0  0  0  0  0  0
   58.7840   27.0910   45.1250 C   0  0  0  0  0  0  0  0  0  0  0  0
   57.5460   27.7290   44.9880 C   0  0  0  0  0  0  0  0  0  0  0  0
   57.4800   29.1350   44.9580 C   0  0  0  0  0  0  0  0  0  0  0  0
   57.6333   34.8811   46.9618 H   0  0  0  0  0  0  0  0  0  0  0  0
   57.1527   33.1701   47.2260 H   0  0  0  0  0  0  0  0  0  0  0  0
   59.9884   34.9662   45.4716 H   0  0  0  0  0  0  0  0  0  0  0  0
   62.3844   34.3901   45.8598 H   0  0  0  0  0  0  0  0  0  0  0  0
   61.2047   31.3667   48.7157 H   0  0  0  0  0  0  0  0  0  0  0  0
   60.8261   29.8287   45.2953 H   0  0  0  0  0  0  0  0  0  0  0  0
   60.9267   27.3360   45.3431 H   0  0  0  0  0  0  0  0  0  0  0  0
   58.8345   25.9924   45.1462 H   0  0  0  0  0  0  0  0  0  0  0  0
   56.6255   27.1326   44.9038 H   0  0  0  0  0  0  0  0  0  0  0  0
  1  2  2  0
  2  3  1  0
  3  4  1  0
  4  5  1  0
  5  6  1  0
  6  7  1  0
  7  8  2  0
  8  9  1  0
  9 10  2  0
 10 11  1  0
 10 12  1  0
 12 13  2  0
 13 14  1  0
  4 15  2  0
 15 16  1  0
 16 17  2  0
 17 18  1  0
 18 19  2  0
 19 20  1  0
 20 21  2  0
 21  2  1  0
 13  7  1  0
 21 16  1  0
  6 22  1  0
  6 23  1  0
  8 24  1  0
  9 25  1  0
 12 26  1  0
 17 27  1  0
 18 28  1  0
 19 29  1  0
 20 30  1  0
M  CHG  1   3  -1
M  END
>  <UniqueID>  (20) 
18

>  <SMILES>  (20) 
O=c1[n-]c(SCc2ccc(F)cc2F)nc2ccccc12

>  <Energy>  (20) 
33.606077008783565

>  <Genealogy>  (20) 
O=c1[n-]c(SCc2ccc(F)cc2F)nc2ccccc12 (protonated)
O=c1[n-]c(SCc2ccc(F)cc2F)nc2ccccc12 (3D coordinates assigned)
O=c1[n-]c(SCc2ccc(F)cc2F)nc2ccccc12 (optimized conformer: 33.606077008783565 kcal/mol)

>  <smiles>  (20) 
O=c1[nH]c(SCc2ccc(F)cc2F)nc2ccccc12

>  <score_type>  (20) 
oracle

>  <origin>  (20) 
adg

>  <m_score__min__energy>  (20) 
-9.0700000000000003

>  <m_primary>  (20) 
energy

$$$$
20:0
     RDKit          3D

 53 54  0  0  0  0  0  0  0  0999 V2000
   56.6170   30.0350   42.6680 C   0  0  0  0  0  0  0  0  0  0  0  0
   55.8590   30.0660   43.9890 C   0  0  0  0  0  0  0  0  0  0  0  0
   56.8120   30.3160   45.0970 N   0  0  0  0  0  0  0  0  0  0  0  0
   57.5240   29.0890   45.5240 C   0  0  0  0  0  0  0  0  0  0  0  0
   59.0420   29.2790   45.6830 C   0  0  0  0  0  0  0  0  0  0  0  0
   57.7240   31.4550   44.8530 C   0  0  0  0  0  0  0  0  0  0  0  0
   57.0760   32.7880   45.2480 C   0  0  0  0  0  0  0  0  0  0  0  0
   57.8890   33.4770   46.1830 O   0  0  0  0  0  0  0  0  0  0  0  0
   58.5300   34.6040   45.6140 C   0  0  0  0  0  0  0  0  0  0  0  0
   59.8890   34.8520   46.2700 C   0  0  0  0  0  0  0  0  0  0  0  0
   59.8400   34.4490   47.6210 O   0  0  0  0  0  0  0  0  0  0  0  0
   60.3570   33.1380   47.7940 C   0  0  2  0  0  0  0  0  0  0  0  0
   59.5680   32.4490   48.8830 C   0  0  0  0  0  0  0  0  0  0  0  0
   59.2420   31.0830   48.7770 C   0  0  0  0  0  0  0  0  0  0  0  0
   58.5360   30.4440   49.7990 C   0  0  0  0  0  0  0  0  0  0  0  0
   58.1430   31.1570   50.9340 C   0  0  0  0  0  0  0  0  0  0  0  0
   57.2000   30.2740   52.3390 Br  0  0  0  0  0  0  0  0  0  0  0  0
   58.4500   32.5170   51.0440 C   0  0  0  0  0  0  0  0  0  0  0  0
   59.1550   33.1610   50.0240 C   0  0  0  0  0  0  0  0  0  0  0  0
   61.8190   33.1930   48.1820 C   0  0  0  0  0  0  0  0  0  0  0  0
   62.2300   33.6710   49.4380 C   0  0  0  0  0  0  0  0  0  0  0  0
   63.5830   33.6700   49.7780 C   0  0  0  0  0  0  0  0  0  0  0  0
   64.5190   33.1810   48.8670 C   0  0  0  0  0  0  0  0  0  0  0  0
   64.1110   32.7060   47.6590 N   0  0  0  0  0  0  0  0  0  0  0  0
   62.7970   32.6970   47.3040 C   0  0  0  0  0  0  0  0  0  0  0  0
   57.6980   29.9908   42.8665 H   0  0  0  0  0  0  0  0  0  0  0  0
   56.3135   29.1485   42.0918 H   0  0  0  0  0  0  0  0  0  0  0  0
   56.3869   30.9433   42.0918 H   0  0  0  0  0  0  0  0  0  0  0  0
   55.1079   30.8692   43.9625 H   0  0  0  0  0  0  0  0  0  0  0  0
   55.3562   29.1005   44.1472 H   0  0  0  0  0  0  0  0  0  0  0  0
   57.1111   28.7667   46.4913 H   0  0  0  0  0  0  0  0  0  0  0  0
   57.3749   28.3390   44.7333 H   0  0  0  0  0  0  0  0  0  0  0  0
   59.2975   29.3110   46.7524 H   0  0  0  0  0  0  0  0  0  0  0  0
   59.5686   28.4398   45.2051 H   0  0  0  0  0  0  0  0  0  0  0  0
   59.3455   30.2221   45.2051 H   0  0  0  0  0  0  0  0  0  0  0  0
   58.6397   31.3131   45.4457 H   0  0  0  0  0  0  0  0  0  0  0  0
   57.9549   31.4884   43.7780 H   0  0  0  0  0  0  0  0  0  0  0  0
   56.9508   33.4100   44.3495 H   0  0  0  0  0  0  0  0  0  0  0  0
   56.0976   32.5856   45.7082 H   0  0  0  0  0  0  0  0  0  0  0  0
   58.6768   34.4290   44.5380 H   0  0  0  0  0  0  0  0  0  0  0  0
   57.8956   35.4875   45.7782 H   0  0  0  0  0  0  0  0  0  0  0  0
   60.6617   34.2734   45.7426 H   0  0  0  0  0  0  0  0  0  0  0  0
   60.1321   35.9234   46.2158 H   0  0  0  0  0  0  0  0  0  0  0  0
   60.2690   32.5815   46.8492 H   0  0  0  0  0  0  0  0  0  0  0  0
   59.5450   30.5161   47.8844 H   0  0  0  0  0  0  0  0  0  0  0  0
   58.2887   29.3759   49.7097 H   0  0  0  0  0  0  0  0  0  0  0  0
   58.1359   33.0805   51.9349 H   0  0  0  0  0  0  0  0  0  0  0  0
   59.3888   34.2321   50.1137 H   0  0  0  0  0  0  0  0  0  0  0  0
   61.4840   34.0464   50.1539 H   0  0  0  0  0  0  0  0  0  0  0  0
   63.9090   34.0518   50.7567 H   0  0  0  0  0  0  0  0  0  0  0  0
   65.5882   33.1793   49.1254 H   0  0  0  0  0  0  0  0  0  0  0  0
   64.8230   32.3360   46.9910 H   0  0  0  0  0  0  0  0  0  0  0  0
   62.4989   32.2986   46.3230 H   0  0  0  0  0  0  0  0  0  0  0  0
  1  2  1  0
  2  3  1  0
  3  4  1  0
  4  5  1  0
  3  6  1  0
  6  7  1  0
  7  8  1  0
  8  9  1  0
  9 10  1  0
 10 11  1  0
 11 12  1  0
 12 13  1  0
 13 14  2  0
 14 15  1  0
 15 16  2  0
 16 17  1  0
 16 18  1  0
 18 19  2  0
 12 20  1  0
 20 21  2  0
 21 22  1  0
 22 23  2  0
 23 24  1  0
 24 25  2  0
 19 13  1  0
 25 20  1  0
  1 26  1  0
  1 27  1  0
  1 28  1  0
  2 29  1  0
  2 30  1  0
  4 31  1  0
  4 32  1  0
  5 33  1  0
  5 34  1  0
  5 35  1  0
  6 36  1  0
  6 37  1  0
  7 38  1  0
  7 39  1  0
  9 40  1  0
  9 41  1  0
 10 42  1  0
 10 43  1  0
 12 44  1  6
 14 45  1  0
 15 46  1  0
 18 47  1  0
 19 48  1  0
 21 49  1  0
 22 50  1  0
 23 51  1  0
 24 52  1  0
 25 53  1  0
M  CHG  1  24   1
M  END
>  <UniqueID>  (21) 
19

>  <SMILES>  (21) 
CCN(CC)CCOCCO[C@H](c1ccc(Br)cc1)c1ccc[nH+]c1

>  <Energy>  (21) 
55.004825424383675

>  <Genealogy>  (21) 
CCN(CC)CCOCCOC(c1ccc(Br)cc1)c1ccc[nH+]c1 (protonated)
CCN(CC)CCOCCO[C@H](c1ccc(Br)cc1)c1ccc[nH+]c1 (chirality)
CCN(CC)CCOCCO[C@H](c1ccc(Br)cc1)c1ccc[nH+]c1 (3D coordinates assigned)
CCN(CC)CCOCCO[C@H](c1ccc(Br)cc1)c1ccc[nH+]c1 (optimized conformer: 55.004825424383675 kcal/mol)

>  <smiles>  (21) 
CCN(CC)CCOCCOC(c1ccc(Br)cc1)c1cccnc1

>  <score_type>  (21) 
oracle

>  <origin>  (21) 
adg

>  <m_score__min__energy>  (21) 
-5.9199999999999999

>  <m_primary>  (21) 
energy

$$$$
21:0
     RDKit          3D

 36 38  0  0  0  0  0  0  0  0999 V2000
   57.0930   23.6290   43.7620 C   0  0  0  0  0  0  0  0  0  0  0  0
   57.8640   24.2870   44.7620 O   0  0  0  0  0  0  0  0  0  0  0  0
   57.9050   25.6780   44.9400 C   0  0  0  0  0  0  0  0  0  0  0  0
   58.1440   26.4850   43.8200 C   0  0  0  0  0  0  0  0  0  0  0  0
   58.1950   27.8760   43.9450 C   0  0  0  0  0  0  0  0  0  0  0  0
   58.0020   28.4790   45.1950 C   0  0  0  0  0  0  0  0  0  0  0  0
   58.0520   29.9130   45.3240 N   0  0  0  0  0  0  0  0  0  0  0  0
   57.0120   30.6860   44.8730 C   0  0  0  0  0  0  0  0  0  0  0  0
   55.5650   29.9620   44.0740 S   0  0  0  0  0  0  0  0  0  0  0  0
   56.2930   29.9780   42.4030 C   0  0  0  0  0  0  0  0  0  0  0  0
   57.0430   31.2180   42.1900 C   0  0  0  0  0  0  0  0  0  0  0  0
   57.6380   32.1970   42.0210 N   0  0  0  0  0  0  0  0  0  0  0  0
   57.0560   32.0360   45.0050 N   0  0  0  0  0  0  0  0  0  0  0  0
   58.1190   32.6590   45.5690 C   0  0  0  0  0  0  0  0  0  0  0  0
   58.1320   34.0540   45.6840 C   0  0  0  0  0  0  0  0  0  0  0  0
   59.2290   34.6970   46.2630 C   0  0  0  0  0  0  0  0  0  0  0  0
   60.3150   33.9500   46.7280 C   0  0  0  0  0  0  0  0  0  0  0  0
   60.3100   32.5560   46.6160 C   0  0  0  0  0  0  0  0  0  0  0  0
   59.2090   31.9000   46.0330 C   0  0  0  0  0  0  0  0  0  0  0  0
   59.1500   30.5020   45.8980 C   0  0  0  0  0  0  0  0  0  0  0  0
   60.1070   29.7890   46.3140 O   0  0  0  0  0  0  0  0  0  0  0  0
   57.7700   27.6770   46.3210 C   0  0  0  0  0  0  0  0  0  0  0  0
   57.7190   26.2850   46.1970 C   0  0  0  0  0  0  0  0  0  0  0  0
   56.3404   22.9867   44.2428 H   0  0  0  0  0  0  0  0  0  0  0  0
   56.5884   24.3791   43.1353 H   0  0  0  0  0  0  0  0  0  0  0  0
   57.7545   23.0128   43.1353 H   0  0  0  0  0  0  0  0  0  0  0  0
   58.2927   26.0200   42.8343 H   0  0  0  0  0  0  0  0  0  0  0  0
   58.3873   28.4994   43.0593 H   0  0  0  0  0  0  0  0  0  0  0  0
   56.9720   29.1194   42.2942 H   0  0  0  0  0  0  0  0  0  0  0  0
   55.4853   29.9146   41.6589 H   0  0  0  0  0  0  0  0  0  0  0  0
   57.2786   34.6440   45.3185 H   0  0  0  0  0  0  0  0  0  0  0  0
   59.2380   35.7933   46.3531 H   0  0  0  0  0  0  0  0  0  0  0  0
   61.1765   34.4603   47.1836 H   0  0  0  0  0  0  0  0  0  0  0  0
   61.1666   31.9718   46.9835 H   0  0  0  0  0  0  0  0  0  0  0  0
   57.6274   28.1446   47.3064 H   0  0  0  0  0  0  0  0  0  0  0  0
   57.5330   25.6621   47.0843 H   0  0  0  0  0  0  0  0  0  0  0  0
  1  2  1  0
  2  3  1  0
  3  4  2  0
  4  5  1  0
  5  6  2  0
  6  7  1  0
  7  8  1  0
  8  9  1  0
  9 10  1  0
 10 11  1  0
 11 12  3  0
  8 13  2  0
 13 14  1  0
 14 15  2  0
 15 16  1  0
 16 17  2  0
 17 18  1  0
 18 19  2  0
 19 20  1  0
 20 21  2  0
  6 22  1  0
 22 23  2  0
 23  3  1  0
 20  7  1  0
 19 14  1  0
  1 24  1  0
  1 25  1  0
  1 26  1  0
  4 27  1  0
  5 28  1  0
 10 29  1  0
 10 30  1  0
 15 31  1  0
 16 32  1  0
 17 33  1  0
 18 34  1  0
 22 35  1  0
 23 36  1  0
M  END
>  <UniqueID>  (22) 
20

>  <SMILES>  (22) 
COc1ccc(-n2c(SCC#N)nc3ccccc3c2=O)cc1

>  <Energy>  (22) 
46.93619668706395

>  <Genealogy>  (22) 
COc1ccc(-n2c(SCC#N)nc3ccccc3c2=O)cc1 (3D coordinates assigned)
COc1ccc(-n2c(SCC#N)nc3ccccc3c2=O)cc1 (optimized conformer: 46.93619668706395 kcal/mol)

>  <smiles>  (22) 
COc1ccc(-n2c(SCC#N)nc3ccccc3c2=O)cc1

>  <score_type>  (22) 
oracle

>  <origin>  (22) 
adg

>  <m_score__min__energy>  (22) 
-7

>  <m_primary>  (22) 
energy

$$$$
22:0
     RDKit          3D

 31 32  0  0  0  0  0  0  0  0999 V2000
   59.5760   28.2550   44.5050 C   0  0  0  0  0  0  0  0  0  0  0  0
   59.9930   29.3130   45.5220 C   0  0  0  0  0  0  0  0  0  0  0  0
   58.8440   29.7560   46.3190 N   0  0  0  0  0  0  0  0  0  0  0  0
   58.9810   29.9300   47.7730 C   0  0  0  0  0  0  0  0  0  0  0  0
   60.3510   30.5030   48.1310 C   0  0  0  0  0  0  0  0  0  0  0  0
   57.6520   30.1870   45.6400 C   0  0  0  0  0  0  0  0  0  0  0  0
   56.7060   29.3440   45.1900 N   0  0  0  0  0  0  0  0  0  0  0  0
   55.8600   30.1120   44.5140 N   0  0  0  0  0  0  0  0  0  0  0  0
   56.2680   31.3730   44.5430 N   0  0  0  0  0  0  0  0  0  0  0  0
   57.3890   31.4460   45.2400 N   0  0  0  0  0  0  0  0  0  0  0  0
   58.0570   32.6730   45.5680 C   0  0  0  0  0  0  0  0  0  0  0  0
   58.5930   33.4940   44.5610 C   0  0  0  0  0  0  0  0  0  0  0  0
   59.2610   34.6760   44.8960 C   0  0  0  0  0  0  0  0  0  0  0  0
   59.4100   35.0400   46.2360 C   0  0  0  0  0  0  0  0  0  0  0  0
   58.8980   34.2200   47.2450 C   0  0  0  0  0  0  0  0  0  0  0  0
   58.2300   33.0370   46.9130 C   0  0  0  0  0  0  0  0  0  0  0  0
   59.2223   27.3575   45.0336 H   0  0  0  0  0  0  0  0  0  0  0  0
   58.7669   28.6516   43.8740 H   0  0  0  0  0  0  0  0  0  0  0  0
   60.4381   27.9930   43.8740 H   0  0  0  0  0  0  0  0  0  0  0  0
   60.7538   28.8873   46.1929 H   0  0  0  0  0  0  0  0  0  0  0  0
   60.3994   30.1797   44.9802 H   0  0  0  0  0  0  0  0  0  0  0  0
   58.1997   30.6183   48.1278 H   0  0  0  0  0  0  0  0  0  0  0  0
   58.8768   28.9463   48.2542 H   0  0  0  0  0  0  0  0  0  0  0  0
   60.4556   30.5468   49.2251 H   0  0  0  0  0  0  0  0  0  0  0  0
   61.1385   29.8588   47.7128 H   0  0  0  0  0  0  0  0  0  0  0  0
   60.4454   31.5160   47.7128 H   0  0  0  0  0  0  0  0  0  0  0  0
   58.4866   33.2056   43.5048 H   0  0  0  0  0  0  0  0  0  0  0  0
   59.6696   35.3198   44.1031 H   0  0  0  0  0  0  0  0  0  0  0  0
   59.9308   35.9730   46.4974 H   0  0  0  0  0  0  0  0  0  0  0  0
   59.0204   34.5050   48.3004 H   0  0  0  0  0  0  0  0  0  0  0  0
   57.8380   32.3881   47.7100 H   0  0  0  0  0  0  0  0  0  0  0  0
  1  2  1  0
  2  3  1  0
  3  4  1  0
  4  5  1  0
  3  6  1  0
  6  7  2  0
  7  8  1  0
  8  9  2  0
  9 10  1  0
 10 11  1  0
 11 12  2  0
 12 13  1  0
 13 14  2  0
 14 15  1  0
 15 16  2  0
 10  6  1  0
 16 11  1  0
  1 17  1  0
  1 18  1  0
  1 19  1  0
  2 20  1  0
  2 21  1  0
  4 22  1  0
  4 23  1  0
  5 24  1  0
  5 25  1  0
  5 26  1  0
 12 27  1  0
 13 28  1  0
 14 29  1  0
 15 30  1  0
 16 31  1  0
M  END
>  <UniqueID>  (23) 
21

>  <SMILES>  (23) 
CCN(CC)c1nnnn1-c1ccccc1

>  <Energy>  (23) 
72.7868849202976

>  <Genealogy>  (23) 
CCN(CC)c1nnnn1-c1ccccc1 (3D coordinates assigned)
CCN(CC)c1nnnn1-c1ccccc1 (optimized conformer: 72.7868849202976 kcal/mol)

>  <smiles>  (23) 
CCN(CC)c1nnnn1-c1ccccc1

>  <score_type>  (23) 
oracle

>  <origin>  (23) 
adg

>  <m_score__min__energy>  (23) 
-6.6699999999999999

>  <m_primary>  (23) 
energy

$$$$
23:0
     RDKit          3D

 58 60  0  0  0  0  0  0  0  0999 V2000
   56.6260   30.3030   42.8600 C   0  0  0  0  0  0  0  0  0  0  0  0
   56.6480   29.7580   44.2840 C   0  0  0  0  0  0  0  0  0  0  0  0
   57.1140   30.8000   45.2280 N   0  0  0  0  0  0  0  0  0  0  0  0
   58.1290   30.3170   46.1950 C   0  0  0  0  0  0  0  0  0  0  0  0
   59.5260   30.0940   45.5930 C   0  0  0  0  0  0  0  0  0  0  0  0
   57.5090   32.0520   44.5460 C   0  0  0  0  0  0  0  0  0  0  0  0
   56.8910   33.2740   45.2500 C   0  0  0  0  0  0  0  0  0  0  0  0
   57.9070   34.2820   45.5600 N   0  0  0  0  0  0  0  0  0  0  0  0
   59.0330   34.0740   46.4360 C   0  0  0  0  0  0  0  0  0  0  0  0
   58.8010   33.6540   47.7520 C   0  0  0  0  0  0  0  0  0  0  0  0
   59.8660   33.4540   48.6300 C   0  0  0  0  0  0  0  0  0  0  0  0
   61.1870   33.6740   48.2170 C   0  0  0  0  0  0  0  0  0  0  0  0
   62.2590   33.4770   49.1560 N   0  0  0  0  0  0  0  0  0  0  0  0
   62.9820   32.3520   49.3320 C   0  0  0  0  0  0  0  0  0  0  0  0
   63.9360   32.5950   50.3030 C   0  0  0  0  0  0  0  0  0  0  0  0
   64.9590   31.6540   50.8270 C   0  0  0  0  0  0  0  0  0  0  0  0
   66.3310   31.9360   50.6930 C   0  0  0  0  0  0  0  0  0  0  0  0
   67.2910   31.0490   51.1850 C   0  0  0  0  0  0  0  0  0  0  0  0
   66.9000   29.8660   51.8260 C   0  0  0  0  0  0  0  0  0  0  0  0
   67.9390   28.9060   52.3230 C   0  0  0  0  0  0  0  0  0  0  0  0
   65.5350   29.5690   51.9490 C   0  0  0  0  0  0  0  0  0  0  0  0
   64.5730   30.4570   51.4600 C   0  0  0  0  0  0  0  0  0  0  0  0
   63.7350   33.9170   50.6700 C   0  0  0  0  0  0  0  0  0  0  0  0
   62.7170   34.4310   49.9520 N   0  0  0  0  0  0  0  0  0  0  0  0
   61.4400   34.0620   46.8840 C   0  0  0  0  0  0  0  0  0  0  0  0
   62.7700   34.2160   46.4590 O   0  0  0  0  0  0  0  0  0  0  0  0
   63.7610   33.1960   46.5050 C   0  0  0  0  0  0  0  0  0  0  0  0
   60.3570   34.2570   46.0020 C   0  0  0  0  0  0  0  0  0  0  0  0
   56.5816   31.4017   42.8886 H   0  0  0  0  0  0  0  0  0  0  0  0
   57.5377   29.9864   42.3321 H   0  0  0  0  0  0  0  0  0  0  0  0
   55.7428   29.9140   42.3321 H   0  0  0  0  0  0  0  0  0  0  0  0
   55.6334   29.4406   44.5664 H   0  0  0  0  0  0  0  0  0  0  0  0
   57.3376   28.9021   44.3281 H   0  0  0  0  0  0  0  0  0  0  0  0
   58.2167   31.0601   47.0013 H   0  0  0  0  0  0  0  0  0  0  0  0
   57.7809   29.3361   46.5510 H   0  0  0  0  0  0  0  0  0  0  0  0
   60.2602   29.9768   46.4037 H   0  0  0  0  0  0  0  0  0  0  0  0
   59.5171   29.1859   44.9723 H   0  0  0  0  0  0  0  0  0  0  0  0
   59.8002   30.9597   44.9723 H   0  0  0  0  0  0  0  0  0  0  0  0
   58.6052   32.1419   44.5627 H   0  0  0  0  0  0  0  0  0  0  0  0
   57.1443   32.0197   43.5087 H   0  0  0  0  0  0  0  0  0  0  0  0
   56.1325   33.7212   44.5907 H   0  0  0  0  0  0  0  0  0  0  0  0
   56.4378   32.9373   46.1940 H   0  0  0  0  0  0  0  0  0  0  0  0
   57.8410   35.1930   45.0500 H   0  0  0  0  0  0  0  0  0  0  0  0
   57.7706   33.4805   48.0957 H   0  0  0  0  0  0  0  0  0  0  0  0
   59.6668   33.1196   49.6588 H   0  0  0  0  0  0  0  0  0  0  0  0
   62.8374   31.4031   48.7947 H   0  0  0  0  0  0  0  0  0  0  0  0
   66.6505   32.8639   50.1960 H   0  0  0  0  0  0  0  0  0  0  0  0
   68.3601   31.2804   51.0686 H   0  0  0  0  0  0  0  0  0  0  0  0
   67.9406   28.9045   53.4230 H   0  0  0  0  0  0  0  0  0  0  0  0
   67.7098   27.8949   51.9553 H   0  0  0  0  0  0  0  0  0  0  0  0
   68.9288   29.2143   51.9553 H   0  0  0  0  0  0  0  0  0  0  0  0
   65.2200   28.6326   52.4327 H   0  0  0  0  0  0  0  0  0  0  0  0
   63.5048   30.2187   51.5706 H   0  0  0  0  0  0  0  0  0  0  0  0
   64.3160   34.4614   51.4290 H   0  0  0  0  0  0  0  0  0  0  0  0
   63.9930   32.9572   47.5534 H   0  0  0  0  0  0  0  0  0  0  0  0
   63.3839   32.2953   45.9986 H   0  0  0  0  0  0  0  0  0  0  0  0
   64.6722   33.5470   45.9986 H   0  0  0  0  0  0  0  0  0  0  0  0
   60.5511   34.5561   44.9614 H   0  0  0  0  0  0  0  0  0  0  0  0
  1  2  1  0
  2  3  1  0
  3  4  1  0
  4  5  1  0
  3  6  1  0
  6  7  1  0
  7  8  1  0
  8  9  1  0
  9 10  2  0
 10 11  1  0
 11 12  2  0
 12 13  1  0
 13 14  1  0
 14 15  2  0
 15 16  1  0
 16 17  2  0
 17 18  1  0
 18 19  2  0
 19 20  1  0
 19 21  1  0
 21 22  2  0
 15 23  1  0
 23 24  2  0
 12 25  1  0
 25 26  1  0
 26 27  1  0
 25 28  2  0
 28  9  1  0
 24 13  1  0
 22 16  1  0
  1 29  1  0
  1 30  1  0
  1 31  1  0
  2 32  1  0
  2 33  1  0
  4 34  1  0
  4 35  1  0
  5 36  1  0
  5 37  1  0
  5 38  1  0
  6 39  1  0
  6 40  1  0
  7 41  1  0
  7 42  1  0
  8 43  1  0
 10 44  1  0
 11 45  1  0
 14 46  1  0
 17 47  1  0
 18 48  1  0
 20 49  1  0
 20 50  1  0
 20 51  1  0
 21 52  1  0
 22 53  1  0
 23 54  1  0
 27 55  1  0
 27 56  1  0
 27 57  1  0
 28 58  1  0
M  END
>  <UniqueID>  (24) 
22

>  <SMILES>  (24) 
CCN(CC)CCNc1ccc(-n2cc(-c3ccc(C)cc3)cn2)c(OC)c1

>  <Energy>  (24) 
95.08819204110367

>  <Genealogy>  (24) 
CCN(CC)CCNc1ccc(-n2cc(-c3ccc(C)cc3)cn2)c(OC)c1 (3D coordinates assigned)
CCN(CC)CCNc1ccc(-n2cc(-c3ccc(C)cc3)cn2)c(OC)c1 (optimized conformer: 95.08819204110367 kcal/mol)

>  <smiles>  (24) 
CCN(CC)CCNc1ccc(-n2cc(-c3ccc(C)cc3)cn2)c(OC)c1

>  <score_type>  (24) 
oracle

>  <origin>  (24) 
adg

>  <m_score__min__energy>  (24) 
-7.5300000000000002

>  <m_primary>  (24) 
energy

$$$$
24:0
     RDKit          3D

 70 73  0  0  0  0  0  0  0  0999 V2000
   64.0800   30.4630   51.6160 C   0  0  0  0  0  0  0  0  0  0  0  0
   65.0990   31.2880   50.8200 C   0  0  0  0  0  0  0  0  0  0  0  0
   64.6770   32.6990   50.6130 N   0  0  0  0  0  0  0  0  0  0  0  0
   65.7390   33.6940   50.9400 C   0  0  0  0  0  0  0  0  0  0  0  0
   67.1660   33.3070   50.5090 C   0  0  0  0  0  0  0  0  0  0  0  0
   63.3520   33.0480   51.1970 C   0  0  0  0  0  0  0  0  0  0  0  0
   62.6570   34.2680   50.5660 C   0  0  0  0  0  0  0  0  0  0  0  0
   61.8840   33.8430   49.3900 N   0  0  0  0  0  0  0  0  0  0  0  0
   60.6530   34.5640   49.0200 C   0  0  0  0  0  0  0  0  0  0  0  0
   59.9770   33.8920   47.8550 C   0  0  0  0  0  0  0  0  0  0  0  0
   60.3610   34.1890   46.5380 C   0  0  0  0  0  0  0  0  0  0  0  0
   59.7060   33.5900   45.4600 C   0  0  0  0  0  0  0  0  0  0  0  0
   58.6550   32.6810   45.6780 C   0  0  0  0  0  0  0  0  0  0  0  0
   57.9590   32.0420   44.5320 C   0  0  0  0  0  0  0  0  0  0  0  0
   57.1680   30.8930   44.7260 C   0  0  0  0  0  0  0  0  0  0  0  0
   56.5170   30.2900   43.6460 C   0  0  0  0  0  0  0  0  0  0  0  0
   56.6460   30.8260   42.3630 C   0  0  0  0  0  0  0  0  0  0  0  0
   57.4270   31.9660   42.1570 C   0  0  0  0  0  0  0  0  0  0  0  0
   57.5490   32.4860   40.9110 F   0  0  0  0  0  0  0  0  0  0  0  0
   58.0810   32.5720   43.2330 C   0  0  0  0  0  0  0  0  0  0  0  0
   58.2740   32.3880   47.0000 C   0  0  0  0  0  0  0  0  0  0  0  0
   58.9280   32.9900   48.0780 C   0  0  0  0  0  0  0  0  0  0  0  0
   62.4000   32.7870   48.5490 C   0  0  0  0  0  0  0  0  0  0  0  0
   63.4820   32.9600   47.9240 O   0  0  0  0  0  0  0  0  0  0  0  0
   61.6810   31.5090   48.3840 C   0  0  0  0  0  0  0  0  0  0  0  0
   61.3400   30.7430   49.5100 C   0  0  0  0  0  0  0  0  0  0  0  0
   60.6670   29.5270   49.3600 C   0  0  0  0  0  0  0  0  0  0  0  0
   60.3270   29.0660   48.0810 C   0  0  0  0  0  0  0  0  0  0  0  0
   60.6460   29.8360   46.9520 C   0  0  0  0  0  0  0  0  0  0  0  0
   61.3070   31.0630   47.1060 C   0  0  0  0  0  0  0  0  0  0  0  0
   60.2040   29.3480   45.5990 C   0  0  0  0  0  0  0  0  0  0  0  0
   60.4580   27.8370   45.4370 C   0  0  0  0  0  0  0  0  0  0  0  0
   60.1910   26.9870   46.7090 C   0  0  0  0  0  0  0  0  0  0  0  0
   59.5850   27.7740   47.8820 C   0  0  0  0  0  0  0  0  0  0  0  0
   64.2547   30.6045   52.6928 H   0  0  0  0  0  0  0  0  0  0  0  0
   63.0621   30.7945   51.3630 H   0  0  0  0  0  0  0  0  0  0  0  0
   64.1924   29.3984   51.3630 H   0  0  0  0  0  0  0  0  0  0  0  0
   66.0539   31.2852   51.3660 H   0  0  0  0  0  0  0  0  0  0  0  0
   65.1897   30.8249   49.8264 H   0  0  0  0  0  0  0  0  0  0  0  0
   64.5350   32.7970   49.5780 H   0  0  0  0  0  0  0  0  0  0  0  0
   65.4803   34.6411   50.4439 H   0  0  0  0  0  0  0  0  0  0  0  0
   65.7628   33.7603   52.0377 H   0  0  0  0  0  0  0  0  0  0  0  0
   67.7859   33.1389   51.4020 H   0  0  0  0  0  0  0  0  0  0  0  0
   67.1306   32.3860   49.9086 H   0  0  0  0  0  0  0  0  0  0  0  0
   67.6008   34.1197   49.9086 H   0  0  0  0  0  0  0  0  0  0  0  0
   62.6882   32.1790   51.0775 H   0  0  0  0  0  0  0  0  0  0  0  0
   63.5426   33.3152   52.2469 H   0  0  0  0  0  0  0  0  0  0  0  0
   61.9803   34.7253   51.3029 H   0  0  0  0  0  0  0  0  0  0  0  0
   63.4165   35.0016   50.2577 H   0  0  0  0  0  0  0  0  0  0  0  0
   59.9671   34.5737   49.8799 H   0  0  0  0  0  0  0  0  0  0  0  0
   60.9165   35.5926   48.7328 H   0  0  0  0  0  0  0  0  0  0  0  0
   61.1822   34.8973   46.3541 H   0  0  0  0  0  0  0  0  0  0  0  0
   60.0145   33.8310   44.4320 H   0  0  0  0  0  0  0  0  0  0  0  0
   57.0617   30.4671   45.7346 H   0  0  0  0  0  0  0  0  0  0  0  0
   55.9023   29.3921   43.8069 H   0  0  0  0  0  0  0  0  0  0  0  0
   56.1326   30.3505   41.5143 H   0  0  0  0  0  0  0  0  0  0  0  0
   58.6951   33.4689   43.0642 H   0  0  0  0  0  0  0  0  0  0  0  0
   57.4541   31.6788   47.1867 H   0  0  0  0  0  0  0  0  0  0  0  0
   58.6179   32.7547   49.1068 H   0  0  0  0  0  0  0  0  0  0  0  0
   61.6039   31.1017   50.5159 H   0  0  0  0  0  0  0  0  0  0  0  0
   60.4041   28.9314   50.2467 H   0  0  0  0  0  0  0  0  0  0  0  0
   61.5334   31.6783   46.2227 H   0  0  0  0  0  0  0  0  0  0  0  0
   59.1282   29.5449   45.4812 H   0  0  0  0  0  0  0  0  0  0  0  0
   60.7842   29.8813   44.8316 H   0  0  0  0  0  0  0  0  0  0  0  0
   59.8041   27.4651   44.6345 H   0  0  0  0  0  0  0  0  0  0  0  0
   61.5294   27.7274   45.2131 H   0  0  0  0  0  0  0  0  0  0  0  0
   59.4959   26.1772   46.4422 H   0  0  0  0  0  0  0  0  0  0  0  0
   61.1689   26.6170   47.0507 H   0  0  0  0  0  0  0  0  0  0  0  0
   58.5286   27.9916   47.6659 H   0  0  0  0  0  0  0  0  0  0  0  0
   59.6652   27.1701   48.7979 H   0  0  0  0  0  0  0  0  0  0  0  0
  1  2  1  0
  2  3  1  0
  3  4  1  0
  4  5  1  0
  3  6  1  0
  6  7  1  0
  7  8  1  0
  8  9  1  0
  9 10  1  0
 10 11  2  0
 11 12  1  0
 12 13  2  0
 13 14  1  0
 14 15  2  0
 15 16  1  0
 16 17  2  0
 17 18  1  0
 18 19  1  0
 18 20  2  0
 13 21  1  0
 21 22  2  0
  8 23  1  0
 23 24  2  0
 23 25  1  0
 25 26  2  0
 26 27  1  0
 27 28  2  0
 28 29  1  0
 29 30  2  0
 29 31  1  0
 31 32  1  0
 32 33  1  0
 33 34  1  0
 22 10  1  0
 30 25  1  0
 20 14  1  0
 34 28  1  0
  1 35  1  0
  1 36  1  0
  1 37  1  0
  2 38  1  0
  2 39  1  0
  3 40  1  0
  4 41  1  0
  4 42  1  0
  5 43  1  0
  5 44  1  0
  5 45  1  0
  6 46  1  0
  6 47  1  0
  7 48  1  0
  7 49  1  0
  9 50  1  0
  9 51  1  0
 11 52  1  0
 12 53  1  0
 15 54  1  0
 16 55  1  0
 17 56  1  0
 20 57  1  0
 21 58  1  0
 22 59  1  0
 26 60  1  0
 27 61  1  0
 30 62  1  0
 31 63  1  0
 31 64  1  0
 32 65  1  0
 32 66  1  0
 33 67  1  0
 33 68  1  0
 34 69  1  0
 34 70  1  0
M  CHG  1   3   1
M  END
>  <UniqueID>  (25) 
23

>  <SMILES>  (25) 
CC[NH+](CC)CCN(Cc1ccc(-c2cccc(F)c2)cc1)C(=O)c1ccc2c(c1)CCCC2

>  <Energy>  (25) 
90.34966690133975

>  <Genealogy>  (25) 
CC[NH+](CC)CCN(Cc1ccc(-c2cccc(F)c2)cc1)C(=O)c1ccc2c(c1)CCCC2 (protonated)
CC[NH+](CC)CCN(Cc1ccc(-c2cccc(F)c2)cc1)C(=O)c1ccc2c(c1)CCCC2 (3D coordinates assigned)
CC[NH+](CC)CCN(Cc1ccc(-c2cccc(F)c2)cc1)C(=O)c1ccc2c(c1)CCCC2 (nonaromatic ring conformer: 90.34966690133975 kcal/mol)

>  <smiles>  (25) 
CCN(CC)CCN(Cc1ccc(-c2cccc(F)c2)cc1)C(=O)c1ccc2c(c1)CCCC2

>  <score_type>  (25) 
oracle

>  <origin>  (25) 
adg

>  <m_score__min__energy>  (25) 
-7.6299999999999999

>  <m_primary>  (25) 
energy

$$$$
25:0
     RDKit          3D

 44 46  0  0  0  0  0  0  0  0999 V2000
   55.7530   29.7450   44.8830 O   0  0  0  0  0  0  0  0  0  0  0  0
   56.9510   29.3490   44.8670 C   0  0  0  0  0  0  0  0  0  0  0  0
   57.2430   28.0190   45.2370 C   0  0  0  0  0  0  0  0  0  0  0  0
   56.1770   27.1350   45.6490 N   0  0  0  0  0  0  0  0  0  0  0  0
   56.3660   25.7730   46.1530 C   0  0  0  0  0  0  0  0  0  0  0  0
   55.1420   24.9050   45.8640 C   0  0  0  0  0  0  0  0  0  0  0  0
   54.0280   25.7060   45.5840 O   0  0  0  0  0  0  0  0  0  0  0  0
   58.5810   27.5960   45.2140 C   0  0  0  0  0  0  0  0  0  0  0  0
   59.5840   28.4730   44.8170 C   0  0  0  0  0  0  0  0  0  0  0  0
   59.2550   29.7740   44.4490 C   0  0  0  0  0  0  0  0  0  0  0  0
   57.9570   30.2040   44.4840 N   0  0  0  0  0  0  0  0  0  0  0  0
   57.6560   31.5790   44.0490 C   0  0  0  0  0  0  0  0  0  0  0  0
   58.1810   32.5680   45.0560 C   0  0  0  0  0  0  0  0  0  0  0  0
   57.3750   33.6340   45.4820 C   0  0  0  0  0  0  0  0  0  0  0  0
   57.8450   34.5290   46.4450 C   0  0  0  0  0  0  0  0  0  0  0  0
   59.1160   34.3630   46.9980 C   0  0  0  0  0  0  0  0  0  0  0  0
   59.9350   33.2950   46.5940 C   0  0  0  0  0  0  0  0  0  0  0  0
   61.2820   33.1080   47.1920 C   0  0  0  0  0  0  0  0  0  0  0  0
   62.3890   33.8240   46.6980 C   0  0  0  0  0  0  0  0  0  0  0  0
   63.6570   33.6460   47.2600 C   0  0  0  0  0  0  0  0  0  0  0  0
   63.8340   32.7550   48.3200 C   0  0  0  0  0  0  0  0  0  0  0  0
   62.7440   32.0380   48.8200 C   0  0  0  0  0  0  0  0  0  0  0  0
   61.4740   32.2120   48.2600 C   0  0  0  0  0  0  0  0  0  0  0  0
   59.4570   32.4010   45.6190 C   0  0  0  0  0  0  0  0  0  0  0  0
   55.1900   27.4660   45.5570 H   0  0  0  0  0  0  0  0  0  0  0  0
   57.2455   25.3280   45.6647 H   0  0  0  0  0  0  0  0  0  0  0  0
   56.5115   25.8205   47.2423 H   0  0  0  0  0  0  0  0  0  0  0  0
   55.3516   24.2606   44.9975 H   0  0  0  0  0  0  0  0  0  0  0  0
   54.9246   24.2902   46.7499 H   0  0  0  0  0  0  0  0  0  0  0  0
   53.6360   25.9490   46.4630 H   0  0  0  0  0  0  0  0  0  0  0  0
   58.8367   26.5681   45.5108 H   0  0  0  0  0  0  0  0  0  0  0  0
   60.6322   28.1402   44.7939 H   0  0  0  0  0  0  0  0  0  0  0  0
   60.0480   30.4647   44.1262 H   0  0  0  0  0  0  0  0  0  0  0  0
   58.1319   31.7646   43.0748 H   0  0  0  0  0  0  0  0  0  0  0  0
   56.5659   31.6983   43.9624 H   0  0  0  0  0  0  0  0  0  0  0  0
   56.3694   33.7653   45.0560 H   0  0  0  0  0  0  0  0  0  0  0  0
   57.2116   35.3679   46.7691 H   0  0  0  0  0  0  0  0  0  0  0  0
   59.4790   35.0733   47.7554 H   0  0  0  0  0  0  0  0  0  0  0  0
   62.2555   34.5286   45.8639 H   0  0  0  0  0  0  0  0  0  0  0  0
   64.5162   34.2088   46.8663 H   0  0  0  0  0  0  0  0  0  0  0  0
   64.8320   32.6174   48.7618 H   0  0  0  0  0  0  0  0  0  0  0  0
   62.8847   31.3359   49.6550 H   0  0  0  0  0  0  0  0  0  0  0  0
   60.6195   31.6445   48.6572 H   0  0  0  0  0  0  0  0  0  0  0  0
   60.0894   31.5618   45.2938 H   0  0  0  0  0  0  0  0  0  0  0  0
  1  2  2  0
  2  3  1  0
  3  4  1  0
  4  5  1  0
  5  6  1  0
  6  7  1  0
  3  8  2  0
  8  9  1  0
  9 10  2  0
 10 11  1  0
 11 12  1  0
 12 13  1  0
 13 14  2  0
 14 15  1  0
 15 16  2  0
 16 17  1  0
 17 18  1  0
 18 19  2  0
 19 20  1  0
 20 21  2  0
 21 22  1  0
 22 23  2  0
 17 24  2  0
 11  2  1  0
 24 13  1  0
 23 18  1  0
  4 25  1  0
  5 26  1  0
  5 27  1  0
  6 28  1  0
  6 29  1  0
  7 30  1  0
  8 31  1  0
  9 32  1  0
 10 33  1  0
 12 34  1  0
 12 35  1  0
 14 36  1  0
 15 37  1  0
 16 38  1  0
 19 39  1  0
 20 40  1  0
 21 41  1  0
 22 42  1  0
 23 43  1  0
 24 44  1  0
M  END
>  <UniqueID>  (26) 
24

>  <SMILES>  (26) 
O=c1c(NCCO)cccn1Cc1cccc(-c2ccccc2)c1

>  <Energy>  (26) 
52.01888598710634

>  <Genealogy>  (26) 
O=c1c(NCCO)cccn1Cc1cccc(-c2ccccc2)c1 (3D coordinates assigned)
O=c1c(NCCO)cccn1Cc1cccc(-c2ccccc2)c1 (optimized conformer: 52.01888598710634 kcal/mol)

>  <smiles>  (26) 
O=c1c(NCCO)cccn1Cc1cccc(-c2ccccc2)c1

>  <score_type>  (26) 
oracle

>  <origin>  (26) 
adg

>  <m_score__min__energy>  (26) 
-9.6799999999999997

>  <m_primary>  (26) 
energy

$$$$
26:0
     RDKit          3D

 59 63  0  0  0  0  0  0  0  0999 V2000
   60.1480   32.9080   50.8010 C   0  0  0  0  0  0  0  0  0  0  0  0
   61.1230   33.8350   50.3340 O   0  0  0  0  0  0  0  0  0  0  0  0
   61.9190   33.6500   49.1920 C   0  0  0  0  0  0  0  0  0  0  0  0
   63.2250   33.1230   49.2800 C   0  0  0  0  0  0  0  0  0  0  0  0
   63.9960   32.9480   48.1300 C   0  0  0  0  0  0  0  0  0  0  0  0
   63.4800   33.2930   46.8810 C   0  0  0  0  0  0  0  0  0  0  0  0
   62.1910   33.8150   46.7780 C   0  0  0  0  0  0  0  0  0  0  0  0
   61.4030   34.0030   47.9250 C   0  0  0  0  0  0  0  0  0  0  0  0
   59.9980   34.5360   47.7730 C   0  0  0  0  0  0  0  0  0  0  0  0
   59.2250   33.6870   46.8550 N   0  0  0  0  0  0  0  0  0  0  0  0
   58.4030   34.3200   45.8150 C   0  0  0  0  0  0  0  0  0  0  0  0
   57.0990   33.5470   45.6210 C   0  0  0  0  0  0  0  0  0  0  0  0
   57.3360   32.3670   44.7940 N   0  0  0  0  0  0  0  0  0  0  0  0
   57.5810   32.3650   43.4700 C   0  0  0  0  0  0  0  0  0  0  0  0
   57.6660   31.0540   43.0420 C   0  0  0  0  0  0  0  0  0  0  0  0
   57.4510   30.2900   44.1830 C   0  0  0  0  0  0  0  0  0  0  0  0
   57.4350   28.8080   44.2610 C   0  0  0  0  0  0  0  0  0  0  0  0
   57.0620   28.1590   45.4520 C   0  0  0  0  0  0  0  0  0  0  0  0
   57.0570   26.7630   45.5290 C   0  0  0  0  0  0  0  0  0  0  0  0
   57.4230   25.9850   44.4180 C   0  0  0  0  0  0  0  0  0  0  0  0
   57.4270   24.5010   44.5030 C   0  0  0  0  0  0  0  0  0  0  0  0
   58.2190   23.8410   45.4620 C   0  0  0  0  0  0  0  0  0  0  0  0
   58.2230   22.4440   45.5370 C   0  0  0  0  0  0  0  0  0  0  0  0
   57.4400   21.6930   44.6580 C   0  0  0  0  0  0  0  0  0  0  0  0
   56.6510   22.3360   43.7020 C   0  0  0  0  0  0  0  0  0  0  0  0
   56.6410   23.7320   43.6240 C   0  0  0  0  0  0  0  0  0  0  0  0
   57.7930   26.6330   43.2270 C   0  0  0  0  0  0  0  0  0  0  0  0
   57.8000   28.0280   43.1510 C   0  0  0  0  0  0  0  0  0  0  0  0
   57.2450   31.1210   45.2270 N   0  0  0  0  0  0  0  0  0  0  0  0
   59.2200   32.2540   47.0180 C   0  0  0  0  0  0  0  0  0  0  0  0
   58.3090   31.5640   47.7390 N   0  0  0  0  0  0  0  0  0  0  0  0
   58.5250   30.2430   47.7320 N   0  0  0  0  0  0  0  0  0  0  0  0
   59.5800   29.8260   47.0310 N   0  0  0  0  0  0  0  0  0  0  0  0
   60.3060   31.1660   46.3680 S   0  0  0  0  0  0  0  0  0  0  0  0
   60.1434   32.9037   51.9010 H   0  0  0  0  0  0  0  0  0  0  0  0
   59.1549   33.2031   50.4314 H   0  0  0  0  0  0  0  0  0  0  0  0
   60.3926   31.9012   50.4314 H   0  0  0  0  0  0  0  0  0  0  0  0
   63.6382   32.8482   50.2617 H   0  0  0  0  0  0  0  0  0  0  0  0
   65.0133   32.5369   48.2088 H   0  0  0  0  0  0  0  0  0  0  0  0
   64.0903   33.1532   45.9765 H   0  0  0  0  0  0  0  0  0  0  0  0
   61.7881   34.0818   45.7898 H   0  0  0  0  0  0  0  0  0  0  0  0
   59.5062   34.5477   48.7569 H   0  0  0  0  0  0  0  0  0  0  0  0
   60.0453   35.5553   47.3623 H   0  0  0  0  0  0  0  0  0  0  0  0
   58.1708   35.3524   46.1152 H   0  0  0  0  0  0  0  0  0  0  0  0
   58.9627   34.3179   44.8680 H   0  0  0  0  0  0  0  0  0  0  0  0
   56.7125   33.2328   46.6017 H   0  0  0  0  0  0  0  0  0  0  0  0
   56.3652   34.1965   45.1214 H   0  0  0  0  0  0  0  0  0  0  0  0
   57.6944   33.2567   42.8360 H   0  0  0  0  0  0  0  0  0  0  0  0
   57.8612   30.6937   42.0212 H   0  0  0  0  0  0  0  0  0  0  0  0
   56.7719   28.7548   46.3300 H   0  0  0  0  0  0  0  0  0  0  0  0
   56.7640   26.2697   46.4675 H   0  0  0  0  0  0  0  0  0  0  0  0
   58.8384   24.4274   46.1565 H   0  0  0  0  0  0  0  0  0  0  0  0
   58.8440   21.9363   46.2897 H   0  0  0  0  0  0  0  0  0  0  0  0
   57.4447   20.5947   44.7186 H   0  0  0  0  0  0  0  0  0  0  0  0
   56.0361   21.7431   43.0089 H   0  0  0  0  0  0  0  0  0  0  0  0
   56.0148   24.2327   42.8708 H   0  0  0  0  0  0  0  0  0  0  0  0
   58.0793   26.0372   42.3478 H   0  0  0  0  0  0  0  0  0  0  0  0
   58.0943   28.5206   42.2125 H   0  0  0  0  0  0  0  0  0  0  0  0
   57.0190   30.8550   46.2110 H   0  0  0  0  0  0  0  0  0  0  0  0
  1  2  1  0
  2  3  1  0
  3  4  2  0
  4  5  1  0
  5  6  2  0
  6  7  1  0
  7  8  2  0
  8  9  1  0
  9 10  1  0
 10 11  1  0
 11 12  1  0
 12 13  1  0
 13 14  1  0
 14 15  2  0
 15 16  1  0
 16 17  1  0
 17 18  2  0
 18 19  1  0
 19 20  2  0
 20 21  1  0
 21 22  2  0
 22 23  1  0
 23 24  2  0
 24 25  1  0
 25 26  2  0
 20 27  1  0
 27 28  2  0
 16 29  2  0
 10 30  1  0
 30 31  2  0
 31 32  1  0
 32 33  2  0
 33 34  1  0
  8  3  1  0
 29 13  1  0
 34 30  1  0
 28 17  1  0
 26 21  1  0
  1 35  1  0
  1 36  1  0
  1 37  1  0
  4 38  1  0
  5 39  1  0
  6 40  1  0
  7 41  1  0
  9 42  1  0
  9 43  1  0
 11 44  1  0
 11 45  1  0
 12 46  1  0
 12 47  1  0
 14 48  1  0
 15 49  1  0
 18 50  1  0
 19 51  1  0
 22 52  1  0
 23 53  1  0
 24 54  1  0
 25 55  1  0
 26 56  1  0
 27 57  1  0
 28 58  1  0
 29 59  1  0
M  CHG  1  29   1
M  END
>  <UniqueID>  (27) 
25

>  <SMILES>  (27) 
COc1ccccc1CN(CCn1ccc(-c2ccc(-c3ccccc3)cc2)[nH+]1)c1nnns1

>  <Energy>  (27) 
140.59904188023106

>  <Genealogy>  (27) 
COc1ccccc1CN(CCn1ccc(-c2ccc(-c3ccccc3)cc2)[nH+]1)c1nnns1 (protonated)
COc1ccccc1CN(CCn1ccc(-c2ccc(-c3ccccc3)cc2)[nH+]1)c1nnns1 (3D coordinates assigned)
COc1ccccc1CN(CCn1ccc(-c2ccc(-c3ccccc3)cc2)[nH+]1)c1nnns1 (optimized conformer: 140.59904188023106 kcal/mol)

>  <smiles>  (27) 
COc1ccccc1CN(CCn1ccc(-c2ccc(-c3ccccc3)cc2)n1)c1nnns1

>  <score_type>  (27) 
oracle

>  <origin>  (27) 
adg

>  <m_score__min__energy>  (27) 
-8.1799999999999997

>  <m_primary>  (27) 
energy

$$$$
27:0
     RDKit          3D

 55 58  0  0  0  0  0  0  0  0999 V2000
   64.5700   32.6860   49.5740 C   0  0  0  0  0  0  0  0  0  0  0  0
   63.1310   32.1490   49.5260 C   0  0  0  0  0  0  0  0  0  0  0  0
   62.4980   32.2570   48.1900 N   0  0  0  0  0  0  0  0  0  0  0  0
   63.4710   32.5740   47.1160 C   0  0  0  0  0  0  0  0  0  0  0  0
   63.0500   33.8590   46.4130 C   0  0  0  0  0  0  0  0  0  0  0  0
   61.6360   31.0970   47.8770 C   0  0  0  0  0  0  0  0  0  0  0  0
   60.6540   30.8220   49.0190 C   0  0  0  0  0  0  0  0  0  0  0  0
   59.2900   31.1610   48.6110 N   0  0  0  0  0  0  0  0  0  0  0  0
   58.9730   31.4300   47.2330 C   0  0  0  0  0  0  0  0  0  0  0  0
   59.0930   32.7350   46.7230 C   0  0  0  0  0  0  0  0  0  0  0  0
   59.4700   33.8080   47.5590 C   0  0  0  0  0  0  0  0  0  0  0  0
   59.6500   35.0880   47.0400 C   0  0  0  0  0  0  0  0  0  0  0  0
   59.4630   35.3200   45.6830 C   0  0  0  0  0  0  0  0  0  0  0  0
   59.0560   34.2840   44.8440 C   0  0  0  0  0  0  0  0  0  0  0  0
   58.8180   32.9790   45.3500 C   0  0  0  0  0  0  0  0  0  0  0  0
   58.3420   31.9620   44.5460 N   0  0  0  0  0  0  0  0  0  0  0  0
   57.7830   32.2780   43.2110 C   0  0  0  0  0  0  0  0  0  0  0  0
   58.3500   30.6550   45.0010 C   0  0  0  0  0  0  0  0  0  0  0  0
   58.1250   29.5620   44.1250 C   0  0  0  0  0  0  0  0  0  0  0  0
   58.0770   28.2460   44.6000 C   0  0  0  0  0  0  0  0  0  0  0  0
   57.8390   27.1760   43.7200 C   0  0  0  0  0  0  0  0  0  0  0  0
   57.7880   25.8650   44.2050 C   0  0  0  0  0  0  0  0  0  0  0  0
   57.9770   25.6130   45.5660 C   0  0  0  0  0  0  0  0  0  0  0  0
   58.2190   26.6690   46.4480 C   0  0  0  0  0  0  0  0  0  0  0  0
   58.2720   27.9900   45.9720 C   0  0  0  0  0  0  0  0  0  0  0  0
   58.5390   29.0500   46.8410 C   0  0  0  0  0  0  0  0  0  0  0  0
   58.6120   30.3780   46.3700 C   0  0  0  0  0  0  0  0  0  0  0  0
   64.8830   32.8028   50.6220 H   0  0  0  0  0  0  0  0  0  0  0  0
   65.2426   31.9783   49.0672 H   0  0  0  0  0  0  0  0  0  0  0  0
   64.6145   33.6613   49.0672 H   0  0  0  0  0  0  0  0  0  0  0  0
   63.1463   31.0886   49.8181 H   0  0  0  0  0  0  0  0  0  0  0  0
   62.5349   32.7660   50.2145 H   0  0  0  0  0  0  0  0  0  0  0  0
   64.4711   32.7066   47.5545 H   0  0  0  0  0  0  0  0  0  0  0  0
   63.4963   31.7492   46.3886 H   0  0  0  0  0  0  0  0  0  0  0  0
   62.7998   34.6228   47.1640 H   0  0  0  0  0  0  0  0  0  0  0  0
   63.8767   34.2205   45.7838 H   0  0  0  0  0  0  0  0  0  0  0  0
   62.1697   33.6612   45.7838 H   0  0  0  0  0  0  0  0  0  0  0  0
   61.0696   31.3069   46.9577 H   0  0  0  0  0  0  0  0  0  0  0  0
   62.2742   30.2114   47.7414 H   0  0  0  0  0  0  0  0  0  0  0  0
   60.6981   29.7559   49.2862 H   0  0  0  0  0  0  0  0  0  0  0  0
   60.9316   31.4404   49.8853 H   0  0  0  0  0  0  0  0  0  0  0  0
   58.5110   30.9300   49.2660 H   0  0  0  0  0  0  0  0  0  0  0  0
   59.6236   33.6311   48.6338 H   0  0  0  0  0  0  0  0  0  0  0  0
   59.9402   35.9152   47.7045 H   0  0  0  0  0  0  0  0  0  0  0  0
   59.6367   36.3244   45.2694 H   0  0  0  0  0  0  0  0  0  0  0  0
   58.9167   34.4810   43.7708 H   0  0  0  0  0  0  0  0  0  0  0  0
   56.8310   32.8161   43.3301 H   0  0  0  0  0  0  0  0  0  0  0  0
   58.4934   32.9081   42.6558 H   0  0  0  0  0  0  0  0  0  0  0  0
   57.6095   31.3444   42.6558 H   0  0  0  0  0  0  0  0  0  0  0  0
   57.9854   29.7525   43.0506 H   0  0  0  0  0  0  0  0  0  0  0  0
   57.6925   27.3702   42.6472 H   0  0  0  0  0  0  0  0  0  0  0  0
   57.5987   25.0308   43.5134 H   0  0  0  0  0  0  0  0  0  0  0  0
   57.9352   24.5808   45.9440 H   0  0  0  0  0  0  0  0  0  0  0  0
   58.3686   26.4657   47.5187 H   0  0  0  0  0  0  0  0  0  0  0  0
   58.6950   28.8462   47.9106 H   0  0  0  0  0  0  0  0  0  0  0  0
  1  2  1  0
  2  3  1  0
  3  4  1  0
  4  5  1  0
  3  6  1  0
  6  7  1  0
  7  8  1  0
  8  9  1  0
  9 10  2  0
 10 11  1  0
 11 12  2  0
 12 13  1  0
 13 14  2  0
 14 15  1  0
 15 16  2  0
 16 17  1  0
 16 18  1  0
 18 19  2  0
 19 20  1  0
 20 21  2  0
 21 22  1  0
 22 23  2  0
 23 24  1  0
 24 25  2  0
 25 26  1  0
 26 27  2  0
 27  9  1  0
 15 10  1  0
 27 18  1  0
 25 20  1  0
  1 28  1  0
  1 29  1  0
  1 30  1  0
  2 31  1  0
  2 32  1  0
  4 33  1  0
  4 34  1  0
  5 35  1  0
  5 36  1  0
  5 37  1  0
  6 38  1  0
  6 39  1  0
  7 40  1  0
  7 41  1  0
  8 42  1  0
 11 43  1  0
 12 44  1  0
 13 45  1  0
 14 46  1  0
 17 47  1  0
 17 48  1  0
 17 49  1  0
 19 50  1  0
 21 51  1  0
 22 52  1  0
 23 53  1  0
 24 54  1  0
 26 55  1  0
M  CHG  1  16   1
M  END
>  <UniqueID>  (28) 
26

>  <SMILES>  (28) 
CCN(CC)CCNc1c2ccccc2[n+](C)c2cc3ccccc3cc12

>  <Energy>  (28) 
87.03722472462526

>  <Genealogy>  (28) 
CCN(CC)CCNc1c2ccccc2[n+](C)c2cc3ccccc3cc12 (3D coordinates assigned)
CCN(CC)CCNc1c2ccccc2[n+](C)c2cc3ccccc3cc12 (optimized conformer: 87.03722472462526 kcal/mol)

>  <smiles>  (28) 
CCN(CC)CCNc1c2ccccc2[n+](C)c2cc3ccccc3cc12

>  <score_type>  (28) 
oracle

>  <origin>  (28) 
adg

>  <m_score__min__energy>  (28) 
-6.5800000000000001

>  <m_primary>  (28) 
energy

$$$$
28:0
     RDKit          3D

 50 53  0  0  0  0  0  0  0  0999 V2000
   56.5912   34.3374   45.8425 H   0  0  0  0  0  0  0  0  0  0  0  0
   57.5210   33.8520   45.5110 C   0  0  0  0  0  0  0  0  0  0  0  0
   58.6780   34.3820   45.9410 C   0  0  0  0  0  0  0  0  0  0  0  0
   58.8855   35.4283   45.6723 H   0  0  0  0  0  0  0  0  0  0  0  0
   59.6960   33.6720   46.7470 C   0  0  0  0  0  0  0  0  0  0  0  0
   60.9800   34.2100   46.9450 C   0  0  0  0  0  0  0  0  0  0  0  0
   61.2422   35.1816   46.5009 H   0  0  0  0  0  0  0  0  0  0  0  0
   61.9230   33.5140   47.7040 C   0  0  0  0  0  0  0  0  0  0  0  0
   62.9178   33.9504   47.8770 H   0  0  0  0  0  0  0  0  0  0  0  0
   61.6070   32.2660   48.2440 C   0  0  0  0  0  0  0  0  0  0  0  0
   62.3473   31.7330   48.8587 H   0  0  0  0  0  0  0  0  0  0  0  0
   60.3540   31.6890   48.0080 C   0  0  0  0  0  0  0  0  0  0  0  0
   60.0690   30.4060   48.5860 N   0  0  0  0  0  0  0  0  0  0  0  0
   59.9460   29.1630   47.8850 C   0  0  0  0  0  0  0  0  0  0  0  0
   60.7330   28.2090   48.1310 O   0  0  0  0  0  0  0  0  0  0  0  0
   58.9050   29.0140   46.9080 N   0  0  0  0  0  0  0  0  0  0  0  0
   58.4400   29.8860   46.5680 H   0  0  0  0  0  0  0  0  0  0  0  0
   58.5540   27.7690   46.2800 C   0  0  0  0  0  0  0  0  0  0  0  0
   58.4750   27.7030   44.8830 C   0  0  0  0  0  0  0  0  0  0  0  0
   58.6988   28.5962   44.2812 H   0  0  0  0  0  0  0  0  0  0  0  0
   58.1140   26.5110   44.2470 C   0  0  0  0  0  0  0  0  0  0  0  0
   58.0662   26.4715   43.1488 H   0  0  0  0  0  0  0  0  0  0  0  0
   57.8120   25.3640   44.9990 C   0  0  0  0  0  0  0  0  0  0  0  0
   57.4280   24.0960   44.3260 C   0  0  0  0  0  0  0  0  0  0  0  0
   56.3200   24.0530   43.4600 C   0  0  0  0  0  0  0  0  0  0  0  0
   55.7318   24.9649   43.2800 H   0  0  0  0  0  0  0  0  0  0  0  0
   55.9610   22.8580   42.8260 C   0  0  0  0  0  0  0  0  0  0  0  0
   55.0930   22.8333   42.1508 H   0  0  0  0  0  0  0  0  0  0  0  0
   56.7040   21.6970   43.0500 C   0  0  0  0  0  0  0  0  0  0  0  0
   56.4208   20.7586   42.5508 H   0  0  0  0  0  0  0  0  0  0  0  0
   57.8060   21.7260   43.9070 C   0  0  0  0  0  0  0  0  0  0  0  0
   58.3901   20.8105   44.0824 H   0  0  0  0  0  0  0  0  0  0  0  0
   58.1680   22.9190   44.5430 C   0  0  0  0  0  0  0  0  0  0  0  0
   59.0370   22.9367   45.2172 H   0  0  0  0  0  0  0  0  0  0  0  0
   57.8690   25.4380   46.4030 C   0  0  0  0  0  0  0  0  0  0  0  0
   57.6285   24.5503   47.0065 H   0  0  0  0  0  0  0  0  0  0  0  0
   58.2290   26.6310   47.0370 C   0  0  0  0  0  0  0  0  0  0  0  0
   58.2580   26.6789   48.1356 H   0  0  0  0  0  0  0  0  0  0  0  0
   59.3950   32.4030   47.2650 C   0  0  0  0  0  0  0  0  0  0  0  0
   58.4023   31.9630   47.0891 H   0  0  0  0  0  0  0  0  0  0  0  0
   57.3910   32.6730   44.6310 C   0  0  0  0  0  0  0  0  0  0  0  0
   56.7630   31.5650   45.1110 N   0  0  0  0  0  0  0  0  0  0  0  0
   56.5780   30.4530   44.3490 C   0  0  0  0  0  0  0  0  0  0  0  0
   56.0768   29.5716   44.7755 H   0  0  0  0  0  0  0  0  0  0  0  0
   57.0240   30.4300   43.0260 C   0  0  0  0  0  0  0  0  0  0  0  0
   56.8868   29.5304   42.4080 H   0  0  0  0  0  0  0  0  0  0  0  0
   57.6460   31.5620   42.4970 C   0  0  0  0  0  0  0  0  0  0  0  0
   57.9955   31.5618   41.4540 H   0  0  0  0  0  0  0  0  0  0  0  0
   57.8240   32.6950   43.2940 C   0  0  0  0  0  0  0  0  0  0  0  0
   58.2988   33.5964   42.8791 H   0  0  0  0  0  0  0  0  0  0  0  0
  1  2  1  0
  2  3  2  0
  3  4  1  0
  3  5  1  0
  5  6  2  0
  6  7  1  0
  6  8  1  0
  8  9  1  0
  8 10  2  0
 10 11  1  0
 10 12  1  0
 12 13  1  0
 13 14  1  0
 14 15  2  0
 14 16  1  0
 16 17  1  0
 16 18  1  0
 18 19  2  0
 19 20  1  0
 19 21  1  0
 21 22  1  0
 21 23  2  0
 23 24  1  0
 24 25  2  0
 25 26  1  0
 25 27  1  0
 27 28  1  0
 27 29  2  0
 29 30  1  0
 29 31  1  0
 31 32  1  0
 31 33  2  0
 33 34  1  0
 23 35  1  0
 35 36  1  0
 35 37  2  0
 37 38  1  0
 12 39  2  0
 39 40  1  0
  2 41  1  0
 41 42  2  0
 42 43  1  0
 43 44  1  0
 43 45  2  0
 45 46  1  0
 45 47  1  0
 47 48  1  0
 47 49  2  0
 49 50  1  0
 39  5  1  0
 49 41  1  0
 37 18  1  0
 33 24  1  0
M  CHG  1  13  -1
M  END
>  <UniqueID>  (29) 
27

>  <SMILES>  (29) 
O=C([N-]c1cccc(/C=C\c2ccccn2)c1)Nc1ccc(-c2ccccc2)cc1

>  <Energy>  (29) 
77.17163352342013

>  <Genealogy>  (29) 
O=C([N-]c1cccc(C=Cc2ccccn2)c1)Nc1ccc(-c2ccccc2)cc1 (protonated)
O=C([N-]c1cccc(/C=C\c2ccccn2)c1)Nc1ccc(-c2ccccc2)cc1 (cis-trans isomerization)
O=C([N-]c1cccc(/C=C\c2ccccn2)c1)Nc1ccc(-c2ccccc2)cc1 (3D coordinates assigned)
O=C([N-]c1cccc(/C=C\c2ccccn2)c1)Nc1ccc(-c2ccccc2)cc1 (optimized conformer: 77.17163352342013 kcal/mol)

>  <smiles>  (29) 
O=C(Nc1ccc(-c2ccccc2)cc1)Nc1cccc(C=Cc2ccccn2)c1

>  <score_type>  (29) 
oracle

>  <origin>  (29) 
adg

>  <m_score__min__energy>  (29) 
-10.91

>  <m_primary>  (29) 
energy

$$$$
29:0
     RDKit          3D

 45 48  0  0  0  0  0  0  0  0999 V2000
   55.9100   29.7930   43.7640 C   0  0  0  0  0  0  0  0  0  0  0  0
   57.3370   30.3310   43.7460 C   0  0  0  0  0  0  0  0  0  0  0  0
   57.9280   30.3820   45.1560 C   0  0  0  0  0  0  0  0  0  0  0  0
   57.9480   31.7600   45.6380 N   0  0  0  0  0  0  0  0  0  0  0  0
   57.3530   32.8170   45.0490 C   0  0  0  0  0  0  0  0  0  0  0  0
   57.6720   33.9540   45.7660 C   0  0  0  0  0  0  0  0  0  0  0  0
   58.4980   33.5100   46.7840 C   0  0  0  0  0  0  0  0  0  0  0  0
   59.0990   34.3670   47.8580 C   0  0  0  0  0  0  0  0  0  0  0  0
   60.2780   33.7230   48.4490 N   0  0  0  0  0  0  0  0  0  0  0  0
   60.3660   33.0270   49.6170 C   0  0  0  0  0  0  0  0  0  0  0  0
   59.2520   32.8320   50.5650 C   0  0  0  0  0  0  0  0  0  0  0  0
   59.0930   33.6950   51.6620 C   0  0  0  0  0  0  0  0  0  0  0  0
   58.0420   33.5020   52.5630 C   0  0  0  0  0  0  0  0  0  0  0  0
   57.1510   32.4410   52.3840 C   0  0  0  0  0  0  0  0  0  0  0  0
   57.3150   31.5650   51.3080 C   0  0  0  0  0  0  0  0  0  0  0  0
   58.3660   31.7520   50.4030 C   0  0  0  0  0  0  0  0  0  0  0  0
   58.5040   30.8960   49.3580 F   0  0  0  0  0  0  0  0  0  0  0  0
   61.5930   32.4780   49.8240 N   0  0  0  0  0  0  0  0  0  0  0  0
   62.2890   32.8690   48.7430 C   0  0  0  0  0  0  0  0  0  0  0  0
   63.6180   32.5810   48.4420 C   0  0  0  0  0  0  0  0  0  0  0  0
   64.1430   33.0900   47.2390 C   0  0  0  0  0  0  0  0  0  0  0  0
   63.3330   33.8630   46.3760 C   0  0  0  0  0  0  0  0  0  0  0  0
   61.9930   34.1330   46.7080 C   0  0  0  0  0  0  0  0  0  0  0  0
   61.5060   33.6160   47.9120 C   0  0  0  0  0  0  0  0  0  0  0  0
   58.6410   32.1740   46.6850 N   0  0  0  0  0  0  0  0  0  0  0  0
   55.5784   29.6680   44.8053 H   0  0  0  0  0  0  0  0  0  0  0  0
   55.2444   30.5019   43.2498 H   0  0  0  0  0  0  0  0  0  0  0  0
   55.8780   28.8211   43.2498 H   0  0  0  0  0  0  0  0  0  0  0  0
   57.9596   29.6752   43.1197 H   0  0  0  0  0  0  0  0  0  0  0  0
   57.3183   31.3530   43.3395 H   0  0  0  0  0  0  0  0  0  0  0  0
   57.3135   29.7685   45.8313 H   0  0  0  0  0  0  0  0  0  0  0  0
   58.9564   29.9925   45.1314 H   0  0  0  0  0  0  0  0  0  0  0  0
   56.7206   32.7802   44.1497 H   0  0  0  0  0  0  0  0  0  0  0  0
   57.3422   34.9851   45.5708 H   0  0  0  0  0  0  0  0  0  0  0  0
   59.3970   35.3323   47.4228 H   0  0  0  0  0  0  0  0  0  0  0  0
   58.3483   34.5149   48.6483 H   0  0  0  0  0  0  0  0  0  0  0  0
   59.7982   34.5257   51.8125 H   0  0  0  0  0  0  0  0  0  0  0  0
   57.9162   34.1868   53.4146 H   0  0  0  0  0  0  0  0  0  0  0  0
   56.3203   32.2953   53.0902 H   0  0  0  0  0  0  0  0  0  0  0  0
   56.6164   30.7263   51.1718 H   0  0  0  0  0  0  0  0  0  0  0  0
   64.2366   31.9762   49.1214 H   0  0  0  0  0  0  0  0  0  0  0  0
   65.1895   32.8850   46.9690 H   0  0  0  0  0  0  0  0  0  0  0  0
   63.7534   34.2560   45.4386 H   0  0  0  0  0  0  0  0  0  0  0  0
   61.3510   34.7299   46.0436 H   0  0  0  0  0  0  0  0  0  0  0  0
   59.2080   31.5550   47.3050 H   0  0  0  0  0  0  0  0  0  0  0  0
  1  2  1  0
  2  3  1  0
  3  4  1  0
  4  5  1  0
  5  6  2  0
  6  7  1  0
  7  8  1  0
  8  9  1  0
  9 10  1  0
 10 11  1  0
 11 12  2  0
 12 13  1  0
 13 14  2  0
 14 15  1  0
 15 16  2  0
 16 17  1  0
 10 18  2  0
 18 19  1  0
 19 20  2  0
 20 21  1  0
 21 22  2  0
 22 23  1  0
 23 24  2  0
  7 25  2  0
 25  4  1  0
 24  9  1  0
 16 11  1  0
 24 19  1  0
  1 26  1  0
  1 27  1  0
  1 28  1  0
  2 29  1  0
  2 30  1  0
  3 31  1  0
  3 32  1  0
  5 33  1  0
  6 34  1  0
  8 35  1  0
  8 36  1  0
 12 37  1  0
 13 38  1  0
 14 39  1  0
 15 40  1  0
 20 41  1  0
 21 42  1  0
 22 43  1  0
 23 44  1  0
 25 45  1  0
M  CHG  1  25   1
M  END
>  <UniqueID>  (30) 
28

>  <SMILES>  (30) 
CCCn1ccc(Cn2c(-c3ccccc3F)nc3ccccc32)[nH+]1

>  <Energy>  (30) 
114.41732415307752

>  <Genealogy>  (30) 
CCCn1ccc(Cn2c(-c3ccccc3F)nc3ccccc32)[nH+]1 (protonated)
CCCn1ccc(Cn2c(-c3ccccc3F)nc3ccccc32)[nH+]1 (3D coordinates assigned)
CCCn1ccc(Cn2c(-c3ccccc3F)nc3ccccc32)[nH+]1 (optimized conformer: 114.41732415307752 kcal/mol)

>  <smiles>  (30) 
CCCn1ccc(Cn2c(-c3ccccc3F)nc3ccccc32)n1

>  <score_type>  (30) 
oracle

>  <origin>  (30) 
adg

>  <m_score__min__energy>  (30) 
-6.4400000000000004

>  <m_primary>  (30) 
energy

$$$$
30:0
     RDKit          3D

 52 54  0  0  0  0  0  0  0  0999 V2000
   63.3790   33.9130   46.3480 C   0  0  0  0  0  0  0  0  0  0  0  0
   63.7720   33.5430   47.7850 C   0  0  0  0  0  0  0  0  0  0  0  0
   62.6870   32.9510   48.6160 N   0  0  0  0  0  0  0  0  0  0  0  0
   62.6750   31.4610   48.6760 C   0  0  0  0  0  0  0  0  0  0  0  0
   61.3400   30.8200   49.0710 C   0  0  0  0  0  0  0  0  0  0  0  0
   62.3340   33.6660   49.8840 C   0  0  0  0  0  0  0  0  0  0  0  0
   60.8970   34.2210   50.0110 C   0  0  0  0  0  0  0  0  0  0  0  0
   60.0110   33.6380   49.0600 O   0  0  0  0  0  0  0  0  0  0  0  0
   59.9700   34.0060   47.7090 C   0  0  0  0  0  0  0  0  0  0  0  0
   60.7480   34.8960   47.2690 O   0  0  0  0  0  0  0  0  0  0  0  0
   59.0370   33.3140   46.7980 C   0  0  0  0  0  0  0  0  0  0  0  0
   59.1800   31.9420   46.5270 C   0  0  0  0  0  0  0  0  0  0  0  0
   58.2370   31.2750   45.7380 C   0  0  0  0  0  0  0  0  0  0  0  0
   57.1350   31.9640   45.2200 C   0  0  0  0  0  0  0  0  0  0  0  0
   56.1540   31.2410   44.4620 N   0  0  0  0  0  0  0  0  0  0  0  0
   56.3690   30.0040   43.7700 C   0  0  0  0  0  0  0  0  0  0  0  0
   56.2220   29.9740   42.5200 O   0  0  0  0  0  0  0  0  0  0  0  0
   56.8140   28.7790   44.4640 C   0  0  0  0  0  0  0  0  0  0  0  0
   58.0790   28.1930   44.3860 C   0  0  0  0  0  0  0  0  0  0  0  0
   57.9940   27.0870   45.1980 C   0  0  0  0  0  0  0  0  0  0  0  0
   58.9420   26.1210   45.5260 C   0  0  0  0  0  0  0  0  0  0  0  0
   58.5480   25.0890   46.3980 C   0  0  0  0  0  0  0  0  0  0  0  0
   57.2330   25.0500   46.9130 C   0  0  0  0  0  0  0  0  0  0  0  0
   56.3000   26.0440   46.5620 C   0  0  0  0  0  0  0  0  0  0  0  0
   56.7200   27.0530   45.6980 C   0  0  0  0  0  0  0  0  0  0  0  0
   56.0230   28.0670   45.2480 O   0  0  0  0  0  0  0  0  0  0  0  0
   57.0230   33.3470   45.4340 C   0  0  0  0  0  0  0  0  0  0  0  0
   57.9600   34.0130   46.2270 C   0  0  0  0  0  0  0  0  0  0  0  0
   62.5783   34.6669   46.3694 H   0  0  0  0  0  0  0  0  0  0  0  0
   64.2542   34.3226   45.8224 H   0  0  0  0  0  0  0  0  0  0  0  0
   63.0229   33.0147   45.8224 H   0  0  0  0  0  0  0  0  0  0  0  0
   64.5950   32.8149   47.7341 H   0  0  0  0  0  0  0  0  0  0  0  0
   64.0452   34.4889   48.2756 H   0  0  0  0  0  0  0  0  0  0  0  0
   61.8440   33.1400   48.0180 H   0  0  0  0  0  0  0  0  0  0  0  0
   62.9506   31.0810   47.6812 H   0  0  0  0  0  0  0  0  0  0  0  0
   63.3842   31.1884   49.4714 H   0  0  0  0  0  0  0  0  0  0  0  0
   61.2616   30.7823   50.1676 H   0  0  0  0  0  0  0  0  0  0  0  0
   60.5114   31.4185   48.6645 H   0  0  0  0  0  0  0  0  0  0  0  0
   61.2889   29.7992   48.6645 H   0  0  0  0  0  0  0  0  0  0  0  0
   62.4904   32.9618   50.7144 H   0  0  0  0  0  0  0  0  0  0  0  0
   62.9812   34.5554   49.8950 H   0  0  0  0  0  0  0  0  0  0  0  0
   60.5222   34.0067   51.0227 H   0  0  0  0  0  0  0  0  0  0  0  0
   60.9341   35.3036   49.8199 H   0  0  0  0  0  0  0  0  0  0  0  0
   60.0382   31.3899   46.9377 H   0  0  0  0  0  0  0  0  0  0  0  0
   58.3625   30.2034   45.5237 H   0  0  0  0  0  0  0  0  0  0  0  0
   58.9474   28.5384   43.8058 H   0  0  0  0  0  0  0  0  0  0  0  0
   59.9626   26.1631   45.1179 H   0  0  0  0  0  0  0  0  0  0  0  0
   59.2687   24.3075   46.6805 H   0  0  0  0  0  0  0  0  0  0  0  0
   56.9362   24.2376   47.5927 H   0  0  0  0  0  0  0  0  0  0  0  0
   55.2735   26.0247   46.9568 H   0  0  0  0  0  0  0  0  0  0  0  0
   56.1949   33.9076   44.9758 H   0  0  0  0  0  0  0  0  0  0  0  0
   57.8541   35.0932   46.4060 H   0  0  0  0  0  0  0  0  0  0  0  0
  1  2  1  0
  2  3  1  0
  3  4  1  0
  4  5  1  0
  3  6  1  0
  6  7  1  0
  7  8  1  0
  8  9  1  0
  9 10  2  0
  9 11  1  0
 11 12  2  0
 12 13  1  0
 13 14  2  0
 14 15  1  0
 15 16  1  0
 16 17  2  0
 16 18  1  0
 18 19  2  0
 19 20  1  0
 20 21  2  0
 21 22  1  0
 22 23  2  0
 23 24  1  0
 24 25  2  0
 25 26  1  0
 14 27  1  0
 27 28  2  0
 28 11  1  0
 26 18  1  0
 25 20  1  0
  1 29  1  0
  1 30  1  0
  1 31  1  0
  2 32  1  0
  2 33  1  0
  3 34  1  0
  4 35  1  0
  4 36  1  0
  5 37  1  0
  5 38  1  0
  5 39  1  0
  6 40  1  0
  6 41  1  0
  7 42  1  0
  7 43  1  0
 12 44  1  0
 13 45  1  0
 19 46  1  0
 21 47  1  0
 22 48  1  0
 23 49  1  0
 24 50  1  0
 27 51  1  0
 28 52  1  0
M  CHG  2   3   1  15  -1
M  END
>  <UniqueID>  (31) 
29

>  <SMILES>  (31) 
CC[NH+](CC)CCOC(=O)c1ccc([N-]C(=O)c2cc3ccccc3o2)cc1

>  <Energy>  (31) 
107.15966059274413

>  <Genealogy>  (31) 
CC[NH+](CC)CCOC(=O)c1ccc([N-]C(=O)c2cc3ccccc3o2)cc1 (protonated)
CC[NH+](CC)CCOC(=O)c1ccc([N-]C(=O)c2cc3ccccc3o2)cc1 (3D coordinates assigned)
CC[NH+](CC)CCOC(=O)c1ccc([N-]C(=O)c2cc3ccccc3o2)cc1 (optimized conformer: 107.15966059274413 kcal/mol)

>  <smiles>  (31) 
CCN(CC)CCOC(=O)c1ccc(NC(=O)c2cc3ccccc3o2)cc1

>  <score_type>  (31) 
oracle

>  <origin>  (31) 
adg

>  <m_score__min__energy>  (31) 
-7.8300000000000001

>  <m_primary>  (31) 
energy

$$$$
31:0
     RDKit          3D

 66 67  0  0  0  0  0  0  0  0999 V2000
   56.6290   23.6340   42.9960 C   0  0  0  0  0  0  0  0  0  0  0  0
   57.1360   24.4780   44.1760 C   0  0  0  0  0  0  0  0  0  0  0  0
   56.0000   24.7000   45.1820 C   0  0  0  0  0  0  0  0  0  0  0  0
   57.6990   25.8500   43.7100 C   0  0  0  0  0  0  0  0  0  0  0  0
   57.4300   26.9800   44.6350 N   0  0  2  0  0  0  0  0  0  0  0  0
   57.6510   28.3430   44.0800 C   0  0  0  0  0  0  0  0  0  0  0  0
   56.4260   29.2970   44.1120 C   0  0  1  0  0  0  0  0  0  0  0  0
   55.6330   29.0460   45.2410 O   0  0  0  0  0  0  0  0  0  0  0  0
   56.8740   30.7760   44.1110 C   0  0  0  0  0  0  0  0  0  0  0  0
   57.1280   31.2740   45.4280 O   0  0  0  0  0  0  0  0  0  0  0  0
   57.7990   32.4680   45.7410 C   0  0  0  0  0  0  0  0  0  0  0  0
   58.1980   33.2990   44.6880 C   0  0  0  0  0  0  0  0  0  0  0  0
   58.9230   34.4650   44.9410 C   0  0  0  0  0  0  0  0  0  0  0  0
   59.2620   34.8070   46.2520 C   0  0  0  0  0  0  0  0  0  0  0  0
   58.8620   33.9980   47.3210 C   0  0  0  0  0  0  0  0  0  0  0  0
   59.2680   34.3540   48.6150 O   0  0  0  0  0  0  0  0  0  0  0  0
   59.6390   33.4200   49.6280 C   0  0  0  0  0  0  0  0  0  0  0  0
   61.0570   32.8810   49.3690 C   0  0  0  0  0  0  0  0  0  0  0  0
   61.9960   33.8570   48.7670 N   0  0  0  0  0  0  0  0  0  0  0  0
   62.4160   33.4980   47.4030 C   0  0  0  0  0  0  0  0  0  0  0  0
   63.1560   34.1490   49.6240 C   0  0  0  0  0  0  0  0  0  0  0  0
   58.0900   32.8480   47.0640 C   0  0  0  0  0  0  0  0  0  0  0  0
   58.3070   26.7410   46.1330 S   0  0  0  0  0  0  0  0  0  0  0  0
   57.3580   26.4520   47.2640 O   0  0  0  0  0  0  0  0  0  0  0  0
   59.2650   25.5880   46.0030 O   0  0  0  0  0  0  0  0  0  0  0  0
   59.2280   28.1960   46.5060 C   0  0  0  0  0  0  0  0  0  0  0  0
   58.9070   28.9550   47.6430 C   0  0  0  0  0  0  0  0  0  0  0  0
   59.6490   30.0980   47.9580 C   0  0  0  0  0  0  0  0  0  0  0  0
   60.7150   30.4870   47.1410 C   0  0  0  0  0  0  0  0  0  0  0  0
   61.0440   29.7310   46.0120 C   0  0  0  0  0  0  0  0  0  0  0  0
   60.3050   28.5870   45.6940 C   0  0  0  0  0  0  0  0  0  0  0  0
   56.0980   22.7500   43.3789 H   0  0  0  0  0  0  0  0  0  0  0  0
   55.9432   24.2364   42.3822 H   0  0  0  0  0  0  0  0  0  0  0  0
   57.4830   23.3114   42.3822 H   0  0  0  0  0  0  0  0  0  0  0  0
   57.9575   23.9236   44.6533 H   0  0  0  0  0  0  0  0  0  0  0  0
   56.3961   24.6226   46.2053 H   0  0  0  0  0  0  0  0  0  0  0  0
   55.5668   25.6998   45.0311 H   0  0  0  0  0  0  0  0  0  0  0  0
   55.2223   23.9368   45.0311 H   0  0  0  0  0  0  0  0  0  0  0  0
   58.7888   25.7522   43.5971 H   0  0  0  0  0  0  0  0  0  0  0  0
   57.1851   26.0918   42.7680 H   0  0  0  0  0  0  0  0  0  0  0  0
   56.4220   26.9270   44.9080 H   0  0  0  0  0  0  0  0  0  0  0  0
   58.4601   28.8145   44.6571 H   0  0  0  0  0  0  0  0  0  0  0  0
   57.8850   28.1957   43.0153 H   0  0  0  0  0  0  0  0  0  0  0  0
   55.8324   29.1076   43.2055 H   0  0  0  0  0  0  0  0  0  0  0  0
   55.8930   29.7050   45.9340 H   0  0  0  0  0  0  0  0  0  0  0  0
   57.7955   30.8648   43.5168 H   0  0  0  0  0  0  0  0  0  0  0  0
   56.0556   31.3721   43.6811 H   0  0  0  0  0  0  0  0  0  0  0  0
   57.9384   33.0314   43.6531 H   0  0  0  0  0  0  0  0  0  0  0  0
   59.2274   35.1147   44.1072 H   0  0  0  0  0  0  0  0  0  0  0  0
   59.8472   35.7182   46.4452 H   0  0  0  0  0  0  0  0  0  0  0  0
   59.6147   33.9195   50.6077 H   0  0  0  0  0  0  0  0  0  0  0  0
   58.9301   32.5790   49.6142 H   0  0  0  0  0  0  0  0  0  0  0  0
   61.4776   32.5505   50.3302 H   0  0  0  0  0  0  0  0  0  0  0  0
   60.9483   32.0665   48.6377 H   0  0  0  0  0  0  0  0  0  0  0  0
   63.2513   32.7840   47.4525 H   0  0  0  0  0  0  0  0  0  0  0  0
   61.5717   33.0381   46.8685 H   0  0  0  0  0  0  0  0  0  0  0  0
   62.7389   34.4036   46.8685 H   0  0  0  0  0  0  0  0  0  0  0  0
   62.8593   34.0743   50.6806 H   0  0  0  0  0  0  0  0  0  0  0  0
   63.9572   33.4245   49.4160 H   0  0  0  0  0  0  0  0  0  0  0  0
   63.5187   35.1665   49.4160 H   0  0  0  0  0  0  0  0  0  0  0  0
   57.7127   32.2439   47.9022 H   0  0  0  0  0  0  0  0  0  0  0  0
   58.0696   28.6498   48.2877 H   0  0  0  0  0  0  0  0  0  0  0  0
   59.3939   30.6910   48.8486 H   0  0  0  0  0  0  0  0  0  0  0  0
   61.2952   31.3886   47.3868 H   0  0  0  0  0  0  0  0  0  0  0  0
   61.8855   30.0364   45.3727 H   0  0  0  0  0  0  0  0  0  0  0  0
   60.5678   27.9926   44.8065 H   0  0  0  0  0  0  0  0  0  0  0  0
  1  2  1  0
  2  3  1  0
  2  4  1  0
  4  5  1  0
  5  6  1  0
  6  7  1  0
  7  8  1  0
  7  9  1  0
  9 10  1  0
 10 11  1  0
 11 12  2  0
 12 13  1  0
 13 14  2  0
 14 15  1  0
 15 16  1  0
 16 17  1  0
 17 18  1  0
 18 19  1  0
 19 20  1  0
 19 21  1  0
 15 22  2  0
  5 23  1  0
 23 24  2  0
 23 25  2  0
 23 26  1  0
 26 27  2  0
 27 28  1  0
 28 29  2  0
 29 30  1  0
 30 31  2  0
 22 11  1  0
 31 26  1  0
  1 32  1  0
  1 33  1  0
  1 34  1  0
  2 35  1  0
  3 36  1  0
  3 37  1  0
  3 38  1  0
  4 39  1  0
  4 40  1  0
  5 41  1  1
  6 42  1  0
  6 43  1  0
  7 44  1  6
  8 45  1  0
  9 46  1  0
  9 47  1  0
 12 48  1  0
 13 49  1  0
 14 50  1  0
 17 51  1  0
 17 52  1  0
 18 53  1  0
 18 54  1  0
 20 55  1  0
 20 56  1  0
 20 57  1  0
 21 58  1  0
 21 59  1  0
 21 60  1  0
 22 61  1  0
 27 62  1  0
 28 63  1  0
 29 64  1  0
 30 65  1  0
 31 66  1  0
M  CHG  1   5   1
M  END
>  <UniqueID>  (32) 
30

>  <SMILES>  (32) 
CC(C)C[N@H+](C[C@@H](O)COc1cccc(OCCN(C)C)c1)S(=O)(=O)c1ccccc1

>  <Energy>  (32) 
65.70732411278023

>  <Genealogy>  (32) 
CC(C)C[NH+](CC(O)COc1cccc(OCCN(C)C)c1)S(=O)(=O)c1ccccc1 (protonated)
CC(C)C[N@H+](C[C@@H](O)COc1cccc(OCCN(C)C)c1)S(=O)(=O)c1ccccc1 (chirality)
CC(C)C[N@H+](C[C@@H](O)COc1cccc(OCCN(C)C)c1)S(=O)(=O)c1ccccc1 (3D coordinates assigned)
CC(C)C[N@H+](C[C@@H](O)COc1cccc(OCCN(C)C)c1)S(=O)(=O)c1ccccc1 (optimized conformer: 65.70732411278023 kcal/mol)

>  <smiles>  (32) 
CC(C)CN(CC(O)COc1cccc(OCCN(C)C)c1)S(=O)(=O)c1ccccc1

>  <score_type>  (32) 
oracle

>  <origin>  (32) 
adg

>  <m_score__min__energy>  (32) 
-8.7799999999999994

>  <m_primary>  (32) 
energy

$$$$
32:0
     RDKit          3D

 51 53  0  0  0  0  0  0  0  0999 V2000
   61.1510   33.8360   50.4970 C   0  0  0  0  0  0  0  0  0  0  0  0
   61.9630   33.9160   49.2020 C   0  0  0  0  0  0  0  0  0  0  0  0
   63.0080   32.8720   49.0730 N   0  0  0  0  0  0  0  0  0  0  0  0
   63.9370   33.0570   47.9310 C   0  0  0  0  0  0  0  0  0  0  0  0
   63.3270   33.7790   46.7190 C   0  0  0  0  0  0  0  0  0  0  0  0
   62.5510   31.4850   49.2960 C   0  0  0  0  0  0  0  0  0  0  0  0
   61.3800   31.1520   48.4090 C   0  0  0  0  0  0  0  0  0  0  0  0
   60.0770   31.1840   48.9260 C   0  0  0  0  0  0  0  0  0  0  0  0
   58.9840   30.8950   48.1050 C   0  0  0  0  0  0  0  0  0  0  0  0
   59.1820   30.5610   46.7570 C   0  0  0  0  0  0  0  0  0  0  0  0
   58.0550   30.2650   45.9180 N   0  0  0  0  0  0  0  0  0  0  0  0
   57.4660   29.0650   45.7920 C   0  0  0  0  0  0  0  0  0  0  0  0
   56.4470   29.1820   44.8730 C   0  0  0  0  0  0  0  0  0  0  0  0
   56.4030   30.4470   44.4070 N   0  0  0  0  0  0  0  0  0  0  0  0
   57.3890   31.0860   45.0710 C   0  0  0  0  0  0  0  0  0  0  0  0
   57.7880   32.4980   44.7370 C   0  0  0  0  0  0  0  0  0  0  0  0
   58.6890   33.0300   45.7760 N   0  0  0  0  0  0  0  0  0  0  0  0
   57.9710   33.7390   46.8390 C   0  0  0  0  0  0  0  0  0  0  0  0
   58.9530   34.7320   47.4390 C   0  0  0  0  0  0  0  0  0  0  0  0
   60.0160   34.9380   46.3720 C   0  0  0  0  0  0  0  0  0  0  0  0
   59.6240   34.0160   45.2260 C   0  0  0  0  0  0  0  0  0  0  0  0
   60.4830   30.5530   46.2330 C   0  0  0  0  0  0  0  0  0  0  0  0
   61.5760   30.8430   47.0530 C   0  0  0  0  0  0  0  0  0  0  0  0
   61.8297   33.9029   51.3601 H   0  0  0  0  0  0  0  0  0  0  0  0
   60.4318   34.6676   50.5308 H   0  0  0  0  0  0  0  0  0  0  0  0
   60.6079   32.8800   50.5308 H   0  0  0  0  0  0  0  0  0  0  0  0
   61.2698   33.8166   48.3537 H   0  0  0  0  0  0  0  0  0  0  0  0
   62.4845   34.8844   49.2158 H   0  0  0  0  0  0  0  0  0  0  0  0
   64.7988   33.6438   48.2816 H   0  0  0  0  0  0  0  0  0  0  0  0
   64.2119   32.0490   47.5869 H   0  0  0  0  0  0  0  0  0  0  0  0
   62.6537   34.5759   47.0676 H   0  0  0  0  0  0  0  0  0  0  0  0
   64.1314   34.2185   46.1110 H   0  0  0  0  0  0  0  0  0  0  0  0
   62.7593   33.0593   46.1110 H   0  0  0  0  0  0  0  0  0  0  0  0
   63.3778   30.7941   49.0744 H   0  0  0  0  0  0  0  0  0  0  0  0
   62.2350   31.3850   50.3449 H   0  0  0  0  0  0  0  0  0  0  0  0
   59.9144   31.4380   49.9838 H   0  0  0  0  0  0  0  0  0  0  0  0
   57.9647   30.9295   48.5171 H   0  0  0  0  0  0  0  0  0  0  0  0
   57.7483   28.1477   46.3295 H   0  0  0  0  0  0  0  0  0  0  0  0
   55.7727   28.3689   44.5662 H   0  0  0  0  0  0  0  0  0  0  0  0
   58.3052   32.5098   43.7663 H   0  0  0  0  0  0  0  0  0  0  0  0
   56.8854   33.1249   44.6882 H   0  0  0  0  0  0  0  0  0  0  0  0
   57.1023   34.2693   46.4218 H   0  0  0  0  0  0  0  0  0  0  0  0
   57.5991   33.0389   47.6016 H   0  0  0  0  0  0  0  0  0  0  0  0
   58.4485   35.6820   47.6689 H   0  0  0  0  0  0  0  0  0  0  0  0
   59.3838   34.3645   48.3821 H   0  0  0  0  0  0  0  0  0  0  0  0
   60.0264   35.9856   46.0366 H   0  0  0  0  0  0  0  0  0  0  0  0
   61.0240   34.7134   46.7507 H   0  0  0  0  0  0  0  0  0  0  0  0
   59.1382   34.5928   44.4252 H   0  0  0  0  0  0  0  0  0  0  0  0
   60.5085   33.5237   44.7955 H   0  0  0  0  0  0  0  0  0  0  0  0
   60.6435   30.3171   45.1706 H   0  0  0  0  0  0  0  0  0  0  0  0
   62.5935   30.8293   46.6354 H   0  0  0  0  0  0  0  0  0  0  0  0
  1  2  1  0
  2  3  1  0
  3  4  1  0
  4  5  1  0
  3  6  1  0
  6  7  1  0
  7  8  2  0
  8  9  1  0
  9 10  2  0
 10 11  1  0
 11 12  1  0
 12 13  2  0
 13 14  1  0
 14 15  2  0
 15 16  1  0
 16 17  1  0
 17 18  1  0
 18 19  1  0
 19 20  1  0
 20 21  1  0
 10 22  1  0
 22 23  2  0
 23  7  1  0
 15 11  1  0
 21 17  1  0
  1 24  1  0
  1 25  1  0
  1 26  1  0
  2 27  1  0
  2 28  1  0
  4 29  1  0
  4 30  1  0
  5 31  1  0
  5 32  1  0
  5 33  1  0
  6 34  1  0
  6 35  1  0
  8 36  1  0
  9 37  1  0
 12 38  1  0
 13 39  1  0
 16 40  1  0
 16 41  1  0
 18 42  1  0
 18 43  1  0
 19 44  1  0
 19 45  1  0
 20 46  1  0
 20 47  1  0
 21 48  1  0
 21 49  1  0
 22 50  1  0
 23 51  1  0
M  END
>  <UniqueID>  (33) 
31

>  <SMILES>  (33) 
CCN(CC)Cc1ccc(-n2ccnc2CN2CCCC2)cc1

>  <Energy>  (33) 
92.45642488086027

>  <Genealogy>  (33) 
CCN(CC)Cc1ccc(-n2ccnc2CN2CCCC2)cc1 (3D coordinates assigned)
CCN(CC)Cc1ccc(-n2ccnc2CN2CCCC2)cc1 (nonaromatic ring conformer: 92.45642488086027 kcal/mol)

>  <smiles>  (33) 
CCN(CC)Cc1ccc(-n2ccnc2CN2CCCC2)cc1

>  <score_type>  (33) 
oracle

>  <origin>  (33) 
adg

>  <m_score__min__energy>  (33) 
-6.75

>  <m_primary>  (33) 
energy

$$$$
33:0
     RDKit          3D

 71 75  0  0  0  0  0  0  0  0999 V2000
   62.2340   33.3780   46.7500 C   0  0  0  0  0  0  0  0  0  0  0  0
   61.0100   34.2150   46.3850 C   0  0  0  0  0  0  0  0  0  0  0  0
   60.0360   34.3290   47.5690 C   0  0  0  0  0  0  0  0  0  0  0  0
   59.6730   32.9940   48.1150 N   0  0  0  0  0  0  0  0  0  0  0  0
   59.2350   33.0680   49.5370 C   0  0  0  0  0  0  0  0  0  0  0  0
   58.4860   31.8040   50.0390 C   0  0  0  0  0  0  0  0  0  0  0  0
   59.4210   30.7320   50.4660 N   0  0  0  0  0  0  0  0  0  0  0  0
   60.4190   30.4190   49.3970 C   0  0  0  0  0  0  0  0  0  0  0  0
   61.8290   30.1530   49.9340 C   0  0  0  0  0  0  0  0  0  0  0  0
   62.2460   31.2970   50.7440 N   0  0  0  0  0  0  0  0  0  0  0  0
   63.6030   31.7580   50.7010 C   0  0  0  0  0  0  0  0  0  0  0  0
   64.6330   30.8950   51.0990 C   0  0  0  0  0  0  0  0  0  0  0  0
   65.9640   31.3130   51.0490 C   0  0  0  0  0  0  0  0  0  0  0  0
   66.2770   32.5980   50.5980 C   0  0  0  0  0  0  0  0  0  0  0  0
   67.9520   33.1180   50.5240 Cl  0  0  0  0  0  0  0  0  0  0  0  0
   65.2570   33.4690   50.2020 C   0  0  0  0  0  0  0  0  0  0  0  0
   63.9110   33.0640   50.2640 C   0  0  0  0  0  0  0  0  0  0  0  0
   62.8290   34.0140   49.8280 C   0  0  0  0  0  0  0  0  0  0  0  0
   61.2940   31.9190   51.6660 C   0  0  0  0  0  0  0  0  0  0  0  0
   60.0270   31.0620   51.7880 C   0  0  0  0  0  0  0  0  0  0  0  0
   58.7630   32.2490   47.1860 C   0  0  1  0  0  0  0  0  0  0  0  0
   57.8990   33.2710   46.3680 C   0  0  0  0  0  0  0  0  0  0  0  0
   57.6660   32.9380   44.8800 C   0  0  0  0  0  0  0  0  0  0  0  0
   57.5860   31.4590   44.6410 C   0  0  0  0  0  0  0  0  0  0  0  0
   56.6570   30.9100   43.7240 C   0  0  0  0  0  0  0  0  0  0  0  0
   56.6450   29.5290   43.4620 C   0  0  0  0  0  0  0  0  0  0  0  0
   57.5810   28.7320   44.1160 C   0  0  0  0  0  0  0  0  0  0  0  0
   57.7390   27.4040   43.9970 N   0  0  0  0  0  0  0  0  0  0  0  0
   58.7660   27.0780   44.8130 C   0  0  0  0  0  0  0  0  0  0  0  0
   59.2640   28.2050   45.4540 C   0  0  0  0  0  0  0  0  0  0  0  0
   58.4920   29.2590   44.9980 C   0  0  0  0  0  0  0  0  0  0  0  0
   58.5210   30.6290   45.2890 C   0  0  0  0  0  0  0  0  0  0  0  0
   59.5010   31.2560   46.2430 C   0  0  0  0  0  0  0  0  0  0  0  0
   62.3233   33.3170   47.8447 H   0  0  0  0  0  0  0  0  0  0  0  0
   62.1232   32.3657   46.3341 H   0  0  0  0  0  0  0  0  0  0  0  0
   63.1372   33.8484   46.3341 H   0  0  0  0  0  0  0  0  0  0  0  0
   61.3396   35.2234   46.0942 H   0  0  0  0  0  0  0  0  0  0  0  0
   60.4876   33.7203   45.5529 H   0  0  0  0  0  0  0  0  0  0  0  0
   60.5103   34.9223   48.3646 H   0  0  0  0  0  0  0  0  0  0  0  0
   59.1161   34.8137   47.2100 H   0  0  0  0  0  0  0  0  0  0  0  0
   60.1261   33.2132   50.1653 H   0  0  0  0  0  0  0  0  0  0  0  0
   58.5242   33.9047   49.6056 H   0  0  0  0  0  0  0  0  0  0  0  0
   57.8528   32.0833   50.8940 H   0  0  0  0  0  0  0  0  0  0  0  0
   57.8830   31.4147   49.2054 H   0  0  0  0  0  0  0  0  0  0  0  0
   58.8480   29.8690   50.6260 H   0  0  0  0  0  0  0  0  0  0  0  0
   60.0788   29.5245   48.8546 H   0  0  0  0  0  0  0  0  0  0  0  0
   60.4830   31.3034   48.7461 H   0  0  0  0  0  0  0  0  0  0  0  0
   61.8239   29.2436   50.5528 H   0  0  0  0  0  0  0  0  0  0  0  0
   62.5284   30.0119   49.0968 H   0  0  0  0  0  0  0  0  0  0  0  0
   64.3912   29.8820   51.4530 H   0  0  0  0  0  0  0  0  0  0  0  0
   66.7668   30.6305   51.3648 H   0  0  0  0  0  0  0  0  0  0  0  0
   65.5086   34.4768   49.8399 H   0  0  0  0  0  0  0  0  0  0  0  0
   62.3394   34.4438   50.7143 H   0  0  0  0  0  0  0  0  0  0  0  0
   63.2708   34.8213   49.2254 H   0  0  0  0  0  0  0  0  0  0  0  0
   62.0856   33.4715   49.2254 H   0  0  0  0  0  0  0  0  0  0  0  0
   61.7613   32.0177   52.6569 H   0  0  0  0  0  0  0  0  0  0  0  0
   61.0174   32.9101   51.2772 H   0  0  0  0  0  0  0  0  0  0  0  0
   60.2859   30.1233   52.2997 H   0  0  0  0  0  0  0  0  0  0  0  0
   59.2865   31.6458   52.3545 H   0  0  0  0  0  0  0  0  0  0  0  0
   58.1103   31.6214   47.8106 H   0  0  0  0  0  0  0  0  0  0  0  0
   56.9143   33.3401   46.8533 H   0  0  0  0  0  0  0  0  0  0  0  0
   58.4757   34.2077   46.3702 H   0  0  0  0  0  0  0  0  0  0  0  0
   56.7227   33.4017   44.5558 H   0  0  0  0  0  0  0  0  0  0  0  0
   58.5193   33.3292   44.3066 H   0  0  0  0  0  0  0  0  0  0  0  0
   55.9396   31.5690   43.2130 H   0  0  0  0  0  0  0  0  0  0  0  0
   55.9184   29.0913   42.7617 H   0  0  0  0  0  0  0  0  0  0  0  0
   57.1850   26.7530   43.3980 H   0  0  0  0  0  0  0  0  0  0  0  0
   59.1547   26.0582   44.9508 H   0  0  0  0  0  0  0  0  0  0  0  0
   60.0960   28.2502   46.1721 H   0  0  0  0  0  0  0  0  0  0  0  0
   59.9786   30.4686   46.8447 H   0  0  0  0  0  0  0  0  0  0  0  0
   60.2648   31.8018   45.6697 H   0  0  0  0  0  0  0  0  0  0  0  0
  1  2  1  0
  2  3  1  0
  3  4  1  0
  4  5  1  0
  5  6  1  0
  6  7  1  0
  7  8  1  0
  8  9  1  0
  9 10  1  0
 10 11  1  0
 11 12  2  0
 12 13  1  0
 13 14  2  0
 14 15  1  0
 14 16  1  0
 16 17  2  0
 17 18  1  0
 10 19  1  0
 19 20  1  0
  4 21  1  0
 21 22  1  0
 22 23  1  0
 23 24  1  0
 24 25  2  0
 25 26  1  0
 26 27  2  0
 27 28  1  0
 28 29  1  0
 29 30  2  0
 30 31  1  0
 31 32  2  0
 32 33  1  0
 20  7  1  0
 33 21  1  0
 17 11  1  0
 32 24  1  0
 31 27  1  0
  1 34  1  0
  1 35  1  0
  1 36  1  0
  2 37  1  0
  2 38  1  0
  3 39  1  0
  3 40  1  0
  5 41  1  0
  5 42  1  0
  6 43  1  0
  6 44  1  0
  7 45  1  0
  8 46  1  0
  8 47  1  0
  9 48  1  0
  9 49  1  0
 12 50  1  0
 13 51  1  0
 16 52  1  0
 18 53  1  0
 18 54  1  0
 18 55  1  0
 19 56  1  0
 19 57  1  0
 20 58  1  0
 20 59  1  0
 21 60  1  1
 22 61  1  0
 22 62  1  0
 23 63  1  0
 23 64  1  0
 25 65  1  0
 26 66  1  0
 28 67  1  0
 29 68  1  0
 30 69  1  0
 33 70  1  0
 33 71  1  0
M  CHG  1   7   1
M  END
>  <UniqueID>  (34) 
32

>  <SMILES>  (34) 
CCCN(CC[NH+]1CCN(c2ccc(Cl)cc2C)CC1)[C@H]1CCc2ccc3[nH]ccc3c2C1

>  <Energy>  (34) 
133.43473508967438

>  <Genealogy>  (34) 
CCCN(CC[NH+]1CCN(c2ccc(Cl)cc2C)CC1)C1CCc2ccc3[nH]ccc3c2C1 (protonated)
CCCN(CC[NH+]1CCN(c2ccc(Cl)cc2C)CC1)[C@H]1CCc2ccc3[nH]ccc3c2C1 (chirality)
CCCN(CC[NH+]1CCN(c2ccc(Cl)cc2C)CC1)[C@H]1CCc2ccc3[nH]ccc3c2C1 (3D coordinates assigned)
CCCN(CC[NH+]1CCN(c2ccc(Cl)cc2C)CC1)[C@H]1CCc2ccc3[nH]ccc3c2C1 (nonaromatic ring conformer: 133.43473508967438 kcal/mol)

>  <smiles>  (34) 
CCCN(CCN1CCN(c2ccc(Cl)cc2C)CC1)C1CCc2ccc3[nH]ccc3c2C1

>  <score_type>  (34) 
oracle

>  <origin>  (34) 
adg

>  <m_score__min__energy>  (34) 
-8.0199999999999996

>  <m_primary>  (34) 
energy

$$$$
34:0
     RDKit          3D

 44 45  0  0  0  0  0  0  0  0999 V2000
   59.6390   27.4375   44.6489 H   0  0  0  0  0  0  0  0  0  0  0  0
   58.8370   27.0810   45.3120 C   0  0  0  0  0  0  0  0  0  0  0  0
   58.6700   25.6240   45.5100 C   0  0  0  0  0  0  0  0  0  0  0  0
   59.6540   24.9300   45.8870 O   0  0  0  0  0  0  0  0  0  0  0  0
   57.3680   24.9610   45.2550 C   0  0  0  0  0  0  0  0  0  0  0  0
   56.1990   25.4560   45.8550 C   0  0  0  0  0  0  0  0  0  0  0  0
   56.2547   26.3346   46.5145 H   0  0  0  0  0  0  0  0  0  0  0  0
   54.9670   24.8430   45.6220 C   0  0  0  0  0  0  0  0  0  0  0  0
   54.0613   25.2373   46.1060 H   0  0  0  0  0  0  0  0  0  0  0  0
   54.8740   23.7260   44.7740 C   0  0  0  0  0  0  0  0  0  0  0  0
   53.6540   23.0830   44.5170 O   0  0  0  0  0  0  0  0  0  0  0  0
   52.3900   23.7390   44.4740 C   0  0  0  0  0  0  0  0  0  0  0  0
   52.0369   23.9222   45.4996 H   0  0  0  0  0  0  0  0  0  0  0  0
   52.4923   24.6978   43.9446 H   0  0  0  0  0  0  0  0  0  0  0  0
   51.6649   23.1034   43.9446 H   0  0  0  0  0  0  0  0  0  0  0  0
   56.0320   23.2290   44.1550 C   0  0  0  0  0  0  0  0  0  0  0  0
   55.9090   22.1160   43.3070 O   0  0  0  0  0  0  0  0  0  0  0  0
   56.9670   21.2100   43.0040 C   0  0  0  0  0  0  0  0  0  0  0  0
   57.4066   20.8336   43.9395 H   0  0  0  0  0  0  0  0  0  0  0  0
   56.5712   20.3665   42.4194 H   0  0  0  0  0  0  0  0  0  0  0  0
   57.7396   21.7308   42.4194 H   0  0  0  0  0  0  0  0  0  0  0  0
   57.2720   23.8520   44.3950 C   0  0  0  0  0  0  0  0  0  0  0  0
   58.1774   23.4663   43.9035 H   0  0  0  0  0  0  0  0  0  0  0  0
   58.0470   27.9810   45.9110 C   0  0  0  0  0  0  0  0  0  0  0  0
   57.1181   27.6356   46.3883 H   0  0  0  0  0  0  0  0  0  0  0  0
   58.3770   29.4240   45.9550 C   0  0  0  0  0  0  0  0  0  0  0  0
   59.5630   29.8040   46.5960 C   0  0  0  0  0  0  0  0  0  0  0  0
   60.2058   29.0371   47.0527 H   0  0  0  0  0  0  0  0  0  0  0  0
   59.9350   31.1430   46.6600 C   0  0  0  0  0  0  0  0  0  0  0  0
   60.8736   31.4282   47.1578 H   0  0  0  0  0  0  0  0  0  0  0  0
   59.1230   32.1230   46.0960 C   0  0  0  0  0  0  0  0  0  0  0  0
   59.4337   33.1773   46.1389 H   0  0  0  0  0  0  0  0  0  0  0  0
   57.9080   31.7800   45.4710 C   0  0  0  0  0  0  0  0  0  0  0  0
   57.0820   32.7710   44.9170 O   0  0  0  0  0  0  0  0  0  0  0  0
   57.3860   34.1610   44.8800 C   0  0  0  0  0  0  0  0  0  0  0  0
   57.4701   34.5454   45.9072 H   0  0  0  0  0  0  0  0  0  0  0  0
   58.3388   34.3140   44.3521 H   0  0  0  0  0  0  0  0  0  0  0  0
   56.5840   34.6978   44.3521 H   0  0  0  0  0  0  0  0  0  0  0  0
   57.5180   30.4140   45.4140 C   0  0  0  0  0  0  0  0  0  0  0  0
   56.2920   29.9860   44.8650 O   0  0  0  0  0  0  0  0  0  0  0  0
   55.9990   29.7610   43.4910 C   0  0  0  0  0  0  0  0  0  0  0  0
   55.1292   29.0930   43.4062 H   0  0  0  0  0  0  0  0  0  0  0  0
   55.7736   30.7203   43.0023 H   0  0  0  0  0  0  0  0  0  0  0  0
   56.8677   29.2957   43.0023 H   0  0  0  0  0  0  0  0  0  0  0  0
  1  2  1  0
  2  3  1  0
  3  4  2  0
  3  5  1  0
  5  6  2  0
  6  7  1  0
  6  8  1  0
  8  9  1  0
  8 10  2  0
 10 11  1  0
 11 12  1  0
 12 13  1  0
 12 14  1  0
 12 15  1  0
 10 16  1  0
 16 17  1  0
 17 18  1  0
 18 19  1  0
 18 20  1  0
 18 21  1  0
 16 22  2  0
 22 23  1  0
  2 24  2  0
 24 25  1  0
 24 26  1  0
 26 27  2  0
 27 28  1  0
 27 29  1  0
 29 30  1  0
 29 31  2  0
 31 32  1  0
 31 33  1  0
 33 34  1  0
 34 35  1  0
 35 36  1  0
 35 37  1  0
 35 38  1  0
 33 39  2  0
 39 40  1  0
 40 41  1  0
 41 42  1  0
 41 43  1  0
 41 44  1  0
 22  5  1  0
 39 26  1  0
M  END
>  <UniqueID>  (35) 
33

>  <SMILES>  (35) 
COc1ccc(C(=O)/C=C/c2cccc(OC)c2OC)cc1OC

>  <Energy>  (35) 
51.72948535443832

>  <Genealogy>  (35) 
COc1ccc(C(=O)/C=C/c2cccc(OC)c2OC)cc1OC (cis-trans isomerization)
COc1ccc(C(=O)/C=C/c2cccc(OC)c2OC)cc1OC (3D coordinates assigned)
COc1ccc(C(=O)/C=C/c2cccc(OC)c2OC)cc1OC (optimized conformer: 51.72948535443832 kcal/mol)

>  <smiles>  (35) 
COc1ccc(C(=O)C=Cc2cccc(OC)c2OC)cc1OC

>  <score_type>  (35) 
oracle

>  <origin>  (35) 
adg

>  <m_score__min__energy>  (35) 
-7.21

>  <m_primary>  (35) 
energy

$$$$
35:0
     RDKit          3D

 46 48  0  0  0  0  0  0  0  0999 V2000
   59.0160   30.0050   48.1240 C   0  0  0  0  0  0  0  0  0  0  0  0
   58.9370   28.9480   47.0200 C   0  0  0  0  0  0  0  0  0  0  0  0
   59.9010   29.2280   45.8530 C   0  0  0  0  0  0  0  0  0  0  0  0
   59.2260   29.0900   44.4810 C   0  0  0  0  0  0  0  0  0  0  0  0
   57.9260   29.7600   44.4810 N   0  0  0  0  0  0  0  0  0  0  0  0
   56.7650   29.1570   44.2970 N   0  0  0  0  0  0  0  0  0  0  0  0
   55.7820   30.0350   44.4120 N   0  0  0  0  0  0  0  0  0  0  0  0
   56.2880   31.2320   44.6810 N   0  0  0  0  0  0  0  0  0  0  0  0
   57.6250   31.0520   44.7320 C   0  0  0  0  0  0  0  0  0  0  0  0
   58.5980   32.1500   45.0490 C   0  0  0  0  0  0  0  0  0  0  0  0
   57.9050   33.2620   45.7460 N   0  0  0  0  0  0  0  0  0  0  0  0
   58.4630   34.5870   45.4040 C   0  0  0  0  0  0  0  0  0  0  0  0
   59.8890   34.7770   45.9560 C   0  0  0  0  0  0  0  0  0  0  0  0
   60.0740   34.0420   47.2120 N   0  0  0  0  0  0  0  0  0  0  0  0
   61.3970   33.8730   47.7420 C   0  0  0  0  0  0  0  0  0  0  0  0
   61.7910   34.6020   48.6960 O   0  0  0  0  0  0  0  0  0  0  0  0
   62.3470   32.8890   47.1230 C   0  0  0  0  0  0  0  0  0  0  0  0
   62.2070   31.4520   47.6040 C   0  0  0  0  0  0  0  0  0  0  0  0
   63.3600   32.3060   48.1030 C   0  0  0  0  0  0  0  0  0  0  0  0
   58.9170   33.7210   48.0440 C   0  0  0  0  0  0  0  0  0  0  0  0
   57.7870   33.0640   47.2150 C   0  0  0  0  0  0  0  0  0  0  0  0
   58.9792   29.5122   49.1068 H   0  0  0  0  0  0  0  0  0  0  0  0
   59.9585   30.5643   48.0294 H   0  0  0  0  0  0  0  0  0  0  0  0
   58.1672   30.6982   48.0294 H   0  0  0  0  0  0  0  0  0  0  0  0
   59.1859   27.9682   47.4536 H   0  0  0  0  0  0  0  0  0  0  0  0
   57.9142   28.9686   46.6157 H   0  0  0  0  0  0  0  0  0  0  0  0
   60.2872   30.2530   45.9537 H   0  0  0  0  0  0  0  0  0  0  0  0
   60.7083   28.4825   45.9027 H   0  0  0  0  0  0  0  0  0  0  0  0
   59.8686   29.5464   43.7137 H   0  0  0  0  0  0  0  0  0  0  0  0
   59.0763   28.0222   44.2635 H   0  0  0  0  0  0  0  0  0  0  0  0
   56.6350   28.1400   44.1030 H   0  0  0  0  0  0  0  0  0  0  0  0
   59.3939   31.7545   45.6972 H   0  0  0  0  0  0  0  0  0  0  0  0
   59.0312   32.5281   44.1113 H   0  0  0  0  0  0  0  0  0  0  0  0
   58.4904   34.6881   44.3090 H   0  0  0  0  0  0  0  0  0  0  0  0
   57.8189   35.3531   45.8603 H   0  0  0  0  0  0  0  0  0  0  0  0
   60.6129   34.4081   45.2145 H   0  0  0  0  0  0  0  0  0  0  0  0
   60.0466   35.8478   46.1526 H   0  0  0  0  0  0  0  0  0  0  0  0
   62.3907   33.3722   46.1358 H   0  0  0  0  0  0  0  0  0  0  0  0
   61.3898   31.1786   48.2876 H   0  0  0  0  0  0  0  0  0  0  0  0
   62.1229   30.4726   47.1104 H   0  0  0  0  0  0  0  0  0  0  0  0
   63.3769   32.6515   49.1472 H   0  0  0  0  0  0  0  0  0  0  0  0
   64.4549   32.2017   48.1199 H   0  0  0  0  0  0  0  0  0  0  0  0
   59.2290   33.0256   48.8372 H   0  0  0  0  0  0  0  0  0  0  0  0
   58.5304   34.6570   48.4736 H   0  0  0  0  0  0  0  0  0  0  0  0
   57.7962   31.9829   47.4178 H   0  0  0  0  0  0  0  0  0  0  0  0
   56.8498   33.5513   47.5221 H   0  0  0  0  0  0  0  0  0  0  0  0
  1  2  1  0
  2  3  1  0
  3  4  1  0
  4  5  1  0
  5  6  1  0
  6  7  2  0
  7  8  1  0
  8  9  2  0
  9 10  1  0
 10 11  1  0
 11 12  1  0
 12 13  1  0
 13 14  1  0
 14 15  1  0
 15 16  2  0
 15 17  1  0
 17 18  1  0
 18 19  1  0
 14 20  1  0
 20 21  1  0
  9  5  1  0
 21 11  1  0
 19 17  1  0
  1 22  1  0
  1 23  1  0
  1 24  1  0
  2 25  1  0
  2 26  1  0
  3 27  1  0
  3 28  1  0
  4 29  1  0
  4 30  1  0
  6 31  1  0
 10 32  1  0
 10 33  1  0
 12 34  1  0
 12 35  1  0
 13 36  1  0
 13 37  1  0
 17 38  1  0
 18 39  1  0
 18 40  1  0
 19 41  1  0
 19 42  1  0
 20 43  1  0
 20 44  1  0
 21 45  1  0
 21 46  1  0
M  CHG  1   6   1
M  END
>  <UniqueID>  (36) 
34

>  <SMILES>  (36) 
CCCCn1[nH+]nnc1CN1CCN(C(=O)C2CC2)CC1

>  <Energy>  (36) 
353.29376629813646

>  <Genealogy>  (36) 
CCCCn1[nH+]nnc1CN1CCN(C(=O)C2CC2)CC1 (protonated)
CCCCn1[nH+]nnc1CN1CCN(C(=O)C2CC2)CC1 (3D coordinates assigned)
CCCCn1[nH+]nnc1CN1CCN(C(=O)C2CC2)CC1 (nonaromatic ring conformer: 353.29376629813646 kcal/mol)

>  <smiles>  (36) 
CCCCn1nnnc1CN1CCN(C(=O)C2CC2)CC1

>  <score_type>  (36) 
oracle

>  <origin>  (36) 
adg

>  <m_score__min__energy>  (36) 
-6.5099999999999998

>  <m_primary>  (36) 
energy

$$$$
36:0
     RDKit          3D

 46 49  0  0  0  0  0  0  0  0999 V2000
   66.5340   32.9640   50.3910 C   0  0  0  0  0  0  0  0  0  0  0  0
   65.3210   33.5650   49.9460 O   0  0  0  0  0  0  0  0  0  0  0  0
   64.2990   32.8830   49.2700 C   0  0  0  0  0  0  0  0  0  0  0  0
   63.5200   31.9700   49.9890 C   0  0  0  0  0  0  0  0  0  0  0  0
   62.4880   31.2670   49.3620 C   0  0  0  0  0  0  0  0  0  0  0  0
   62.2130   31.4590   47.9960 C   0  0  0  0  0  0  0  0  0  0  0  0
   61.1420   30.7200   47.3680 N   0  0  0  0  0  0  0  0  0  0  0  0
   60.4250   31.1800   46.3550 N   0  0  0  0  0  0  0  0  0  0  0  0
   59.5420   30.1920   46.0940 C   0  0  0  0  0  0  0  0  0  0  0  0
   58.5540   30.2420   45.0000 C   0  0  0  0  0  0  0  0  0  0  0  0
   58.0450   29.0240   44.5150 C   0  0  0  0  0  0  0  0  0  0  0  0
   57.0340   29.0040   43.5530 C   0  0  0  0  0  0  0  0  0  0  0  0
   56.5160   30.1990   43.0620 C   0  0  0  0  0  0  0  0  0  0  0  0
   57.0250   31.4180   43.5130 C   0  0  0  0  0  0  0  0  0  0  0  0
   58.0580   31.4620   44.4630 C   0  0  0  0  0  0  0  0  0  0  0  0
   58.6150   32.7490   44.7900 N   0  0  0  0  0  0  0  0  0  0  0  0
   57.9820   33.7010   45.7040 C   0  0  0  0  0  0  0  0  0  0  0  0
   58.6570   33.6450   47.0470 C   0  0  0  0  0  0  0  0  0  0  0  0
   58.2640   32.6990   48.0070 C   0  0  0  0  0  0  0  0  0  0  0  0
   58.9020   32.6770   49.2510 C   0  0  0  0  0  0  0  0  0  0  0  0
   59.8810   33.5770   49.5320 N   0  0  0  0  0  0  0  0  0  0  0  0
   60.2640   34.5200   48.6300 C   0  0  0  0  0  0  0  0  0  0  0  0
   59.6540   34.5750   47.3740 C   0  0  0  0  0  0  0  0  0  0  0  0
   59.7270   29.1370   46.9160 N   0  0  0  0  0  0  0  0  0  0  0  0
   60.7270   29.5050   47.7000 N   0  0  0  0  0  0  0  0  0  0  0  0
   62.9970   32.3790   47.2750 C   0  0  0  0  0  0  0  0  0  0  0  0
   64.0300   33.0840   47.9040 C   0  0  0  0  0  0  0  0  0  0  0  0
   66.5559   32.9531   51.4907 H   0  0  0  0  0  0  0  0  0  0  0  0
   66.5925   31.9327   50.0129 H   0  0  0  0  0  0  0  0  0  0  0  0
   67.3900   33.5422   50.0129 H   0  0  0  0  0  0  0  0  0  0  0  0
   63.7218   31.8041   51.0575 H   0  0  0  0  0  0  0  0  0  0  0  0
   61.8836   30.5552   49.9434 H   0  0  0  0  0  0  0  0  0  0  0  0
   58.4487   28.0754   44.8986 H   0  0  0  0  0  0  0  0  0  0  0  0
   56.6464   28.0435   43.1827 H   0  0  0  0  0  0  0  0  0  0  0  0
   55.7055   30.1828   42.3185 H   0  0  0  0  0  0  0  0  0  0  0  0
   56.6109   32.3576   43.1185 H   0  0  0  0  0  0  0  0  0  0  0  0
   59.5640   32.9810   44.4130 H   0  0  0  0  0  0  0  0  0  0  0  0
   58.0718   34.7171   45.2924 H   0  0  0  0  0  0  0  0  0  0  0  0
   56.9197   33.4405   45.8207 H   0  0  0  0  0  0  0  0  0  0  0  0
   57.4612   31.9814   47.7825 H   0  0  0  0  0  0  0  0  0  0  0  0
   58.6110   31.9297   50.0039 H   0  0  0  0  0  0  0  0  0  0  0  0
   61.0544   35.2398   48.8893 H   0  0  0  0  0  0  0  0  0  0  0  0
   59.9542   35.3433   46.6462 H   0  0  0  0  0  0  0  0  0  0  0  0
   61.1160   28.9040   48.4590 H   0  0  0  0  0  0  0  0  0  0  0  0
   62.7960   32.5458   46.2065 H   0  0  0  0  0  0  0  0  0  0  0  0
   64.6347   33.7991   47.3269 H   0  0  0  0  0  0  0  0  0  0  0  0
  1  2  1  0
  2  3  1  0
  3  4  2  0
  4  5  1  0
  5  6  2  0
  6  7  1  0
  7  8  1  0
  8  9  2  0
  9 10  1  0
 10 11  2  0
 11 12  1  0
 12 13  2  0
 13 14  1  0
 14 15  2  0
 15 16  1  0
 16 17  1  0
 17 18  1  0
 18 19  2  0
 19 20  1  0
 20 21  2  0
 21 22  1  0
 22 23  2  0
  9 24  1  0
 24 25  2  0
  6 26  1  0
 26 27  2  0
 27  3  1  0
 25  7  1  0
 15 10  1  0
 23 18  1  0
  1 28  1  0
  1 29  1  0
  1 30  1  0
  4 31  1  0
  5 32  1  0
 11 33  1  0
 12 34  1  0
 13 35  1  0
 14 36  1  0
 16 37  1  0
 17 38  1  0
 17 39  1  0
 19 40  1  0
 20 41  1  0
 22 42  1  0
 23 43  1  0
 25 44  1  0
 26 45  1  0
 27 46  1  0
M  CHG  1  25   1
M  END
>  <UniqueID>  (37) 
35

>  <SMILES>  (37) 
COc1ccc(-n2nc(-c3ccccc3NCc3ccncc3)n[nH+]2)cc1

>  <Energy>  (37) 
100.78385732619965

>  <Genealogy>  (37) 
COc1ccc(-n2nc(-c3ccccc3NCc3ccncc3)n[nH+]2)cc1 (protonated)
COc1ccc(-n2nc(-c3ccccc3NCc3ccncc3)n[nH+]2)cc1 (3D coordinates assigned)
COc1ccc(-n2nc(-c3ccccc3NCc3ccncc3)n[nH+]2)cc1 (optimized conformer: 100.78385732619965 kcal/mol)

>  <smiles>  (37) 
COc1ccc(-n2nnc(-c3ccccc3NCc3ccncc3)n2)cc1

>  <score_type>  (37) 
oracle

>  <origin>  (37) 
adg

>  <m_score__min__energy>  (37) 
-7.0599999999999996

>  <m_primary>  (37) 
energy

$$$$
37:0
     RDKit          3D

 42 44  0  0  0  0  0  0  0  0999 V2000
   59.6740   30.9130   50.9650 C   0  0  0  0  0  0  0  0  0  0  0  0
   60.1150   30.6650   49.5780 N   0  0  1  0  0  0  0  0  0  0  0  0
   60.3120   29.2100   49.3650 C   0  0  0  0  0  0  0  0  0  0  0  0
   59.3910   28.6470   48.2640 C   0  0  0  0  0  0  0  0  0  0  0  0
   59.9240   28.8350   46.8370 C   0  0  0  0  0  0  0  0  0  0  0  0
   60.0830   30.2790   46.4850 C   0  0  0  0  0  0  0  0  0  0  0  0
   59.5020   31.2980   47.1480 C   0  0  0  0  0  0  0  0  0  0  0  0
   59.3410   32.5930   46.4290 C   0  0  0  0  0  0  0  0  0  0  0  0
   58.2640   32.7430   45.5360 C   0  0  0  0  0  0  0  0  0  0  0  0
   58.0350   33.9620   44.8940 C   0  0  0  0  0  0  0  0  0  0  0  0
   58.8730   35.0490   45.1370 C   0  0  0  0  0  0  0  0  0  0  0  0
   59.9530   34.9190   46.0120 C   0  0  0  0  0  0  0  0  0  0  0  0
   60.2070   33.6960   46.6530 C   0  0  0  0  0  0  0  0  0  0  0  0
   61.4020   33.5870   47.5170 C   0  0  0  0  0  0  0  0  0  0  0  0
   61.3290   33.9460   48.8720 C   0  0  0  0  0  0  0  0  0  0  0  0
   62.4640   33.8630   49.6830 C   0  0  0  0  0  0  0  0  0  0  0  0
   63.6740   33.4080   49.1510 C   0  0  0  0  0  0  0  0  0  0  0  0
   63.7480   33.0300   47.8070 C   0  0  0  0  0  0  0  0  0  0  0  0
   62.6150   33.1140   46.9910 C   0  0  0  0  0  0  0  0  0  0  0  0
   59.1350   31.2770   48.6340 C   0  0  0  0  0  0  0  0  0  0  0  0
   60.4137   30.4970   51.6649 H   0  0  0  0  0  0  0  0  0  0  0  0
   59.5801   31.9962   51.1318 H   0  0  0  0  0  0  0  0  0  0  0  0
   58.6996   30.4305   51.1318 H   0  0  0  0  0  0  0  0  0  0  0  0
   61.0300   31.1650   49.4910 H   0  0  0  0  0  0  0  0  0  0  0  0
   61.3582   29.0340   49.0745 H   0  0  0  0  0  0  0  0  0  0  0  0
   60.0629   28.6967   50.3055 H   0  0  0  0  0  0  0  0  0  0  0  0
   59.2587   27.5698   48.4431 H   0  0  0  0  0  0  0  0  0  0  0  0
   58.4477   29.2096   48.3244 H   0  0  0  0  0  0  0  0  0  0  0  0
   60.9027   28.3396   46.7552 H   0  0  0  0  0  0  0  0  0  0  0  0
   59.1955   28.3936   46.1410 H   0  0  0  0  0  0  0  0  0  0  0  0
   60.7198   30.5275   45.6232 H   0  0  0  0  0  0  0  0  0  0  0  0
   57.5955   31.8914   45.3415 H   0  0  0  0  0  0  0  0  0  0  0  0
   57.1917   34.0645   44.1952 H   0  0  0  0  0  0  0  0  0  0  0  0
   58.6830   36.0109   44.6384 H   0  0  0  0  0  0  0  0  0  0  0  0
   60.6097   35.7810   46.2006 H   0  0  0  0  0  0  0  0  0  0  0  0
   60.3757   34.2936   49.2967 H   0  0  0  0  0  0  0  0  0  0  0  0
   62.4052   34.1561   50.7416 H   0  0  0  0  0  0  0  0  0  0  0  0
   64.5676   33.3474   49.7896 H   0  0  0  0  0  0  0  0  0  0  0  0
   64.6988   32.6659   47.3906 H   0  0  0  0  0  0  0  0  0  0  0  0
   62.6743   32.8091   45.9358 H   0  0  0  0  0  0  0  0  0  0  0  0
   58.9804   32.3193   48.9498 H   0  0  0  0  0  0  0  0  0  0  0  0
   58.2474   30.6300   48.6938 H   0  0  0  0  0  0  0  0  0  0  0  0
  1  2  1  0
  2  3  1  0
  3  4  1  0
  4  5  1  0
  5  6  1  0
  6  7  2  0
  7  8  1  0
  8  9  2  0
  9 10  1  0
 10 11  2  0
 11 12  1  0
 12 13  2  0
 13 14  1  0
 14 15  2  0
 15 16  1  0
 16 17  2  0
 17 18  1  0
 18 19  2  0
  7 20  1  0
 20  2  1  0
 13  8  1  0
 19 14  1  0
  1 21  1  0
  1 22  1  0
  1 23  1  0
  2 24  1  1
  3 25  1  0
  3 26  1  0
  4 27  1  0
  4 28  1  0
  5 29  1  0
  5 30  1  0
  6 31  1  0
  9 32  1  0
 10 33  1  0
 11 34  1  0
 12 35  1  0
 15 36  1  0
 16 37  1  0
 17 38  1  0
 18 39  1  0
 19 40  1  0
 20 41  1  0
 20 42  1  0
M  CHG  1   2   1
M  END
>  <UniqueID>  (38) 
36

>  <SMILES>  (38) 
C[N@H+]1CCCC=C(c2ccccc2-c2ccccc2)C1

>  <Energy>  (38) 
66.83391180916155

>  <Genealogy>  (38) 
C[NH+]1CCCC=C(c2ccccc2-c2ccccc2)C1 (protonated)
C[N@H+]1CCCC=C(c2ccccc2-c2ccccc2)C1 (chirality)
C[N@H+]1CCCC=C(c2ccccc2-c2ccccc2)C1 (3D coordinates assigned)
C[N@H+]1CCCC=C(c2ccccc2-c2ccccc2)C1 (nonaromatic ring conformer: 66.83391180916155 kcal/mol)

>  <smiles>  (38) 
CN1CCCC=C(c2ccccc2-c2ccccc2)C1

>  <score_type>  (38) 
oracle

>  <origin>  (38) 
adg

>  <m_score__min__energy>  (38) 
-4.1100000000000003

>  <m_primary>  (38) 
energy

$$$$
38:0
     RDKit          3D

 66 68  0  0  0  0  0  0  0  0999 V2000
   60.6930   29.2740   49.2970 C   0  0  0  0  0  0  0  0  0  0  0  0
   61.0430   30.5760   50.0080 C   0  0  0  0  0  0  0  0  0  0  0  0
   59.9670   31.5140   49.9190 O   0  0  0  0  0  0  0  0  0  0  0  0
   59.6210   32.2590   48.7790 C   0  0  0  0  0  0  0  0  0  0  0  0
   59.0890   31.6620   47.6190 C   0  0  0  0  0  0  0  0  0  0  0  0
   58.7390   32.4400   46.5020 C   0  0  0  0  0  0  0  0  0  0  0  0
   58.2010   31.7840   45.2830 C   0  0  0  0  0  0  0  0  0  0  0  0
   57.7410   32.5200   44.1830 C   0  0  0  0  0  0  0  0  0  0  0  0
   57.2650   31.8680   43.0930 N   0  0  0  0  0  0  0  0  0  0  0  0
   57.2100   30.5130   43.0410 C   0  0  0  0  0  0  0  0  0  0  0  0
   57.6430   29.7600   44.1440 C   0  0  0  0  0  0  0  0  0  0  0  0
   57.5970   28.2730   44.1640 C   0  0  0  0  0  0  0  0  0  0  0  0
   57.8270   27.5130   43.0040 C   0  0  0  0  0  0  0  0  0  0  0  0
   57.7680   26.1160   43.0400 C   0  0  0  0  0  0  0  0  0  0  0  0
   57.4620   25.4340   44.2340 C   0  0  0  0  0  0  0  0  0  0  0  0
   57.3950   23.9830   44.2710 N   0  0  0  0  0  0  0  0  0  0  0  0
   56.4700   23.2560   43.3950 C   0  0  0  0  0  0  0  0  0  0  0  0
   58.2400   23.2220   45.1990 C   0  0  0  0  0  0  0  0  0  0  0  0
   57.2170   26.2000   45.3910 C   0  0  0  0  0  0  0  0  0  0  0  0
   57.2800   27.5970   45.3550 C   0  0  0  0  0  0  0  0  0  0  0  0
   58.1300   30.4260   45.2280 N   0  0  0  0  0  0  0  0  0  0  0  0
   58.9300   33.8310   46.5560 C   0  0  0  0  0  0  0  0  0  0  0  0
   59.4530   34.4310   47.7040 C   0  0  0  0  0  0  0  0  0  0  0  0
   59.8060   33.6500   48.8180 C   0  0  0  0  0  0  0  0  0  0  0  0
   60.3480   34.2140   49.9830 O   0  0  0  0  0  0  0  0  0  0  0  0
   61.6660   33.9670   50.4660 C   0  0  0  0  0  0  0  0  0  0  0  0
   62.6680   34.2010   49.3350 C   0  0  0  0  0  0  0  0  0  0  0  0
   63.3260   32.9310   48.9530 N   0  0  0  0  0  0  0  0  0  0  0  0
   63.0680   32.5970   47.5340 C   0  0  0  0  0  0  0  0  0  0  0  0
   63.3340   33.8180   46.6610 C   0  0  0  0  0  0  0  0  0  0  0  0
   64.7780   32.9520   49.2500 C   0  0  0  0  0  0  0  0  0  0  0  0
   65.0960   31.9590   50.3630 C   0  0  0  0  0  0  0  0  0  0  0  0
   60.4832   28.4936   50.0433 H   0  0  0  0  0  0  0  0  0  0  0  0
   59.8042   29.4275   48.6673 H   0  0  0  0  0  0  0  0  0  0  0  0
   61.5390   28.9612   48.6673 H   0  0  0  0  0  0  0  0  0  0  0  0
   61.2481   30.3633   51.0676 H   0  0  0  0  0  0  0  0  0  0  0  0
   61.9292   31.0123   49.5239 H   0  0  0  0  0  0  0  0  0  0  0  0
   58.9456   30.5719   47.5871 H   0  0  0  0  0  0  0  0  0  0  0  0
   57.7657   33.6195   44.2033 H   0  0  0  0  0  0  0  0  0  0  0  0
   56.8289   30.0083   42.1410 H   0  0  0  0  0  0  0  0  0  0  0  0
   58.0561   28.0230   42.0567 H   0  0  0  0  0  0  0  0  0  0  0  0
   57.9634   25.5415   42.1225 H   0  0  0  0  0  0  0  0  0  0  0  0
   55.7518   22.6915   44.0079 H   0  0  0  0  0  0  0  0  0  0  0  0
   55.9273   23.9718   42.7601 H   0  0  0  0  0  0  0  0  0  0  0  0
   57.0372   22.5595   42.7601 H   0  0  0  0  0  0  0  0  0  0  0  0
   57.9639   23.4707   46.2343 H   0  0  0  0  0  0  0  0  0  0  0  0
   58.0937   22.1451   45.0291 H   0  0  0  0  0  0  0  0  0  0  0  0
   59.2958   23.4799   45.0291 H   0  0  0  0  0  0  0  0  0  0  0  0
   56.9728   25.6923   46.3358 H   0  0  0  0  0  0  0  0  0  0  0  0
   57.0790   28.1736   46.2699 H   0  0  0  0  0  0  0  0  0  0  0  0
   58.6657   34.4523   45.6876 H   0  0  0  0  0  0  0  0  0  0  0  0
   59.5895   35.5220   47.7364 H   0  0  0  0  0  0  0  0  0  0  0  0
   61.8863   34.6498   51.2998 H   0  0  0  0  0  0  0  0  0  0  0  0
   61.7419   32.9275   50.8178 H   0  0  0  0  0  0  0  0  0  0  0  0
   62.1391   34.6113   48.4621 H   0  0  0  0  0  0  0  0  0  0  0  0
   63.4356   34.9089   49.6811 H   0  0  0  0  0  0  0  0  0  0  0  0
   63.7314   31.7756   47.2255 H   0  0  0  0  0  0  0  0  0  0  0  0
   62.0186   32.2884   47.4179 H   0  0  0  0  0  0  0  0  0  0  0  0
   63.5244   34.6920   47.3012 H   0  0  0  0  0  0  0  0  0  0  0  0
   64.2123   33.6304   46.0259 H   0  0  0  0  0  0  0  0  0  0  0  0
   62.4572   34.0127   46.0259 H   0  0  0  0  0  0  0  0  0  0  0  0
   65.3392   32.6769   48.3448 H   0  0  0  0  0  0  0  0  0  0  0  0
   65.0662   33.9629   49.5741 H   0  0  0  0  0  0  0  0  0  0  0  0
   64.9416   32.4411   51.3396 H   0  0  0  0  0  0  0  0  0  0  0  0
   64.4325   31.0859   50.2761 H   0  0  0  0  0  0  0  0  0  0  0  0
   66.1432   31.6338   50.2761 H   0  0  0  0  0  0  0  0  0  0  0  0
  1  2  1  0
  2  3  1  0
  3  4  1  0
  4  5  2  0
  5  6  1  0
  6  7  1  0
  7  8  2  0
  8  9  1  0
  9 10  2  0
 10 11  1  0
 11 12  1  0
 12 13  2  0
 13 14  1  0
 14 15  2  0
 15 16  1  0
 16 17  1  0
 16 18  1  0
 15 19  1  0
 19 20  2  0
 11 21  2  0
  6 22  2  0
 22 23  1  0
 23 24  2  0
 24 25  1  0
 25 26  1  0
 26 27  1  0
 27 28  1  0
 28 29  1  0
 29 30  1  0
 28 31  1  0
 31 32  1  0
 24  4  1  0
 21  7  1  0
 20 12  1  0
  1 33  1  0
  1 34  1  0
  1 35  1  0
  2 36  1  0
  2 37  1  0
  5 38  1  0
  8 39  1  0
 10 40  1  0
 13 41  1  0
 14 42  1  0
 17 43  1  0
 17 44  1  0
 17 45  1  0
 18 46  1  0
 18 47  1  0
 18 48  1  0
 19 49  1  0
 20 50  1  0
 22 51  1  0
 23 52  1  0
 26 53  1  0
 26 54  1  0
 27 55  1  0
 27 56  1  0
 29 57  1  0
 29 58  1  0
 30 59  1  0
 30 60  1  0
 30 61  1  0
 31 62  1  0
 31 63  1  0
 32 64  1  0
 32 65  1  0
 32 66  1  0
M  END
>  <UniqueID>  (39) 
37

>  <SMILES>  (39) 
CCOc1cc(-c2cncc(-c3ccc(N(C)C)cc3)n2)ccc1OCCN(CC)CC

>  <Energy>  (39) 
73.19001641675666

>  <Genealogy>  (39) 
CCOc1cc(-c2cncc(-c3ccc(N(C)C)cc3)n2)ccc1OCCN(CC)CC (3D coordinates assigned)
CCOc1cc(-c2cncc(-c3ccc(N(C)C)cc3)n2)ccc1OCCN(CC)CC (optimized conformer: 73.19001641675666 kcal/mol)

>  <smiles>  (39) 
CCOc1cc(-c2cncc(-c3ccc(N(C)C)cc3)n2)ccc1OCCN(CC)CC

>  <score_type>  (39) 
oracle

>  <origin>  (39) 
adg

>  <m_score__min__energy>  (39) 
-6.8799999999999999

>  <m_primary>  (39) 
energy

$$$$
39:0
     RDKit          3D

 44 47  0  0  0  0  0  0  0  0999 V2000
   56.4260   30.4740   44.0000 C   0  0  0  0  0  0  0  0  0  0  0  0
   56.2970   31.6250   44.8260 O   0  0  0  0  0  0  0  0  0  0  0  0
   57.3700   32.4370   45.2280 C   0  0  0  0  0  0  0  0  0  0  0  0
   57.5070   33.7720   44.8020 C   0  0  0  0  0  0  0  0  0  0  0  0
   58.5980   34.5350   45.2250 C   0  0  0  0  0  0  0  0  0  0  0  0
   59.5550   33.9800   46.0780 C   0  0  0  0  0  0  0  0  0  0  0  0
   59.4240   32.6570   46.5240 C   0  0  0  0  0  0  0  0  0  0  0  0
   60.4150   32.0890   47.4010 N   0  0  0  0  0  0  0  0  0  0  0  0
   61.2650   32.7930   48.1740 C   0  0  0  0  0  0  0  0  0  0  0  0
   62.1390   31.9080   48.7810 C   0  0  0  0  0  0  0  0  0  0  0  0
   63.2410   32.2510   49.7130 C   0  0  0  0  0  0  0  0  0  0  0  0
   63.9860   31.2380   50.3470 C   0  0  0  0  0  0  0  0  0  0  0  0
   65.0250   31.5650   51.2240 C   0  0  0  0  0  0  0  0  0  0  0  0
   65.3340   32.9020   51.4780 C   0  0  0  0  0  0  0  0  0  0  0  0
   64.6040   33.9170   50.8560 C   0  0  0  0  0  0  0  0  0  0  0  0
   63.5650   33.5970   49.9770 C   0  0  0  0  0  0  0  0  0  0  0  0
   61.8250   30.6560   48.3860 N   0  0  0  0  0  0  0  0  0  0  0  0
   60.7700   30.7900   47.5550 C   0  0  0  0  0  0  0  0  0  0  0  0
   60.0630   29.6300   46.9680 C   0  0  0  0  0  0  0  0  0  0  0  0
   59.1560   28.8760   47.7330 C   0  0  0  0  0  0  0  0  0  0  0  0
   58.4980   27.7790   47.1690 C   0  0  0  0  0  0  0  0  0  0  0  0
   58.7490   27.4170   45.8420 C   0  0  0  0  0  0  0  0  0  0  0  0
   57.8480   25.9190   45.0730 Br  0  0  0  0  0  0  0  0  0  0  0  0
   59.6620   28.1510   45.0800 C   0  0  0  0  0  0  0  0  0  0  0  0
   60.3210   29.2490   45.6410 C   0  0  0  0  0  0  0  0  0  0  0  0
   58.3350   31.8880   46.0800 C   0  0  0  0  0  0  0  0  0  0  0  0
   56.5263   29.5789   44.6315 H   0  0  0  0  0  0  0  0  0  0  0  0
   55.5332   30.3765   43.3649 H   0  0  0  0  0  0  0  0  0  0  0  0
   57.3183   30.5766   43.3649 H   0  0  0  0  0  0  0  0  0  0  0  0
   56.7532   34.2151   44.1346 H   0  0  0  0  0  0  0  0  0  0  0  0
   58.7038   35.5759   44.8854 H   0  0  0  0  0  0  0  0  0  0  0  0
   60.4157   34.5838   46.4015 H   0  0  0  0  0  0  0  0  0  0  0  0
   61.2644   33.8856   48.3010 H   0  0  0  0  0  0  0  0  0  0  0  0
   63.7489   30.1819   50.1510 H   0  0  0  0  0  0  0  0  0  0  0  0
   65.6003   30.7662   51.7150 H   0  0  0  0  0  0  0  0  0  0  0  0
   66.1522   33.1562   52.1679 H   0  0  0  0  0  0  0  0  0  0  0  0
   64.8470   34.9706   51.0581 H   0  0  0  0  0  0  0  0  0  0  0  0
   62.9963   34.4016   49.4879 H   0  0  0  0  0  0  0  0  0  0  0  0
   62.2630   29.7610   48.6950 H   0  0  0  0  0  0  0  0  0  0  0  0
   58.9631   29.1506   48.7806 H   0  0  0  0  0  0  0  0  0  0  0  0
   57.7817   27.1997   47.7701 H   0  0  0  0  0  0  0  0  0  0  0  0
   59.8625   27.8644   44.0371 H   0  0  0  0  0  0  0  0  0  0  0  0
   61.0456   29.8177   45.0397 H   0  0  0  0  0  0  0  0  0  0  0  0
   58.2398   30.8418   46.4061 H   0  0  0  0  0  0  0  0  0  0  0  0
  1  2  1  0
  2  3  1  0
  3  4  2  0
  4  5  1  0
  5  6  2  0
  6  7  1  0
  7  8  1  0
  8  9  1  0
  9 10  2  0
 10 11  1  0
 11 12  2  0
 12 13  1  0
 13 14  2  0
 14 15  1  0
 15 16  2  0
 10 17  1  0
 17 18  2  0
 18 19  1  0
 19 20  2  0
 20 21  1  0
 21 22  2  0
 22 23  1  0
 22 24  1  0
 24 25  2  0
  7 26  2  0
 26  3  1  0
 18  8  1  0
 25 19  1  0
 16 11  1  0
  1 27  1  0
  1 28  1  0
  1 29  1  0
  4 30  1  0
  5 31  1  0
  6 32  1  0
  9 33  1  0
 12 34  1  0
 13 35  1  0
 14 36  1  0
 15 37  1  0
 16 38  1  0
 17 39  1  0
 20 40  1  0
 21 41  1  0
 24 42  1  0
 25 43  1  0
 26 44  1  0
M  CHG  1  17   1
M  END
>  <UniqueID>  (40) 
38

>  <SMILES>  (40) 
COc1cccc(-n2cc(-c3ccccc3)[nH+]c2-c2ccc(Br)cc2)c1

>  <Energy>  (40) 
89.63867106332435

>  <Genealogy>  (40) 
COc1cccc(-n2cc(-c3ccccc3)[nH+]c2-c2ccc(Br)cc2)c1 (protonated)
COc1cccc(-n2cc(-c3ccccc3)[nH+]c2-c2ccc(Br)cc2)c1 (3D coordinates assigned)
COc1cccc(-n2cc(-c3ccccc3)[nH+]c2-c2ccc(Br)cc2)c1 (optimized conformer: 89.63867106332435 kcal/mol)

>  <smiles>  (40) 
COc1cccc(-n2cc(-c3ccccc3)nc2-c2ccc(Br)cc2)c1

>  <score_type>  (40) 
oracle

>  <origin>  (40) 
adg

>  <m_score__min__energy>  (40) 
-7.0700000000000003

>  <m_primary>  (40) 
energy

$$$$
40:0
     RDKit          3D

 40 41  0  0  0  0  0  0  0  0999 V2000
   58.4443   27.5674   42.0433 H   0  0  0  0  0  0  0  0  0  0  0  0
   57.7710   27.7870   42.8850 C   0  0  0  0  0  0  0  0  0  0  0  0
   57.7800   27.0270   43.9370 N   0  0  0  0  0  0  0  0  0  0  0  0
   58.5110   27.3280   45.1370 C   0  0  0  0  0  0  0  0  0  0  0  0
   59.6210   28.1780   45.0300 C   0  0  0  0  0  0  0  0  0  0  0  0
   59.9303   28.5487   44.0416 H   0  0  0  0  0  0  0  0  0  0  0  0
   60.3370   28.5580   46.1660 C   0  0  0  0  0  0  0  0  0  0  0  0
   61.1997   29.2339   46.0713 H   0  0  0  0  0  0  0  0  0  0  0  0
   59.9600   28.0820   47.4200 C   0  0  0  0  0  0  0  0  0  0  0  0
   60.5154   28.3963   48.3160 H   0  0  0  0  0  0  0  0  0  0  0  0
   58.8790   27.2070   47.5420 C   0  0  0  0  0  0  0  0  0  0  0  0
   58.5945   26.8281   48.5347 H   0  0  0  0  0  0  0  0  0  0  0  0
   58.1500   26.8050   46.4080 C   0  0  0  0  0  0  0  0  0  0  0  0
   57.0910   25.7820   46.5650 C   0  0  0  0  0  0  0  0  0  0  0  0
   57.1820   24.9270   47.4880 O   0  0  0  0  0  0  0  0  0  0  0  0
   55.9550   25.7690   45.6880 N   0  0  0  0  0  0  0  0  0  0  0  0
   55.9270   26.4380   44.8850 H   0  0  0  0  0  0  0  0  0  0  0  0
   54.8660   24.8090   45.8710 C   0  0  0  0  0  0  0  0  0  0  0  0
   53.9055   25.3441   45.8388 H   0  0  0  0  0  0  0  0  0  0  0  0
   54.9972   24.3111   46.8430 H   0  0  0  0  0  0  0  0  0  0  0  0
   54.8830   23.7480   44.7750 C   0  0  0  0  0  0  0  0  0  0  0  0
   54.8990   22.7480   45.2330 H   0  0  0  0  0  0  0  0  0  0  0  0
   53.9831   23.8511   44.1509 H   0  0  0  0  0  0  0  0  0  0  0  0
   55.7791   23.8799   44.1509 H   0  0  0  0  0  0  0  0  0  0  0  0
   56.8460   28.9620   42.8150 C   0  0  0  0  0  0  0  0  0  0  0  0
   57.3109   29.7427   42.1950 H   0  0  0  0  0  0  0  0  0  0  0  0
   55.8958   28.6191   42.3797 H   0  0  0  0  0  0  0  0  0  0  0  0
   56.5510   29.5360   44.1800 C   0  0  0  0  0  0  0  0  0  0  0  0
   55.6490   29.0090   44.8880 O   0  0  0  0  0  0  0  0  0  0  0  0
   57.2570   30.7420   44.6850 C   0  0  0  0  0  0  0  0  0  0  0  0
   57.3910   31.8740   43.8590 C   0  0  0  0  0  0  0  0  0  0  0  0
   56.9715   31.8597   42.8422 H   0  0  0  0  0  0  0  0  0  0  0  0
   58.0530   33.0170   44.3200 C   0  0  0  0  0  0  0  0  0  0  0  0
   58.1468   33.8980   43.6680 H   0  0  0  0  0  0  0  0  0  0  0  0
   58.5950   33.0410   45.6070 C   0  0  0  0  0  0  0  0  0  0  0  0
   59.5020   34.6020   46.2330 Br  0  0  0  0  0  0  0  0  0  0  0  0
   58.4780   31.9210   46.4340 C   0  0  0  0  0  0  0  0  0  0  0  0
   58.9085   31.9387   47.4461 H   0  0  0  0  0  0  0  0  0  0  0  0
   57.8150   30.7780   45.9780 C   0  0  0  0  0  0  0  0  0  0  0  0
   57.7283   29.8994   46.6342 H   0  0  0  0  0  0  0  0  0  0  0  0
  1  2  1  0
  2  3  2  0
  3  4  1  0
  4  5  2  0
  5  6  1  0
  5  7  1  0
  7  8  1  0
  7  9  2  0
  9 10  1  0
  9 11  1  0
 11 12  1  0
 11 13  2  0
 13 14  1  0
 14 15  2  0
 14 16  1  0
 16 17  1  0
 16 18  1  0
 18 19  1  0
 18 20  1  0
 18 21  1  0
 21 22  1  0
 21 23  1  0
 21 24  1  0
  2 25  1  0
 25 26  1  0
 25 27  1  0
 25 28  1  0
 28 29  2  0
 28 30  1  0
 30 31  2  0
 31 32  1  0
 31 33  1  0
 33 34  1  0
 33 35  2  0
 35 36  1  0
 35 37  1  0
 37 38  1  0
 37 39  2  0
 39 40  1  0
 13  4  1  0
 39 30  1  0
M  END
>  <UniqueID>  (41) 
39

>  <SMILES>  (41) 
CCNC(=O)c1ccccc1/N=C/CC(=O)c1ccc(Br)cc1

>  <Energy>  (41) 
46.07069919863527

>  <Genealogy>  (41) 
CCNC(=O)c1ccccc1/N=C/CC(=O)c1ccc(Br)cc1 (cis-trans isomerization)
CCNC(=O)c1ccccc1/N=C/CC(=O)c1ccc(Br)cc1 (3D coordinates assigned)
CCNC(=O)c1ccccc1/N=C/CC(=O)c1ccc(Br)cc1 (optimized conformer: 46.07069919863527 kcal/mol)

>  <smiles>  (41) 
CCNC(=O)c1ccccc1N=CCC(=O)c1ccc(Br)cc1

>  <score_type>  (41) 
oracle

>  <origin>  (41) 
adg

>  <m_score__min__energy>  (41) 
-8.3900000000000006

>  <m_primary>  (41) 
energy

$$$$
41:0
     RDKit          3D

 65 67  0  0  0  0  0  0  0  0999 V2000
   57.5150   26.7530   45.2470 C   0  0  0  0  0  0  0  0  0  0  0  0
   57.5350   27.9950   46.1400 C   0  0  0  0  0  0  0  0  0  0  0  0
   58.8110   28.7410   46.0400 N   0  0  0  0  0  0  0  0  0  0  0  0
   59.6290   28.4060   44.8450 C   0  0  0  0  0  0  0  0  0  0  0  0
   61.0620   28.9650   44.8710 C   0  0  0  0  0  0  0  0  0  0  0  0
   59.5920   28.6670   47.2980 C   0  0  0  0  0  0  0  0  0  0  0  0
   58.8890   29.4340   48.4280 C   0  0  0  0  0  0  0  0  0  0  0  0
   59.7670   30.4120   49.0790 N   0  0  0  0  0  0  0  0  0  0  0  0
   60.6510   31.3120   48.3820 C   0  0  0  0  0  0  0  0  0  0  0  0
   60.1920   32.0060   47.2400 C   0  0  0  0  0  0  0  0  0  0  0  0
   58.8660   31.8010   46.7340 N   0  0  0  0  0  0  0  0  0  0  0  0
   57.9690   32.9160   46.4340 C   0  0  0  0  0  0  0  0  0  0  0  0
   57.0220   32.5710   45.2780 C   0  0  0  0  0  0  0  0  0  0  0  0
   57.2960   31.2220   44.7320 N   0  0  0  0  0  0  0  0  0  0  0  0
   56.0300   30.5200   44.4650 C   0  0  0  0  0  0  0  0  0  0  0  0
   58.0880   31.2990   43.4920 C   0  0  0  0  0  0  0  0  0  0  0  0
   61.0180   32.9330   46.6000 C   0  0  0  0  0  0  0  0  0  0  0  0
   62.3040   33.1980   47.0760 C   0  0  0  0  0  0  0  0  0  0  0  0
   63.1770   34.1990   46.3690 C   0  0  0  0  0  0  0  0  0  0  0  0
   62.7760   32.5270   48.2140 C   0  0  0  0  0  0  0  0  0  0  0  0
   64.0030   32.7940   48.6540 O   0  0  0  0  0  0  0  0  0  0  0  0
   64.5390   32.2090   49.7140 C   0  0  0  0  0  0  0  0  0  0  0  0
   65.8370   32.5510   50.1070 C   0  0  0  0  0  0  0  0  0  0  0  0
   66.4200   31.9380   51.2190 C   0  0  0  0  0  0  0  0  0  0  0  0
   65.7070   30.9760   51.9460 C   0  0  0  0  0  0  0  0  0  0  0  0
   66.2810   30.3580   53.0550 O   0  0  0  0  0  0  0  0  0  0  0  0
   64.4080   30.6300   51.5590 C   0  0  0  0  0  0  0  0  0  0  0  0
   63.8110   31.2460   50.4420 C   0  0  0  0  0  0  0  0  0  0  0  0
   62.5100   30.9250   50.0170 C   0  0  0  0  0  0  0  0  0  0  0  0
   61.8610   30.0440   50.6420 O   0  0  0  0  0  0  0  0  0  0  0  0
   61.9580   31.5780   48.8840 C   0  0  0  0  0  0  0  0  0  0  0  0
   57.5005   25.8500   45.8750 H   0  0  0  0  0  0  0  0  0  0  0  0
   56.6171   26.7724   44.6119 H   0  0  0  0  0  0  0  0  0  0  0  0
   58.4131   26.7435   44.6119 H   0  0  0  0  0  0  0  0  0  0  0  0
   56.7122   28.6601   45.8388 H   0  0  0  0  0  0  0  0  0  0  0  0
   57.4220   27.6612   47.1820 H   0  0  0  0  0  0  0  0  0  0  0  0
   59.6897   27.3104   44.7672 H   0  0  0  0  0  0  0  0  0  0  0  0
   59.1283   28.8733   43.9842 H   0  0  0  0  0  0  0  0  0  0  0  0
   61.3872   29.0919   45.9141 H   0  0  0  0  0  0  0  0  0  0  0  0
   61.7381   28.2647   44.3587 H   0  0  0  0  0  0  0  0  0  0  0  0
   61.0853   29.9382   44.3587 H   0  0  0  0  0  0  0  0  0  0  0  0
   59.7009   27.6127   47.5923 H   0  0  0  0  0  0  0  0  0  0  0  0
   60.5782   29.1228   47.1257 H   0  0  0  0  0  0  0  0  0  0  0  0
   58.0221   29.9645   48.0071 H   0  0  0  0  0  0  0  0  0  0  0  0
   58.5861   28.7003   49.1896 H   0  0  0  0  0  0  0  0  0  0  0  0
   59.7950   30.4080   50.1230 H   0  0  0  0  0  0  0  0  0  0  0  0
   58.5720   30.8370   46.4680 H   0  0  0  0  0  0  0  0  0  0  0  0
   57.3730   33.1477   47.3290 H   0  0  0  0  0  0  0  0  0  0  0  0
   58.5781   33.7829   46.1382 H   0  0  0  0  0  0  0  0  0  0  0  0
   55.9852   32.6040   45.6441 H   0  0  0  0  0  0  0  0  0  0  0  0
   57.1788   33.3055   44.4743 H   0  0  0  0  0  0  0  0  0  0  0  0
   55.5501   30.2539   45.4184 H   0  0  0  0  0  0  0  0  0  0  0  0
   55.3614   31.1762   43.8885 H   0  0  0  0  0  0  0  0  0  0  0  0
   56.2324   29.6053   43.8885 H   0  0  0  0  0  0  0  0  0  0  0  0
   59.1538   31.4026   43.7435 H   0  0  0  0  0  0  0  0  0  0  0  0
   57.9376   30.3820   42.9034 H   0  0  0  0  0  0  0  0  0  0  0  0
   57.7638   32.1699   42.9034 H   0  0  0  0  0  0  0  0  0  0  0  0
   60.6503   33.4619   45.7083 H   0  0  0  0  0  0  0  0  0  0  0  0
   63.7100   34.8102   47.1122 H   0  0  0  0  0  0  0  0  0  0  0  0
   63.9065   33.6690   45.7390 H   0  0  0  0  0  0  0  0  0  0  0  0
   62.5527   34.8496   45.7390 H   0  0  0  0  0  0  0  0  0  0  0  0
   66.4009   33.3053   49.5386 H   0  0  0  0  0  0  0  0  0  0  0  0
   67.4409   32.2113   51.5242 H   0  0  0  0  0  0  0  0  0  0  0  0
   65.8030   30.3220   53.9480 H   0  0  0  0  0  0  0  0  0  0  0  0
   63.8501   29.8731   52.1299 H   0  0  0  0  0  0  0  0  0  0  0  0
  1  2  1  0
  2  3  1  0
  3  4  1  0
  4  5  1  0
  3  6  1  0
  6  7  1  0
  7  8  1  0
  8  9  1  0
  9 10  2  0
 10 11  1  0
 11 12  1  0
 12 13  1  0
 13 14  1  0
 14 15  1  0
 14 16  1  0
 10 17  1  0
 17 18  2  0
 18 19  1  0
 18 20  1  0
 20 21  1  0
 21 22  1  0
 22 23  2  0
 23 24  1  0
 24 25  2  0
 25 26  1  0
 25 27  1  0
 27 28  2  0
 28 29  1  0
 29 30  2  0
 29 31  1  0
 31  9  1  0
 31 20  2  0
 28 22  1  0
  1 32  1  0
  1 33  1  0
  1 34  1  0
  2 35  1  0
  2 36  1  0
  4 37  1  0
  4 38  1  0
  5 39  1  0
  5 40  1  0
  5 41  1  0
  6 42  1  0
  6 43  1  0
  7 44  1  0
  7 45  1  0
  8 46  1  0
 11 47  1  0
 12 48  1  0
 12 49  1  0
 13 50  1  0
 13 51  1  0
 15 52  1  0
 15 53  1  0
 15 54  1  0
 16 55  1  0
 16 56  1  0
 16 57  1  0
 17 58  1  0
 19 59  1  0
 19 60  1  0
 19 61  1  0
 23 62  1  0
 24 63  1  0
 26 64  1  0
 27 65  1  0
M  END
>  <UniqueID>  (42) 
40

>  <SMILES>  (42) 
CCN(CC)CCNc1c(NCCN(C)C)cc(C)c2oc3ccc(O)cc3c(=O)c12

>  <Energy>  (42) 
82.4736065616792

>  <Genealogy>  (42) 
CCN(CC)CCNc1c(NCCN(C)C)cc(C)c2oc3ccc(O)cc3c(=O)c12 (3D coordinates assigned)
CCN(CC)CCNc1c(NCCN(C)C)cc(C)c2oc3ccc(O)cc3c(=O)c12 (optimized conformer: 82.4736065616792 kcal/mol)

>  <smiles>  (42) 
CCN(CC)CCNc1c(NCCN(C)C)cc(C)c2oc3ccc(O)cc3c(=O)c12

>  <score_type>  (42) 
oracle

>  <origin>  (42) 
adg

>  <m_score__min__energy>  (42) 
-7.54

>  <m_primary>  (42) 
energy

$$$$
42:0
     RDKit          3D

 28 29  0  0  0  0  0  0  0  0999 V2000
   57.8111   24.2613   46.7245 H   0  0  0  0  0  0  0  0  0  0  0  0
   57.4190   25.2410   46.4140 C   0  0  0  0  0  0  0  0  0  0  0  0
   58.2690   26.2360   46.0490 N   0  0  0  0  0  0  0  0  0  0  0  0
   57.8100   27.4500   45.6470 C   0  0  0  0  0  0  0  0  0  0  0  0
   58.5164   28.2416   45.3567 H   0  0  0  0  0  0  0  0  0  0  0  0
   56.4190   27.6870   45.6050 C   0  0  0  0  0  0  0  0  0  0  0  0
   55.8950   28.8260   45.2450 N   0  0  0  0  0  0  0  0  0  0  0  0
   56.3860   29.7840   44.2910 C   0  0  0  0  0  0  0  0  0  0  0  0
   56.7710   29.4170   43.1510 O   0  0  0  0  0  0  0  0  0  0  0  0
   56.3040   31.1850   44.5710 N   0  0  0  0  0  0  0  0  0  0  0  0
   57.3660   32.0090   45.0720 C   0  0  0  0  0  0  0  0  0  0  0  0
   58.3430   31.4270   45.8880 C   0  0  0  0  0  0  0  0  0  0  0  0
   58.2934   30.3526   46.1186 H   0  0  0  0  0  0  0  0  0  0  0  0
   59.3820   32.2030   46.4120 C   0  0  0  0  0  0  0  0  0  0  0  0
   60.1513   31.7312   47.0409 H   0  0  0  0  0  0  0  0  0  0  0  0
   59.4510   33.5740   46.1430 C   0  0  0  0  0  0  0  0  0  0  0  0
   60.5130   34.3090   46.6890 O   0  0  0  0  0  0  0  0  0  0  0  0
   61.8350   33.8060   46.8580 C   0  0  0  0  0  0  0  0  0  0  0  0
   62.0603   33.7203   47.9313 H   0  0  0  0  0  0  0  0  0  0  0  0
   61.9134   32.8152   46.3866 H   0  0  0  0  0  0  0  0  0  0  0  0
   62.5522   34.4941   46.3866 H   0  0  0  0  0  0  0  0  0  0  0  0
   58.4540   34.1670   45.3440 C   0  0  0  0  0  0  0  0  0  0  0  0
   58.4927   35.2455   45.1311 H   0  0  0  0  0  0  0  0  0  0  0  0
   57.4150   33.3910   44.8200 C   0  0  0  0  0  0  0  0  0  0  0  0
   56.6329   33.8642   44.2081 H   0  0  0  0  0  0  0  0  0  0  0  0
   55.5820   26.6870   45.9930 N   0  0  0  0  0  0  0  0  0  0  0  0
   56.0460   25.4740   46.3910 C   0  0  0  0  0  0  0  0  0  0  0  0
   55.3437   24.6828   46.6924 H   0  0  0  0  0  0  0  0  0  0  0  0
  1  2  1  0
  2  3  1  0
  3  4  2  0
  4  5  1  0
  4  6  1  0
  6  7  2  0
  7  8  1  0
  8  9  2  0
  8 10  1  0
 10 11  1  0
 11 12  2  0
 12 13  1  0
 12 14  1  0
 14 15  1  0
 14 16  2  0
 16 17  1  0
 17 18  1  0
 18 19  1  0
 18 20  1  0
 18 21  1  0
 16 22  1  0
 22 23  1  0
 22 24  2  0
 24 25  1  0
  6 26  1  0
 26 27  1  0
 27 28  1  0
 27  2  2  0
 24 11  1  0
M  CHG  2  10  -1  26  -1
M  END
>  <UniqueID>  (43) 
41

>  <SMILES>  (43) 
COc1ccc([N-]C(=O)/N=c2\cncc[n-]2)cc1

>  <Energy>  (43) 
40.51908177879222

>  <Genealogy>  (43) 
COc1ccc([N-]C(=O)N=c2cncc[n-]2)cc1 (protonated)
COc1ccc([N-]C(=O)/N=c2\cncc[n-]2)cc1 (cis-trans isomerization)
COc1ccc([N-]C(=O)/N=c2\cncc[n-]2)cc1 (3D coordinates assigned)
COc1ccc([N-]C(=O)/N=c2\cncc[n-]2)cc1 (optimized conformer: 40.51908177879222 kcal/mol)

>  <smiles>  (43) 
COc1ccc(NC(=O)N=c2cncc[nH]2)cc1

>  <score_type>  (43) 
oracle

>  <origin>  (43) 
adg

>  <m_score__min__energy>  (43) 
-8.7599999999999998

>  <m_primary>  (43) 
energy

$$$$
43:0
     RDKit          3D

 44 47  0  0  0  0  0  0  0  0999 V2000
   56.2970   22.7220   44.0240 C   0  0  0  0  0  0  0  0  0  0  0  0
   56.6930   24.1190   44.3990 C   0  0  0  0  0  0  0  0  0  0  0  0
   56.4510   24.5970   45.6940 C   0  0  0  0  0  0  0  0  0  0  0  0
   56.8450   25.8870   46.0530 C   0  0  0  0  0  0  0  0  0  0  0  0
   57.5000   26.7140   45.1300 C   0  0  0  0  0  0  0  0  0  0  0  0
   57.8750   28.0460   45.5200 N   0  0  0  0  0  0  0  0  0  0  0  0
   58.9660   28.2210   46.3460 C   0  0  0  0  0  0  0  0  0  0  0  0
   59.3590   29.4720   46.7340 N   0  0  0  0  0  0  0  0  0  0  0  0
   58.6430   30.5330   46.2890 C   0  0  0  0  0  0  0  0  0  0  0  0
   58.8080   31.8880   46.4780 C   0  0  0  0  0  0  0  0  0  0  0  0
   59.8350   32.5530   47.3070 C   0  0  0  0  0  0  0  0  0  0  0  0
   61.1980   32.2920   47.0990 C   0  0  0  0  0  0  0  0  0  0  0  0
   62.1660   32.9230   47.8880 C   0  0  0  0  0  0  0  0  0  0  0  0
   61.7780   33.8150   48.8920 C   0  0  0  0  0  0  0  0  0  0  0  0
   62.9920   34.6040   49.8820 Cl  0  0  0  0  0  0  0  0  0  0  0  0
   60.4210   34.0760   49.1080 C   0  0  0  0  0  0  0  0  0  0  0  0
   59.4520   33.4460   48.3210 C   0  0  0  0  0  0  0  0  0  0  0  0
   57.8230   32.5030   45.7670 N   0  0  0  0  0  0  0  0  0  0  0  0
   57.5780   33.9380   45.6690 C   0  0  0  0  0  0  0  0  0  0  0  0
   57.0750   31.6000   45.1360 N   0  0  0  0  0  0  0  0  0  0  0  0
   57.5790   30.3960   45.4610 C   0  0  0  0  0  0  0  0  0  0  0  0
   57.1700   29.1330   45.0570 C   0  0  0  0  0  0  0  0  0  0  0  0
   56.1760   28.9960   44.2940 O   0  0  0  0  0  0  0  0  0  0  0  0
   57.7850   26.2270   43.8340 C   0  0  0  0  0  0  0  0  0  0  0  0
   58.4970   27.0830   42.8230 C   0  0  0  0  0  0  0  0  0  0  0  0
   57.3700   24.9320   43.4780 C   0  0  0  0  0  0  0  0  0  0  0  0
   56.1295   22.1309   44.9365 H   0  0  0  0  0  0  0  0  0  0  0  0
   55.3714   22.7501   43.4302 H   0  0  0  0  0  0  0  0  0  0  0  0
   57.0996   22.2602   43.4302 H   0  0  0  0  0  0  0  0  0  0  0  0
   55.9485   23.9529   46.4306 H   0  0  0  0  0  0  0  0  0  0  0  0
   56.6399   26.2576   47.0682 H   0  0  0  0  0  0  0  0  0  0  0  0
   59.5272   27.3426   46.6972 H   0  0  0  0  0  0  0  0  0  0  0  0
   60.1950   29.5970   47.3450 H   0  0  0  0  0  0  0  0  0  0  0  0
   61.5068   31.5881   46.3121 H   0  0  0  0  0  0  0  0  0  0  0  0
   63.2331   32.7170   47.7181 H   0  0  0  0  0  0  0  0  0  0  0  0
   60.1156   34.7778   49.8981 H   0  0  0  0  0  0  0  0  0  0  0  0
   58.3856   33.6506   48.4968 H   0  0  0  0  0  0  0  0  0  0  0  0
   57.5047   34.3673   46.6791 H   0  0  0  0  0  0  0  0  0  0  0  0
   58.4076   34.4154   45.1270 H   0  0  0  0  0  0  0  0  0  0  0  0
   56.6370   34.1131   45.1270 H   0  0  0  0  0  0  0  0  0  0  0  0
   59.1164   27.8277   43.3443 H   0  0  0  0  0  0  0  0  0  0  0  0
   59.1382   26.4494   42.1926 H   0  0  0  0  0  0  0  0  0  0  0  0
   57.7572   27.5980   42.1926 H   0  0  0  0  0  0  0  0  0  0  0  0
   57.5783   24.5523   42.4668 H   0  0  0  0  0  0  0  0  0  0  0  0
  1  2  1  0
  2  3  2  0
  3  4  1  0
  4  5  2  0
  5  6  1  0
  6  7  1  0
  7  8  2  0
  8  9  1  0
  9 10  2  0
 10 11  1  0
 11 12  2  0
 12 13  1  0
 13 14  2  0
 14 15  1  0
 14 16  1  0
 16 17  2  0
 10 18  1  0
 18 19  1  0
 18 20  1  0
 20 21  2  0
 21 22  1  0
 22 23  2  0
  5 24  1  0
 24 25  1  0
 24 26  2  0
 26  2  1  0
 22  6  1  0
 21  9  1  0
 17 11  1  0
  1 27  1  0
  1 28  1  0
  1 29  1  0
  3 30  1  0
  4 31  1  0
  7 32  1  0
  8 33  1  0
 12 34  1  0
 13 35  1  0
 16 36  1  0
 17 37  1  0
 19 38  1  0
 19 39  1  0
 19 40  1  0
 25 41  1  0
 25 42  1  0
 25 43  1  0
 26 44  1  0
M  CHG  1   8   1
M  END
>  <UniqueID>  (44) 
42

>  <SMILES>  (44) 
Cc1ccc(-n2c[nH+]c3c(-c4ccc(Cl)cc4)n(C)nc3c2=O)c(C)c1

>  <Energy>  (44) 
102.2340946877802

>  <Genealogy>  (44) 
Cc1ccc(-n2c[nH+]c3c(-c4ccc(Cl)cc4)n(C)nc3c2=O)c(C)c1 (protonated)
Cc1ccc(-n2c[nH+]c3c(-c4ccc(Cl)cc4)n(C)nc3c2=O)c(C)c1 (3D coordinates assigned)
Cc1ccc(-n2c[nH+]c3c(-c4ccc(Cl)cc4)n(C)nc3c2=O)c(C)c1 (optimized conformer: 102.2340946877802 kcal/mol)

>  <smiles>  (44) 
Cc1ccc(-n2cnc3c(-c4ccc(Cl)cc4)n(C)nc3c2=O)c(C)c1

>  <score_type>  (44) 
oracle

>  <origin>  (44) 
adg

>  <m_score__min__energy>  (44) 
-6.7199999999999998

>  <m_primary>  (44) 
energy

$$$$
44:0
     RDKit          3D

 53 55  0  0  1  0  0  0  0  0999 V2000
   63.7930   34.0390   50.8720 C   0  0  0  0  0  0  0  0  0  0  0  0
   64.8410   33.0870   50.3430 C   0  0  0  0  0  0  0  0  0  0  0  0
   64.8090   33.0650   48.8940 N   0  0  0  0  0  0  0  0  0  0  0  0
   63.7150   33.0180   48.2180 C   0  0  0  0  0  0  0  0  0  0  0  0
   63.4950   33.8850   47.2130 N   0  0  0  0  0  0  0  0  0  0  0  0
   62.3510   33.8390   46.5050 C   0  0  0  0  0  0  0  0  0  0  0  0
   61.3690   32.9500   46.7410 N   0  0  0  0  0  0  0  0  0  0  0  0
   61.5540   32.0700   47.7370 C   0  0  0  0  0  0  0  0  0  0  0  0
   62.7200   32.0990   48.4760 C   0  0  0  0  0  0  0  0  0  0  0  0
   62.6000   31.1120   49.3790 N   0  0  0  0  0  0  0  0  0  0  0  0
   61.4230   30.4820   49.2290 C   0  0  0  0  0  0  0  0  0  0  0  0
   60.7610   31.0730   48.2050 N   0  0  0  0  0  0  0  0  0  0  0  0
   59.4600   30.6480   47.7710 C   0  0  2  0  0  0  0  0  0  0  0  0
   59.5430   29.2470   47.5850 O   0  0  0  0  0  0  0  0  0  0  0  0
   58.3500   29.0170   46.9390 C   0  0  2  0  0  0  0  0  0  0  0  0
   58.1430   27.6000   46.4990 C   0  0  0  0  0  0  0  0  0  0  0  0
   56.9440   27.0170   46.9240 O   0  0  0  0  0  0  0  0  0  0  0  0
   56.2710   26.2140   46.0170 C   0  0  0  0  0  0  0  0  0  0  0  0
   57.0620   25.3790   45.0670 C   0  0  0  0  0  0  0  0  0  0  0  0
   54.9930   26.1940   45.9960 O   0  0  0  0  0  0  0  0  0  0  0  0
   58.4550   29.9830   45.7810 C   0  0  1  0  0  0  0  0  0  0  0  0
   57.1690   30.1510   45.2600 O   0  0  0  0  0  0  0  0  0  0  0  0
   56.9020   30.5090   43.9470 C   0  0  0  0  0  0  0  0  0  0  0  0
   57.7380   31.5180   43.2370 C   0  0  0  0  0  0  0  0  0  0  0  0
   55.9510   30.0060   43.2940 O   0  0  0  0  0  0  0  0  0  0  0  0
   58.9700   31.2270   46.5140 C   0  0  1  0  0  0  0  0  0  0  0  0
   57.8000   32.0040   46.7500 O   0  0  0  0  0  0  0  0  0  0  0  0
   57.6250   33.3050   46.3700 C   0  0  0  0  0  0  0  0  0  0  0  0
   58.5490   34.3710   46.8270 C   0  0  0  0  0  0  0  0  0  0  0  0
   56.6600   33.5950   45.6180 O   0  0  0  0  0  0  0  0  0  0  0  0
   63.8074   34.0259   51.9718 H   0  0  0  0  0  0  0  0  0  0  0  0
   64.0083   35.0568   50.5146 H   0  0  0  0  0  0  0  0  0  0  0  0
   62.8005   33.7272   50.5146 H   0  0  0  0  0  0  0  0  0  0  0  0
   65.8349   33.4166   50.6799 H   0  0  0  0  0  0  0  0  0  0  0  0
   64.6330   32.0758   50.7228 H   0  0  0  0  0  0  0  0  0  0  0  0
   64.2210   34.5940   46.9860 H   0  0  0  0  0  0  0  0  0  0  0  0
   62.2118   34.5660   45.6913 H   0  0  0  0  0  0  0  0  0  0  0  0
   61.0606   29.6358   49.8311 H   0  0  0  0  0  0  0  0  0  0  0  0
   58.7506   30.9844   48.5415 H   0  0  0  0  0  0  0  0  0  0  0  0
   57.4742   29.1703   47.5866 H   0  0  0  0  0  0  0  0  0  0  0  0
   58.1619   27.5781   45.3994 H   0  0  0  0  0  0  0  0  0  0  0  0
   58.9504   27.0137   46.9620 H   0  0  0  0  0  0  0  0  0  0  0  0
   57.7106   24.6943   45.6331 H   0  0  0  0  0  0  0  0  0  0  0  0
   56.3773   24.7958   44.4337 H   0  0  0  0  0  0  0  0  0  0  0  0
   57.6814   26.0312   44.4337 H   0  0  0  0  0  0  0  0  0  0  0  0
   59.0924   29.6976   44.9312 H   0  0  0  0  0  0  0  0  0  0  0  0
   58.2589   32.1467   43.9742 H   0  0  0  0  0  0  0  0  0  0  0  0
   58.4777   31.0030   42.6064 H   0  0  0  0  0  0  0  0  0  0  0  0
   57.0945   32.1490   42.6064 H   0  0  0  0  0  0  0  0  0  0  0  0
   59.7330   31.8386   46.0103 H   0  0  0  0  0  0  0  0  0  0  0  0
   58.5681   34.3931   47.9266 H   0  0  0  0  0  0  0  0  0  0  0  0
   59.5608   34.1671   46.4467 H   0  0  0  0  0  0  0  0  0  0  0  0
   58.2035   35.3436   46.4467 H   0  0  0  0  0  0  0  0  0  0  0  0
  1  2  1  0
  2  3  1  0
  3  4  2  0
  4  5  1  0
  5  6  1  0
  6  7  2  0
  7  8  1  0
  8  9  2  0
  9 10  1  0
 10 11  2  0
 11 12  1  0
 12 13  1  0
 13 14  1  0
 14 15  1  0
 15 16  1  0
 16 17  1  0
 17 18  1  0
 18 19  1  0
 18 20  2  0
 15 21  1  0
 21 22  1  0
 22 23  1  0
 23 24  1  0
 23 25  2  0
 21 26  1  0
 26 27  1  0
 27 28  1  0
 28 29  1  0
 28 30  2  0
  9  4  1  0
 26 13  1  0
 12  8  1  0
  1 31  1  0
  1 32  1  0
  1 33  1  0
  2 34  1  0
  2 35  1  0
  5 36  1  0
  6 37  1  0
 11 38  1  0
 13 39  1  1
 15 40  1  1
 16 41  1  0
 16 42  1  0
 19 43  1  0
 19 44  1  0
 19 45  1  0
 21 46  1  6
 24 47  1  0
 24 48  1  0
 24 49  1  0
 26 50  1  6
 29 51  1  0
 29 52  1  0
 29 53  1  0
M  END
>  <smiles>  (45) 
CCN=c1[nH]cnc2c1ncn2C1OC(COC(C)=O)C(OC(C)=O)C1OC(C)=O

>  <score_type>  (45) 
oracle

>  <origin>  (45) 
adg

>  <m_score__min__energy>  (45) 
-8.0399999999999991

>  <m_primary>  (45) 
energy

$$$$
45:0
     RDKit          3D

 44 45  0  0  0  0  0  0  0  0999 V2000
   55.9990   24.4500   44.6880 C   0  0  0  0  0  0  0  0  0  0  0  0
   54.9720   25.0660   45.6320 C   0  0  0  0  0  0  0  0  0  0  0  0
   55.3140   26.4160   45.9420 O   0  0  0  0  0  0  0  0  0  0  0  0
   56.6190   26.9170   46.1000 C   0  0  0  0  0  0  0  0  0  0  0  0
   57.6260   26.2020   46.7770 C   0  0  0  0  0  0  0  0  0  0  0  0
   58.9090   26.7390   46.9090 C   0  0  0  0  0  0  0  0  0  0  0  0
   59.2050   27.9940   46.3750 C   0  0  0  0  0  0  0  0  0  0  0  0
   58.2130   28.7260   45.7020 C   0  0  0  0  0  0  0  0  0  0  0  0
   58.4640   29.9930   45.1460 C   0  0  0  0  0  0  0  0  0  0  0  0
   59.6140   30.5050   45.2460 O   0  0  0  0  0  0  0  0  0  0  0  0
   57.4620   30.6680   44.4920 N   0  0  0  0  0  0  0  0  0  0  0  0
   57.7070   31.9680   43.8480 C   0  0  0  0  0  0  0  0  0  0  0  0
   57.7730   33.0570   44.8880 C   0  0  0  0  0  0  0  0  0  0  0  0
   56.9340   33.9470   44.8630 O   0  0  0  0  0  0  0  0  0  0  0  0
   58.8450   33.0800   45.8700 N   0  0  0  0  0  0  0  0  0  0  0  0
   59.7890   34.2010   45.6440 C   0  0  0  0  0  0  0  0  0  0  0  0
   59.6340   35.3060   46.6950 C   0  0  0  0  0  0  0  0  0  0  0  0
   58.3080   33.0550   47.2520 C   0  0  0  0  0  0  0  0  0  0  0  0
   58.9080   31.9690   48.1590 C   0  0  0  0  0  0  0  0  0  0  0  0
   56.2200   30.1050   44.3800 C   0  0  0  0  0  0  0  0  0  0  0  0
   55.9630   28.8850   44.9130 N   0  0  0  0  0  0  0  0  0  0  0  0
   56.9200   28.1820   45.5680 C   0  0  0  0  0  0  0  0  0  0  0  0
   56.7965   23.9716   45.2755 H   0  0  0  0  0  0  0  0  0  0  0  0
   55.5087   23.6968   44.0538 H   0  0  0  0  0  0  0  0  0  0  0  0
   56.4326   25.2372   44.0538 H   0  0  0  0  0  0  0  0  0  0  0  0
   53.9828   25.0459   45.1514 H   0  0  0  0  0  0  0  0  0  0  0  0
   54.9565   24.4832   46.5648 H   0  0  0  0  0  0  0  0  0  0  0  0
   57.4008   25.2139   47.2048 H   0  0  0  0  0  0  0  0  0  0  0  0
   59.6892   26.1702   47.4361 H   0  0  0  0  0  0  0  0  0  0  0  0
   60.2174   28.4108   46.4814 H   0  0  0  0  0  0  0  0  0  0  0  0
   58.6605   31.9291   43.3010 H   0  0  0  0  0  0  0  0  0  0  0  0
   56.8842   32.1852   43.1510 H   0  0  0  0  0  0  0  0  0  0  0  0
   59.3940   32.1940   45.7720 H   0  0  0  0  0  0  0  0  0  0  0  0
   60.8173   33.8128   45.6865 H   0  0  0  0  0  0  0  0  0  0  0  0
   59.5675   34.6371   44.6587 H   0  0  0  0  0  0  0  0  0  0  0  0
   59.6957   34.8661   47.7013 H   0  0  0  0  0  0  0  0  0  0  0  0
   60.4370   36.0472   46.5689 H   0  0  0  0  0  0  0  0  0  0  0  0
   58.6581   35.7976   46.5689 H   0  0  0  0  0  0  0  0  0  0  0  0
   58.5061   34.0337   47.7135 H   0  0  0  0  0  0  0  0  0  0  0  0
   57.2360   32.8252   47.1627 H   0  0  0  0  0  0  0  0  0  0  0  0
   58.7552   32.2456   49.2126 H   0  0  0  0  0  0  0  0  0  0  0  0
   58.4130   31.0077   47.9568 H   0  0  0  0  0  0  0  0  0  0  0  0
   59.9853   31.8764   47.9568 H   0  0  0  0  0  0  0  0  0  0  0  0
   55.4219   30.6476   43.8522 H   0  0  0  0  0  0  0  0  0  0  0  0
  1  2  1  0
  2  3  1  0
  3  4  1  0
  4  5  2  0
  5  6  1  0
  6  7  2  0
  7  8  1  0
  8  9  1  0
  9 10  2  0
  9 11  1  0
 11 12  1  0
 12 13  1  0
 13 14  2  0
 13 15  1  0
 15 16  1  0
 16 17  1  0
 15 18  1  0
 18 19  1  0
 11 20  1  0
 20 21  2  0
 21 22  1  0
 22  4  1  0
 22  8  2  0
  1 23  1  0
  1 24  1  0
  1 25  1  0
  2 26  1  0
  2 27  1  0
  5 28  1  0
  6 29  1  0
  7 30  1  0
 12 31  1  0
 12 32  1  0
 15 33  1  0
 16 34  1  0
 16 35  1  0
 17 36  1  0
 17 37  1  0
 17 38  1  0
 18 39  1  0
 18 40  1  0
 19 41  1  0
 19 42  1  0
 19 43  1  0
 20 44  1  0
M  CHG  1  15   1
M  END
>  <UniqueID>  (46) 
43

>  <SMILES>  (46) 
CCOc1cccc2c(=O)n(CC(=O)[NH+](CC)CC)cnc12

>  <Energy>  (46) 
46.98428241444832

>  <Genealogy>  (46) 
CCOc1cccc2c(=O)n(CC(=O)[NH+](CC)CC)cnc12 (protonated)
CCOc1cccc2c(=O)n(CC(=O)[NH+](CC)CC)cnc12 (3D coordinates assigned)
CCOc1cccc2c(=O)n(CC(=O)[NH+](CC)CC)cnc12 (optimized conformer: 46.98428241444832 kcal/mol)

>  <smiles>  (46) 
CCOc1cccc2c(=O)n(CC(=O)N(CC)CC)cnc12

>  <score_type>  (46) 
oracle

>  <origin>  (46) 
adg

>  <m_score__min__energy>  (46) 
-5.2199999999999998

>  <m_primary>  (46) 
energy

$$$$
46:0
     RDKit          3D

 42 44  0  0  0  0  0  0  0  0999 V2000
   58.1350   32.4010   49.3640 C   0  0  0  0  0  0  0  0  0  0  0  0
   58.8270   32.1460   48.1480 O   0  0  0  0  0  0  0  0  0  0  0  0
   58.9690   33.1270   47.1620 C   0  0  0  0  0  0  0  0  0  0  0  0
   59.5440   34.3700   47.5010 C   0  0  0  0  0  0  0  0  0  0  0  0
   59.9890   34.6070   48.8530 N   0  0  0  0  0  0  0  0  0  0  0  0
   61.0050   33.8090   49.5400 C   0  0  0  0  0  0  0  0  0  0  0  0
   61.9730   33.2370   48.5500 C   0  0  0  0  0  0  0  0  0  0  0  0
   62.0620   31.9050   48.1700 C   0  0  0  0  0  0  0  0  0  0  0  0
   63.0660   31.6680   47.2240 C   0  0  0  0  0  0  0  0  0  0  0  0
   63.7640   32.8110   46.8550 C   0  0  0  0  0  0  0  0  0  0  0  0
   63.1320   34.1160   47.7070 S   0  0  0  0  0  0  0  0  0  0  0  0
   59.6560   35.3640   46.5110 C   0  0  0  0  0  0  0  0  0  0  0  0
   59.2190   35.1210   45.2090 C   0  0  0  0  0  0  0  0  0  0  0  0
   58.6740   33.8840   44.8710 C   0  0  0  0  0  0  0  0  0  0  0  0
   58.5520   32.8740   45.8350 C   0  0  0  0  0  0  0  0  0  0  0  0
   58.0510   31.5820   45.4460 N   0  0  0  0  0  0  0  0  0  0  0  0
   57.4830   31.3770   44.1100 C   0  0  0  0  0  0  0  0  0  0  0  0
   56.2170   30.5020   44.1850 C   0  0  0  0  0  0  0  0  0  0  0  0
   56.2630   29.4370   45.2100 N   0  0  0  0  0  0  0  0  0  0  0  0
   57.6100   29.1740   45.7320 C   0  0  0  0  0  0  0  0  0  0  0  0
   58.1990   30.4420   46.3570 C   0  0  0  0  0  0  0  0  0  0  0  0
   58.7886   32.1601   50.2153 H   0  0  0  0  0  0  0  0  0  0  0  0
   57.8511   33.4628   49.4086 H   0  0  0  0  0  0  0  0  0  0  0  0
   57.2300   31.7773   49.4086 H   0  0  0  0  0  0  0  0  0  0  0  0
   59.5280   35.3590   49.4140 H   0  0  0  0  0  0  0  0  0  0  0  0
   61.5485   34.4480   50.2515 H   0  0  0  0  0  0  0  0  0  0  0  0
   60.5112   32.9846   50.0754 H   0  0  0  0  0  0  0  0  0  0  0  0
   61.4096   31.1156   48.5716 H   0  0  0  0  0  0  0  0  0  0  0  0
   63.2819   30.6712   46.8118 H   0  0  0  0  0  0  0  0  0  0  0  0
   64.5894   32.8550   46.1292 H   0  0  0  0  0  0  0  0  0  0  0  0
   60.0920   36.3411   46.7663 H   0  0  0  0  0  0  0  0  0  0  0  0
   59.3049   35.9088   44.4461 H   0  0  0  0  0  0  0  0  0  0  0  0
   58.3371   33.6988   43.8403 H   0  0  0  0  0  0  0  0  0  0  0  0
   57.2221   32.3530   43.6749 H   0  0  0  0  0  0  0  0  0  0  0  0
   58.2290   30.8668   43.4830 H   0  0  0  0  0  0  0  0  0  0  0  0
   55.3610   31.1559   44.4082 H   0  0  0  0  0  0  0  0  0  0  0  0
   56.1314   29.9946   43.2128 H   0  0  0  0  0  0  0  0  0  0  0  0
   55.6500   29.7130   46.0140 H   0  0  0  0  0  0  0  0  0  0  0  0
   57.5544   28.3854   46.4969 H   0  0  0  0  0  0  0  0  0  0  0  0
   58.2569   28.8522   44.9025 H   0  0  0  0  0  0  0  0  0  0  0  0
   57.6721   30.6599   47.2977 H   0  0  0  0  0  0  0  0  0  0  0  0
   59.2695   30.2784   46.5501 H   0  0  0  0  0  0  0  0  0  0  0  0
  1  2  1  0
  2  3  1  0
  3  4  2  0
  4  5  1  0
  5  6  1  0
  6  7  1  0
  7  8  2  0
  8  9  1  0
  9 10  2  0
 10 11  1  0
  4 12  1  0
 12 13  2  0
 13 14  1  0
 14 15  2  0
 15 16  1  0
 16 17  1  0
 17 18  1  0
 18 19  1  0
 19 20  1  0
 20 21  1  0
 15  3  1  0
 21 16  1  0
 11  7  1  0
  1 22  1  0
  1 23  1  0
  1 24  1  0
  5 25  1  0
  6 26  1  0
  6 27  1  0
  8 28  1  0
  9 29  1  0
 10 30  1  0
 12 31  1  0
 13 32  1  0
 14 33  1  0
 17 34  1  0
 17 35  1  0
 18 36  1  0
 18 37  1  0
 19 38  1  0
 20 39  1  0
 20 40  1  0
 21 41  1  0
 21 42  1  0
M  END
>  <UniqueID>  (47) 
44

>  <SMILES>  (47) 
COc1c(NCc2cccs2)cccc1N1CCNCC1

>  <Energy>  (47) 
82.076680445914

>  <Genealogy>  (47) 
COc1c(NCc2cccs2)cccc1N1CCNCC1 (3D coordinates assigned)
COc1c(NCc2cccs2)cccc1N1CCNCC1 (nonaromatic ring conformer: 82.076680445914 kcal/mol)

>  <smiles>  (47) 
COc1c(NCc2cccs2)cccc1N1CCNCC1

>  <score_type>  (47) 
oracle

>  <origin>  (47) 
adg

>  <m_score__min__energy>  (47) 
-7.4299999999999997

>  <m_primary>  (47) 
energy

$$$$
47:0
     RDKit          3D

 31 32  0  0  0  0  0  0  0  0999 V2000
   62.8430   33.1850   47.0740 C   0  0  0  0  0  0  0  0  0  0  0  0
   61.4790   32.9550   47.5590 N   0  0  0  0  0  0  0  0  0  0  0  0
   60.7760   34.0040   48.3030 C   0  0  0  0  0  0  0  0  0  0  0  0
   60.8480   31.6810   47.3030 C   0  0  0  0  0  0  0  0  0  0  0  0
   61.5040   30.7680   46.7270 O   0  0  0  0  0  0  0  0  0  0  0  0
   59.4330   31.4030   47.7480 C   0  0  0  0  0  0  0  0  0  0  0  0
   58.5460   31.1780   46.6010 N   0  0  0  0  0  0  0  0  0  0  0  0
   57.7660   32.0820   45.9420 C   0  0  0  0  0  0  0  0  0  0  0  0
   57.6420   33.5290   46.3100 C   0  0  0  0  0  0  0  0  0  0  0  0
   58.9050   34.5870   45.2920 Br  0  0  0  0  0  0  0  0  0  0  0  0
   57.1320   31.5570   44.8600 N   0  0  0  0  0  0  0  0  0  0  0  0
   57.5390   30.2740   44.8600 C   0  0  0  0  0  0  0  0  0  0  0  0
   57.2020   29.2800   43.9460 C   0  0  0  0  0  0  0  0  0  0  0  0
   57.7740   28.0060   44.1230 C   0  0  0  0  0  0  0  0  0  0  0  0
   58.6650   27.7640   45.1940 C   0  0  0  0  0  0  0  0  0  0  0  0
   58.9870   28.7930   46.0980 C   0  0  0  0  0  0  0  0  0  0  0  0
   58.3920   30.0410   45.8980 C   0  0  0  0  0  0  0  0  0  0  0  0
   63.5226   33.2996   47.9314 H   0  0  0  0  0  0  0  0  0  0  0  0
   63.1644   32.3284   46.4633 H   0  0  0  0  0  0  0  0  0  0  0  0
   62.8657   34.0996   46.4633 H   0  0  0  0  0  0  0  0  0  0  0  0
   60.8932   33.8291   49.3827 H   0  0  0  0  0  0  0  0  0  0  0  0
   61.1997   34.9851   48.0424 H   0  0  0  0  0  0  0  0  0  0  0  0
   59.7075   33.9851   48.0424 H   0  0  0  0  0  0  0  0  0  0  0  0
   59.4278   30.5068   48.3858 H   0  0  0  0  0  0  0  0  0  0  0  0
   59.0660   32.2789   48.3031 H   0  0  0  0  0  0  0  0  0  0  0  0
   56.6203   33.8733   46.0920 H   0  0  0  0  0  0  0  0  0  0  0  0
   57.8565   33.6468   47.3824 H   0  0  0  0  0  0  0  0  0  0  0  0
   56.5121   29.4830   43.1136 H   0  0  0  0  0  0  0  0  0  0  0  0
   57.5263   27.1937   43.4238 H   0  0  0  0  0  0  0  0  0  0  0  0
   59.1089   26.7656   45.3211 H   0  0  0  0  0  0  0  0  0  0  0  0
   59.6826   28.6209   46.9326 H   0  0  0  0  0  0  0  0  0  0  0  0
  1  2  1  0
  2  3  1  0
  2  4  1  0
  4  5  2  0
  4  6  1  0
  6  7  1  0
  7  8  1  0
  8  9  1  0
  9 10  1  0
  8 11  2  0
 11 12  1  0
 12 13  2  0
 13 14  1  0
 14 15  2  0
 15 16  1  0
 16 17  2  0
 17  7  1  0
 17 12  1  0
  1 18  1  0
  1 19  1  0
  1 20  1  0
  3 21  1  0
  3 22  1  0
  3 23  1  0
  6 24  1  0
  6 25  1  0
  9 26  1  0
  9 27  1  0
 13 28  1  0
 14 29  1  0
 15 30  1  0
 16 31  1  0
M  END
>  <UniqueID>  (48) 
45

>  <SMILES>  (48) 
CN(C)C(=O)Cn1c(CBr)nc2ccccc21

>  <Energy>  (48) 
63.72656713341403

>  <Genealogy>  (48) 
CN(C)C(=O)Cn1c(CBr)nc2ccccc21 (3D coordinates assigned)
CN(C)C(=O)Cn1c(CBr)nc2ccccc21 (optimized conformer: 63.72656713341403 kcal/mol)

>  <smiles>  (48) 
CN(C)C(=O)Cn1c(CBr)nc2ccccc21

>  <score_type>  (48) 
oracle

>  <origin>  (48) 
adg

>  <m_score__min__energy>  (48) 
-6.0499999999999998

>  <m_primary>  (48) 
energy

$$$$
