0:0
     RDKit          3D

 49 51  0  0  0  0  0  0  0  0999 V2000
   63.7000   31.6530   47.4470 C   0  0  0  0  0  0  0  0  0  0  0  0
   63.4970   32.4590   48.6600 N   0  0  0  0  0  0  0  0  0  0  0  0
   64.7630   32.5810   49.4070 C   0  0  0  0  0  0  0  0  0  0  0  0
   62.9760   33.7670   48.3000 C   0  0  0  0  0  0  0  0  0  0  0  0
   63.7160   34.5880   47.7700 O   0  0  0  0  0  0  0  0  0  0  0  0
   61.5210   34.1580   48.5290 C   0  0  2  0  0  0  0  0  0  0  0  0
   61.0300   33.8430   49.9350 C   0  0  0  0  0  0  0  0  0  0  0  0
   61.9670   33.7200   50.9800 C   0  0  0  0  0  0  0  0  0  0  0  0
   61.5450   33.4570   52.2870 C   0  0  0  0  0  0  0  0  0  0  0  0
   60.1860   33.3220   52.5710 C   0  0  0  0  0  0  0  0  0  0  0  0
   59.2430   33.4600   51.5490 C   0  0  0  0  0  0  0  0  0  0  0  0
   59.6590   33.7240   50.2400 C   0  0  0  0  0  0  0  0  0  0  0  0
   60.5870   33.6420   47.4450 C   0  0  0  0  0  0  0  0  0  0  0  0
   59.6970   34.4800   46.7510 C   0  0  0  0  0  0  0  0  0  0  0  0
   58.8330   33.9540   45.7910 C   0  0  0  0  0  0  0  0  0  0  0  0
   58.8520   32.5740   45.5120 C   0  0  0  0  0  0  0  0  0  0  0  0
   57.9720   31.9860   44.5210 N   0  0  0  0  0  0  0  0  0  0  0  0
   57.6920   32.7100   43.2690 C   0  0  0  0  0  0  0  0  0  0  0  0
   57.5010   31.7440   42.0780 C   0  0  0  0  0  0  0  0  0  0  0  0
   56.9320   30.4290   42.4330 N   0  0  0  0  0  0  0  0  0  0  0  0
   56.2100   30.4460   43.7080 C   0  0  0  0  0  0  0  0  0  0  0  0
   57.1640   30.8020   44.8500 C   0  0  0  0  0  0  0  0  0  0  0  0
   59.7180   31.7820   46.2040 N   0  0  0  0  0  0  0  0  0  0  0  0
   60.5660   32.2700   47.1470 C   0  0  0  0  0  0  0  0  0  0  0  0
   63.9596   30.6224   47.7307 H   0  0  0  0  0  0  0  0  0  0  0  0
   62.7752   31.6475   46.8514 H   0  0  0  0  0  0  0  0  0  0  0  0
   64.5171   32.0862   46.8514 H   0  0  0  0  0  0  0  0  0  0  0  0
   62.8170   31.9570   49.2760 H   0  0  0  0  0  0  0  0  0  0  0  0
   64.5549   32.5609   50.4870 H   0  0  0  0  0  0  0  0  0  0  0  0
   65.4253   31.7425   49.1456 H   0  0  0  0  0  0  0  0  0  0  0  0
   65.2530   33.5305   49.1456 H   0  0  0  0  0  0  0  0  0  0  0  0
   61.4962   35.2546   48.4460 H   0  0  0  0  0  0  0  0  0  0  0  0
   63.0401   33.8319   50.7658 H   0  0  0  0  0  0  0  0  0  0  0  0
   62.2866   33.3563   53.0932 H   0  0  0  0  0  0  0  0  0  0  0  0
   59.8569   33.1071   53.5984 H   0  0  0  0  0  0  0  0  0  0  0  0
   58.1710   33.3608   51.7745 H   0  0  0  0  0  0  0  0  0  0  0  0
   58.9104   33.8397   49.4423 H   0  0  0  0  0  0  0  0  0  0  0  0
   59.6819   35.5585   46.9667 H   0  0  0  0  0  0  0  0  0  0  0  0
   58.1382   34.6157   45.2530 H   0  0  0  0  0  0  0  0  0  0  0  0
   56.7741   33.3023   43.3978 H   0  0  0  0  0  0  0  0  0  0  0  0
   58.5531   33.3582   43.0489 H   0  0  0  0  0  0  0  0  0  0  0  0
   56.8274   32.2239   41.3527 H   0  0  0  0  0  0  0  0  0  0  0  0
   58.5051   31.5482   41.6739 H   0  0  0  0  0  0  0  0  0  0  0  0
   57.7090   29.7290   42.5020 H   0  0  0  0  0  0  0  0  0  0  0  0
   55.4052   31.1944   43.6600 H   0  0  0  0  0  0  0  0  0  0  0  0
   55.7844   29.4487   43.8931 H   0  0  0  0  0  0  0  0  0  0  0  0
   56.5764   31.0096   45.7564 H   0  0  0  0  0  0  0  0  0  0  0  0
   57.8432   29.9522   45.0131 H   0  0  0  0  0  0  0  0  0  0  0  0
   61.2411   31.5851   47.6809 H   0  0  0  0  0  0  0  0  0  0  0  0
  1  2  1  0
  2  3  1  0
  2  4  1  0
  4  5  2  0
  4  6  1  0
  6  7  1  0
  7  8  2  0
  8  9  1  0
  9 10  2  0
 10 11  1  0
 11 12  2  0
  6 13  1  0
 13 14  2  0
 14 15  1  0
 15 16  2  0
 16 17  1  0
 17 18  1  0
 18 19  1  0
 19 20  1  0
 20 21  1  0
 21 22  1  0
 16 23  1  0
 23 24  2  0
 12  7  1  0
 24 13  1  0
 22 17  1  0
  1 25  1  0
  1 26  1  0
  1 27  1  0
  2 28  1  0
  3 29  1  0
  3 30  1  0
  3 31  1  0
  6 32  1  1
  8 33  1  0
  9 34  1  0
 10 35  1  0
 11 36  1  0
 12 37  1  0
 14 38  1  0
 15 39  1  0
 18 40  1  0
 18 41  1  0
 19 42  1  0
 19 43  1  0
 20 44  1  0
 21 45  1  0
 21 46  1  0
 22 47  1  0
 22 48  1  0
 24 49  1  0
M  CHG  1   2   1
M  END
>  <UniqueID>  (1) 
1

>  <SMILES>  (1) 
C[NH+](C)C(=O)[C@H](c1ccccc1)c1ccc(N2CCNCC2)nc1

>  <Energy>  (1) 
61.208855394841805

>  <Genealogy>  (1) 
C[NH+](C)C(=O)C(c1ccccc1)c1ccc(N2CCNCC2)nc1 (protonated)
C[NH+](C)C(=O)[C@H](c1ccccc1)c1ccc(N2CCNCC2)nc1 (chirality)
C[NH+](C)C(=O)[C@H](c1ccccc1)c1ccc(N2CCNCC2)nc1 (3D coordinates assigned)
C[NH+](C)C(=O)[C@H](c1ccccc1)c1ccc(N2CCNCC2)nc1 (nonaromatic ring conformer: 61.208855394841805 kcal/mol)

>  <smiles>  (1) 
CN(C)C(=O)C(c1ccccc1)c1ccc(N2CCNCC2)nc1

>  <score_type>  (1) 
oracle

>  <origin>  (1) 
adg

>  <m_score__min__energy>  (1) 
-5.8200000000000003

>  <m_primary>  (1) 
energy

$$$$
1:0
     RDKit          3D

 25 26  0  0  0  0  0  0  0  0999 V2000
   60.1370   29.6380   53.3760 C   0  0  0  0  0  0  0  0  0  0  0  0
   59.2890   28.3710   53.3910 C   0  0  0  0  0  0  0  0  0  0  0  0
   57.8680   28.7030   53.4730 N   0  0  0  0  0  0  0  0  0  0  0  0
   57.1750   29.3870   52.4170 C   0  0  0  0  0  0  0  0  0  0  0  0
   57.7840   29.6830   51.3530 O   0  0  0  0  0  0  0  0  0  0  0  0
   55.7520   29.7470   52.5570 C   0  0  0  0  0  0  0  0  0  0  0  0
   55.1090   30.7730   51.8600 C   0  0  0  0  0  0  0  0  0  0  0  0
   53.7560   30.8870   52.2010 C   0  0  0  0  0  0  0  0  0  0  0  0
   52.8490   31.8120   51.6780 C   0  0  0  0  0  0  0  0  0  0  0  0
   51.5190   31.7890   52.1340 C   0  0  0  0  0  0  0  0  0  0  0  0
   50.5990   32.6990   51.6290 O   0  0  0  0  0  0  0  0  0  0  0  0
   51.1140   30.8460   53.1000 C   0  0  0  0  0  0  0  0  0  0  0  0
   52.0330   29.9210   53.6190 C   0  0  0  0  0  0  0  0  0  0  0  0
   53.3440   29.9650   53.1510 C   0  0  0  0  0  0  0  0  0  0  0  0
   54.6400   28.9930   53.5900 S   0  0  0  0  0  0  0  0  0  0  0  0
   60.3466   29.9512   54.4094 H   0  0  0  0  0  0  0  0  0  0  0  0
   61.0845   29.4389   52.8539 H   0  0  0  0  0  0  0  0  0  0  0  0
   59.5917   30.4380   52.8539 H   0  0  0  0  0  0  0  0  0  0  0  0
   59.4743   27.8012   52.4685 H   0  0  0  0  0  0  0  0  0  0  0  0
   59.5640   27.7711   54.2710 H   0  0  0  0  0  0  0  0  0  0  0  0
   57.3400   28.3760   54.3120 H   0  0  0  0  0  0  0  0  0  0  0  0
   55.6103   31.4196   51.1247 H   0  0  0  0  0  0  0  0  0  0  0  0
   53.1695   32.5451   50.9231 H   0  0  0  0  0  0  0  0  0  0  0  0
   50.0710   30.8350   53.4493 H   0  0  0  0  0  0  0  0  0  0  0  0
   51.7265   29.1821   54.3741 H   0  0  0  0  0  0  0  0  0  0  0  0
  1  2  1  0
  2  3  1  0
  3  4  1  0
  4  5  2  0
  4  6  1  0
  6  7  2  0
  7  8  1  0
  8  9  2  0
  9 10  1  0
 10 11  1  0
 10 12  2  0
 12 13  1  0
 13 14  2  0
 14 15  1  0
 15  6  1  0
 14  8  1  0
  1 16  1  0
  1 17  1  0
  1 18  1  0
  2 19  1  0
  2 20  1  0
  3 21  1  0
  7 22  1  0
  9 23  1  0
 12 24  1  0
 13 25  1  0
M  CHG  1  11  -1
M  END
>  <UniqueID>  (2) 
2

>  <SMILES>  (2) 
CCNC(=O)c1cc2cc([O-])ccc2s1

>  <Energy>  (2) 
50.88744361956271

>  <Genealogy>  (2) 
CCNC(=O)c1cc2cc([O-])ccc2s1 (protonated)
CCNC(=O)c1cc2cc([O-])ccc2s1 (3D coordinates assigned)
CCNC(=O)c1cc2cc([O-])ccc2s1 (optimized conformer: 50.88744361956271 kcal/mol)

>  <smiles>  (2) 
CCNC(=O)c1cc2cc(O)ccc2s1

>  <score_type>  (2) 
oracle

>  <origin>  (2) 
adg

>  <m_score__min__energy>  (2) 
-8.9800000000000004

>  <m_primary>  (2) 
energy

$$$$
2:0
     RDKit          3D

 24 26  0  0  0  0  0  0  0  0999 V2000
   57.0370   31.0160   42.4860 C   0  0  0  0  0  0  0  0  0  0  0  0
   56.2820   30.1220   43.2430 C   0  0  0  0  0  0  0  0  0  0  0  0
   56.2590   30.2430   44.5950 N   0  0  0  0  0  0  0  0  0  0  0  0
   56.9360   31.2090   45.2190 N   0  0  0  0  0  0  0  0  0  0  0  0
   57.6730   32.1250   44.5300 C   0  0  0  0  0  0  0  0  0  0  0  0
   58.4100   33.1280   45.2460 N   0  0  0  0  0  0  0  0  0  0  0  0
   58.9470   34.2430   44.6930 C   0  0  0  0  0  0  0  0  0  0  0  0
   59.5890   35.0090   45.6580 C   0  0  0  0  0  0  0  0  0  0  0  0
   59.4410   34.3110   46.8360 C   0  0  0  0  0  0  0  0  0  0  0  0
   59.9190   34.5940   48.1140 C   0  0  0  0  0  0  0  0  0  0  0  0
   59.6590   33.6600   49.1330 C   0  0  0  0  0  0  0  0  0  0  0  0
   58.9510   32.4730   48.8510 C   0  0  0  0  0  0  0  0  0  0  0  0
   58.4830   32.2120   47.5500 C   0  0  0  0  0  0  0  0  0  0  0  0
   58.7280   33.1700   46.5590 C   0  0  0  0  0  0  0  0  0  0  0  0
   57.7470   32.0240   43.1360 C   0  0  0  0  0  0  0  0  0  0  0  0
   57.0721   30.9273   41.3901 H   0  0  0  0  0  0  0  0  0  0  0  0
   55.7088   29.3240   42.7485 H   0  0  0  0  0  0  0  0  0  0  0  0
   58.8832   34.5053   43.6266 H   0  0  0  0  0  0  0  0  0  0  0  0
   60.1058   35.9690   45.5122 H   0  0  0  0  0  0  0  0  0  0  0  0
   60.4810   35.5171   48.3191 H   0  0  0  0  0  0  0  0  0  0  0  0
   60.0101   33.8565   50.1568 H   0  0  0  0  0  0  0  0  0  0  0  0
   58.7633   31.7456   49.6546 H   0  0  0  0  0  0  0  0  0  0  0  0
   57.9410   31.2832   47.3185 H   0  0  0  0  0  0  0  0  0  0  0  0
   58.3593   32.7329   42.5593 H   0  0  0  0  0  0  0  0  0  0  0  0
  1  2  2  0
  2  3  1  0
  3  4  2  0
  4  5  1  0
  5  6  1  0
  6  7  1  0
  7  8  2  0
  8  9  1  0
  9 10  2  0
 10 11  1  0
 11 12  2  0
 12 13  1  0
 13 14  2  0
  5 15  2  0
 15  1  1  0
 14  6  1  0
 14  9  1  0
  1 16  1  0
  2 17  1  0
  7 18  1  0
  8 19  1  0
 10 20  1  0
 11 21  1  0
 12 22  1  0
 13 23  1  0
 15 24  1  0
M  END
>  <UniqueID>  (3) 
3

>  <SMILES>  (3) 
c1cnnc(-n2ccc3ccccc32)c1

>  <Energy>  (3) 
66.86912734493421

>  <Genealogy>  (3) 
c1cnnc(-n2ccc3ccccc32)c1 (3D coordinates assigned)
c1cnnc(-n2ccc3ccccc32)c1 (optimized conformer: 66.86912734493421 kcal/mol)

>  <smiles>  (3) 
c1cnnc(-n2ccc3ccccc32)c1

>  <score_type>  (3) 
oracle

>  <origin>  (3) 
adg

>  <m_score__min__energy>  (3) 
-7.2000000000000002

>  <m_primary>  (3) 
energy

$$$$
3:0
     RDKit          3D

 45 49  0  0  0  0  0  0  0  0999 V2000
   57.3690   29.1020   43.3050 O   0  0  0  0  0  0  0  0  0  0  0  0
   57.2600   29.1480   44.8040 S   0  0  0  0  0  0  0  0  0  0  0  0
   55.8230   29.3690   45.1880 O   0  0  0  0  0  0  0  0  0  0  0  0
   57.8300   27.6570   45.4830 N   0  0  0  0  0  0  0  0  0  0  0  0
   57.0580   26.6900   45.8760 C   0  0  0  0  0  0  0  0  0  0  0  0
   57.4420   25.5010   46.4700 C   0  0  0  0  0  0  0  0  0  0  0  0
   56.2420   24.8460   46.6790 C   0  0  0  0  0  0  0  0  0  0  0  0
   55.2610   25.6040   46.2380 O   0  0  0  0  0  0  0  0  0  0  0  0
   55.7220   26.7170   45.7500 N   0  0  0  0  0  0  0  0  0  0  0  0
   58.2430   30.4680   45.4270 C   0  0  0  0  0  0  0  0  0  0  0  0
   59.2280   30.2190   46.3890 C   0  0  0  0  0  0  0  0  0  0  0  0
   60.0030   31.2640   46.8970 C   0  0  0  0  0  0  0  0  0  0  0  0
   59.7910   32.5900   46.4640 C   0  0  0  0  0  0  0  0  0  0  0  0
   60.5440   33.6880   46.9550 C   0  0  0  0  0  0  0  0  0  0  0  0
   61.5310   33.5720   48.0450 C   0  0  0  0  0  0  0  0  0  0  0  0
   61.6170   34.3780   49.1750 C   0  0  0  0  0  0  0  0  0  0  0  0
   62.7320   34.1010   49.9760 C   0  0  0  0  0  0  0  0  0  0  0  0
   63.5510   33.0900   49.4700 C   0  0  0  0  0  0  0  0  0  0  0  0
   64.8100   32.5790   50.0700 C   0  0  0  0  0  0  0  0  0  0  0  0
   64.8570   31.2880   50.6330 C   0  0  0  0  0  0  0  0  0  0  0  0
   66.0400   30.8020   51.1990 C   0  0  0  0  0  0  0  0  0  0  0  0
   66.0720   29.5560   51.7340 F   0  0  0  0  0  0  0  0  0  0  0  0
   67.1880   31.5970   51.2160 C   0  0  0  0  0  0  0  0  0  0  0  0
   67.1550   32.8800   50.6680 C   0  0  0  0  0  0  0  0  0  0  0  0
   68.2680   33.6530   50.6900 F   0  0  0  0  0  0  0  0  0  0  0  0
   65.9750   33.3710   50.0980 C   0  0  0  0  0  0  0  0  0  0  0  0
   62.8720   32.5590   48.0190 S   0  0  0  0  0  0  0  0  0  0  0  0
   60.3490   34.9240   46.4170 N   0  0  0  0  0  0  0  0  0  0  0  0
   59.4300   35.1620   45.4480 C   0  0  0  0  0  0  0  0  0  0  0  0
   58.6340   34.1270   44.9670 C   0  0  0  0  0  0  0  0  0  0  0  0
   58.8120   32.8310   45.4660 C   0  0  0  0  0  0  0  0  0  0  0  0
   58.0380   31.7720   44.9670 C   0  0  0  0  0  0  0  0  0  0  0  0
   58.4579   25.1588   46.7168 H   0  0  0  0  0  0  0  0  0  0  0  0
   56.1265   23.8534   47.1388 H   0  0  0  0  0  0  0  0  0  0  0  0
   55.1410   27.4810   45.3410 H   0  0  0  0  0  0  0  0  0  0  0  0
   59.3933   29.1924   46.7479 H   0  0  0  0  0  0  0  0  0  0  0  0
   60.7851   31.0515   47.6408 H   0  0  0  0  0  0  0  0  0  0  0  0
   60.8801   35.1582   49.4165 H   0  0  0  0  0  0  0  0  0  0  0  0
   62.9428   34.6309   50.9166 H   0  0  0  0  0  0  0  0  0  0  0  0
   63.9558   30.6573   50.6273 H   0  0  0  0  0  0  0  0  0  0  0  0
   68.1175   31.2122   51.6610 H   0  0  0  0  0  0  0  0  0  0  0  0
   65.9568   34.3835   49.6683 H   0  0  0  0  0  0  0  0  0  0  0  0
   59.3136   36.1772   45.0409 H   0  0  0  0  0  0  0  0  0  0  0  0
   57.8705   34.3255   44.2004 H   0  0  0  0  0  0  0  0  0  0  0  0
   57.2653   31.9693   44.2093 H   0  0  0  0  0  0  0  0  0  0  0  0
  1  2  2  0
  2  3  2  0
  2  4  1  0
  4  5  2  3
  5  6  1  0
  6  7  2  0
  7  8  1  0
  8  9  1  0
  2 10  1  0
 10 11  2  0
 11 12  1  0
 12 13  2  0
 13 14  1  0
 14 15  1  0
 15 16  2  0
 16 17  1  0
 17 18  2  0
 18 19  1  0
 19 20  2  0
 20 21  1  0
 21 22  1  0
 21 23  2  0
 23 24  1  0
 24 25  1  0
 24 26  2  0
 18 27  1  0
 14 28  2  0
 28 29  1  0
 29 30  2  0
 30 31  1  0
 31 32  2  0
  9  5  1  0
 32 10  1  0
 31 13  1  0
 27 15  1  0
 26 19  1  0
  6 33  1  0
  7 34  1  0
  9 35  1  0
 11 36  1  0
 12 37  1  0
 16 38  1  0
 17 39  1  0
 20 40  1  0
 23 41  1  0
 26 42  1  0
 29 43  1  0
 30 44  1  0
 32 45  1  0
M  END
>  <UniqueID>  (4) 
4

>  <SMILES>  (4) 
O=S(=O)(N=c1cco[nH]1)c1ccc2c(-c3ccc(-c4cc(F)cc(F)c4)s3)nccc2c1

>  <Energy>  (4) 
127.5263956278105

>  <Genealogy>  (4) 
O=S(=O)(N=c1cco[nH]1)c1ccc2c(-c3ccc(-c4cc(F)cc(F)c4)s3)nccc2c1 (3D coordinates assigned)
O=S(=O)(N=c1cco[nH]1)c1ccc2c(-c3ccc(-c4cc(F)cc(F)c4)s3)nccc2c1 (optimized conformer: 127.5263956278105 kcal/mol)

>  <smiles>  (4) 
O=S(=O)(N=c1cco[nH]1)c1ccc2c(-c3ccc(-c4cc(F)cc(F)c4)s3)nccc2c1

>  <score_type>  (4) 
oracle

>  <origin>  (4) 
adg

>  <m_score__min__energy>  (4) 
-11.57

>  <m_primary>  (4) 
energy

$$$$
4:0
     RDKit          3D

 48 50  0  0  0  0  0  0  0  0999 V2000
   58.8507   35.6030   46.5390 H   0  0  0  0  0  0  0  0  0  0  0  0
   59.0830   34.6070   46.1340 C   0  0  0  0  0  0  0  0  0  0  0  0
   57.9650   33.6940   45.8170 C   0  0  0  0  0  0  0  0  0  0  0  0
   56.8310   34.1980   45.5930 O   0  0  0  0  0  0  0  0  0  0  0  0
   58.1280   32.2230   45.7220 C   0  0  0  0  0  0  0  0  0  0  0  0
   57.8360   31.5670   44.5150 C   0  0  0  0  0  0  0  0  0  0  0  0
   57.5085   32.1519   43.6429 H   0  0  0  0  0  0  0  0  0  0  0  0
   57.9570   30.1820   44.4110 C   0  0  0  0  0  0  0  0  0  0  0  0
   57.7343   29.6836   43.4560 H   0  0  0  0  0  0  0  0  0  0  0  0
   58.3610   29.4210   45.5170 C   0  0  0  0  0  0  0  0  0  0  0  0
   58.4880   27.9900   45.4150 N   0  0  0  0  0  0  0  0  0  0  0  0
   58.2260   27.3210   44.1370 C   0  0  0  0  0  0  0  0  0  0  0  0
   57.4486   27.8724   43.5878 H   0  0  0  0  0  0  0  0  0  0  0  0
   59.1505   27.2963   43.5414 H   0  0  0  0  0  0  0  0  0  0  0  0
   57.7490   25.8890   44.3950 C   0  0  0  0  0  0  0  0  0  0  0  0
   56.7590   25.9196   44.8736 H   0  0  0  0  0  0  0  0  0  0  0  0
   57.6939   25.3577   43.4334 H   0  0  0  0  0  0  0  0  0  0  0  0
   58.6520   25.2020   45.2410 O   0  0  0  0  0  0  0  0  0  0  0  0
   58.6680   25.8100   46.5190 C   0  0  0  0  0  0  0  0  0  0  0  0
   57.6425   25.8418   46.9157 H   0  0  0  0  0  0  0  0  0  0  0  0
   59.3178   25.2192   47.1814 H   0  0  0  0  0  0  0  0  0  0  0  0
   59.2190   27.2370   46.4380 C   0  0  0  0  0  0  0  0  0  0  0  0
   59.0980   27.7318   47.4129 H   0  0  0  0  0  0  0  0  0  0  0  0
   60.2859   27.2017   46.1724 H   0  0  0  0  0  0  0  0  0  0  0  0
   58.6510   30.0700   46.7260 C   0  0  0  0  0  0  0  0  0  0  0  0
   58.9773   29.4790   47.5945 H   0  0  0  0  0  0  0  0  0  0  0  0
   58.5300   31.4690   46.8430 C   0  0  0  0  0  0  0  0  0  0  0  0
   58.8220   32.1440   48.0430 O   0  0  0  0  0  0  0  0  0  0  0  0
   59.1910   31.5340   49.2800 C   0  0  0  0  0  0  0  0  0  0  0  0
   60.2313   31.8013   49.5176 H   0  0  0  0  0  0  0  0  0  0  0  0
   59.0889   30.4434   49.1792 H   0  0  0  0  0  0  0  0  0  0  0  0
   58.2830   32.0070   50.4100 C   0  0  0  0  0  0  0  0  0  0  0  0
   58.7463   31.7657   51.3781 H   0  0  0  0  0  0  0  0  0  0  0  0
   58.1388   33.0948   50.3336 H   0  0  0  0  0  0  0  0  0  0  0  0
   57.3089   31.5017   50.3336 H   0  0  0  0  0  0  0  0  0  0  0  0
   60.3690   34.2730   45.9490 C   0  0  0  0  0  0  0  0  0  0  0  0
   60.7597   34.2728   44.9207 H   0  0  0  0  0  0  0  0  0  0  0  0
   61.2960   33.9040   47.0460 C   0  0  0  0  0  0  0  0  0  0  0  0
   62.4550   33.1780   46.7350 C   0  0  0  0  0  0  0  0  0  0  0  0
   62.6628   32.8996   45.6913 H   0  0  0  0  0  0  0  0  0  0  0  0
   63.3460   32.8070   47.7430 C   0  0  0  0  0  0  0  0  0  0  0  0
   64.2584   32.2440   47.4970 H   0  0  0  0  0  0  0  0  0  0  0  0
   63.0700   33.1560   49.0650 C   0  0  0  0  0  0  0  0  0  0  0  0
   64.1810   32.6930   50.3420 Cl  0  0  0  0  0  0  0  0  0  0  0  0
   61.9360   33.8480   49.3630 N   0  0  0  0  0  0  0  0  0  0  0  0
   61.7320   34.0930   50.3580 H   0  0  0  0  0  0  0  0  0  0  0  0
   61.0520   34.2210   48.3970 C   0  0  0  0  0  0  0  0  0  0  0  0
   60.1416   34.7733   48.6730 H   0  0  0  0  0  0  0  0  0  0  0  0
  1  2  1  0
  2  3  1  0
  3  4  2  0
  3  5  1  0
  5  6  2  0
  6  7  1  0
  6  8  1  0
  8  9  1  0
  8 10  2  0
 10 11  1  0
 11 12  1  0
 12 13  1  0
 12 14  1  0
 12 15  1  0
 15 16  1  0
 15 17  1  0
 15 18  1  0
 18 19  1  0
 19 20  1  0
 19 21  1  0
 19 22  1  0
 22 23  1  0
 22 24  1  0
 10 25  1  0
 25 26  1  0
 25 27  2  0
 27 28  1  0
 28 29  1  0
 29 30  1  0
 29 31  1  0
 29 32  1  0
 32 33  1  0
 32 34  1  0
 32 35  1  0
  2 36  2  0
 36 37  1  0
 36 38  1  0
 38 39  2  0
 39 40  1  0
 39 41  1  0
 41 42  1  0
 41 43  2  0
 43 44  1  0
 43 45  1  0
 45 46  1  0
 45 47  2  0
 47 48  1  0
 27  5  1  0
 47 38  1  0
 22 11  1  0
M  CHG  1  45   1
M  END
>  <UniqueID>  (5) 
5

>  <SMILES>  (5) 
CCOc1cc(N2CCOCC2)ccc1C(=O)/C=C/c1ccc(Cl)[nH+]c1

>  <Energy>  (5) 
60.20604762589843

>  <Genealogy>  (5) 
CCOc1cc(N2CCOCC2)ccc1C(=O)C=Cc1ccc(Cl)[nH+]c1 (protonated)
CCOc1cc(N2CCOCC2)ccc1C(=O)/C=C/c1ccc(Cl)[nH+]c1 (cis-trans isomerization)
CCOc1cc(N2CCOCC2)ccc1C(=O)/C=C/c1ccc(Cl)[nH+]c1 (3D coordinates assigned)
CCOc1cc(N2CCOCC2)ccc1C(=O)/C=C/c1ccc(Cl)[nH+]c1 (nonaromatic ring conformer: 60.20604762589843 kcal/mol)

>  <smiles>  (5) 
CCOc1cc(N2CCOCC2)ccc1C(=O)C=Cc1ccc(Cl)nc1

>  <score_type>  (5) 
oracle

>  <origin>  (5) 
adg

>  <m_score__min__energy>  (5) 
-6.7800000000000002

>  <m_primary>  (5) 
energy

$$$$
5:0
     RDKit          3D

 49 52  0  0  0  0  0  0  0  0999 V2000
   57.7060   27.3140   44.3490 C   0  0  0  0  0  0  0  0  0  0  0  0
   59.0520   27.1310   44.9260 N   0  0  0  0  0  0  0  0  0  0  0  0
   59.9610   28.2590   44.5620 C   0  0  0  0  0  0  0  0  0  0  0  0
   60.3500   29.1690   45.7440 C   0  0  0  0  0  0  0  0  0  0  0  0
   59.2300   29.3130   46.6770 N   0  0  0  0  0  0  0  0  0  0  0  0
   58.9970   30.5770   47.3240 C   0  0  0  0  0  0  0  0  0  0  0  0
   59.1240   30.6350   48.6160 N   0  0  0  0  0  0  0  0  0  0  0  0
   58.9370   32.1020   49.4900 S   0  0  0  0  0  0  0  0  0  0  0  0
   59.9670   32.1660   50.5810 O   0  0  0  0  0  0  0  0  0  0  0  0
   57.5560   32.1910   50.0730 O   0  0  0  0  0  0  0  0  0  0  0  0
   59.1790   33.3650   48.3390 N   0  0  0  0  0  0  0  0  0  0  0  0
   59.9930   34.5370   48.6860 C   0  0  0  0  0  0  0  0  0  0  0  0
   61.4570   34.2000   48.5890 C   0  0  0  0  0  0  0  0  0  0  0  0
   62.2540   34.2000   49.7460 C   0  0  0  0  0  0  0  0  0  0  0  0
   63.6030   33.8390   49.6700 C   0  0  0  0  0  0  0  0  0  0  0  0
   64.1650   33.4700   48.4450 C   0  0  0  0  0  0  0  0  0  0  0  0
   63.3770   33.4610   47.2930 C   0  0  0  0  0  0  0  0  0  0  0  0
   62.0280   33.8230   47.3630 C   0  0  0  0  0  0  0  0  0  0  0  0
   58.7200   33.1090   46.9970 C   0  0  0  0  0  0  0  0  0  0  0  0
   58.3350   34.1820   46.1680 C   0  0  0  0  0  0  0  0  0  0  0  0
   57.8740   33.9540   44.8720 C   0  0  0  0  0  0  0  0  0  0  0  0
   57.7710   32.6550   44.3890 C   0  0  0  0  0  0  0  0  0  0  0  0
   58.1300   31.5770   45.1960 C   0  0  0  0  0  0  0  0  0  0  0  0
   58.6180   31.7770   46.5030 C   0  0  0  0  0  0  0  0  0  0  0  0
   58.5530   28.1130   47.1750 C   0  0  0  0  0  0  0  0  0  0  0  0
   58.9810   26.8680   46.3830 C   0  0  0  0  0  0  0  0  0  0  0  0
   56.9698   27.4141   45.1602 H   0  0  0  0  0  0  0  0  0  0  0  0
   57.6935   28.2221   43.7284 H   0  0  0  0  0  0  0  0  0  0  0  0
   57.4515   26.4422   43.7284 H   0  0  0  0  0  0  0  0  0  0  0  0
   59.4400   26.2610   44.4870 H   0  0  0  0  0  0  0  0  0  0  0  0
   60.8824   27.8349   44.1363 H   0  0  0  0  0  0  0  0  0  0  0  0
   59.4099   28.8891   43.8483 H   0  0  0  0  0  0  0  0  0  0  0  0
   61.2066   28.7266   46.2736 H   0  0  0  0  0  0  0  0  0  0  0  0
   60.6147   30.1626   45.3532 H   0  0  0  0  0  0  0  0  0  0  0  0
   59.7623   35.3582   47.9914 H   0  0  0  0  0  0  0  0  0  0  0  0
   59.7623   34.8417   49.7175 H   0  0  0  0  0  0  0  0  0  0  0  0
   61.8159   34.4846   50.7140 H   0  0  0  0  0  0  0  0  0  0  0  0
   64.2240   33.8456   50.5779 H   0  0  0  0  0  0  0  0  0  0  0  0
   65.2265   33.1871   48.3887 H   0  0  0  0  0  0  0  0  0  0  0  0
   63.8178   33.1687   46.3285 H   0  0  0  0  0  0  0  0  0  0  0  0
   61.4109   33.8123   46.4525 H   0  0  0  0  0  0  0  0  0  0  0  0
   58.3990   35.2122   46.5483 H   0  0  0  0  0  0  0  0  0  0  0  0
   57.5917   34.8027   44.2316 H   0  0  0  0  0  0  0  0  0  0  0  0
   57.4051   32.4772   43.3670 H   0  0  0  0  0  0  0  0  0  0  0  0
   58.0308   30.5531   44.8064 H   0  0  0  0  0  0  0  0  0  0  0  0
   58.8089   27.9699   48.2352 H   0  0  0  0  0  0  0  0  0  0  0  0
   57.4681   28.2482   47.0542 H   0  0  0  0  0  0  0  0  0  0  0  0
   59.9730   26.5478   46.7344 H   0  0  0  0  0  0  0  0  0  0  0  0
   58.2266   26.0849   46.5494 H   0  0  0  0  0  0  0  0  0  0  0  0
  1  2  1  0
  2  3  1  0
  3  4  1  0
  4  5  1  0
  5  6  1  0
  6  7  2  0
  7  8  1  0
  8  9  2  0
  8 10  2  0
  8 11  1  0
 11 12  1  0
 12 13  1  0
 13 14  2  0
 14 15  1  0
 15 16  2  0
 16 17  1  0
 17 18  2  0
 11 19  1  0
 19 20  2  0
 20 21  1  0
 21 22  2  0
 22 23  1  0
 23 24  2  0
  5 25  1  0
 25 26  1  0
 26  2  1  0
 24  6  1  0
 18 13  1  0
 24 19  1  0
  1 27  1  0
  1 28  1  0
  1 29  1  0
  2 30  1  0
  3 31  1  0
  3 32  1  0
  4 33  1  0
  4 34  1  0
 12 35  1  0
 12 36  1  0
 14 37  1  0
 15 38  1  0
 16 39  1  0
 17 40  1  0
 18 41  1  0
 20 42  1  0
 21 43  1  0
 22 44  1  0
 23 45  1  0
 25 46  1  0
 25 47  1  0
 26 48  1  0
 26 49  1  0
M  CHG  1   2   1
M  END
>  <UniqueID>  (6) 
6

>  <SMILES>  (6) 
C[NH+]1CCN(C2=NS(=O)(=O)N(Cc3ccccc3)c3ccccc32)CC1

>  <Energy>  (6) 
72.2352053397802

>  <Genealogy>  (6) 
C[NH+]1CCN(C2=NS(=O)(=O)N(Cc3ccccc3)c3ccccc32)CC1 (protonated)
C[NH+]1CCN(C2=NS(=O)(=O)N(Cc3ccccc3)c3ccccc32)CC1 (3D coordinates assigned)
C[NH+]1CCN(C2=NS(=O)(=O)N(Cc3ccccc3)c3ccccc32)CC1 (nonaromatic ring conformer: 72.2352053397802 kcal/mol)

>  <smiles>  (6) 
CN1CCN(C2=NS(=O)(=O)N(Cc3ccccc3)c3ccccc32)CC1

>  <score_type>  (6) 
oracle

>  <origin>  (6) 
adg

>  <m_score__min__energy>  (6) 
-7.3399999999999999

>  <m_primary>  (6) 
energy

$$$$
6:0
     RDKit          3D

 32 34  0  0  1  0  0  0  0  0999 V2000
   61.1290   33.6670   50.3140 C   0  0  0  0  0  0  0  0  0  0  0  0
   62.0370   33.5810   49.0830 C   0  0  0  0  0  0  0  0  0  0  0  0
   63.3700   33.4790   49.2330 C   0  0  0  0  0  0  0  0  0  0  0  0
   64.1170   33.4060   48.0550 C   0  0  0  0  0  0  0  0  0  0  0  0
   62.9100   33.4830   46.7170 S   0  0  0  0  0  0  0  0  0  0  0  0
   61.5200   33.6060   47.8440 C   0  0  0  0  0  0  0  0  0  0  0  0
   60.1580   33.7080   47.3270 C   0  0  0  0  0  0  0  0  0  0  0  0
   59.0010   34.0750   47.9660 C   0  0  0  0  0  0  0  0  0  0  0  0
   58.0210   34.0150   47.0420 N   0  0  0  0  0  0  0  0  0  0  0  0
   58.4710   33.6370   45.8580 C   0  0  0  0  0  0  0  0  0  0  0  0
   57.9270   33.5060   44.5310 C   0  0  0  0  0  0  0  0  0  0  0  0
   57.6900   32.4310   43.8550 C   0  0  0  0  0  0  0  0  0  0  0  0
   57.5810   31.0770   44.3020 C   0  0  0  0  0  0  0  0  0  0  0  0
   58.5460   30.1310   44.4640 C   0  0  0  0  0  0  0  0  0  0  0  0
   58.3260   28.8090   44.7930 C   0  0  0  0  0  0  0  0  0  0  0  0
   57.0240   28.3930   44.9770 C   0  0  0  0  0  0  0  0  0  0  0  0
   56.0490   29.3550   44.8140 C   0  0  0  0  0  0  0  0  0  0  0  0
   56.2950   30.6290   44.4940 N   0  0  0  0  0  0  0  0  0  0  0  0
   59.8100   33.4490   46.0600 N   0  0  0  0  0  0  0  0  0  0  0  0
   61.7413   33.6090   51.2260 H   0  0  0  0  0  0  0  0  0  0  0  0
   60.5816   34.6210   50.2999 H   0  0  0  0  0  0  0  0  0  0  0  0
   60.4122   32.8327   50.2999 H   0  0  0  0  0  0  0  0  0  0  0  0
   63.8440   33.4545   50.2253 H   0  0  0  0  0  0  0  0  0  0  0  0
   65.2097   33.3198   47.9629 H   0  0  0  0  0  0  0  0  0  0  0  0
   58.8940   34.3614   49.0226 H   0  0  0  0  0  0  0  0  0  0  0  0
   57.0350   34.2170   47.2910 H   0  0  0  0  0  0  0  0  0  0  0  0
   57.6795   34.4502   44.0238 H   0  0  0  0  0  0  0  0  0  0  0  0
   57.5513   32.5793   42.7739 H   0  0  0  0  0  0  0  0  0  0  0  0
   59.5898   30.4470   44.3205 H   0  0  0  0  0  0  0  0  0  0  0  0
   59.1653   28.1069   44.9053 H   0  0  0  0  0  0  0  0  0  0  0  0
   56.7772   27.3535   45.2388 H   0  0  0  0  0  0  0  0  0  0  0  0
   55.0007   29.0539   44.9567 H   0  0  0  0  0  0  0  0  0  0  0  0
  1  2  1  0
  2  3  1  0
  3  4  2  0
  4  5  1  0
  5  6  1  0
  6  7  1  0
  7  8  2  0
  8  9  1  0
  9 10  1  0
 10 11  1  0
 11 12  2  0
 12 13  1  0
 13 14  2  0
 14 15  1  0
 15 16  2  0
 16 17  1  0
 17 18  2  0
 10 19  2  0
  6  2  2  0
 19  7  1  0
 18 13  1  0
  1 20  1  0
  1 21  1  0
  1 22  1  0
  3 23  1  0
  4 24  1  0
  8 25  1  0
  9 26  1  0
 11 27  1  0
 12 28  1  0
 14 29  1  0
 15 30  1  0
 16 31  1  0
 17 32  1  0
M  END
>  <smiles>  (7) 
Cc1ccsc1-c1c[nH]c(C=Cc2ccccn2)n1

>  <score_type>  (7) 
oracle

>  <origin>  (7) 
adg

>  <m_score__min__energy>  (7) 
-7.1399999999999997

>  <m_primary>  (7) 
energy

$$$$
7:0
     RDKit          3D

 61 65  0  0  0  0  0  0  0  0999 V2000
   55.1270   26.6980   46.0380 N   0  0  0  0  0  0  0  0  0  0  0  0
   56.4580   26.1010   45.8630 C   0  0  2  0  0  0  0  0  0  0  0  0
   56.8040   25.2100   47.0790 C   0  0  0  0  0  0  0  0  0  0  0  0
   58.2540   24.6600   47.0740 C   0  0  0  0  0  0  0  0  0  0  0  0
   59.1490   25.2160   45.9530 C   0  0  0  0  0  0  0  0  0  0  0  0
   58.8910   26.6810   45.7240 C   0  0  0  0  0  0  0  0  0  0  0  0
   59.9520   27.5710   45.5070 C   0  0  0  0  0  0  0  0  0  0  0  0
   59.6960   28.9170   45.2540 C   0  0  0  0  0  0  0  0  0  0  0  0
   58.3770   29.3920   45.2100 C   0  0  0  0  0  0  0  0  0  0  0  0
   58.1170   30.8230   44.9430 C   0  0  0  0  0  0  0  0  0  0  0  0
   57.6720   31.1960   43.6640 C   0  0  0  0  0  0  0  0  0  0  0  0
   57.5310   32.5420   43.3250 C   0  0  0  0  0  0  0  0  0  0  0  0
   57.8490   33.5350   44.2500 C   0  0  0  0  0  0  0  0  0  0  0  0
   58.2990   33.1900   45.5320 C   0  0  0  0  0  0  0  0  0  0  0  0
   58.3870   31.8320   45.9050 C   0  0  0  0  0  0  0  0  0  0  0  0
   58.7510   31.5310   47.3120 C   0  0  0  0  0  0  0  0  0  0  0  0
   58.4230   30.4300   47.8360 O   0  0  0  0  0  0  0  0  0  0  0  0
   59.4210   32.5350   48.1000 N   0  0  0  0  0  0  0  0  0  0  0  0
   59.9970   32.1980   49.4080 C   0  0  0  0  0  0  0  0  0  0  0  0
   61.1300   33.1690   49.7750 C   0  0  0  0  0  0  0  0  0  0  0  0
   62.4570   32.5720   49.4970 N   0  0  0  0  0  0  0  0  0  0  0  0
   63.3160   33.4870   48.7240 C   0  0  0  0  0  0  0  0  0  0  0  0
   63.2580   33.0790   47.2550 C   0  0  0  0  0  0  0  0  0  0  0  0
   62.4500   31.7980   47.2160 C   0  0  0  0  0  0  0  0  0  0  0  0
   62.3400   31.3670   48.6650 C   0  0  0  0  0  0  0  0  0  0  0  0
   59.7380   33.8290   47.4800 C   0  0  0  0  0  0  0  0  0  0  0  0
   58.6100   34.2720   46.5390 C   0  0  0  0  0  0  0  0  0  0  0  0
   57.3110   28.4970   45.3920 C   0  0  0  0  0  0  0  0  0  0  0  0
   57.5600   27.1360   45.6650 C   0  0  0  0  0  0  0  0  0  0  0  0
   54.4540   25.9690   46.3700 H   0  0  0  0  0  0  0  0  0  0  0  0
   54.7710   27.0550   45.1220 H   0  0  0  0  0  0  0  0  0  0  0  0
   55.1550   27.4720   46.7420 H   0  0  0  0  0  0  0  0  0  0  0  0
   56.4100   25.4979   44.9443 H   0  0  0  0  0  0  0  0  0  0  0  0
   56.6643   25.8053   47.9934 H   0  0  0  0  0  0  0  0  0  0  0  0
   56.1356   24.3377   47.0312 H   0  0  0  0  0  0  0  0  0  0  0  0
   58.7186   24.9102   48.0392 H   0  0  0  0  0  0  0  0  0  0  0  0
   58.1746   23.5768   46.8995 H   0  0  0  0  0  0  0  0  0  0  0  0
   60.2034   25.0774   46.2342 H   0  0  0  0  0  0  0  0  0  0  0  0
   58.9197   24.6734   45.0240 H   0  0  0  0  0  0  0  0  0  0  0  0
   60.9892   27.2059   45.5365 H   0  0  0  0  0  0  0  0  0  0  0  0
   60.5330   29.6111   45.0878 H   0  0  0  0  0  0  0  0  0  0  0  0
   57.4324   30.4195   42.9226 H   0  0  0  0  0  0  0  0  0  0  0  0
   57.1678   32.8204   42.3247 H   0  0  0  0  0  0  0  0  0  0  0  0
   57.7463   34.5945   43.9727 H   0  0  0  0  0  0  0  0  0  0  0  0
   59.2099   32.2570   50.1741 H   0  0  0  0  0  0  0  0  0  0  0  0
   60.4094   31.1794   49.3584 H   0  0  0  0  0  0  0  0  0  0  0  0
   61.0195   34.0897   49.1833 H   0  0  0  0  0  0  0  0  0  0  0  0
   61.0653   33.3897   50.8507 H   0  0  0  0  0  0  0  0  0  0  0  0
   62.9545   34.5197   48.8370 H   0  0  0  0  0  0  0  0  0  0  0  0
   64.3518   33.4317   49.0902 H   0  0  0  0  0  0  0  0  0  0  0  0
   62.7653   33.8613   46.6590 H   0  0  0  0  0  0  0  0  0  0  0  0
   64.2640   32.9370   46.8334 H   0  0  0  0  0  0  0  0  0  0  0  0
   61.4529   31.9814   46.7892 H   0  0  0  0  0  0  0  0  0  0  0  0
   62.9216   31.0279   46.5878 H   0  0  0  0  0  0  0  0  0  0  0  0
   61.3675   30.8835   48.8397 H   0  0  0  0  0  0  0  0  0  0  0  0
   63.1328   30.6465   48.9150 H   0  0  0  0  0  0  0  0  0  0  0  0
   59.8677   34.5848   48.2686 H   0  0  0  0  0  0  0  0  0  0  0  0
   60.6640   33.7231   46.8958 H   0  0  0  0  0  0  0  0  0  0  0  0
   57.7078   34.4840   47.1315 H   0  0  0  0  0  0  0  0  0  0  0  0
   58.9332   35.1746   45.9998 H   0  0  0  0  0  0  0  0  0  0  0  0
   56.2749   28.8595   45.3212 H   0  0  0  0  0  0  0  0  0  0  0  0
  1  2  1  0
  2  3  1  0
  3  4  1  0
  4  5  1  0
  5  6  1  0
  6  7  2  0
  7  8  1  0
  8  9  2  0
  9 10  1  0
 10 11  2  0
 11 12  1  0
 12 13  2  0
 13 14  1  0
 14 15  2  0
 15 16  1  0
 16 17  2  0
 16 18  1  0
 18 19  1  0
 19 20  1  0
 20 21  1  0
 21 22  1  0
 22 23  1  0
 23 24  1  0
 24 25  1  0
 18 26  1  0
 26 27  1  0
  9 28  1  0
 28 29  2  0
 29  2  1  0
 29  6  1  0
 15 10  1  0
 25 21  1  0
 27 14  1  0
  1 30  1  0
  1 31  1  0
  1 32  1  0
  2 33  1  6
  3 34  1  0
  3 35  1  0
  4 36  1  0
  4 37  1  0
  5 38  1  0
  5 39  1  0
  7 40  1  0
  8 41  1  0
 11 42  1  0
 12 43  1  0
 13 44  1  0
 19 45  1  0
 19 46  1  0
 20 47  1  0
 20 48  1  0
 22 49  1  0
 22 50  1  0
 23 51  1  0
 23 52  1  0
 24 53  1  0
 24 54  1  0
 25 55  1  0
 25 56  1  0
 26 57  1  0
 26 58  1  0
 27 59  1  0
 27 60  1  0
 28 61  1  0
M  CHG  1   1   1
M  END
>  <UniqueID>  (8) 
7

>  <SMILES>  (8) 
[NH3+][C@@H]1CCCc2ccc(-c3cccc4c3C(=O)N(CCN3CCCC3)CC4)cc21

>  <Energy>  (8) 
80.74033160285408

>  <Genealogy>  (8) 
[NH3+]C1CCCc2ccc(-c3cccc4c3C(=O)N(CCN3CCCC3)CC4)cc21 (protonated)
[NH3+][C@@H]1CCCc2ccc(-c3cccc4c3C(=O)N(CCN3CCCC3)CC4)cc21 (chirality)
[NH3+][C@@H]1CCCc2ccc(-c3cccc4c3C(=O)N(CCN3CCCC3)CC4)cc21 (3D coordinates assigned)
[NH3+][C@@H]1CCCc2ccc(-c3cccc4c3C(=O)N(CCN3CCCC3)CC4)cc21 (nonaromatic ring conformer: 80.74033160285408 kcal/mol)

>  <smiles>  (8) 
NC1CCCc2ccc(-c3cccc4c3C(=O)N(CCN3CCCC3)CC4)cc21

>  <score_type>  (8) 
oracle

>  <origin>  (8) 
adg

>  <m_score__min__energy>  (8) 
-8.2599999999999998

>  <m_primary>  (8) 
energy

$$$$
8:0
     RDKit          3D

 49 51  0  0  0  0  0  0  0  0999 V2000
   58.4263   27.7245   47.6689 H   0  0  0  0  0  0  0  0  0  0  0  0
   58.3730   28.5430   46.9360 C   0  0  0  0  0  0  0  0  0  0  0  0
   57.5330   28.3930   45.8870 C   0  0  0  0  0  0  0  0  0  0  0  0
   56.7750   29.5310   45.2990 C   0  0  0  0  0  0  0  0  0  0  0  0
   55.6050   29.3420   44.8690 O   0  0  0  0  0  0  0  0  0  0  0  0
   57.3740   30.8270   45.1930 N   0  0  0  0  0  0  0  0  0  0  0  0
   57.0590   31.7980   44.1490 C   0  0  2  0  0  0  0  0  0  0  0  0
   55.9841   32.0307   44.1702 H   0  0  0  0  0  0  0  0  0  0  0  0
   57.3660   31.2080   42.7690 C   0  0  0  0  0  0  0  0  0  0  0  0
   57.8707   30.2380   42.8890 H   0  0  0  0  0  0  0  0  0  0  0  0
   56.4271   31.0666   42.2136 H   0  0  0  0  0  0  0  0  0  0  0  0
   58.0206   31.8957   42.2136 H   0  0  0  0  0  0  0  0  0  0  0  0
   57.8210   33.1140   44.4080 C   0  0  0  0  0  0  0  0  0  0  0  0
   57.3565   33.9078   43.8046 H   0  0  0  0  0  0  0  0  0  0  0  0
   58.8709   32.9347   44.1333 H   0  0  0  0  0  0  0  0  0  0  0  0
   57.8140   33.5560   45.8740 C   0  0  0  0  0  0  0  0  0  0  0  0
   57.8280   32.6690   46.5245 H   0  0  0  0  0  0  0  0  0  0  0  0
   58.7025   34.1725   46.0754 H   0  0  0  0  0  0  0  0  0  0  0  0
   56.9064   34.1440   46.0754 H   0  0  0  0  0  0  0  0  0  0  0  0
   57.3980   27.0520   45.2590 C   0  0  0  0  0  0  0  0  0  0  0  0
   57.8810   26.8250   43.9570 C   0  0  0  0  0  0  0  0  0  0  0  0
   58.3608   27.6443   43.4015 H   0  0  0  0  0  0  0  0  0  0  0  0
   57.7550   25.5650   43.3650 C   0  0  0  0  0  0  0  0  0  0  0  0
   58.1385   25.3957   42.3480 H   0  0  0  0  0  0  0  0  0  0  0  0
   57.1430   24.5200   44.0620 C   0  0  0  0  0  0  0  0  0  0  0  0
   57.0424   23.5302   43.5928 H   0  0  0  0  0  0  0  0  0  0  0  0
   56.6590   24.7330   45.3550 C   0  0  0  0  0  0  0  0  0  0  0  0
   56.1786   23.9096   45.9039 H   0  0  0  0  0  0  0  0  0  0  0  0
   56.7840   25.9910   45.9530 C   0  0  0  0  0  0  0  0  0  0  0  0
   56.4006   26.1529   46.9712 H   0  0  0  0  0  0  0  0  0  0  0  0
   59.2250   29.7290   47.1680 C   0  0  0  0  0  0  0  0  0  0  0  0
   60.3730   29.9560   46.3870 C   0  0  0  0  0  0  0  0  0  0  0  0
   60.8440   28.8520   45.1030 Cl  0  0  0  0  0  0  0  0  0  0  0  0
   61.1230   31.0720   46.5880 N   0  0  0  0  0  0  0  0  0  0  0  0
   60.8160   31.9920   47.5430 C   0  0  0  0  0  0  0  0  0  0  0  0
   61.6050   33.1500   47.7010 C   0  0  0  0  0  0  0  0  0  0  0  0
   62.7910   33.3970   46.8100 C   0  0  0  0  0  0  0  0  0  0  0  0
   63.6817   33.5825   47.4282 H   0  0  0  0  0  0  0  0  0  0  0  0
   62.9625   32.5153   46.1750 H   0  0  0  0  0  0  0  0  0  0  0  0
   62.5963   34.2739   46.1750 H   0  0  0  0  0  0  0  0  0  0  0  0
   61.2590   34.0880   48.6880 C   0  0  0  0  0  0  0  0  0  0  0  0
   61.8656   34.9969   48.8139 H   0  0  0  0  0  0  0  0  0  0  0  0
   60.1500   33.8750   49.5110 C   0  0  0  0  0  0  0  0  0  0  0  0
   59.8912   34.6146   50.2831 H   0  0  0  0  0  0  0  0  0  0  0  0
   59.3690   32.7280   49.3580 C   0  0  0  0  0  0  0  0  0  0  0  0
   58.4980   32.5649   50.0098 H   0  0  0  0  0  0  0  0  0  0  0  0
   59.6940   31.7850   48.3750 C   0  0  0  0  0  0  0  0  0  0  0  0
   58.9100   30.6400   48.1860 C   0  0  0  0  0  0  0  0  0  0  0  0
   58.0441   30.4548   48.8386 H   0  0  0  0  0  0  0  0  0  0  0  0
  1  2  1  0
  2  3  2  0
  3  4  1  0
  4  5  2  0
  4  6  1  0
  6  7  1  0
  7  8  1  6
  7  9  1  0
  9 10  1  0
  9 11  1  0
  9 12  1  0
  7 13  1  0
 13 14  1  0
 13 15  1  0
 13 16  1  0
 16 17  1  0
 16 18  1  0
 16 19  1  0
  3 20  1  0
 20 21  2  0
 21 22  1  0
 21 23  1  0
 23 24  1  0
 23 25  2  0
 25 26  1  0
 25 27  1  0
 27 28  1  0
 27 29  2  0
 29 30  1  0
  2 31  1  0
 31 32  2  0
 32 33  1  0
 32 34  1  0
 34 35  2  0
 35 36  1  0
 36 37  1  0
 37 38  1  0
 37 39  1  0
 37 40  1  0
 36 41  2  0
 41 42  1  0
 41 43  1  0
 43 44  1  0
 43 45  2  0
 45 46  1  0
 45 47  1  0
 47 48  2  0
 48 49  1  0
 29 20  1  0
 48 31  1  0
 47 35  1  0
M  CHG  1   6  -1
M  END
>  <UniqueID>  (9) 
8

>  <SMILES>  (9) 
CC[C@@H](C)[N-]C(=O)/C(=C\c1cc2cccc(C)c2nc1Cl)c1ccccc1

>  <Energy>  (9) 
59.00114133712333

>  <Genealogy>  (9) 
CCC(C)[N-]C(=O)C(=Cc1cc2cccc(C)c2nc1Cl)c1ccccc1 (protonated)
CC[C@@H](C)[N-]C(=O)C(=Cc1cc2cccc(C)c2nc1Cl)c1ccccc1 (chirality)
CC[C@@H](C)[N-]C(=O)/C(=C\c1cc2cccc(C)c2nc1Cl)c1ccccc1 (cis-trans isomerization)
CC[C@@H](C)[N-]C(=O)/C(=C\c1cc2cccc(C)c2nc1Cl)c1ccccc1 (3D coordinates assigned)
CC[C@@H](C)[N-]C(=O)/C(=C\c1cc2cccc(C)c2nc1Cl)c1ccccc1 (optimized conformer: 59.00114133712333 kcal/mol)

>  <smiles>  (9) 
CCC(C)NC(=O)C(=Cc1cc2cccc(C)c2nc1Cl)c1ccccc1

>  <score_type>  (9) 
oracle

>  <origin>  (9) 
adg

>  <m_score__min__energy>  (9) 
-10.59

>  <m_primary>  (9) 
energy

$$$$
9:0
     RDKit          3D

 54 56  0  0  0  0  0  0  0  0999 V2000
   57.4180   29.4780   45.7240 C   0  0  0  0  0  0  0  0  0  0  0  0
   56.9790   30.5860   44.8610 N   0  0  0  0  0  0  0  0  0  0  0  0
   55.8810   30.1230   43.9930 C   0  0  0  0  0  0  0  0  0  0  0  0
   58.1120   31.1080   44.0610 C   0  0  0  0  0  0  0  0  0  0  0  0
   57.7150   32.4020   43.3420 C   0  0  0  0  0  0  0  0  0  0  0  0
   57.8210   33.5380   44.1990 O   0  0  0  0  0  0  0  0  0  0  0  0
   58.3650   33.5350   45.4950 C   0  0  0  0  0  0  0  0  0  0  0  0
   57.6490   33.0900   46.6220 C   0  0  0  0  0  0  0  0  0  0  0  0
   58.2430   33.1080   47.8870 C   0  0  0  0  0  0  0  0  0  0  0  0
   59.5580   33.5770   48.0570 C   0  0  0  0  0  0  0  0  0  0  0  0
   60.1730   33.5780   49.4080 C   0  0  0  0  0  0  0  0  0  0  0  0
   59.4010   33.5690   50.5810 C   0  0  0  0  0  0  0  0  0  0  0  0
   60.0170   33.5580   51.7930 N   0  0  0  0  0  0  0  0  0  0  0  0
   61.3720   33.5550   51.8970 C   0  0  0  0  0  0  0  0  0  0  0  0
   62.1580   33.5650   50.7330 C   0  0  0  0  0  0  0  0  0  0  0  0
   63.6430   33.5470   50.7820 C   0  0  0  0  0  0  0  0  0  0  0  0
   64.3190   34.3340   51.7290 C   0  0  0  0  0  0  0  0  0  0  0  0
   65.7140   34.3280   51.7990 C   0  0  0  0  0  0  0  0  0  0  0  0
   66.4780   33.5260   50.9250 C   0  0  0  0  0  0  0  0  0  0  0  0
   67.9280   33.5200   50.9960 N   0  0  0  0  0  0  0  0  0  0  0  0
   68.6250   32.6210   51.9250 C   0  0  0  0  0  0  0  0  0  0  0  0
   68.7220   34.4090   50.1400 C   0  0  0  0  0  0  0  0  0  0  0  0
   65.7940   32.7280   49.9860 C   0  0  0  0  0  0  0  0  0  0  0  0
   64.3980   32.7360   49.9180 C   0  0  0  0  0  0  0  0  0  0  0  0
   61.5290   33.5670   49.5260 N   0  0  0  0  0  0  0  0  0  0  0  0
   60.2710   34.0150   46.9240 C   0  0  0  0  0  0  0  0  0  0  0  0
   59.6740   33.9960   45.6600 C   0  0  0  0  0  0  0  0  0  0  0  0
   57.3033   29.7674   46.7790 H   0  0  0  0  0  0  0  0  0  0  0  0
   56.8044   28.5883   45.5191 H   0  0  0  0  0  0  0  0  0  0  0  0
   58.4744   29.2500   45.5191 H   0  0  0  0  0  0  0  0  0  0  0  0
   55.0453   29.7706   44.6154 H   0  0  0  0  0  0  0  0  0  0  0  0
   55.5403   30.9540   43.3580 H   0  0  0  0  0  0  0  0  0  0  0  0
   56.2382   29.2989   43.3580 H   0  0  0  0  0  0  0  0  0  0  0  0
   58.9621   31.3118   44.7286 H   0  0  0  0  0  0  0  0  0  0  0  0
   58.3905   30.3557   43.3083 H   0  0  0  0  0  0  0  0  0  0  0  0
   58.3779   32.5461   42.4761 H   0  0  0  0  0  0  0  0  0  0  0  0
   56.6657   32.3092   43.0253 H   0  0  0  0  0  0  0  0  0  0  0  0
   56.6173   32.7264   46.5067 H   0  0  0  0  0  0  0  0  0  0  0  0
   57.6757   32.7514   48.7594 H   0  0  0  0  0  0  0  0  0  0  0  0
   58.3027   33.5708   50.5195 H   0  0  0  0  0  0  0  0  0  0  0  0
   59.4380   33.5380   52.6620 H   0  0  0  0  0  0  0  0  0  0  0  0
   61.8506   33.5448   52.8874 H   0  0  0  0  0  0  0  0  0  0  0  0
   63.7428   34.9626   52.4239 H   0  0  0  0  0  0  0  0  0  0  0  0
   66.2232   34.9562   52.5447 H   0  0  0  0  0  0  0  0  0  0  0  0
   68.3971   32.9150   52.9602 H   0  0  0  0  0  0  0  0  0  0  0  0
   68.2902   31.5870   51.7553 H   0  0  0  0  0  0  0  0  0  0  0  0
   69.7098   32.6877   51.7553 H   0  0  0  0  0  0  0  0  0  0  0  0
   69.3234   35.0823   50.7685 H   0  0  0  0  0  0  0  0  0  0  0  0
   69.3888   33.8072   49.5049 H   0  0  0  0  0  0  0  0  0  0  0  0
   68.0490   35.0038   49.5049 H   0  0  0  0  0  0  0  0  0  0  0  0
   66.3669   32.0899   49.2970 H   0  0  0  0  0  0  0  0  0  0  0  0
   63.8852   32.1010   49.1806 H   0  0  0  0  0  0  0  0  0  0  0  0
   61.3047   34.3745   47.0345 H   0  0  0  0  0  0  0  0  0  0  0  0
   60.2409   34.3478   44.7855 H   0  0  0  0  0  0  0  0  0  0  0  0
  1  2  1  0
  2  3  1  0
  2  4  1  0
  4  5  1  0
  5  6  1  0
  6  7  1  0
  7  8  2  0
  8  9  1  0
  9 10  2  0
 10 11  1  0
 11 12  2  0
 12 13  1  0
 13 14  2  0
 14 15  1  0
 15 16  1  0
 16 17  2  0
 17 18  1  0
 18 19  2  0
 19 20  1  0
 20 21  1  0
 20 22  1  0
 19 23  1  0
 23 24  2  0
 15 25  2  0
 10 26  1  0
 26 27  2  0
 27  7  1  0
 25 11  1  0
 24 16  1  0
  1 28  1  0
  1 29  1  0
  1 30  1  0
  3 31  1  0
  3 32  1  0
  3 33  1  0
  4 34  1  0
  4 35  1  0
  5 36  1  0
  5 37  1  0
  8 38  1  0
  9 39  1  0
 12 40  1  0
 13 41  1  0
 14 42  1  0
 17 43  1  0
 18 44  1  0
 21 45  1  0
 21 46  1  0
 21 47  1  0
 22 48  1  0
 22 49  1  0
 22 50  1  0
 23 51  1  0
 24 52  1  0
 26 53  1  0
 27 54  1  0
M  CHG  1  13   1
M  END
>  <UniqueID>  (10) 
9

>  <SMILES>  (10) 
CN(C)CCOc1ccc(-c2c[nH+]cc(-c3ccc(N(C)C)cc3)n2)cc1

>  <Energy>  (10) 
65.8030534278576

>  <Genealogy>  (10) 
CN(C)CCOc1ccc(-c2c[nH+]cc(-c3ccc(N(C)C)cc3)n2)cc1 (protonated)
CN(C)CCOc1ccc(-c2c[nH+]cc(-c3ccc(N(C)C)cc3)n2)cc1 (3D coordinates assigned)
CN(C)CCOc1ccc(-c2c[nH+]cc(-c3ccc(N(C)C)cc3)n2)cc1 (optimized conformer: 65.8030534278576 kcal/mol)

>  <smiles>  (10) 
CN(C)CCOc1ccc(-c2cncc(-c3ccc(N(C)C)cc3)n2)cc1

>  <score_type>  (10) 
oracle

>  <origin>  (10) 
adg

>  <m_score__min__energy>  (10) 
-5.6100000000000003

>  <m_primary>  (10) 
energy

$$$$
10:0
     RDKit          3D

 42 44  0  0  0  0  0  0  0  0999 V2000
   58.5470   33.6520   44.8480 C   0  0  0  0  0  0  0  0  0  0  0  0
   57.4570   32.5850   44.7450 C   0  0  0  0  0  0  0  0  0  0  0  0
   57.6420   31.6530   43.5390 C   0  0  0  0  0  0  0  0  0  0  0  0
   56.7500   30.0980   43.6510 S   0  0  0  0  0  0  0  0  0  0  0  0
   56.3020   29.6310   42.2950 O   0  0  0  0  0  0  0  0  0  0  0  0
   55.5250   30.3490   44.4830 O   0  0  0  0  0  0  0  0  0  0  0  0
   57.6790   28.8950   44.4470 O   0  0  0  0  0  0  0  0  0  0  0  0
   58.5250   29.1060   45.5440 C   0  0  0  0  0  0  0  0  0  0  0  0
   59.6760   29.9100   45.4740 C   0  0  0  0  0  0  0  0  0  0  0  0
   60.4480   30.1360   46.6150 C   0  0  0  0  0  0  0  0  0  0  0  0
   60.0870   29.5580   47.8420 C   0  0  0  0  0  0  0  0  0  0  0  0
   60.8390   29.8380   49.0340 N   0  0  0  0  0  0  0  0  0  0  0  0
   60.7070   29.1450   50.1550 N   0  0  0  0  0  0  0  0  0  0  0  0
   61.5650   29.6550   51.0590 C   0  0  0  0  0  0  0  0  0  0  0  0
   62.2610   30.7090   50.4990 C   0  0  0  0  0  0  0  0  0  0  0  0
   61.7750   30.8000   49.2090 C   0  0  0  0  0  0  0  0  0  0  0  0
   62.1000   31.8760   48.2450 C   0  0  0  0  0  0  0  0  0  0  0  0
   63.3730   31.9020   47.6490 C   0  0  0  0  0  0  0  0  0  0  0  0
   63.7120   32.9130   46.7480 C   0  0  0  0  0  0  0  0  0  0  0  0
   62.7840   33.9050   46.4270 C   0  0  0  0  0  0  0  0  0  0  0  0
   61.5140   33.8880   47.0080 C   0  0  0  0  0  0  0  0  0  0  0  0
   61.1630   32.8800   47.9160 C   0  0  0  0  0  0  0  0  0  0  0  0
   59.5710   32.9470   48.6630 Cl  0  0  0  0  0  0  0  0  0  0  0  0
   58.9810   28.6980   47.8960 C   0  0  0  0  0  0  0  0  0  0  0  0
   58.2070   28.4760   46.7530 C   0  0  0  0  0  0  0  0  0  0  0  0
   58.7585   33.8590   45.9074 H   0  0  0  0  0  0  0  0  0  0  0  0
   59.4617   33.2905   44.3553 H   0  0  0  0  0  0  0  0  0  0  0  0
   58.2051   34.5742   44.3553 H   0  0  0  0  0  0  0  0  0  0  0  0
   57.4725   31.9784   45.6625 H   0  0  0  0  0  0  0  0  0  0  0  0
   56.4974   33.1065   44.6137 H   0  0  0  0  0  0  0  0  0  0  0  0
   57.2956   32.1831   42.6396 H   0  0  0  0  0  0  0  0  0  0  0  0
   58.7112   31.3969   43.5044 H   0  0  0  0  0  0  0  0  0  0  0  0
   59.9697   30.3632   44.5157 H   0  0  0  0  0  0  0  0  0  0  0  0
   61.3443   30.7706   46.5521 H   0  0  0  0  0  0  0  0  0  0  0  0
   61.6925   29.2878   52.0880 H   0  0  0  0  0  0  0  0  0  0  0  0
   63.0302   31.3356   50.9741 H   0  0  0  0  0  0  0  0  0  0  0  0
   64.1070   31.1203   47.8943 H   0  0  0  0  0  0  0  0  0  0  0  0
   64.7121   32.9279   46.2903 H   0  0  0  0  0  0  0  0  0  0  0  0
   63.0529   34.7003   45.7163 H   0  0  0  0  0  0  0  0  0  0  0  0
   60.7849   34.6706   46.7513 H   0  0  0  0  0  0  0  0  0  0  0  0
   58.7215   28.1966   48.8401 H   0  0  0  0  0  0  0  0  0  0  0  0
   57.3405   27.8003   46.8042 H   0  0  0  0  0  0  0  0  0  0  0  0
  1  2  1  0
  2  3  1  0
  3  4  1  0
  4  5  2  0
  4  6  2  0
  4  7  1  0
  7  8  1  0
  8  9  2  0
  9 10  1  0
 10 11  2  0
 11 12  1  0
 12 13  1  0
 13 14  2  0
 14 15  1  0
 15 16  2  0
 16 17  1  0
 17 18  2  0
 18 19  1  0
 19 20  2  0
 20 21  1  0
 21 22  2  0
 22 23  1  0
 11 24  1  0
 24 25  2  0
 25  8  1  0
 16 12  1  0
 22 17  1  0
  1 26  1  0
  1 27  1  0
  1 28  1  0
  2 29  1  0
  2 30  1  0
  3 31  1  0
  3 32  1  0
  9 33  1  0
 10 34  1  0
 14 35  1  0
 15 36  1  0
 18 37  1  0
 19 38  1  0
 20 39  1  0
 21 40  1  0
 24 41  1  0
 25 42  1  0
M  END
>  <UniqueID>  (11) 
10

>  <SMILES>  (11) 
CCCS(=O)(=O)Oc1ccc(-n2nccc2-c2ccccc2Cl)cc1

>  <Energy>  (11) 
78.73577799350522

>  <Genealogy>  (11) 
CCCS(=O)(=O)Oc1ccc(-n2nccc2-c2ccccc2Cl)cc1 (3D coordinates assigned)
CCCS(=O)(=O)Oc1ccc(-n2nccc2-c2ccccc2Cl)cc1 (optimized conformer: 78.73577799350522 kcal/mol)

>  <smiles>  (11) 
CCCS(=O)(=O)Oc1ccc(-n2nccc2-c2ccccc2Cl)cc1

>  <score_type>  (11) 
oracle

>  <origin>  (11) 
adg

>  <m_score__min__energy>  (11) 
-8.1400000000000006

>  <m_primary>  (11) 
energy

$$$$
11:0
     RDKit          3D

101106  0  0  0  0  0  0  0  0999 V2000
   55.2830   29.7850   44.6150 C   0  0  0  0  0  0  0  0  0  0  0  0
   56.5020   29.6130   44.0710 C   0  0  0  0  0  0  0  0  0  0  0  0
   56.5920   29.4350   42.5760 C   0  0  0  0  0  0  0  0  0  0  0  0
   57.7870   29.5830   44.9060 C   0  0  1  0  0  0  0  0  0  0  0  0
   58.8800   28.6460   44.3930 C   0  0  0  0  0  0  0  0  0  0  0  0
   60.1340   29.0550   45.1530 C   0  0  0  0  0  0  0  0  0  0  0  0
   59.9430   30.5340   45.5570 C   0  0  2  0  0  0  0  0  0  0  0  0
   60.3370   30.8470   47.0430 C   0  0  2  0  0  0  0  0  0  0  0  0
   59.6770   29.9000   48.0890 C   0  0  0  0  0  0  0  0  0  0  0  0
   58.9950   30.5730   49.2880 C   0  0  0  0  0  0  0  0  0  0  0  0
   59.7290   31.7810   49.9710 C   0  0  1  0  0  0  0  0  0  0  0  0
   60.4440   31.4310   51.3850 C   0  0  2  0  0  0  0  0  0  0  0  0
   59.5270   30.4230   52.1700 C   0  0  0  0  0  0  0  0  0  0  0  0
   60.5190   32.7010   52.3240 C   0  0  0  0  0  0  0  0  0  0  0  0
   61.8620   33.4500   52.4140 C   0  0  0  0  0  0  0  0  0  0  0  0
   63.1270   32.5710   52.5990 C   0  0  1  0  0  0  0  0  0  0  0  0
   63.6370   32.8100   53.9060 O   0  0  0  0  0  0  0  0  0  0  0  0
   65.0040   33.1860   53.9320 C   0  0  2  0  0  0  0  0  0  0  0  0
   65.2400   34.0050   55.0770 O   0  0  0  0  0  0  0  0  0  0  0  0
   64.9050   35.3740   54.8950 C   0  0  2  0  0  0  0  0  0  0  0  0
   63.3840   35.5820   54.7670 C   0  0  0  0  0  0  0  0  0  0  0  0
   65.7560   36.0460   53.7740 C   0  0  2  0  0  0  0  0  0  0  0  0
   64.9720   36.9400   53.0180 O   0  0  0  0  0  0  0  0  0  0  0  0
   66.4030   34.9970   52.8460 C   0  0  2  0  0  0  0  0  0  0  0  0
   66.7850   35.5990   51.6330 O   0  0  0  0  0  0  0  0  0  0  0  0
   65.4050   33.8550   52.5910 C   0  0  1  0  0  0  0  0  0  0  0  0
   65.9290   32.9040   51.6950 O   0  0  0  0  0  0  0  0  0  0  0  0
   62.8910   31.0350   52.3870 C   0  0  0  0  0  0  0  0  0  0  0  0
   62.3720   30.3780   53.7020 C   0  0  0  0  0  0  0  0  0  0  0  0
   64.2570   30.3280   52.1050 C   0  0  0  0  0  0  0  0  0  0  0  0
   61.8760   30.7780   51.1910 C   0  0  2  0  0  0  0  0  0  0  0  0
   62.4720   31.0450   49.7780 C   0  0  0  0  0  0  0  0  0  0  0  0
   62.1060   32.3910   49.1570 C   0  0  0  0  0  0  0  0  0  0  0  0
   60.5690   32.6510   48.9240 C   0  0  2  0  0  0  0  0  0  0  0  0
   60.3290   34.1800   49.2040 C   0  0  0  0  0  0  0  0  0  0  0  0
   60.1390   32.3590   47.3810 C   0  0  1  0  0  0  0  0  0  0  0  0
   61.0430   33.2020   46.4070 C   0  0  0  0  0  0  0  0  0  0  0  0
   58.6360   32.7680   47.0700 C   0  0  0  0  0  0  0  0  0  0  0  0
   57.7640   31.7570   46.2750 C   0  0  0  0  0  0  0  0  0  0  0  0
   58.4920   30.9510   45.1590 C   0  0  2  0  0  0  0  0  0  0  0  0
   58.5220   31.8070   43.8620 C   0  0  0  0  0  0  0  0  0  0  0  0
   55.1796   29.9179   45.7020 H   0  0  0  0  0  0  0  0  0  0  0  0
   54.3901   29.7927   43.9726 H   0  0  0  0  0  0  0  0  0  0  0  0
   57.0777   28.4743   42.3497 H   0  0  0  0  0  0  0  0  0  0  0  0
   55.5804   29.4452   42.1440 H   0  0  0  0  0  0  0  0  0  0  0  0
   57.1835   30.2557   42.1440 H   0  0  0  0  0  0  0  0  0  0  0  0
   57.3560   29.2113   45.8473 H   0  0  0  0  0  0  0  0  0  0  0  0
   58.6228   27.5979   44.6060 H   0  0  0  0  0  0  0  0  0  0  0  0
   59.0126   28.7212   43.3036 H   0  0  0  0  0  0  0  0  0  0  0  0
   60.2554   28.4293   46.0496 H   0  0  0  0  0  0  0  0  0  0  0  0
   61.0333   28.9263   44.5328 H   0  0  0  0  0  0  0  0  0  0  0  0
   60.6551   31.1640   45.0039 H   0  0  0  0  0  0  0  0  0  0  0  0
   61.4127   30.6315   47.1226 H   0  0  0  0  0  0  0  0  0  0  0  0
   58.9173   29.3012   47.5652 H   0  0  0  0  0  0  0  0  0  0  0  0
   60.5053   29.3153   48.5157 H   0  0  0  0  0  0  0  0  0  0  0  0
   58.0153   30.9371   48.9450 H   0  0  0  0  0  0  0  0  0  0  0  0
   58.9699   29.7930   50.0632 H   0  0  0  0  0  0  0  0  0  0  0  0
   58.9466   32.4741   50.3137 H   0  0  0  0  0  0  0  0  0  0  0  0
   59.6616   30.5709   53.2517 H   0  0  0  0  0  0  0  0  0  0  0  0
   58.4747   30.6009   51.9037 H   0  0  0  0  0  0  0  0  0  0  0  0
   59.8034   29.3921   51.9037 H   0  0  0  0  0  0  0  0  0  0  0  0
   59.7665   33.4188   51.9656 H   0  0  0  0  0  0  0  0  0  0  0  0
   60.3539   32.3061   53.3373 H   0  0  0  0  0  0  0  0  0  0  0  0
   61.9872   34.0267   51.4857 H   0  0  0  0  0  0  0  0  0  0  0  0
   61.7954   34.0642   53.3241 H   0  0  0  0  0  0  0  0  0  0  0  0
   63.8435   32.8598   51.8159 H   0  0  0  0  0  0  0  0  0  0  0  0
   65.6502   32.3010   54.0284 H   0  0  0  0  0  0  0  0  0  0  0  0
   65.1851   35.9145   55.8112 H   0  0  0  0  0  0  0  0  0  0  0  0
   62.9366   35.6432   55.7700 H   0  0  0  0  0  0  0  0  0  0  0  0
   63.1863   36.5155   54.2198 H   0  0  0  0  0  0  0  0  0  0  0  0
   62.9430   34.7358   54.2198 H   0  0  0  0  0  0  0  0  0  0  0  0
   66.5617   36.6082   54.2688 H   0  0  0  0  0  0  0  0  0  0  0  0
   65.5170   37.2440   52.2460 H   0  0  0  0  0  0  0  0  0  0  0  0
   67.3022   34.5848   53.3272 H   0  0  0  0  0  0  0  0  0  0  0  0
   66.0030   36.1180   51.3080 H   0  0  0  0  0  0  0  0  0  0  0  0
   64.5052   34.2847   52.1265 H   0  0  0  0  0  0  0  0  0  0  0  0
   66.6020   33.3640   51.1280 H   0  0  0  0  0  0  0  0  0  0  0  0
   62.7922   30.9099   54.5683 H   0  0  0  0  0  0  0  0  0  0  0  0
   61.2740   30.4370   53.7328 H   0  0  0  0  0  0  0  0  0  0  0  0
   62.6836   29.3235   53.7328 H   0  0  0  0  0  0  0  0  0  0  0  0
   64.7434   30.0763   53.0590 H   0  0  0  0  0  0  0  0  0  0  0  0
   64.0814   29.4076   51.5288 H   0  0  0  0  0  0  0  0  0  0  0  0
   64.9071   31.0028   51.5288 H   0  0  0  0  0  0  0  0  0  0  0  0
   61.7035   29.6927   51.2391 H   0  0  0  0  0  0  0  0  0  0  0  0
   63.5680   30.9943   49.8568 H   0  0  0  0  0  0  0  0  0  0  0  0
   62.0406   30.2787   49.1171 H   0  0  0  0  0  0  0  0  0  0  0  0
   62.4839   33.1819   49.8217 H   0  0  0  0  0  0  0  0  0  0  0  0
   62.5608   32.3882   48.1554 H   0  0  0  0  0  0  0  0  0  0  0  0
   60.3017   34.3541   50.2898 H   0  0  0  0  0  0  0  0  0  0  0  0
   61.1460   34.7669   48.7590 H   0  0  0  0  0  0  0  0  0  0  0  0
   59.3715   34.4884   48.7590 H   0  0  0  0  0  0  0  0  0  0  0  0
   61.7231   33.8362   46.9947 H   0  0  0  0  0  0  0  0  0  0  0  0
   61.6314   32.5227   45.7728 H   0  0  0  0  0  0  0  0  0  0  0  0
   60.4064   33.8364   45.7728 H   0  0  0  0  0  0  0  0  0  0  0  0
   58.1372   32.9455   48.0342 H   0  0  0  0  0  0  0  0  0  0  0  0
   58.7163   33.6453   46.4113 H   0  0  0  0  0  0  0  0  0  0  0  0
   57.3477   31.0353   46.9932 H   0  0  0  0  0  0  0  0  0  0  0  0
   57.0088   32.3645   45.7548 H   0  0  0  0  0  0  0  0  0  0  0  0
   58.5594   32.8738   44.1275 H   0  0  0  0  0  0  0  0  0  0  0  0
   59.4115   31.5450   43.2703 H   0  0  0  0  0  0  0  0  0  0  0  0
   57.6163   31.6080   43.2703 H   0  0  0  0  0  0  0  0  0  0  0  0
  1  2  2  0
  2  3  1  0
  2  4  1  0
  4  5  1  0
  5  6  1  0
  6  7  1  0
  7  8  1  0
  8  9  1  0
  9 10  1  0
 10 11  1  0
 11 12  1  0
 12 13  1  1
 12 14  1  0
 14 15  1  0
 15 16  1  0
 16 17  1  0
 17 18  1  0
 18 19  1  0
 19 20  1  0
 20 21  1  0
 20 22  1  0
 22 23  1  0
 22 24  1  0
 24 25  1  0
 24 26  1  0
 26 27  1  0
 16 28  1  0
 28 29  1  0
 28 30  1  0
 28 31  1  0
 31 32  1  0
 32 33  1  0
 33 34  1  0
 34 35  1  1
 34 36  1  0
 36 37  1  6
 36 38  1  0
 38 39  1  0
 39 40  1  0
 40 41  1  6
 40  4  1  0
 40  7  1  0
 36  8  1  0
 34 11  1  0
 31 12  1  0
 26 18  1  0
  1 42  1  0
  1 43  1  0
  3 44  1  0
  3 45  1  0
  3 46  1  0
  4 47  1  1
  5 48  1  0
  5 49  1  0
  6 50  1  0
  6 51  1  0
  7 52  1  6
  8 53  1  6
  9 54  1  0
  9 55  1  0
 10 56  1  0
 10 57  1  0
 11 58  1  1
 13 59  1  0
 13 60  1  0
 13 61  1  0
 14 62  1  0
 14 63  1  0
 15 64  1  0
 15 65  1  0
 16 66  1  6
 18 67  1  1
 20 68  1  1
 21 69  1  0
 21 70  1  0
 21 71  1  0
 22 72  1  1
 23 73  1  0
 24 74  1  1
 25 75  1  0
 26 76  1  6
 27 77  1  0
 29 78  1  0
 29 79  1  0
 29 80  1  0
 30 81  1  0
 30 82  1  0
 30 83  1  0
 31 84  1  6
 32 85  1  0
 32 86  1  0
 33 87  1  0
 33 88  1  0
 35 89  1  0
 35 90  1  0
 35 91  1  0
 37 92  1  0
 37 93  1  0
 37 94  1  0
 38 95  1  0
 38 96  1  0
 39 97  1  0
 39 98  1  0
 41 99  1  0
 41100  1  0
 41101  1  0
M  END
>  <UniqueID>  (12) 
11

>  <SMILES>  (12) 
C=C(C)[C@H]1CC[C@@H]2C3CCC4C5(C)CCC(OC6OC(C)C(O)C(O)C6O)C(C)(C)C5CCC4(C)C3(C)CCC12C

>  <Energy>  (12) 
222.7948205484282

>  <Genealogy>  (12) 
C=C(C)[C@H]1CC[C@@H]2C3CCC4C5(C)CCC(OC6OC(C)C(O)C(O)C6O)C(C)(C)C5CCC4(C)C3(C)CCC12C (chirality)
C=C(C)[C@H]1CC[C@@H]2C3CCC4C5(C)CCC(OC6OC(C)C(O)C(O)C6O)C(C)(C)C5CCC4(C)C3(C)CCC12C (3D coordinates assigned)
C=C(C)[C@H]1CC[C@@H]2C3CCC4C5(C)CCC(OC6OC(C)C(O)C(O)C6O)C(C)(C)C5CCC4(C)C3(C)CCC12C (nonaromatic ring conformer: 222.7948205484282 kcal/mol)

>  <smiles>  (12) 
C=C(C)C1CCC2C3CCC4C5(C)CCC(OC6OC(C)C(O)C(O)C6O)C(C)(C)C5CCC4(C)C3(C)CCC12C

>  <score_type>  (12) 
oracle

>  <origin>  (12) 
adg

>  <m_score__min__energy>  (12) 
-8.3900000000000006

>  <m_primary>  (12) 
energy

$$$$
12:0
     RDKit          3D

 51 55  0  0  0  0  0  0  0  0999 V2000
   60.9160   30.3360   47.8700 C   0  0  0  0  0  0  0  0  0  0  0  0
   59.7990   30.4230   48.7290 O   0  0  0  0  0  0  0  0  0  0  0  0
   60.2190   30.3830   50.0800 C   0  0  0  0  0  0  0  0  0  0  0  0
   59.6980   31.5850   50.8390 C   0  0  0  0  0  0  0  0  0  0  0  0
   58.4170   31.5080   51.4120 C   0  0  0  0  0  0  0  0  0  0  0  0
   57.9110   32.5670   52.1680 C   0  0  0  0  0  0  0  0  0  0  0  0
   58.6810   33.7130   52.3720 C   0  0  0  0  0  0  0  0  0  0  0  0
   58.1900   34.7360   53.1120 F   0  0  0  0  0  0  0  0  0  0  0  0
   59.9570   33.8040   51.8130 C   0  0  0  0  0  0  0  0  0  0  0  0
   60.4710   32.7560   51.0340 C   0  0  0  0  0  0  0  0  0  0  0  0
   61.8170   32.9150   50.4500 C   0  0  0  0  0  0  0  0  0  0  0  0
   62.8740   32.3320   51.0770 N   0  0  0  0  0  0  0  0  0  0  0  0
   64.1330   32.4220   50.5790 C   0  0  0  0  0  0  0  0  0  0  0  0
   64.3540   33.1240   49.3960 C   0  0  0  0  0  0  0  0  0  0  0  0
   63.3060   33.7190   48.7700 N   0  0  0  0  0  0  0  0  0  0  0  0
   62.0400   33.6570   49.2670 C   0  0  0  0  0  0  0  0  0  0  0  0
   60.8960   34.3230   48.5270 C   0  0  0  0  0  0  0  0  0  0  0  0
   60.9920   34.2070   47.0330 C   0  0  0  0  0  0  0  0  0  0  0  0
   59.7610   33.4190   46.8530 N   0  0  0  0  0  0  0  0  0  0  0  0
   59.0320   32.8510   45.7670 C   0  0  0  0  0  0  0  0  0  0  0  0
   58.6320   33.6500   44.6890 C   0  0  0  0  0  0  0  0  0  0  0  0
   57.9190   33.0780   43.6340 C   0  0  0  0  0  0  0  0  0  0  0  0
   57.6100   31.7110   43.6630 C   0  0  0  0  0  0  0  0  0  0  0  0
   56.8950   31.1030   42.6200 C   0  0  0  0  0  0  0  0  0  0  0  0
   56.6030   29.7360   42.6800 C   0  0  0  0  0  0  0  0  0  0  0  0
   57.0230   28.9730   43.7750 C   0  0  0  0  0  0  0  0  0  0  0  0
   57.7360   29.5720   44.8170 C   0  0  0  0  0  0  0  0  0  0  0  0
   58.0330   30.9390   44.7680 C   0  0  0  0  0  0  0  0  0  0  0  0
   58.7250   31.5260   45.7810 N   0  0  0  0  0  0  0  0  0  0  0  0
   59.6550   33.5000   48.3210 C   0  0  0  0  0  0  0  0  0  0  0  0
   61.8352   30.2644   48.4699 H   0  0  0  0  0  0  0  0  0  0  0  0
   60.8218   29.4425   47.2354 H   0  0  0  0  0  0  0  0  0  0  0  0
   60.9613   31.2333   47.2354 H   0  0  0  0  0  0  0  0  0  0  0  0
   59.8357   29.4654   50.5501 H   0  0  0  0  0  0  0  0  0  0  0  0
   61.3185   30.3964   50.1087 H   0  0  0  0  0  0  0  0  0  0  0  0
   57.8072   30.6046   51.2634 H   0  0  0  0  0  0  0  0  0  0  0  0
   56.9034   32.4980   52.6038 H   0  0  0  0  0  0  0  0  0  0  0  0
   60.5646   34.7047   51.9846 H   0  0  0  0  0  0  0  0  0  0  0  0
   64.9727   31.9444   51.1052 H   0  0  0  0  0  0  0  0  0  0  0  0
   65.3670   33.1956   48.9734 H   0  0  0  0  0  0  0  0  0  0  0  0
   60.9024   35.2640   49.0966 H   0  0  0  0  0  0  0  0  0  0  0  0
   60.9477   35.1834   46.5284 H   0  0  0  0  0  0  0  0  0  0  0  0
   61.9207   33.7824   46.6240 H   0  0  0  0  0  0  0  0  0  0  0  0
   58.8781   34.7220   44.6736 H   0  0  0  0  0  0  0  0  0  0  0  0
   57.6007   33.6978   42.7828 H   0  0  0  0  0  0  0  0  0  0  0  0
   56.5647   31.6998   41.7570 H   0  0  0  0  0  0  0  0  0  0  0  0
   56.0411   29.2593   41.8632 H   0  0  0  0  0  0  0  0  0  0  0  0
   56.7913   27.8985   43.8158 H   0  0  0  0  0  0  0  0  0  0  0  0
   58.0641   28.9688   45.6764 H   0  0  0  0  0  0  0  0  0  0  0  0
   58.7427   34.0175   48.6526 H   0  0  0  0  0  0  0  0  0  0  0  0
   59.5878   32.5497   48.8710 H   0  0  0  0  0  0  0  0  0  0  0  0
  1  2  1  0
  2  3  1  0
  3  4  1  0
  4  5  2  0
  5  6  1  0
  6  7  2  0
  7  8  1  0
  7  9  1  0
  9 10  2  0
 10 11  1  0
 11 12  2  0
 12 13  1  0
 13 14  2  0
 14 15  1  0
 15 16  2  0
 16 17  1  0
 17 18  1  0
 18 19  1  0
 19 20  1  0
 20 21  2  0
 21 22  1  0
 22 23  2  0
 23 24  1  0
 24 25  2  0
 25 26  1  0
 26 27  2  0
 27 28  1  0
 28 29  2  0
 19 30  1  0
 10  4  1  0
 16 11  1  0
 30 17  1  0
 29 20  1  0
 28 23  1  0
  1 31  1  0
  1 32  1  0
  1 33  1  0
  3 34  1  0
  3 35  1  0
  5 36  1  0
  6 37  1  0
  9 38  1  0
 13 39  1  0
 14 40  1  0
 17 41  1  0
 18 42  1  0
 18 43  1  0
 21 44  1  0
 22 45  1  0
 24 46  1  0
 25 47  1  0
 26 48  1  0
 27 49  1  0
 30 50  1  0
 30 51  1  0
M  END
>  <UniqueID>  (13) 
12

>  <SMILES>  (13) 
COCc1ccc(F)cc1-c1nccnc1C1CN(c2ccc3ccccc3n2)C1

>  <Energy>  (13) 
116.88004629367967

>  <Genealogy>  (13) 
COCc1ccc(F)cc1-c1nccnc1C1CN(c2ccc3ccccc3n2)C1 (3D coordinates assigned)
COCc1ccc(F)cc1-c1nccnc1C1CN(c2ccc3ccccc3n2)C1 (nonaromatic ring conformer: 116.88004629367967 kcal/mol)

>  <smiles>  (13) 
COCc1ccc(F)cc1-c1nccnc1C1CN(c2ccc3ccccc3n2)C1

>  <score_type>  (13) 
oracle

>  <origin>  (13) 
adg

>  <m_score__min__energy>  (13) 
-8.1999999999999993

>  <m_primary>  (13) 
energy

$$$$
13:0
     RDKit          3D

 69 70  0  0  0  0  0  0  0  0999 V2000
   60.0480   28.0840   46.8450 C   0  0  0  0  0  0  0  0  0  0  0  0
   58.6400   28.0700   46.2490 C   0  0  0  0  0  0  0  0  0  0  0  0
   58.5680   28.7910   44.8960 C   0  0  0  0  0  0  0  0  0  0  0  0
   58.2670   30.2500   45.0610 C   0  0  0  0  0  0  0  0  0  0  0  0
   58.8970   31.1130   45.9460 C   0  0  0  0  0  0  0  0  0  0  0  0
   58.4730   32.4440   45.8120 C   0  0  0  0  0  0  0  0  0  0  0  0
   58.9660   33.5540   46.6460 C   0  0  0  0  0  0  0  0  0  0  0  0
   58.2590   34.5930   46.7590 O   0  0  0  0  0  0  0  0  0  0  0  0
   60.2250   33.4520   47.3390 N   0  0  0  0  0  0  0  0  0  0  0  0
   60.6840   34.3710   48.3920 C   0  0  1  0  0  0  0  0  0  0  0  0
   59.6450   34.5460   49.5260 C   0  0  0  0  0  0  0  0  0  0  0  0
   59.4900   33.3000   50.4340 C   0  0  0  0  0  0  0  0  0  0  0  0
   59.3190   33.7210   51.9230 C   0  0  0  0  0  0  0  0  0  0  0  0
   57.8570   33.6680   52.3760 C   0  0  0  0  0  0  0  0  0  0  0  0
   57.2830   32.2400   52.2570 C   0  0  0  0  0  0  0  0  0  0  0  0
   57.8620   31.4440   51.0720 C   0  0  0  0  0  0  0  0  0  0  0  0
   58.3440   32.3680   49.9490 C   0  0  0  0  0  0  0  0  0  0  0  0
   62.0250   33.9240   48.9180 C   0  0  0  0  0  0  0  0  0  0  0  0
   63.0600   34.5760   48.6070 O   0  0  0  0  0  0  0  0  0  0  0  0
   62.1290   32.7210   49.6860 N   0  0  0  0  0  0  0  0  0  0  0  0
   61.5620   31.4300   49.2980 C   0  0  1  0  0  0  0  0  0  0  0  0
   62.1060   31.0110   47.9520 C   0  0  0  0  0  0  0  0  0  0  0  0
   62.8300   31.7450   47.2980 O   0  0  0  0  0  0  0  0  0  0  0  0
   61.7720   30.3670   50.3980 C   0  0  0  0  0  0  0  0  0  0  0  0
   63.2590   30.2400   50.8100 C   0  0  0  0  0  0  0  0  0  0  0  0
   63.7230   31.4110   51.6920 C   0  0  0  0  0  0  0  0  0  0  0  0
   65.0710   31.8320   51.3160 N   0  0  0  0  0  0  0  0  0  0  0  0
   65.4730   32.2340   49.9930 C   0  0  0  0  0  0  0  0  0  0  0  0
   66.8380   32.6000   49.7620 N   0  0  0  0  0  0  0  0  0  0  0  0
   64.6340   32.2510   48.9990 N   0  0  0  0  0  0  0  0  0  0  0  0
   57.5370   32.6290   44.7990 C   0  0  0  0  0  0  0  0  0  0  0  0
   57.2140   31.1370   44.1000 S   0  0  0  0  0  0  0  0  0  0  0  0
   59.9814   28.0833   47.9430 H   0  0  0  0  0  0  0  0  0  0  0  0
   60.5967   27.1913   46.5104 H   0  0  0  0  0  0  0  0  0  0  0  0
   60.5788   28.9875   46.5104 H   0  0  0  0  0  0  0  0  0  0  0  0
   58.3264   27.0250   46.1091 H   0  0  0  0  0  0  0  0  0  0  0  0
   57.9760   28.6012   46.9469 H   0  0  0  0  0  0  0  0  0  0  0  0
   59.5345   28.6822   44.3822 H   0  0  0  0  0  0  0  0  0  0  0  0
   57.7561   28.3375   44.3084 H   0  0  0  0  0  0  0  0  0  0  0  0
   59.6513   30.7874   46.6775 H   0  0  0  0  0  0  0  0  0  0  0  0
   60.8110   32.5980   47.1860 H   0  0  0  0  0  0  0  0  0  0  0  0
   60.8001   35.3676   47.9411 H   0  0  0  0  0  0  0  0  0  0  0  0
   59.9562   35.3947   50.1528 H   0  0  0  0  0  0  0  0  0  0  0  0
   58.6707   34.7122   49.0432 H   0  0  0  0  0  0  0  0  0  0  0  0
   60.4161   32.7109   50.3614 H   0  0  0  0  0  0  0  0  0  0  0  0
   59.9099   33.0403   52.5535 H   0  0  0  0  0  0  0  0  0  0  0  0
   59.6651   34.7605   52.0214 H   0  0  0  0  0  0  0  0  0  0  0  0
   57.7952   33.9925   53.4252 H   0  0  0  0  0  0  0  0  0  0  0  0
   57.2687   34.3333   51.7270 H   0  0  0  0  0  0  0  0  0  0  0  0
   57.5080   31.6954   53.1859 H   0  0  0  0  0  0  0  0  0  0  0  0
   56.2012   32.3385   52.0840 H   0  0  0  0  0  0  0  0  0  0  0  0
   58.7115   30.8426   51.4279 H   0  0  0  0  0  0  0  0  0  0  0  0
   57.0652   30.8018   50.6688 H   0  0  0  0  0  0  0  0  0  0  0  0
   58.7113   31.7542   49.1133 H   0  0  0  0  0  0  0  0  0  0  0  0
   57.4987   32.9956   49.6302 H   0  0  0  0  0  0  0  0  0  0  0  0
   60.4720   31.5323   49.1908 H   0  0  0  0  0  0  0  0  0  0  0  0
   61.8434   30.0207   47.5517 H   0  0  0  0  0  0  0  0  0  0  0  0
   61.1821   30.6504   51.2821 H   0  0  0  0  0  0  0  0  0  0  0  0
   61.4480   29.3956   49.9961 H   0  0  0  0  0  0  0  0  0  0  0  0
   63.3922   29.3020   51.3689 H   0  0  0  0  0  0  0  0  0  0  0  0
   63.8644   30.2504   49.8916 H   0  0  0  0  0  0  0  0  0  0  0  0
   63.0310   32.2565   51.5647 H   0  0  0  0  0  0  0  0  0  0  0  0
   63.7324   31.0836   52.7421 H   0  0  0  0  0  0  0  0  0  0  0  0
   65.7980   31.8470   52.0600 H   0  0  0  0  0  0  0  0  0  0  0  0
   67.1710   32.8890   48.8150 H   0  0  0  0  0  0  0  0  0  0  0  0
   67.5210   32.5920   50.5490 H   0  0  0  0  0  0  0  0  0  0  0  0
   63.6510   32.5810   49.1460 H   0  0  0  0  0  0  0  0  0  0  0  0
   64.8980   31.9420   48.0410 H   0  0  0  0  0  0  0  0  0  0  0  0
   57.0859   33.5886   44.5063 H   0  0  0  0  0  0  0  0  0  0  0  0
  1  2  1  0
  2  3  1  0
  3  4  1  0
  4  5  2  0
  5  6  1  0
  6  7  1  0
  7  8  2  0
  7  9  1  0
  9 10  1  0
 10 11  1  0
 11 12  1  0
 12 13  1  0
 13 14  1  0
 14 15  1  0
 15 16  1  0
 16 17  1  0
 10 18  1  0
 18 19  2  0
 18 20  1  0
 20 21  1  0
 21 22  1  0
 22 23  2  0
 21 24  1  0
 24 25  1  0
 25 26  1  0
 26 27  1  0
 27 28  1  0
 28 29  1  0
 28 30  2  0
  6 31  2  0
 31 32  1  0
 32  4  1  0
 17 12  1  0
  1 33  1  0
  1 34  1  0
  1 35  1  0
  2 36  1  0
  2 37  1  0
  3 38  1  0
  3 39  1  0
  5 40  1  0
  9 41  1  0
 10 42  1  6
 11 43  1  0
 11 44  1  0
 12 45  1  0
 13 46  1  0
 13 47  1  0
 14 48  1  0
 14 49  1  0
 15 50  1  0
 15 51  1  0
 16 52  1  0
 16 53  1  0
 17 54  1  0
 17 55  1  0
 21 56  1  6
 22 57  1  0
 24 58  1  0
 24 59  1  0
 25 60  1  0
 25 61  1  0
 26 62  1  0
 26 63  1  0
 27 64  1  0
 29 65  1  0
 29 66  1  0
 30 67  1  0
 30 68  1  0
 31 69  1  0
M  CHG  2  20  -1  30   1
M  END
>  <UniqueID>  (14) 
13

>  <SMILES>  (14) 
CCCc1cc(C(=O)N[C@@H](CC2CCCCC2)C(=O)[N-][C@@H](C=O)CCCNC(N)=[NH2+])cs1

>  <Energy>  (14) 
85.80157922144897

>  <Genealogy>  (14) 
CCCc1cc(C(=O)NC(CC2CCCCC2)C(=O)[N-]C(C=O)CCCNC(N)=[NH2+])cs1 (protonated)
CCCc1cc(C(=O)N[C@@H](CC2CCCCC2)C(=O)[N-][C@@H](C=O)CCCNC(N)=[NH2+])cs1 (chirality)
CCCc1cc(C(=O)N[C@@H](CC2CCCCC2)C(=O)[N-][C@@H](C=O)CCCNC(N)=[NH2+])cs1 (3D coordinates assigned)
CCCc1cc(C(=O)N[C@@H](CC2CCCCC2)C(=O)[N-][C@@H](C=O)CCCNC(N)=[NH2+])cs1 (nonaromatic ring conformer: 85.80157922144897 kcal/mol)

>  <smiles>  (14) 
CCCc1cc(C(=O)NC(CC2CCCCC2)C(=O)NC(C=O)CCCNC(=N)N)cs1

>  <score_type>  (14) 
oracle

>  <origin>  (14) 
adg

>  <m_score__min__energy>  (14) 
-8.5

>  <m_primary>  (14) 
energy

$$$$
14:0
     RDKit          3D

 36 39  0  0  0  0  0  0  0  0999 V2000
   57.3700   32.5870   42.4670 O   0  0  0  0  0  0  0  0  0  0  0  0
   57.5090   31.7210   43.3730 C   0  0  0  0  0  0  0  0  0  0  0  0
   57.6300   30.4180   43.0160 N   0  0  0  0  0  0  0  0  0  0  0  0
   57.7950   29.4410   43.9400 C   0  0  0  0  0  0  0  0  0  0  0  0
   57.9160   28.1080   43.5350 C   0  0  0  0  0  0  0  0  0  0  0  0
   58.0940   27.1010   44.4880 C   0  0  0  0  0  0  0  0  0  0  0  0
   58.1530   27.4220   45.8480 C   0  0  0  0  0  0  0  0  0  0  0  0
   58.3980   26.0410   47.1440 Br  0  0  0  0  0  0  0  0  0  0  0  0
   58.0340   28.7550   46.2590 C   0  0  0  0  0  0  0  0  0  0  0  0
   57.8530   29.7750   45.3050 C   0  0  0  0  0  0  0  0  0  0  0  0
   57.7280   31.1280   45.6650 C   0  0  0  0  0  0  0  0  0  0  0  0
   57.7920   31.4590   46.8830 O   0  0  0  0  0  0  0  0  0  0  0  0
   57.5420   32.0870   44.6970 N   0  0  0  0  0  0  0  0  0  0  0  0
   57.4390   33.5090   45.0770 C   0  0  0  0  0  0  0  0  0  0  0  0
   58.7490   33.9930   45.6120 C   0  0  0  0  0  0  0  0  0  0  0  0
   59.5600   33.2740   46.4070 N   0  0  0  0  0  0  0  0  0  0  0  0
   60.5740   34.1320   46.6500 C   0  0  0  0  0  0  0  0  0  0  0  0
   61.7600   33.8380   47.4930 C   0  0  0  0  0  0  0  0  0  0  0  0
   61.6980   34.0430   48.8850 C   0  0  0  0  0  0  0  0  0  0  0  0
   62.8070   33.7690   49.6910 C   0  0  0  0  0  0  0  0  0  0  0  0
   63.9880   33.2890   49.1210 C   0  0  0  0  0  0  0  0  0  0  0  0
   64.0620   33.0820   47.7420 C   0  0  0  0  0  0  0  0  0  0  0  0
   62.9560   33.3530   46.9290 C   0  0  0  0  0  0  0  0  0  0  0  0
   60.3740   35.3140   46.0280 N   0  0  0  0  0  0  0  0  0  0  0  0
   59.2400   35.1900   45.4030 O   0  0  0  0  0  0  0  0  0  0  0  0
   57.8711   27.8518   42.4662 H   0  0  0  0  0  0  0  0  0  0  0  0
   58.1880   26.0530   44.1674 H   0  0  0  0  0  0  0  0  0  0  0  0
   58.0820   29.0061   47.3289 H   0  0  0  0  0  0  0  0  0  0  0  0
   57.1650   34.1032   44.1928 H   0  0  0  0  0  0  0  0  0  0  0  0
   56.6690   33.6195   45.8547 H   0  0  0  0  0  0  0  0  0  0  0  0
   59.4160   32.2980   46.7440 H   0  0  0  0  0  0  0  0  0  0  0  0
   60.7711   34.4211   49.3410 H   0  0  0  0  0  0  0  0  0  0  0  0
   62.7491   33.9320   50.7773 H   0  0  0  0  0  0  0  0  0  0  0  0
   64.8590   33.0742   49.7576 H   0  0  0  0  0  0  0  0  0  0  0  0
   64.9928   32.7047   47.2934 H   0  0  0  0  0  0  0  0  0  0  0  0
   63.0209   33.1864   45.8436 H   0  0  0  0  0  0  0  0  0  0  0  0
  1  2  2  0
  2  3  1  0
  3  4  1  0
  4  5  2  0
  5  6  1  0
  6  7  2  0
  7  8  1  0
  7  9  1  0
  9 10  2  0
 10 11  1  0
 11 12  2  0
 11 13  1  0
 13 14  1  0
 14 15  1  0
 15 16  2  0
 16 17  1  0
 17 18  1  0
 18 19  2  0
 19 20  1  0
 20 21  2  0
 21 22  1  0
 22 23  2  0
 17 24  2  0
 24 25  1  0
 13  2  1  0
 25 15  1  0
 10  4  1  0
 23 18  1  0
  5 26  1  0
  6 27  1  0
  9 28  1  0
 14 29  1  0
 14 30  1  0
 16 31  1  0
 19 32  1  0
 20 33  1  0
 21 34  1  0
 22 35  1  0
 23 36  1  0
M  CHG  2   3  -1  16   1
M  END
>  <UniqueID>  (15) 
14

>  <SMILES>  (15) 
O=c1[n-]c2ccc(Br)cc2c(=O)n1Cc1[nH+]c(-c2ccccc2)no1

>  <Energy>  (15) 
83.76081684403775

>  <Genealogy>  (15) 
O=c1[n-]c2ccc(Br)cc2c(=O)n1Cc1[nH+]c(-c2ccccc2)no1 (protonated)
O=c1[n-]c2ccc(Br)cc2c(=O)n1Cc1[nH+]c(-c2ccccc2)no1 (3D coordinates assigned)
O=c1[n-]c2ccc(Br)cc2c(=O)n1Cc1[nH+]c(-c2ccccc2)no1 (optimized conformer: 83.76081684403775 kcal/mol)

>  <smiles>  (15) 
O=c1[nH]c2ccc(Br)cc2c(=O)n1Cc1nc(-c2ccccc2)no1

>  <score_type>  (15) 
oracle

>  <origin>  (15) 
adg

>  <m_score__min__energy>  (15) 
-7.5300000000000002

>  <m_primary>  (15) 
energy

$$$$
15:0
     RDKit          3D

 36 36  0  0  0  0  0  0  0  0999 V2000
   55.9900   27.3240   46.9360 H   0  0  0  0  0  0  0  0  0  0  0  0
   55.8690   26.6200   46.2470 O   0  0  0  0  0  0  0  0  0  0  0  0
   57.1480   26.1400   45.9210 C   0  0  2  0  0  0  0  0  0  0  0  0
   57.5961   25.6245   46.7833 H   0  0  0  0  0  0  0  0  0  0  0  0
   58.0830   27.3150   45.5890 C   0  0  0  0  0  0  0  0  0  0  0  0
   59.0265   27.1953   46.1417 H   0  0  0  0  0  0  0  0  0  0  0  0
   58.2785   27.3217   44.5065 H   0  0  0  0  0  0  0  0  0  0  0  0
   57.4590   28.5840   45.9680 N   0  0  0  0  0  0  0  0  0  0  0  0
   56.8300   29.3940   45.1640 C   0  0  0  0  0  0  0  0  0  0  0  0
   57.3600   30.7320   44.8200 C   0  0  0  0  0  0  0  0  0  0  0  0
   57.8500   31.5940   45.8110 C   0  0  0  0  0  0  0  0  0  0  0  0
   57.8355   31.2840   46.8663 H   0  0  0  0  0  0  0  0  0  0  0  0
   58.3560   32.8450   45.4580 C   0  0  0  0  0  0  0  0  0  0  0  0
   58.7341   33.5296   46.2316 H   0  0  0  0  0  0  0  0  0  0  0  0
   58.3780   33.2200   44.1130 C   0  0  0  0  0  0  0  0  0  0  0  0
   58.7698   34.2066   43.8249 H   0  0  0  0  0  0  0  0  0  0  0  0
   57.9160   32.3680   43.1580 N   0  0  0  0  0  0  0  0  0  0  0  0
   57.9430   32.6600   42.1560 H   0  0  0  0  0  0  0  0  0  0  0  0
   57.4170   31.1420   43.4800 C   0  0  0  0  0  0  0  0  0  0  0  0
   57.0574   30.4710   42.6860 H   0  0  0  0  0  0  0  0  0  0  0  0
   55.5560   29.0030   44.6510 N   0  0  0  0  0  0  0  0  0  0  0  0
   55.0250   29.6300   44.0070 H   0  0  0  0  0  0  0  0  0  0  0  0
   55.1450   28.0770   44.9040 H   0  0  0  0  0  0  0  0  0  0  0  0
   57.0410   25.0910   44.7890 C   0  0  0  0  0  0  0  0  0  0  0  0
   57.9309   24.4468   44.8437 H   0  0  0  0  0  0  0  0  0  0  0  0
   56.9572   25.6710   43.8581 H   0  0  0  0  0  0  0  0  0  0  0  0
   55.7980   24.1790   44.8190 C   0  0  0  0  0  0  0  0  0  0  0  0
   54.9058   24.8093   44.9487 H   0  0  0  0  0  0  0  0  0  0  0  0
   55.9323   23.4733   45.6520 H   0  0  0  0  0  0  0  0  0  0  0  0
   55.6240   23.3460   43.5420 C   0  0  0  0  0  0  0  0  0  0  0  0
   55.5228   24.0241   42.6818 H   0  0  0  0  0  0  0  0  0  0  0  0
   54.7241   22.7229   43.6512 H   0  0  0  0  0  0  0  0  0  0  0  0
   56.8230   22.4300   43.3160 C   0  0  0  0  0  0  0  0  0  0  0  0
   57.2332   22.1166   44.2873 H   0  0  0  0  0  0  0  0  0  0  0  0
   56.5049   21.5428   42.7489 H   0  0  0  0  0  0  0  0  0  0  0  0
   57.5954   22.9702   42.7489 H   0  0  0  0  0  0  0  0  0  0  0  0
  1  2  1  0
  2  3  1  0
  3  4  1  1
  3  5  1  0
  5  6  1  0
  5  7  1  0
  5  8  1  0
  8  9  2  0
  9 10  1  0
 10 11  2  0
 11 12  1  0
 11 13  1  0
 13 14  1  0
 13 15  2  0
 15 16  1  0
 15 17  1  0
 17 18  1  0
 17 19  2  0
 19 20  1  0
  9 21  1  0
 21 22  1  0
 21 23  1  0
  3 24  1  0
 24 25  1  0
 24 26  1  0
 24 27  1  0
 27 28  1  0
 27 29  1  0
 27 30  1  0
 30 31  1  0
 30 32  1  0
 30 33  1  0
 33 34  1  0
 33 35  1  0
 33 36  1  0
 19 10  1  0
M  CHG  1  17   1
M  END
>  <UniqueID>  (16) 
15

>  <SMILES>  (16) 
CCCC[C@H](O)C/N=C(/N)c1ccc[nH+]c1

>  <Energy>  (16) 
30.943245350754616

>  <Genealogy>  (16) 
CCCCC(O)CN=C(N)c1ccc[nH+]c1 (protonated)
CCCC[C@H](O)CN=C(N)c1ccc[nH+]c1 (chirality)
CCCC[C@H](O)C/N=C(/N)c1ccc[nH+]c1 (cis-trans isomerization)
CCCC[C@H](O)C/N=C(/N)c1ccc[nH+]c1 (3D coordinates assigned)
CCCC[C@H](O)C/N=C(/N)c1ccc[nH+]c1 (optimized conformer: 30.943245350754616 kcal/mol)

>  <smiles>  (16) 
CCCCC(O)CN=C(N)c1cccnc1

>  <score_type>  (16) 
oracle

>  <origin>  (16) 
adg

>  <m_score__min__energy>  (16) 
-4.9400000000000004

>  <m_primary>  (16) 
energy

$$$$
16:0
     RDKit          3D

 38 40  0  0  0  0  0  0  0  0999 V2000
   59.1827   34.6496   43.8439 H   0  0  0  0  0  0  0  0  0  0  0  0
   58.7840   33.8480   44.4830 C   0  0  0  0  0  0  0  0  0  0  0  0
   59.1270   33.8000   45.8370 C   0  0  0  0  0  0  0  0  0  0  0  0
   59.7948   34.5635   46.2626 H   0  0  0  0  0  0  0  0  0  0  0  0
   58.6210   32.7810   46.6510 C   0  0  0  0  0  0  0  0  0  0  0  0
   59.0620   32.7120   48.3470 Cl  0  0  0  0  0  0  0  0  0  0  0  0
   57.7680   31.8120   46.1110 C   0  0  0  0  0  0  0  0  0  0  0  0
   57.3728   31.0110   46.7531 H   0  0  0  0  0  0  0  0  0  0  0  0
   57.4140   31.8580   44.7510 C   0  0  0  0  0  0  0  0  0  0  0  0
   56.5440   30.7840   44.1600 C   0  0  0  0  0  0  0  0  0  0  0  0
   56.6497   30.7905   43.0651 H   0  0  0  0  0  0  0  0  0  0  0  0
   55.4960   30.9757   44.4339 H   0  0  0  0  0  0  0  0  0  0  0  0
   56.9560   29.4410   44.6920 C   0  0  0  0  0  0  0  0  0  0  0  0
   55.9950   28.5550   45.0910 N   0  0  0  0  0  0  0  0  0  0  0  0
   56.2910   27.3260   45.6250 C   0  0  0  0  0  0  0  0  0  0  0  0
   55.3480   26.5080   45.9970 N   0  0  0  0  0  0  0  0  0  0  0  0
   55.2530   25.0690   45.7210 C   0  0  0  0  0  0  0  0  0  0  0  0
   55.7926   24.8796   44.7814 H   0  0  0  0  0  0  0  0  0  0  0  0
   53.8010   24.6280   45.4970 C   0  0  0  0  0  0  0  0  0  0  0  0
   53.3090   24.4786   46.4694 H   0  0  0  0  0  0  0  0  0  0  0  0
   53.2654   25.4040   44.9305 H   0  0  0  0  0  0  0  0  0  0  0  0
   53.7874   23.6852   44.9305 H   0  0  0  0  0  0  0  0  0  0  0  0
   55.9420   24.2400   46.8110 C   0  0  0  0  0  0  0  0  0  0  0  0
   55.6355   24.6088   47.8010 H   0  0  0  0  0  0  0  0  0  0  0  0
   55.6517   23.1841   46.7071 H   0  0  0  0  0  0  0  0  0  0  0  0
   57.0332   24.3322   46.7071 H   0  0  0  0  0  0  0  0  0  0  0  0
   57.6350   26.9400   45.7840 C   0  0  0  0  0  0  0  0  0  0  0  0
   57.9019   25.9579   46.2015 H   0  0  0  0  0  0  0  0  0  0  0  0
   58.6120   27.8480   45.3930 C   0  0  0  0  0  0  0  0  0  0  0  0
   59.9860   27.7630   45.4460 C   0  0  0  0  0  0  0  0  0  0  0  0
   60.5904   26.9206   45.8136 H   0  0  0  0  0  0  0  0  0  0  0  0
   60.4440   28.9730   44.9340 C   0  0  0  0  0  0  0  0  0  0  0  0
   61.5047   29.2455   44.8303 H   0  0  0  0  0  0  0  0  0  0  0  0
   59.4090   29.7690   44.5810 N   0  0  0  0  0  0  0  0  0  0  0  0
   59.4800   30.7260   44.1730 H   0  0  0  0  0  0  0  0  0  0  0  0
   58.2940   29.0700   44.8660 C   0  0  0  0  0  0  0  0  0  0  0  0
   57.9350   32.8790   43.9390 C   0  0  0  0  0  0  0  0  0  0  0  0
   57.6742   32.9165   42.8710 H   0  0  0  0  0  0  0  0  0  0  0  0
  1  2  1  0
  2  3  2  0
  3  4  1  0
  3  5  1  0
  5  6  1  0
  5  7  2  0
  7  8  1  0
  7  9  1  0
  9 10  1  0
 10 11  1  0
 10 12  1  0
 10 13  1  0
 13 14  1  0
 14 15  1  0
 15 16  2  0
 16 17  1  0
 17 18  1  0
 17 19  1  0
 19 20  1  0
 19 21  1  0
 19 22  1  0
 17 23  1  0
 23 24  1  0
 23 25  1  0
 23 26  1  0
 15 27  1  0
 27 28  1  0
 27 29  2  0
 29 30  1  0
 30 31  1  0
 30 32  2  0
 32 33  1  0
 32 34  1  0
 34 35  1  0
 34 36  1  0
  9 37  2  0
 37 38  1  0
 37  2  1  0
 36 13  2  0
 36 29  1  0
M  CHG  1  14  -1
M  END
>  <UniqueID>  (17) 
16

>  <SMILES>  (17) 
CC(C)/N=c1/cc2cc[nH]c2c(Cc2cccc(Cl)c2)[n-]1

>  <Energy>  (17) 
68.61623304010129

>  <Genealogy>  (17) 
CC(C)N=c1cc2cc[nH]c2c(Cc2cccc(Cl)c2)[n-]1 (protonated)
CC(C)/N=c1/cc2cc[nH]c2c(Cc2cccc(Cl)c2)[n-]1 (cis-trans isomerization)
CC(C)/N=c1/cc2cc[nH]c2c(Cc2cccc(Cl)c2)[n-]1 (3D coordinates assigned)
CC(C)/N=c1/cc2cc[nH]c2c(Cc2cccc(Cl)c2)[n-]1 (optimized conformer: 68.61623304010129 kcal/mol)

>  <smiles>  (17) 
CC(C)N=c1cc2cc[nH]c2c(Cc2cccc(Cl)c2)[nH]1

>  <score_type>  (17) 
oracle

>  <origin>  (17) 
adg

>  <m_score__min__energy>  (17) 
-9.6099999999999994

>  <m_primary>  (17) 
energy

$$$$
17:0
     RDKit          3D

 39 41  0  0  1  0  0  0  0  0999 V2000
   56.7550   29.3790   42.7910 N   0  0  0  0  0  0  0  0  0  0  0  0
   56.6450   29.8500   44.4690 S   0  0  0  0  0  0  0  0  0  0  0  0
   56.6480   31.3580   44.4800 O   0  0  0  0  0  0  0  0  0  0  0  0
   55.3680   29.3160   45.0470 O   0  0  0  0  0  0  0  0  0  0  0  0
   58.0100   29.1920   45.3280 C   0  0  0  0  0  0  0  0  0  0  0  0
   58.9180   28.4370   44.6020 C   0  0  0  0  0  0  0  0  0  0  0  0
   60.0240   27.8880   45.2290 C   0  0  0  0  0  0  0  0  0  0  0  0
   60.1810   28.1180   46.5750 C   0  0  0  0  0  0  0  0  0  0  0  0
   59.2580   28.8800   47.2940 C   0  0  0  0  0  0  0  0  0  0  0  0
   59.5390   29.0420   48.6800 N   0  0  0  0  0  0  0  0  0  0  0  0
   59.2500   30.1530   49.2500 C   0  0  0  0  0  0  0  0  0  0  0  0
   58.6680   30.0560   50.5190 C   0  0  0  0  0  0  0  0  0  0  0  0
   58.3180   31.1960   51.2200 C   0  0  0  0  0  0  0  0  0  0  0  0
   58.5690   32.3710   50.6150 N   0  0  0  0  0  0  0  0  0  0  0  0
   59.1350   32.4360   49.3840 C   0  0  0  0  0  0  0  0  0  0  0  0
   59.3330   33.5930   48.8950 N   0  0  0  0  0  0  0  0  0  0  0  0
   59.0470   33.9160   47.5390 C   0  0  0  0  0  0  0  0  0  0  0  0
   59.9440   34.5640   46.7140 C   0  0  0  0  0  0  0  0  0  0  0  0
   59.5570   34.8310   45.3990 C   0  0  0  0  0  0  0  0  0  0  0  0
   58.3020   34.4540   44.9320 C   0  0  0  0  0  0  0  0  0  0  0  0
   57.4010   33.8040   45.7610 C   0  0  0  0  0  0  0  0  0  0  0  0
   57.7870   33.5350   47.0780 C   0  0  0  0  0  0  0  0  0  0  0  0
   59.4840   31.3510   48.6830 N   0  0  0  0  0  0  0  0  0  0  0  0
   58.1520   29.4340   46.6800 C   0  0  0  0  0  0  0  0  0  0  0  0
   56.5860   28.3340   42.7550 H   0  0  0  0  0  0  0  0  0  0  0  0
   57.7900   29.4580   42.5790 H   0  0  0  0  0  0  0  0  0  0  0  0
   58.7597   28.2736   43.5258 H   0  0  0  0  0  0  0  0  0  0  0  0
   60.7541   27.2866   44.6674 H   0  0  0  0  0  0  0  0  0  0  0  0
   61.0515   27.6931   47.0963 H   0  0  0  0  0  0  0  0  0  0  0  0
   58.4875   29.0656   50.9624 H   0  0  0  0  0  0  0  0  0  0  0  0
   57.8591   31.1445   52.2184 H   0  0  0  0  0  0  0  0  0  0  0  0
   58.3150   33.2470   51.1230 H   0  0  0  0  0  0  0  0  0  0  0  0
   60.9367   34.8620   47.0823 H   0  0  0  0  0  0  0  0  0  0  0  0
   60.2546   35.3468   44.7227 H   0  0  0  0  0  0  0  0  0  0  0  0
   58.0210   34.6745   43.8916 H   0  0  0  0  0  0  0  0  0  0  0  0
   56.4079   33.5074   45.3924 H   0  0  0  0  0  0  0  0  0  0  0  0
   57.0912   33.0188   47.7558 H   0  0  0  0  0  0  0  0  0  0  0  0
   59.9210   31.4120   47.7330 H   0  0  0  0  0  0  0  0  0  0  0  0
   57.4216   30.0371   47.2393 H   0  0  0  0  0  0  0  0  0  0  0  0
  1  2  1  0
  2  3  2  0
  2  4  2  0
  2  5  1  0
  5  6  2  0
  6  7  1  0
  7  8  2  0
  8  9  1  0
  9 10  1  0
 10 11  2  0
 11 12  1  0
 12 13  2  0
 13 14  1  0
 14 15  1  0
 15 16  2  0
 16 17  1  0
 17 18  2  0
 18 19  1  0
 19 20  2  0
 20 21  1  0
 21 22  2  0
 15 23  1  0
  9 24  2  0
 24  5  1  0
 23 11  1  0
 22 17  1  0
  1 25  1  0
  1 26  1  0
  6 27  1  0
  7 28  1  0
  8 29  1  0
 12 30  1  0
 13 31  1  0
 14 32  1  0
 18 33  1  0
 19 34  1  0
 20 35  1  0
 21 36  1  0
 22 37  1  0
 23 38  1  0
 24 39  1  0
M  END
>  <smiles>  (18) 
NS(=O)(=O)c1cccc(N=c2cc[nH]c(=Nc3ccccc3)[nH]2)c1

>  <score_type>  (18) 
oracle

>  <origin>  (18) 
adg

>  <m_score__min__energy>  (18) 
-8.6500000000000004

>  <m_primary>  (18) 
energy

$$$$
18:0
     RDKit          3D

 29 30  0  0  0  0  0  0  0  0999 V2000
   58.5160   32.7310   42.9630 O   0  0  0  0  0  0  0  0  0  0  0  0
   58.1160   32.6190   44.1540 C   0  0  0  0  0  0  0  0  0  0  0  0
   58.6340   33.5850   45.1650 C   0  0  0  0  0  0  0  0  0  0  0  0
   58.6150   33.2280   46.5280 C   0  0  0  0  0  0  0  0  0  0  0  0
   59.1040   34.1030   47.5020 C   0  0  0  0  0  0  0  0  0  0  0  0
   59.6270   35.3410   47.1320 C   0  0  0  0  0  0  0  0  0  0  0  0
   59.6660   35.7060   45.7850 C   0  0  0  0  0  0  0  0  0  0  0  0
   59.1780   34.8360   44.8060 C   0  0  0  0  0  0  0  0  0  0  0  0
   57.1400   31.5010   44.4620 C   0  0  0  0  0  0  0  0  0  0  0  0
   57.7130   30.4900   45.4820 C   0  0  0  0  0  0  0  0  0  0  0  0
   57.1490   29.0740   45.2690 C   0  0  0  0  0  0  0  0  0  0  0  0
   55.7330   29.1210   44.8780 N   0  0  0  0  0  0  0  0  0  0  0  0
   55.5310   29.7460   43.5560 C   0  0  0  0  0  0  0  0  0  0  0  0
   56.5880   30.8140   43.1970 C   0  0  0  0  0  0  0  0  0  0  0  0
   58.2109   32.2501   46.8287 H   0  0  0  0  0  0  0  0  0  0  0  0
   59.0761   33.8140   48.5630 H   0  0  0  0  0  0  0  0  0  0  0  0
   60.0085   36.0295   47.9004 H   0  0  0  0  0  0  0  0  0  0  0  0
   60.0822   36.6815   45.4932 H   0  0  0  0  0  0  0  0  0  0  0  0
   59.2185   35.1293   43.7466 H   0  0  0  0  0  0  0  0  0  0  0  0
   56.2734   31.9786   44.9426 H   0  0  0  0  0  0  0  0  0  0  0  0
   58.8071   30.4567   45.3728 H   0  0  0  0  0  0  0  0  0  0  0  0
   57.4238   30.8230   46.4897 H   0  0  0  0  0  0  0  0  0  0  0  0
   57.7242   28.5739   44.4759 H   0  0  0  0  0  0  0  0  0  0  0  0
   57.2316   28.5194   46.2153 H   0  0  0  0  0  0  0  0  0  0  0  0
   55.2060   29.6670   45.6000 H   0  0  0  0  0  0  0  0  0  0  0  0
   55.5642   28.9560   42.7913 H   0  0  0  0  0  0  0  0  0  0  0  0
   54.5592   30.2601   43.5925 H   0  0  0  0  0  0  0  0  0  0  0  0
   57.4178   30.3310   42.6602 H   0  0  0  0  0  0  0  0  0  0  0  0
   56.1101   31.5783   42.5666 H   0  0  0  0  0  0  0  0  0  0  0  0
  1  2  2  0
  2  3  1  0
  3  4  2  0
  4  5  1  0
  5  6  2  0
  6  7  1  0
  7  8  2  0
  2  9  1  0
  9 10  1  0
 10 11  1  0
 11 12  1  0
 12 13  1  0
 13 14  1  0
  8  3  1  0
 14  9  1  0
  4 15  1  0
  5 16  1  0
  6 17  1  0
  7 18  1  0
  8 19  1  0
  9 20  1  0
 10 21  1  0
 10 22  1  0
 11 23  1  0
 11 24  1  0
 12 25  1  0
 13 26  1  0
 13 27  1  0
 14 28  1  0
 14 29  1  0
M  END
>  <UniqueID>  (19) 
17

>  <SMILES>  (19) 
O=C(c1ccccc1)C1CCNCC1

>  <Energy>  (19) 
38.17939656467343

>  <Genealogy>  (19) 
O=C(c1ccccc1)C1CCNCC1 (3D coordinates assigned)
O=C(c1ccccc1)C1CCNCC1 (nonaromatic ring conformer: 38.17939656467343 kcal/mol)

>  <smiles>  (19) 
O=C(c1ccccc1)C1CCNCC1

>  <score_type>  (19) 
oracle

>  <origin>  (19) 
adg

>  <m_score__min__energy>  (19) 
-6.5199999999999996

>  <m_primary>  (19) 
energy

$$$$
19:0
     RDKit          3D

 45 47  0  0  0  0  0  0  0  0999 V2000
   58.1200   32.3460   41.3030 C   0  0  0  0  0  0  0  0  0  0  0  0
   57.7440   32.0380   42.7170 C   0  0  0  0  0  0  0  0  0  0  0  0
   58.0060   32.9590   43.7360 C   0  0  0  0  0  0  0  0  0  0  0  0
   57.6540   32.6230   45.0470 C   0  0  0  0  0  0  0  0  0  0  0  0
   57.9330   33.5520   46.1860 C   0  0  0  0  0  0  0  0  0  0  0  0
   57.0980   31.4100   45.2990 N   0  0  0  0  0  0  0  0  0  0  0  0
   56.8500   30.5210   44.2990 C   0  0  0  0  0  0  0  0  0  0  0  0
   56.2890   29.3760   44.5480 N   0  0  0  0  0  0  0  0  0  0  0  0
   57.1600   27.9710   45.0810 S   0  0  0  0  0  0  0  0  0  0  0  0
   56.2170   27.0370   45.7850 O   0  0  0  0  0  0  0  0  0  0  0  0
   57.7440   27.2740   43.8850 O   0  0  0  0  0  0  0  0  0  0  0  0
   58.4300   28.4520   46.2030 C   0  0  0  0  0  0  0  0  0  0  0  0
   59.4500   29.3250   45.8000 C   0  0  0  0  0  0  0  0  0  0  0  0
   60.3760   29.7980   46.7340 C   0  0  0  0  0  0  0  0  0  0  0  0
   60.2890   29.4170   48.0810 C   0  0  0  0  0  0  0  0  0  0  0  0
   61.2040   29.9830   49.0360 N   0  0  0  0  0  0  0  0  0  0  0  0
   61.2030   31.3960   49.4180 C   0  0  0  0  0  0  0  0  0  0  0  0
   61.8290   32.2330   48.3330 C   0  0  0  0  0  0  0  0  0  0  0  0
   63.2200   32.2290   48.1350 C   0  0  0  0  0  0  0  0  0  0  0  0
   63.7930   33.0400   47.1500 C   0  0  0  0  0  0  0  0  0  0  0  0
   62.9830   33.8550   46.3540 C   0  0  0  0  0  0  0  0  0  0  0  0
   61.5990   33.8600   46.5420 C   0  0  0  0  0  0  0  0  0  0  0  0
   61.0220   33.0550   47.5290 C   0  0  0  0  0  0  0  0  0  0  0  0
   59.2910   28.5050   48.4690 C   0  0  0  0  0  0  0  0  0  0  0  0
   58.3680   28.0290   47.5350 C   0  0  0  0  0  0  0  0  0  0  0  0
   57.1790   30.8390   43.0210 N   0  0  0  0  0  0  0  0  0  0  0  0
   58.9709   33.0430   41.2934 H   0  0  0  0  0  0  0  0  0  0  0  0
   58.4020   31.4160   40.7877 H   0  0  0  0  0  0  0  0  0  0  0  0
   57.2637   32.8056   40.7877 H   0  0  0  0  0  0  0  0  0  0  0  0
   58.4786   33.9266   43.5113 H   0  0  0  0  0  0  0  0  0  0  0  0
   57.7743   33.0235   47.1376 H   0  0  0  0  0  0  0  0  0  0  0  0
   58.9751   33.8995   46.1290 H   0  0  0  0  0  0  0  0  0  0  0  0
   57.2547   34.4161   46.1290 H   0  0  0  0  0  0  0  0  0  0  0  0
   59.5217   29.6380   44.7479 H   0  0  0  0  0  0  0  0  0  0  0  0
   61.1801   30.4750   46.4098 H   0  0  0  0  0  0  0  0  0  0  0  0
   62.0060   29.3970   49.3660 H   0  0  0  0  0  0  0  0  0  0  0  0
   60.1665   31.7273   49.5791 H   0  0  0  0  0  0  0  0  0  0  0  0
   61.7859   31.5163   50.3430 H   0  0  0  0  0  0  0  0  0  0  0  0
   63.8604   31.5860   48.7566 H   0  0  0  0  0  0  0  0  0  0  0  0
   64.8829   33.0365   47.0015 H   0  0  0  0  0  0  0  0  0  0  0  0
   63.4354   34.4922   45.5798 H   0  0  0  0  0  0  0  0  0  0  0  0
   60.9618   34.4984   45.9124 H   0  0  0  0  0  0  0  0  0  0  0  0
   59.9320   33.0654   47.6765 H   0  0  0  0  0  0  0  0  0  0  0  0
   59.2371   28.1648   49.5137 H   0  0  0  0  0  0  0  0  0  0  0  0
   57.5889   27.3184   47.8482 H   0  0  0  0  0  0  0  0  0  0  0  0
  1  2  1  0
  2  3  1  0
  3  4  2  0
  4  5  1  0
  4  6  1  0
  6  7  1  0
  7  8  2  3
  8  9  1  0
  9 10  2  0
  9 11  2  0
  9 12  1  0
 12 13  2  0
 13 14  1  0
 14 15  2  0
 15 16  1  0
 16 17  1  0
 17 18  1  0
 18 19  2  0
 19 20  1  0
 20 21  2  0
 21 22  1  0
 22 23  2  0
 15 24  1  0
 24 25  2  0
  7 26  1  0
 26  2  2  0
 25 12  1  0
 23 18  1  0
  1 27  1  0
  1 28  1  0
  1 29  1  0
  3 30  1  0
  5 31  1  0
  5 32  1  0
  5 33  1  0
 13 34  1  0
 14 35  1  0
 16 36  1  0
 17 37  1  0
 17 38  1  0
 19 39  1  0
 20 40  1  0
 21 41  1  0
 22 42  1  0
 23 43  1  0
 24 44  1  0
 25 45  1  0
M  CHG  1   6  -1
M  END
>  <UniqueID>  (20) 
18

>  <SMILES>  (20) 
Cc1cc(C)[n-]c(=NS(=O)(=O)c2ccc(NCc3ccccc3)cc2)n1

>  <Energy>  (20) 
45.2963768134591

>  <Genealogy>  (20) 
Cc1cc(C)[n-]c(=NS(=O)(=O)c2ccc(NCc3ccccc3)cc2)n1 (protonated)
Cc1cc(C)[n-]c(=NS(=O)(=O)c2ccc(NCc3ccccc3)cc2)n1 (3D coordinates assigned)
Cc1cc(C)[n-]c(=NS(=O)(=O)c2ccc(NCc3ccccc3)cc2)n1 (optimized conformer: 45.2963768134591 kcal/mol)

>  <smiles>  (20) 
Cc1cc(C)[nH]c(=NS(=O)(=O)c2ccc(NCc3ccccc3)cc2)n1

>  <score_type>  (20) 
oracle

>  <origin>  (20) 
adg

>  <m_score__min__energy>  (20) 
-10.48

>  <m_primary>  (20) 
energy

$$$$
20:0
     RDKit          3D

 29 30  0  0  0  0  0  0  0  0999 V2000
   59.8020   35.3320   46.4770 C   0  0  0  0  0  0  0  0  0  0  0  0
   58.9820   34.1550   46.0360 C   0  0  0  0  0  0  0  0  0  0  0  0
   58.2040   34.2330   44.8720 C   0  0  0  0  0  0  0  0  0  0  0  0
   57.4120   33.1500   44.4810 C   0  0  0  0  0  0  0  0  0  0  0  0
   57.3710   31.9820   45.2500 C   0  0  0  0  0  0  0  0  0  0  0  0
   56.5550   30.9270   44.8130 O   0  0  0  0  0  0  0  0  0  0  0  0
   56.9710   29.8600   43.9580 C   0  0  0  0  0  0  0  0  0  0  0  0
   57.9160   28.9350   44.6780 C   0  0  0  0  0  0  0  0  0  0  0  0
   57.4240   27.9200   45.5160 C   0  0  0  0  0  0  0  0  0  0  0  0
   58.3090   27.0710   46.1890 C   0  0  0  0  0  0  0  0  0  0  0  0
   59.6890   27.2350   46.0370 C   0  0  0  0  0  0  0  0  0  0  0  0
   60.1850   28.2500   45.2160 C   0  0  0  0  0  0  0  0  0  0  0  0
   59.3050   29.1000   44.5410 C   0  0  0  0  0  0  0  0  0  0  0  0
   58.1430   31.9090   46.4260 C   0  0  0  0  0  0  0  0  0  0  0  0
   58.9340   32.9920   46.8180 C   0  0  0  0  0  0  0  0  0  0  0  0
   59.8281   35.3695   47.5761 H   0  0  0  0  0  0  0  0  0  0  0  0
   60.8264   35.2312   46.0891 H   0  0  0  0  0  0  0  0  0  0  0  0
   59.3525   36.2580   46.0891 H   0  0  0  0  0  0  0  0  0  0  0  0
   58.2171   35.1499   44.2645 H   0  0  0  0  0  0  0  0  0  0  0  0
   56.8150   33.2166   43.5595 H   0  0  0  0  0  0  0  0  0  0  0  0
   56.0866   29.2915   43.6344 H   0  0  0  0  0  0  0  0  0  0  0  0
   57.4909   30.2877   43.0880 H   0  0  0  0  0  0  0  0  0  0  0  0
   56.3388   27.7925   45.6433 H   0  0  0  0  0  0  0  0  0  0  0  0
   57.9187   26.2736   46.8384 H   0  0  0  0  0  0  0  0  0  0  0  0
   60.3840   26.5647   46.5640 H   0  0  0  0  0  0  0  0  0  0  0  0
   61.2711   28.3807   45.1004 H   0  0  0  0  0  0  0  0  0  0  0  0
   59.7009   29.9014   43.8999 H   0  0  0  0  0  0  0  0  0  0  0  0
   58.1230   30.9954   47.0384 H   0  0  0  0  0  0  0  0  0  0  0  0
   59.5225   32.9320   47.7454 H   0  0  0  0  0  0  0  0  0  0  0  0
  1  2  1  0
  2  3  2  0
  3  4  1  0
  4  5  2  0
  5  6  1  0
  6  7  1  0
  7  8  1  0
  8  9  2  0
  9 10  1  0
 10 11  2  0
 11 12  1  0
 12 13  2  0
  5 14  1  0
 14 15  2  0
 15  2  1  0
 13  8  1  0
  1 16  1  0
  1 17  1  0
  1 18  1  0
  3 19  1  0
  4 20  1  0
  7 21  1  0
  7 22  1  0
  9 23  1  0
 10 24  1  0
 11 25  1  0
 12 26  1  0
 13 27  1  0
 14 28  1  0
 15 29  1  0
M  END
>  <UniqueID>  (21) 
19

>  <SMILES>  (21) 
Cc1ccc(OCc2ccccc2)cc1

>  <Energy>  (21) 
28.4101136444205

>  <Genealogy>  (21) 
Cc1ccc(OCc2ccccc2)cc1 (3D coordinates assigned)
Cc1ccc(OCc2ccccc2)cc1 (optimized conformer: 28.4101136444205 kcal/mol)

>  <smiles>  (21) 
Cc1ccc(OCc2ccccc2)cc1

>  <score_type>  (21) 
oracle

>  <origin>  (21) 
adg

>  <m_score__min__energy>  (21) 
-6.0099999999999998

>  <m_primary>  (21) 
energy

$$$$
21:0
     RDKit          3D

 40 42  0  0  0  0  0  0  0  0999 V2000
   58.6534   35.5475   43.9577 H   0  0  0  0  0  0  0  0  0  0  0  0
   58.5720   34.9630   44.8860 C   0  0  0  0  0  0  0  0  0  0  0  0
   59.6020   34.9270   45.7340 C   0  0  0  0  0  0  0  0  0  0  0  0
   60.5304   35.4681   45.4991 H   0  0  0  0  0  0  0  0  0  0  0  0
   59.4890   34.1560   46.9910 C   0  0  0  0  0  0  0  0  0  0  0  0
   60.3770   34.4020   47.9740 C   0  0  0  0  0  0  0  0  0  0  0  0
   60.0826   35.1251   48.7489 H   0  0  0  0  0  0  0  0  0  0  0  0
   61.7080   33.7850   48.0990 C   0  0  0  0  0  0  0  0  0  0  0  0
   62.5040   33.7430   46.9980 N   0  0  0  0  0  0  0  0  0  0  0  0
   63.7550   33.2190   47.0510 C   0  0  0  0  0  0  0  0  0  0  0  0
   64.3742   33.1837   46.1425 H   0  0  0  0  0  0  0  0  0  0  0  0
   64.2440   32.7380   48.2240 N   0  0  0  0  0  0  0  0  0  0  0  0
   65.2080   32.3360   48.2550 H   0  0  0  0  0  0  0  0  0  0  0  0
   63.5020   32.7920   49.3600 C   0  0  0  0  0  0  0  0  0  0  0  0
   63.9165   32.4102   50.3047 H   0  0  0  0  0  0  0  0  0  0  0  0
   62.2140   33.3310   49.3320 C   0  0  0  0  0  0  0  0  0  0  0  0
   61.3100   33.4650   50.8360 Cl  0  0  0  0  0  0  0  0  0  0  0  0
   58.3800   33.2230   47.1070 N   0  0  0  0  0  0  0  0  0  0  0  0
   58.5170   31.9070   47.7570 C   0  0  0  0  0  0  0  0  0  0  0  0
   57.5722   31.6543   48.2604 H   0  0  0  0  0  0  0  0  0  0  0  0
   59.3396   31.9598   48.4854 H   0  0  0  0  0  0  0  0  0  0  0  0
   58.8390   30.8350   46.7450 C   0  0  0  0  0  0  0  0  0  0  0  0
   60.1340   30.2940   46.6800 C   0  0  0  0  0  0  0  0  0  0  0  0
   60.9130   30.6534   47.3684 H   0  0  0  0  0  0  0  0  0  0  0  0
   60.4360   29.3020   45.7450 C   0  0  0  0  0  0  0  0  0  0  0  0
   61.4499   28.8774   45.7030 H   0  0  0  0  0  0  0  0  0  0  0  0
   59.4530   28.8480   44.8630 C   0  0  0  0  0  0  0  0  0  0  0  0
   59.6968   28.0635   44.1315 H   0  0  0  0  0  0  0  0  0  0  0  0
   58.1600   29.3830   44.9020 C   0  0  0  0  0  0  0  0  0  0  0  0
   57.2100   28.8940   43.9930 O   0  0  0  0  0  0  0  0  0  0  0  0
   56.5260   29.6970   43.0360 C   0  0  0  0  0  0  0  0  0  0  0  0
   55.8980   30.4342   43.5577 H   0  0  0  0  0  0  0  0  0  0  0  0
   57.2596   30.2209   42.4056 H   0  0  0  0  0  0  0  0  0  0  0  0
   55.8921   29.0561   42.4056 H   0  0  0  0  0  0  0  0  0  0  0  0
   57.8610   30.3870   45.8430 C   0  0  0  0  0  0  0  0  0  0  0  0
   56.8520   30.8242   45.8716 H   0  0  0  0  0  0  0  0  0  0  0  0
   57.2470   33.4170   46.2350 C   0  0  0  0  0  0  0  0  0  0  0  0
   56.3049   32.8889   46.4436 H   0  0  0  0  0  0  0  0  0  0  0  0
   57.3270   34.2300   45.1770 C   0  0  0  0  0  0  0  0  0  0  0  0
   56.4554   34.3531   44.5173 H   0  0  0  0  0  0  0  0  0  0  0  0
  1  2  1  0
  2  3  2  0
  3  4  1  0
  3  5  1  0
  5  6  2  0
  6  7  1  0
  6  8  1  0
  8  9  2  0
  9 10  1  0
 10 11  1  0
 10 12  2  0
 12 13  1  0
 12 14  1  0
 14 15  1  0
 14 16  2  0
 16 17  1  0
  5 18  1  0
 18 19  1  0
 19 20  1  0
 19 21  1  0
 19 22  1  0
 22 23  2  0
 23 24  1  0
 23 25  1  0
 25 26  1  0
 25 27  2  0
 27 28  1  0
 27 29  1  0
 29 30  1  0
 30 31  1  0
 31 32  1  0
 31 33  1  0
 31 34  1  0
 29 35  2  0
 35 36  1  0
 18 37  1  0
 37 38  1  0
 37 39  2  0
 39 40  1  0
 39  2  1  0
 16  8  1  0
 35 22  1  0
M  CHG  1  12   1
M  END
>  <UniqueID>  (22) 
20

>  <SMILES>  (22) 
COc1cccc(CN2C=CC=C/C2=C/c2nc[nH+]cc2Cl)c1

>  <Energy>  (22) 
53.54955061002223

>  <Genealogy>  (22) 
COc1cccc(CN2C=CC=CC2=Cc2nc[nH+]cc2Cl)c1 (protonated)
COc1cccc(CN2C=CC=C/C2=C/c2nc[nH+]cc2Cl)c1 (cis-trans isomerization)
COc1cccc(CN2C=CC=C/C2=C/c2nc[nH+]cc2Cl)c1 (3D coordinates assigned)
COc1cccc(CN2C=CC=C/C2=C/c2nc[nH+]cc2Cl)c1 (nonaromatic ring conformer: 53.54955061002223 kcal/mol)

>  <smiles>  (22) 
COc1cccc(CN2C=CC=CC2=Cc2ncncc2Cl)c1

>  <score_type>  (22) 
oracle

>  <origin>  (22) 
adg

>  <m_score__min__energy>  (22) 
-7.2300000000000004

>  <m_primary>  (22) 
energy

$$$$
22:0
     RDKit          3D

 33 34  0  0  0  0  0  0  0  0999 V2000
   55.1500   28.2040   44.8740 H   0  0  0  0  0  0  0  0  0  0  0  0
   55.2620   29.2380   44.7900 N   0  0  0  0  0  0  0  0  0  0  0  0
   56.4060   29.8510   44.8370 C   0  0  0  0  0  0  0  0  0  0  0  0
   56.4240   31.1980   44.6620 N   0  0  0  0  0  0  0  0  0  0  0  0
   57.5710   31.9290   44.7090 C   0  0  0  0  0  0  0  0  0  0  0  0
   57.5550   33.3460   44.4780 N   0  0  0  0  0  0  0  0  0  0  0  0
   58.3560   34.2430   44.9810 C   0  0  0  0  0  0  0  0  0  0  0  0
   58.4516   35.2017   44.4502 H   0  0  0  0  0  0  0  0  0  0  0  0
   59.1440   34.0570   46.2170 C   0  0  0  0  0  0  0  0  0  0  0  0
   58.5170   33.7810   47.4420 C   0  0  0  0  0  0  0  0  0  0  0  0
   57.4196   33.7283   47.4966 H   0  0  0  0  0  0  0  0  0  0  0  0
   59.2820   33.5730   48.5920 C   0  0  0  0  0  0  0  0  0  0  0  0
   58.7848   33.3756   49.5532 H   0  0  0  0  0  0  0  0  0  0  0  0
   60.6770   33.6150   48.5250 C   0  0  0  0  0  0  0  0  0  0  0  0
   61.2746   33.4576   49.4350 H   0  0  0  0  0  0  0  0  0  0  0  0
   61.3200   33.8580   47.2970 C   0  0  0  0  0  0  0  0  0  0  0  0
   62.7170   33.8970   47.1740 O   0  0  0  0  0  0  0  0  0  0  0  0
   63.5520   32.7460   47.1180 C   0  0  0  0  0  0  0  0  0  0  0  0
   63.7911   32.4164   48.1399 H   0  0  0  0  0  0  0  0  0  0  0  0
   63.0282   31.9386   46.5854 H   0  0  0  0  0  0  0  0  0  0  0  0
   64.4822   32.9933   46.5854 H   0  0  0  0  0  0  0  0  0  0  0  0
   60.5450   34.0670   46.1480 C   0  0  0  0  0  0  0  0  0  0  0  0
   61.0408   34.2408   45.1816 H   0  0  0  0  0  0  0  0  0  0  0  0
   58.7920   31.2830   44.9000 C   0  0  0  0  0  0  0  0  0  0  0  0
   59.7266   31.8631   44.9039 H   0  0  0  0  0  0  0  0  0  0  0  0
   58.8280   29.8940   45.0870 C   0  0  0  0  0  0  0  0  0  0  0  0
   60.1530   29.2100   45.3080 C   0  0  0  0  0  0  0  0  0  0  0  0
   60.3402   29.1134   46.3876 H   0  0  0  0  0  0  0  0  0  0  0  0
   60.1309   28.2107   44.8488 H   0  0  0  0  0  0  0  0  0  0  0  0
   60.9548   29.8068   44.8488 H   0  0  0  0  0  0  0  0  0  0  0  0
   57.6210   29.1600   45.0610 C   0  0  0  0  0  0  0  0  0  0  0  0
   57.6390   27.7260   45.2530 C   0  0  0  0  0  0  0  0  0  0  0  0
   57.6520   26.5780   45.4060 N   0  0  0  0  0  0  0  0  0  0  0  0
  1  2  1  0
  2  3  2  0
  3  4  1  0
  4  5  1  0
  5  6  1  0
  6  7  2  0
  7  8  1  0
  7  9  1  0
  9 10  2  0
 10 11  1  0
 10 12  1  0
 12 13  1  0
 12 14  2  0
 14 15  1  0
 14 16  1  0
 16 17  1  0
 17 18  1  0
 18 19  1  0
 18 20  1  0
 18 21  1  0
 16 22  2  0
 22 23  1  0
  5 24  2  0
 24 25  1  0
 24 26  1  0
 26 27  1  0
 27 28  1  0
 27 29  1  0
 27 30  1  0
 26 31  2  0
 31 32  1  0
 32 33  3  0
 31  3  1  0
 22  9  1  0
M  CHG  1   4  -1
M  END
>  <UniqueID>  (23) 
21

>  <SMILES>  (23) 
[H]/N=c1/[n-]c(/N=C\c2cccc(OC)c2)cc(C)c1C#N

>  <Energy>  (23) 
45.04335175815229

>  <Genealogy>  (23) 
COc1cccc(C=Nc2cc(C)c(C#N)c(=N)[n-]2)c1 (protonated)
[H]/N=c1/[n-]c(/N=C\c2cccc(OC)c2)cc(C)c1C#N (cis-trans isomerization)
[H]/N=c1/[n-]c(/N=C\c2cccc(OC)c2)cc(C)c1C#N (3D coordinates assigned)
[H]/N=c1/[n-]c(/N=C\c2cccc(OC)c2)cc(C)c1C#N (optimized conformer: 45.04335175815229 kcal/mol)

>  <smiles>  (23) 
COc1cccc(C=Nc2cc(C)c(C#N)c(=N)[nH]2)c1

>  <score_type>  (23) 
oracle

>  <origin>  (23) 
adg

>  <m_score__min__energy>  (23) 
-9.3599999999999994

>  <m_primary>  (23) 
energy

$$$$
23:0
     RDKit          3D

 39 41  0  0  0  0  0  0  0  0999 V2000
   54.8080   28.1980   53.1910 C   0  0  0  0  0  0  0  0  0  0  0  0
   53.9400   29.2900   52.6380 C   0  0  0  0  0  0  0  0  0  0  0  0
   52.6390   29.0050   52.3620 N   0  0  0  0  0  0  0  0  0  0  0  0
   51.7750   29.9340   51.8780 C   0  0  0  0  0  0  0  0  0  0  0  0
   52.2050   31.2480   51.6470 C   0  0  0  0  0  0  0  0  0  0  0  0
   51.2670   32.2670   51.1290 C   0  0  0  0  0  0  0  0  0  0  0  0
   51.0150   32.3390   49.8960 O   0  0  0  0  0  0  0  0  0  0  0  0
   50.6490   33.1610   51.9960 O   0  0  0  0  0  0  0  0  0  0  0  0
   53.5450   31.5690   51.9150 C   0  0  0  0  0  0  0  0  0  0  0  0
   54.4320   30.5940   52.3980 C   0  0  0  0  0  0  0  0  0  0  0  0
   55.8420   30.9670   52.6500 C   0  0  0  0  0  0  0  0  0  0  0  0
   56.6520   31.4190   51.6020 C   0  0  0  0  0  0  0  0  0  0  0  0
   57.9830   31.7580   51.8450 C   0  0  0  0  0  0  0  0  0  0  0  0
   58.5070   31.6310   53.1400 C   0  0  0  0  0  0  0  0  0  0  0  0
   59.8740   31.9960   53.4080 N   0  0  0  0  0  0  0  0  0  0  0  0
   60.9650   31.0430   53.1630 C   0  0  0  0  0  0  0  0  0  0  0  0
   62.2330   31.7650   52.6510 C   0  0  0  0  0  0  0  0  0  0  0  0
   62.1480   33.1800   52.7080 O   0  0  0  0  0  0  0  0  0  0  0  0
   61.6650   33.5870   53.9710 C   0  0  0  0  0  0  0  0  0  0  0  0
   60.1710   33.2720   54.0680 C   0  0  0  0  0  0  0  0  0  0  0  0
   57.7010   31.1830   54.1480 N   0  0  0  0  0  0  0  0  0  0  0  0
   56.4000   30.8470   53.9290 C   0  0  0  0  0  0  0  0  0  0  0  0
   54.7823   28.2304   54.2902 H   0  0  0  0  0  0  0  0  0  0  0  0
   54.4359   27.2227   52.8441 H   0  0  0  0  0  0  0  0  0  0  0  0
   55.8421   28.3404   52.8441 H   0  0  0  0  0  0  0  0  0  0  0  0
   50.7325   29.6541   51.6661 H   0  0  0  0  0  0  0  0  0  0  0  0
   53.9036   32.5949   51.7448 H   0  0  0  0  0  0  0  0  0  0  0  0
   56.2388   31.5069   50.5863 H   0  0  0  0  0  0  0  0  0  0  0  0
   58.6188   32.1232   51.0250 H   0  0  0  0  0  0  0  0  0  0  0  0
   61.2034   30.5213   54.1016 H   0  0  0  0  0  0  0  0  0  0  0  0
   60.6369   30.3277   52.3945 H   0  0  0  0  0  0  0  0  0  0  0  0
   63.0870   31.4437   53.2653 H   0  0  0  0  0  0  0  0  0  0  0  0
   62.3509   31.4933   51.5916 H   0  0  0  0  0  0  0  0  0  0  0  0
   62.2061   33.0476   54.7623 H   0  0  0  0  0  0  0  0  0  0  0  0
   61.8216   34.6689   54.0936 H   0  0  0  0  0  0  0  0  0  0  0  0
   59.8820   33.2081   55.1274 H   0  0  0  0  0  0  0  0  0  0  0  0
   59.6043   34.0722   53.5695 H   0  0  0  0  0  0  0  0  0  0  0  0
   58.0830   31.0700   55.1120 H   0  0  0  0  0  0  0  0  0  0  0  0
   55.7831   30.4789   54.7620 H   0  0  0  0  0  0  0  0  0  0  0  0
  1  2  1  0
  2  3  2  0
  3  4  1  0
  4  5  2  0
  5  6  1  0
  6  7  2  0
  6  8  1  0
  5  9  1  0
  9 10  2  0
 10 11  1  0
 11 12  2  0
 12 13  1  0
 13 14  2  0
 14 15  1  0
 15 16  1  0
 16 17  1  0
 17 18  1  0
 18 19  1  0
 19 20  1  0
 14 21  1  0
 21 22  2  0
 10  2  1  0
 22 11  1  0
 20 15  1  0
  1 23  1  0
  1 24  1  0
  1 25  1  0
  4 26  1  0
  9 27  1  0
 12 28  1  0
 13 29  1  0
 16 30  1  0
 16 31  1  0
 17 32  1  0
 17 33  1  0
 19 34  1  0
 19 35  1  0
 20 36  1  0
 20 37  1  0
 21 38  1  0
 22 39  1  0
M  CHG  2   8  -1  21   1
M  END
>  <UniqueID>  (24) 
22

>  <SMILES>  (24) 
Cc1ncc(C(=O)[O-])cc1-c1ccc(N2CCOCC2)[nH+]c1

>  <Energy>  (24) 
58.922296338381216

>  <Genealogy>  (24) 
Cc1ncc(C(=O)[O-])cc1-c1ccc(N2CCOCC2)[nH+]c1 (protonated)
Cc1ncc(C(=O)[O-])cc1-c1ccc(N2CCOCC2)[nH+]c1 (3D coordinates assigned)
Cc1ncc(C(=O)[O-])cc1-c1ccc(N2CCOCC2)[nH+]c1 (nonaromatic ring conformer: 58.922296338381216 kcal/mol)

>  <smiles>  (24) 
Cc1ncc(C(=O)O)cc1-c1ccc(N2CCOCC2)nc1

>  <score_type>  (24) 
oracle

>  <origin>  (24) 
adg

>  <m_score__min__energy>  (24) 
-8.1999999999999993

>  <m_primary>  (24) 
energy

$$$$
24:0
     RDKit          3D

 34 36  0  0  0  0  0  0  0  0999 V2000
   55.3410   29.6530   44.8730 O   0  0  0  0  0  0  0  0  0  0  0  0
   56.5240   30.3430   44.2550 S   0  0  0  0  0  0  0  0  0  0  0  0
   56.3890   30.3750   42.7590 O   0  0  0  0  0  0  0  0  0  0  0  0
   56.6370   31.9530   44.8600 N   0  0  0  0  0  0  0  0  0  0  0  0
   57.6580   32.3950   45.5310 C   0  0  0  0  0  0  0  0  0  0  0  0
   57.6560   33.8270   45.9790 C   0  0  0  0  0  0  0  0  0  0  0  0
   58.9820   34.5020   45.6190 C   0  0  0  0  0  0  0  0  0  0  0  0
   60.0010   34.2750   46.7020 C   0  0  0  0  0  0  0  0  0  0  0  0
   61.2950   33.8360   46.3770 C   0  0  0  0  0  0  0  0  0  0  0  0
   62.2320   33.5940   47.3870 C   0  0  0  0  0  0  0  0  0  0  0  0
   61.8820   33.7820   48.7270 C   0  0  0  0  0  0  0  0  0  0  0  0
   60.5930   34.2070   49.0600 C   0  0  0  0  0  0  0  0  0  0  0  0
   59.6530   34.4480   48.0520 C   0  0  0  0  0  0  0  0  0  0  0  0
   58.8160   31.5770   45.8030 N   0  0  0  0  0  0  0  0  0  0  0  0
   58.9790   30.1990   45.4160 C   0  0  0  0  0  0  0  0  0  0  0  0
   60.1550   29.5180   45.7620 C   0  0  0  0  0  0  0  0  0  0  0  0
   60.3180   28.1820   45.3880 C   0  0  0  0  0  0  0  0  0  0  0  0
   59.3420   27.5420   44.6910 N   0  0  0  0  0  0  0  0  0  0  0  0
   58.1900   28.1780   44.3410 C   0  0  0  0  0  0  0  0  0  0  0  0
   57.9910   29.5150   44.6980 C   0  0  0  0  0  0  0  0  0  0  0  0
   56.8316   34.3605   45.4832 H   0  0  0  0  0  0  0  0  0  0  0  0
   57.5250   33.8586   47.0707 H   0  0  0  0  0  0  0  0  0  0  0  0
   59.3577   34.0810   44.6748 H   0  0  0  0  0  0  0  0  0  0  0  0
   58.8125   35.5835   45.5117 H   0  0  0  0  0  0  0  0  0  0  0  0
   61.5727   33.6819   45.3239 H   0  0  0  0  0  0  0  0  0  0  0  0
   63.2456   33.2553   47.1263 H   0  0  0  0  0  0  0  0  0  0  0  0
   62.6214   33.5954   49.5198 H   0  0  0  0  0  0  0  0  0  0  0  0
   60.3173   34.3521   50.1150 H   0  0  0  0  0  0  0  0  0  0  0  0
   58.6368   34.7745   48.3179 H   0  0  0  0  0  0  0  0  0  0  0  0
   59.6010   32.0270   46.3270 H   0  0  0  0  0  0  0  0  0  0  0  0
   60.9462   30.0339   46.3258 H   0  0  0  0  0  0  0  0  0  0  0  0
   61.2396   27.6458   45.6585 H   0  0  0  0  0  0  0  0  0  0  0  0
   59.4780   26.5430   44.4180 H   0  0  0  0  0  0  0  0  0  0  0  0
   57.4148   27.6391   43.7765 H   0  0  0  0  0  0  0  0  0  0  0  0
  1  2  2  0
  2  3  2  0
  2  4  1  0
  4  5  2  0
  5  6  1  0
  6  7  1  0
  7  8  1  0
  8  9  2  0
  9 10  1  0
 10 11  2  0
 11 12  1  0
 12 13  2  0
  5 14  1  0
 14 15  1  0
 15 16  2  0
 16 17  1  0
 17 18  2  0
 18 19  1  0
 19 20  2  0
 20  2  1  0
 13  8  1  0
 20 15  1  0
  6 21  1  0
  6 22  1  0
  7 23  1  0
  7 24  1  0
  9 25  1  0
 10 26  1  0
 11 27  1  0
 12 28  1  0
 13 29  1  0
 14 30  1  0
 16 31  1  0
 17 32  1  0
 18 33  1  0
 19 34  1  0
M  CHG  1  18   1
M  END
>  <UniqueID>  (25) 
23

>  <SMILES>  (25) 
O=S1(=O)N=C(CCc2ccccc2)Nc2cc[nH+]cc21

>  <Energy>  (25) 
37.37568564168771

>  <Genealogy>  (25) 
O=S1(=O)N=C(CCc2ccccc2)Nc2cc[nH+]cc21 (protonated)
O=S1(=O)N=C(CCc2ccccc2)Nc2cc[nH+]cc21 (3D coordinates assigned)
O=S1(=O)N=C(CCc2ccccc2)Nc2cc[nH+]cc21 (nonaromatic ring conformer: 37.37568564168771 kcal/mol)

>  <smiles>  (25) 
O=S1(=O)N=C(CCc2ccccc2)Nc2ccncc21

>  <score_type>  (25) 
oracle

>  <origin>  (25) 
adg

>  <m_score__min__energy>  (25) 
-6.79

>  <m_primary>  (25) 
energy

$$$$
25:0
     RDKit          3D

 26 28  0  0  0  0  0  0  0  0999 V2000
   66.7460   31.3550   50.1450 O   0  0  0  0  0  0  0  0  0  0  0  0
   66.5020   32.5780   50.0690 N   0  0  0  0  0  0  0  0  0  0  0  0
   67.5530   33.4640   50.1130 O   0  0  0  0  0  0  0  0  0  0  0  0
   65.1510   33.0610   49.9390 C   0  0  0  0  0  0  0  0  0  0  0  0
   64.4650   32.8500   48.7690 N   0  0  0  0  0  0  0  0  0  0  0  0
   63.1940   33.3080   48.6550 C   0  0  0  0  0  0  0  0  0  0  0  0
   62.4020   33.1780   47.5770 N   0  0  0  0  0  0  0  0  0  0  0  0
   61.2720   33.8040   48.0080 C   0  0  0  0  0  0  0  0  0  0  0  0
   60.0530   33.9470   47.1820 C   0  0  0  0  0  0  0  0  0  0  0  0
   58.8490   33.3340   47.5770 C   0  0  0  0  0  0  0  0  0  0  0  0
   57.6970   33.4690   46.7940 C   0  0  0  0  0  0  0  0  0  0  0  0
   57.7350   34.2170   45.6140 C   0  0  0  0  0  0  0  0  0  0  0  0
   56.6180   34.3460   44.8570 F   0  0  0  0  0  0  0  0  0  0  0  0
   58.9260   34.8290   45.2150 C   0  0  0  0  0  0  0  0  0  0  0  0
   60.0800   34.6960   45.9920 C   0  0  0  0  0  0  0  0  0  0  0  0
   61.3780   34.2860   49.2750 N   0  0  0  0  0  0  0  0  0  0  0  0
   62.5950   33.9570   49.6500 N   0  0  0  0  0  0  0  0  0  0  0  0
   63.1970   34.2070   50.8340 C   0  0  0  0  0  0  0  0  0  0  0  0
   64.5130   33.7550   51.0070 C   0  0  0  0  0  0  0  0  0  0  0  0
   65.1450   33.9910   52.1840 F   0  0  0  0  0  0  0  0  0  0  0  0
   64.9020   32.3450   47.9670 H   0  0  0  0  0  0  0  0  0  0  0  0
   58.8134   32.7459   48.5059 H   0  0  0  0  0  0  0  0  0  0  0  0
   56.7600   32.9856   47.1078 H   0  0  0  0  0  0  0  0  0  0  0  0
   58.9554   35.4175   44.2861 H   0  0  0  0  0  0  0  0  0  0  0  0
   61.0144   35.1797   45.6711 H   0  0  0  0  0  0  0  0  0  0  0  0
   62.6719   34.7472   51.6355 H   0  0  0  0  0  0  0  0  0  0  0  0
  1  2  2  0
  2  3  1  0
  2  4  1  0
  4  5  2  0
  5  6  1  0
  6  7  2  0
  7  8  1  0
  8  9  1  0
  9 10  2  0
 10 11  1  0
 11 12  2  0
 12 13  1  0
 12 14  1  0
 14 15  2  0
  8 16  2  0
 16 17  1  0
 17 18  1  0
 18 19  2  0
 19 20  1  0
 19  4  1  0
 17  6  1  0
 15  9  1  0
  5 21  1  0
 10 22  1  0
 11 23  1  0
 14 24  1  0
 15 25  1  0
 18 26  1  0
M  CHG  3   2   1   3  -1   5   1
M  END
>  <UniqueID>  (26) 
24

>  <SMILES>  (26) 
O=[N+]([O-])c1[nH+]c2nc(-c3ccc(F)cc3)nn2cc1F

>  <Energy>  (26) 
70.53282531140978

>  <Genealogy>  (26) 
O=[N+]([O-])c1[nH+]c2nc(-c3ccc(F)cc3)nn2cc1F (protonated)
O=[N+]([O-])c1[nH+]c2nc(-c3ccc(F)cc3)nn2cc1F (3D coordinates assigned)
O=[N+]([O-])c1[nH+]c2nc(-c3ccc(F)cc3)nn2cc1F (optimized conformer: 70.53282531140978 kcal/mol)

>  <smiles>  (26) 
O=[N+]([O-])c1nc2nc(-c3ccc(F)cc3)nn2cc1F

>  <score_type>  (26) 
oracle

>  <origin>  (26) 
adg

>  <m_score__min__energy>  (26) 
-5.2999999999999998

>  <m_primary>  (26) 
energy

$$$$
26:0
     RDKit          3D

 34 35  0  0  1  0  0  0  0  0999 V2000
   59.9820   27.8030   45.5540 C   0  0  0  0  0  0  0  0  0  0  0  0
   60.3370   29.2180   46.6410 S   0  0  0  0  0  0  0  0  0  0  0  0
   59.3340   30.6320   46.1590 C   0  0  0  0  0  0  0  0  0  0  0  0
   58.1610   30.4780   45.5190 N   0  0  0  0  0  0  0  0  0  0  0  0
   57.4150   31.5420   45.1610 C   0  0  0  0  0  0  0  0  0  0  0  0
   56.2910   31.3890   44.5360 N   0  0  0  0  0  0  0  0  0  0  0  0
   55.8690   30.1030   44.1020 C   0  0  0  0  0  0  0  0  0  0  0  0
   56.3130   29.6590   42.7330 C   0  0  0  0  0  0  0  0  0  0  0  0
   55.1530   29.3310   44.8050 O   0  0  0  0  0  0  0  0  0  0  0  0
   57.8610   32.7900   45.4550 N   0  0  0  0  0  0  0  0  0  0  0  0
   59.0500   32.9630   46.1040 C   0  0  0  0  0  0  0  0  0  0  0  0
   59.6640   34.6020   46.4630 S   0  0  0  0  0  0  0  0  0  0  0  0
   60.3500   34.6210   48.1410 C   0  0  0  0  0  0  0  0  0  0  0  0
   61.6700   33.9480   48.2100 C   0  0  0  0  0  0  0  0  0  0  0  0
   62.4470   33.7190   47.0820 C   0  0  0  0  0  0  0  0  0  0  0  0
   63.6920   33.1020   47.2340 C   0  0  0  0  0  0  0  0  0  0  0  0
   64.1460   32.7220   48.5040 C   0  0  0  0  0  0  0  0  0  0  0  0
   63.3630   32.9560   49.6130 C   0  0  0  0  0  0  0  0  0  0  0  0
   62.1180   33.5710   49.4870 C   0  0  0  0  0  0  0  0  0  0  0  0
   61.3510   33.8050   50.5900 F   0  0  0  0  0  0  0  0  0  0  0  0
   59.7740   31.8810   46.4500 N   0  0  0  0  0  0  0  0  0  0  0  0
   59.7597   26.9168   46.1665 H   0  0  0  0  0  0  0  0  0  0  0  0
   59.1147   28.0369   44.9191 H   0  0  0  0  0  0  0  0  0  0  0  0
   60.8570   27.5998   44.9191 H   0  0  0  0  0  0  0  0  0  0  0  0
   57.0877   28.8843   42.8321 H   0  0  0  0  0  0  0  0  0  0  0  0
   55.4527   29.2491   42.1835 H   0  0  0  0  0  0  0  0  0  0  0  0
   56.7229   30.5193   42.1835 H   0  0  0  0  0  0  0  0  0  0  0  0
   60.4668   35.6657   48.4650 H   0  0  0  0  0  0  0  0  0  0  0  0
   59.6561   34.0756   48.7976 H   0  0  0  0  0  0  0  0  0  0  0  0
   62.0888   34.0181   46.0859 H   0  0  0  0  0  0  0  0  0  0  0  0
   64.3197   32.9135   46.3506 H   0  0  0  0  0  0  0  0  0  0  0  0
   65.1271   32.2371   48.6154 H   0  0  0  0  0  0  0  0  0  0  0  0
   63.7235   32.6547   50.6076 H   0  0  0  0  0  0  0  0  0  0  0  0
   60.6820   32.0080   46.9560 H   0  0  0  0  0  0  0  0  0  0  0  0
  1  2  1  0
  2  3  1  0
  3  4  2  0
  4  5  1  0
  5  6  2  0
  6  7  1  0
  7  8  1  0
  7  9  2  0
  5 10  1  0
 10 11  2  0
 11 12  1  0
 12 13  1  0
 13 14  1  0
 14 15  2  0
 15 16  1  0
 16 17  2  0
 17 18  1  0
 18 19  2  0
 19 20  1  0
 11 21  1  0
 21  3  1  0
 19 14  1  0
  1 22  1  0
  1 23  1  0
  1 24  1  0
  8 25  1  0
  8 26  1  0
  8 27  1  0
 13 28  1  0
 13 29  1  0
 15 30  1  0
 16 31  1  0
 17 32  1  0
 18 33  1  0
 21 34  1  0
M  END
>  <smiles>  (27) 
CSc1nc(=NC(C)=O)nc(SCc2ccccc2F)[nH]1

>  <score_type>  (27) 
oracle

>  <origin>  (27) 
adg

>  <m_score__min__energy>  (27) 
-7.46

>  <m_primary>  (27) 
energy

$$$$
27:0
     RDKit          3D

 33 34  0  0  0  0  0  0  0  0999 V2000
   61.6923   30.5430   46.9445 H   0  0  0  0  0  0  0  0  0  0  0  0
   60.6430   30.3920   46.6510 C   0  0  0  0  0  0  0  0  0  0  0  0
   60.3430   29.2470   45.7650 C   0  0  0  0  0  0  0  0  0  0  0  0
   61.2420   28.8620   44.9700 O   0  0  0  0  0  0  0  0  0  0  0  0
   59.0570   28.5060   45.8190 C   0  0  0  0  0  0  0  0  0  0  0  0
   58.9860   27.2230   46.3810 C   0  0  0  0  0  0  0  0  0  0  0  0
   59.8980   26.7465   46.7698 H   0  0  0  0  0  0  0  0  0  0  0  0
   57.7680   26.5460   46.4510 C   0  0  0  0  0  0  0  0  0  0  0  0
   57.7248   25.5436   46.9020 H   0  0  0  0  0  0  0  0  0  0  0  0
   56.5940   27.1380   45.9480 C   0  0  0  0  0  0  0  0  0  0  0  0
   55.3490   26.4900   46.0080 O   0  0  0  0  0  0  0  0  0  0  0  0
   55.1360   25.1200   45.6820 C   0  0  0  0  0  0  0  0  0  0  0  0
   55.0447   24.5327   46.6076 H   0  0  0  0  0  0  0  0  0  0  0  0
   54.2119   25.0226   45.0933 H   0  0  0  0  0  0  0  0  0  0  0  0
   55.9869   24.7466   45.0933 H   0  0  0  0  0  0  0  0  0  0  0  0
   56.6540   28.4130   45.3690 C   0  0  0  0  0  0  0  0  0  0  0  0
   55.4680   28.9780   44.8760 O   0  0  0  0  0  0  0  0  0  0  0  0
   55.3810   29.7810   43.7030 C   0  0  0  0  0  0  0  0  0  0  0  0
   55.2666   30.8369   43.9892 H   0  0  0  0  0  0  0  0  0  0  0  0
   56.2975   29.6599   43.1069 H   0  0  0  0  0  0  0  0  0  0  0  0
   54.5117   29.4664   43.1069 H   0  0  0  0  0  0  0  0  0  0  0  0
   57.8890   29.0900   45.3000 C   0  0  0  0  0  0  0  0  0  0  0  0
   57.9386   30.0857   44.8350 H   0  0  0  0  0  0  0  0  0  0  0  0
   59.7380   31.2620   47.1260 C   0  0  0  0  0  0  0  0  0  0  0  0
   59.3352   31.0737   48.1321 H   0  0  0  0  0  0  0  0  0  0  0  0
   59.2400   32.4500   46.4080 C   0  0  0  0  0  0  0  0  0  0  0  0
   57.6740   32.6080   45.8200 S   0  0  0  0  0  0  0  0  0  0  0  0
   57.8480   34.1750   45.2370 C   0  0  0  0  0  0  0  0  0  0  0  0
   57.0729   34.7605   44.7208 H   0  0  0  0  0  0  0  0  0  0  0  0
   59.1380   34.6030   45.5190 C   0  0  0  0  0  0  0  0  0  0  0  0
   59.5151   35.5992   45.2444 H   0  0  0  0  0  0  0  0  0  0  0  0
   59.9140   33.6470   46.1860 C   0  0  0  0  0  0  0  0  0  0  0  0
   60.9524   33.8245   46.5027 H   0  0  0  0  0  0  0  0  0  0  0  0
  1  2  1  0
  2  3  1  0
  3  4  2  0
  3  5  1  0
  5  6  2  0
  6  7  1  0
  6  8  1  0
  8  9  1  0
  8 10  2  0
 10 11  1  0
 11 12  1  0
 12 13  1  0
 12 14  1  0
 12 15  1  0
 10 16  1  0
 16 17  1  0
 17 18  1  0
 18 19  1  0
 18 20  1  0
 18 21  1  0
 16 22  2  0
 22 23  1  0
  2 24  2  0
 24 25  1  0
 24 26  1  0
 26 27  1  0
 27 28  1  0
 28 29  1  0
 28 30  2  0
 30 31  1  0
 30 32  1  0
 32 33  1  0
 22  5  1  0
 32 26  2  0
M  END
>  <UniqueID>  (28) 
25

>  <SMILES>  (28) 
COc1ccc(C(=O)/C=C\c2cccs2)cc1OC

>  <Energy>  (28) 
66.94645178284836

>  <Genealogy>  (28) 
COc1ccc(C(=O)/C=C\c2cccs2)cc1OC (cis-trans isomerization)
COc1ccc(C(=O)/C=C\c2cccs2)cc1OC (3D coordinates assigned)
COc1ccc(C(=O)/C=C\c2cccs2)cc1OC (optimized conformer: 66.94645178284836 kcal/mol)

>  <smiles>  (28) 
COc1ccc(C(=O)C=Cc2cccs2)cc1OC

>  <score_type>  (28) 
oracle

>  <origin>  (28) 
adg

>  <m_score__min__energy>  (28) 
-7.1200000000000001

>  <m_primary>  (28) 
energy

$$$$
28:0
     RDKit          3D

 44 48  0  0  0  0  0  0  0  0999 V2000
   58.6150   34.9340   45.2050 C   0  0  0  0  0  0  0  0  0  0  0  0
   59.8240   34.3130   45.5330 C   0  0  0  0  0  0  0  0  0  0  0  0
   59.8310   32.9920   45.9890 C   0  0  0  0  0  0  0  0  0  0  0  0
   58.6250   32.2840   46.1160 C   0  0  0  0  0  0  0  0  0  0  0  0
   58.6320   30.8860   46.5780 C   0  0  0  0  0  0  0  0  0  0  0  0
   57.9610   29.7870   46.0210 C   0  0  0  0  0  0  0  0  0  0  0  0
   57.0560   29.7740   44.8590 C   0  0  0  0  0  0  0  0  0  0  0  0
   57.4000   29.8820   43.5230 C   0  0  0  0  0  0  0  0  0  0  0  0
   56.2110   29.8410   42.8270 C   0  0  0  0  0  0  0  0  0  0  0  0
   55.2170   29.7180   43.7750 C   0  0  0  0  0  0  0  0  0  0  0  0
   55.7500   29.6840   44.9730 O   0  0  0  0  0  0  0  0  0  0  0  0
   58.2300   28.6950   46.7130 O   0  0  0  0  0  0  0  0  0  0  0  0
   59.0300   29.0350   47.6910 C   0  0  0  0  0  0  0  0  0  0  0  0
   59.5260   28.2090   48.6460 N   0  0  0  0  0  0  0  0  0  0  0  0
   60.3470   28.7360   49.6010 C   0  0  0  0  0  0  0  0  0  0  0  0
   60.6750   30.0650   49.5760 N   0  0  0  0  0  0  0  0  0  0  0  0
   60.1910   30.9040   48.6130 C   0  0  0  0  0  0  0  0  0  0  0  0
   60.6130   32.2750   48.5740 N   0  0  0  0  0  0  0  0  0  0  0  0
   62.0110   32.5990   48.2870 C   0  0  0  0  0  0  0  0  0  0  0  0
   62.6720   33.1040   49.5730 C   0  0  0  0  0  0  0  0  0  0  0  0
   61.9420   34.1890   50.1210 O   0  0  0  0  0  0  0  0  0  0  0  0
   60.6440   33.7630   50.5030 C   0  0  0  0  0  0  0  0  0  0  0  0
   59.8430   33.2980   49.2810 C   0  0  0  0  0  0  0  0  0  0  0  0
   59.3240   30.3660   47.6590 C   0  0  0  0  0  0  0  0  0  0  0  0
   57.4150   32.9120   45.7850 C   0  0  0  0  0  0  0  0  0  0  0  0
   57.4110   34.2350   45.3310 C   0  0  0  0  0  0  0  0  0  0  0  0
   58.6113   35.9742   44.8473 H   0  0  0  0  0  0  0  0  0  0  0  0
   60.7703   34.8646   45.4321 H   0  0  0  0  0  0  0  0  0  0  0  0
   60.7830   32.5060   46.2489 H   0  0  0  0  0  0  0  0  0  0  0  0
   58.4121   29.9802   43.1036 H   0  0  0  0  0  0  0  0  0  0  0  0
   56.0812   29.8954   41.7360 H   0  0  0  0  0  0  0  0  0  0  0  0
   54.1401   29.6576   43.5591 H   0  0  0  0  0  0  0  0  0  0  0  0
   59.2800   27.1940   48.6530 H   0  0  0  0  0  0  0  0  0  0  0  0
   60.7474   28.0889   50.3954 H   0  0  0  0  0  0  0  0  0  0  0  0
   62.5339   31.6992   47.9307 H   0  0  0  0  0  0  0  0  0  0  0  0
   62.0638   33.3747   47.5089 H   0  0  0  0  0  0  0  0  0  0  0  0
   62.7063   32.2851   50.3066 H   0  0  0  0  0  0  0  0  0  0  0  0
   63.6896   33.4475   49.3353 H   0  0  0  0  0  0  0  0  0  0  0  0
   60.7329   32.9291   51.2148 H   0  0  0  0  0  0  0  0  0  0  0  0
   60.1177   34.6091   50.9690 H   0  0  0  0  0  0  0  0  0  0  0  0
   58.8811   32.8765   49.6081 H   0  0  0  0  0  0  0  0  0  0  0  0
   59.6523   34.1506   48.6127 H   0  0  0  0  0  0  0  0  0  0  0  0
   56.4670   32.3626   45.8827 H   0  0  0  0  0  0  0  0  0  0  0  0
   56.4607   34.7253   45.0732 H   0  0  0  0  0  0  0  0  0  0  0  0
  1  2  2  0
  2  3  1  0
  3  4  2  0
  4  5  1  0
  5  6  2  0
  6  7  1  0
  7  8  2  0
  8  9  1  0
  9 10  2  0
 10 11  1  0
  6 12  1  0
 12 13  1  0
 13 14  2  0
 14 15  1  0
 15 16  2  0
 16 17  1  0
 17 18  1  0
 18 19  1  0
 19 20  1  0
 20 21  1  0
 21 22  1  0
 22 23  1  0
 17 24  2  0
  4 25  1  0
 25 26  2  0
 26  1  1  0
 24  5  1  0
 11  7  1  0
 24 13  1  0
 23 18  1  0
  1 27  1  0
  2 28  1  0
  3 29  1  0
  8 30  1  0
  9 31  1  0
 10 32  1  0
 14 33  1  0
 15 34  1  0
 19 35  1  0
 19 36  1  0
 20 37  1  0
 20 38  1  0
 22 39  1  0
 22 40  1  0
 23 41  1  0
 23 42  1  0
 25 43  1  0
 26 44  1  0
M  CHG  1  14   1
M  END
>  <UniqueID>  (29) 
26

>  <SMILES>  (29) 
c1ccc(-c2c(-c3ccco3)oc3[nH+]cnc(N4CCOCC4)c23)cc1

>  <Energy>  (29) 
124.54369109910225

>  <Genealogy>  (29) 
c1ccc(-c2c(-c3ccco3)oc3[nH+]cnc(N4CCOCC4)c23)cc1 (protonated)
c1ccc(-c2c(-c3ccco3)oc3[nH+]cnc(N4CCOCC4)c23)cc1 (3D coordinates assigned)
c1ccc(-c2c(-c3ccco3)oc3[nH+]cnc(N4CCOCC4)c23)cc1 (nonaromatic ring conformer: 124.54369109910225 kcal/mol)

>  <smiles>  (29) 
c1ccc(-c2c(-c3ccco3)oc3ncnc(N4CCOCC4)c23)cc1

>  <score_type>  (29) 
oracle

>  <origin>  (29) 
adg

>  <m_score__min__energy>  (29) 
-6.3799999999999999

>  <m_primary>  (29) 
energy

$$$$
29:0
     RDKit          3D

 44 45  0  0  0  0  0  0  0  0999 V2000
   60.8730   33.5010   50.0550 C   0  0  0  0  0  0  0  0  0  0  0  0
   61.9720   34.2480   49.3090 C   0  0  0  0  0  0  0  0  0  0  0  0
   62.6840   33.3400   48.3960 N   0  0  0  0  0  0  0  0  0  0  0  0
   64.1090   33.0720   48.6350 C   0  0  0  0  0  0  0  0  0  0  0  0
   64.2790   32.0200   49.7260 C   0  0  0  0  0  0  0  0  0  0  0  0
   62.0000   32.6580   47.3180 C   0  0  0  0  0  0  0  0  0  0  0  0
   62.5370   31.6610   46.7620 O   0  0  0  0  0  0  0  0  0  0  0  0
   60.7060   33.1320   46.7970 C   0  0  0  0  0  0  0  0  0  0  0  0
   60.5160   34.5000   46.5520 C   0  0  0  0  0  0  0  0  0  0  0  0
   59.2910   34.9670   46.0700 C   0  0  0  0  0  0  0  0  0  0  0  0
   58.2400   34.0740   45.8470 C   0  0  0  0  0  0  0  0  0  0  0  0
   58.4130   32.7130   46.1050 C   0  0  0  0  0  0  0  0  0  0  0  0
   59.6440   32.2310   46.5710 C   0  0  0  0  0  0  0  0  0  0  0  0
   59.8210   30.4680   46.8980 S   0  0  0  0  0  0  0  0  0  0  0  0
   59.4020   29.9380   45.2010 C   0  0  0  0  0  0  0  0  0  0  0  0
   57.9210   29.7490   45.0450 C   0  0  0  0  0  0  0  0  0  0  0  0
   57.0480   30.4810   44.2590 C   0  0  0  0  0  0  0  0  0  0  0  0
   57.3970   31.6170   43.3550 C   0  0  0  0  0  0  0  0  0  0  0  0
   55.8110   29.9570   44.3580 N   0  0  0  0  0  0  0  0  0  0  0  0
   55.8880   28.9490   45.1800 O   0  0  0  0  0  0  0  0  0  0  0  0
   57.1150   28.7830   45.6180 C   0  0  0  0  0  0  0  0  0  0  0  0
   57.5280   27.6980   46.5580 C   0  0  0  0  0  0  0  0  0  0  0  0
   61.0285   33.6067   51.1388 H   0  0  0  0  0  0  0  0  0  0  0  0
   59.8937   33.9214   49.7823 H   0  0  0  0  0  0  0  0  0  0  0  0
   60.9035   32.4358   49.7823 H   0  0  0  0  0  0  0  0  0  0  0  0
   61.5229   35.0668   48.7278 H   0  0  0  0  0  0  0  0  0  0  0  0
   62.6882   34.6506   50.0404 H   0  0  0  0  0  0  0  0  0  0  0  0
   64.5696   32.7069   47.7052 H   0  0  0  0  0  0  0  0  0  0  0  0
   64.5966   34.0031   48.9595 H   0  0  0  0  0  0  0  0  0  0  0  0
   64.2015   32.4995   50.7130 H   0  0  0  0  0  0  0  0  0  0  0  0
   63.4924   31.2576   49.6260 H   0  0  0  0  0  0  0  0  0  0  0  0
   65.2657   31.5441   49.6260 H   0  0  0  0  0  0  0  0  0  0  0  0
   61.3359   35.2087   46.7404 H   0  0  0  0  0  0  0  0  0  0  0  0
   59.1537   36.0391   45.8658 H   0  0  0  0  0  0  0  0  0  0  0  0
   57.2757   34.4435   45.4680 H   0  0  0  0  0  0  0  0  0  0  0  0
   57.5787   32.0150   45.9417 H   0  0  0  0  0  0  0  0  0  0  0  0
   59.7433   30.7051   44.4903 H   0  0  0  0  0  0  0  0  0  0  0  0
   59.9001   28.9778   45.0014 H   0  0  0  0  0  0  0  0  0  0  0  0
   57.6671   32.4962   43.9584 H   0  0  0  0  0  0  0  0  0  0  0  0
   58.2490   31.3321   42.7203 H   0  0  0  0  0  0  0  0  0  0  0  0
   56.5320   31.8596   42.7203 H   0  0  0  0  0  0  0  0  0  0  0  0
   57.3972   28.0416   47.5947 H   0  0  0  0  0  0  0  0  0  0  0  0
   56.9061   26.8072   46.3857 H   0  0  0  0  0  0  0  0  0  0  0  0
   58.5848   27.4462   46.3857 H   0  0  0  0  0  0  0  0  0  0  0  0
  1  2  1  0
  2  3  1  0
  3  4  1  0
  4  5  1  0
  3  6  1  0
  6  7  2  0
  6  8  1  0
  8  9  2  0
  9 10  1  0
 10 11  2  0
 11 12  1  0
 12 13  2  0
 13 14  1  0
 14 15  1  0
 15 16  1  0
 16 17  1  0
 17 18  1  0
 17 19  2  0
 19 20  1  0
 20 21  1  0
 21 22  1  0
 13  8  1  0
 21 16  2  0
  1 23  1  0
  1 24  1  0
  1 25  1  0
  2 26  1  0
  2 27  1  0
  4 28  1  0
  4 29  1  0
  5 30  1  0
  5 31  1  0
  5 32  1  0
  9 33  1  0
 10 34  1  0
 11 35  1  0
 12 36  1  0
 15 37  1  0
 15 38  1  0
 18 39  1  0
 18 40  1  0
 18 41  1  0
 22 42  1  0
 22 43  1  0
 22 44  1  0
M  END
>  <UniqueID>  (30) 
27

>  <SMILES>  (30) 
CCN(CC)C(=O)c1ccccc1SCc1c(C)noc1C

>  <Energy>  (30) 
65.02979956556325

>  <Genealogy>  (30) 
CCN(CC)C(=O)c1ccccc1SCc1c(C)noc1C (3D coordinates assigned)
CCN(CC)C(=O)c1ccccc1SCc1c(C)noc1C (optimized conformer: 65.02979956556325 kcal/mol)

>  <smiles>  (30) 
CCN(CC)C(=O)c1ccccc1SCc1c(C)noc1C

>  <score_type>  (30) 
oracle

>  <origin>  (30) 
adg

>  <m_score__min__energy>  (30) 
-7.8399999999999999

>  <m_primary>  (30) 
energy

$$$$
30:0
     RDKit          3D

 42 44  0  0  0  0  0  0  0  0999 V2000
   57.8750   33.8260   46.8970 C   0  0  0  0  0  0  0  0  0  0  0  0
   59.0180   33.6250   46.0010 N   0  0  0  0  0  0  0  0  0  0  0  0
   58.8630   33.8900   44.5610 C   0  0  0  0  0  0  0  0  0  0  0  0
   58.1470   32.7470   43.8890 C   0  0  0  0  0  0  0  0  0  0  0  0
   58.0140   32.7090   42.4920 C   0  0  0  0  0  0  0  0  0  0  0  0
   57.3800   31.6290   41.8760 C   0  0  0  0  0  0  0  0  0  0  0  0
   56.8810   30.5740   42.6460 C   0  0  0  0  0  0  0  0  0  0  0  0
   57.0190   30.5890   44.0450 C   0  0  0  0  0  0  0  0  0  0  0  0
   56.4900   29.4800   44.8730 C   0  0  0  0  0  0  0  0  0  0  0  0
   55.2400   29.3360   44.9710 O   0  0  0  0  0  0  0  0  0  0  0  0
   57.3790   28.5360   45.5950 C   0  0  0  0  0  0  0  0  0  0  0  0
   57.0290   27.1780   45.6970 C   0  0  0  0  0  0  0  0  0  0  0  0
   57.8520   26.2850   46.3900 C   0  0  0  0  0  0  0  0  0  0  0  0
   59.0250   26.7400   46.9970 C   0  0  0  0  0  0  0  0  0  0  0  0
   59.3750   28.0900   46.9160 C   0  0  0  0  0  0  0  0  0  0  0  0
   58.5550   28.9870   46.2230 C   0  0  0  0  0  0  0  0  0  0  0  0
   57.6400   31.6900   44.6600 C   0  0  0  0  0  0  0  0  0  0  0  0
   60.2610   33.1050   46.5290 C   0  0  0  0  0  0  0  0  0  0  0  0
   61.4050   33.9220   46.6010 C   0  0  0  0  0  0  0  0  0  0  0  0
   62.6020   33.4270   47.1290 C   0  0  0  0  0  0  0  0  0  0  0  0
   62.6710   32.1110   47.5940 C   0  0  0  0  0  0  0  0  0  0  0  0
   63.8310   31.6330   48.1060 F   0  0  0  0  0  0  0  0  0  0  0  0
   61.5440   31.2870   47.5250 C   0  0  0  0  0  0  0  0  0  0  0  0
   60.3460   31.7780   46.9960 C   0  0  0  0  0  0  0  0  0  0  0  0
   58.2134   33.7665   47.9420 H   0  0  0  0  0  0  0  0  0  0  0  0
   57.4326   34.8157   46.7106 H   0  0  0  0  0  0  0  0  0  0  0  0
   57.1215   33.0466   46.7106 H   0  0  0  0  0  0  0  0  0  0  0  0
   58.2808   34.8131   44.4233 H   0  0  0  0  0  0  0  0  0  0  0  0
   59.8601   34.0001   44.1098 H   0  0  0  0  0  0  0  0  0  0  0  0
   58.4108   33.5331   41.8809 H   0  0  0  0  0  0  0  0  0  0  0  0
   57.2726   31.6077   40.7815 H   0  0  0  0  0  0  0  0  0  0  0  0
   56.3780   29.7281   42.1547 H   0  0  0  0  0  0  0  0  0  0  0  0
   56.1019   26.8159   45.2287 H   0  0  0  0  0  0  0  0  0  0  0  0
   57.5754   25.2225   46.4573 H   0  0  0  0  0  0  0  0  0  0  0  0
   59.6730   26.0353   47.5387 H   0  0  0  0  0  0  0  0  0  0  0  0
   60.2967   28.4483   47.3978 H   0  0  0  0  0  0  0  0  0  0  0  0
   58.8309   30.0505   46.1687 H   0  0  0  0  0  0  0  0  0  0  0  0
   57.7293   31.7232   45.7559 H   0  0  0  0  0  0  0  0  0  0  0  0
   61.3572   34.9595   46.2386 H   0  0  0  0  0  0  0  0  0  0  0  0
   63.4900   34.0743   47.1782 H   0  0  0  0  0  0  0  0  0  0  0  0
   61.5995   30.2500   47.8876 H   0  0  0  0  0  0  0  0  0  0  0  0
   59.4634   31.1235   46.9440 H   0  0  0  0  0  0  0  0  0  0  0  0
  1  2  1  0
  2  3  1  0
  3  4  1  0
  4  5  2  0
  5  6  1  0
  6  7  2  0
  7  8  1  0
  8  9  1  0
  9 10  2  0
  9 11  1  0
 11 12  2  0
 12 13  1  0
 13 14  2  0
 14 15  1  0
 15 16  2  0
  8 17  2  0
  2 18  1  0
 18 19  2  0
 19 20  1  0
 20 21  2  0
 21 22  1  0
 21 23  1  0
 23 24  2  0
 17  4  1  0
 24 18  1  0
 16 11  1  0
  1 25  1  0
  1 26  1  0
  1 27  1  0
  3 28  1  0
  3 29  1  0
  5 30  1  0
  6 31  1  0
  7 32  1  0
 12 33  1  0
 13 34  1  0
 14 35  1  0
 15 36  1  0
 16 37  1  0
 17 38  1  0
 19 39  1  0
 20 40  1  0
 23 41  1  0
 24 42  1  0
M  END
>  <UniqueID>  (31) 
28

>  <SMILES>  (31) 
CN(Cc1cccc(C(=O)c2ccccc2)c1)c1ccc(F)cc1

>  <Energy>  (31) 
52.0678670158007

>  <Genealogy>  (31) 
CN(Cc1cccc(C(=O)c2ccccc2)c1)c1ccc(F)cc1 (3D coordinates assigned)
CN(Cc1cccc(C(=O)c2ccccc2)c1)c1ccc(F)cc1 (optimized conformer: 52.0678670158007 kcal/mol)

>  <smiles>  (31) 
CN(Cc1cccc(C(=O)c2ccccc2)c1)c1ccc(F)cc1

>  <score_type>  (31) 
oracle

>  <origin>  (31) 
adg

>  <m_score__min__energy>  (31) 
-8.5199999999999996

>  <m_primary>  (31) 
energy

$$$$
31:0
     RDKit          3D

 36 38  0  0  0  0  0  0  0  0999 V2000
   60.0390   29.7210   45.6980 C   0  0  0  0  0  0  0  0  0  0  0  0
   58.6310   29.6200   45.3180 N   0  0  0  0  0  0  0  0  0  0  0  0
   57.7210   30.6080   45.1260 C   0  0  0  0  0  0  0  0  0  0  0  0
   57.9260   32.0530   45.3780 C   0  0  0  0  0  0  0  0  0  0  0  0
   58.1110   32.6220   46.6350 C   0  0  0  0  0  0  0  0  0  0  0  0
   58.3690   33.9990   46.5970 C   0  0  0  0  0  0  0  0  0  0  0  0
   58.3850   34.5280   45.3140 C   0  0  0  0  0  0  0  0  0  0  0  0
   58.0810   33.2790   44.2330 S   0  0  0  0  0  0  0  0  0  0  0  0
   56.5240   30.1050   44.7490 N   0  0  0  0  0  0  0  0  0  0  0  0
   56.6680   28.7910   44.7050 N   0  0  0  0  0  0  0  0  0  0  0  0
   57.9270   28.4970   45.0660 C   0  0  0  0  0  0  0  0  0  0  0  0
   58.5220   26.8220   45.3380 S   0  0  0  0  0  0  0  0  0  0  0  0
   57.4110   26.4740   46.7530 C   0  0  0  0  0  0  0  0  0  0  0  0
   56.0940   25.9200   46.3050 C   0  0  0  0  0  0  0  0  0  0  0  0
   55.1620   26.7080   45.9930 O   0  0  0  0  0  0  0  0  0  0  0  0
   55.9370   24.4950   46.2110 N   0  0  0  0  0  0  0  0  0  0  0  0
   56.4770   23.5640   45.2570 C   0  0  0  0  0  0  0  0  0  0  0  0
   55.8470   23.4750   44.0070 C   0  0  0  0  0  0  0  0  0  0  0  0
   56.2740   22.5410   43.0580 C   0  0  0  0  0  0  0  0  0  0  0  0
   57.3400   21.6860   43.3520 C   0  0  0  0  0  0  0  0  0  0  0  0
   57.9790   21.7670   44.5900 C   0  0  0  0  0  0  0  0  0  0  0  0
   57.5520   22.6970   45.5450 C   0  0  0  0  0  0  0  0  0  0  0  0
   60.1233   29.7270   46.7948 H   0  0  0  0  0  0  0  0  0  0  0  0
   60.5909   28.8601   45.2926 H   0  0  0  0  0  0  0  0  0  0  0  0
   60.4623   30.6518   45.2926 H   0  0  0  0  0  0  0  0  0  0  0  0
   58.0595   32.0451   47.5701 H   0  0  0  0  0  0  0  0  0  0  0  0
   58.5425   34.6037   47.4993 H   0  0  0  0  0  0  0  0  0  0  0  0
   58.5652   35.5808   45.0511 H   0  0  0  0  0  0  0  0  0  0  0  0
   55.9020   28.1150   44.4830 H   0  0  0  0  0  0  0  0  0  0  0  0
   57.8974   25.7432   47.4158 H   0  0  0  0  0  0  0  0  0  0  0  0
   57.2215   27.4213   47.2790 H   0  0  0  0  0  0  0  0  0  0  0  0
   55.0085   24.1467   43.7708 H   0  0  0  0  0  0  0  0  0  0  0  0
   55.7717   22.4792   42.0814 H   0  0  0  0  0  0  0  0  0  0  0  0
   57.6753   20.9491   42.6073 H   0  0  0  0  0  0  0  0  0  0  0  0
   58.8217   21.0972   44.8163 H   0  0  0  0  0  0  0  0  0  0  0  0
   58.0554   22.7519   46.5215 H   0  0  0  0  0  0  0  0  0  0  0  0
  1  2  1  0
  2  3  1  0
  3  4  1  0
  4  5  2  0
  5  6  1  0
  6  7  2  0
  7  8  1  0
  3  9  2  0
  9 10  1  0
 10 11  2  0
 11 12  1  0
 12 13  1  0
 13 14  1  0
 14 15  2  0
 14 16  1  0
 16 17  1  0
 17 18  2  0
 18 19  1  0
 19 20  2  0
 20 21  1  0
 21 22  2  0
 11  2  1  0
 22 17  1  0
  8  4  1  0
  1 23  1  0
  1 24  1  0
  1 25  1  0
  5 26  1  0
  6 27  1  0
  7 28  1  0
 10 29  1  0
 13 30  1  0
 13 31  1  0
 18 32  1  0
 19 33  1  0
 20 34  1  0
 21 35  1  0
 22 36  1  0
M  CHG  2  10   1  16  -1
M  END
>  <UniqueID>  (32) 
29

>  <SMILES>  (32) 
Cn1c(-c2cccs2)n[nH+]c1SCC(=O)[N-]c1ccccc1

>  <Energy>  (32) 
96.62881122871696

>  <Genealogy>  (32) 
Cn1c(-c2cccs2)n[nH+]c1SCC(=O)[N-]c1ccccc1 (protonated)
Cn1c(-c2cccs2)n[nH+]c1SCC(=O)[N-]c1ccccc1 (3D coordinates assigned)
Cn1c(-c2cccs2)n[nH+]c1SCC(=O)[N-]c1ccccc1 (optimized conformer: 96.62881122871696 kcal/mol)

>  <smiles>  (32) 
Cn1c(SCC(=O)Nc2ccccc2)nnc1-c1cccs1

>  <score_type>  (32) 
oracle

>  <origin>  (32) 
adg

>  <m_score__min__energy>  (32) 
-8.2899999999999991

>  <m_primary>  (32) 
energy

$$$$
32:0
     RDKit          3D

 45 47  0  0  0  0  0  0  0  0999 V2000
   57.5250   31.3480   43.2690 C   0  0  0  0  0  0  0  0  0  0  0  0
   57.8310   31.3220   44.6990 N   0  0  0  0  0  0  0  0  0  0  0  0
   58.0040   32.3740   45.5220 C   0  0  0  0  0  0  0  0  0  0  0  0
   57.7670   34.0920   45.0590 S   0  0  0  0  0  0  0  0  0  0  0  0
   59.4780   34.5920   45.4540 C   0  0  0  0  0  0  0  0  0  0  0  0
   59.7590   34.4280   46.9260 C   0  0  0  0  0  0  0  0  0  0  0  0
   58.8920   34.8570   47.7370 O   0  0  0  0  0  0  0  0  0  0  0  0
   60.9590   33.7920   47.4280 N   0  0  0  0  0  0  0  0  0  0  0  0
   61.0190   33.3960   48.8490 C   0  0  0  0  0  0  0  0  0  0  0  0
   62.0840   34.1840   49.6320 C   0  0  0  0  0  0  0  0  0  0  0  0
   63.4890   33.5650   49.6140 C   0  0  0  0  0  0  0  0  0  0  0  0
   64.1180   33.4710   48.2110 C   0  0  0  0  0  0  0  0  0  0  0  0
   63.2610   32.7630   47.1380 C   0  0  0  0  0  0  0  0  0  0  0  0
   62.1360   33.6340   46.5450 C   0  0  0  0  0  0  0  0  0  0  0  0
   58.3710   31.9850   46.7560 N   0  0  0  0  0  0  0  0  0  0  0  0
   58.4190   30.6610   46.7420 N   0  0  0  0  0  0  0  0  0  0  0  0
   58.0780   30.2620   45.4990 C   0  0  0  0  0  0  0  0  0  0  0  0
   57.9830   28.8400   45.1100 C   0  0  0  0  0  0  0  0  0  0  0  0
   58.3990   28.4390   43.8300 C   0  0  0  0  0  0  0  0  0  0  0  0
   58.3330   27.0920   43.4550 C   0  0  0  0  0  0  0  0  0  0  0  0
   57.8680   26.1360   44.3620 C   0  0  0  0  0  0  0  0  0  0  0  0
   57.8050   24.8300   44.0000 F   0  0  0  0  0  0  0  0  0  0  0  0
   57.4780   26.5230   45.6470 C   0  0  0  0  0  0  0  0  0  0  0  0
   57.5390   27.8680   46.0240 C   0  0  0  0  0  0  0  0  0  0  0  0
   56.4380   31.4404   43.1283 H   0  0  0  0  0  0  0  0  0  0  0  0
   58.0295   32.2065   42.8016 H   0  0  0  0  0  0  0  0  0  0  0  0
   57.8774   30.4167   42.8016 H   0  0  0  0  0  0  0  0  0  0  0  0
   60.1778   33.9654   44.8816 H   0  0  0  0  0  0  0  0  0  0  0  0
   59.6055   35.6515   45.1873 H   0  0  0  0  0  0  0  0  0  0  0  0
   60.0361   33.5776   49.3083 H   0  0  0  0  0  0  0  0  0  0  0  0
   61.2917   32.3311   48.8897 H   0  0  0  0  0  0  0  0  0  0  0  0
   62.1495   35.1931   49.1990 H   0  0  0  0  0  0  0  0  0  0  0  0
   61.7591   34.1815   50.6829 H   0  0  0  0  0  0  0  0  0  0  0  0
   64.1457   34.1807   50.2462 H   0  0  0  0  0  0  0  0  0  0  0  0
   63.3859   32.5345   49.9846 H   0  0  0  0  0  0  0  0  0  0  0  0
   64.3190   34.4945   47.8616 H   0  0  0  0  0  0  0  0  0  0  0  0
   65.0210   32.8539   48.3283 H   0  0  0  0  0  0  0  0  0  0  0  0
   63.9246   32.4526   46.3174 H   0  0  0  0  0  0  0  0  0  0  0  0
   62.7708   31.9143   47.6375 H   0  0  0  0  0  0  0  0  0  0  0  0
   62.5470   34.6328   46.3367 H   0  0  0  0  0  0  0  0  0  0  0  0
   61.7834   33.1195   45.6389 H   0  0  0  0  0  0  0  0  0  0  0  0
   58.7786   29.1872   43.1186 H   0  0  0  0  0  0  0  0  0  0  0  0
   58.6472   26.7860   42.4462 H   0  0  0  0  0  0  0  0  0  0  0  0
   57.1223   25.7678   46.3634 H   0  0  0  0  0  0  0  0  0  0  0  0
   57.2386   28.1668   47.0391 H   0  0  0  0  0  0  0  0  0  0  0  0
  1  2  1  0
  2  3  1  0
  3  4  1  0
  4  5  1  0
  5  6  1  0
  6  7  2  0
  6  8  1  0
  8  9  1  0
  9 10  1  0
 10 11  1  0
 11 12  1  0
 12 13  1  0
 13 14  1  0
  3 15  2  0
 15 16  1  0
 16 17  2  0
 17 18  1  0
 18 19  2  0
 19 20  1  0
 20 21  2  0
 21 22  1  0
 21 23  1  0
 23 24  2  0
 17  2  1  0
 24 18  1  0
 14  8  1  0
  1 25  1  0
  1 26  1  0
  1 27  1  0
  5 28  1  0
  5 29  1  0
  9 30  1  0
  9 31  1  0
 10 32  1  0
 10 33  1  0
 11 34  1  0
 11 35  1  0
 12 36  1  0
 12 37  1  0
 13 38  1  0
 13 39  1  0
 14 40  1  0
 14 41  1  0
 19 42  1  0
 20 43  1  0
 23 44  1  0
 24 45  1  0
M  END
>  <UniqueID>  (33) 
30

>  <SMILES>  (33) 
Cn1c(SCC(=O)N2CCCCCC2)nnc1-c1ccc(F)cc1

>  <Energy>  (33) 
83.9436403683275

>  <Genealogy>  (33) 
Cn1c(SCC(=O)N2CCCCCC2)nnc1-c1ccc(F)cc1 (3D coordinates assigned)
Cn1c(SCC(=O)N2CCCCCC2)nnc1-c1ccc(F)cc1 (nonaromatic ring conformer: 83.9436403683275 kcal/mol)

>  <smiles>  (33) 
Cn1c(SCC(=O)N2CCCCCC2)nnc1-c1ccc(F)cc1

>  <score_type>  (33) 
oracle

>  <origin>  (33) 
adg

>  <m_score__min__energy>  (33) 
-6.04

>  <m_primary>  (33) 
energy

$$$$
33:0
     RDKit          3D

 40 41  0  0  0  0  0  0  0  0999 V2000
   55.2670   23.6760   45.1240 C   0  0  0  0  0  0  0  0  0  0  0  0
   55.3840   23.4030   46.6200 C   0  0  0  0  0  0  0  0  0  0  0  0
   55.9360   24.5290   47.3000 O   0  0  0  0  0  0  0  0  0  0  0  0
   56.8510   25.4480   46.7570 C   0  0  0  0  0  0  0  0  0  0  0  0
   58.2430   25.2660   46.8390 C   0  0  0  0  0  0  0  0  0  0  0  0
   59.1160   26.2020   46.2710 C   0  0  0  0  0  0  0  0  0  0  0  0
   60.6000   26.0240   46.4050 C   0  0  0  0  0  0  0  0  0  0  0  0
   58.5970   27.3500   45.6590 C   0  0  0  0  0  0  0  0  0  0  0  0
   57.2130   27.5640   45.5920 C   0  0  0  0  0  0  0  0  0  0  0  0
   56.7200   28.8450   45.0290 C   0  0  0  0  0  0  0  0  0  0  0  0
   55.5070   29.1520   45.1840 O   0  0  0  0  0  0  0  0  0  0  0  0
   57.5850   29.7310   44.1650 C   0  0  0  0  0  0  0  0  0  0  0  0
   56.9780   31.1300   43.9760 C   0  0  0  0  0  0  0  0  0  0  0  0
   57.6780   32.1790   44.8070 C   0  0  0  0  0  0  0  0  0  0  0  0
   58.1390   31.8720   46.0990 C   0  0  0  0  0  0  0  0  0  0  0  0
   58.7380   32.8590   46.8870 C   0  0  0  0  0  0  0  0  0  0  0  0
   58.8890   34.1560   46.3910 C   0  0  0  0  0  0  0  0  0  0  0  0
   58.4380   34.4700   45.1050 C   0  0  0  0  0  0  0  0  0  0  0  0
   57.8360   33.4860   44.3150 C   0  0  0  0  0  0  0  0  0  0  0  0
   56.3400   26.5830   46.1100 C   0  0  0  0  0  0  0  0  0  0  0  0
   54.9630   26.7140   45.9750 O   0  0  0  0  0  0  0  0  0  0  0  0
   54.8382   24.6766   44.9663 H   0  0  0  0  0  0  0  0  0  0  0  0
   56.2648   23.6279   44.6634 H   0  0  0  0  0  0  0  0  0  0  0  0
   54.6137   22.9203   44.6634 H   0  0  0  0  0  0  0  0  0  0  0  0
   54.3843   23.1908   47.0269 H   0  0  0  0  0  0  0  0  0  0  0  0
   56.0499   22.5403   46.7694 H   0  0  0  0  0  0  0  0  0  0  0  0
   58.6489   24.3822   47.3529 H   0  0  0  0  0  0  0  0  0  0  0  0
   60.8706   25.9915   47.4707 H   0  0  0  0  0  0  0  0  0  0  0  0
   60.9016   25.0832   45.9213 H   0  0  0  0  0  0  0  0  0  0  0  0
   61.1155   26.8667   45.9213 H   0  0  0  0  0  0  0  0  0  0  0  0
   59.2834   28.0925   45.2258 H   0  0  0  0  0  0  0  0  0  0  0  0
   58.5717   29.8344   44.6401 H   0  0  0  0  0  0  0  0  0  0  0  0
   57.6648   29.2612   43.1736 H   0  0  0  0  0  0  0  0  0  0  0  0
   57.0575   31.4090   42.9150 H   0  0  0  0  0  0  0  0  0  0  0  0
   55.9290   31.0873   44.3044 H   0  0  0  0  0  0  0  0  0  0  0  0
   58.0279   30.8505   46.4917 H   0  0  0  0  0  0  0  0  0  0  0  0
   59.0911   32.6139   47.8995 H   0  0  0  0  0  0  0  0  0  0  0  0
   59.3627   34.9306   47.0120 H   0  0  0  0  0  0  0  0  0  0  0  0
   58.5569   35.4916   44.7149 H   0  0  0  0  0  0  0  0  0  0  0  0
   57.4842   33.7361   43.3032 H   0  0  0  0  0  0  0  0  0  0  0  0
  1  2  1  0
  2  3  1  0
  3  4  1  0
  4  5  2  0
  5  6  1  0
  6  7  1  0
  6  8  2  0
  8  9  1  0
  9 10  1  0
 10 11  2  0
 10 12  1  0
 12 13  1  0
 13 14  1  0
 14 15  2  0
 15 16  1  0
 16 17  2  0
 17 18  1  0
 18 19  2  0
  9 20  2  0
 20 21  1  0
 20  4  1  0
 19 14  1  0
  1 22  1  0
  1 23  1  0
  1 24  1  0
  2 25  1  0
  2 26  1  0
  5 27  1  0
  7 28  1  0
  7 29  1  0
  7 30  1  0
  8 31  1  0
 12 32  1  0
 12 33  1  0
 13 34  1  0
 13 35  1  0
 15 36  1  0
 16 37  1  0
 17 38  1  0
 18 39  1  0
 19 40  1  0
M  CHG  1  21  -1
M  END
>  <UniqueID>  (34) 
31

>  <SMILES>  (34) 
CCOc1cc(C)cc(C(=O)CCc2ccccc2)c1[O-]

>  <Energy>  (34) 
36.46540733554066

>  <Genealogy>  (34) 
CCOc1cc(C)cc(C(=O)CCc2ccccc2)c1[O-] (protonated)
CCOc1cc(C)cc(C(=O)CCc2ccccc2)c1[O-] (3D coordinates assigned)
CCOc1cc(C)cc(C(=O)CCc2ccccc2)c1[O-] (optimized conformer: 36.46540733554066 kcal/mol)

>  <smiles>  (34) 
CCOc1cc(C)cc(C(=O)CCc2ccccc2)c1O

>  <score_type>  (34) 
oracle

>  <origin>  (34) 
adg

>  <m_score__min__energy>  (34) 
-12.42

>  <m_primary>  (34) 
energy

$$$$
34:0
     RDKit          3D

 33 35  0  0  0  0  0  0  0  0999 V2000
   58.1330   22.6620   44.5230 C   0  0  0  0  0  0  0  0  0  0  0  0
   57.8180   23.7320   45.4620 N   0  0  0  0  0  0  0  0  0  0  0  0
   57.3890   23.5900   46.7390 C   0  0  0  0  0  0  0  0  0  0  0  0
   57.1060   24.8340   47.3020 C   0  0  0  0  0  0  0  0  0  0  0  0
   57.3650   25.7500   46.3030 C   0  0  0  0  0  0  0  0  0  0  0  0
   57.2500   27.1350   46.2710 C   0  0  0  0  0  0  0  0  0  0  0  0
   57.5650   27.7920   45.0630 C   0  0  0  0  0  0  0  0  0  0  0  0
   57.4810   29.2250   45.0000 N   0  0  0  0  0  0  0  0  0  0  0  0
   56.2730   29.9520   44.7400 C   0  0  0  0  0  0  0  0  0  0  0  0
   55.1540   29.3730   44.8010 O   0  0  0  0  0  0  0  0  0  0  0  0
   56.3450   31.3640   44.5070 N   0  0  0  0  0  0  0  0  0  0  0  0
   57.3870   32.2500   44.9430 C   0  0  0  0  0  0  0  0  0  0  0  0
   58.0760   33.0890   44.0480 C   0  0  0  0  0  0  0  0  0  0  0  0
   59.1000   33.9220   44.5110 C   0  0  0  0  0  0  0  0  0  0  0  0
   59.4530   33.9140   45.8630 C   0  0  0  0  0  0  0  0  0  0  0  0
   58.7880   33.0650   46.7540 C   0  0  0  0  0  0  0  0  0  0  0  0
   59.2420   33.0430   48.4490 Cl  0  0  0  0  0  0  0  0  0  0  0  0
   57.7640   32.2310   46.2920 C   0  0  0  0  0  0  0  0  0  0  0  0
   58.0140   27.0220   43.9540 C   0  0  0  0  0  0  0  0  0  0  0  0
   58.1110   25.6610   44.0430 N   0  0  0  0  0  0  0  0  0  0  0  0
   57.7830   25.0520   45.2090 C   0  0  0  0  0  0  0  0  0  0  0  0
   58.4008   21.7522   45.0802 H   0  0  0  0  0  0  0  0  0  0  0  0
   57.2563   22.4596   43.8902 H   0  0  0  0  0  0  0  0  0  0  0  0
   58.9795   22.9669   43.8902 H   0  0  0  0  0  0  0  0  0  0  0  0
   57.2791   22.6272   47.2595 H   0  0  0  0  0  0  0  0  0  0  0  0
   56.7524   25.0407   48.3229 H   0  0  0  0  0  0  0  0  0  0  0  0
   56.9245   27.6994   47.1573 H   0  0  0  0  0  0  0  0  0  0  0  0
   58.3350   29.7820   45.2310 H   0  0  0  0  0  0  0  0  0  0  0  0
   57.8086   33.0899   42.9810 H   0  0  0  0  0  0  0  0  0  0  0  0
   59.6283   34.5845   43.8095 H   0  0  0  0  0  0  0  0  0  0  0  0
   60.2535   34.5751   46.2265 H   0  0  0  0  0  0  0  0  0  0  0  0
   57.2514   31.5557   46.9929 H   0  0  0  0  0  0  0  0  0  0  0  0
   58.2859   27.5268   43.0153 H   0  0  0  0  0  0  0  0  0  0  0  0
  1  2  1  0
  2  3  1  0
  3  4  2  0
  4  5  1  0
  5  6  2  0
  6  7  1  0
  7  8  1  0
  8  9  1  0
  9 10  2  0
  9 11  1  0
 11 12  1  0
 12 13  2  0
 13 14  1  0
 14 15  2  0
 15 16  1  0
 16 17  1  0
 16 18  2  0
  7 19  2  0
 19 20  1  0
 20 21  2  0
 21  2  1  0
 21  5  1  0
 18 12  1  0
  1 22  1  0
  1 23  1  0
  1 24  1  0
  3 25  1  0
  4 26  1  0
  6 27  1  0
  8 28  1  0
 13 29  1  0
 14 30  1  0
 15 31  1  0
 18 32  1  0
 19 33  1  0
M  CHG  1  11  -1
M  END
>  <UniqueID>  (35) 
32

>  <SMILES>  (35) 
Cn1ccc2cc(NC(=O)[N-]c3cccc(Cl)c3)cnc21

>  <Energy>  (35) 
76.47080345369486

>  <Genealogy>  (35) 
Cn1ccc2cc(NC(=O)[N-]c3cccc(Cl)c3)cnc21 (protonated)
Cn1ccc2cc(NC(=O)[N-]c3cccc(Cl)c3)cnc21 (3D coordinates assigned)
Cn1ccc2cc(NC(=O)[N-]c3cccc(Cl)c3)cnc21 (optimized conformer: 76.47080345369486 kcal/mol)

>  <smiles>  (35) 
Cn1ccc2cc(NC(=O)Nc3cccc(Cl)c3)cnc21

>  <score_type>  (35) 
oracle

>  <origin>  (35) 
adg

>  <m_score__min__energy>  (35) 
-8.9199999999999999

>  <m_primary>  (35) 
energy

$$$$
35:0
     RDKit          3D

 42 43  0  0  1  0  0  0  0  0999 V2000
   59.4300   33.4390   45.2050 O   0  0  0  0  0  0  0  0  0  0  0  0
   59.4820   33.8990   46.6520 S   0  0  0  0  0  0  0  0  0  0  0  0
   59.0420   35.3410   46.6360 O   0  0  0  0  0  0  0  0  0  0  0  0
   58.3130   33.0330   47.5600 N   0  0  0  0  0  0  0  0  0  0  0  0
   58.8320   32.0470   48.4460 C   0  0  0  0  0  0  0  0  0  0  0  0
   59.1630   30.8200   47.6570 C   0  0  0  0  0  0  0  0  0  0  0  0
   60.1110   29.9540   48.1600 C   0  0  0  0  0  0  0  0  0  0  0  0
   60.3950   28.8410   47.4230 C   0  0  0  0  0  0  0  0  0  0  0  0
   59.7450   28.6100   46.2180 C   0  0  0  0  0  0  0  0  0  0  0  0
   58.8060   29.4410   45.6850 C   0  0  0  0  0  0  0  0  0  0  0  0
   58.1620   29.4180   44.4110 C   0  0  0  0  0  0  0  0  0  0  0  0
   57.3640   30.2740   43.8640 C   0  0  0  0  0  0  0  0  0  0  0  0
   57.2700   31.6830   44.1150 C   0  0  0  0  0  0  0  0  0  0  0  0
   57.9550   32.5240   43.2140 O   0  0  0  0  0  0  0  0  0  0  0  0
   56.6510   32.3050   45.0330 N   0  0  0  0  0  0  0  0  0  0  0  0
   56.7140   33.6480   45.2630 O   0  0  0  0  0  0  0  0  0  0  0  0
   58.5280   30.5820   46.4640 C   0  0  0  0  0  0  0  0  0  0  0  0
   61.0710   33.7980   47.3140 C   0  0  0  0  0  0  0  0  0  0  0  0
   62.1330   33.5840   46.4270 C   0  0  0  0  0  0  0  0  0  0  0  0
   63.4370   33.4900   46.8710 C   0  0  0  0  0  0  0  0  0  0  0  0
   63.6750   33.6140   48.2310 C   0  0  0  0  0  0  0  0  0  0  0  0
   62.6430   33.8280   49.1360 C   0  0  0  0  0  0  0  0  0  0  0  0
   62.9960   33.9470   50.5580 C   0  0  0  0  0  0  0  0  0  0  0  0
   64.0640   33.0900   50.8340 F   0  0  0  0  0  0  0  0  0  0  0  0
   61.9420   33.5500   51.3400 F   0  0  0  0  0  0  0  0  0  0  0  0
   63.3840   35.2550   50.8760 F   0  0  0  0  0  0  0  0  0  0  0  0
   61.3550   33.9160   48.6630 C   0  0  0  0  0  0  0  0  0  0  0  0
   57.5690   32.6440   46.9700 H   0  0  0  0  0  0  0  0  0  0  0  0
   59.7405   32.4294   48.9342 H   0  0  0  0  0  0  0  0  0  0  0  0
   58.0859   31.8065   49.2177 H   0  0  0  0  0  0  0  0  0  0  0  0
   60.6176   30.1522   49.1161 H   0  0  0  0  0  0  0  0  0  0  0  0
   61.1441   28.1219   47.7861 H   0  0  0  0  0  0  0  0  0  0  0  0
   60.0044   27.6990   45.6586 H   0  0  0  0  0  0  0  0  0  0  0  0
   58.3798   28.5309   43.7982 H   0  0  0  0  0  0  0  0  0  0  0  0
   56.6697   29.8720   43.1115 H   0  0  0  0  0  0  0  0  0  0  0  0
   58.1010   33.5040   43.5080 H   0  0  0  0  0  0  0  0  0  0  0  0
   57.5280   33.9800   45.7820 H   0  0  0  0  0  0  0  0  0  0  0  0
   57.7794   31.3036   46.1049 H   0  0  0  0  0  0  0  0  0  0  0  0
   61.9236   33.4885   45.3513 H   0  0  0  0  0  0  0  0  0  0  0  0
   64.2638   33.3215   46.1653 H   0  0  0  0  0  0  0  0  0  0  0  0
   64.7076   33.5411   48.6031 H   0  0  0  0  0  0  0  0  0  0  0  0
   60.5318   34.0840   49.3730 H   0  0  0  0  0  0  0  0  0  0  0  0
  1  2  2  0
  2  3  2  0
  2  4  1  0
  4  5  1  0
  5  6  1  0
  6  7  2  0
  7  8  1  0
  8  9  2  0
  9 10  1  0
 10 11  1  0
 11 12  2  0
 12 13  1  0
 13 14  1  0
 13 15  2  0
 15 16  1  0
 10 17  2  0
  2 18  1  0
 18 19  2  0
 19 20  1  0
 20 21  2  0
 21 22  1  0
 22 23  1  0
 23 24  1  0
 23 25  1  0
 23 26  1  0
 22 27  2  0
 17  6  1  0
 27 18  1  0
  4 28  1  0
  5 29  1  0
  5 30  1  0
  7 31  1  0
  8 32  1  0
  9 33  1  0
 11 34  1  0
 12 35  1  0
 14 36  1  0
 16 37  1  0
 17 38  1  0
 19 39  1  0
 20 40  1  0
 21 41  1  0
 27 42  1  0
M  END
>  <smiles>  (36) 
O=S(=O)(NCc1cccc(C=CC(O)=NO)c1)c1cccc(C(F)(F)F)c1

>  <score_type>  (36) 
oracle

>  <origin>  (36) 
adg

>  <m_score__min__energy>  (36) 
-9.4600000000000009

>  <m_primary>  (36) 
energy

$$$$
36:0
     RDKit          3D

 32 34  0  0  0  0  0  0  0  0999 V2000
   58.5240   26.6910   46.3420 C   0  0  0  0  0  0  0  0  0  0  0  0
   58.3620   28.0550   45.8380 N   0  0  0  0  0  0  0  0  0  0  0  0
   58.3900   29.1910   46.5830 C   0  0  0  0  0  0  0  0  0  0  0  0
   58.5610   29.2380   47.8300 O   0  0  0  0  0  0  0  0  0  0  0  0
   58.2180   30.2630   45.7450 C   0  0  0  0  0  0  0  0  0  0  0  0
   58.2110   31.5950   45.9740 N   0  0  0  0  0  0  0  0  0  0  0  0
   58.0610   32.4260   44.8960 C   0  0  0  0  0  0  0  0  0  0  0  0
   58.0520   34.1980   45.1390 S   0  0  0  0  0  0  0  0  0  0  0  0
   59.2790   34.1120   46.4430 C   0  0  0  0  0  0  0  0  0  0  0  0
   58.8930   34.2630   47.7810 C   0  0  0  0  0  0  0  0  0  0  0  0
   59.8500   34.1890   48.7990 C   0  0  0  0  0  0  0  0  0  0  0  0
   61.1930   33.9660   48.4820 C   0  0  0  0  0  0  0  0  0  0  0  0
   61.5830   33.8190   47.1460 C   0  0  0  0  0  0  0  0  0  0  0  0
   63.2680   33.5390   46.7490 Cl  0  0  0  0  0  0  0  0  0  0  0  0
   60.6260   33.8940   46.1260 C   0  0  0  0  0  0  0  0  0  0  0  0
   57.9270   31.8830   43.5900 C   0  0  0  0  0  0  0  0  0  0  0  0
   57.9490   30.5260   43.4050 N   0  0  0  0  0  0  0  0  0  0  0  0
   58.0880   29.7340   44.4990 C   0  0  0  0  0  0  0  0  0  0  0  0
   58.1580   28.3870   44.5590 N   0  0  0  0  0  0  0  0  0  0  0  0
   58.1400   27.4590   43.4280 C   0  0  0  0  0  0  0  0  0  0  0  0
   58.5225   26.7039   47.4419 H   0  0  0  0  0  0  0  0  0  0  0  0
   57.6938   26.0659   45.9815 H   0  0  0  0  0  0  0  0  0  0  0  0
   59.4775   26.2777   45.9815 H   0  0  0  0  0  0  0  0  0  0  0  0
   57.8366   34.4399   48.0316 H   0  0  0  0  0  0  0  0  0  0  0  0
   59.5453   34.3064   49.8494 H   0  0  0  0  0  0  0  0  0  0  0  0
   61.9441   33.9060   49.2834 H   0  0  0  0  0  0  0  0  0  0  0  0
   60.9323   33.7817   45.0755 H   0  0  0  0  0  0  0  0  0  0  0  0
   57.8054   32.5532   42.7263 H   0  0  0  0  0  0  0  0  0  0  0  0
   57.8650   30.1240   42.4450 H   0  0  0  0  0  0  0  0  0  0  0  0
   58.1199   26.4249   43.8025 H   0  0  0  0  0  0  0  0  0  0  0  0
   57.2453   27.6446   42.8156 H   0  0  0  0  0  0  0  0  0  0  0  0
   59.0412   27.6098   42.8156 H   0  0  0  0  0  0  0  0  0  0  0  0
  1  2  1  0
  2  3  1  0
  3  4  2  0
  3  5  1  0
  5  6  2  0
  6  7  1  0
  7  8  1  0
  8  9  1  0
  9 10  2  0
 10 11  1  0
 11 12  2  0
 12 13  1  0
 13 14  1  0
 13 15  2  0
  7 16  2  0
 16 17  1  0
 17 18  2  0
 18 19  1  0
 19 20  1  0
 19  2  1  0
 18  5  1  0
 15  9  1  0
  1 21  1  0
  1 22  1  0
  1 23  1  0
 10 24  1  0
 11 25  1  0
 12 26  1  0
 15 27  1  0
 16 28  1  0
 17 29  1  0
 20 30  1  0
 20 31  1  0
 20 32  1  0
M  CHG  1  17   1
M  END
>  <UniqueID>  (37) 
33

>  <SMILES>  (37) 
Cn1c(=O)c2nc(Sc3cccc(Cl)c3)c[nH+]c2n1C

>  <Energy>  (37) 
77.20601471962732

>  <Genealogy>  (37) 
Cn1c(=O)c2nc(Sc3cccc(Cl)c3)c[nH+]c2n1C (protonated)
Cn1c(=O)c2nc(Sc3cccc(Cl)c3)c[nH+]c2n1C (3D coordinates assigned)
Cn1c(=O)c2nc(Sc3cccc(Cl)c3)c[nH+]c2n1C (optimized conformer: 77.20601471962732 kcal/mol)

>  <smiles>  (37) 
Cn1c(=O)c2nc(Sc3cccc(Cl)c3)cnc2n1C

>  <score_type>  (37) 
oracle

>  <origin>  (37) 
adg

>  <m_score__min__energy>  (37) 
-6.0300000000000002

>  <m_primary>  (37) 
energy

$$$$
37:0
     RDKit          3D

 56 59  0  0  0  0  0  0  0  0999 V2000
   59.1990   35.0100   44.9240 C   0  0  0  0  0  0  0  0  0  0  0  0
   59.6930   34.8460   46.3600 C   0  0  0  0  0  0  0  0  0  0  0  0
   58.7820   33.9330   47.1940 C   0  0  0  0  0  0  0  0  0  0  0  0
   59.1330   32.5140   47.0260 N   0  0  0  0  0  0  0  0  0  0  0  0
   60.1800   31.9520   47.8340 C   0  0  0  0  0  0  0  0  0  0  0  0
   60.0270   30.8070   48.3410 O   0  0  0  0  0  0  0  0  0  0  0  0
   61.4170   32.7040   48.0990 C   0  0  0  0  0  0  0  0  0  0  0  0
   61.6220   33.5870   49.1530 C   0  0  0  0  0  0  0  0  0  0  0  0
   62.8870   34.1880   49.1320 C   0  0  0  0  0  0  0  0  0  0  0  0
   63.6780   33.7900   48.0630 C   0  0  0  0  0  0  0  0  0  0  0  0
   62.8010   32.6890   47.1420 S   0  0  0  0  0  0  0  0  0  0  0  0
   58.4770   31.6990   46.0310 C   0  0  0  0  0  0  0  0  0  0  0  0
   58.5570   30.3470   45.9870 N   0  0  0  0  0  0  0  0  0  0  0  0
   57.8210   29.8070   44.9720 C   0  0  0  0  0  0  0  0  0  0  0  0
   57.7480   28.3450   44.7300 C   0  0  0  0  0  0  0  0  0  0  0  0
   57.5370   27.4520   45.7960 C   0  0  0  0  0  0  0  0  0  0  0  0
   57.4690   26.0750   45.5670 C   0  0  0  0  0  0  0  0  0  0  0  0
   57.6170   25.5600   44.2690 C   0  0  0  0  0  0  0  0  0  0  0  0
   57.5320   24.1420   44.0320 N   0  0  0  0  0  0  0  0  0  0  0  0
   56.6260   23.6190   43.0030 C   0  0  0  0  0  0  0  0  0  0  0  0
   56.3330   22.1270   43.2430 C   0  0  0  0  0  0  0  0  0  0  0  0
   56.2040   21.8180   44.6830 N   0  0  0  0  0  0  0  0  0  0  0  0
   55.0000   22.4320   45.2700 C   0  0  0  0  0  0  0  0  0  0  0  0
   57.4260   22.1370   45.4670 C   0  0  0  0  0  0  0  0  0  0  0  0
   58.3350   23.1910   44.8060 C   0  0  0  0  0  0  0  0  0  0  0  0
   57.8190   26.4500   43.2030 C   0  0  0  0  0  0  0  0  0  0  0  0
   57.8880   27.8280   43.4310 C   0  0  0  0  0  0  0  0  0  0  0  0
   57.1370   30.7460   44.1960 C   0  0  0  0  0  0  0  0  0  0  0  0
   57.4660   32.2750   44.8130 S   0  0  0  0  0  0  0  0  0  0  0  0
   58.1551   35.3566   44.9327 H   0  0  0  0  0  0  0  0  0  0  0  0
   59.8261   35.7482   44.4026 H   0  0  0  0  0  0  0  0  0  0  0  0
   59.2601   34.0434   44.4026 H   0  0  0  0  0  0  0  0  0  0  0  0
   60.7034   34.4116   46.3382 H   0  0  0  0  0  0  0  0  0  0  0  0
   59.6908   35.8405   46.8302 H   0  0  0  0  0  0  0  0  0  0  0  0
   58.8834   34.2020   48.2558 H   0  0  0  0  0  0  0  0  0  0  0  0
   57.7470   34.0735   46.8489 H   0  0  0  0  0  0  0  0  0  0  0  0
   60.8667   33.7930   49.9257 H   0  0  0  0  0  0  0  0  0  0  0  0
   63.2226   34.9087   49.8923 H   0  0  0  0  0  0  0  0  0  0  0  0
   64.7014   34.1350   47.8542 H   0  0  0  0  0  0  0  0  0  0  0  0
   59.1280   29.7790   46.6520 H   0  0  0  0  0  0  0  0  0  0  0  0
   57.4245   27.8408   46.8188 H   0  0  0  0  0  0  0  0  0  0  0  0
   57.2982   25.3893   46.4100 H   0  0  0  0  0  0  0  0  0  0  0  0
   55.6814   24.1819   43.0337 H   0  0  0  0  0  0  0  0  0  0  0  0
   57.1056   23.7313   42.0195 H   0  0  0  0  0  0  0  0  0  0  0  0
   55.3930   21.8627   42.7364 H   0  0  0  0  0  0  0  0  0  0  0  0
   57.1754   21.5441   42.8421 H   0  0  0  0  0  0  0  0  0  0  0  0
   55.0685   22.3971   46.3673 H   0  0  0  0  0  0  0  0  0  0  0  0
   54.9244   23.4787   44.9405 H   0  0  0  0  0  0  0  0  0  0  0  0
   54.1083   21.8785   44.9405 H   0  0  0  0  0  0  0  0  0  0  0  0
   57.1163   22.5158   46.4522 H   0  0  0  0  0  0  0  0  0  0  0  0
   58.0120   21.2087   45.5363 H   0  0  0  0  0  0  0  0  0  0  0  0
   58.8880   23.7340   45.5866 H   0  0  0  0  0  0  0  0  0  0  0  0
   59.0384   22.6832   44.1297 H   0  0  0  0  0  0  0  0  0  0  0  0
   57.9239   26.0605   42.1796 H   0  0  0  0  0  0  0  0  0  0  0  0
   58.0533   28.5129   42.5863 H   0  0  0  0  0  0  0  0  0  0  0  0
   56.4946   30.5236   43.3312 H   0  0  0  0  0  0  0  0  0  0  0  0
  1  2  1  0
  2  3  1  0
  3  4  1  0
  4  5  1  0
  5  6  2  0
  5  7  1  0
  7  8  2  0
  8  9  1  0
  9 10  2  0
 10 11  1  0
  4 12  1  0
 12 13  2  0
 13 14  1  0
 14 15  1  0
 15 16  2  0
 16 17  1  0
 17 18  2  0
 18 19  1  0
 19 20  1  0
 20 21  1  0
 21 22  1  0
 22 23  1  0
 22 24  1  0
 24 25  1  0
 18 26  1  0
 26 27  2  0
 14 28  2  0
 28 29  1  0
 11  7  1  0
 29 12  1  0
 27 15  1  0
 25 19  1  0
  1 30  1  0
  1 31  1  0
  1 32  1  0
  2 33  1  0
  2 34  1  0
  3 35  1  0
  3 36  1  0
  8 37  1  0
  9 38  1  0
 10 39  1  0
 13 40  1  0
 16 41  1  0
 17 42  1  0
 20 43  1  0
 20 44  1  0
 21 45  1  0
 21 46  1  0
 23 47  1  0
 23 48  1  0
 23 49  1  0
 24 50  1  0
 24 51  1  0
 25 52  1  0
 25 53  1  0
 26 54  1  0
 27 55  1  0
 28 56  1  0
M  CHG  1  13   1
M  END
>  <UniqueID>  (38) 
34

>  <SMILES>  (38) 
CCCN(C(=O)c1cccs1)c1[nH+]c(-c2ccc(N3CCN(C)CC3)cc2)cs1

>  <Energy>  (38) 
129.77417574072638

>  <Genealogy>  (38) 
CCCN(C(=O)c1cccs1)c1[nH+]c(-c2ccc(N3CCN(C)CC3)cc2)cs1 (protonated)
CCCN(C(=O)c1cccs1)c1[nH+]c(-c2ccc(N3CCN(C)CC3)cc2)cs1 (3D coordinates assigned)
CCCN(C(=O)c1cccs1)c1[nH+]c(-c2ccc(N3CCN(C)CC3)cc2)cs1 (nonaromatic ring conformer: 129.77417574072638 kcal/mol)

>  <smiles>  (38) 
CCCN(C(=O)c1cccs1)c1nc(-c2ccc(N3CCN(C)CC3)cc2)cs1

>  <score_type>  (38) 
oracle

>  <origin>  (38) 
adg

>  <m_score__min__energy>  (38) 
-7.5999999999999996

>  <m_primary>  (38) 
energy

$$$$
38:0
     RDKit          3D

 46 47  0  0  0  0  0  0  0  0999 V2000
   56.3600   29.7150   43.5380 C   0  0  0  0  0  0  0  0  0  0  0  0
   56.6300   30.1310   44.8720 O   0  0  0  0  0  0  0  0  0  0  0  0
   57.3990   31.2530   45.2190 C   0  0  0  0  0  0  0  0  0  0  0  0
   56.9520   32.5640   44.9530 C   0  0  0  0  0  0  0  0  0  0  0  0
   57.7350   33.6650   45.3040 C   0  0  0  0  0  0  0  0  0  0  0  0
   58.9700   33.4770   45.9240 C   0  0  0  0  0  0  0  0  0  0  0  0
   60.0340   34.9860   46.4100 Br  0  0  0  0  0  0  0  0  0  0  0  0
   59.4230   32.1850   46.1970 C   0  0  0  0  0  0  0  0  0  0  0  0
   58.6480   31.0700   45.8510 C   0  0  0  0  0  0  0  0  0  0  0  0
   59.2690   29.4630   46.2490 S   0  0  0  0  0  0  0  0  0  0  0  0
   60.6210   29.2960   45.6150 O   0  0  0  0  0  0  0  0  0  0  0  0
   58.3670   28.3710   45.7480 O   0  0  0  0  0  0  0  0  0  0  0  0
   59.4210   29.3080   47.9710 N   0  0  0  0  0  0  0  0  0  0  0  0
   59.5620   30.4350   48.8550 C   0  0  0  0  0  0  0  0  0  0  0  0
   58.5220   30.7500   49.7360 C   0  0  0  0  0  0  0  0  0  0  0  0
   58.6110   31.8640   50.5720 C   0  0  0  0  0  0  0  0  0  0  0  0
   59.7580   32.6820   50.5530 C   0  0  0  0  0  0  0  0  0  0  0  0
   59.8600   33.8270   51.3590 O   0  0  0  0  0  0  0  0  0  0  0  0
   58.9090   34.2070   52.3480 C   0  0  0  0  0  0  0  0  0  0  0  0
   60.8250   32.3470   49.6960 C   0  0  0  0  0  0  0  0  0  0  0  0
   62.3030   33.3240   49.6290 S   0  0  0  0  0  0  0  0  0  0  0  0
   62.7910   33.5680   51.0310 O   0  0  0  0  0  0  0  0  0  0  0  0
   62.0060   34.6620   49.0090 O   0  0  0  0  0  0  0  0  0  0  0  0
   63.5560   32.5250   48.7120 N   0  0  0  0  0  0  0  0  0  0  0  0
   64.8520   32.7070   49.3800 C   0  0  0  0  0  0  0  0  0  0  0  0
   63.6060   33.0710   47.3500 C   0  0  0  0  0  0  0  0  0  0  0  0
   60.7180   31.2340   48.8530 C   0  0  0  0  0  0  0  0  0  0  0  0
   55.7612   28.7924   43.5557 H   0  0  0  0  0  0  0  0  0  0  0  0
   55.8017   30.5045   43.0136 H   0  0  0  0  0  0  0  0  0  0  0  0
   57.3084   29.5266   43.0136 H   0  0  0  0  0  0  0  0  0  0  0  0
   55.9786   32.7201   44.4650 H   0  0  0  0  0  0  0  0  0  0  0  0
   57.3771   34.6831   45.0911 H   0  0  0  0  0  0  0  0  0  0  0  0
   60.3968   32.0410   46.6880 H   0  0  0  0  0  0  0  0  0  0  0  0
   59.2720   28.3570   48.3780 H   0  0  0  0  0  0  0  0  0  0  0  0
   57.6255   30.1136   49.7702 H   0  0  0  0  0  0  0  0  0  0  0  0
   57.7796   32.1051   51.2507 H   0  0  0  0  0  0  0  0  0  0  0  0
   59.3331   34.0375   53.3487 H   0  0  0  0  0  0  0  0  0  0  0  0
   58.6628   35.2726   52.2297 H   0  0  0  0  0  0  0  0  0  0  0  0
   57.9963   33.6045   52.2297 H   0  0  0  0  0  0  0  0  0  0  0  0
   64.7085   32.6868   50.4704 H   0  0  0  0  0  0  0  0  0  0  0  0
   65.5338   31.8958   49.0848 H   0  0  0  0  0  0  0  0  0  0  0  0
   65.2840   33.6746   49.0848 H   0  0  0  0  0  0  0  0  0  0  0  0
   63.7062   34.1654   47.3971 H   0  0  0  0  0  0  0  0  0  0  0  0
   64.4690   32.6464   46.8162 H   0  0  0  0  0  0  0  0  0  0  0  0
   62.6802   32.8102   46.8162 H   0  0  0  0  0  0  0  0  0  0  0  0
   61.5505   30.9816   48.1798 H   0  0  0  0  0  0  0  0  0  0  0  0
  1  2  1  0
  2  3  1  0
  3  4  2  0
  4  5  1  0
  5  6  2  0
  6  7  1  0
  6  8  1  0
  8  9  2  0
  9 10  1  0
 10 11  2  0
 10 12  2  0
 10 13  1  0
 13 14  1  0
 14 15  2  0
 15 16  1  0
 16 17  2  0
 17 18  1  0
 18 19  1  0
 17 20  1  0
 20 21  1  0
 21 22  2  0
 21 23  2  0
 21 24  1  0
 24 25  1  0
 24 26  1  0
 20 27  2  0
  9  3  1  0
 27 14  1  0
  1 28  1  0
  1 29  1  0
  1 30  1  0
  4 31  1  0
  5 32  1  0
  8 33  1  0
 13 34  1  0
 15 35  1  0
 16 36  1  0
 19 37  1  0
 19 38  1  0
 19 39  1  0
 25 40  1  0
 25 41  1  0
 25 42  1  0
 26 43  1  0
 26 44  1  0
 26 45  1  0
 27 46  1  0
M  END
>  <UniqueID>  (39) 
35

>  <SMILES>  (39) 
COc1ccc(Br)cc1S(=O)(=O)Nc1ccc(OC)c(S(=O)(=O)N(C)C)c1

>  <Energy>  (39) 
45.432241394622665

>  <Genealogy>  (39) 
COc1ccc(Br)cc1S(=O)(=O)Nc1ccc(OC)c(S(=O)(=O)N(C)C)c1 (3D coordinates assigned)
COc1ccc(Br)cc1S(=O)(=O)Nc1ccc(OC)c(S(=O)(=O)N(C)C)c1 (optimized conformer: 45.432241394622665 kcal/mol)

>  <smiles>  (39) 
COc1ccc(Br)cc1S(=O)(=O)Nc1ccc(OC)c(S(=O)(=O)N(C)C)c1

>  <score_type>  (39) 
oracle

>  <origin>  (39) 
adg

>  <m_score__min__energy>  (39) 
-8.4000000000000004

>  <m_primary>  (39) 
energy

$$$$
39:0
     RDKit          3D

 41 44  0  0  0  0  0  0  0  0999 V2000
   60.5440   34.3940   47.2920 C   0  0  0  0  0  0  0  0  0  0  0  0
   59.4150   33.6720   46.6200 C   0  0  0  0  0  0  0  0  0  0  0  0
   58.1100   34.2280   46.6390 C   0  0  0  0  0  0  0  0  0  0  0  0
   57.0320   33.5500   46.0410 C   0  0  0  0  0  0  0  0  0  0  0  0
   57.2920   32.3190   45.4510 C   0  0  0  0  0  0  0  0  0  0  0  0
   56.4590   31.5170   44.8310 O   0  0  0  0  0  0  0  0  0  0  0  0
   57.1840   30.4820   44.4450 C   0  0  0  0  0  0  0  0  0  0  0  0
   56.7100   29.5090   43.7990 O   0  0  0  0  0  0  0  0  0  0  0  0
   58.4870   30.5800   44.8100 N   0  0  0  0  0  0  0  0  0  0  0  0
   59.5840   29.6660   44.4940 C   0  0  0  0  0  0  0  0  0  0  0  0
   59.3740   28.3540   45.1870 C   0  0  0  0  0  0  0  0  0  0  0  0
   60.1810   27.9980   46.0880 O   0  0  0  0  0  0  0  0  0  0  0  0
   58.3190   27.4780   44.7600 N   0  0  0  0  0  0  0  0  0  0  0  0
   57.9610   26.2600   45.4330 C   0  0  0  0  0  0  0  0  0  0  0  0
   58.9570   25.3110   45.7120 C   0  0  0  0  0  0  0  0  0  0  0  0
   58.6350   24.1130   46.3590 C   0  0  0  0  0  0  0  0  0  0  0  0
   57.3120   23.8500   46.7190 C   0  0  0  0  0  0  0  0  0  0  0  0
   56.3040   24.7670   46.4020 C   0  0  0  0  0  0  0  0  0  0  0  0
   56.6230   25.9700   45.7660 C   0  0  0  0  0  0  0  0  0  0  0  0
   54.9800   24.4600   46.7280 O   0  0  0  0  0  0  0  0  0  0  0  0
   54.6020   23.1400   47.1300 C   0  0  0  0  0  0  0  0  0  0  0  0
   55.6920   22.5200   48.0120 C   0  0  0  0  0  0  0  0  0  0  0  0
   56.9740   22.6740   47.3980 O   0  0  0  0  0  0  0  0  0  0  0  0
   58.5420   31.7660   45.4450 C   0  0  0  0  0  0  0  0  0  0  0  0
   59.6350   32.4100   46.0220 C   0  0  0  0  0  0  0  0  0  0  0  0
   60.4285   34.3201   48.3834 H   0  0  0  0  0  0  0  0  0  0  0  0
   61.4998   33.9392   46.9928 H   0  0  0  0  0  0  0  0  0  0  0  0
   60.5321   35.4525   46.9928 H   0  0  0  0  0  0  0  0  0  0  0  0
   57.9392   35.1993   47.1263 H   0  0  0  0  0  0  0  0  0  0  0  0
   56.0192   33.9792   46.0405 H   0  0  0  0  0  0  0  0  0  0  0  0
   59.6198   29.5021   43.4069 H   0  0  0  0  0  0  0  0  0  0  0  0
   60.5316   30.1074   44.8363 H   0  0  0  0  0  0  0  0  0  0  0  0
   57.8530   27.6890   43.8480 H   0  0  0  0  0  0  0  0  0  0  0  0
   59.9985   25.5107   45.4198 H   0  0  0  0  0  0  0  0  0  0  0  0
   59.4232   23.3793   46.5837 H   0  0  0  0  0  0  0  0  0  0  0  0
   55.8283   26.6914   45.5251 H   0  0  0  0  0  0  0  0  0  0  0  0
   53.6606   23.1889   47.6969 H   0  0  0  0  0  0  0  0  0  0  0  0
   54.4698   22.5168   46.2332 H   0  0  0  0  0  0  0  0  0  0  0  0
   55.6958   23.0218   48.9909 H   0  0  0  0  0  0  0  0  0  0  0  0
   55.4826   21.4476   48.1392 H   0  0  0  0  0  0  0  0  0  0  0  0
   60.6350   31.9519   46.0124 H   0  0  0  0  0  0  0  0  0  0  0  0
  1  2  1  0
  2  3  2  0
  3  4  1  0
  4  5  2  0
  5  6  1  0
  6  7  1  0
  7  8  2  0
  7  9  1  0
  9 10  1  0
 10 11  1  0
 11 12  2  0
 11 13  1  0
 13 14  1  0
 14 15  2  0
 15 16  1  0
 16 17  2  0
 17 18  1  0
 18 19  2  0
 18 20  1  0
 20 21  1  0
 21 22  1  0
 22 23  1  0
  9 24  1  0
 24 25  2  0
 25  2  1  0
 24  5  1  0
 19 14  1  0
 23 17  1  0
  1 26  1  0
  1 27  1  0
  1 28  1  0
  3 29  1  0
  4 30  1  0
 10 31  1  0
 10 32  1  0
 13 33  1  0
 15 34  1  0
 16 35  1  0
 19 36  1  0
 21 37  1  0
 21 38  1  0
 22 39  1  0
 22 40  1  0
 25 41  1  0
M  END
>  <UniqueID>  (40) 
36

>  <SMILES>  (40) 
Cc1ccc2oc(=O)n(CC(=O)Nc3ccc4c(c3)OCCO4)c2c1

>  <Energy>  (40) 
87.40538989106692

>  <Genealogy>  (40) 
Cc1ccc2oc(=O)n(CC(=O)Nc3ccc4c(c3)OCCO4)c2c1 (3D coordinates assigned)
Cc1ccc2oc(=O)n(CC(=O)Nc3ccc4c(c3)OCCO4)c2c1 (nonaromatic ring conformer: 87.40538989106692 kcal/mol)

>  <smiles>  (40) 
Cc1ccc2oc(=O)n(CC(=O)Nc3ccc4c(c3)OCCO4)c2c1

>  <score_type>  (40) 
oracle

>  <origin>  (40) 
adg

>  <m_score__min__energy>  (40) 
-8.0299999999999994

>  <m_primary>  (40) 
energy

$$$$
40:0
     RDKit          3D

 45 48  0  0  0  0  0  0  0  0999 V2000
   59.6470   35.5080   45.9830 C   0  0  0  0  0  0  0  0  0  0  0  0
   58.6460   34.4750   46.5080 C   0  0  0  0  0  0  0  0  0  0  0  0
   57.5420   34.2110   45.4820 C   0  0  0  0  0  0  0  0  0  0  0  0
   59.3470   33.1880   46.8760 C   0  0  0  0  0  0  0  0  0  0  0  0
   59.6470   32.2200   46.0050 C   0  0  0  0  0  0  0  0  0  0  0  0
   60.4210   31.1250   46.7020 C   0  0  2  0  0  0  0  0  0  0  0  0
   59.3680   30.1390   47.3530 C   0  0  0  0  0  0  0  0  0  0  0  0
   58.6940   30.7550   48.5840 C   0  0  0  0  0  0  0  0  0  0  0  0
   58.9690   32.0220   48.9820 C   0  0  0  0  0  0  0  0  0  0  0  0
   59.9720   32.8710   48.2100 C   0  0  1  0  0  0  0  0  0  0  0  0
   61.1650   31.9860   47.7760 C   0  0  0  0  0  0  0  0  0  0  0  0
   62.2970   32.8350   47.1230 C   0  0  0  0  0  0  0  0  0  0  0  0
   61.8270   31.2220   48.9520 C   0  0  0  0  0  0  0  0  0  0  0  0
   58.2910   29.7130   46.3630 C   0  0  0  0  0  0  0  0  0  0  0  0
   57.4000   30.4700   45.8930 O   0  0  0  0  0  0  0  0  0  0  0  0
   58.3620   28.2880   46.0860 C   0  0  0  0  0  0  0  0  0  0  0  0
   57.5810   27.5120   45.2280 C   0  0  0  0  0  0  0  0  0  0  0  0
   57.8420   26.1320   45.1580 C   0  0  0  0  0  0  0  0  0  0  0  0
   58.8620   25.5620   45.9450 C   0  0  0  0  0  0  0  0  0  0  0  0
   59.6280   26.3670   46.8060 C   0  0  0  0  0  0  0  0  0  0  0  0
   59.3520   27.7340   46.8500 C   0  0  0  0  0  0  0  0  0  0  0  0
   59.9710   28.7750   47.6580 C   0  0  0  0  0  0  0  0  0  0  0  0
   60.8620   28.5390   48.5140 O   0  0  0  0  0  0  0  0  0  0  0  0
   60.1341   36.0107   46.8315 H   0  0  0  0  0  0  0  0  0  0  0  0
   60.4080   35.0027   45.3702 H   0  0  0  0  0  0  0  0  0  0  0  0
   59.1180   36.2527   45.3702 H   0  0  0  0  0  0  0  0  0  0  0  0
   58.1793   34.8869   47.4149 H   0  0  0  0  0  0  0  0  0  0  0  0
   56.6011   33.9860   46.0055 H   0  0  0  0  0  0  0  0  0  0  0  0
   57.4067   35.1021   44.8514 H   0  0  0  0  0  0  0  0  0  0  0  0
   57.8245   33.3551   44.8514 H   0  0  0  0  0  0  0  0  0  0  0  0
   59.3718   32.2202   44.9400 H   0  0  0  0  0  0  0  0  0  0  0  0
   61.0924   30.5016   46.0932 H   0  0  0  0  0  0  0  0  0  0  0  0
   57.9711   30.1561   49.1574 H   0  0  0  0  0  0  0  0  0  0  0  0
   58.4655   32.4391   49.8666 H   0  0  0  0  0  0  0  0  0  0  0  0
   60.2558   33.7344   48.8296 H   0  0  0  0  0  0  0  0  0  0  0  0
   62.9110   33.2955   47.9110 H   0  0  0  0  0  0  0  0  0  0  0  0
   62.9284   32.1859   46.4985 H   0  0  0  0  0  0  0  0  0  0  0  0
   61.8506   33.6229   46.4985 H   0  0  0  0  0  0  0  0  0  0  0  0
   61.4685   31.6357   49.9061 H   0  0  0  0  0  0  0  0  0  0  0  0
   61.5623   30.1560   48.8920 H   0  0  0  0  0  0  0  0  0  0  0  0
   62.9198   31.3323   48.8920 H   0  0  0  0  0  0  0  0  0  0  0  0
   56.7831   27.9675   44.6231 H   0  0  0  0  0  0  0  0  0  0  0  0
   57.2476   25.4952   44.4863 H   0  0  0  0  0  0  0  0  0  0  0  0
   59.0600   24.4816   45.8855 H   0  0  0  0  0  0  0  0  0  0  0  0
   60.4235   25.9310   47.4282 H   0  0  0  0  0  0  0  0  0  0  0  0
  1  2  1  0
  2  3  1  0
  2  4  1  0
  4  5  2  0
  5  6  1  0
  6  7  1  0
  7  8  1  0
  8  9  2  0
  9 10  1  0
 10 11  1  0
 11 12  1  0
 11 13  1  0
  7 14  1  0
 14 15  2  0
 14 16  1  0
 16 17  2  0
 17 18  1  0
 18 19  2  0
 19 20  1  0
 20 21  2  0
 21 22  1  0
 22 23  2  0
 10  4  1  0
 21 16  1  0
 11  6  1  0
 22  7  1  0
  1 24  1  0
  1 25  1  0
  1 26  1  0
  2 27  1  0
  3 28  1  0
  3 29  1  0
  3 30  1  0
  5 31  1  0
  6 32  1  6
  8 33  1  0
  9 34  1  0
 10 35  1  1
 12 36  1  0
 12 37  1  0
 12 38  1  0
 13 39  1  0
 13 40  1  0
 13 41  1  0
 17 42  1  0
 18 43  1  0
 19 44  1  0
 20 45  1  0
M  END
>  <UniqueID>  (41) 
37

>  <SMILES>  (41) 
CC(C)C1=C[C@@H]2C3(C=C[C@H]1C2(C)C)C(=O)c1ccccc1C3=O

>  <Energy>  (41) 
94.25727256838552

>  <Genealogy>  (41) 
CC(C)C1=C[C@@H]2C3(C=C[C@H]1C2(C)C)C(=O)c1ccccc1C3=O (chirality)
CC(C)C1=C[C@@H]2C3(C=C[C@H]1C2(C)C)C(=O)c1ccccc1C3=O (3D coordinates assigned)
CC(C)C1=C[C@@H]2C3(C=C[C@H]1C2(C)C)C(=O)c1ccccc1C3=O (nonaromatic ring conformer: 94.25727256838552 kcal/mol)

>  <smiles>  (41) 
CC(C)C1=CC2C3(C=CC1C2(C)C)C(=O)c1ccccc1C3=O

>  <score_type>  (41) 
oracle

>  <origin>  (41) 
adg

>  <m_score__min__energy>  (41) 
-8.1699999999999999

>  <m_primary>  (41) 
energy

$$$$
41:0
     RDKit          3D

 57 60  0  0  0  0  0  0  0  0999 V2000
   59.1620   35.1160   47.5260 O   0  0  0  0  0  0  0  0  0  0  0  0
   59.5020   33.9900   47.0730 C   0  0  0  0  0  0  0  0  0  0  0  0
   60.8200   33.8470   46.3630 C   0  0  0  0  0  0  0  0  0  0  0  0
   61.9880   34.0740   47.2470 N   0  0  0  0  0  0  0  0  0  0  0  0
   63.2570   33.4810   46.7650 C   0  0  0  0  0  0  0  0  0  0  0  0
   63.7170   32.2930   47.6250 C   0  0  0  0  0  0  0  0  0  0  0  0
   62.6020   31.6030   48.1380 O   0  0  0  0  0  0  0  0  0  0  0  0
   61.9660   32.3910   49.1260 C   0  0  0  0  0  0  0  0  0  0  0  0
   61.7210   33.8550   48.6830 C   0  0  0  0  0  0  0  0  0  0  0  0
   58.6920   32.8290   47.2970 N   0  0  0  0  0  0  0  0  0  0  0  0
   59.1390   31.5010   47.6010 C   0  0  0  0  0  0  0  0  0  0  0  0
   59.8880   30.7290   46.6940 C   0  0  0  0  0  0  0  0  0  0  0  0
   60.3020   29.4390   47.0410 C   0  0  0  0  0  0  0  0  0  0  0  0
   59.9880   28.9150   48.2990 C   0  0  0  0  0  0  0  0  0  0  0  0
   60.5020   27.2550   48.7390 S   0  0  0  0  0  0  0  0  0  0  0  0
   59.5140   26.5170   47.4410 C   0  0  0  0  0  0  0  0  0  0  0  0
   58.2470   27.0270   47.1460 C   0  0  0  0  0  0  0  0  0  0  0  0
   57.4890   26.4460   46.1210 C   0  0  0  0  0  0  0  0  0  0  0  0
   56.1490   26.9820   45.8130 C   0  0  0  0  0  0  0  0  0  0  0  0
   55.1340   26.2820   46.0660 O   0  0  0  0  0  0  0  0  0  0  0  0
   55.9710   28.2870   45.2480 N   0  0  0  0  0  0  0  0  0  0  0  0
   56.7320   29.4790   45.6190 C   0  0  0  0  0  0  0  0  0  0  0  0
   56.9960   30.3420   44.4130 C   0  0  0  0  0  0  0  0  0  0  0  0
   56.4280   30.0110   43.1720 C   0  0  0  0  0  0  0  0  0  0  0  0
   56.6360   30.8320   42.0600 C   0  0  0  0  0  0  0  0  0  0  0  0
   57.4160   31.9850   42.1760 C   0  0  0  0  0  0  0  0  0  0  0  0
   57.9930   32.3190   43.4060 C   0  0  0  0  0  0  0  0  0  0  0  0
   58.7490   33.4380   43.5190 F   0  0  0  0  0  0  0  0  0  0  0  0
   57.7900   31.4980   44.5200 C   0  0  0  0  0  0  0  0  0  0  0  0
   58.0230   25.3590   45.4020 C   0  0  0  0  0  0  0  0  0  0  0  0
   57.1130   24.5510   44.1280 Cl  0  0  0  0  0  0  0  0  0  0  0  0
   59.2940   24.8790   45.7370 C   0  0  0  0  0  0  0  0  0  0  0  0
   60.0050   25.4620   46.7370 N   0  0  0  0  0  0  0  0  0  0  0  0
   59.2730   29.6920   49.2170 C   0  0  0  0  0  0  0  0  0  0  0  0
   58.8540   30.9790   48.8700 C   0  0  0  0  0  0  0  0  0  0  0  0
   60.8863   32.8293   45.9508 H   0  0  0  0  0  0  0  0  0  0  0  0
   60.8520   34.6149   45.5760 H   0  0  0  0  0  0  0  0  0  0  0  0
   63.1134   33.1332   45.7313 H   0  0  0  0  0  0  0  0  0  0  0  0
   64.0331   34.2580   46.8268 H   0  0  0  0  0  0  0  0  0  0  0  0
   64.3157   31.6075   47.0072 H   0  0  0  0  0  0  0  0  0  0  0  0
   64.3223   32.6696   48.4627 H   0  0  0  0  0  0  0  0  0  0  0  0
   60.9954   31.9324   49.3659 H   0  0  0  0  0  0  0  0  0  0  0  0
   62.6376   32.4237   49.9966 H   0  0  0  0  0  0  0  0  0  0  0  0
   60.6714   34.1126   48.8880 H   0  0  0  0  0  0  0  0  0  0  0  0
   62.4172   34.4916   49.2487 H   0  0  0  0  0  0  0  0  0  0  0  0
   60.1489   31.1416   45.7083 H   0  0  0  0  0  0  0  0  0  0  0  0
   60.8760   28.8351   46.3227 H   0  0  0  0  0  0  0  0  0  0  0  0
   57.8472   27.8793   47.7150 H   0  0  0  0  0  0  0  0  0  0  0  0
   56.1582   30.0577   46.3579 H   0  0  0  0  0  0  0  0  0  0  0  0
   57.6960   29.1635   46.0446 H   0  0  0  0  0  0  0  0  0  0  0  0
   55.8167   29.1017   43.0746 H   0  0  0  0  0  0  0  0  0  0  0  0
   56.1846   30.5697   41.0918 H   0  0  0  0  0  0  0  0  0  0  0  0
   57.5766   32.6306   41.3000 H   0  0  0  0  0  0  0  0  0  0  0  0
   58.2531   31.7574   45.4835 H   0  0  0  0  0  0  0  0  0  0  0  0
   59.7193   24.0258   45.1882 H   0  0  0  0  0  0  0  0  0  0  0  0
   59.0403   29.2889   50.2137 H   0  0  0  0  0  0  0  0  0  0  0  0
   58.2965   31.5867   49.5979 H   0  0  0  0  0  0  0  0  0  0  0  0
  1  2  2  0
  2  3  1  0
  3  4  1  0
  4  5  1  0
  5  6  1  0
  6  7  1  0
  7  8  1  0
  8  9  1  0
  2 10  1  0
 10 11  1  0
 11 12  2  0
 12 13  1  0
 13 14  2  0
 14 15  1  0
 15 16  1  0
 16 17  2  0
 17 18  1  0
 18 19  1  0
 19 20  2  0
 19 21  1  0
 21 22  1  0
 22 23  1  0
 23 24  2  0
 24 25  1  0
 25 26  2  0
 26 27  1  0
 27 28  1  0
 27 29  2  0
 18 30  2  0
 30 31  1  0
 30 32  1  0
 32 33  2  0
 14 34  1  0
 34 35  2  0
  9  4  1  0
 35 11  1  0
 33 16  1  0
 29 23  1  0
  3 36  1  0
  3 37  1  0
  5 38  1  0
  5 39  1  0
  6 40  1  0
  6 41  1  0
  8 42  1  0
  8 43  1  0
  9 44  1  0
  9 45  1  0
 12 46  1  0
 13 47  1  0
 17 48  1  0
 22 49  1  0
 22 50  1  0
 24 51  1  0
 25 52  1  0
 26 53  1  0
 29 54  1  0
 32 55  1  0
 34 56  1  0
 35 57  1  0
M  CHG  2  10  -1  21  -1
M  END
>  <UniqueID>  (42) 
38

>  <SMILES>  (42) 
O=C(CN1CCOCC1)[N-]c1ccc(Sc2cc(C(=O)[N-]Cc3cccc(F)c3)c(Cl)cn2)cc1

>  <Energy>  (42) 
76.45515195782873

>  <Genealogy>  (42) 
O=C(CN1CCOCC1)[N-]c1ccc(Sc2cc(C(=O)[N-]Cc3cccc(F)c3)c(Cl)cn2)cc1 (protonated)
O=C(CN1CCOCC1)[N-]c1ccc(Sc2cc(C(=O)[N-]Cc3cccc(F)c3)c(Cl)cn2)cc1 (3D coordinates assigned)
O=C(CN1CCOCC1)[N-]c1ccc(Sc2cc(C(=O)[N-]Cc3cccc(F)c3)c(Cl)cn2)cc1 (nonaromatic ring conformer: 76.45515195782873 kcal/mol)

>  <smiles>  (42) 
O=C(CN1CCOCC1)Nc1ccc(Sc2cc(C(=O)NCc3cccc(F)c3)c(Cl)cn2)cc1

>  <score_type>  (42) 
oracle

>  <origin>  (42) 
adg

>  <m_score__min__energy>  (42) 
-12.890000000000001

>  <m_primary>  (42) 
energy

$$$$
42:0
     RDKit          3D

 47 51  0  0  0  0  0  0  0  0999 V2000
   61.2370   32.8840   48.8200 C   0  0  0  0  0  0  0  0  0  0  0  0
   60.4620   31.5640   48.9470 C   0  0  2  0  0  0  0  0  0  0  0  0
   61.4380   30.4360   49.3820 C   0  0  0  0  0  0  0  0  0  0  0  0
   60.8170   29.1110   49.3030 N   0  0  0  0  0  0  0  0  0  0  0  0
   59.9990   28.7580   48.1870 C   0  0  0  0  0  0  0  0  0  0  0  0
   59.6420   27.5630   48.0160 O   0  0  0  0  0  0  0  0  0  0  0  0
   59.5350   29.8410   47.3120 C   0  0  0  0  0  0  0  0  0  0  0  0
   59.7480   31.1660   47.6620 C   0  0  0  0  0  0  0  0  0  0  0  0
   59.0110   31.9060   46.7420 C   0  0  0  0  0  0  0  0  0  0  0  0
   58.7740   33.2790   46.6160 C   0  0  0  0  0  0  0  0  0  0  0  0
   57.9690   33.7210   45.5520 C   0  0  0  0  0  0  0  0  0  0  0  0
   57.4120   32.7980   44.6450 C   0  0  0  0  0  0  0  0  0  0  0  0
   57.6430   31.4220   44.7990 C   0  0  0  0  0  0  0  0  0  0  0  0
   58.4390   31.0020   45.8680 C   0  0  0  0  0  0  0  0  0  0  0  0
   58.7540   29.7340   46.2100 N   0  0  0  0  0  0  0  0  0  0  0  0
   58.3240   28.5290   45.5560 C   0  0  0  0  0  0  0  0  0  0  0  0
   58.7920   28.2150   44.2730 C   0  0  0  0  0  0  0  0  0  0  0  0
   58.3770   27.0400   43.6390 C   0  0  0  0  0  0  0  0  0  0  0  0
   57.4970   26.1580   44.2910 C   0  0  0  0  0  0  0  0  0  0  0  0
   57.0440   24.9770   43.6830 O   0  0  0  0  0  0  0  0  0  0  0  0
   57.4700   23.6800   44.0080 C   0  0  0  0  0  0  0  0  0  0  0  0
   56.8380   22.5910   43.4020 C   0  0  0  0  0  0  0  0  0  0  0  0
   57.2380   21.2920   43.7240 C   0  0  0  0  0  0  0  0  0  0  0  0
   58.2310   21.0870   44.6300 N   0  0  0  0  0  0  0  0  0  0  0  0
   58.8480   22.1280   45.2530 C   0  0  0  0  0  0  0  0  0  0  0  0
   58.4770   23.4420   44.9600 C   0  0  0  0  0  0  0  0  0  0  0  0
   57.0180   26.4820   45.5660 C   0  0  0  0  0  0  0  0  0  0  0  0
   57.4340   27.6580   46.1990 C   0  0  0  0  0  0  0  0  0  0  0  0
   61.4654   33.2731   49.8232 H   0  0  0  0  0  0  0  0  0  0  0  0
   62.1748   32.7074   48.2729 H   0  0  0  0  0  0  0  0  0  0  0  0
   60.6258   33.6169   48.2729 H   0  0  0  0  0  0  0  0  0  0  0  0
   59.6813   31.7144   49.7072 H   0  0  0  0  0  0  0  0  0  0  0  0
   62.3188   30.4551   48.7233 H   0  0  0  0  0  0  0  0  0  0  0  0
   61.7202   30.6167   50.4297 H   0  0  0  0  0  0  0  0  0  0  0  0
   59.2065   33.9942   47.3312 H   0  0  0  0  0  0  0  0  0  0  0  0
   57.7724   34.7960   45.4265 H   0  0  0  0  0  0  0  0  0  0  0  0
   56.7920   33.1580   43.8107 H   0  0  0  0  0  0  0  0  0  0  0  0
   57.2093   30.6942   44.0974 H   0  0  0  0  0  0  0  0  0  0  0  0
   59.4889   28.8959   43.7625 H   0  0  0  0  0  0  0  0  0  0  0  0
   58.7398   26.8049   42.6275 H   0  0  0  0  0  0  0  0  0  0  0  0
   56.0293   22.7559   42.6748 H   0  0  0  0  0  0  0  0  0  0  0  0
   56.7483   20.4323   43.2432 H   0  0  0  0  0  0  0  0  0  0  0  0
   58.5180   20.1100   44.8630 H   0  0  0  0  0  0  0  0  0  0  0  0
   59.6414   21.9337   45.9897 H   0  0  0  0  0  0  0  0  0  0  0  0
   58.9685   24.2838   45.4697 H   0  0  0  0  0  0  0  0  0  0  0  0
   56.3110   25.8085   46.0725 H   0  0  0  0  0  0  0  0  0  0  0  0
   57.0612   27.9001   47.2052 H   0  0  0  0  0  0  0  0  0  0  0  0
  1  2  1  0
  2  3  1  0
  3  4  1  0
  4  5  1  0
  5  6  2  0
  5  7  1  0
  7  8  2  0
  8  9  1  0
  9 10  2  0
 10 11  1  0
 11 12  2  0
 12 13  1  0
 13 14  2  0
 14 15  1  0
 15 16  1  0
 16 17  2  0
 17 18  1  0
 18 19  2  0
 19 20  1  0
 20 21  1  0
 21 22  2  0
 22 23  1  0
 23 24  2  0
 24 25  1  0
 25 26  2  0
 19 27  1  0
 27 28  2  0
  8  2  1  0
 14  9  1  0
 28 16  1  0
 15  7  1  0
 26 21  1  0
  1 29  1  0
  1 30  1  0
  1 31  1  0
  2 32  1  1
  3 33  1  0
  3 34  1  0
 10 35  1  0
 11 36  1  0
 12 37  1  0
 13 38  1  0
 17 39  1  0
 18 40  1  0
 22 41  1  0
 23 42  1  0
 24 43  1  0
 25 44  1  0
 26 45  1  0
 27 46  1  0
 28 47  1  0
M  CHG  2   4  -1  24   1
M  END
>  <UniqueID>  (43) 
39

>  <SMILES>  (43) 
C[C@@H]1C[N-]C(=O)c2c1c1ccccc1n2-c1ccc(Oc2cc[nH+]cc2)cc1

>  <Energy>  (43) 
105.7228145302171

>  <Genealogy>  (43) 
CC1C[N-]C(=O)c2c1c1ccccc1n2-c1ccc(Oc2cc[nH+]cc2)cc1 (protonated)
C[C@@H]1C[N-]C(=O)c2c1c1ccccc1n2-c1ccc(Oc2cc[nH+]cc2)cc1 (chirality)
C[C@@H]1C[N-]C(=O)c2c1c1ccccc1n2-c1ccc(Oc2cc[nH+]cc2)cc1 (3D coordinates assigned)
C[C@@H]1C[N-]C(=O)c2c1c1ccccc1n2-c1ccc(Oc2cc[nH+]cc2)cc1 (nonaromatic ring conformer: 105.7228145302171 kcal/mol)

>  <smiles>  (43) 
CC1CNC(=O)c2c1c1ccccc1n2-c1ccc(Oc2ccncc2)cc1

>  <score_type>  (43) 
oracle

>  <origin>  (43) 
adg

>  <m_score__min__energy>  (43) 
-8.1999999999999993

>  <m_primary>  (43) 
energy

$$$$
43:0
     RDKit          3D

 43 45  0  0  0  0  0  0  0  0999 V2000
   63.3910   32.3050   47.6160 C   0  0  0  0  0  0  0  0  0  0  0  0
   62.4900   31.2240   47.7170 O   0  0  0  0  0  0  0  0  0  0  0  0
   61.2540   31.5620   47.1190 C   0  0  0  0  0  0  0  0  0  0  0  0
   60.2470   30.4720   47.3300 C   0  0  0  0  0  0  0  0  0  0  0  0
   59.0470   30.3360   46.6310 C   0  0  0  0  0  0  0  0  0  0  0  0
   58.5940   29.0910   47.0320 C   0  0  0  0  0  0  0  0  0  0  0  0
   59.4460   28.5540   47.8780 N   0  0  0  0  0  0  0  0  0  0  0  0
   60.4880   29.3460   48.0410 N   0  0  0  0  0  0  0  0  0  0  0  0
   59.3840   27.1090   47.8450 C   0  0  0  0  0  0  0  0  0  0  0  0
   58.1790   26.8340   46.9010 C   0  0  0  0  0  0  0  0  0  0  0  0
   57.7790   28.1440   46.3580 N   0  0  0  0  0  0  0  0  0  0  0  0
   57.1560   28.3440   45.0770 C   0  0  0  0  0  0  0  0  0  0  0  0
   57.7420   27.9590   44.0310 O   0  0  0  0  0  0  0  0  0  0  0  0
   55.8740   28.9730   44.9440 N   0  0  0  0  0  0  0  0  0  0  0  0
   55.5320   30.0790   44.0550 C   0  0  0  0  0  0  0  0  0  0  0  0
   56.6500   31.1170   44.0140 C   0  0  0  0  0  0  0  0  0  0  0  0
   56.6420   31.8680   45.2250 O   0  0  0  0  0  0  0  0  0  0  0  0
   57.5620   32.8800   45.5360 C   0  0  0  0  0  0  0  0  0  0  0  0
   58.3080   33.4450   44.4940 C   0  0  0  0  0  0  0  0  0  0  0  0
   59.2360   34.4580   44.7550 C   0  0  0  0  0  0  0  0  0  0  0  0
   59.4250   34.9140   46.0620 C   0  0  0  0  0  0  0  0  0  0  0  0
   58.6870   34.3570   47.1100 C   0  0  0  0  0  0  0  0  0  0  0  0
   57.7580   33.3440   46.8530 C   0  0  0  0  0  0  0  0  0  0  0  0
   63.6727   32.6430   48.6242 H   0  0  0  0  0  0  0  0  0  0  0  0
   64.2913   31.9824   47.0725 H   0  0  0  0  0  0  0  0  0  0  0  0
   62.9115   33.1325   47.0725 H   0  0  0  0  0  0  0  0  0  0  0  0
   60.8780   32.4928   47.5687 H   0  0  0  0  0  0  0  0  0  0  0  0
   61.4091   31.6954   46.0382 H   0  0  0  0  0  0  0  0  0  0  0  0
   58.5766   31.0441   45.9329 H   0  0  0  0  0  0  0  0  0  0  0  0
   61.3810   29.0760   48.5090 H   0  0  0  0  0  0  0  0  0  0  0  0
   60.3120   26.6824   47.4366 H   0  0  0  0  0  0  0  0  0  0  0  0
   59.2676   26.6565   48.8408 H   0  0  0  0  0  0  0  0  0  0  0  0
   58.4785   26.1583   46.0864 H   0  0  0  0  0  0  0  0  0  0  0  0
   57.3494   26.3510   47.4381 H   0  0  0  0  0  0  0  0  0  0  0  0
   55.3684   29.6869   43.0403 H   0  0  0  0  0  0  0  0  0  0  0  0
   54.6198   30.5628   44.4343 H   0  0  0  0  0  0  0  0  0  0  0  0
   57.6192   30.6086   43.9037 H   0  0  0  0  0  0  0  0  0  0  0  0
   56.4930   31.7932   43.1608 H   0  0  0  0  0  0  0  0  0  0  0  0
   58.1629   33.0895   43.4632 H   0  0  0  0  0  0  0  0  0  0  0  0
   59.8177   34.8962   43.9306 H   0  0  0  0  0  0  0  0  0  0  0  0
   60.1547   35.7114   46.2662 H   0  0  0  0  0  0  0  0  0  0  0  0
   58.8372   34.7161   48.1388 H   0  0  0  0  0  0  0  0  0  0  0  0
   57.1787   32.9080   47.6802 H   0  0  0  0  0  0  0  0  0  0  0  0
  1  2  1  0
  2  3  1  0
  3  4  1  0
  4  5  1  0
  5  6  2  0
  6  7  1  0
  7  8  1  0
  7  9  1  0
  9 10  1  0
 10 11  1  0
 11 12  1  0
 12 13  2  0
 12 14  1  0
 14 15  1  0
 15 16  1  0
 16 17  1  0
 17 18  1  0
 18 19  2  0
 19 20  1  0
 20 21  2  0
 21 22  1  0
 22 23  2  0
  8  4  2  0
 23 18  1  0
 11  6  1  0
  1 24  1  0
  1 25  1  0
  1 26  1  0
  3 27  1  0
  3 28  1  0
  5 29  1  0
  8 30  1  0
  9 31  1  0
  9 32  1  0
 10 33  1  0
 10 34  1  0
 15 35  1  0
 15 36  1  0
 16 37  1  0
 16 38  1  0
 19 39  1  0
 20 40  1  0
 21 41  1  0
 22 42  1  0
 23 43  1  0
M  CHG  2   8   1  14  -1
M  END
>  <UniqueID>  (44) 
40

>  <SMILES>  (44) 
COCc1cc2n([nH+]1)CCN2C(=O)[N-]CCOc1ccccc1

>  <Energy>  (44) 
106.13586216915117

>  <Genealogy>  (44) 
COCc1cc2n([nH+]1)CCN2C(=O)[N-]CCOc1ccccc1 (protonated)
COCc1cc2n([nH+]1)CCN2C(=O)[N-]CCOc1ccccc1 (3D coordinates assigned)
COCc1cc2n([nH+]1)CCN2C(=O)[N-]CCOc1ccccc1 (nonaromatic ring conformer: 106.13586216915117 kcal/mol)

>  <smiles>  (44) 
COCc1cc2n(n1)CCN2C(=O)NCCOc1ccccc1

>  <score_type>  (44) 
oracle

>  <origin>  (44) 
adg

>  <m_score__min__energy>  (44) 
-7.0800000000000001

>  <m_primary>  (44) 
energy

$$$$
44:0
     RDKit          3D

 59 62  0  0  0  0  0  0  0  0999 V2000
   61.0029   31.6483   46.7339 H   0  0  0  0  0  0  0  0  0  0  0  0
   60.7230   32.5260   47.3350 C   0  0  0  0  0  0  0  0  0  0  0  0
   59.6270   33.2200   46.9750 C   0  0  0  0  0  0  0  0  0  0  0  0
   59.7310   34.5860   46.5120 C   0  0  0  0  0  0  0  0  0  0  0  0
   59.8140   35.6790   46.1420 N   0  0  0  0  0  0  0  0  0  0  0  0
   58.2900   32.5970   47.0420 C   0  0  0  0  0  0  0  0  0  0  0  0
   57.4050   33.0850   47.7980 O   0  0  0  0  0  0  0  0  0  0  0  0
   58.0090   31.4160   46.2820 N   0  0  0  0  0  0  0  0  0  0  0  0
   58.5330   31.1580   44.9430 C   0  0  0  0  0  0  0  0  0  0  0  0
   59.3749   31.8363   44.7401 H   0  0  0  0  0  0  0  0  0  0  0  0
   57.4260   31.4160   43.9100 C   0  0  0  0  0  0  0  0  0  0  0  0
   57.0821   32.4559   44.0119 H   0  0  0  0  0  0  0  0  0  0  0  0
   57.8468   31.2288   42.9111 H   0  0  0  0  0  0  0  0  0  0  0  0
   56.2190   30.4730   44.0990 C   0  0  0  0  0  0  0  0  0  0  0  0
   55.5063   30.9528   44.7860 H   0  0  0  0  0  0  0  0  0  0  0  0
   55.7851   30.2987   43.1033 H   0  0  0  0  0  0  0  0  0  0  0  0
   56.6010   29.0940   44.6760 C   0  0  0  0  0  0  0  0  0  0  0  0
   56.5177   29.1310   45.7722 H   0  0  0  0  0  0  0  0  0  0  0  0
   55.9161   28.3442   44.2532 H   0  0  0  0  0  0  0  0  0  0  0  0
   58.0330   28.6980   44.3000 C   0  0  0  0  0  0  0  0  0  0  0  0
   58.2502   27.7057   44.7220 H   0  0  0  0  0  0  0  0  0  0  0  0
   58.1070   28.6864   43.2026 H   0  0  0  0  0  0  0  0  0  0  0  0
   59.0680   29.7070   44.8390 C   0  0  0  0  0  0  0  0  0  0  0  0
   59.3811   29.3803   45.8416 H   0  0  0  0  0  0  0  0  0  0  0  0
   59.9018   29.7240   44.1218 H   0  0  0  0  0  0  0  0  0  0  0  0
   61.5730   32.8790   48.4960 C   0  0  0  0  0  0  0  0  0  0  0  0
   61.0180   33.3190   49.7150 C   0  0  0  0  0  0  0  0  0  0  0  0
   59.6320   33.3960   49.9250 O   0  0  0  0  0  0  0  0  0  0  0  0
   58.8550   32.3970   50.5280 C   0  0  0  0  0  0  0  0  0  0  0  0
   58.9580   31.0470   50.1490 C   0  0  0  0  0  0  0  0  0  0  0  0
   59.6850   30.7474   49.3798 H   0  0  0  0  0  0  0  0  0  0  0  0
   58.1390   30.0840   50.7470 C   0  0  0  0  0  0  0  0  0  0  0  0
   58.2185   29.0317   50.4367 H   0  0  0  0  0  0  0  0  0  0  0  0
   57.2190   30.4480   51.7370 C   0  0  0  0  0  0  0  0  0  0  0  0
   56.4130   29.4470   52.2980 O   0  0  0  0  0  0  0  0  0  0  0  0
   55.0710   29.6440   52.7300 C   0  0  0  0  0  0  0  0  0  0  0  0
   55.0367   29.6490   53.8295 H   0  0  0  0  0  0  0  0  0  0  0  0
   54.7001   30.6062   52.3472 H   0  0  0  0  0  0  0  0  0  0  0  0
   54.4392   28.8290   52.3472 H   0  0  0  0  0  0  0  0  0  0  0  0
   57.1350   31.7960   52.1330 C   0  0  0  0  0  0  0  0  0  0  0  0
   56.4201   32.0934   52.9143 H   0  0  0  0  0  0  0  0  0  0  0  0
   57.9560   32.7590   51.5380 C   0  0  0  0  0  0  0  0  0  0  0  0
   57.8950   33.8073   51.8656 H   0  0  0  0  0  0  0  0  0  0  0  0
   61.8420   33.7030   50.7180 N   0  0  0  0  0  0  0  0  0  0  0  0
   63.1920   33.6280   50.6070 C   0  0  0  0  0  0  0  0  0  0  0  0
   63.9850   34.0380   51.6820 C   0  0  0  0  0  0  0  0  0  0  0  0
   63.5161   34.4261   52.5982 H   0  0  0  0  0  0  0  0  0  0  0  0
   65.3700   33.9530   51.5880 C   0  0  0  0  0  0  0  0  0  0  0  0
   66.0003   34.2867   52.4255 H   0  0  0  0  0  0  0  0  0  0  0  0
   65.9600   33.4430   50.4280 C   0  0  0  0  0  0  0  0  0  0  0  0
   67.4530   33.3840   50.2990 C   0  0  0  0  0  0  0  0  0  0  0  0
   67.9072   33.3661   51.3007 H   0  0  0  0  0  0  0  0  0  0  0  0
   67.7380   32.4739   49.7508 H   0  0  0  0  0  0  0  0  0  0  0  0
   67.8089   34.2688   49.7508 H   0  0  0  0  0  0  0  0  0  0  0  0
   65.1370   33.0580   49.3600 C   0  0  0  0  0  0  0  0  0  0  0  0
   65.5936   32.6797   48.4335 H   0  0  0  0  0  0  0  0  0  0  0  0
   63.7700   33.1460   49.4530 N   0  0  0  0  0  0  0  0  0  0  0  0
   62.9710   32.7720   48.3990 C   0  0  0  0  0  0  0  0  0  0  0  0
   63.4820   32.3410   47.3260 O   0  0  0  0  0  0  0  0  0  0  0  0
  1  2  1  0
  2  3  2  0
  3  4  1  0
  4  5  3  0
  3  6  1  0
  6  7  2  0
  6  8  1  0
  8  9  1  0
  9 10  1  0
  9 11  1  0
 11 12  1  0
 11 13  1  0
 11 14  1  0
 14 15  1  0
 14 16  1  0
 14 17  1  0
 17 18  1  0
 17 19  1  0
 17 20  1  0
 20 21  1  0
 20 22  1  0
 20 23  1  0
 23 24  1  0
 23 25  1  0
  2 26  1  0
 26 27  2  0
 27 28  1  0
 28 29  1  0
 29 30  2  0
 30 31  1  0
 30 32  1  0
 32 33  1  0
 32 34  2  0
 34 35  1  0
 35 36  1  0
 36 37  1  0
 36 38  1  0
 36 39  1  0
 34 40  1  0
 40 41  1  0
 40 42  2  0
 42 43  1  0
 27 44  1  0
 44 45  2  0
 45 46  1  0
 46 47  1  0
 46 48  2  0
 48 49  1  0
 48 50  1  0
 50 51  1  0
 51 52  1  0
 51 53  1  0
 51 54  1  0
 50 55  2  0
 55 56  1  0
 55 57  1  0
 57 58  1  0
 58 59  2  0
 23  9  1  0
 58 26  1  0
 42 29  1  0
 57 45  1  0
M  CHG  1   8  -1
M  END
>  <UniqueID>  (45) 
41

>  <SMILES>  (45) 
COc1ccc(Oc2nc3ccc(C)cn3c(=O)c2/C=C(\C#N)C(=O)[N-]C2CCCCC2)cc1

>  <Energy>  (45) 
78.52510361487913

>  <Genealogy>  (45) 
COc1ccc(Oc2nc3ccc(C)cn3c(=O)c2C=C(C#N)C(=O)[N-]C2CCCCC2)cc1 (protonated)
COc1ccc(Oc2nc3ccc(C)cn3c(=O)c2/C=C(\C#N)C(=O)[N-]C2CCCCC2)cc1 (cis-trans isomerization)
COc1ccc(Oc2nc3ccc(C)cn3c(=O)c2/C=C(\C#N)C(=O)[N-]C2CCCCC2)cc1 (3D coordinates assigned)
COc1ccc(Oc2nc3ccc(C)cn3c(=O)c2/C=C(\C#N)C(=O)[N-]C2CCCCC2)cc1 (nonaromatic ring conformer: 78.52510361487913 kcal/mol)

>  <smiles>  (45) 
COc1ccc(Oc2nc3ccc(C)cn3c(=O)c2C=C(C#N)C(=O)NC2CCCCC2)cc1

>  <score_type>  (45) 
oracle

>  <origin>  (45) 
adg

>  <m_score__min__energy>  (45) 
-10.470000000000001

>  <m_primary>  (45) 
energy

$$$$
45:0
     RDKit          3D

 48 50  0  0  0  0  0  0  0  0999 V2000
   56.5440   32.4130   50.8190 H   0  0  0  0  0  0  0  0  0  0  0  0
   57.3870   32.3790   51.4340 N   0  0  0  0  0  0  0  0  0  0  0  0
   58.4550   31.7080   51.1290 C   0  0  0  0  0  0  0  0  0  0  0  0
   59.5600   32.3380   50.3630 C   0  0  0  0  0  0  0  0  0  0  0  0
   60.8980   31.9940   50.6090 C   0  0  0  0  0  0  0  0  0  0  0  0
   61.1358   31.2376   51.3714 H   0  0  0  0  0  0  0  0  0  0  0  0
   61.9290   32.6040   49.8940 C   0  0  0  0  0  0  0  0  0  0  0  0
   62.9723   32.3118   50.0839 H   0  0  0  0  0  0  0  0  0  0  0  0
   61.6440   33.5910   48.9310 C   0  0  0  0  0  0  0  0  0  0  0  0
   62.6570   34.2320   48.1990 O   0  0  0  0  0  0  0  0  0  0  0  0
   63.1230   33.8060   46.9230 C   0  0  0  0  0  0  0  0  0  0  0  0
   63.9291   33.0691   47.0543 H   0  0  0  0  0  0  0  0  0  0  0  0
   62.2940   33.3470   46.3644 H   0  0  0  0  0  0  0  0  0  0  0  0
   63.5060   34.6728   46.3644 H   0  0  0  0  0  0  0  0  0  0  0  0
   60.3100   33.9570   48.6950 C   0  0  0  0  0  0  0  0  0  0  0  0
   60.0290   34.9700   47.7140 N   0  0  0  0  0  0  0  0  0  0  0  0
   59.5640   34.7500   46.3750 C   0  0  0  0  0  0  0  0  0  0  0  0
   59.6440   35.6950   45.5460 O   0  0  0  0  0  0  0  0  0  0  0  0
   58.9600   33.4640   45.9520 C   0  0  0  0  0  0  0  0  0  0  0  0
   57.7570   33.4370   45.2290 C   0  0  0  0  0  0  0  0  0  0  0  0
   57.2731   34.3811   44.9383 H   0  0  0  0  0  0  0  0  0  0  0  0
   57.1700   32.2190   44.8760 C   0  0  0  0  0  0  0  0  0  0  0  0
   56.2202   32.2109   44.3212 H   0  0  0  0  0  0  0  0  0  0  0  0
   57.7850   31.0040   45.2250 C   0  0  0  0  0  0  0  0  0  0  0  0
   57.1460   29.7180   44.8650 C   0  0  0  0  0  0  0  0  0  0  0  0
   56.0150   29.7050   43.6690 S   0  0  0  0  0  0  0  0  0  0  0  0
   57.3710   28.5440   45.6710 N   0  0  0  0  0  0  0  0  0  0  0  0
   57.7640   28.6610   46.6310 H   0  0  0  0  0  0  0  0  0  0  0  0
   57.0980   27.2000   45.2430 C   0  0  0  0  0  0  0  0  0  0  0  0
   56.2020   26.4100   45.9780 C   0  0  0  0  0  0  0  0  0  0  0  0
   55.6975   26.8321   46.8596 H   0  0  0  0  0  0  0  0  0  0  0  0
   55.9460   25.0890   45.5970 C   0  0  0  0  0  0  0  0  0  0  0  0
   55.2313   24.4801   46.1702 H   0  0  0  0  0  0  0  0  0  0  0  0
   56.5980   24.5420   44.4880 C   0  0  0  0  0  0  0  0  0  0  0  0
   56.3912   23.5051   44.1847 H   0  0  0  0  0  0  0  0  0  0  0  0
   57.5120   25.3120   43.7650 C   0  0  0  0  0  0  0  0  0  0  0  0
   58.0304   24.8782   42.8972 H   0  0  0  0  0  0  0  0  0  0  0  0
   57.7690   26.6340   44.1430 C   0  0  0  0  0  0  0  0  0  0  0  0
   58.4983   27.2334   43.5784 H   0  0  0  0  0  0  0  0  0  0  0  0
   59.0020   31.0330   45.9250 C   0  0  0  0  0  0  0  0  0  0  0  0
   59.4985   30.0895   46.1959 H   0  0  0  0  0  0  0  0  0  0  0  0
   59.5870   32.2510   46.2800 C   0  0  0  0  0  0  0  0  0  0  0  0
   60.5452   32.2599   46.8201 H   0  0  0  0  0  0  0  0  0  0  0  0
   59.2750   33.3060   49.3880 C   0  0  0  0  0  0  0  0  0  0  0  0
   58.2282   33.5585   49.1632 H   0  0  0  0  0  0  0  0  0  0  0  0
   58.5590   30.3450   51.5490 N   0  0  0  0  0  0  0  0  0  0  0  0
   59.3580   29.7450   51.2470 H   0  0  0  0  0  0  0  0  0  0  0  0
   57.8020   29.9110   52.1220 H   0  0  0  0  0  0  0  0  0  0  0  0
  1  2  1  0
  2  3  2  0
  3  4  1  0
  4  5  2  0
  5  6  1  0
  5  7  1  0
  7  8  1  0
  7  9  2  0
  9 10  1  0
 10 11  1  0
 11 12  1  0
 11 13  1  0
 11 14  1  0
  9 15  1  0
 15 16  1  0
 16 17  1  0
 17 18  2  0
 17 19  1  0
 19 20  2  0
 20 21  1  0
 20 22  1  0
 22 23  1  0
 22 24  2  0
 24 25  1  0
 25 26  2  0
 25 27  1  0
 27 28  1  0
 27 29  1  0
 29 30  2  0
 30 31  1  0
 30 32  1  0
 32 33  1  0
 32 34  2  0
 34 35  1  0
 34 36  1  0
 36 37  1  0
 36 38  2  0
 38 39  1  0
 24 40  1  0
 40 41  1  0
 40 42  2  0
 42 43  1  0
 15 44  2  0
 44 45  1  0
  3 46  1  0
 46 47  1  0
 46 48  1  0
 44  4  1  0
 42 19  1  0
 38 29  1  0
M  CHG  1  16  -1
M  END
>  <UniqueID>  (46) 
42

>  <SMILES>  (46) 
[H]/N=C(/N)c1ccc(OC)c([N-]C(=O)c2ccc(C(=S)Nc3ccccc3)cc2)c1

>  <Energy>  (46) 
68.66157270238293

>  <Genealogy>  (46) 
COc1ccc(C(=N)N)cc1[N-]C(=O)c1ccc(C(=S)Nc2ccccc2)cc1 (protonated)
[H]/N=C(/N)c1ccc(OC)c([N-]C(=O)c2ccc(C(=S)Nc3ccccc3)cc2)c1 (cis-trans isomerization)
[H]/N=C(/N)c1ccc(OC)c([N-]C(=O)c2ccc(C(=S)Nc3ccccc3)cc2)c1 (3D coordinates assigned)
[H]/N=C(/N)c1ccc(OC)c([N-]C(=O)c2ccc(C(=S)Nc3ccccc3)cc2)c1 (optimized conformer: 68.66157270238293 kcal/mol)

>  <smiles>  (46) 
COc1ccc(C(=N)N)cc1NC(=O)c1ccc(C(=S)Nc2ccccc2)cc1

>  <score_type>  (46) 
oracle

>  <origin>  (46) 
adg

>  <m_score__min__energy>  (46) 
-9.5099999999999998

>  <m_primary>  (46) 
energy

$$$$
46:0
     RDKit          3D

 36 37  0  0  0  0  0  0  0  0999 V2000
   59.2480   33.6960   48.1720 C   0  0  0  0  0  0  0  0  0  0  0  0
   58.0720   33.6110   47.3730 O   0  0  0  0  0  0  0  0  0  0  0  0
   58.0440   33.1430   46.0510 C   0  0  0  0  0  0  0  0  0  0  0  0
   58.6790   33.9030   45.0650 C   0  0  0  0  0  0  0  0  0  0  0  0
   58.6890   33.4790   43.7360 C   0  0  0  0  0  0  0  0  0  0  0  0
   58.0550   32.2780   43.3650 C   0  0  0  0  0  0  0  0  0  0  0  0
   58.0680   31.8170   42.0390 O   0  0  0  0  0  0  0  0  0  0  0  0
   57.3730   32.4320   40.9590 C   0  0  0  0  0  0  0  0  0  0  0  0
   57.4010   31.5120   44.3520 C   0  0  0  0  0  0  0  0  0  0  0  0
   56.6240   29.9760   43.9470 S   0  0  0  0  0  0  0  0  0  0  0  0
   56.0790   30.0240   42.5460 O   0  0  0  0  0  0  0  0  0  0  0  0
   55.4800   29.7300   44.8890 O   0  0  0  0  0  0  0  0  0  0  0  0
   57.7960   28.6370   44.0970 C   0  0  0  0  0  0  0  0  0  0  0  0
   58.6910   28.8470   45.2870 C   0  0  0  0  0  0  0  0  0  0  0  0
   59.9660   29.4110   45.1230 C   0  0  0  0  0  0  0  0  0  0  0  0
   60.7750   29.6580   46.2350 C   0  0  0  0  0  0  0  0  0  0  0  0
   60.3150   29.3500   47.5190 C   0  0  0  0  0  0  0  0  0  0  0  0
   59.0440   28.7960   47.6910 C   0  0  0  0  0  0  0  0  0  0  0  0
   58.2330   28.5440   46.5810 C   0  0  0  0  0  0  0  0  0  0  0  0
   57.4080   31.9430   45.6870 C   0  0  0  0  0  0  0  0  0  0  0  0
   58.9705   33.6759   49.2362 H   0  0  0  0  0  0  0  0  0  0  0  0
   59.9056   32.8430   47.9484 H   0  0  0  0  0  0  0  0  0  0  0  0
   59.7761   34.6347   47.9484 H   0  0  0  0  0  0  0  0  0  0  0  0
   59.1760   34.8451   45.3396 H   0  0  0  0  0  0  0  0  0  0  0  0
   59.1959   34.0874   42.9725 H   0  0  0  0  0  0  0  0  0  0  0  0
   56.6050   33.1116   41.3568 H   0  0  0  0  0  0  0  0  0  0  0  0
   58.0838   33.0023   40.3429 H   0  0  0  0  0  0  0  0  0  0  0  0
   56.8934   31.6571   40.3429 H   0  0  0  0  0  0  0  0  0  0  0  0
   57.2494   27.6902   44.2185 H   0  0  0  0  0  0  0  0  0  0  0  0
   58.4157   28.6051   43.1887 H   0  0  0  0  0  0  0  0  0  0  0  0
   60.3296   29.6595   44.1150 H   0  0  0  0  0  0  0  0  0  0  0  0
   61.7753   30.0954   46.1002 H   0  0  0  0  0  0  0  0  0  0  0  0
   60.9536   29.5438   48.3934 H   0  0  0  0  0  0  0  0  0  0  0  0
   58.6810   28.5578   48.7017 H   0  0  0  0  0  0  0  0  0  0  0  0
   57.2331   28.1072   46.7204 H   0  0  0  0  0  0  0  0  0  0  0  0
   56.9105   31.3355   46.4574 H   0  0  0  0  0  0  0  0  0  0  0  0
  1  2  1  0
  2  3  1  0
  3  4  2  0
  4  5  1  0
  5  6  2  0
  6  7  1  0
  7  8  1  0
  6  9  1  0
  9 10  1  0
 10 11  2  0
 10 12  2  0
 10 13  1  0
 13 14  1  0
 14 15  2  0
 15 16  1  0
 16 17  2  0
 17 18  1  0
 18 19  2  0
  9 20  2  0
 20  3  1  0
 19 14  1  0
  1 21  1  0
  1 22  1  0
  1 23  1  0
  4 24  1  0
  5 25  1  0
  8 26  1  0
  8 27  1  0
  8 28  1  0
 13 29  1  0
 13 30  1  0
 15 31  1  0
 16 32  1  0
 17 33  1  0
 18 34  1  0
 19 35  1  0
 20 36  1  0
M  END
>  <UniqueID>  (47) 
43

>  <SMILES>  (47) 
COc1ccc(OC)c(S(=O)(=O)Cc2ccccc2)c1

>  <Energy>  (47) 
29.754896169323004

>  <Genealogy>  (47) 
COc1ccc(OC)c(S(=O)(=O)Cc2ccccc2)c1 (3D coordinates assigned)
COc1ccc(OC)c(S(=O)(=O)Cc2ccccc2)c1 (optimized conformer: 29.754896169323004 kcal/mol)

>  <smiles>  (47) 
COc1ccc(OC)c(S(=O)(=O)Cc2ccccc2)c1

>  <score_type>  (47) 
oracle

>  <origin>  (47) 
adg

>  <m_score__min__energy>  (47) 
-6.8600000000000003

>  <m_primary>  (47) 
energy

$$$$
47:0
     RDKit          3D

 40 43  0  0  0  0  0  0  0  0999 V2000
   57.0170   31.3570   42.2670 C   0  0  0  0  0  0  0  0  0  0  0  0
   56.8010   30.4550   43.4320 C   0  0  0  0  0  0  0  0  0  0  0  0
   57.5490   29.3660   43.6900 N   0  0  0  0  0  0  0  0  0  0  0  0
   56.9750   28.9120   44.8250 C   0  0  0  0  0  0  0  0  0  0  0  0
   57.4950   27.7270   45.5990 C   0  0  1  0  0  0  0  0  0  0  0  0
   58.0790   26.6020   44.6970 C   0  0  0  0  0  0  0  0  0  0  0  0
   59.1000   25.8490   45.3360 O   0  0  0  0  0  0  0  0  0  0  0  0
   58.7870   25.6230   46.6960 C   0  0  0  0  0  0  0  0  0  0  0  0
   58.7920   26.9500   47.4920 C   0  0  0  0  0  0  0  0  0  0  0  0
   58.4740   28.1210   46.6390 N   0  0  0  0  0  0  0  0  0  0  0  0
   59.7050   28.7400   46.0870 C   0  0  0  0  0  0  0  0  0  0  0  0
   59.6740   30.2180   46.3230 C   0  0  0  0  0  0  0  0  0  0  0  0
   60.6240   30.9370   47.0450 C   0  0  0  0  0  0  0  0  0  0  0  0
   60.1670   32.2370   47.0330 C   0  0  0  0  0  0  0  0  0  0  0  0
   60.7020   33.3930   47.5980 C   0  0  0  0  0  0  0  0  0  0  0  0
   59.9950   34.5970   47.4230 C   0  0  0  0  0  0  0  0  0  0  0  0
   58.7830   34.6160   46.6990 C   0  0  0  0  0  0  0  0  0  0  0  0
   58.2670   33.4310   46.1410 C   0  0  0  0  0  0  0  0  0  0  0  0
   58.9900   32.2550   46.3300 C   0  0  0  0  0  0  0  0  0  0  0  0
   58.6750   31.0240   45.8910 N   0  0  0  0  0  0  0  0  0  0  0  0
   55.9670   29.7050   45.2440 N   0  0  0  0  0  0  0  0  0  0  0  0
   55.8860   30.6430   44.3510 O   0  0  0  0  0  0  0  0  0  0  0  0
   57.2591   32.3681   42.6261 H   0  0  0  0  0  0  0  0  0  0  0  0
   57.8492   30.9754   41.6572 H   0  0  0  0  0  0  0  0  0  0  0  0
   56.1023   31.3937   41.6572 H   0  0  0  0  0  0  0  0  0  0  0  0
   56.6104   27.3064   46.0996 H   0  0  0  0  0  0  0  0  0  0  0  0
   57.2634   25.9190   44.4171 H   0  0  0  0  0  0  0  0  0  0  0  0
   58.5300   27.0868   43.8186 H   0  0  0  0  0  0  0  0  0  0  0  0
   57.7889   25.1657   46.7646 H   0  0  0  0  0  0  0  0  0  0  0  0
   59.5470   24.9532   47.1248 H   0  0  0  0  0  0  0  0  0  0  0  0
   58.0428   26.8835   48.2947 H   0  0  0  0  0  0  0  0  0  0  0  0
   59.8043   27.0947   47.8973 H   0  0  0  0  0  0  0  0  0  0  0  0
   60.5862   28.3084   46.5842 H   0  0  0  0  0  0  0  0  0  0  0  0
   59.7589   28.5440   45.0059 H   0  0  0  0  0  0  0  0  0  0  0  0
   61.5381   30.5517   47.5203 H   0  0  0  0  0  0  0  0  0  0  0  0
   61.6459   33.3653   48.1622 H   0  0  0  0  0  0  0  0  0  0  0  0
   60.3892   35.5295   47.8531 H   0  0  0  0  0  0  0  0  0  0  0  0
   58.2383   35.5630   46.5701 H   0  0  0  0  0  0  0  0  0  0  0  0
   57.3241   33.4334   45.5745 H   0  0  0  0  0  0  0  0  0  0  0  0
   57.8340   30.7470   45.3390 H   0  0  0  0  0  0  0  0  0  0  0  0
  1  2  1  0
  2  3  2  0
  3  4  1  0
  4  5  1  0
  5  6  1  0
  6  7  1  0
  7  8  1  0
  8  9  1  0
  9 10  1  0
 10 11  1  0
 11 12  1  0
 12 13  2  0
 13 14  1  0
 14 15  2  0
 15 16  1  0
 16 17  2  0
 17 18  1  0
 18 19  2  0
 19 20  1  0
  4 21  2  0
 21 22  1  0
 22  2  1  0
 10  5  1  0
 20 12  1  0
 19 14  1  0
  1 23  1  0
  1 24  1  0
  1 25  1  0
  5 26  1  1
  6 27  1  0
  6 28  1  0
  8 29  1  0
  8 30  1  0
  9 31  1  0
  9 32  1  0
 11 33  1  0
 11 34  1  0
 13 35  1  0
 15 36  1  0
 16 37  1  0
 17 38  1  0
 18 39  1  0
 20 40  1  0
M  END
>  <UniqueID>  (48) 
44

>  <SMILES>  (48) 
Cc1nc([C@H]2COCCN2Cc2cc3ccccc3[nH]2)no1

>  <Energy>  (48) 
120.89509206221567

>  <Genealogy>  (48) 
Cc1nc([C@H]2COCCN2Cc2cc3ccccc3[nH]2)no1 (chirality)
Cc1nc([C@H]2COCCN2Cc2cc3ccccc3[nH]2)no1 (3D coordinates assigned)
Cc1nc([C@H]2COCCN2Cc2cc3ccccc3[nH]2)no1 (nonaromatic ring conformer: 120.89509206221567 kcal/mol)

>  <smiles>  (48) 
Cc1nc(C2COCCN2Cc2cc3ccccc3[nH]2)no1

>  <score_type>  (48) 
oracle

>  <origin>  (48) 
adg

>  <m_score__min__energy>  (48) 
-7.2000000000000002

>  <m_primary>  (48) 
energy

$$$$
48:0
     RDKit          3D

 52 54  0  0  0  0  0  0  0  0999 V2000
   58.0506   33.3448   43.8185 H   0  0  0  0  0  0  0  0  0  0  0  0
   57.8590   32.8290   44.7710 C   0  0  0  0  0  0  0  0  0  0  0  0
   58.6700   33.1300   45.8160 C   0  0  0  0  0  0  0  0  0  0  0  0
   59.3040   34.3790   45.9280 O   0  0  0  0  0  0  0  0  0  0  0  0
   59.3010   35.3940   44.9280 C   0  0  0  0  0  0  0  0  0  0  0  0
   59.2981   36.3830   45.4094 H   0  0  0  0  0  0  0  0  0  0  0  0
   60.1994   35.2939   44.3013 H   0  0  0  0  0  0  0  0  0  0  0  0
   58.4032   35.2886   44.3013 H   0  0  0  0  0  0  0  0  0  0  0  0
   58.8840   32.1800   46.9240 C   0  0  0  0  0  0  0  0  0  0  0  0
   58.4770   32.5470   48.1020 N   0  0  0  0  0  0  0  0  0  0  0  0
   59.0960   33.5240   48.8470 O   0  0  0  0  0  0  0  0  0  0  0  0
   60.2400   33.2200   49.6260 C   0  0  0  0  0  0  0  0  0  0  0  0
   60.4311   34.0403   50.3335 H   0  0  0  0  0  0  0  0  0  0  0  0
   60.0677   32.2884   50.1849 H   0  0  0  0  0  0  0  0  0  0  0  0
   61.4280   33.0510   48.7210 C   0  0  0  0  0  0  0  0  0  0  0  0
   62.4030   32.0860   49.0190 C   0  0  0  0  0  0  0  0  0  0  0  0
   62.2698   31.4214   49.8853 H   0  0  0  0  0  0  0  0  0  0  0  0
   63.5430   31.9670   48.2180 C   0  0  0  0  0  0  0  0  0  0  0  0
   64.3015   31.2054   48.4518 H   0  0  0  0  0  0  0  0  0  0  0  0
   63.7200   32.8150   47.1200 C   0  0  0  0  0  0  0  0  0  0  0  0
   64.6158   32.7186   46.4890 H   0  0  0  0  0  0  0  0  0  0  0  0
   62.7580   33.7850   46.8250 C   0  0  0  0  0  0  0  0  0  0  0  0
   62.8980   34.4522   45.9617 H   0  0  0  0  0  0  0  0  0  0  0  0
   61.6180   33.9090   47.6250 C   0  0  0  0  0  0  0  0  0  0  0  0
   60.8680   34.6803   47.3956 H   0  0  0  0  0  0  0  0  0  0  0  0
   59.2480   30.7450   46.5840 C   0  0  1  0  0  0  0  0  0  0  0  0
   60.3465   30.7174   46.5329 H   0  0  0  0  0  0  0  0  0  0  0  0
   58.9330   29.6900   47.6710 C   0  0  0  0  0  0  0  0  0  0  0  0
   59.6804   29.7732   48.4737 H   0  0  0  0  0  0  0  0  0  0  0  0
   57.9188   29.8849   48.0496 H   0  0  0  0  0  0  0  0  0  0  0  0
   58.9630   28.2840   47.1210 C   0  0  0  0  0  0  0  0  0  0  0  0
   60.1860   27.6470   46.8500 C   0  0  0  0  0  0  0  0  0  0  0  0
   61.1325   28.1669   47.0596 H   0  0  0  0  0  0  0  0  0  0  0  0
   60.2050   26.3550   46.3150 C   0  0  0  0  0  0  0  0  0  0  0  0
   61.1654   25.8622   46.1032 H   0  0  0  0  0  0  0  0  0  0  0  0
   59.0050   25.6890   46.0490 C   0  0  0  0  0  0  0  0  0  0  0  0
   59.0217   24.6732   45.6273 H   0  0  0  0  0  0  0  0  0  0  0  0
   57.7830   26.3140   46.3190 C   0  0  0  0  0  0  0  0  0  0  0  0
   56.2770   25.4750   45.9870 Cl  0  0  0  0  0  0  0  0  0  0  0  0
   57.7610   27.6070   46.8530 C   0  0  0  0  0  0  0  0  0  0  0  0
   56.7985   28.0959   47.0640 H   0  0  0  0  0  0  0  0  0  0  0  0
   58.6430   30.3720   45.2150 C   0  0  0  0  0  0  0  0  0  0  0  0
   58.9192   29.3346   44.9753 H   0  0  0  0  0  0  0  0  0  0  0  0
   59.0401   31.0724   44.4655 H   0  0  0  0  0  0  0  0  0  0  0  0
   57.1640   30.4870   45.2120 N   0  0  0  0  0  0  0  0  0  0  0  0
   56.5910   29.4560   44.3320 C   0  0  0  0  0  0  0  0  0  0  0  0
   56.1470   28.6571   44.9440 H   0  0  0  0  0  0  0  0  0  0  0  0
   55.8138   29.9065   43.6971 H   0  0  0  0  0  0  0  0  0  0  0  0
   57.3839   29.0338   43.6971 H   0  0  0  0  0  0  0  0  0  0  0  0
   56.7090   31.8390   44.8080 C   0  0  0  0  0  0  0  0  0  0  0  0
   55.9570   32.1925   45.5288 H   0  0  0  0  0  0  0  0  0  0  0  0
   56.2825   31.7699   43.7964 H   0  0  0  0  0  0  0  0  0  0  0  0
  1  2  1  0
  2  3  2  0
  3  4  1  0
  4  5  1  0
  5  6  1  0
  5  7  1  0
  5  8  1  0
  3  9  1  0
  9 10  2  0
 10 11  1  0
 11 12  1  0
 12 13  1  0
 12 14  1  0
 12 15  1  0
 15 16  2  0
 16 17  1  0
 16 18  1  0
 18 19  1  0
 18 20  2  0
 20 21  1  0
 20 22  1  0
 22 23  1  0
 22 24  2  0
 24 25  1  0
  9 26  1  0
 26 27  1  6
 26 28  1  0
 28 29  1  0
 28 30  1  0
 28 31  1  0
 31 32  2  0
 32 33  1  0
 32 34  1  0
 34 35  1  0
 34 36  2  0
 36 37  1  0
 36 38  1  0
 38 39  1  0
 38 40  2  0
 40 41  1  0
 26 42  1  0
 42 43  1  0
 42 44  1  0
 42 45  1  0
 45 46  1  0
 46 47  1  0
 46 48  1  0
 46 49  1  0
 45 50  1  0
 50 51  1  0
 50 52  1  0
 50  2  1  0
 24 15  1  0
 40 31  1  0
M  END
>  <UniqueID>  (49) 
45

>  <SMILES>  (49) 
COC1=CCN(C)C[C@H](Cc2cccc(Cl)c2)/C1=N\OCc1ccccc1

>  <Energy>  (49) 
61.78492938059047

>  <Genealogy>  (49) 
COC1=CCN(C)C[C@H](Cc2cccc(Cl)c2)C1=NOCc1ccccc1 (chirality)
COC1=CCN(C)C[C@H](Cc2cccc(Cl)c2)/C1=N\OCc1ccccc1 (cis-trans isomerization)
COC1=CCN(C)C[C@H](Cc2cccc(Cl)c2)/C1=N\OCc1ccccc1 (3D coordinates assigned)
COC1=CCN(C)C[C@H](Cc2cccc(Cl)c2)/C1=N\OCc1ccccc1 (nonaromatic ring conformer: 61.78492938059047 kcal/mol)

>  <smiles>  (49) 
COC1=CCN(C)CC(Cc2cccc(Cl)c2)C1=NOCc1ccccc1

>  <score_type>  (49) 
oracle

>  <origin>  (49) 
adg

>  <m_score__min__energy>  (49) 
-7.0700000000000003

>  <m_primary>  (49) 
energy

$$$$
49:0
     RDKit          3D

 31 33  0  0  0  0  0  0  0  0999 V2000
   59.6530   35.2580   46.3190 C   0  0  0  0  0  0  0  0  0  0  0  0
   60.0510   34.2680   47.2200 C   0  0  0  0  0  0  0  0  0  0  0  0
   59.6870   32.9350   47.0030 C   0  0  0  0  0  0  0  0  0  0  0  0
   58.9170   32.5760   45.8800 C   0  0  0  0  0  0  0  0  0  0  0  0
   58.5360   31.1580   45.6550 C   0  0  0  0  0  0  0  0  0  0  0  0
   58.1720   30.5700   44.4410 C   0  0  0  0  0  0  0  0  0  0  0  0
   57.8570   29.2040   44.5460 C   0  0  0  0  0  0  0  0  0  0  0  0
   57.9760   28.7050   45.8440 C   0  0  0  0  0  0  0  0  0  0  0  0
   58.4530   29.9660   46.8460 S   0  0  0  0  0  0  0  0  0  0  0  0
   57.7150   27.3040   46.3310 C   0  0  0  0  0  0  0  0  0  0  0  0
   58.4090   26.1890   45.5200 C   0  0  0  0  0  0  0  0  0  0  0  0
   57.8210   26.0100   44.1810 N   0  0  0  0  0  0  0  0  0  0  0  0
   58.1900   27.0710   43.2240 C   0  0  0  0  0  0  0  0  0  0  0  0
   57.3950   28.3840   43.3770 C   0  0  0  0  0  0  0  0  0  0  0  0
   58.5260   33.5860   44.9780 C   0  0  0  0  0  0  0  0  0  0  0  0
   58.8930   34.9170   45.2000 C   0  0  0  0  0  0  0  0  0  0  0  0
   59.9386   36.3061   46.4916 H   0  0  0  0  0  0  0  0  0  0  0  0
   60.6515   34.5369   48.1015 H   0  0  0  0  0  0  0  0  0  0  0  0
   60.0051   32.1601   47.7160 H   0  0  0  0  0  0  0  0  0  0  0  0
   58.1353   31.1243   43.4916 H   0  0  0  0  0  0  0  0  0  0  0  0
   58.0628   27.2348   47.3723 H   0  0  0  0  0  0  0  0  0  0  0  0
   56.6336   27.1370   46.2183 H   0  0  0  0  0  0  0  0  0  0  0  0
   59.4723   26.4466   45.4059 H   0  0  0  0  0  0  0  0  0  0  0  0
   58.2758   25.2459   46.0702 H   0  0  0  0  0  0  0  0  0  0  0  0
   58.0610   25.0700   43.7880 H   0  0  0  0  0  0  0  0  0  0  0  0
   59.2574   27.2992   43.3606 H   0  0  0  0  0  0  0  0  0  0  0  0
   57.9547   26.6810   42.2228 H   0  0  0  0  0  0  0  0  0  0  0  0
   57.5162   28.9785   42.4595 H   0  0  0  0  0  0  0  0  0  0  0  0
   56.3419   28.1182   43.5512 H   0  0  0  0  0  0  0  0  0  0  0  0
   57.9276   33.3253   44.0926 H   0  0  0  0  0  0  0  0  0  0  0  0
   58.5815   35.6974   44.4901 H   0  0  0  0  0  0  0  0  0  0  0  0
  1  2  2  0
  2  3  1  0
  3  4  2  0
  4  5  1  0
  5  6  2  0
  6  7  1  0
  7  8  2  0
  8  9  1  0
  8 10  1  0
 10 11  1  0
 11 12  1  0
 12 13  1  0
 13 14  1  0
  4 15  1  0
 15 16  2  0
 16  1  1  0
  9  5  1  0
 14  7  1  0
  1 17  1  0
  2 18  1  0
  3 19  1  0
  6 20  1  0
 10 21  1  0
 10 22  1  0
 11 23  1  0
 11 24  1  0
 12 25  1  0
 13 26  1  0
 13 27  1  0
 14 28  1  0
 14 29  1  0
 15 30  1  0
 16 31  1  0
M  END
>  <UniqueID>  (50) 
46

>  <SMILES>  (50) 
c1ccc(-c2cc3c(s2)CCNCC3)cc1

>  <Energy>  (50) 
68.47906434017334

>  <Genealogy>  (50) 
c1ccc(-c2cc3c(s2)CCNCC3)cc1 (3D coordinates assigned)
c1ccc(-c2cc3c(s2)CCNCC3)cc1 (nonaromatic ring conformer: 68.47906434017334 kcal/mol)

>  <smiles>  (50) 
c1ccc(-c2cc3c(s2)CCNCC3)cc1

>  <score_type>  (50) 
oracle

>  <origin>  (50) 
adg

>  <m_score__min__energy>  (50) 
-5.1600000000000001

>  <m_primary>  (50) 
energy

$$$$
