0:0
     RDKit          3D

 48 51  0  0  0  0  0  0  0  0999 V2000
   61.0437   27.9957   46.3762 H   0  0  0  0  0  0  0  0  0  0  0  0
   60.1740   28.6050   46.0890 C   0  0  0  0  0  0  0  0  0  0  0  0
   59.5940   28.4410   44.8700 N   0  0  0  0  0  0  0  0  0  0  0  0
   58.5150   29.1780   44.4960 C   0  0  0  0  0  0  0  0  0  0  0  0
   58.0626   29.0339   43.5037 H   0  0  0  0  0  0  0  0  0  0  0  0
   57.9840   30.1210   45.3820 C   0  0  0  0  0  0  0  0  0  0  0  0
   56.9590   30.8400   45.0300 N   0  0  0  0  0  0  0  0  0  0  0  0
   57.0360   32.2200   44.5490 C   0  0  0  0  0  0  0  0  0  0  0  0
   57.4231   32.2228   43.5193 H   0  0  0  0  0  0  0  0  0  0  0  0
   56.0293   32.6623   44.5786 H   0  0  0  0  0  0  0  0  0  0  0  0
   57.9510   33.0370   45.4240 C   0  0  0  0  0  0  0  0  0  0  0  0
   58.9800   33.8090   44.8570 C   0  0  0  0  0  0  0  0  0  0  0  0
   59.1440   33.7903   43.7695 H   0  0  0  0  0  0  0  0  0  0  0  0
   59.7960   34.6010   45.6720 C   0  0  0  0  0  0  0  0  0  0  0  0
   60.5980   35.2062   45.2242 H   0  0  0  0  0  0  0  0  0  0  0  0
   59.5930   34.6240   47.0550 C   0  0  0  0  0  0  0  0  0  0  0  0
   60.2381   35.2439   47.6950 H   0  0  0  0  0  0  0  0  0  0  0  0
   58.5710   33.8600   47.6250 C   0  0  0  0  0  0  0  0  0  0  0  0
   58.4119   33.8798   48.7133 H   0  0  0  0  0  0  0  0  0  0  0  0
   57.7500   33.0700   46.8130 C   0  0  0  0  0  0  0  0  0  0  0  0
   56.9442   32.4727   47.2645 H   0  0  0  0  0  0  0  0  0  0  0  0
   58.5620   30.2760   46.6050 N   0  0  0  0  0  0  0  0  0  0  0  0
   59.6540   29.5570   46.9760 C   0  0  0  0  0  0  0  0  0  0  0  0
   60.2350   29.7610   48.3180 C   0  0  0  0  0  0  0  0  0  0  0  0
   61.3700   30.5850   48.5380 C   0  0  0  0  0  0  0  0  0  0  0  0
   61.9830   31.3190   47.5030 C   0  0  0  0  0  0  0  0  0  0  0  0
   61.5797   31.2586   46.4814 H   0  0  0  0  0  0  0  0  0  0  0  0
   63.1060   32.1290   47.7610 C   0  0  0  0  0  0  0  0  0  0  0  0
   63.7400   32.8660   46.7480 O   0  0  0  0  0  0  0  0  0  0  0  0
   63.3680   34.1830   46.3520 C   0  0  0  0  0  0  0  0  0  0  0  0
   63.1939   34.7994   47.2463 H   0  0  0  0  0  0  0  0  0  0  0  0
   64.1758   34.6274   45.7520 H   0  0  0  0  0  0  0  0  0  0  0  0
   62.4471   34.1391   45.7520 H   0  0  0  0  0  0  0  0  0  0  0  0
   63.6190   32.2150   49.0620 C   0  0  0  0  0  0  0  0  0  0  0  0
   64.7410   33.0300   49.2810 O   0  0  0  0  0  0  0  0  0  0  0  0
   65.8330   32.6920   50.1300 C   0  0  0  0  0  0  0  0  0  0  0  0
   65.5235   32.7878   51.1812 H   0  0  0  0  0  0  0  0  0  0  0  0
   66.1440   31.6556   49.9323 H   0  0  0  0  0  0  0  0  0  0  0  0
   66.6751   33.3715   49.9323 H   0  0  0  0  0  0  0  0  0  0  0  0
   63.0020   31.5000   50.1040 C   0  0  0  0  0  0  0  0  0  0  0  0
   63.4026   31.5708   51.1260 H   0  0  0  0  0  0  0  0  0  0  0  0
   61.8810   30.6980   49.8510 C   0  0  0  0  0  0  0  0  0  0  0  0
   61.2500   30.0220   50.9020 C   0  0  0  0  0  0  0  0  0  0  0  0
   61.6457   30.0981   51.9255 H   0  0  0  0  0  0  0  0  0  0  0  0
   60.1190   29.2530   50.6440 C   0  0  0  0  0  0  0  0  0  0  0  0
   59.6131   28.7305   51.4692 H   0  0  0  0  0  0  0  0  0  0  0  0
   59.6360   29.1440   49.3780 N   0  0  0  0  0  0  0  0  0  0  0  0
   58.7890   28.5520   49.2230 H   0  0  0  0  0  0  0  0  0  0  0  0
  1  2  1  0
  2  3  1  0
  3  4  2  0
  4  5  1  0
  4  6  1  0
  6  7  2  0
  7  8  1  0
  8  9  1  0
  8 10  1  0
  8 11  1  0
 11 12  2  0
 12 13  1  0
 12 14  1  0
 14 15  1  0
 14 16  2  0
 16 17  1  0
 16 18  1  0
 18 19  1  0
 18 20  2  0
 20 21  1  0
  6 22  1  0
 22 23  1  0
 23 24  1  0
 24 25  1  0
 25 26  2  0
 26 27  1  0
 26 28  1  0
 28 29  1  0
 29 30  1  0
 30 31  1  0
 30 32  1  0
 30 33  1  0
 28 34  2  0
 34 35  1  0
 35 36  1  0
 36 37  1  0
 36 38  1  0
 36 39  1  0
 34 40  1  0
 40 41  1  0
 40 42  2  0
 42 43  1  0
 43 44  1  0
 43 45  2  0
 45 46  1  0
 45 47  1  0
 47 48  1  0
 23  2  2  0
 47 24  2  0
 20 11  1  0
 42 25  1  0
M  CHG  2  22  -1  47   1
M  END
>  <UniqueID>  (1) 
1

>  <SMILES>  (1) 
COc1cc2cc[nH+]c(-c3cnc/c(=N/Cc4ccccc4)[n-]3)c2cc1OC

>  <Energy>  (1) 
63.12965160869009

>  <Genealogy>  (1) 
COc1cc2cc[nH+]c(-c3cncc(=NCc4ccccc4)[n-]3)c2cc1OC (protonated)
COc1cc2cc[nH+]c(-c3cnc/c(=N/Cc4ccccc4)[n-]3)c2cc1OC (cis-trans isomerization)
COc1cc2cc[nH+]c(-c3cnc/c(=N/Cc4ccccc4)[n-]3)c2cc1OC (3D coordinates assigned)
COc1cc2cc[nH+]c(-c3cnc/c(=N/Cc4ccccc4)[n-]3)c2cc1OC (optimized conformer: 63.12965160869009 kcal/mol)

>  <smiles>  (1) 
COc1cc2ccnc(-c3cncc(=NCc4ccccc4)[nH]3)c2cc1OC

>  <score_type>  (1) 
oracle

>  <origin>  (1) 
adg

>  <m_score__min__energy>  (1) 
-8.6099999999999994

>  <m_primary>  (1) 
energy

$$$$
1:0
     RDKit          3D

 27 28  0  0  0  0  0  0  0  0999 V2000
   56.2430   29.7080   42.7950 C   0  0  0  0  0  0  0  0  0  0  0  0
   56.0320   30.0110   44.2470 C   0  0  0  0  0  0  0  0  0  0  0  0
   55.1480   29.3680   44.8710 O   0  0  0  0  0  0  0  0  0  0  0  0
   56.7710   31.0190   44.9500 N   0  0  0  0  0  0  0  0  0  0  0  0
   58.2250   31.1610   45.0400 C   0  0  1  0  0  0  0  0  0  0  0  0
   58.5820   32.5470   45.4530 C   0  0  0  0  0  0  0  0  0  0  0  0
   58.5670   33.6990   44.6590 C   0  0  0  0  0  0  0  0  0  0  0  0
   58.9160   34.9270   45.2400 C   0  0  0  0  0  0  0  0  0  0  0  0
   59.2780   34.9910   46.5960 C   0  0  0  0  0  0  0  0  0  0  0  0
   59.3050   33.8250   47.3730 C   0  0  0  0  0  0  0  0  0  0  0  0
   58.9680   32.6070   46.7740 C   0  0  0  0  0  0  0  0  0  0  0  0
   58.9470   31.2680   47.4180 C   0  0  2  0  0  0  0  0  0  0  0  0
   60.1510   31.0130   48.0960 O   0  0  0  0  0  0  0  0  0  0  0  0
   58.7510   30.3020   46.2200 C   0  0  2  0  0  0  0  0  0  0  0  0
   59.9530   29.6570   45.8680 O   0  0  0  0  0  0  0  0  0  0  0  0
   56.8690   28.8090   42.6952 H   0  0  0  0  0  0  0  0  0  0  0  0
   55.2704   29.5330   42.3118 H   0  0  0  0  0  0  0  0  0  0  0  0
   56.7445   30.5595   42.3118 H   0  0  0  0  0  0  0  0  0  0  0  0
   58.6408   30.8805   44.0610 H   0  0  0  0  0  0  0  0  0  0  0  0
   58.2862   33.6426   43.5969 H   0  0  0  0  0  0  0  0  0  0  0  0
   58.9062   35.8434   44.6317 H   0  0  0  0  0  0  0  0  0  0  0  0
   59.5408   35.9584   47.0488 H   0  0  0  0  0  0  0  0  0  0  0  0
   59.5864   33.8671   48.4356 H   0  0  0  0  0  0  0  0  0  0  0  0
   58.1612   31.1657   48.1810 H   0  0  0  0  0  0  0  0  0  0  0  0
   60.3690   30.0570   47.9420 H   0  0  0  0  0  0  0  0  0  0  0  0
   58.0405   29.5049   46.4843 H   0  0  0  0  0  0  0  0  0  0  0  0
   60.7060   30.2360   46.1630 H   0  0  0  0  0  0  0  0  0  0  0  0
  1  2  1  0
  2  3  2  0
  2  4  1  0
  4  5  1  0
  5  6  1  0
  6  7  2  0
  7  8  1  0
  8  9  2  0
  9 10  1  0
 10 11  2  0
 11 12  1  0
 12 13  1  0
 12 14  1  0
 14 15  1  0
 14  5  1  0
 11  6  1  0
  1 16  1  0
  1 17  1  0
  1 18  1  0
  5 19  1  6
  7 20  1  0
  8 21  1  0
  9 22  1  0
 10 23  1  0
 12 24  1  1
 13 25  1  0
 14 26  1  1
 15 27  1  0
M  CHG  1   4  -1
M  END
>  <UniqueID>  (2) 
2

>  <SMILES>  (2) 
CC(=O)[N-][C@H]1c2ccccc2[C@H](O)C1O

>  <Energy>  (2) 
37.321409228271264

>  <Genealogy>  (2) 
CC(=O)[N-]C1c2ccccc2C(O)C1O (protonated)
CC(=O)[N-][C@H]1c2ccccc2[C@H](O)C1O (chirality)
CC(=O)[N-][C@H]1c2ccccc2[C@H](O)C1O (3D coordinates assigned)
CC(=O)[N-][C@H]1c2ccccc2[C@H](O)C1O (nonaromatic ring conformer: 37.321409228271264 kcal/mol)

>  <smiles>  (2) 
CC(=O)NC1c2ccccc2C(O)C1O

>  <score_type>  (2) 
oracle

>  <origin>  (2) 
adg

>  <m_score__min__energy>  (2) 
-7.2800000000000002

>  <m_primary>  (2) 
energy

$$$$
2:0
     RDKit          3D

 35 39  0  0  0  0  0  0  0  0999 V2000
   58.7930   31.9930   50.4200 O   0  0  0  0  0  0  0  0  0  0  0  0
   59.2180   31.7780   49.2560 C   0  0  0  0  0  0  0  0  0  0  0  0
   59.4950   30.8360   48.0710 N   0  0  0  0  0  0  0  0  0  0  0  0
   59.4750   29.5560   47.4460 C   0  0  0  0  0  0  0  0  0  0  0  0
   59.5830   28.3950   48.2210 C   0  0  0  0  0  0  0  0  0  0  0  0
   59.5630   27.1390   47.6060 C   0  0  0  0  0  0  0  0  0  0  0  0
   59.4330   27.0410   46.2160 C   0  0  0  0  0  0  0  0  0  0  0  0
   59.4130   25.8240   45.6210 F   0  0  0  0  0  0  0  0  0  0  0  0
   59.3240   28.2020   45.4410 C   0  0  0  0  0  0  0  0  0  0  0  0
   59.3450   29.4580   46.0550 C   0  0  0  0  0  0  0  0  0  0  0  0
   59.7860   32.1940   48.0680 C   0  0  0  0  0  0  0  0  0  0  0  0
   59.0730   32.9730   47.0180 C   0  0  0  0  0  0  0  0  0  0  0  0
   57.7140   33.0410   46.7070 C   0  0  0  0  0  0  0  0  0  0  0  0
   57.3190   33.8520   45.6300 C   0  0  0  0  0  0  0  0  0  0  0  0
   58.2800   34.5690   44.8850 C   0  0  0  0  0  0  0  0  0  0  0  0
   59.6450   34.4810   45.2090 C   0  0  0  0  0  0  0  0  0  0  0  0
   60.0180   33.6730   46.2840 C   0  0  0  0  0  0  0  0  0  0  0  0
   61.3510   33.3880   46.8230 C   0  0  0  0  0  0  0  0  0  0  0  0
   62.6000   33.8480   46.4030 C   0  0  0  0  0  0  0  0  0  0  0  0
   63.7400   33.4000   47.0910 C   0  0  0  0  0  0  0  0  0  0  0  0
   63.6170   32.5050   48.1740 C   0  0  0  0  0  0  0  0  0  0  0  0
   62.3520   32.0490   48.5810 C   0  0  0  0  0  0  0  0  0  0  0  0
   61.2310   32.5110   47.8900 C   0  0  0  0  0  0  0  0  0  0  0  0
   59.6836   28.4707   49.3138 H   0  0  0  0  0  0  0  0  0  0  0  0
   59.6495   26.2273   48.2154 H   0  0  0  0  0  0  0  0  0  0  0  0
   59.2218   28.1259   44.3484 H   0  0  0  0  0  0  0  0  0  0  0  0
   59.2594   30.3695   45.4453 H   0  0  0  0  0  0  0  0  0  0  0  0
   56.9723   32.4748   47.2895 H   0  0  0  0  0  0  0  0  0  0  0  0
   56.2540   33.9288   45.3656 H   0  0  0  0  0  0  0  0  0  0  0  0
   57.9582   35.2014   44.0445 H   0  0  0  0  0  0  0  0  0  0  0  0
   60.3993   35.0344   44.6304 H   0  0  0  0  0  0  0  0  0  0  0  0
   62.6894   34.5433   45.5553 H   0  0  0  0  0  0  0  0  0  0  0  0
   64.7362   33.7500   46.7826 H   0  0  0  0  0  0  0  0  0  0  0  0
   64.5178   32.1616   48.7037 H   0  0  0  0  0  0  0  0  0  0  0  0
   62.2480   31.3469   49.4214 H   0  0  0  0  0  0  0  0  0  0  0  0
  1  2  2  0
  2  3  1  0
  3  4  1  0
  4  5  2  0
  5  6  1  0
  6  7  2  0
  7  8  1  0
  7  9  1  0
  9 10  2  0
  3 11  1  0
 11 12  1  0
 12 13  2  0
 13 14  1  0
 14 15  2  0
 15 16  1  0
 16 17  2  0
 17 18  1  0
 18 19  2  0
 19 20  1  0
 20 21  2  0
 21 22  1  0
 22 23  2  0
 11  2  1  0
 17 12  1  0
 23 18  1  0
 10  4  1  0
 23 11  1  0
  5 24  1  0
  6 25  1  0
  9 26  1  0
 10 27  1  0
 13 28  1  0
 14 29  1  0
 15 30  1  0
 16 31  1  0
 19 32  1  0
 20 33  1  0
 21 34  1  0
 22 35  1  0
M  END
>  <UniqueID>  (3) 
3

>  <SMILES>  (3) 
O=C1N(c2ccc(F)cc2)C12c1ccccc1-c1ccccc12

>  <Energy>  (3) 
186.0885627227687

>  <Genealogy>  (3) 
O=C1N(c2ccc(F)cc2)C12c1ccccc1-c1ccccc12 (3D coordinates assigned)
O=C1N(c2ccc(F)cc2)C12c1ccccc1-c1ccccc12 (nonaromatic ring conformer: 186.0885627227687 kcal/mol)

>  <smiles>  (3) 
O=C1N(c2ccc(F)cc2)C12c1ccccc1-c1ccccc12

>  <score_type>  (3) 
oracle

>  <origin>  (3) 
adg

>  <m_score__min__energy>  (3) 
-7.9900000000000002

>  <m_primary>  (3) 
energy

$$$$
3:0
     RDKit          3D

 37 39  0  0  0  0  0  0  0  0999 V2000
   57.3520   32.3590   40.7310 C   0  0  0  0  0  0  0  0  0  0  0  0
   57.4030   31.7510   42.1010 C   0  0  0  0  0  0  0  0  0  0  0  0
   58.1240   32.3790   43.1270 C   0  0  0  0  0  0  0  0  0  0  0  0
   58.1380   31.8320   44.4140 C   0  0  0  0  0  0  0  0  0  0  0  0
   57.4370   30.6520   44.6930 C   0  0  0  0  0  0  0  0  0  0  0  0
   57.4650   30.1380   46.0320 N   0  0  0  0  0  0  0  0  0  0  0  0
   58.6150   30.0040   46.8760 C   0  0  0  0  0  0  0  0  0  0  0  0
   59.4740   29.1090   46.6610 O   0  0  0  0  0  0  0  0  0  0  0  0
   58.8150   30.9660   48.0070 C   0  0  0  0  0  0  0  0  0  0  0  0
   59.3900   32.2390   47.5130 N   0  0  0  0  0  0  0  0  0  0  0  0
   58.5350   33.2580   47.1500 C   0  0  0  0  0  0  0  0  0  0  0  0
   57.2830   33.1090   47.2170 O   0  0  0  0  0  0  0  0  0  0  0  0
   59.0280   34.4810   46.6950 C   0  0  0  0  0  0  0  0  0  0  0  0
   60.3950   34.6800   46.5880 C   0  0  0  0  0  0  0  0  0  0  0  0
   61.2750   33.6520   46.9210 C   0  0  0  0  0  0  0  0  0  0  0  0
   62.6590   33.8470   46.7920 C   0  0  0  0  0  0  0  0  0  0  0  0
   63.5460   32.8180   47.1030 C   0  0  0  0  0  0  0  0  0  0  0  0
   63.0610   31.5880   47.5400 C   0  0  0  0  0  0  0  0  0  0  0  0
   61.6860   31.3780   47.6770 C   0  0  0  0  0  0  0  0  0  0  0  0
   60.7600   32.4100   47.3810 C   0  0  0  0  0  0  0  0  0  0  0  0
   56.6810   30.0460   43.6750 C   0  0  0  0  0  0  0  0  0  0  0  0
   56.6640   30.5930   42.3880 C   0  0  0  0  0  0  0  0  0  0  0  0
   57.2603   33.4517   40.8180 H   0  0  0  0  0  0  0  0  0  0  0  0
   58.2741   32.1107   40.1851 H   0  0  0  0  0  0  0  0  0  0  0  0
   56.4841   31.9605   40.1851 H   0  0  0  0  0  0  0  0  0  0  0  0
   58.6803   33.3048   42.9187 H   0  0  0  0  0  0  0  0  0  0  0  0
   58.7040   32.3324   45.2135 H   0  0  0  0  0  0  0  0  0  0  0  0
   57.8452   31.1687   48.4850 H   0  0  0  0  0  0  0  0  0  0  0  0
   59.5111   30.5204   48.7328 H   0  0  0  0  0  0  0  0  0  0  0  0
   58.3316   35.2873   46.4212 H   0  0  0  0  0  0  0  0  0  0  0  0
   60.7851   35.6481   46.2407 H   0  0  0  0  0  0  0  0  0  0  0  0
   63.0453   34.8163   46.4439 H   0  0  0  0  0  0  0  0  0  0  0  0
   64.6298   32.9775   47.0032 H   0  0  0  0  0  0  0  0  0  0  0  0
   63.7643   30.7767   47.7788 H   0  0  0  0  0  0  0  0  0  0  0  0
   61.3176   30.3995   48.0188 H   0  0  0  0  0  0  0  0  0  0  0  0
   56.1000   29.1374   43.8915 H   0  0  0  0  0  0  0  0  0  0  0  0
   56.0687   30.1134   41.5971 H   0  0  0  0  0  0  0  0  0  0  0  0
  1  2  1  0
  2  3  2  0
  3  4  1  0
  4  5  2  0
  5  6  1  0
  6  7  1  0
  7  8  2  0
  7  9  1  0
  9 10  1  0
 10 11  1  0
 11 12  2  0
 11 13  1  0
 13 14  2  0
 14 15  1  0
 15 16  2  0
 16 17  1  0
 17 18  2  0
 18 19  1  0
 19 20  2  0
  5 21  1  0
 21 22  2  0
 22  2  1  0
 20 10  1  0
 20 15  1  0
  1 23  1  0
  1 24  1  0
  1 25  1  0
  3 26  1  0
  4 27  1  0
  9 28  1  0
  9 29  1  0
 13 30  1  0
 14 31  1  0
 16 32  1  0
 17 33  1  0
 18 34  1  0
 19 35  1  0
 21 36  1  0
 22 37  1  0
M  CHG  1   6  -1
M  END
>  <UniqueID>  (4) 
4

>  <SMILES>  (4) 
Cc1ccc([N-]C(=O)Cn2c(=O)ccc3ccccc32)cc1

>  <Energy>  (4) 
51.49123200033177

>  <Genealogy>  (4) 
Cc1ccc([N-]C(=O)Cn2c(=O)ccc3ccccc32)cc1 (protonated)
Cc1ccc([N-]C(=O)Cn2c(=O)ccc3ccccc32)cc1 (3D coordinates assigned)
Cc1ccc([N-]C(=O)Cn2c(=O)ccc3ccccc32)cc1 (optimized conformer: 51.49123200033177 kcal/mol)

>  <smiles>  (4) 
Cc1ccc(NC(=O)Cn2c(=O)ccc3ccccc32)cc1

>  <score_type>  (4) 
oracle

>  <origin>  (4) 
adg

>  <m_score__min__energy>  (4) 
-9.1500000000000004

>  <m_primary>  (4) 
energy

$$$$
4:0
     RDKit          3D

 41 44  0  0  0  0  0  0  0  0999 V2000
   59.2520   34.9140   47.1400 C   0  0  0  0  0  0  0  0  0  0  0  0
   58.3270   33.8340   47.2010 O   0  0  0  0  0  0  0  0  0  0  0  0
   58.1690   33.0810   46.0450 C   0  0  0  0  0  0  0  0  0  0  0  0
   57.9090   33.6370   44.8100 C   0  0  0  0  0  0  0  0  0  0  0  0
   57.7720   32.7890   43.7320 C   0  0  0  0  0  0  0  0  0  0  0  0
   57.8830   31.4160   43.8300 C   0  0  0  0  0  0  0  0  0  0  0  0
   58.1430   30.8860   45.0760 C   0  0  0  0  0  0  0  0  0  0  0  0
   58.2700   29.4440   45.2410 C   0  0  0  0  0  0  0  0  0  0  0  0
   57.5970   28.5010   44.5560 N   0  0  0  0  0  0  0  0  0  0  0  0
   57.9500   27.2760   44.9530 C   0  0  0  0  0  0  0  0  0  0  0  0
   57.5320   26.0250   44.5410 C   0  0  0  0  0  0  0  0  0  0  0  0
   58.0880   24.9110   45.1480 C   0  0  0  0  0  0  0  0  0  0  0  0
   57.6190   23.6100   44.6840 C   0  0  0  0  0  0  0  0  0  0  0  0
   56.3380   23.5450   44.1760 C   0  0  0  0  0  0  0  0  0  0  0  0
   55.9110   22.3250   43.7460 N   0  0  0  0  0  0  0  0  0  0  0  0
   56.7050   21.2340   43.8150 C   0  0  0  0  0  0  0  0  0  0  0  0
   56.2670   20.0860   43.3980 N   0  0  0  0  0  0  0  0  0  0  0  0
   57.9670   21.2970   44.3170 N   0  0  0  0  0  0  0  0  0  0  0  0
   58.4390   22.4990   44.7600 C   0  0  0  0  0  0  0  0  0  0  0  0
   59.6400   22.5900   45.2430 N   0  0  0  0  0  0  0  0  0  0  0  0
   59.0370   25.0640   46.1370 C   0  0  0  0  0  0  0  0  0  0  0  0
   59.4300   26.3430   46.5210 C   0  0  0  0  0  0  0  0  0  0  0  0
   58.8950   27.4580   45.9380 C   0  0  0  0  0  0  0  0  0  0  0  0
   59.0790   28.8000   46.1010 N   0  0  0  0  0  0  0  0  0  0  0  0
   58.2830   31.7160   46.1680 C   0  0  0  0  0  0  0  0  0  0  0  0
   59.5192   35.2260   48.1604 H   0  0  0  0  0  0  0  0  0  0  0  0
   60.1580   34.5911   46.6062 H   0  0  0  0  0  0  0  0  0  0  0  0
   58.7937   35.7596   46.6062 H   0  0  0  0  0  0  0  0  0  0  0  0
   57.8137   34.7261   44.6887 H   0  0  0  0  0  0  0  0  0  0  0  0
   57.5640   33.2276   42.7449 H   0  0  0  0  0  0  0  0  0  0  0  0
   57.7683   30.7696   42.9474 H   0  0  0  0  0  0  0  0  0  0  0  0
   56.7756   25.9164   43.7497 H   0  0  0  0  0  0  0  0  0  0  0  0
   55.6932   24.4345   44.1209 H   0  0  0  0  0  0  0  0  0  0  0  0
   54.9460   22.2600   43.3590 H   0  0  0  0  0  0  0  0  0  0  0  0
   56.7510   19.2400   43.8110 H   0  0  0  0  0  0  0  0  0  0  0  0
   58.5850   20.4510   44.3720 H   0  0  0  0  0  0  0  0  0  0  0  0
   60.4570   22.2010   44.7560 H   0  0  0  0  0  0  0  0  0  0  0  0
   59.4807   24.1806   46.6195 H   0  0  0  0  0  0  0  0  0  0  0  0
   60.1872   26.4591   47.3104 H   0  0  0  0  0  0  0  0  0  0  0  0
   59.7460   29.2210   46.7900 H   0  0  0  0  0  0  0  0  0  0  0  0
   58.4897   31.2783   47.1558 H   0  0  0  0  0  0  0  0  0  0  0  0
  1  2  1  0
  2  3  1  0
  3  4  2  0
  4  5  1  0
  5  6  2  0
  6  7  1  0
  7  8  1  0
  8  9  2  0
  9 10  1  0
 10 11  2  0
 11 12  1  0
 12 13  1  0
 13 14  2  0
 14 15  1  0
 15 16  1  0
 16 17  2  3
 16 18  1  0
 18 19  1  0
 19 20  2  3
 12 21  2  0
 21 22  1  0
 22 23  2  0
 23 24  1  0
  7 25  2  0
 25  3  1  0
 24  8  1  0
 23 10  1  0
 19 13  1  0
  1 26  1  0
  1 27  1  0
  1 28  1  0
  4 29  1  0
  5 30  1  0
  6 31  1  0
 11 32  1  0
 14 33  1  0
 15 34  1  0
 17 35  1  0
 18 36  1  0
 20 37  1  0
 21 38  1  0
 22 39  1  0
 24 40  1  0
 25 41  1  0
M  END
>  <smiles>  (5) 
COc1cccc(-c2nc3cc(-c4c[nH]c(=N)[nH]c4=N)ccc3[nH]2)c1

>  <score_type>  (5) 
oracle

>  <origin>  (5) 
adg

>  <m_score__min__energy>  (5) 
-8.3200000000000003

>  <m_primary>  (5) 
energy

$$$$
5:0
     RDKit          3D

 51 53  0  0  0  0  0  0  0  0999 V2000
   58.8100   27.0700   45.3730 C   0  0  0  0  0  0  0  0  0  0  0  0
   58.8760   27.5370   46.8230 C   0  0  0  0  0  0  0  0  0  0  0  0
   60.0450   28.5060   47.0410 C   0  0  0  0  0  0  0  0  0  0  0  0
   59.5650   29.8860   47.2220 N   0  0  0  0  0  0  0  0  0  0  0  0
   59.2350   30.7690   46.1230 C   0  0  0  0  0  0  0  0  0  0  0  0
   59.9500   31.7900   45.9180 O   0  0  0  0  0  0  0  0  0  0  0  0
   58.0920   30.5280   45.2120 C   0  0  0  0  0  0  0  0  0  0  0  0
   58.1060   31.0430   43.9050 C   0  0  0  0  0  0  0  0  0  0  0  0
   57.0300   30.7850   43.0520 C   0  0  0  0  0  0  0  0  0  0  0  0
   55.9590   30.0100   43.5000 C   0  0  0  0  0  0  0  0  0  0  0  0
   55.9820   29.5010   44.7990 C   0  0  0  0  0  0  0  0  0  0  0  0
   57.0390   29.7640   45.6140 N   0  0  0  0  0  0  0  0  0  0  0  0
   59.3860   30.3570   48.5670 C   0  0  0  0  0  0  0  0  0  0  0  0
   58.4950   29.7160   49.3720 N   0  0  0  0  0  0  0  0  0  0  0  0
   58.2560   30.1120   50.6470 C   0  0  0  0  0  0  0  0  0  0  0  0
   58.9300   31.2130   51.1730 C   0  0  0  0  0  0  0  0  0  0  0  0
   59.8450   31.8990   50.3750 C   0  0  0  0  0  0  0  0  0  0  0  0
   60.0890   31.4840   49.0520 C   0  0  0  0  0  0  0  0  0  0  0  0
   61.0210   32.1920   48.2050 N   0  0  0  0  0  0  0  0  0  0  0  0
   61.3050   33.6220   48.3490 C   0  0  0  0  0  0  0  0  0  0  0  0
   60.0090   34.4230   48.5090 C   0  0  0  0  0  0  0  0  0  0  0  0
   59.1820   34.3530   47.2520 C   0  0  0  0  0  0  0  0  0  0  0  0
   57.9590   33.6620   47.2460 C   0  0  0  0  0  0  0  0  0  0  0  0
   57.2060   33.5730   46.0700 C   0  0  0  0  0  0  0  0  0  0  0  0
   57.6750   34.1630   44.8930 C   0  0  0  0  0  0  0  0  0  0  0  0
   58.8980   34.8380   44.8880 C   0  0  0  0  0  0  0  0  0  0  0  0
   59.6540   34.9300   46.0610 C   0  0  0  0  0  0  0  0  0  0  0  0
   58.6561   25.9812   45.3451 H   0  0  0  0  0  0  0  0  0  0  0  0
   57.9738   27.5716   44.8639 H   0  0  0  0  0  0  0  0  0  0  0  0
   59.7524   27.3203   44.8639 H   0  0  0  0  0  0  0  0  0  0  0  0
   57.9352   28.0463   47.0791 H   0  0  0  0  0  0  0  0  0  0  0  0
   59.0282   26.6573   47.4657 H   0  0  0  0  0  0  0  0  0  0  0  0
   60.6028   28.1994   47.9381 H   0  0  0  0  0  0  0  0  0  0  0  0
   60.6930   28.4760   46.1527 H   0  0  0  0  0  0  0  0  0  0  0  0
   58.9579   31.6450   43.5558 H   0  0  0  0  0  0  0  0  0  0  0  0
   57.0268   31.1916   42.0299 H   0  0  0  0  0  0  0  0  0  0  0  0
   55.1065   29.8028   42.8365 H   0  0  0  0  0  0  0  0  0  0  0  0
   55.1454   28.8871   45.1640 H   0  0  0  0  0  0  0  0  0  0  0  0
   57.5302   29.5643   51.2661 H   0  0  0  0  0  0  0  0  0  0  0  0
   58.7420   31.5374   52.2071 H   0  0  0  0  0  0  0  0  0  0  0  0
   60.3796   32.7700   50.7819 H   0  0  0  0  0  0  0  0  0  0  0  0
   61.4970   31.6730   47.4350 H   0  0  0  0  0  0  0  0  0  0  0  0
   61.9358   33.7763   49.2369 H   0  0  0  0  0  0  0  0  0  0  0  0
   61.8241   33.9703   47.4439 H   0  0  0  0  0  0  0  0  0  0  0  0
   59.4290   34.0081   49.3465 H   0  0  0  0  0  0  0  0  0  0  0  0
   60.2649   35.4745   48.7062 H   0  0  0  0  0  0  0  0  0  0  0  0
   57.5920   33.1892   48.1689 H   0  0  0  0  0  0  0  0  0  0  0  0
   56.2446   33.0385   46.0719 H   0  0  0  0  0  0  0  0  0  0  0  0
   57.0806   34.0958   43.9699 H   0  0  0  0  0  0  0  0  0  0  0  0
   59.2672   35.2981   43.9596 H   0  0  0  0  0  0  0  0  0  0  0  0
   60.6204   35.4553   46.0512 H   0  0  0  0  0  0  0  0  0  0  0  0
  1  2  1  0
  2  3  1  0
  3  4  1  0
  4  5  1  0
  5  6  2  0
  5  7  1  0
  7  8  2  0
  8  9  1  0
  9 10  2  0
 10 11  1  0
 11 12  2  0
  4 13  1  0
 13 14  2  0
 14 15  1  0
 15 16  2  0
 16 17  1  0
 17 18  2  0
 18 19  1  0
 19 20  1  0
 20 21  1  0
 21 22  1  0
 22 23  2  0
 23 24  1  0
 24 25  2  0
 25 26  1  0
 26 27  2  0
 12  7  1  0
 18 13  1  0
 27 22  1  0
  1 28  1  0
  1 29  1  0
  1 30  1  0
  2 31  1  0
  2 32  1  0
  3 33  1  0
  3 34  1  0
  8 35  1  0
  9 36  1  0
 10 37  1  0
 11 38  1  0
 15 39  1  0
 16 40  1  0
 17 41  1  0
 19 42  1  0
 20 43  1  0
 20 44  1  0
 21 45  1  0
 21 46  1  0
 23 47  1  0
 24 48  1  0
 25 49  1  0
 26 50  1  0
 27 51  1  0
M  END
>  <UniqueID>  (6) 
5

>  <SMILES>  (6) 
CCCN(C(=O)c1ccccn1)c1ncccc1NCCc1ccccc1

>  <Energy>  (6) 
58.45810021727461

>  <Genealogy>  (6) 
CCCN(C(=O)c1ccccn1)c1ncccc1NCCc1ccccc1 (3D coordinates assigned)
CCCN(C(=O)c1ccccn1)c1ncccc1NCCc1ccccc1 (optimized conformer: 58.45810021727461 kcal/mol)

>  <smiles>  (6) 
CCCN(C(=O)c1ccccn1)c1ncccc1NCCc1ccccc1

>  <score_type>  (6) 
oracle

>  <origin>  (6) 
adg

>  <m_score__min__energy>  (6) 
-7.8099999999999996

>  <m_primary>  (6) 
energy

$$$$
6:0
     RDKit          3D

 44 48  0  0  0  0  0  0  0  0999 V2000
   55.9340   29.7050   43.1150 C   0  0  0  0  0  0  0  0  0  0  0  0
   56.7460   30.1230   44.2530 N   0  0  0  0  0  0  0  0  0  0  0  0
   57.1750   29.3610   45.2870 C   0  0  0  0  0  0  0  0  0  0  0  0
   56.8610   28.1480   45.4310 O   0  0  0  0  0  0  0  0  0  0  0  0
   58.0240   30.0170   46.1190 N   0  0  0  0  0  0  0  0  0  0  0  0
   58.8060   29.3970   47.1510 C   0  0  0  0  0  0  0  0  0  0  0  0
   58.7220   29.8590   48.4710 C   0  0  0  0  0  0  0  0  0  0  0  0
   59.4780   29.2500   49.4770 C   0  0  0  0  0  0  0  0  0  0  0  0
   60.3120   28.1700   49.1710 C   0  0  0  0  0  0  0  0  0  0  0  0
   60.3850   27.6930   47.8590 C   0  0  0  0  0  0  0  0  0  0  0  0
   61.1900   26.6420   47.5630 F   0  0  0  0  0  0  0  0  0  0  0  0
   59.6300   28.2990   46.8500 C   0  0  0  0  0  0  0  0  0  0  0  0
   58.1440   31.2520   45.5690 C   0  0  0  0  0  0  0  0  0  0  0  0
   58.8960   32.3750   45.9760 C   0  0  0  0  0  0  0  0  0  0  0  0
   59.5570   32.4530   47.1710 N   0  0  0  0  0  0  0  0  0  0  0  0
   60.2990   33.5510   47.5110 C   0  0  0  0  0  0  0  0  0  0  0  0
   61.0320   33.5810   48.8020 C   0  0  0  0  0  0  0  0  0  0  0  0
   62.4250   33.7890   48.8360 C   0  0  0  0  0  0  0  0  0  0  0  0
   63.1040   33.8240   50.0570 C   0  0  0  0  0  0  0  0  0  0  0  0
   62.4050   33.6520   51.2540 C   0  0  0  0  0  0  0  0  0  0  0  0
   61.0240   33.4440   51.2320 C   0  0  0  0  0  0  0  0  0  0  0  0
   60.3400   33.4080   50.0140 C   0  0  0  0  0  0  0  0  0  0  0  0
   60.3590   34.6470   46.6340 C   0  0  0  0  0  0  0  0  0  0  0  0
   59.6460   34.6180   45.4360 C   0  0  0  0  0  0  0  0  0  0  0  0
   58.8980   33.4920   45.1000 C   0  0  0  0  0  0  0  0  0  0  0  0
   58.1610   33.4790   43.9460 N   0  0  0  0  0  0  0  0  0  0  0  0
   57.3940   32.4090   43.5900 C   0  0  0  0  0  0  0  0  0  0  0  0
   57.3850   31.2960   44.4260 C   0  0  0  0  0  0  0  0  0  0  0  0
   55.0108   29.2298   43.4782 H   0  0  0  0  0  0  0  0  0  0  0  0
   55.6784   30.5836   42.5045 H   0  0  0  0  0  0  0  0  0  0  0  0
   56.5006   28.9865   42.5045 H   0  0  0  0  0  0  0  0  0  0  0  0
   58.0599   30.7025   48.7163 H   0  0  0  0  0  0  0  0  0  0  0  0
   59.4167   29.6209   50.5108 H   0  0  0  0  0  0  0  0  0  0  0  0
   60.9106   27.6958   49.9627 H   0  0  0  0  0  0  0  0  0  0  0  0
   59.6810   27.9161   45.8201 H   0  0  0  0  0  0  0  0  0  0  0  0
   59.4500   31.6990   47.8780 H   0  0  0  0  0  0  0  0  0  0  0  0
   62.9811   33.9246   47.8966 H   0  0  0  0  0  0  0  0  0  0  0  0
   64.1916   33.9874   50.0754 H   0  0  0  0  0  0  0  0  0  0  0  0
   62.9419   33.6803   52.2136 H   0  0  0  0  0  0  0  0  0  0  0  0
   60.4740   33.3083   52.1749 H   0  0  0  0  0  0  0  0  0  0  0  0
   59.2525   33.2432   50.0031 H   0  0  0  0  0  0  0  0  0  0  0  0
   60.9674   35.5264   46.8920 H   0  0  0  0  0  0  0  0  0  0  0  0
   59.6742   35.4831   44.7572 H   0  0  0  0  0  0  0  0  0  0  0  0
   56.7977   32.4251   42.6658 H   0  0  0  0  0  0  0  0  0  0  0  0
  1  2  1  0
  2  3  1  0
  3  4  2  0
  3  5  1  0
  5  6  1  0
  6  7  2  0
  7  8  1  0
  8  9  2  0
  9 10  1  0
 10 11  1  0
 10 12  2  0
  5 13  1  0
 13 14  2  0
 14 15  1  0
 15 16  2  0
 16 17  1  0
 17 18  2  0
 18 19  1  0
 19 20  2  0
 20 21  1  0
 21 22  2  0
 16 23  1  0
 23 24  2  0
 24 25  1  0
 25 26  2  0
 26 27  1  0
 27 28  2  0
 28  2  1  0
 12  6  1  0
 28 13  1  0
 25 14  1  0
 22 17  1  0
  1 29  1  0
  1 30  1  0
  1 31  1  0
  7 32  1  0
  8 33  1  0
  9 34  1  0
 12 35  1  0
 15 36  1  0
 18 37  1  0
 19 38  1  0
 20 39  1  0
 21 40  1  0
 22 41  1  0
 23 42  1  0
 24 43  1  0
 27 44  1  0
M  CHG  1  15   1
M  END
>  <UniqueID>  (7) 
6

>  <SMILES>  (7) 
Cn1c(=O)n(-c2cccc(F)c2)c2c3[nH+]c(-c4ccccc4)ccc3ncc21

>  <Energy>  (7) 
110.24268841247071

>  <Genealogy>  (7) 
Cn1c(=O)n(-c2cccc(F)c2)c2c3[nH+]c(-c4ccccc4)ccc3ncc21 (protonated)
Cn1c(=O)n(-c2cccc(F)c2)c2c3[nH+]c(-c4ccccc4)ccc3ncc21 (3D coordinates assigned)
Cn1c(=O)n(-c2cccc(F)c2)c2c3[nH+]c(-c4ccccc4)ccc3ncc21 (optimized conformer: 110.24268841247071 kcal/mol)

>  <smiles>  (7) 
Cn1c(=O)n(-c2cccc(F)c2)c2c3nc(-c4ccccc4)ccc3ncc21

>  <score_type>  (7) 
oracle

>  <origin>  (7) 
adg

>  <m_score__min__energy>  (7) 
-6.4800000000000004

>  <m_primary>  (7) 
energy

$$$$
7:0
     RDKit          3D

 29 31  0  0  0  0  0  0  0  0999 V2000
   57.6800   23.9080   45.2040 F   0  0  0  0  0  0  0  0  0  0  0  0
   57.6030   25.2610   45.1750 C   0  0  0  0  0  0  0  0  0  0  0  0
   57.2560   25.9660   46.3310 C   0  0  0  0  0  0  0  0  0  0  0  0
   57.1750   27.3620   46.3020 C   0  0  0  0  0  0  0  0  0  0  0  0
   57.4500   28.0650   45.1170 C   0  0  0  0  0  0  0  0  0  0  0  0
   57.3480   29.5010   45.0900 N   0  0  0  0  0  0  0  0  0  0  0  0
   58.2200   30.3620   45.6450 C   0  0  0  0  0  0  0  0  0  0  0  0
   57.7770   31.6480   45.3920 C   0  0  0  0  0  0  0  0  0  0  0  0
   58.4190   32.9170   45.8150 C   0  0  0  0  0  0  0  0  0  0  0  0
   58.7220   33.9320   44.8850 C   0  0  0  0  0  0  0  0  0  0  0  0
   59.3280   35.1200   45.3060 C   0  0  0  0  0  0  0  0  0  0  0  0
   59.6370   35.3120   46.6530 C   0  0  0  0  0  0  0  0  0  0  0  0
   59.3420   34.3150   47.5850 C   0  0  0  0  0  0  0  0  0  0  0  0
   58.7370   33.1250   47.1710 C   0  0  0  0  0  0  0  0  0  0  0  0
   56.6370   31.5950   44.6690 N   0  0  0  0  0  0  0  0  0  0  0  0
   56.4050   30.2760   44.5070 C   0  0  0  0  0  0  0  0  0  0  0  0
   55.1680   29.7150   43.5920 S   0  0  0  0  0  0  0  0  0  0  0  0
   57.7840   27.3460   43.9560 C   0  0  0  0  0  0  0  0  0  0  0  0
   57.8640   25.9500   43.9870 C   0  0  0  0  0  0  0  0  0  0  0  0
   57.0465   25.4225   47.2641 H   0  0  0  0  0  0  0  0  0  0  0  0
   56.8944   27.9126   47.2120 H   0  0  0  0  0  0  0  0  0  0  0  0
   59.1281   30.0905   46.2033 H   0  0  0  0  0  0  0  0  0  0  0  0
   58.4803   33.7888   43.8215 H   0  0  0  0  0  0  0  0  0  0  0  0
   59.5619   35.9058   44.5726 H   0  0  0  0  0  0  0  0  0  0  0  0
   60.1127   36.2482   46.9805 H   0  0  0  0  0  0  0  0  0  0  0  0
   59.5862   34.4664   48.6468 H   0  0  0  0  0  0  0  0  0  0  0  0
   58.5072   32.3441   47.9109 H   0  0  0  0  0  0  0  0  0  0  0  0
   57.9836   27.8845   43.0178 H   0  0  0  0  0  0  0  0  0  0  0  0
   58.1323   25.3942   43.0765 H   0  0  0  0  0  0  0  0  0  0  0  0
  1  2  1  0
  2  3  2  0
  3  4  1  0
  4  5  2  0
  5  6  1  0
  6  7  1  0
  7  8  2  0
  8  9  1  0
  9 10  2  0
 10 11  1  0
 11 12  2  0
 12 13  1  0
 13 14  2  0
  8 15  1  0
 15 16  1  0
 16 17  2  0
  5 18  1  0
 18 19  2  0
 19  2  1  0
 16  6  1  0
 14  9  1  0
  3 20  1  0
  4 21  1  0
  7 22  1  0
 10 23  1  0
 11 24  1  0
 12 25  1  0
 13 26  1  0
 14 27  1  0
 18 28  1  0
 19 29  1  0
M  CHG  1  15  -1
M  END
>  <UniqueID>  (8) 
7

>  <SMILES>  (8) 
Fc1ccc(-n2cc(-c3ccccc3)[n-]c2=S)cc1

>  <Energy>  (8) 
69.69595076638085

>  <Genealogy>  (8) 
Fc1ccc(-n2cc(-c3ccccc3)[n-]c2=S)cc1 (protonated)
Fc1ccc(-n2cc(-c3ccccc3)[n-]c2=S)cc1 (3D coordinates assigned)
Fc1ccc(-n2cc(-c3ccccc3)[n-]c2=S)cc1 (optimized conformer: 69.69595076638085 kcal/mol)

>  <smiles>  (8) 
Fc1ccc(-n2cc(-c3ccccc3)[nH]c2=S)cc1

>  <score_type>  (8) 
oracle

>  <origin>  (8) 
adg

>  <m_score__min__energy>  (8) 
-8.2599999999999998

>  <m_primary>  (8) 
energy

$$$$
8:0
     RDKit          3D

 47 49  0  0  0  0  0  0  0  0999 V2000
   58.5860   34.5740   45.5310 C   0  0  0  0  0  0  0  0  0  0  0  0
   58.8350   33.8490   44.1830 C   0  0  0  0  0  0  0  0  0  0  0  0
   57.7220   32.9590   43.7300 N   0  0  0  0  0  0  0  0  0  0  0  0
   58.1320   32.0200   42.6620 C   0  0  0  0  0  0  0  0  0  0  0  0
   57.4040   32.3520   41.3510 C   0  0  0  0  0  0  0  0  0  0  0  0
   57.0240   32.3080   44.8740 C   0  0  0  0  0  0  0  0  0  0  0  0
   57.6180   30.9530   45.2220 C   0  0  0  0  0  0  0  0  0  0  0  0
   57.1950   29.8060   44.5260 C   0  0  0  0  0  0  0  0  0  0  0  0
   57.7910   28.5610   44.7930 C   0  0  0  0  0  0  0  0  0  0  0  0
   57.4100   27.4310   44.1270 N   0  0  0  0  0  0  0  0  0  0  0  0
   58.0160   26.2340   44.3900 C   0  0  0  0  0  0  0  0  0  0  0  0
   59.0130   26.1510   45.3130 N   0  0  0  0  0  0  0  0  0  0  0  0
   59.4160   27.2490   46.0110 C   0  0  0  0  0  0  0  0  0  0  0  0
   58.8110   28.4830   45.7650 C   0  0  0  0  0  0  0  0  0  0  0  0
   59.1800   29.5930   46.4600 N   0  0  0  0  0  0  0  0  0  0  0  0
   58.5990   30.8100   46.2370 C   0  0  0  0  0  0  0  0  0  0  0  0
   58.9690   31.9280   47.0170 O   0  0  0  0  0  0  0  0  0  0  0  0
   59.8550   31.8610   48.1370 C   0  0  0  0  0  0  0  0  0  0  0  0
   61.2080   32.4190   47.7790 C   0  0  0  0  0  0  0  0  0  0  0  0
   61.3470   33.3580   46.7450 C   0  0  0  0  0  0  0  0  0  0  0  0
   62.6060   33.8250   46.3760 C   0  0  0  0  0  0  0  0  0  0  0  0
   63.7460   33.3810   47.0590 C   0  0  0  0  0  0  0  0  0  0  0  0
   63.6220   32.4560   48.1000 C   0  0  0  0  0  0  0  0  0  0  0  0
   62.3580   31.9610   48.4460 C   0  0  0  0  0  0  0  0  0  0  0  0
   62.2520   31.0560   49.4450 F   0  0  0  0  0  0  0  0  0  0  0  0
   58.8200   33.8928   46.3624 H   0  0  0  0  0  0  0  0  0  0  0  0
   59.2301   35.4635   45.5934 H   0  0  0  0  0  0  0  0  0  0  0  0
   57.5313   34.8800   45.5934 H   0  0  0  0  0  0  0  0  0  0  0  0
   58.9973   34.6136   43.4090 H   0  0  0  0  0  0  0  0  0  0  0  0
   59.7062   33.1963   44.3409 H   0  0  0  0  0  0  0  0  0  0  0  0
   59.2177   32.1012   42.5047 H   0  0  0  0  0  0  0  0  0  0  0  0
   57.8706   30.9959   42.9666 H   0  0  0  0  0  0  0  0  0  0  0  0
   56.4248   32.7986   41.5783 H   0  0  0  0  0  0  0  0  0  0  0  0
   58.0056   33.0648   40.7679 H   0  0  0  0  0  0  0  0  0  0  0  0
   57.2602   31.4304   40.7679 H   0  0  0  0  0  0  0  0  0  0  0  0
   57.1011   32.9637   45.7538 H   0  0  0  0  0  0  0  0  0  0  0  0
   55.9762   32.1485   44.5798 H   0  0  0  0  0  0  0  0  0  0  0  0
   56.3974   29.8833   43.7724 H   0  0  0  0  0  0  0  0  0  0  0  0
   56.6510   27.4680   43.4050 H   0  0  0  0  0  0  0  0  0  0  0  0
   57.6951   25.3303   43.8511 H   0  0  0  0  0  0  0  0  0  0  0  0
   60.2133   27.1640   46.7640 H   0  0  0  0  0  0  0  0  0  0  0  0
   59.4318   32.4447   48.9678 H   0  0  0  0  0  0  0  0  0  0  0  0
   59.9733   30.8080   48.4323 H   0  0  0  0  0  0  0  0  0  0  0  0
   60.4533   33.7284   46.2214 H   0  0  0  0  0  0  0  0  0  0  0  0
   62.7055   34.5425   45.5482 H   0  0  0  0  0  0  0  0  0  0  0  0
   64.7390   33.7604   46.7760 H   0  0  0  0  0  0  0  0  0  0  0  0
   64.5149   32.1177   48.6461 H   0  0  0  0  0  0  0  0  0  0  0  0
  1  2  1  0
  2  3  1  0
  3  4  1  0
  4  5  1  0
  3  6  1  0
  6  7  1  0
  7  8  2  0
  8  9  1  0
  9 10  2  0
 10 11  1  0
 11 12  2  0
 12 13  1  0
 13 14  2  0
 14 15  1  0
 15 16  2  0
 16 17  1  0
 17 18  1  0
 18 19  1  0
 19 20  2  0
 20 21  1  0
 21 22  2  0
 22 23  1  0
 23 24  2  0
 24 25  1  0
 16  7  1  0
 24 19  1  0
 14  9  1  0
  1 26  1  0
  1 27  1  0
  1 28  1  0
  2 29  1  0
  2 30  1  0
  4 31  1  0
  4 32  1  0
  5 33  1  0
  5 34  1  0
  5 35  1  0
  6 36  1  0
  6 37  1  0
  8 38  1  0
 10 39  1  0
 11 40  1  0
 13 41  1  0
 18 42  1  0
 18 43  1  0
 20 44  1  0
 21 45  1  0
 22 46  1  0
 23 47  1  0
M  CHG  1  10   1
M  END
>  <UniqueID>  (9) 
8

>  <SMILES>  (9) 
CCN(CC)Cc1cc2[nH+]cncc2nc1OCc1ccccc1F

>  <Energy>  (9) 
56.77038661594401

>  <Genealogy>  (9) 
CCN(CC)Cc1cc2[nH+]cncc2nc1OCc1ccccc1F (protonated)
CCN(CC)Cc1cc2[nH+]cncc2nc1OCc1ccccc1F (3D coordinates assigned)
CCN(CC)Cc1cc2[nH+]cncc2nc1OCc1ccccc1F (optimized conformer: 56.77038661594401 kcal/mol)

>  <smiles>  (9) 
CCN(CC)Cc1cc2ncncc2nc1OCc1ccccc1F

>  <score_type>  (9) 
oracle

>  <origin>  (9) 
adg

>  <m_score__min__energy>  (9) 
-5.5300000000000002

>  <m_primary>  (9) 
energy

$$$$
9:0
     RDKit          3D

 27 29  0  0  0  0  0  0  0  0999 V2000
   54.5590   30.0700   44.9390 H   0  0  0  0  0  0  0  0  0  0  0  0
   55.2600   29.3150   44.7690 N   0  0  0  0  0  0  0  0  0  0  0  0
   56.4620   29.3820   45.2480 C   0  0  0  0  0  0  0  0  0  0  0  0
   57.0770   30.5920   45.3430 N   0  0  0  0  0  0  0  0  0  0  0  0
   58.3400   30.7570   45.8340 C   0  0  0  0  0  0  0  0  0  0  0  0
   58.9140   32.1390   45.8910 C   0  0  0  0  0  0  0  0  0  0  0  0
   58.2010   33.2810   45.4600 C   0  0  0  0  0  0  0  0  0  0  0  0
   57.1815   33.1677   45.0627 H   0  0  0  0  0  0  0  0  0  0  0  0
   58.7770   34.5530   45.5330 C   0  0  0  0  0  0  0  0  0  0  0  0
   58.2075   35.4315   45.1953 H   0  0  0  0  0  0  0  0  0  0  0  0
   60.0680   34.7140   46.0310 C   0  0  0  0  0  0  0  0  0  0  0  0
   60.5164   35.7171   46.0837 H   0  0  0  0  0  0  0  0  0  0  0  0
   60.7920   33.6020   46.4630 C   0  0  0  0  0  0  0  0  0  0  0  0
   62.5620   33.8230   47.1460 Br  0  0  0  0  0  0  0  0  0  0  0  0
   60.2220   32.3260   46.3940 C   0  0  0  0  0  0  0  0  0  0  0  0
   60.8003   31.4552   46.7363 H   0  0  0  0  0  0  0  0  0  0  0  0
   59.0460   29.6150   46.2630 C   0  0  0  0  0  0  0  0  0  0  0  0
   60.0661   29.7152   46.6622 H   0  0  0  0  0  0  0  0  0  0  0  0
   58.4470   28.3550   46.1800 C   0  0  0  0  0  0  0  0  0  0  0  0
   59.1300   27.2510   46.5960 N   0  0  0  0  0  0  0  0  0  0  0  0
   58.5870   26.0080   46.5330 C   0  0  0  0  0  0  0  0  0  0  0  0
   59.1664   25.1386   46.8771 H   0  0  0  0  0  0  0  0  0  0  0  0
   57.2960   25.8300   46.0330 C   0  0  0  0  0  0  0  0  0  0  0  0
   56.8549   24.8236   45.9821 H   0  0  0  0  0  0  0  0  0  0  0  0
   56.5690   26.9400   45.5980 C   0  0  0  0  0  0  0  0  0  0  0  0
   55.5510   26.8107   45.2018 H   0  0  0  0  0  0  0  0  0  0  0  0
   57.1400   28.2240   45.6670 C   0  0  0  0  0  0  0  0  0  0  0  0
  1  2  1  0
  2  3  2  0
  3  4  1  0
  4  5  1  0
  5  6  1  0
  6  7  2  0
  7  8  1  0
  7  9  1  0
  9 10  1  0
  9 11  2  0
 11 12  1  0
 11 13  1  0
 13 14  1  0
 13 15  2  0
 15 16  1  0
  5 17  2  0
 17 18  1  0
 17 19  1  0
 19 20  2  0
 20 21  1  0
 21 22  1  0
 21 23  2  0
 23 24  1  0
 23 25  1  0
 25 26  1  0
 25 27  2  0
 27  3  1  0
 15  6  1  0
 27 19  1  0
M  CHG  1   4  -1
M  END
>  <UniqueID>  (10) 
9

>  <SMILES>  (10) 
[H]/N=c1\[n-]c(-c2cccc(Br)c2)cc2ncccc12

>  <Energy>  (10) 
39.9675835332467

>  <Genealogy>  (10) 
N=c1[n-]c(-c2cccc(Br)c2)cc2ncccc12 (protonated)
[H]/N=c1\[n-]c(-c2cccc(Br)c2)cc2ncccc12 (cis-trans isomerization)
[H]/N=c1\[n-]c(-c2cccc(Br)c2)cc2ncccc12 (3D coordinates assigned)
[H]/N=c1\[n-]c(-c2cccc(Br)c2)cc2ncccc12 (optimized conformer: 39.9675835332467 kcal/mol)

>  <smiles>  (10) 
N=c1[nH]c(-c2cccc(Br)c2)cc2ncccc12

>  <score_type>  (10) 
oracle

>  <origin>  (10) 
adg

>  <m_score__min__energy>  (10) 
-9.5800000000000001

>  <m_primary>  (10) 
energy

$$$$
10:0
     RDKit          3D

 41 42  0  0  0  0  0  0  0  0999 V2000
   57.2529   29.1020   47.2558 H   0  0  0  0  0  0  0  0  0  0  0  0
   58.0610   29.2880   46.5330 C   0  0  0  0  0  0  0  0  0  0  0  0
   59.3140   28.9910   46.9070 C   0  0  0  0  0  0  0  0  0  0  0  0
   59.8204   28.1674   46.3823 H   0  0  0  0  0  0  0  0  0  0  0  0
   60.0820   29.7040   47.9960 C   0  0  0  0  0  0  0  0  0  0  0  0
   60.9380   29.0793   48.2909 H   0  0  0  0  0  0  0  0  0  0  0  0
   59.3931   29.8693   48.8375 H   0  0  0  0  0  0  0  0  0  0  0  0
   60.5880   31.0300   47.5600 N   0  0  2  0  0  0  0  0  0  0  0  0
   60.5550   31.0800   46.5160 H   0  0  0  0  0  0  0  0  0  0  0  0
   61.9930   31.2120   47.9800 C   0  0  0  0  0  0  0  0  0  0  0  0
   62.0493   31.2193   49.0785 H   0  0  0  0  0  0  0  0  0  0  0  0
   62.6032   30.3854   47.5871 H   0  0  0  0  0  0  0  0  0  0  0  0
   62.3724   32.1668   47.5871 H   0  0  0  0  0  0  0  0  0  0  0  0
   59.7260   32.1020   48.1200 C   0  0  0  0  0  0  0  0  0  0  0  0
   60.3333   32.7312   48.7873 H   0  0  0  0  0  0  0  0  0  0  0  0
   58.9000   31.6191   48.6628 H   0  0  0  0  0  0  0  0  0  0  0  0
   59.1190   32.9810   47.0390 C   0  0  0  0  0  0  0  0  0  0  0  0
   57.7300   32.9230   46.8220 C   0  0  0  0  0  0  0  0  0  0  0  0
   57.1137   32.2394   47.4244 H   0  0  0  0  0  0  0  0  0  0  0  0
   57.1250   33.7230   45.8510 C   0  0  0  0  0  0  0  0  0  0  0  0
   56.0368   33.6738   45.6983 H   0  0  0  0  0  0  0  0  0  0  0  0
   57.8990   34.5840   45.0750 C   0  0  0  0  0  0  0  0  0  0  0  0
   57.4206   35.2141   44.3108 H   0  0  0  0  0  0  0  0  0  0  0  0
   59.2800   34.6480   45.2660 C   0  0  0  0  0  0  0  0  0  0  0  0
   59.8851   35.3220   44.6418 H   0  0  0  0  0  0  0  0  0  0  0  0
   59.9060   33.8600   46.2480 C   0  0  0  0  0  0  0  0  0  0  0  0
   61.4060   33.9160   46.3700 C   0  0  0  0  0  0  0  0  0  0  0  0
   61.6872   33.9265   47.4334 H   0  0  0  0  0  0  0  0  0  0  0  0
   61.8467   33.0337   45.8829 H   0  0  0  0  0  0  0  0  0  0  0  0
   61.7797   34.8287   45.8829 H   0  0  0  0  0  0  0  0  0  0  0  0
   57.6920   29.8470   45.2190 C   0  0  0  0  0  0  0  0  0  0  0  0
   58.5170   30.7910   44.5820 C   0  0  0  0  0  0  0  0  0  0  0  0
   59.4683   31.0898   45.0466 H   0  0  0  0  0  0  0  0  0  0  0  0
   58.1320   31.3510   43.3600 C   0  0  0  0  0  0  0  0  0  0  0  0
   58.7853   32.0820   42.8612 H   0  0  0  0  0  0  0  0  0  0  0  0
   56.9190   30.9840   42.7710 C   0  0  0  0  0  0  0  0  0  0  0  0
   56.6212   31.4212   41.8065 H   0  0  0  0  0  0  0  0  0  0  0  0
   56.0840   30.0610   43.4080 C   0  0  0  0  0  0  0  0  0  0  0  0
   55.1283   29.7744   42.9449 H   0  0  0  0  0  0  0  0  0  0  0  0
   56.4620   29.5010   44.6340 C   0  0  0  0  0  0  0  0  0  0  0  0
   55.6380   28.6090   45.2410 F   0  0  0  0  0  0  0  0  0  0  0  0
  1  2  1  0
  2  3  2  0
  3  4  1  0
  3  5  1  0
  5  6  1  0
  5  7  1  0
  5  8  1  0
  8  9  1  6
  8 10  1  0
 10 11  1  0
 10 12  1  0
 10 13  1  0
  8 14  1  0
 14 15  1  0
 14 16  1  0
 14 17  1  0
 17 18  2  0
 18 19  1  0
 18 20  1  0
 20 21  1  0
 20 22  2  0
 22 23  1  0
 22 24  1  0
 24 25  1  0
 24 26  2  0
 26 27  1  0
 27 28  1  0
 27 29  1  0
 27 30  1  0
  2 31  1  0
 31 32  2  0
 32 33  1  0
 32 34  1  0
 34 35  1  0
 34 36  2  0
 36 37  1  0
 36 38  1  0
 38 39  1  0
 38 40  2  0
 40 41  1  0
 26 17  1  0
 40 31  1  0
M  CHG  1   8   1
M  END
>  <UniqueID>  (11) 
10

>  <SMILES>  (11) 
Cc1ccccc1C[N@@H+](C)C/C=C\c1ccccc1F

>  <Energy>  (11) 
48.398339432487425

>  <Genealogy>  (11) 
Cc1ccccc1C[NH+](C)CC=Cc1ccccc1F (protonated)
Cc1ccccc1C[N@@H+](C)CC=Cc1ccccc1F (chirality)
Cc1ccccc1C[N@@H+](C)C/C=C\c1ccccc1F (cis-trans isomerization)
Cc1ccccc1C[N@@H+](C)C/C=C\c1ccccc1F (3D coordinates assigned)
Cc1ccccc1C[N@@H+](C)C/C=C\c1ccccc1F (optimized conformer: 48.398339432487425 kcal/mol)

>  <smiles>  (11) 
Cc1ccccc1CN(C)CC=Cc1ccccc1F

>  <score_type>  (11) 
oracle

>  <origin>  (11) 
adg

>  <m_score__min__energy>  (11) 
-5.2999999999999998

>  <m_primary>  (11) 
energy

$$$$
11:0
     RDKit          3D

 31 33  0  0  0  0  0  0  0  0999 V2000
   59.4700   34.3500   45.8840 C   0  0  0  0  0  0  0  0  0  0  0  0
   58.4910   34.6600   44.9400 C   0  0  0  0  0  0  0  0  0  0  0  0
   57.5310   33.7090   44.5920 C   0  0  0  0  0  0  0  0  0  0  0  0
   57.5390   32.4350   45.1760 C   0  0  0  0  0  0  0  0  0  0  0  0
   58.5090   32.1310   46.1650 C   0  0  0  0  0  0  0  0  0  0  0  0
   59.4770   33.0970   46.4980 C   0  0  0  0  0  0  0  0  0  0  0  0
   58.4660   30.8380   46.9460 C   0  0  0  0  0  0  0  0  0  0  0  0
   58.7670   29.6400   46.1310 N   0  0  0  0  0  0  0  0  0  0  0  0
   60.2200   29.4080   45.9950 C   0  0  0  0  0  0  0  0  0  0  0  0
   60.5150   28.2770   44.9870 C   0  0  0  0  0  0  0  0  0  0  0  0
   59.3490   27.3950   44.8510 N   0  0  0  0  0  0  0  0  0  0  0  0
   58.1790   28.1110   44.3050 C   0  0  0  0  0  0  0  0  0  0  0  0
   58.1030   29.5730   44.8100 C   0  0  1  0  0  0  0  0  0  0  0  0
   56.6480   30.0850   44.8620 C   0  0  0  0  0  0  0  0  0  0  0  0
   56.5910   31.5060   44.7120 O   0  0  0  0  0  0  0  0  0  0  0  0
   60.2372   35.0940   46.1446 H   0  0  0  0  0  0  0  0  0  0  0  0
   58.4757   35.6543   44.4698 H   0  0  0  0  0  0  0  0  0  0  0  0
   56.7589   33.9622   43.8506 H   0  0  0  0  0  0  0  0  0  0  0  0
   60.2458   32.8621   47.2489 H   0  0  0  0  0  0  0  0  0  0  0  0
   59.2040   30.8990   47.7594 H   0  0  0  0  0  0  0  0  0  0  0  0
   57.4379   30.7224   47.3196 H   0  0  0  0  0  0  0  0  0  0  0  0
   60.6996   30.3340   45.6451 H   0  0  0  0  0  0  0  0  0  0  0  0
   60.6177   29.1109   46.9766 H   0  0  0  0  0  0  0  0  0  0  0  0
   60.7524   28.7175   44.0074 H   0  0  0  0  0  0  0  0  0  0  0  0
   61.3680   27.6867   45.3529 H   0  0  0  0  0  0  0  0  0  0  0  0
   59.5970   26.6210   44.1920 H   0  0  0  0  0  0  0  0  0  0  0  0
   58.2481   28.1181   43.2072 H   0  0  0  0  0  0  0  0  0  0  0  0
   57.2729   27.5878   44.6445 H   0  0  0  0  0  0  0  0  0  0  0  0
   58.6249   30.2380   44.1062 H   0  0  0  0  0  0  0  0  0  0  0  0
   56.0739   29.6157   44.0495 H   0  0  0  0  0  0  0  0  0  0  0  0
   56.2225   29.8222   45.8417 H   0  0  0  0  0  0  0  0  0  0  0  0
  1  2  2  0
  2  3  1  0
  3  4  2  0
  4  5  1  0
  5  6  2  0
  5  7  1  0
  7  8  1  0
  8  9  1  0
  9 10  1  0
 10 11  1  0
 11 12  1  0
 12 13  1  0
 13 14  1  0
 14 15  1  0
  6  1  1  0
 13  8  1  0
 15  4  1  0
  1 16  1  0
  2 17  1  0
  3 18  1  0
  6 19  1  0
  7 20  1  0
  7 21  1  0
  9 22  1  0
  9 23  1  0
 10 24  1  0
 10 25  1  0
 11 26  1  0
 12 27  1  0
 12 28  1  0
 13 29  1  6
 14 30  1  0
 14 31  1  0
M  END
>  <UniqueID>  (12) 
11

>  <SMILES>  (12) 
c1ccc2c(c1)CN1CCNC[C@H]1CO2

>  <Energy>  (12) 
52.67359240082556

>  <Genealogy>  (12) 
c1ccc2c(c1)CN1CCNC[C@H]1CO2 (chirality)
c1ccc2c(c1)CN1CCNC[C@H]1CO2 (3D coordinates assigned)
c1ccc2c(c1)CN1CCNC[C@H]1CO2 (nonaromatic ring conformer: 52.67359240082556 kcal/mol)

>  <smiles>  (12) 
c1ccc2c(c1)CN1CCNCC1CO2

>  <score_type>  (12) 
oracle

>  <origin>  (12) 
adg

>  <m_score__min__energy>  (12) 
-4.6500000000000004

>  <m_primary>  (12) 
energy

$$$$
12:0
     RDKit          3D

 38 40  0  0  0  0  0  0  0  0999 V2000
   55.8990   29.7760   43.4930 C   0  0  0  0  0  0  0  0  0  0  0  0
   56.2590   29.8300   44.8690 O   0  0  0  0  0  0  0  0  0  0  0  0
   57.5740   29.7870   45.3600 C   0  0  0  0  0  0  0  0  0  0  0  0
   58.1630   28.5720   45.7660 C   0  0  0  0  0  0  0  0  0  0  0  0
   59.4540   28.5500   46.2940 C   0  0  0  0  0  0  0  0  0  0  0  0
   60.1750   29.7340   46.4290 C   0  0  0  0  0  0  0  0  0  0  0  0
   59.6110   30.9460   46.0260 C   0  0  0  0  0  0  0  0  0  0  0  0
   58.3170   30.9890   45.4740 C   0  0  0  0  0  0  0  0  0  0  0  0
   57.7730   32.3070   45.0490 C   0  0  0  0  0  0  0  0  0  0  0  0
   56.5610   32.5750   45.2740 O   0  0  0  0  0  0  0  0  0  0  0  0
   58.6150   33.3430   44.3660 C   0  0  0  0  0  0  0  0  0  0  0  0
   58.5050   34.5780   45.0640 O   0  0  0  0  0  0  0  0  0  0  0  0
   59.5260   35.0810   45.8750 C   0  0  0  0  0  0  0  0  0  0  0  0
   59.9960   36.2320   45.6670 O   0  0  0  0  0  0  0  0  0  0  0  0
   60.0350   34.2540   46.9820 C   0  0  0  0  0  0  0  0  0  0  0  0
   59.2980   33.8380   48.0860 C   0  0  0  0  0  0  0  0  0  0  0  0
   60.0670   33.1070   48.9230 N   0  0  0  0  0  0  0  0  0  0  0  0
   61.2860   33.0580   48.3590 C   0  0  0  0  0  0  0  0  0  0  0  0
   62.4180   32.4150   48.8590 C   0  0  0  0  0  0  0  0  0  0  0  0
   63.6040   32.4890   48.1080 C   0  0  0  0  0  0  0  0  0  0  0  0
   63.6320   33.1970   46.8860 C   0  0  0  0  0  0  0  0  0  0  0  0
   62.4760   33.8370   46.4050 C   0  0  0  0  0  0  0  0  0  0  0  0
   61.3110   33.7480   47.1710 C   0  0  0  0  0  0  0  0  0  0  0  0
   54.8148   29.6134   43.4038 H   0  0  0  0  0  0  0  0  0  0  0  0
   56.1688   30.7247   43.0059 H   0  0  0  0  0  0  0  0  0  0  0  0
   56.4352   28.9482   43.0059 H   0  0  0  0  0  0  0  0  0  0  0  0
   57.5993   27.6328   45.6655 H   0  0  0  0  0  0  0  0  0  0  0  0
   59.9036   27.5953   46.6045 H   0  0  0  0  0  0  0  0  0  0  0  0
   61.1896   29.7142   46.8535 H   0  0  0  0  0  0  0  0  0  0  0  0
   60.1844   31.8776   46.1412 H   0  0  0  0  0  0  0  0  0  0  0  0
   59.6655   33.0168   44.3609 H   0  0  0  0  0  0  0  0  0  0  0  0
   58.2673   33.4743   43.3307 H   0  0  0  0  0  0  0  0  0  0  0  0
   58.2364   34.0717   48.2544 H   0  0  0  0  0  0  0  0  0  0  0  0
   59.7720   32.6720   49.8250 H   0  0  0  0  0  0  0  0  0  0  0  0
   62.3839   31.8667   49.8120 H   0  0  0  0  0  0  0  0  0  0  0  0
   64.5151   31.9929   48.4739 H   0  0  0  0  0  0  0  0  0  0  0  0
   64.5654   33.2481   46.3062 H   0  0  0  0  0  0  0  0  0  0  0  0
   62.4886   34.3908   45.4547 H   0  0  0  0  0  0  0  0  0  0  0  0
  1  2  1  0
  2  3  1  0
  3  4  2  0
  4  5  1  0
  5  6  2  0
  6  7  1  0
  7  8  2  0
  8  9  1  0
  9 10  2  0
  9 11  1  0
 11 12  1  0
 12 13  1  0
 13 14  2  0
 13 15  1  0
 15 16  2  0
 16 17  1  0
 17 18  1  0
 18 19  2  0
 19 20  1  0
 20 21  2  0
 21 22  1  0
 22 23  2  0
  8  3  1  0
 23 15  1  0
 23 18  1  0
  1 24  1  0
  1 25  1  0
  1 26  1  0
  4 27  1  0
  5 28  1  0
  6 29  1  0
  7 30  1  0
 11 31  1  0
 11 32  1  0
 16 33  1  0
 17 34  1  0
 19 35  1  0
 20 36  1  0
 21 37  1  0
 22 38  1  0
M  END
>  <UniqueID>  (13) 
12

>  <SMILES>  (13) 
COc1ccccc1C(=O)COC(=O)c1c[nH]c2ccccc12

>  <Energy>  (13) 
74.20929565430862

>  <Genealogy>  (13) 
COc1ccccc1C(=O)COC(=O)c1c[nH]c2ccccc12 (3D coordinates assigned)
COc1ccccc1C(=O)COC(=O)c1c[nH]c2ccccc12 (optimized conformer: 74.20929565430862 kcal/mol)

>  <smiles>  (13) 
COc1ccccc1C(=O)COC(=O)c1c[nH]c2ccccc12

>  <score_type>  (13) 
oracle

>  <origin>  (13) 
adg

>  <m_score__min__energy>  (13) 
-8.3100000000000005

>  <m_primary>  (13) 
energy

$$$$
13:0
     RDKit          3D

 41 44  0  0  0  0  0  0  0  0999 V2000
   63.2410   33.4500   47.6240 C   0  0  0  0  0  0  0  0  0  0  0  0
   63.3260   33.6820   49.0800 N   0  0  0  0  0  0  0  0  0  0  0  0
   64.5190   32.9990   49.6110 C   0  0  0  0  0  0  0  0  0  0  0  0
   62.0950   33.2130   49.7750 C   0  0  0  0  0  0  0  0  0  0  0  0
   60.8270   33.9440   49.2970 C   0  0  0  0  0  0  0  0  0  0  0  0
   60.1490   33.2070   48.2300 N   0  0  0  0  0  0  0  0  0  0  0  0
   59.7760   31.8960   48.2720 C   0  0  0  0  0  0  0  0  0  0  0  0
   59.1220   31.5700   47.0890 C   0  0  0  0  0  0  0  0  0  0  0  0
   59.1080   32.6990   46.3430 C   0  0  0  0  0  0  0  0  0  0  0  0
   58.5380   32.8490   45.0910 C   0  0  0  0  0  0  0  0  0  0  0  0
   58.6330   34.1380   44.5120 C   0  0  0  0  0  0  0  0  0  0  0  0
   59.2830   35.1870   45.2130 C   0  0  0  0  0  0  0  0  0  0  0  0
   59.8410   34.9680   46.4930 C   0  0  0  0  0  0  0  0  0  0  0  0
   59.7300   33.6850   47.0350 C   0  0  0  0  0  0  0  0  0  0  0  0
   57.8760   31.6390   44.4940 C   0  0  0  0  0  0  0  0  0  0  0  0
   57.2710   31.6740   43.2240 C   0  0  0  0  0  0  0  0  0  0  0  0
   56.6630   30.5320   42.6980 C   0  0  0  0  0  0  0  0  0  0  0  0
   56.6470   29.3410   43.4260 C   0  0  0  0  0  0  0  0  0  0  0  0
   57.2390   29.2790   44.6880 C   0  0  0  0  0  0  0  0  0  0  0  0
   57.8580   30.4130   45.2370 C   0  0  0  0  0  0  0  0  0  0  0  0
   58.4940   30.3470   46.5910 C   0  0  0  0  0  0  0  0  0  0  0  0
   58.4940   29.2910   47.2800 O   0  0  0  0  0  0  0  0  0  0  0  0
   62.8682   32.4323   47.4360 H   0  0  0  0  0  0  0  0  0  0  0  0
   62.5524   34.1814   47.1757 H   0  0  0  0  0  0  0  0  0  0  0  0
   64.2391   33.5635   47.1757 H   0  0  0  0  0  0  0  0  0  0  0  0
   63.4660   34.7090   49.2350 H   0  0  0  0  0  0  0  0  0  0  0  0
   64.4915   33.0147   50.7105 H   0  0  0  0  0  0  0  0  0  0  0  0
   64.5317   31.9568   49.2594 H   0  0  0  0  0  0  0  0  0  0  0  0
   65.4242   33.5157   49.2594 H   0  0  0  0  0  0  0  0  0  0  0  0
   61.9728   32.1363   49.5859 H   0  0  0  0  0  0  0  0  0  0  0  0
   62.2172   33.4267   50.8471 H   0  0  0  0  0  0  0  0  0  0  0  0
   60.1378   34.0558   50.1470 H   0  0  0  0  0  0  0  0  0  0  0  0
   61.1252   34.9258   48.9006 H   0  0  0  0  0  0  0  0  0  0  0  0
   59.9627   31.2063   49.1084 H   0  0  0  0  0  0  0  0  0  0  0  0
   58.2024   34.3264   43.5175 H   0  0  0  0  0  0  0  0  0  0  0  0
   59.3535   36.1841   44.7539 H   0  0  0  0  0  0  0  0  0  0  0  0
   60.3440   35.7776   47.0421 H   0  0  0  0  0  0  0  0  0  0  0  0
   57.2770   32.6071   42.6416 H   0  0  0  0  0  0  0  0  0  0  0  0
   56.1938   30.5713   41.7039 H   0  0  0  0  0  0  0  0  0  0  0  0
   56.1654   28.4472   43.0028 H   0  0  0  0  0  0  0  0  0  0  0  0
   57.2205   28.3369   45.2555 H   0  0  0  0  0  0  0  0  0  0  0  0
  1  2  1  0
  2  3  1  0
  2  4  1  0
  4  5  1  0
  5  6  1  0
  6  7  1  0
  7  8  2  0
  8  9  1  0
  9 10  2  0
 10 11  1  0
 11 12  2  0
 12 13  1  0
 13 14  2  0
 10 15  1  0
 15 16  2  0
 16 17  1  0
 17 18  2  0
 18 19  1  0
 19 20  2  0
 20 21  1  0
 21 22  2  0
 14  6  1  0
 20 15  1  0
 21  8  1  0
 14  9  1  0
  1 23  1  0
  1 24  1  0
  1 25  1  0
  2 26  1  0
  3 27  1  0
  3 28  1  0
  3 29  1  0
  4 30  1  0
  4 31  1  0
  5 32  1  0
  5 33  1  0
  7 34  1  0
 11 35  1  0
 12 36  1  0
 13 37  1  0
 16 38  1  0
 17 39  1  0
 18 40  1  0
 19 41  1  0
M  CHG  1   2   1
M  END
>  <UniqueID>  (14) 
13

>  <SMILES>  (14) 
C[NH+](C)CCn1cc2c3c(cccc31)-c1ccccc1C2=O

>  <Energy>  (14) 
91.72497427851434

>  <Genealogy>  (14) 
C[NH+](C)CCn1cc2c3c(cccc31)-c1ccccc1C2=O (protonated)
C[NH+](C)CCn1cc2c3c(cccc31)-c1ccccc1C2=O (3D coordinates assigned)
C[NH+](C)CCn1cc2c3c(cccc31)-c1ccccc1C2=O (nonaromatic ring conformer: 91.72497427851434 kcal/mol)

>  <smiles>  (14) 
CN(C)CCn1cc2c3c(cccc31)-c1ccccc1C2=O

>  <score_type>  (14) 
oracle

>  <origin>  (14) 
adg

>  <m_score__min__energy>  (14) 
-6.6299999999999999

>  <m_primary>  (14) 
energy

$$$$
14:0
     RDKit          3D

 29 29  0  0  0  0  0  0  0  0999 V2000
   55.0270   25.0690   45.5010 C   0  0  0  0  0  0  0  0  0  0  0  0
   55.1550   26.4340   46.0140 N   0  0  0  0  0  0  0  0  0  0  0  0
   56.5630   26.7460   46.2860 C   0  0  0  0  0  0  0  0  0  0  0  0
   57.2640   27.2310   45.0120 C   0  0  0  0  0  0  0  0  0  0  0  0
   57.4030   28.7390   44.9930 C   0  0  0  0  0  0  0  0  0  0  0  0
   58.6420   29.3460   45.2720 C   0  0  0  0  0  0  0  0  0  0  0  0
   59.7570   28.5350   45.5420 O   0  0  0  0  0  0  0  0  0  0  0  0
   60.9880   28.5920   44.8290 C   0  0  0  0  0  0  0  0  0  0  0  0
   58.7260   30.7470   45.2730 C   0  0  0  0  0  0  0  0  0  0  0  0
   57.5790   31.5000   45.0090 C   0  0  0  0  0  0  0  0  0  0  0  0
   57.6420   32.9940   45.0050 C   0  0  0  0  0  0  0  0  0  0  0  0
   56.4230   30.8930   44.7620 O   0  0  0  0  0  0  0  0  0  0  0  0
   56.2910   29.5710   44.7480 C   0  0  0  0  0  0  0  0  0  0  0  0
   55.1580   29.0730   44.5130 O   0  0  0  0  0  0  0  0  0  0  0  0
   54.9610   24.3652   46.3438 H   0  0  0  0  0  0  0  0  0  0  0  0
   54.1177   24.9919   44.8868 H   0  0  0  0  0  0  0  0  0  0  0  0
   55.9061   24.8242   44.8868 H   0  0  0  0  0  0  0  0  0  0  0  0
   54.8170   27.0830   45.2640 H   0  0  0  0  0  0  0  0  0  0  0  0
   56.6173   27.5345   47.0510 H   0  0  0  0  0  0  0  0  0  0  0  0
   57.0657   25.8348   46.6424 H   0  0  0  0  0  0  0  0  0  0  0  0
   58.2657   26.7793   44.9615 H   0  0  0  0  0  0  0  0  0  0  0  0
   56.6540   26.9303   44.1474 H   0  0  0  0  0  0  0  0  0  0  0  0
   61.8238   28.6307   45.5430 H   0  0  0  0  0  0  0  0  0  0  0  0
   61.0872   27.6975   44.1965 H   0  0  0  0  0  0  0  0  0  0  0  0
   61.0041   29.4919   44.1965 H   0  0  0  0  0  0  0  0  0  0  0  0
   59.6840   31.2466   45.4793 H   0  0  0  0  0  0  0  0  0  0  0  0
   57.6576   33.3631   46.0411 H   0  0  0  0  0  0  0  0  0  0  0  0
   58.5547   33.3211   44.4855 H   0  0  0  0  0  0  0  0  0  0  0  0
   56.7600   33.3968   44.4855 H   0  0  0  0  0  0  0  0  0  0  0  0
  1  2  1  0
  2  3  1  0
  3  4  1  0
  4  5  1  0
  5  6  2  0
  6  7  1  0
  7  8  1  0
  6  9  1  0
  9 10  2  0
 10 11  1  0
 10 12  1  0
 12 13  1  0
 13 14  2  0
 13  5  1  0
  1 15  1  0
  1 16  1  0
  1 17  1  0
  2 18  1  0
  3 19  1  0
  3 20  1  0
  4 21  1  0
  4 22  1  0
  8 23  1  0
  8 24  1  0
  8 25  1  0
  9 26  1  0
 11 27  1  0
 11 28  1  0
 11 29  1  0
M  END
>  <UniqueID>  (15) 
14

>  <SMILES>  (15) 
CNCCc1c(OC)cc(C)oc1=O

>  <Energy>  (15) 
23.146228248739835

>  <Genealogy>  (15) 
CNCCc1c(OC)cc(C)oc1=O (3D coordinates assigned)
CNCCc1c(OC)cc(C)oc1=O (optimized conformer: 23.146228248739835 kcal/mol)

>  <smiles>  (15) 
CNCCc1c(OC)cc(C)oc1=O

>  <score_type>  (15) 
oracle

>  <origin>  (15) 
adg

>  <m_score__min__energy>  (15) 
-5.5599999999999996

>  <m_primary>  (15) 
energy

$$$$
15:0
     RDKit          3D

 51 53  0  0  0  0  0  0  0  0999 V2000
   60.6340   29.6980   48.9680 C   0  0  0  0  0  0  0  0  0  0  0  0
   59.9680   30.4840   47.4680 S   0  0  0  0  0  0  0  0  0  0  0  0
   61.3350   31.6440   47.3200 C   0  0  0  0  0  0  0  0  0  0  0  0
   62.6230   31.2210   47.6750 C   0  0  0  0  0  0  0  0  0  0  0  0
   63.7010   32.1060   47.5960 C   0  0  0  0  0  0  0  0  0  0  0  0
   63.4990   33.4160   47.1570 C   0  0  0  0  0  0  0  0  0  0  0  0
   62.2200   33.8440   46.7930 C   0  0  0  0  0  0  0  0  0  0  0  0
   61.1280   32.9640   46.8670 C   0  0  0  0  0  0  0  0  0  0  0  0
   59.8250   33.4080   46.4630 N   0  0  0  0  0  0  0  0  0  0  0  0
   58.6730   33.1620   47.3350 C   0  0  0  0  0  0  0  0  0  0  0  0
   57.3910   33.7370   46.7170 C   0  0  0  0  0  0  0  0  0  0  0  0
   57.3090   33.4380   45.2710 N   0  0  0  0  0  0  0  0  0  0  0  0
   57.1120   31.9940   45.0110 C   0  0  0  0  0  0  0  0  0  0  0  0
   57.7760   31.5980   43.6810 C   0  0  0  0  0  0  0  0  0  0  0  0
   57.3100   30.2890   43.1890 N   0  0  0  0  0  0  0  0  0  0  0  0
   56.8070   29.4210   44.2640 C   0  0  0  0  0  0  0  0  0  0  0  0
   57.9440   28.6950   44.9320 C   0  0  0  0  0  0  0  0  0  0  0  0
   59.2630   28.9050   44.4980 C   0  0  0  0  0  0  0  0  0  0  0  0
   60.3210   28.2190   45.1040 C   0  0  0  0  0  0  0  0  0  0  0  0
   60.0690   27.3190   46.1430 C   0  0  0  0  0  0  0  0  0  0  0  0
   61.0960   26.6550   46.7290 F   0  0  0  0  0  0  0  0  0  0  0  0
   58.7580   27.1020   46.5790 C   0  0  0  0  0  0  0  0  0  0  0  0
   57.6970   27.7860   45.9750 C   0  0  0  0  0  0  0  0  0  0  0  0
   58.4430   34.0110   44.4950 C   0  0  0  0  0  0  0  0  0  0  0  0
   59.6930   34.3380   45.3380 C   0  0  0  0  0  0  0  0  0  0  0  0
   60.2155   30.1919   49.8574 H   0  0  0  0  0  0  0  0  0  0  0  0
   60.3593   28.6329   48.9767 H   0  0  0  0  0  0  0  0  0  0  0  0
   61.7298   29.7941   48.9767 H   0  0  0  0  0  0  0  0  0  0  0  0
   62.7858   30.1883   48.0171 H   0  0  0  0  0  0  0  0  0  0  0  0
   64.7095   31.7707   47.8798 H   0  0  0  0  0  0  0  0  0  0  0  0
   64.3485   34.1123   47.0977 H   0  0  0  0  0  0  0  0  0  0  0  0
   62.0673   34.8767   46.4463 H   0  0  0  0  0  0  0  0  0  0  0  0
   58.5513   32.0777   47.4750 H   0  0  0  0  0  0  0  0  0  0  0  0
   58.8506   33.6546   48.3023 H   0  0  0  0  0  0  0  0  0  0  0  0
   56.5201   33.2958   47.2238 H   0  0  0  0  0  0  0  0  0  0  0  0
   57.4044   34.8295   46.8448 H   0  0  0  0  0  0  0  0  0  0  0  0
   57.5624   31.4128   45.8291 H   0  0  0  0  0  0  0  0  0  0  0  0
   56.0339   31.7841   44.9503 H   0  0  0  0  0  0  0  0  0  0  0  0
   57.5404   32.3633   42.9268 H   0  0  0  0  0  0  0  0  0  0  0  0
   58.8596   31.5247   43.8555 H   0  0  0  0  0  0  0  0  0  0  0  0
   58.0900   29.7980   42.6940 H   0  0  0  0  0  0  0  0  0  0  0  0
   56.2823   30.0360   45.0100 H   0  0  0  0  0  0  0  0  0  0  0  0
   56.1186   28.6807   43.8303 H   0  0  0  0  0  0  0  0  0  0  0  0
   59.4649   29.6111   43.6790 H   0  0  0  0  0  0  0  0  0  0  0  0
   61.3527   28.3883   44.7622 H   0  0  0  0  0  0  0  0  0  0  0  0
   58.5608   26.3934   47.3970 H   0  0  0  0  0  0  0  0  0  0  0  0
   56.6664   27.6116   46.3177 H   0  0  0  0  0  0  0  0  0  0  0  0
   58.7310   33.2851   43.7203 H   0  0  0  0  0  0  0  0  0  0  0  0
   58.0874   34.9651   44.0787 H   0  0  0  0  0  0  0  0  0  0  0  0
   60.5866   34.2615   44.7011 H   0  0  0  0  0  0  0  0  0  0  0  0
   59.5903   35.3581   45.7364 H   0  0  0  0  0  0  0  0  0  0  0  0
  1  2  1  0
  2  3  1  0
  3  4  2  0
  4  5  1  0
  5  6  2  0
  6  7  1  0
  7  8  2  0
  8  9  1  0
  9 10  1  0
 10 11  1  0
 11 12  1  0
 12 13  1  0
 13 14  1  0
 14 15  1  0
 15 16  1  0
 16 17  1  0
 17 18  2  0
 18 19  1  0
 19 20  2  0
 20 21  1  0
 20 22  1  0
 22 23  2  0
 12 24  1  0
 24 25  1  0
  8  3  1  0
 25  9  1  0
 23 17  1  0
  1 26  1  0
  1 27  1  0
  1 28  1  0
  4 29  1  0
  5 30  1  0
  6 31  1  0
  7 32  1  0
 10 33  1  0
 10 34  1  0
 11 35  1  0
 11 36  1  0
 13 37  1  0
 13 38  1  0
 14 39  1  0
 14 40  1  0
 15 41  1  0
 16 42  1  0
 16 43  1  0
 18 44  1  0
 19 45  1  0
 22 46  1  0
 23 47  1  0
 24 48  1  0
 24 49  1  0
 25 50  1  0
 25 51  1  0
M  END
>  <UniqueID>  (16) 
15

>  <SMILES>  (16) 
CSc1ccccc1N1CCN(CCNCc2ccc(F)cc2)CC1

>  <Energy>  (16) 
59.5049134368369

>  <Genealogy>  (16) 
CSc1ccccc1N1CCN(CCNCc2ccc(F)cc2)CC1 (3D coordinates assigned)
CSc1ccccc1N1CCN(CCNCc2ccc(F)cc2)CC1 (nonaromatic ring conformer: 59.5049134368369 kcal/mol)

>  <smiles>  (16) 
CSc1ccccc1N1CCN(CCNCc2ccc(F)cc2)CC1

>  <score_type>  (16) 
oracle

>  <origin>  (16) 
adg

>  <m_score__min__energy>  (16) 
-8.1500000000000004

>  <m_primary>  (16) 
energy

$$$$
16:0
     RDKit          3D

 45 47  0  0  0  0  0  0  0  0999 V2000
   63.1233   34.6993   47.8516 H   0  0  0  0  0  0  0  0  0  0  0  0
   62.5460   33.7630   47.8500 C   0  0  0  0  0  0  0  0  0  0  0  0
   61.1650   33.7940   48.0560 C   0  0  0  0  0  0  0  0  0  0  0  0
   60.6553   34.7553   48.2177 H   0  0  0  0  0  0  0  0  0  0  0  0
   60.4300   32.6060   48.0570 C   0  0  0  0  0  0  0  0  0  0  0  0
   59.3429   32.6364   48.2222 H   0  0  0  0  0  0  0  0  0  0  0  0
   61.0710   31.3700   47.8480 C   0  0  0  0  0  0  0  0  0  0  0  0
   60.2850   30.1120   47.8190 C   0  0  0  0  0  0  0  0  0  0  0  0
   60.9330   28.8630   47.8270 C   0  0  0  0  0  0  0  0  0  0  0  0
   62.0299   28.8177   47.8960 H   0  0  0  0  0  0  0  0  0  0  0  0
   60.1940   27.6800   47.7480 C   0  0  0  0  0  0  0  0  0  0  0  0
   60.7091   26.7084   47.7755 H   0  0  0  0  0  0  0  0  0  0  0  0
   58.8000   27.7280   47.6340 C   0  0  0  0  0  0  0  0  0  0  0  0
   58.0660   26.5120   47.4650 N   0  0  0  0  0  0  0  0  0  0  0  0
   57.0410   26.3110   46.4820 C   0  0  0  0  0  0  0  0  0  0  0  0
   55.9370   25.8310   46.8460 O   0  0  0  0  0  0  0  0  0  0  0  0
   57.2600   26.6170   45.0170 C   0  0  0  0  0  0  0  0  0  0  0  0
   56.3009   26.5266   44.4860 H   0  0  0  0  0  0  0  0  0  0  0  0
   57.9962   25.9015   44.6219 H   0  0  0  0  0  0  0  0  0  0  0  0
   57.7900   27.9820   44.8210 N   0  0  0  0  0  0  0  0  0  0  0  0
   59.1310   28.1420   44.6110 C   0  0  0  0  0  0  0  0  0  0  0  0
   59.7837   27.2593   44.5413 H   0  0  0  0  0  0  0  0  0  0  0  0
   59.6740   29.4170   44.4850 C   0  0  0  0  0  0  0  0  0  0  0  0
   60.7546   29.5417   44.3215 H   0  0  0  0  0  0  0  0  0  0  0  0
   58.8690   30.5060   44.5640 N   0  0  0  0  0  0  0  0  0  0  0  0
   59.3210   31.4410   44.4700 H   0  0  0  0  0  0  0  0  0  0  0  0
   57.5200   30.3730   44.7410 C   0  0  0  0  0  0  0  0  0  0  0  0
   56.7290   31.4100   44.8260 N   0  0  0  0  0  0  0  0  0  0  0  0
   57.0250   32.7020   45.4460 C   0  0  0  0  0  0  0  0  0  0  0  0
   57.5026   32.5322   46.4222 H   0  0  0  0  0  0  0  0  0  0  0  0
   56.0831   33.2563   45.5707 H   0  0  0  0  0  0  0  0  0  0  0  0
   57.9630   33.5250   44.5670 C   0  0  0  0  0  0  0  0  0  0  0  0
   58.6373   34.1166   45.2037 H   0  0  0  0  0  0  0  0  0  0  0  0
   58.5562   32.8506   43.9319 H   0  0  0  0  0  0  0  0  0  0  0  0
   57.3715   34.2009   43.9319 H   0  0  0  0  0  0  0  0  0  0  0  0
   56.9690   29.0830   44.8410 C   0  0  0  0  0  0  0  0  0  0  0  0
   55.7170   28.9510   44.9570 O   0  0  0  0  0  0  0  0  0  0  0  0
   58.1440   28.9640   47.6710 C   0  0  0  0  0  0  0  0  0  0  0  0
   57.0454   29.0028   47.6307 H   0  0  0  0  0  0  0  0  0  0  0  0
   58.8800   30.1490   47.7590 C   0  0  0  0  0  0  0  0  0  0  0  0
   58.3573   31.1166   47.7815 H   0  0  0  0  0  0  0  0  0  0  0  0
   62.4630   31.3510   47.6400 C   0  0  0  0  0  0  0  0  0  0  0  0
   62.9787   30.3935   47.4751 H   0  0  0  0  0  0  0  0  0  0  0  0
   63.1940   32.5440   47.6420 C   0  0  0  0  0  0  0  0  0  0  0  0
   64.2817   32.5214   47.4793 H   0  0  0  0  0  0  0  0  0  0  0  0
  1  2  1  0
  2  3  2  0
  3  4  1  0
  3  5  1  0
  5  6  1  0
  5  7  2  0
  7  8  1  0
  8  9  2  0
  9 10  1  0
  9 11  1  0
 11 12  1  0
 11 13  2  0
 13 14  1  0
 14 15  1  0
 15 16  2  0
 15 17  1  0
 17 18  1  0
 17 19  1  0
 17 20  1  0
 20 21  1  0
 21 22  1  0
 21 23  2  0
 23 24  1  0
 23 25  1  0
 25 26  1  0
 25 27  1  0
 27 28  2  0
 28 29  1  0
 29 30  1  0
 29 31  1  0
 29 32  1  0
 32 33  1  0
 32 34  1  0
 32 35  1  0
 27 36  1  0
 36 37  2  0
 13 38  1  0
 38 39  1  0
 38 40  2  0
 40 41  1  0
  7 42  1  0
 42 43  1  0
 42 44  2  0
 44 45  1  0
 44  2  1  0
 40  8  1  0
 36 20  1  0
M  CHG  1  14  -1
M  END
>  <UniqueID>  (17) 
16

>  <SMILES>  (17) 
CC/N=c1\[nH]ccn(CC(=O)[N-]c2ccc(-c3ccccc3)cc2)c1=O

>  <Energy>  (17) 
56.78244527962887

>  <Genealogy>  (17) 
CCN=c1[nH]ccn(CC(=O)[N-]c2ccc(-c3ccccc3)cc2)c1=O (protonated)
CC/N=c1\[nH]ccn(CC(=O)[N-]c2ccc(-c3ccccc3)cc2)c1=O (cis-trans isomerization)
CC/N=c1\[nH]ccn(CC(=O)[N-]c2ccc(-c3ccccc3)cc2)c1=O (3D coordinates assigned)
CC/N=c1\[nH]ccn(CC(=O)[N-]c2ccc(-c3ccccc3)cc2)c1=O (optimized conformer: 56.78244527962887 kcal/mol)

>  <smiles>  (17) 
CCN=c1[nH]ccn(CC(=O)Nc2ccc(-c3ccccc3)cc2)c1=O

>  <score_type>  (17) 
oracle

>  <origin>  (17) 
adg

>  <m_score__min__energy>  (17) 
-9.75

>  <m_primary>  (17) 
energy

$$$$
17:0
     RDKit          3D

 35 38  0  0  0  0  0  0  0  0999 V2000
   64.4200   33.2880   49.7220 C   0  0  0  0  0  0  0  0  0  0  0  0
   63.1420   33.3550   48.9430 C   0  0  0  0  0  0  0  0  0  0  0  0
   62.9330   32.4830   47.8430 C   0  0  0  0  0  0  0  0  0  0  0  0
   61.7220   32.5050   47.1270 C   0  0  0  0  0  0  0  0  0  0  0  0
   60.7420   33.4130   47.5350 C   0  0  0  0  0  0  0  0  0  0  0  0
   60.9270   34.2280   48.6150 C   0  0  0  0  0  0  0  0  0  0  0  0
   62.1100   34.2300   49.3500 C   0  0  0  0  0  0  0  0  0  0  0  0
   59.8120   34.9420   48.8410 N   0  0  0  0  0  0  0  0  0  0  0  0
   58.9520   34.5400   47.8750 C   0  0  0  0  0  0  0  0  0  0  0  0
   59.4960   33.6060   47.0520 N   0  0  0  0  0  0  0  0  0  0  0  0
   58.8560   32.9820   45.9260 C   0  0  0  0  0  0  0  0  0  0  0  0
   58.7510   33.6710   44.7070 C   0  0  0  0  0  0  0  0  0  0  0  0
   58.1420   33.0710   43.6020 C   0  0  0  0  0  0  0  0  0  0  0  0
   57.6360   31.7680   43.6970 C   0  0  0  0  0  0  0  0  0  0  0  0
   57.0210   31.1550   42.5940 C   0  0  0  0  0  0  0  0  0  0  0  0
   56.5270   29.8520   42.6990 C   0  0  0  0  0  0  0  0  0  0  0  0
   56.6430   29.1510   43.9030 C   0  0  0  0  0  0  0  0  0  0  0  0
   57.2520   29.7500   45.0090 C   0  0  0  0  0  0  0  0  0  0  0  0
   57.7510   31.0590   44.9170 C   0  0  0  0  0  0  0  0  0  0  0  0
   58.3660   31.6700   46.0210 C   0  0  0  0  0  0  0  0  0  0  0  0
   64.1943   33.2998   50.7985 H   0  0  0  0  0  0  0  0  0  0  0  0
   64.9550   32.3606   49.4697 H   0  0  0  0  0  0  0  0  0  0  0  0
   65.0490   34.1544   49.4697 H   0  0  0  0  0  0  0  0  0  0  0  0
   63.7270   31.7818   47.5467 H   0  0  0  0  0  0  0  0  0  0  0  0
   61.5527   31.8302   46.2750 H   0  0  0  0  0  0  0  0  0  0  0  0
   62.2368   34.8916   50.2196 H   0  0  0  0  0  0  0  0  0  0  0  0
   59.6390   35.6420   49.5960 H   0  0  0  0  0  0  0  0  0  0  0  0
   57.9276   34.9265   47.7687 H   0  0  0  0  0  0  0  0  0  0  0  0
   59.1517   34.6919   44.6213 H   0  0  0  0  0  0  0  0  0  0  0  0
   58.0595   33.6234   42.6544 H   0  0  0  0  0  0  0  0  0  0  0  0
   56.9277   31.7019   41.6442 H   0  0  0  0  0  0  0  0  0  0  0  0
   56.0455   29.3765   41.8318 H   0  0  0  0  0  0  0  0  0  0  0  0
   56.2538   28.1250   43.9800 H   0  0  0  0  0  0  0  0  0  0  0  0
   57.3406   29.1944   45.9542 H   0  0  0  0  0  0  0  0  0  0  0  0
   58.4646   31.1171   46.9668 H   0  0  0  0  0  0  0  0  0  0  0  0
  1  2  1  0
  2  3  2  0
  3  4  1  0
  4  5  2  0
  5  6  1  0
  6  7  2  0
  6  8  1  0
  8  9  2  0
  9 10  1  0
 10 11  1  0
 11 12  2  0
 12 13  1  0
 13 14  2  0
 14 15  1  0
 15 16  2  0
 16 17  1  0
 17 18  2  0
 18 19  1  0
 19 20  2  0
  7  2  1  0
 20 11  1  0
 10  5  1  0
 19 14  1  0
  1 21  1  0
  1 22  1  0
  1 23  1  0
  3 24  1  0
  4 25  1  0
  7 26  1  0
  8 27  1  0
  9 28  1  0
 12 29  1  0
 13 30  1  0
 15 31  1  0
 16 32  1  0
 17 33  1  0
 18 34  1  0
 20 35  1  0
M  CHG  1   8   1
M  END
>  <UniqueID>  (18) 
17

>  <SMILES>  (18) 
Cc1ccc2c(c1)[nH+]cn2-c1ccc2ccccc2c1

>  <Energy>  (18) 
85.79140685019219

>  <Genealogy>  (18) 
Cc1ccc2c(c1)[nH+]cn2-c1ccc2ccccc2c1 (protonated)
Cc1ccc2c(c1)[nH+]cn2-c1ccc2ccccc2c1 (3D coordinates assigned)
Cc1ccc2c(c1)[nH+]cn2-c1ccc2ccccc2c1 (optimized conformer: 85.79140685019219 kcal/mol)

>  <smiles>  (18) 
Cc1ccc2c(c1)ncn2-c1ccc2ccccc2c1

>  <score_type>  (18) 
oracle

>  <origin>  (18) 
adg

>  <m_score__min__energy>  (18) 
-6.4000000000000004

>  <m_primary>  (18) 
energy

$$$$
18:0
     RDKit          3D

 42 43  0  0  0  0  0  0  0  0999 V2000
   58.5196   34.3443   45.6058 H   0  0  0  0  0  0  0  0  0  0  0  0
   58.2610   33.2780   45.5270 C   0  0  0  0  0  0  0  0  0  0  0  0
   58.8850   32.3580   46.4950 C   0  0  0  0  0  0  0  0  0  0  0  0
   59.9760   31.7830   46.2270 O   0  0  0  0  0  0  0  0  0  0  0  0
   58.2810   32.1800   47.7450 O   0  0  0  0  0  0  0  0  0  0  0  0
   58.9000   31.4580   48.8100 C   0  0  0  0  0  0  0  0  0  0  0  0
   58.2303   31.4556   49.6826 H   0  0  0  0  0  0  0  0  0  0  0  0
   59.8525   31.9462   49.0637 H   0  0  0  0  0  0  0  0  0  0  0  0
   59.1760   30.0430   48.3960 C   0  0  0  0  0  0  0  0  0  0  0  0
   59.9020   29.3130   49.1240 O   0  0  0  0  0  0  0  0  0  0  0  0
   58.6900   29.5570   47.1340 N   0  0  0  0  0  0  0  0  0  0  0  0
   58.4090   30.2570   46.4080 H   0  0  0  0  0  0  0  0  0  0  0  0
   58.6700   28.1650   46.7830 C   0  0  0  0  0  0  0  0  0  0  0  0
   59.8280   27.5160   46.3270 C   0  0  0  0  0  0  0  0  0  0  0  0
   60.7674   28.0795   46.2267 H   0  0  0  0  0  0  0  0  0  0  0  0
   59.7940   26.1590   46.0000 C   0  0  0  0  0  0  0  0  0  0  0  0
   60.7046   25.6627   45.6333 H   0  0  0  0  0  0  0  0  0  0  0  0
   58.6050   25.4230   46.1360 C   0  0  0  0  0  0  0  0  0  0  0  0
   58.5780   23.9660   45.7660 C   0  0  0  0  0  0  0  0  0  0  0  0
   58.5667   23.3555   46.6810 H   0  0  0  0  0  0  0  0  0  0  0  0
   57.6758   23.7549   45.1732 H   0  0  0  0  0  0  0  0  0  0  0  0
   59.4718   23.7216   45.1732 H   0  0  0  0  0  0  0  0  0  0  0  0
   57.4460   26.0590   46.6230 C   0  0  0  0  0  0  0  0  0  0  0  0
   56.2170   25.3210   46.7150 N   0  0  0  0  0  0  0  0  0  0  0  0
   55.2400   25.1680   45.6770 C   0  0  0  0  0  0  0  0  0  0  0  0
   54.2700   25.9700   45.6300 O   0  0  0  0  0  0  0  0  0  0  0  0
   55.3650   24.1130   44.6190 C   0  0  0  0  0  0  0  0  0  0  0  0
   55.4817   23.1283   45.0951 H   0  0  0  0  0  0  0  0  0  0  0  0
   54.4606   24.1127   43.9928 H   0  0  0  0  0  0  0  0  0  0  0  0
   56.2444   24.3240   43.9928 H   0  0  0  0  0  0  0  0  0  0  0  0
   57.4880   27.4300   46.9350 C   0  0  0  0  0  0  0  0  0  0  0  0
   56.5806   27.9311   47.3031 H   0  0  0  0  0  0  0  0  0  0  0  0
   57.4040   32.9230   44.5580 C   0  0  0  0  0  0  0  0  0  0  0  0
   56.9388   33.7338   43.9782 H   0  0  0  0  0  0  0  0  0  0  0  0
   57.0300   31.5400   44.2010 C   0  0  0  0  0  0  0  0  0  0  0  0
   56.7210   30.6310   45.0980 O   0  0  0  0  0  0  0  0  0  0  0  0
   56.4820   29.4960   44.4810 C   0  0  0  0  0  0  0  0  0  0  0  0
   56.1890   28.5572   44.9738 H   0  0  0  0  0  0  0  0  0  0  0  0
   56.6540   29.6590   43.1210 C   0  0  0  0  0  0  0  0  0  0  0  0
   56.5255   28.8933   42.3418 H   0  0  0  0  0  0  0  0  0  0  0  0
   57.0190   30.9740   42.9370 C   0  0  0  0  0  0  0  0  0  0  0  0
   57.2531   31.4714   41.9842 H   0  0  0  0  0  0  0  0  0  0  0  0
  1  2  1  0
  2  3  1  0
  3  4  2  0
  3  5  1  0
  5  6  1  0
  6  7  1  0
  6  8  1  0
  6  9  1  0
  9 10  2  0
  9 11  1  0
 11 12  1  0
 11 13  1  0
 13 14  2  0
 14 15  1  0
 14 16  1  0
 16 17  1  0
 16 18  2  0
 18 19  1  0
 19 20  1  0
 19 21  1  0
 19 22  1  0
 18 23  1  0
 23 24  1  0
 24 25  1  0
 25 26  2  0
 25 27  1  0
 27 28  1  0
 27 29  1  0
 27 30  1  0
 23 31  2  0
 31 32  1  0
  2 33  2  0
 33 34  1  0
 33 35  1  0
 35 36  1  0
 36 37  1  0
 37 38  1  0
 37 39  2  0
 39 40  1  0
 39 41  1  0
 41 42  1  0
 31 13  1  0
 41 35  2  0
M  CHG  1  24  -1
M  END
>  <UniqueID>  (19) 
18

>  <SMILES>  (19) 
CC(=O)[N-]c1cc(NC(=O)COC(=O)/C=C\c2ccco2)ccc1C

>  <Energy>  (19) 
77.8823794461585

>  <Genealogy>  (19) 
CC(=O)[N-]c1cc(NC(=O)COC(=O)C=Cc2ccco2)ccc1C (protonated)
CC(=O)[N-]c1cc(NC(=O)COC(=O)/C=C\c2ccco2)ccc1C (cis-trans isomerization)
CC(=O)[N-]c1cc(NC(=O)COC(=O)/C=C\c2ccco2)ccc1C (3D coordinates assigned)
CC(=O)[N-]c1cc(NC(=O)COC(=O)/C=C\c2ccco2)ccc1C (optimized conformer: 77.8823794461585 kcal/mol)

>  <smiles>  (19) 
CC(=O)Nc1cc(NC(=O)COC(=O)C=Cc2ccco2)ccc1C

>  <score_type>  (19) 
oracle

>  <origin>  (19) 
adg

>  <m_score__min__energy>  (19) 
-9.1199999999999992

>  <m_primary>  (19) 
energy

$$$$
19:0
     RDKit          3D

 38 40  0  0  0  0  0  0  0  0999 V2000
   54.1780   24.8740   45.6090 C   0  0  0  0  0  0  0  0  0  0  0  0
   54.7650   26.1230   45.9520 O   0  0  0  0  0  0  0  0  0  0  0  0
   56.1470   26.3080   46.0400 C   0  0  0  0  0  0  0  0  0  0  0  0
   56.9820   25.1950   46.1700 C   0  0  0  0  0  0  0  0  0  0  0  0
   58.3620   25.3830   46.2580 C   0  0  0  0  0  0  0  0  0  0  0  0
   58.8950   26.6730   46.2160 C   0  0  0  0  0  0  0  0  0  0  0  0
   58.0310   27.7730   46.0870 C   0  0  0  0  0  0  0  0  0  0  0  0
   58.5480   29.1550   46.0400 C   0  0  0  0  0  0  0  0  0  0  0  0
   58.3900   30.0440   44.9780 C   0  0  0  0  0  0  0  0  0  0  0  0
   58.9550   31.2650   45.1760 N   0  0  0  0  0  0  0  0  0  0  0  0
   59.5670   31.3670   46.3750 C   0  0  0  0  0  0  0  0  0  0  0  0
   60.2500   32.6090   46.8620 C   0  0  0  0  0  0  0  0  0  0  0  0
   59.2560   33.6230   47.2800 N   0  0  0  0  0  0  0  0  0  0  0  0
   59.5550   34.9670   46.7420 C   0  0  0  0  0  0  0  0  0  0  0  0
   59.2710   35.0640   45.2240 C   0  0  0  0  0  0  0  0  0  0  0  0
   58.5010   33.9820   44.7320 O   0  0  0  0  0  0  0  0  0  0  0  0
   57.3990   33.7510   45.5820 C   0  0  0  0  0  0  0  0  0  0  0  0
   57.8670   33.2190   46.9520 C   0  0  0  0  0  0  0  0  0  0  0  0
   59.4250   29.9390   47.2510 S   0  0  0  0  0  0  0  0  0  0  0  0
   56.6890   27.5580   46.0020 N   0  0  0  0  0  0  0  0  0  0  0  0
   53.9203   24.3256   46.5270 H   0  0  0  0  0  0  0  0  0  0  0  0
   53.2670   25.0472   45.0173 H   0  0  0  0  0  0  0  0  0  0  0  0
   54.8927   24.2831   45.0173 H   0  0  0  0  0  0  0  0  0  0  0  0
   56.5560   24.1814   46.2026 H   0  0  0  0  0  0  0  0  0  0  0  0
   59.0299   24.5150   46.3604 H   0  0  0  0  0  0  0  0  0  0  0  0
   59.9822   26.8265   46.2834 H   0  0  0  0  0  0  0  0  0  0  0  0
   57.8524   29.7796   44.0555 H   0  0  0  0  0  0  0  0  0  0  0  0
   58.9160   32.0370   44.4740 H   0  0  0  0  0  0  0  0  0  0  0  0
   60.8905   32.3562   47.7198 H   0  0  0  0  0  0  0  0  0  0  0  0
   60.8555   33.0240   46.0428 H   0  0  0  0  0  0  0  0  0  0  0  0
   58.9317   35.7058   47.2672 H   0  0  0  0  0  0  0  0  0  0  0  0
   60.6258   35.1637   46.8990 H   0  0  0  0  0  0  0  0  0  0  0  0
   58.7253   35.9990   45.0291 H   0  0  0  0  0  0  0  0  0  0  0  0
   60.2414   35.0376   44.7067 H   0  0  0  0  0  0  0  0  0  0  0  0
   56.8526   34.6944   45.7288 H   0  0  0  0  0  0  0  0  0  0  0  0
   56.7454   32.9989   45.1159 H   0  0  0  0  0  0  0  0  0  0  0  0
   57.1942   33.6098   47.7296 H   0  0  0  0  0  0  0  0  0  0  0  0
   57.8429   32.1202   46.9071 H   0  0  0  0  0  0  0  0  0  0  0  0
  1  2  1  0
  2  3  1  0
  3  4  2  0
  4  5  1  0
  5  6  2  0
  6  7  1  0
  7  8  1  0
  8  9  2  0
  9 10  1  0
 10 11  2  0
 11 12  1  0
 12 13  1  0
 13 14  1  0
 14 15  1  0
 15 16  1  0
 16 17  1  0
 17 18  1  0
 11 19  1  0
  7 20  2  0
 20  3  1  0
 19  8  1  0
 18 13  1  0
  1 21  1  0
  1 22  1  0
  1 23  1  0
  4 24  1  0
  5 25  1  0
  6 26  1  0
  9 27  1  0
 10 28  1  0
 12 29  1  0
 12 30  1  0
 14 31  1  0
 14 32  1  0
 15 33  1  0
 15 34  1  0
 17 35  1  0
 17 36  1  0
 18 37  1  0
 18 38  1  0
M  CHG  1  10   1
M  END
>  <UniqueID>  (20) 
19

>  <SMILES>  (20) 
COc1cccc(-c2c[nH+]c(CN3CCOCC3)s2)n1

>  <Energy>  (20) 
78.54577074397366

>  <Genealogy>  (20) 
COc1cccc(-c2c[nH+]c(CN3CCOCC3)s2)n1 (protonated)
COc1cccc(-c2c[nH+]c(CN3CCOCC3)s2)n1 (3D coordinates assigned)
COc1cccc(-c2c[nH+]c(CN3CCOCC3)s2)n1 (nonaromatic ring conformer: 78.54577074397366 kcal/mol)

>  <smiles>  (20) 
COc1cccc(-c2cnc(CN3CCOCC3)s2)n1

>  <score_type>  (20) 
oracle

>  <origin>  (20) 
adg

>  <m_score__min__energy>  (20) 
-5.8899999999999997

>  <m_primary>  (20) 
energy

$$$$
20:0
     RDKit          3D

 51 55  0  0  0  0  0  0  0  0999 V2000
   57.4611   35.2587   44.4466 H   0  0  0  0  0  0  0  0  0  0  0  0
   58.2280   34.5890   44.8630 C   0  0  0  0  0  0  0  0  0  0  0  0
   59.2890   35.1560   45.4560 C   0  0  0  0  0  0  0  0  0  0  0  0
   59.6211   36.1390   45.0907 H   0  0  0  0  0  0  0  0  0  0  0  0
   60.0170   34.5580   46.5380 N   0  0  0  0  0  0  0  0  0  0  0  0
   61.3020   34.2320   46.5200 N   0  0  0  0  0  0  0  0  0  0  0  0
   61.6840   33.7920   47.7110 N   0  0  0  0  0  0  0  0  0  0  0  0
   60.6030   33.8630   48.5120 C   0  0  0  0  0  0  0  0  0  0  0  0
   60.5880   33.4680   49.9560 C   0  0  0  0  0  0  0  0  0  0  0  0
   60.2375   34.3172   50.5610 H   0  0  0  0  0  0  0  0  0  0  0  0
   61.6062   33.1839   50.2602 H   0  0  0  0  0  0  0  0  0  0  0  0
   59.6880   32.3200   50.1620 N   0  0  0  0  0  0  0  0  0  0  0  0
   58.6050   32.4320   51.1090 C   0  0  0  0  0  0  0  0  0  0  0  0
   58.3230   33.5510   51.6220 O   0  0  0  0  0  0  0  0  0  0  0  0
   57.8690   31.1850   51.5570 C   0  0  0  0  0  0  0  0  0  0  0  0
   57.8250   30.2250   50.4960 O   0  0  0  0  0  0  0  0  0  0  0  0
   58.8410   30.0880   49.5460 C   0  0  0  0  0  0  0  0  0  0  0  0
   58.8820   28.9320   48.7590 C   0  0  0  0  0  0  0  0  0  0  0  0
   58.1218   28.1488   48.8957 H   0  0  0  0  0  0  0  0  0  0  0  0
   59.8830   28.7690   47.8020 C   0  0  0  0  0  0  0  0  0  0  0  0
   59.9150   27.8567   47.1883 H   0  0  0  0  0  0  0  0  0  0  0  0
   60.8440   29.7650   47.6240 C   0  0  0  0  0  0  0  0  0  0  0  0
   61.6355   29.6342   46.8714 H   0  0  0  0  0  0  0  0  0  0  0  0
   60.8050   30.9280   48.3980 C   0  0  0  0  0  0  0  0  0  0  0  0
   61.5642   31.7095   48.2471 H   0  0  0  0  0  0  0  0  0  0  0  0
   59.7980   31.1080   49.3730 C   0  0  0  0  0  0  0  0  0  0  0  0
   56.4380   31.4510   52.0260 C   0  0  0  0  0  0  0  0  0  0  0  0
   56.3764   32.4175   52.5475 H   0  0  0  0  0  0  0  0  0  0  0  0
   55.7318   31.4993   51.1840 H   0  0  0  0  0  0  0  0  0  0  0  0
   56.1110   30.3090   52.9780 C   0  0  0  0  0  0  0  0  0  0  0  0
   55.4985   30.6757   53.8148 H   0  0  0  0  0  0  0  0  0  0  0  0
   55.5394   29.5188   52.4691 H   0  0  0  0  0  0  0  0  0  0  0  0
   57.4490   29.7770   53.4960 C   0  0  0  0  0  0  0  0  0  0  0  0
   57.5248   29.9360   54.5818 H   0  0  0  0  0  0  0  0  0  0  0  0
   57.5437   28.6974   53.3076 H   0  0  0  0  0  0  0  0  0  0  0  0
   58.5430   30.5560   52.7740 C   0  0  0  0  0  0  0  0  0  0  0  0
   58.9547   31.3367   53.4305 H   0  0  0  0  0  0  0  0  0  0  0  0
   59.3800   29.9044   52.4826 H   0  0  0  0  0  0  0  0  0  0  0  0
   59.5460   34.3560   47.7790 C   0  0  0  0  0  0  0  0  0  0  0  0
   58.5236   34.5457   48.1376 H   0  0  0  0  0  0  0  0  0  0  0  0
   58.0100   33.1340   44.7260 C   0  0  0  0  0  0  0  0  0  0  0  0
   57.8040   32.5420   43.4660 C   0  0  0  0  0  0  0  0  0  0  0  0
   57.7672   33.1708   42.5642 H   0  0  0  0  0  0  0  0  0  0  0  0
   57.6460   31.1570   43.3570 C   0  0  0  0  0  0  0  0  0  0  0  0
   57.4695   30.7002   42.3720 H   0  0  0  0  0  0  0  0  0  0  0  0
   57.7120   30.3520   44.4980 C   0  0  0  0  0  0  0  0  0  0  0  0
   57.5791   29.2635   44.4118 H   0  0  0  0  0  0  0  0  0  0  0  0
   57.9470   30.9310   45.7490 C   0  0  0  0  0  0  0  0  0  0  0  0
   58.0069   30.2963   46.6454 H   0  0  0  0  0  0  0  0  0  0  0  0
   58.1060   32.3160   45.8620 C   0  0  0  0  0  0  0  0  0  0  0  0
   58.3071   32.7658   46.8455 H   0  0  0  0  0  0  0  0  0  0  0  0
  1  2  1  0
  2  3  2  0
  3  4  1  0
  3  5  1  0
  5  6  1  0
  6  7  2  0
  7  8  1  0
  8  9  1  0
  9 10  1  0
  9 11  1  0
  9 12  1  0
 12 13  1  0
 13 14  2  0
 13 15  1  0
 15 16  1  0
 16 17  1  0
 17 18  2  0
 18 19  1  0
 18 20  1  0
 20 21  1  0
 20 22  2  0
 22 23  1  0
 22 24  1  0
 24 25  1  0
 24 26  2  0
 15 27  1  0
 27 28  1  0
 27 29  1  0
 27 30  1  0
 30 31  1  0
 30 32  1  0
 30 33  1  0
 33 34  1  0
 33 35  1  0
 33 36  1  0
 36 37  1  0
 36 38  1  0
  8 39  2  0
 39 40  1  0
  2 41  1  0
 41 42  2  0
 42 43  1  0
 42 44  1  0
 44 45  1  0
 44 46  2  0
 46 47  1  0
 46 48  1  0
 48 49  1  0
 48 50  2  0
 50 51  1  0
 39  5  1  0
 50 41  1  0
 26 12  1  0
 36 15  1  0
 26 17  1  0
M  END
>  <UniqueID>  (21) 
20

>  <SMILES>  (21) 
O=C1N(Cc2cn(/C=C\c3ccccc3)nn2)c2ccccc2OC12CCCC2

>  <Energy>  (21) 
104.30702873822526

>  <Genealogy>  (21) 
O=C1N(Cc2cn(/C=C\c3ccccc3)nn2)c2ccccc2OC12CCCC2 (cis-trans isomerization)
O=C1N(Cc2cn(/C=C\c3ccccc3)nn2)c2ccccc2OC12CCCC2 (3D coordinates assigned)
O=C1N(Cc2cn(/C=C\c3ccccc3)nn2)c2ccccc2OC12CCCC2 (nonaromatic ring conformer: 104.30702873822526 kcal/mol)

>  <smiles>  (21) 
O=C1N(Cc2cn(C=Cc3ccccc3)nn2)c2ccccc2OC12CCCC2

>  <score_type>  (21) 
oracle

>  <origin>  (21) 
adg

>  <m_score__min__energy>  (21) 
-9.3200000000000003

>  <m_primary>  (21) 
energy

$$$$
21:0
     RDKit          3D

 41 43  0  0  0  0  0  0  0  0999 V2000
   59.3310   33.3470   48.9960 C   0  0  0  0  0  0  0  0  0  0  0  0
   59.2820   33.7920   47.5690 C   0  0  0  0  0  0  0  0  0  0  0  0
   59.7240   35.0720   47.2100 C   0  0  0  0  0  0  0  0  0  0  0  0
   59.6670   35.4640   45.8720 C   0  0  0  0  0  0  0  0  0  0  0  0
   59.1760   34.5820   44.9080 C   0  0  0  0  0  0  0  0  0  0  0  0
   58.7480   33.3050   45.2980 C   0  0  0  0  0  0  0  0  0  0  0  0
   58.1850   32.3350   44.2920 C   0  0  0  0  0  0  0  0  0  0  0  0
   57.9540   30.9980   44.8890 N   0  0  0  0  0  0  0  0  0  0  0  0
   59.0330   30.0730   44.4870 C   0  0  0  0  0  0  0  0  0  0  0  0
   58.9350   28.7780   45.3000 C   0  0  0  0  0  0  0  0  0  0  0  0
   57.5450   28.3210   45.3940 N   0  0  0  0  0  0  0  0  0  0  0  0
   57.2170   27.2580   46.3080 C   0  0  0  0  0  0  0  0  0  0  0  0
   57.7440   27.2420   47.4540 O   0  0  0  0  0  0  0  0  0  0  0  0
   56.2900   26.1700   45.9470 C   0  0  0  0  0  0  0  0  0  0  0  0
   56.6260   24.8810   45.5770 C   0  0  0  0  0  0  0  0  0  0  0  0
   55.4300   24.2310   45.3630 C   0  0  0  0  0  0  0  0  0  0  0  0
   54.4390   25.1560   45.6200 C   0  0  0  0  0  0  0  0  0  0  0  0
   54.9830   26.3000   45.9690 O   0  0  0  0  0  0  0  0  0  0  0  0
   56.5220   28.9220   44.5290 C   0  0  0  0  0  0  0  0  0  0  0  0
   56.6130   30.4650   44.5220 C   0  0  0  0  0  0  0  0  0  0  0  0
   58.8080   32.9490   46.6120 N   0  0  0  0  0  0  0  0  0  0  0  0
   59.2347   34.2215   49.6563 H   0  0  0  0  0  0  0  0  0  0  0  0
   58.5044   32.6478   49.1906 H   0  0  0  0  0  0  0  0  0  0  0  0
   60.2899   32.8444   49.1906 H   0  0  0  0  0  0  0  0  0  0  0  0
   60.1119   35.7608   47.9749 H   0  0  0  0  0  0  0  0  0  0  0  0
   60.0087   36.4672   45.5772 H   0  0  0  0  0  0  0  0  0  0  0  0
   59.1253   34.8860   43.8520 H   0  0  0  0  0  0  0  0  0  0  0  0
   57.2288   32.7271   43.9152 H   0  0  0  0  0  0  0  0  0  0  0  0
   58.9149   32.2248   43.4764 H   0  0  0  0  0  0  0  0  0  0  0  0
   57.9950   31.1040   45.9330 H   0  0  0  0  0  0  0  0  0  0  0  0
   58.9349   29.8405   43.4163 H   0  0  0  0  0  0  0  0  0  0  0  0
   60.0074   30.5475   44.6750 H   0  0  0  0  0  0  0  0  0  0  0  0
   59.5375   27.9990   44.8099 H   0  0  0  0  0  0  0  0  0  0  0  0
   59.3096   28.9725   46.3158 H   0  0  0  0  0  0  0  0  0  0  0  0
   57.6377   24.4615   45.4747 H   0  0  0  0  0  0  0  0  0  0  0  0
   55.2929   23.1853   45.0503 H   0  0  0  0  0  0  0  0  0  0  0  0
   53.3584   24.9649   45.5443 H   0  0  0  0  0  0  0  0  0  0  0  0
   56.6612   28.5521   43.5024 H   0  0  0  0  0  0  0  0  0  0  0  0
   55.5335   28.6388   44.9197 H   0  0  0  0  0  0  0  0  0  0  0  0
   56.3650   30.8208   43.5111 H   0  0  0  0  0  0  0  0  0  0  0  0
   55.9087   30.8271   45.2854 H   0  0  0  0  0  0  0  0  0  0  0  0
  1  2  1  0
  2  3  2  0
  3  4  1  0
  4  5  2  0
  5  6  1  0
  6  7  1  0
  7  8  1  0
  8  9  1  0
  9 10  1  0
 10 11  1  0
 11 12  1  0
 12 13  2  0
 12 14  1  0
 14 15  2  0
 15 16  1  0
 16 17  2  0
 17 18  1  0
 11 19  1  0
 19 20  1  0
  6 21  2  0
 21  2  1  0
 20  8  1  0
 18 14  1  0
  1 22  1  0
  1 23  1  0
  1 24  1  0
  3 25  1  0
  4 26  1  0
  5 27  1  0
  7 28  1  0
  7 29  1  0
  8 30  1  0
  9 31  1  0
  9 32  1  0
 10 33  1  0
 10 34  1  0
 15 35  1  0
 16 36  1  0
 17 37  1  0
 19 38  1  0
 19 39  1  0
 20 40  1  0
 20 41  1  0
M  CHG  1   8   1
M  END
>  <UniqueID>  (22) 
21

>  <SMILES>  (22) 
Cc1cccc(C[NH+]2CCN(C(=O)c3ccco3)CC2)n1

>  <Energy>  (22) 
76.78130073592426

>  <Genealogy>  (22) 
Cc1cccc(C[NH+]2CCN(C(=O)c3ccco3)CC2)n1 (protonated)
Cc1cccc(C[NH+]2CCN(C(=O)c3ccco3)CC2)n1 (3D coordinates assigned)
Cc1cccc(C[NH+]2CCN(C(=O)c3ccco3)CC2)n1 (nonaromatic ring conformer: 76.78130073592426 kcal/mol)

>  <smiles>  (22) 
Cc1cccc(CN2CCN(C(=O)c3ccco3)CC2)n1

>  <score_type>  (22) 
oracle

>  <origin>  (22) 
adg

>  <m_score__min__energy>  (22) 
-5.5999999999999996

>  <m_primary>  (22) 
energy

$$$$
22:0
     RDKit          3D

 25 27  0  0  0  0  0  0  0  0999 V2000
   54.1660   26.7890   46.7170 H   0  0  0  0  0  0  0  0  0  0  0  0
   54.7910   26.3410   46.0100 N   0  0  0  0  0  0  0  0  0  0  0  0
   56.0420   26.1200   46.2570 C   0  0  0  0  0  0  0  0  0  0  0  0
   56.4360   24.9470   46.8370 N   0  0  0  0  0  0  0  0  0  0  0  0
   57.7500   24.6730   47.1070 C   0  0  0  0  0  0  0  0  0  0  0  0
   58.0231   23.7148   47.5731 H   0  0  0  0  0  0  0  0  0  0  0  0
   58.7530   25.6070   46.7930 C   0  0  0  0  0  0  0  0  0  0  0  0
   59.8126   25.3970   47.0006 H   0  0  0  0  0  0  0  0  0  0  0  0
   58.3550   26.8110   46.2080 C   0  0  0  0  0  0  0  0  0  0  0  0
   57.0240   27.0620   45.9400 C   0  0  0  0  0  0  0  0  0  0  0  0
   56.9780   28.3040   45.3360 C   0  0  0  0  0  0  0  0  0  0  0  0
   55.9180   29.0550   44.8290 C   0  0  0  0  0  0  0  0  0  0  0  0
   54.8825   28.6894   44.8926 H   0  0  0  0  0  0  0  0  0  0  0  0
   56.2140   30.2940   44.2340 C   0  0  0  0  0  0  0  0  0  0  0  0
   55.4004   30.9130   43.8280 H   0  0  0  0  0  0  0  0  0  0  0  0
   57.5470   30.7490   44.1540 C   0  0  0  0  0  0  0  0  0  0  0  0
   57.7640   31.7193   43.6835 H   0  0  0  0  0  0  0  0  0  0  0  0
   58.6010   29.9740   44.6700 C   0  0  0  0  0  0  0  0  0  0  0  0
   59.6427   30.3214   44.6055 H   0  0  0  0  0  0  0  0  0  0  0  0
   58.2870   28.7480   45.2680 C   0  0  0  0  0  0  0  0  0  0  0  0
   59.1390   27.8470   45.8170 N   0  0  0  0  0  0  0  0  0  0  0  0
   60.6000   27.9210   45.8620 C   0  0  0  0  0  0  0  0  0  0  0  0
   60.9342   27.9379   46.9099 H   0  0  0  0  0  0  0  0  0  0  0  0
   61.0274   27.0434   45.3550 H   0  0  0  0  0  0  0  0  0  0  0  0
   60.9365   28.8373   45.3550 H   0  0  0  0  0  0  0  0  0  0  0  0
  1  2  1  0
  2  3  2  0
  3  4  1  0
  4  5  1  0
  5  6  1  0
  5  7  2  0
  7  8  1  0
  7  9  1  0
  9 10  2  0
 10 11  1  0
 11 12  2  0
 12 13  1  0
 12 14  1  0
 14 15  1  0
 14 16  2  0
 16 17  1  0
 16 18  1  0
 18 19  1  0
 18 20  2  0
 20 21  1  0
 21 22  1  0
 22 23  1  0
 22 24  1  0
 22 25  1  0
 10  3  1  0
 20 11  1  0
 21  9  1  0
M  CHG  1   4  -1
M  END
>  <UniqueID>  (23) 
22

>  <SMILES>  (23) 
[H]/N=c1\[n-]ccc2c1c1ccccc1n2C

>  <Energy>  (23) 
71.67052931148329

>  <Genealogy>  (23) 
Cn1c2ccccc2c2c(=N)[n-]ccc21 (protonated)
[H]/N=c1\[n-]ccc2c1c1ccccc1n2C (cis-trans isomerization)
[H]/N=c1\[n-]ccc2c1c1ccccc1n2C (3D coordinates assigned)
[H]/N=c1\[n-]ccc2c1c1ccccc1n2C (optimized conformer: 71.67052931148329 kcal/mol)

>  <smiles>  (23) 
Cn1c2ccccc2c2c(=N)[nH]ccc21

>  <score_type>  (23) 
oracle

>  <origin>  (23) 
adg

>  <m_score__min__energy>  (23) 
-8.5099999999999998

>  <m_primary>  (23) 
energy

$$$$
23:0
     RDKit          3D

 55 57  0  0  0  0  0  0  0  0999 V2000
   57.2870   31.9890   41.1790 C   0  0  0  0  0  0  0  0  0  0  0  0
   57.4180   31.7100   42.6470 C   0  0  0  0  0  0  0  0  0  0  0  0
   57.7670   32.7360   43.5370 C   0  0  0  0  0  0  0  0  0  0  0  0
   57.9060   32.4770   44.9120 C   0  0  0  0  0  0  0  0  0  0  0  0
   58.2420   33.5470   45.8150 N   0  0  0  0  0  0  0  0  0  0  0  0
   57.8960   33.4730   47.2360 C   0  0  0  0  0  0  0  0  0  0  0  0
   59.1620   33.5740   48.1120 C   0  0  0  0  0  0  0  0  0  0  0  0
   60.3050   34.2740   47.4540 N   0  0  0  0  0  0  0  0  0  0  0  0
   61.2500   33.2960   46.8480 C   0  0  0  0  0  0  0  0  0  0  0  0
   62.7220   33.4990   47.2680 C   0  0  0  0  0  0  0  0  0  0  0  0
   62.8340   34.0820   48.6150 N   0  0  0  0  0  0  0  0  0  0  0  0
   63.3470   33.1290   49.6130 C   0  0  0  0  0  0  0  0  0  0  0  0
   62.2600   32.6740   50.6010 C   0  0  0  0  0  0  0  0  0  0  0  0
   61.1740   33.6510   50.6530 N   0  0  0  0  0  0  0  0  0  0  0  0
   60.0030   33.4670   51.4570 C   0  0  0  0  0  0  0  0  0  0  0  0
   59.8210   32.4380   52.2100 N   0  0  0  0  0  0  0  0  0  0  0  0
   58.5320   32.5480   52.8810 C   0  0  0  0  0  0  0  0  0  0  0  0
   57.9320   33.8740   52.3820 C   0  0  0  0  0  0  0  0  0  0  0  0
   58.9420   34.3970   51.4820 N   0  0  0  0  0  0  0  0  0  0  0  0
   59.8290   35.3090   46.5010 C   0  0  0  0  0  0  0  0  0  0  0  0
   59.0200   34.6990   45.3440 C   0  0  0  0  0  0  0  0  0  0  0  0
   57.6950   31.1720   45.3900 C   0  0  0  0  0  0  0  0  0  0  0  0
   57.8460   30.8820   46.7080 F   0  0  0  0  0  0  0  0  0  0  0  0
   57.3610   30.1450   44.5020 C   0  0  0  0  0  0  0  0  0  0  0  0
   57.2250   30.4080   43.1370 C   0  0  0  0  0  0  0  0  0  0  0  0
   56.9050   29.3940   42.2930 F   0  0  0  0  0  0  0  0  0  0  0  0
   56.8236   32.9759   41.0333 H   0  0  0  0  0  0  0  0  0  0  0  0
   58.2837   31.9796   40.7136 H   0  0  0  0  0  0  0  0  0  0  0  0
   56.6577   31.2161   40.7136 H   0  0  0  0  0  0  0  0  0  0  0  0
   57.9338   33.7541   43.1554 H   0  0  0  0  0  0  0  0  0  0  0  0
   57.2171   34.3016   47.4859 H   0  0  0  0  0  0  0  0  0  0  0  0
   57.4074   32.5069   47.4310 H   0  0  0  0  0  0  0  0  0  0  0  0
   58.9038   34.1220   49.0302 H   0  0  0  0  0  0  0  0  0  0  0  0
   59.4931   32.5440   48.3106 H   0  0  0  0  0  0  0  0  0  0  0  0
   60.8230   34.7750   48.2140 H   0  0  0  0  0  0  0  0  0  0  0  0
   60.9409   32.2844   47.1498 H   0  0  0  0  0  0  0  0  0  0  0  0
   61.2070   33.4460   45.7591 H   0  0  0  0  0  0  0  0  0  0  0  0
   63.2319   32.5243   47.2590 H   0  0  0  0  0  0  0  0  0  0  0  0
   63.1863   34.1965   46.5554 H   0  0  0  0  0  0  0  0  0  0  0  0
   63.4590   34.9210   48.5740 H   0  0  0  0  0  0  0  0  0  0  0  0
   63.7401   32.2455   49.0886 H   0  0  0  0  0  0  0  0  0  0  0  0
   64.1333   33.6378   50.1899 H   0  0  0  0  0  0  0  0  0  0  0  0
   61.8582   31.7032   50.2753 H   0  0  0  0  0  0  0  0  0  0  0  0
   62.7052   32.5834   51.6028 H   0  0  0  0  0  0  0  0  0  0  0  0
   61.2760   34.5430   50.1170 H   0  0  0  0  0  0  0  0  0  0  0  0
   57.8818   31.7034   52.6091 H   0  0  0  0  0  0  0  0  0  0  0  0
   58.6345   32.5283   53.9760 H   0  0  0  0  0  0  0  0  0  0  0  0
   56.9856   33.6994   51.8492 H   0  0  0  0  0  0  0  0  0  0  0  0
   57.6945   34.5675   53.2022 H   0  0  0  0  0  0  0  0  0  0  0  0
   58.8890   35.2900   50.9440 H   0  0  0  0  0  0  0  0  0  0  0  0
   59.1913   36.0235   47.0421 H   0  0  0  0  0  0  0  0  0  0  0  0
   60.7110   35.8076   46.0728 H   0  0  0  0  0  0  0  0  0  0  0  0
   58.3344   35.4590   44.9410 H   0  0  0  0  0  0  0  0  0  0  0  0
   59.7154   34.3635   44.5605 H   0  0  0  0  0  0  0  0  0  0  0  0
   57.2044   29.1241   44.8805 H   0  0  0  0  0  0  0  0  0  0  0  0
  1  2  1  0
  2  3  2  0
  3  4  1  0
  4  5  1  0
  5  6  1  0
  6  7  1  0
  7  8  1  0
  8  9  1  0
  9 10  1  0
 10 11  1  0
 11 12  1  0
 12 13  1  0
 13 14  1  0
 14 15  1  0
 15 16  2  0
 16 17  1  0
 17 18  1  0
 18 19  1  0
  8 20  1  0
 20 21  1  0
  4 22  2  0
 22 23  1  0
 22 24  1  0
 24 25  2  0
 25 26  1  0
 25  2  1  0
 21  5  1  0
 19 15  1  0
  1 27  1  0
  1 28  1  0
  1 29  1  0
  3 30  1  0
  6 31  1  0
  6 32  1  0
  7 33  1  0
  7 34  1  0
  8 35  1  0
  9 36  1  0
  9 37  1  0
 10 38  1  0
 10 39  1  0
 11 40  1  0
 12 41  1  0
 12 42  1  0
 13 43  1  0
 13 44  1  0
 14 45  1  0
 17 46  1  0
 17 47  1  0
 18 48  1  0
 18 49  1  0
 19 50  1  0
 20 51  1  0
 20 52  1  0
 21 53  1  0
 21 54  1  0
 24 55  1  0
M  CHG  1   8   1
M  END
>  <UniqueID>  (24) 
23

>  <SMILES>  (24) 
Cc1cc(N2CC[NH+](CCNCCNC3=NCCN3)CC2)c(F)cc1F

>  <Energy>  (24) 
77.15601157143495

>  <Genealogy>  (24) 
Cc1cc(N2CC[NH+](CCNCCNC3=NCCN3)CC2)c(F)cc1F (protonated)
Cc1cc(N2CC[NH+](CCNCCNC3=NCCN3)CC2)c(F)cc1F (3D coordinates assigned)
Cc1cc(N2CC[NH+](CCNCCNC3=NCCN3)CC2)c(F)cc1F (nonaromatic ring conformer: 77.15601157143495 kcal/mol)

>  <smiles>  (24) 
Cc1cc(N2CCN(CCNCCNC3=NCCN3)CC2)c(F)cc1F

>  <score_type>  (24) 
oracle

>  <origin>  (24) 
adg

>  <m_score__min__energy>  (24) 
-5.9800000000000004

>  <m_primary>  (24) 
energy

$$$$
24:0
     RDKit          3D

 62 65  0  0  0  0  0  0  0  0999 V2000
   57.1492   35.0821   45.3187 H   0  0  0  0  0  0  0  0  0  0  0  0
   57.5920   34.0920   45.5020 C   0  0  0  0  0  0  0  0  0  0  0  0
   56.9750   32.9790   45.0330 N   0  0  0  0  0  0  0  0  0  0  0  0
   57.5040   31.7430   45.2300 C   0  0  0  0  0  0  0  0  0  0  0  0
   56.8960   30.6710   44.8100 N   0  0  0  0  0  0  0  0  0  0  0  0
   57.3470   29.3140   44.9530 C   0  0  0  0  0  0  0  0  0  0  0  0
   57.3900   28.6710   46.2030 C   0  0  0  0  0  0  0  0  0  0  0  0
   57.0939   29.2179   47.1103 H   0  0  0  0  0  0  0  0  0  0  0  0
   57.8070   27.3410   46.2980 C   0  0  0  0  0  0  0  0  0  0  0  0
   57.8382   26.8479   47.2808 H   0  0  0  0  0  0  0  0  0  0  0  0
   58.1870   26.6280   45.1480 C   0  0  0  0  0  0  0  0  0  0  0  0
   58.6550   25.1900   45.2580 C   0  0  0  0  0  0  0  0  0  0  0  0
   59.3212   24.9766   44.4091 H   0  0  0  0  0  0  0  0  0  0  0  0
   59.1636   25.0929   46.2285 H   0  0  0  0  0  0  0  0  0  0  0  0
   57.5550   24.1990   45.2480 N   0  0  0  0  0  0  0  0  0  0  0  0
   58.0220   22.7950   45.2640 C   0  0  0  0  0  0  0  0  0  0  0  0
   58.8120   22.6693   44.5090 H   0  0  0  0  0  0  0  0  0  0  0  0
   58.4102   22.5643   46.2670 H   0  0  0  0  0  0  0  0  0  0  0  0
   56.8680   21.8320   44.9500 C   0  0  0  0  0  0  0  0  0  0  0  0
   57.2498   20.8008   44.9783 H   0  0  0  0  0  0  0  0  0  0  0  0
   56.0827   21.9895   45.7039 H   0  0  0  0  0  0  0  0  0  0  0  0
   56.2730   22.0850   43.6130 N   0  0  0  0  0  0  0  0  0  0  0  0
   56.7500   21.1090   42.6210 C   0  0  0  0  0  0  0  0  0  0  0  0
   57.1760   20.2374   43.1396 H   0  0  0  0  0  0  0  0  0  0  0  0
   55.9084   20.7855   41.9908 H   0  0  0  0  0  0  0  0  0  0  0  0
   57.5223   21.5743   41.9908 H   0  0  0  0  0  0  0  0  0  0  0  0
   56.4800   23.4650   43.1150 C   0  0  0  0  0  0  0  0  0  0  0  0
   57.4466   23.5162   42.5925 H   0  0  0  0  0  0  0  0  0  0  0  0
   55.6548   23.7152   42.4320 H   0  0  0  0  0  0  0  0  0  0  0  0
   56.4800   24.4790   44.2670 C   0  0  0  0  0  0  0  0  0  0  0  0
   56.6293   25.4873   43.8535 H   0  0  0  0  0  0  0  0  0  0  0  0
   55.5142   24.4038   44.7881 H   0  0  0  0  0  0  0  0  0  0  0  0
   58.0850   27.2560   43.8950 C   0  0  0  0  0  0  0  0  0  0  0  0
   58.3380   26.6977   42.9816 H   0  0  0  0  0  0  0  0  0  0  0  0
   57.6640   28.5860   43.8020 C   0  0  0  0  0  0  0  0  0  0  0  0
   57.5814   29.0639   42.8147 H   0  0  0  0  0  0  0  0  0  0  0  0
   58.6710   31.6160   45.9120 N   0  0  0  0  0  0  0  0  0  0  0  0
   59.3420   32.6970   46.3940 C   0  0  0  0  0  0  0  0  0  0  0  0
   60.6190   32.4650   47.1040 C   0  0  0  0  0  0  0  0  0  0  0  0
   61.7790   33.1680   46.7460 C   0  0  0  0  0  0  0  0  0  0  0  0
   61.7410   33.9148   45.9393 H   0  0  0  0  0  0  0  0  0  0  0  0
   62.9810   32.9220   47.4110 C   0  0  0  0  0  0  0  0  0  0  0  0
   63.8848   33.4847   47.1343 H   0  0  0  0  0  0  0  0  0  0  0  0
   63.0420   31.9640   48.4270 C   0  0  0  0  0  0  0  0  0  0  0  0
   63.9910   31.7840   48.9534 H   0  0  0  0  0  0  0  0  0  0  0  0
   61.8940   31.2280   48.7800 C   0  0  0  0  0  0  0  0  0  0  0  0
   61.9170   30.2290   49.8200 N   0  0  0  0  0  0  0  0  0  0  0  0
   62.8100   30.0790   50.3430 H   0  0  0  0  0  0  0  0  0  0  0  0
   60.7790   29.3900   50.1960 C   0  0  0  0  0  0  0  0  0  0  0  0
   59.8937   30.0267   50.3406 H   0  0  0  0  0  0  0  0  0  0  0  0
   61.0248   28.8590   51.1275 H   0  0  0  0  0  0  0  0  0  0  0  0
   60.4830   28.3610   49.1100 C   0  0  0  0  0  0  0  0  0  0  0  0
   60.2077   27.4039   49.5770 H   0  0  0  0  0  0  0  0  0  0  0  0
   59.6508   28.7168   48.4848 H   0  0  0  0  0  0  0  0  0  0  0  0
   61.3771   28.2202   48.4848 H   0  0  0  0  0  0  0  0  0  0  0  0
   60.6880   31.4870   48.1100 C   0  0  0  0  0  0  0  0  0  0  0  0
   59.7856   30.9170   48.3761 H   0  0  0  0  0  0  0  0  0  0  0  0
   58.7910   33.9860   46.2190 C   0  0  0  0  0  0  0  0  0  0  0  0
   59.4360   35.2320   46.7650 C   0  0  0  0  0  0  0  0  0  0  0  0
   59.4202   35.2014   47.8645 H   0  0  0  0  0  0  0  0  0  0  0  0
   60.4772   35.2896   46.4147 H   0  0  0  0  0  0  0  0  0  0  0  0
   58.8819   36.1154   46.4147 H   0  0  0  0  0  0  0  0  0  0  0  0
  1  2  1  0
  2  3  1  0
  3  4  1  0
  4  5  2  0
  5  6  1  0
  6  7  2  0
  7  8  1  0
  7  9  1  0
  9 10  1  0
  9 11  2  0
 11 12  1  0
 12 13  1  0
 12 14  1  0
 12 15  1  0
 15 16  1  0
 16 17  1  0
 16 18  1  0
 16 19  1  0
 19 20  1  0
 19 21  1  0
 19 22  1  0
 22 23  1  0
 23 24  1  0
 23 25  1  0
 23 26  1  0
 22 27  1  0
 27 28  1  0
 27 29  1  0
 27 30  1  0
 30 31  1  0
 30 32  1  0
 11 33  1  0
 33 34  1  0
 33 35  2  0
 35 36  1  0
  4 37  1  0
 37 38  2  0
 38 39  1  0
 39 40  2  0
 40 41  1  0
 40 42  1  0
 42 43  1  0
 42 44  2  0
 44 45  1  0
 44 46  1  0
 46 47  1  0
 47 48  1  0
 47 49  1  0
 49 50  1  0
 49 51  1  0
 49 52  1  0
 52 53  1  0
 52 54  1  0
 52 55  1  0
 46 56  2  0
 56 57  1  0
 38 58  1  0
 58 59  1  0
 59 60  1  0
 59 61  1  0
 59 62  1  0
 58  2  2  0
 35  6  1  0
 56 39  1  0
 30 15  1  0
M  CHG  1   3  -1
M  END
>  <UniqueID>  (25) 
24

>  <SMILES>  (25) 
CCNc1cccc(-c2n/c(=N/c3ccc(CN4CCN(C)CC4)cc3)[n-]cc2C)c1

>  <Energy>  (25) 
89.98934870835525

>  <Genealogy>  (25) 
CCNc1cccc(-c2nc(=Nc3ccc(CN4CCN(C)CC4)cc3)[n-]cc2C)c1 (protonated)
CCNc1cccc(-c2n/c(=N/c3ccc(CN4CCN(C)CC4)cc3)[n-]cc2C)c1 (cis-trans isomerization)
CCNc1cccc(-c2n/c(=N/c3ccc(CN4CCN(C)CC4)cc3)[n-]cc2C)c1 (3D coordinates assigned)
CCNc1cccc(-c2n/c(=N/c3ccc(CN4CCN(C)CC4)cc3)[n-]cc2C)c1 (nonaromatic ring conformer: 89.98934870835525 kcal/mol)

>  <smiles>  (25) 
CCNc1cccc(-c2nc(=Nc3ccc(CN4CCN(C)CC4)cc3)[nH]cc2C)c1

>  <score_type>  (25) 
oracle

>  <origin>  (25) 
adg

>  <m_score__min__energy>  (25) 
-10.359999999999999

>  <m_primary>  (25) 
energy

$$$$
25:0
     RDKit          3D

 43 46  0  0  0  0  0  0  0  0999 V2000
   56.5646   31.6069   41.3060 H   0  0  0  0  0  0  0  0  0  0  0  0
   57.0030   31.2330   42.2430 C   0  0  0  0  0  0  0  0  0  0  0  0
   56.6450   29.7660   42.9820 S   0  0  0  0  0  0  0  0  0  0  0  0
   57.7010   29.9430   44.2800 C   0  0  0  0  0  0  0  0  0  0  0  0
   57.8460   28.9790   45.3890 C   0  0  0  0  0  0  0  0  0  0  0  0
   58.5700   29.2150   46.5710 C   0  0  0  0  0  0  0  0  0  0  0  0
   59.4690   30.3460   46.8780 C   0  0  0  0  0  0  0  0  0  0  0  0
   58.9480   31.6170   47.1670 C   0  0  0  0  0  0  0  0  0  0  0  0
   57.8590   31.7719   47.1787 H   0  0  0  0  0  0  0  0  0  0  0  0
   59.8050   32.6870   47.4400 C   0  0  0  0  0  0  0  0  0  0  0  0
   59.3870   33.6759   47.6794 H   0  0  0  0  0  0  0  0  0  0  0  0
   61.2000   32.5050   47.4100 C   0  0  0  0  0  0  0  0  0  0  0  0
   62.1020   33.5460   47.6770 O   0  0  0  0  0  0  0  0  0  0  0  0
   63.4960   33.4960   47.3870 C   0  0  0  0  0  0  0  0  0  0  0  0
   64.0657   33.4756   48.3277 H   0  0  0  0  0  0  0  0  0  0  0  0
   63.7171   32.5893   46.8047 H   0  0  0  0  0  0  0  0  0  0  0  0
   63.7815   34.3845   46.8047 H   0  0  0  0  0  0  0  0  0  0  0  0
   61.7170   31.2420   47.1000 C   0  0  0  0  0  0  0  0  0  0  0  0
   62.8061   31.0907   47.0691 H   0  0  0  0  0  0  0  0  0  0  0  0
   60.8590   30.1700   46.8290 C   0  0  0  0  0  0  0  0  0  0  0  0
   61.2773   29.1845   46.5763 H   0  0  0  0  0  0  0  0  0  0  0  0
   58.3560   27.8890   47.5920 S   0  0  0  0  0  0  0  0  0  0  0  0
   57.3880   27.0600   46.4900 C   0  0  0  0  0  0  0  0  0  0  0  0
   56.8230   25.9030   46.6820 N   0  0  0  0  0  0  0  0  0  0  0  0
   55.9320   25.2470   45.7690 C   0  0  0  0  0  0  0  0  0  0  0  0
   54.7670   25.7050   45.6310 O   0  0  0  0  0  0  0  0  0  0  0  0
   56.3650   24.0970   44.9390 C   0  0  0  0  0  0  0  0  0  0  0  0
   55.6410   23.7230   43.7910 C   0  0  0  0  0  0  0  0  0  0  0  0
   54.7460   24.2924   43.4998 H   0  0  0  0  0  0  0  0  0  0  0  0
   56.0520   22.6330   43.0190 C   0  0  0  0  0  0  0  0  0  0  0  0
   55.4856   22.3533   42.1185 H   0  0  0  0  0  0  0  0  0  0  0  0
   57.1810   21.8980   43.3890 C   0  0  0  0  0  0  0  0  0  0  0  0
   57.5780   20.8410   42.6380 F   0  0  0  0  0  0  0  0  0  0  0  0
   57.8980   22.2500   44.5350 C   0  0  0  0  0  0  0  0  0  0  0  0
   58.7844   21.6681   44.8277 H   0  0  0  0  0  0  0  0  0  0  0  0
   57.4920   23.3400   45.3110 C   0  0  0  0  0  0  0  0  0  0  0  0
   58.0561   23.6073   46.2167 H   0  0  0  0  0  0  0  0  0  0  0  0
   57.2050   27.7770   45.3620 N   0  0  0  0  0  0  0  0  0  0  0  0
   56.6070   27.4520   44.5680 H   0  0  0  0  0  0  0  0  0  0  0  0
   58.3320   31.1780   44.1610 C   0  0  0  0  0  0  0  0  0  0  0  0
   59.0614   31.5566   44.8922 H   0  0  0  0  0  0  0  0  0  0  0  0
   57.9470   31.8910   43.0190 C   0  0  0  0  0  0  0  0  0  0  0  0
   58.3544   32.8797   42.7612 H   0  0  0  0  0  0  0  0  0  0  0  0
  1  2  1  0
  2  3  1  0
  3  4  1  0
  4  5  1  0
  5  6  2  0
  6  7  1  0
  7  8  2  0
  8  9  1  0
  8 10  1  0
 10 11  1  0
 10 12  2  0
 12 13  1  0
 13 14  1  0
 14 15  1  0
 14 16  1  0
 14 17  1  0
 12 18  1  0
 18 19  1  0
 18 20  2  0
 20 21  1  0
  6 22  1  0
 22 23  1  0
 23 24  2  0
 24 25  1  0
 25 26  2  0
 25 27  1  0
 27 28  2  0
 28 29  1  0
 28 30  1  0
 30 31  1  0
 30 32  2  0
 32 33  1  0
 32 34  1  0
 34 35  1  0
 34 36  2  0
 36 37  1  0
 23 38  1  0
 38 39  1  0
  4 40  2  0
 40 41  1  0
 40 42  1  0
 42 43  1  0
 42  2  2  0
 38  5  1  0
 20  7  1  0
 36 27  1  0
M  END
>  <UniqueID>  (26) 
25

>  <SMILES>  (26) 
COc1ccc(-c2s/c(=N\C(=O)c3ccc(F)cc3)[nH]c2-c2cccs2)cc1

>  <Energy>  (26) 
118.7311350745189

>  <Genealogy>  (26) 
COc1ccc(-c2s/c(=N\C(=O)c3ccc(F)cc3)[nH]c2-c2cccs2)cc1 (cis-trans isomerization)
COc1ccc(-c2s/c(=N\C(=O)c3ccc(F)cc3)[nH]c2-c2cccs2)cc1 (3D coordinates assigned)
COc1ccc(-c2s/c(=N\C(=O)c3ccc(F)cc3)[nH]c2-c2cccs2)cc1 (optimized conformer: 118.7311350745189 kcal/mol)

>  <smiles>  (26) 
COc1ccc(-c2sc(=NC(=O)c3ccc(F)cc3)[nH]c2-c2cccs2)cc1

>  <score_type>  (26) 
oracle

>  <origin>  (26) 
adg

>  <m_score__min__energy>  (26) 
-8.5999999999999996

>  <m_primary>  (26) 
energy

$$$$
26:0
     RDKit          3D

 57 57  0  0  0  0  0  0  0  0999 V2000
   60.2020   30.1220   47.2860 C   0  0  0  0  0  0  0  0  0  0  0  0
   60.8480   30.4510   48.6300 C   0  0  0  0  0  0  0  0  0  0  0  0
   62.1550   31.2390   48.4410 C   0  0  0  0  0  0  0  0  0  0  0  0
   62.5110   32.0150   49.6530 N   0  0  0  0  0  0  0  0  0  0  0  0
   63.8990   31.7120   50.0720 C   0  0  0  0  0  0  0  0  0  0  0  0
   64.8800   32.7000   49.4240 C   0  0  0  0  0  0  0  0  0  0  0  0
   66.2420   32.6610   50.1110 C   0  0  0  0  0  0  0  0  0  0  0  0
   62.3200   33.4770   49.4540 C   0  0  0  0  0  0  0  0  0  0  0  0
   61.3310   33.7470   48.3340 C   0  0  0  0  0  0  0  0  0  0  0  0
   59.9740   33.9260   48.6560 C   0  0  0  0  0  0  0  0  0  0  0  0
   59.0320   34.1900   47.6640 C   0  0  0  0  0  0  0  0  0  0  0  0
   59.4180   34.2990   46.3230 C   0  0  0  0  0  0  0  0  0  0  0  0
   58.4130   34.5700   45.3250 N   0  0  0  0  0  0  0  0  0  0  0  0
   57.2670   33.7060   45.0350 C   0  0  0  0  0  0  0  0  0  0  0  0
   57.7150   32.4580   44.2580 C   0  0  0  0  0  0  0  0  0  0  0  0
   57.7640   31.1880   45.1470 C   0  0  0  0  0  0  0  0  0  0  0  0
   56.6990   30.1930   44.8810 N   0  0  0  0  0  0  0  0  0  0  0  0
   56.2330   30.1980   43.4880 C   0  0  0  0  0  0  0  0  0  0  0  0
   57.0470   28.8350   45.3310 C   0  0  0  0  0  0  0  0  0  0  0  0
   60.7800   34.1690   45.9950 C   0  0  0  0  0  0  0  0  0  0  0  0
   61.7420   33.9080   46.9860 C   0  0  0  0  0  0  0  0  0  0  0  0
   63.1900   33.7970   46.5810 C   0  0  0  0  0  0  0  0  0  0  0  0
   59.2335   29.6288   47.4556 H   0  0  0  0  0  0  0  0  0  0  0  0
   60.0460   31.0504   46.7171 H   0  0  0  0  0  0  0  0  0  0  0  0
   60.8612   29.4498   46.7171 H   0  0  0  0  0  0  0  0  0  0  0  0
   60.1481   31.0548   49.2263 H   0  0  0  0  0  0  0  0  0  0  0  0
   61.0817   29.5072   49.1444 H   0  0  0  0  0  0  0  0  0  0  0  0
   62.9680   30.5320   48.2195 H   0  0  0  0  0  0  0  0  0  0  0  0
   62.0099   31.9475   47.6121 H   0  0  0  0  0  0  0  0  0  0  0  0
   63.9732   31.7924   51.1665 H   0  0  0  0  0  0  0  0  0  0  0  0
   64.1547   30.6916   49.7505 H   0  0  0  0  0  0  0  0  0  0  0  0
   65.0060   32.4362   48.3636 H   0  0  0  0  0  0  0  0  0  0  0  0
   64.4686   33.7150   49.5266 H   0  0  0  0  0  0  0  0  0  0  0  0
   66.1025   32.6650   51.2021 H   0  0  0  0  0  0  0  0  0  0  0  0
   66.7769   31.7472   49.8131 H   0  0  0  0  0  0  0  0  0  0  0  0
   66.8283   33.5427   49.8131 H   0  0  0  0  0  0  0  0  0  0  0  0
   61.9388   33.9205   50.3857 H   0  0  0  0  0  0  0  0  0  0  0  0
   63.2879   33.9241   49.1834 H   0  0  0  0  0  0  0  0  0  0  0  0
   59.6518   33.8566   49.7054 H   0  0  0  0  0  0  0  0  0  0  0  0
   57.9738   34.3141   47.9375 H   0  0  0  0  0  0  0  0  0  0  0  0
   58.4880   35.4550   44.7740 H   0  0  0  0  0  0  0  0  0  0  0  0
   56.8000   33.3948   45.9811 H   0  0  0  0  0  0  0  0  0  0  0  0
   56.5460   34.2663   44.4217 H   0  0  0  0  0  0  0  0  0  0  0  0
   57.0082   32.2838   43.4333 H   0  0  0  0  0  0  0  0  0  0  0  0
   58.7335   32.6444   43.8866 H   0  0  0  0  0  0  0  0  0  0  0  0
   58.7358   30.6978   44.9877 H   0  0  0  0  0  0  0  0  0  0  0  0
   57.6108   31.5316   46.1807 H   0  0  0  0  0  0  0  0  0  0  0  0
   55.1332   30.2098   43.4693 H   0  0  0  0  0  0  0  0  0  0  0  0
   56.6180   31.0921   42.9758 H   0  0  0  0  0  0  0  0  0  0  0  0
   56.5988   29.2959   42.9758 H   0  0  0  0  0  0  0  0  0  0  0  0
   57.0550   28.8039   46.4305 H   0  0  0  0  0  0  0  0  0  0  0  0
   56.3030   28.1203   44.9493 H   0  0  0  0  0  0  0  0  0  0  0  0
   58.0430   28.5662   44.9493 H   0  0  0  0  0  0  0  0  0  0  0  0
   61.0969   34.2732   44.9468 H   0  0  0  0  0  0  0  0  0  0  0  0
   63.8199   33.7487   47.4815 H   0  0  0  0  0  0  0  0  0  0  0  0
   63.3346   32.8851   45.9830 H   0  0  0  0  0  0  0  0  0  0  0  0
   63.4719   34.6762   45.9830 H   0  0  0  0  0  0  0  0  0  0  0  0
  1  2  1  0
  2  3  1  0
  3  4  1  0
  4  5  1  0
  5  6  1  0
  6  7  1  0
  4  8  1  0
  8  9  1  0
  9 10  2  0
 10 11  1  0
 11 12  2  0
 12 13  1  0
 13 14  1  0
 14 15  1  0
 15 16  1  0
 16 17  1  0
 17 18  1  0
 17 19  1  0
 12 20  1  0
 20 21  2  0
 21 22  1  0
 21  9  1  0
  1 23  1  0
  1 24  1  0
  1 25  1  0
  2 26  1  0
  2 27  1  0
  3 28  1  0
  3 29  1  0
  5 30  1  0
  5 31  1  0
  6 32  1  0
  6 33  1  0
  7 34  1  0
  7 35  1  0
  7 36  1  0
  8 37  1  0
  8 38  1  0
 10 39  1  0
 11 40  1  0
 13 41  1  0
 14 42  1  0
 14 43  1  0
 15 44  1  0
 15 45  1  0
 16 46  1  0
 16 47  1  0
 18 48  1  0
 18 49  1  0
 18 50  1  0
 19 51  1  0
 19 52  1  0
 19 53  1  0
 20 54  1  0
 22 55  1  0
 22 56  1  0
 22 57  1  0
M  END
>  <UniqueID>  (27) 
26

>  <SMILES>  (27) 
CCCN(CCC)Cc1ccc(NCCCN(C)C)cc1C

>  <Energy>  (27) 
51.65328763796914

>  <Genealogy>  (27) 
CCCN(CCC)Cc1ccc(NCCCN(C)C)cc1C (3D coordinates assigned)
CCCN(CCC)Cc1ccc(NCCCN(C)C)cc1C (optimized conformer: 51.65328763796914 kcal/mol)

>  <smiles>  (27) 
CCCN(CCC)Cc1ccc(NCCCN(C)C)cc1C

>  <score_type>  (27) 
oracle

>  <origin>  (27) 
adg

>  <m_score__min__energy>  (27) 
-6.5300000000000002

>  <m_primary>  (27) 
energy

$$$$
27:0
     RDKit          3D

 55 55  0  0  0  0  0  0  0  0999 V2000
   56.9470   29.1070   43.2170 C   0  0  0  0  0  0  0  0  0  0  0  0
   56.5840   28.7820   44.6320 C   0  0  0  0  0  0  0  0  0  0  0  0
   55.6640   29.4430   45.1840 O   0  0  0  0  0  0  0  0  0  0  0  0
   57.2860   27.7220   45.3990 C   0  0  0  0  0  0  0  0  0  0  0  0
   56.5330   26.7280   46.0630 C   0  0  0  0  0  0  0  0  0  0  0  0
   55.1440   26.7130   45.9850 O   0  0  0  0  0  0  0  0  0  0  0  0
   57.1740   25.7330   46.8000 C   0  0  0  0  0  0  0  0  0  0  0  0
   58.5630   25.7070   46.8810 C   0  0  0  0  0  0  0  0  0  0  0  0
   59.3240   26.6820   46.2350 C   0  0  0  0  0  0  0  0  0  0  0  0
   58.6970   27.7080   45.5000 C   0  0  0  0  0  0  0  0  0  0  0  0
   59.4400   28.7310   44.8780 O   0  0  0  0  0  0  0  0  0  0  0  0
   60.7720   29.1170   45.2120 C   0  0  0  0  0  0  0  0  0  0  0  0
   60.7930   29.8480   46.5650 C   0  0  0  0  0  0  0  0  0  0  0  0
   59.4830   30.5970   46.8710 C   0  0  0  0  0  0  0  0  0  0  0  0
   59.1040   30.6390   48.3700 C   0  0  0  0  0  0  0  0  0  0  0  0
   58.7880   32.0520   48.9030 C   0  0  0  0  0  0  0  0  0  0  0  0
   60.0130   32.7190   49.5660 C   0  0  0  0  0  0  0  0  0  0  0  0
   60.3480   34.0890   48.9520 C   0  0  0  0  0  0  0  0  0  0  0  0
   60.7820   33.9840   47.4810 C   0  0  0  0  0  0  0  0  0  0  0  0
   60.0000   34.9480   46.5800 C   0  0  0  0  0  0  0  0  0  0  0  0
   58.5580   34.7630   46.7160 N   0  0  0  0  0  0  0  0  0  0  0  0
   57.7170   33.9110   45.9240 C   0  0  0  0  0  0  0  0  0  0  0  0
   56.7000   33.4010   46.4640 O   0  0  0  0  0  0  0  0  0  0  0  0
   58.0220   33.5650   44.4880 C   0  0  0  0  0  0  0  0  0  0  0  0
   57.8370   32.0690   44.2210 C   0  0  0  0  0  0  0  0  0  0  0  0
   56.5460   31.6570   44.5860 O   0  0  0  0  0  0  0  0  0  0  0  0
   57.7665   29.8407   43.2080 H   0  0  0  0  0  0  0  0  0  0  0  0
   57.2698   28.1904   42.7015 H   0  0  0  0  0  0  0  0  0  0  0  0
   56.0716   29.5287   42.7015 H   0  0  0  0  0  0  0  0  0  0  0  0
   56.5800   24.9663   47.3190 H   0  0  0  0  0  0  0  0  0  0  0  0
   59.0632   24.9144   47.4568 H   0  0  0  0  0  0  0  0  0  0  0  0
   60.4216   26.6495   46.2999 H   0  0  0  0  0  0  0  0  0  0  0  0
   61.4049   28.2195   45.2747 H   0  0  0  0  0  0  0  0  0  0  0  0
   61.1539   29.7941   44.4337 H   0  0  0  0  0  0  0  0  0  0  0  0
   60.9659   29.1074   47.3597 H   0  0  0  0  0  0  0  0  0  0  0  0
   61.5953   30.5991   46.5179 H   0  0  0  0  0  0  0  0  0  0  0  0
   59.5874   31.6321   46.5138 H   0  0  0  0  0  0  0  0  0  0  0  0
   58.6801   30.0450   46.3604 H   0  0  0  0  0  0  0  0  0  0  0  0
   58.2158   30.0074   48.5191 H   0  0  0  0  0  0  0  0  0  0  0  0
   59.9811   30.2795   48.9280 H   0  0  0  0  0  0  0  0  0  0  0  0
   58.4552   32.6800   48.0634 H   0  0  0  0  0  0  0  0  0  0  0  0
   58.0043   31.9540   49.6686 H   0  0  0  0  0  0  0  0  0  0  0  0
   59.8027   32.8554   50.6371 H   0  0  0  0  0  0  0  0  0  0  0  0
   60.8789   32.0608   49.4020 H   0  0  0  0  0  0  0  0  0  0  0  0
   59.4561   34.7301   49.0119 H   0  0  0  0  0  0  0  0  0  0  0  0
   61.1895   34.5131   49.5195 H   0  0  0  0  0  0  0  0  0  0  0  0
   61.8537   34.2215   47.4093 H   0  0  0  0  0  0  0  0  0  0  0  0
   60.5775   32.9587   47.1392 H   0  0  0  0  0  0  0  0  0  0  0  0
   60.2547   35.9815   46.8575 H   0  0  0  0  0  0  0  0  0  0  0  0
   60.2757   34.7415   45.5353 H   0  0  0  0  0  0  0  0  0  0  0  0
   57.3449   34.1318   43.8320 H   0  0  0  0  0  0  0  0  0  0  0  0
   59.0714   33.8250   44.2853 H   0  0  0  0  0  0  0  0  0  0  0  0
   57.9899   31.8716   43.1497 H   0  0  0  0  0  0  0  0  0  0  0  0
   58.5701   31.5090   44.8201 H   0  0  0  0  0  0  0  0  0  0  0  0
   56.5790   31.4300   45.5540 H   0  0  0  0  0  0  0  0  0  0  0  0
  1  2  1  0
  2  3  2  0
  2  4  1  0
  4  5  2  0
  5  6  1  0
  5  7  1  0
  7  8  2  0
  8  9  1  0
  9 10  2  0
 10 11  1  0
 11 12  1  0
 12 13  1  0
 13 14  1  0
 14 15  1  0
 15 16  1  0
 16 17  1  0
 17 18  1  0
 18 19  1  0
 19 20  1  0
 20 21  1  0
 21 22  1  0
 22 23  2  0
 22 24  1  0
 24 25  1  0
 25 26  1  0
 10  4  1  0
  1 27  1  0
  1 28  1  0
  1 29  1  0
  7 30  1  0
  8 31  1  0
  9 32  1  0
 12 33  1  0
 12 34  1  0
 13 35  1  0
 13 36  1  0
 14 37  1  0
 14 38  1  0
 15 39  1  0
 15 40  1  0
 16 41  1  0
 16 42  1  0
 17 43  1  0
 17 44  1  0
 18 45  1  0
 18 46  1  0
 19 47  1  0
 19 48  1  0
 20 49  1  0
 20 50  1  0
 24 51  1  0
 24 52  1  0
 25 53  1  0
 25 54  1  0
 26 55  1  0
M  CHG  2   6  -1  21  -1
M  END
>  <UniqueID>  (28) 
27

>  <SMILES>  (28) 
CC(=O)c1c([O-])cccc1OCCCCCCCCC[N-]C(=O)CCO

>  <Energy>  (28) 
43.123507771766015

>  <Genealogy>  (28) 
CC(=O)c1c([O-])cccc1OCCCCCCCCC[N-]C(=O)CCO (protonated)
CC(=O)c1c([O-])cccc1OCCCCCCCCC[N-]C(=O)CCO (3D coordinates assigned)
CC(=O)c1c([O-])cccc1OCCCCCCCCC[N-]C(=O)CCO (optimized conformer: 43.123507771766015 kcal/mol)

>  <smiles>  (28) 
CC(=O)c1c(O)cccc1OCCCCCCCCCNC(=O)CCO

>  <score_type>  (28) 
oracle

>  <origin>  (28) 
adg

>  <m_score__min__energy>  (28) 
-11.34

>  <m_primary>  (28) 
energy

$$$$
28:0
     RDKit          3D

 24 24  0  0  0  0  0  0  0  0999 V2000
   55.9120   24.8370   47.0850 O   0  0  0  0  0  0  0  0  0  0  0  0
   56.1510   25.8070   46.3180 C   0  0  0  0  0  0  0  0  0  0  0  0
   55.1390   26.7060   46.0100 O   0  0  0  0  0  0  0  0  0  0  0  0
   57.5310   26.0220   45.7880 C   0  0  0  0  0  0  0  0  0  0  0  0
   57.4650   26.8140   44.5540 N   0  0  0  0  0  0  0  0  0  0  0  0
   58.6570   27.6570   44.3780 C   0  0  0  0  0  0  0  0  0  0  0  0
   58.3610   29.1200   44.6120 C   0  0  0  0  0  0  0  0  0  0  0  0
   59.0710   29.8440   45.5800 C   0  0  0  0  0  0  0  0  0  0  0  0
   58.7780   31.1910   45.8120 C   0  0  0  0  0  0  0  0  0  0  0  0
   57.7660   31.8370   45.0800 C   0  0  0  0  0  0  0  0  0  0  0  0
   57.4670   33.2240   45.3200 N   0  0  0  0  0  0  0  0  0  0  0  0
   56.6780   33.5580   46.2290 O   0  0  0  0  0  0  0  0  0  0  0  0
   58.0460   34.2090   44.5520 O   0  0  0  0  0  0  0  0  0  0  0  0
   57.0520   31.1050   44.1140 C   0  0  0  0  0  0  0  0  0  0  0  0
   57.3460   29.7590   43.8850 C   0  0  0  0  0  0  0  0  0  0  0  0
   58.1314   26.5596   46.5367 H   0  0  0  0  0  0  0  0  0  0  0  0
   57.9965   25.0487   45.5737 H   0  0  0  0  0  0  0  0  0  0  0  0
   56.6140   27.4240   44.5860 H   0  0  0  0  0  0  0  0  0  0  0  0
   59.4285   27.3331   45.0920 H   0  0  0  0  0  0  0  0  0  0  0  0
   59.0002   27.5439   43.3390 H   0  0  0  0  0  0  0  0  0  0  0  0
   59.8635   29.3491   46.1605 H   0  0  0  0  0  0  0  0  0  0  0  0
   59.3431   31.7496   46.5726 H   0  0  0  0  0  0  0  0  0  0  0  0
   56.2563   31.5963   43.5348 H   0  0  0  0  0  0  0  0  0  0  0  0
   56.7778   29.1964   43.1296 H   0  0  0  0  0  0  0  0  0  0  0  0
  1  2  2  0
  2  3  1  0
  2  4  1  0
  4  5  1  0
  5  6  1  0
  6  7  1  0
  7  8  2  0
  8  9  1  0
  9 10  2  0
 10 11  1  0
 11 12  2  0
 11 13  1  0
 10 14  1  0
 14 15  2  0
 15  7  1  0
  4 16  1  0
  4 17  1  0
  5 18  1  0
  6 19  1  0
  6 20  1  0
  8 21  1  0
  9 22  1  0
 14 23  1  0
 15 24  1  0
M  CHG  3   3  -1  11   1  13  -1
M  END
>  <UniqueID>  (29) 
28

>  <SMILES>  (29) 
O=C([O-])CNCc1ccc([N+](=O)[O-])cc1

>  <Energy>  (29) 
21.83276253398836

>  <Genealogy>  (29) 
O=C([O-])CNCc1ccc([N+](=O)[O-])cc1 (protonated)
O=C([O-])CNCc1ccc([N+](=O)[O-])cc1 (3D coordinates assigned)
O=C([O-])CNCc1ccc([N+](=O)[O-])cc1 (optimized conformer: 21.83276253398836 kcal/mol)

>  <smiles>  (29) 
O=C(O)CNCc1ccc([N+](=O)[O-])cc1

>  <score_type>  (29) 
oracle

>  <origin>  (29) 
adg

>  <m_score__min__energy>  (29) 
-8.3000000000000007

>  <m_primary>  (29) 
energy

$$$$
29:0
     RDKit          3D

 37 39  0  0  0  0  0  0  0  0999 V2000
   55.7850   23.2610   47.6300 C   0  0  0  0  0  0  0  0  0  0  0  0
   55.1690   23.7780   46.3360 C   0  0  0  0  0  0  0  0  0  0  0  0
   55.7790   25.0880   45.9500 C   0  0  0  0  0  0  0  0  0  0  0  0
   57.0160   25.2760   45.3710 C   0  0  0  0  0  0  0  0  0  0  0  0
   57.0850   26.6460   45.1900 C   0  0  0  0  0  0  0  0  0  0  0  0
   58.1670   27.4250   44.5530 C   0  0  0  0  0  0  0  0  0  0  0  0
   58.0900   27.6500   43.3170 O   0  0  0  0  0  0  0  0  0  0  0  0
   59.2770   27.9770   45.2740 N   0  0  0  0  0  0  0  0  0  0  0  0
   59.2650   29.1840   46.0900 C   0  0  0  0  0  0  0  0  0  0  0  0
   58.7640   30.3270   45.2680 C   0  0  0  0  0  0  0  0  0  0  0  0
   58.4290   30.2460   43.9590 N   0  0  0  0  0  0  0  0  0  0  0  0
   57.9550   31.4220   43.5610 N   0  0  0  0  0  0  0  0  0  0  0  0
   57.4490   31.7020   42.2210 C   0  0  0  0  0  0  0  0  0  0  0  0
   57.9620   32.2590   44.6170 C   0  0  0  0  0  0  0  0  0  0  0  0
   57.5230   33.5810   44.6930 C   0  0  0  0  0  0  0  0  0  0  0  0
   57.6190   34.2290   45.9390 C   0  0  0  0  0  0  0  0  0  0  0  0
   58.1340   33.5490   47.0660 C   0  0  0  0  0  0  0  0  0  0  0  0
   58.5630   32.2120   46.9590 C   0  0  0  0  0  0  0  0  0  0  0  0
   58.4630   31.6020   45.7110 C   0  0  0  0  0  0  0  0  0  0  0  0
   55.9370   27.2100   45.6220 N   0  0  0  0  0  0  0  0  0  0  0  0
   55.1850   26.2500   46.0740 O   0  0  0  0  0  0  0  0  0  0  0  0
   55.2585   23.7028   48.4889 H   0  0  0  0  0  0  0  0  0  0  0  0
   55.6932   22.1655   47.6677 H   0  0  0  0  0  0  0  0  0  0  0  0
   56.8480   23.5414   47.6677 H   0  0  0  0  0  0  0  0  0  0  0  0
   55.3457   23.0464   45.5338 H   0  0  0  0  0  0  0  0  0  0  0  0
   54.0891   23.9207   46.4892 H   0  0  0  0  0  0  0  0  0  0  0  0
   57.7694   24.5169   45.1139 H   0  0  0  0  0  0  0  0  0  0  0  0
   58.6036   29.0360   46.9564 H   0  0  0  0  0  0  0  0  0  0  0  0
   60.2836   29.4014   46.4439 H   0  0  0  0  0  0  0  0  0  0  0  0
   58.5070   29.3990   43.3530 H   0  0  0  0  0  0  0  0  0  0  0  0
   56.4887   32.2334   42.2953 H   0  0  0  0  0  0  0  0  0  0  0  0
   58.1733   32.3277   41.6789 H   0  0  0  0  0  0  0  0  0  0  0  0
   57.3036   30.7560   41.6789 H   0  0  0  0  0  0  0  0  0  0  0  0
   57.1166   34.0982   43.8113 H   0  0  0  0  0  0  0  0  0  0  0  0
   57.2902   35.2742   46.0364 H   0  0  0  0  0  0  0  0  0  0  0  0
   58.2002   34.0679   48.0337 H   0  0  0  0  0  0  0  0  0  0  0  0
   58.9622   31.6696   47.8287 H   0  0  0  0  0  0  0  0  0  0  0  0
  1  2  1  0
  2  3  1  0
  3  4  2  0
  4  5  1  0
  5  6  1  0
  6  7  2  0
  6  8  1  0
  8  9  1  0
  9 10  1  0
 10 11  2  0
 11 12  1  0
 12 13  1  0
 12 14  1  0
 14 15  2  0
 15 16  1  0
 16 17  2  0
 17 18  1  0
 18 19  2  0
  5 20  2  0
 20 21  1  0
 21  3  1  0
 19 10  1  0
 19 14  1  0
  1 22  1  0
  1 23  1  0
  1 24  1  0
  2 25  1  0
  2 26  1  0
  4 27  1  0
  9 28  1  0
  9 29  1  0
 11 30  1  0
 13 31  1  0
 13 32  1  0
 13 33  1  0
 15 34  1  0
 16 35  1  0
 17 36  1  0
 18 37  1  0
M  CHG  2   8  -1  11   1
M  END
>  <UniqueID>  (30) 
29

>  <SMILES>  (30) 
CCc1cc(C(=O)[N-]Cc2[nH+]n(C)c3ccccc23)no1

>  <Energy>  (30) 
104.59267940550282

>  <Genealogy>  (30) 
CCc1cc(C(=O)[N-]Cc2[nH+]n(C)c3ccccc23)no1 (protonated)
CCc1cc(C(=O)[N-]Cc2[nH+]n(C)c3ccccc23)no1 (3D coordinates assigned)
CCc1cc(C(=O)[N-]Cc2[nH+]n(C)c3ccccc23)no1 (optimized conformer: 104.59267940550282 kcal/mol)

>  <smiles>  (30) 
CCc1cc(C(=O)NCc2nn(C)c3ccccc23)no1

>  <score_type>  (30) 
oracle

>  <origin>  (30) 
adg

>  <m_score__min__energy>  (30) 
-7.4400000000000004

>  <m_primary>  (30) 
energy

$$$$
30:0
     RDKit          3D

 42 45  0  0  0  0  0  0  0  0999 V2000
   60.0290   33.1420   50.5920 C   0  0  0  0  0  0  0  0  0  0  0  0
   61.4600   33.2320   50.1240 C   0  0  0  0  0  0  0  0  0  0  0  0
   62.4170   33.8310   50.9570 C   0  0  0  0  0  0  0  0  0  0  0  0
   63.7470   33.9240   50.5540 C   0  0  0  0  0  0  0  0  0  0  0  0
   64.1410   33.4310   49.3110 C   0  0  0  0  0  0  0  0  0  0  0  0
   63.2030   32.8460   48.4460 C   0  0  0  0  0  0  0  0  0  0  0  0
   63.6610   32.3300   47.1060 C   0  0  0  0  0  0  0  0  0  0  0  0
   61.8500   32.7380   48.8550 C   0  0  0  0  0  0  0  0  0  0  0  0
   60.8500   32.1140   47.9590 C   0  0  0  0  0  0  0  0  0  0  0  0
   60.9190   30.7440   47.6740 C   0  0  0  0  0  0  0  0  0  0  0  0
   59.9780   30.1490   46.8310 C   0  0  0  0  0  0  0  0  0  0  0  0
   58.9400   30.9180   46.2670 C   0  0  0  0  0  0  0  0  0  0  0  0
   57.9530   30.3790   45.4090 C   0  0  0  0  0  0  0  0  0  0  0  0
   57.8630   28.9370   45.0920 C   0  0  0  0  0  0  0  0  0  0  0  0
   58.1940   28.4620   43.8110 C   0  0  0  0  0  0  0  0  0  0  0  0
   58.1390   27.0930   43.5320 C   0  0  0  0  0  0  0  0  0  0  0  0
   57.7700   26.1880   44.5330 C   0  0  0  0  0  0  0  0  0  0  0  0
   57.7190   24.8610   44.2620 F   0  0  0  0  0  0  0  0  0  0  0  0
   57.4610   26.6520   45.8150 C   0  0  0  0  0  0  0  0  0  0  0  0
   57.5140   28.0210   46.0970 C   0  0  0  0  0  0  0  0  0  0  0  0
   57.0320   31.2100   44.8530 N   0  0  0  0  0  0  0  0  0  0  0  0
   57.0170   32.5410   45.1190 C   0  0  0  0  0  0  0  0  0  0  0  0
   57.9370   33.0770   45.9590 N   0  0  0  0  0  0  0  0  0  0  0  0
   58.8930   32.3060   46.5370 C   0  0  0  0  0  0  0  0  0  0  0  0
   59.8380   32.8930   47.3830 C   0  0  0  0  0  0  0  0  0  0  0  0
   60.0023   33.1403   51.6917 H   0  0  0  0  0  0  0  0  0  0  0  0
   59.4642   34.0064   50.2128 H   0  0  0  0  0  0  0  0  0  0  0  0
   59.5769   32.2136   50.2128 H   0  0  0  0  0  0  0  0  0  0  0  0
   62.1145   34.2304   51.9363 H   0  0  0  0  0  0  0  0  0  0  0  0
   64.4897   34.3884   51.2194 H   0  0  0  0  0  0  0  0  0  0  0  0
   65.1954   33.5010   49.0056 H   0  0  0  0  0  0  0  0  0  0  0  0
   64.3845   31.5149   47.2548 H   0  0  0  0  0  0  0  0  0  0  0  0
   62.7947   31.9531   46.5426 H   0  0  0  0  0  0  0  0  0  0  0  0
   64.1381   33.1455   46.5426 H   0  0  0  0  0  0  0  0  0  0  0  0
   61.7194   30.1332   48.1170 H   0  0  0  0  0  0  0  0  0  0  0  0
   60.0472   29.0745   46.6059 H   0  0  0  0  0  0  0  0  0  0  0  0
   58.4973   29.1697   43.0254 H   0  0  0  0  0  0  0  0  0  0  0  0
   58.3861   26.7272   42.5245 H   0  0  0  0  0  0  0  0  0  0  0  0
   57.1758   25.9395   46.6031 H   0  0  0  0  0  0  0  0  0  0  0  0
   57.2814   28.3812   47.1100 H   0  0  0  0  0  0  0  0  0  0  0  0
   56.2576   33.1858   44.6526 H   0  0  0  0  0  0  0  0  0  0  0  0
   59.7870   33.9707   47.5974 H   0  0  0  0  0  0  0  0  0  0  0  0
  1  2  1  0
  2  3  2  0
  3  4  1  0
  4  5  2  0
  5  6  1  0
  6  7  1  0
  6  8  2  0
  8  9  1  0
  9 10  2  0
 10 11  1  0
 11 12  2  0
 12 13  1  0
 13 14  1  0
 14 15  2  0
 15 16  1  0
 16 17  2  0
 17 18  1  0
 17 19  1  0
 19 20  2  0
 13 21  2  0
 21 22  1  0
 22 23  2  0
 23 24  1  0
 24 25  2  0
  8  2  1  0
 25  9  1  0
 24 12  1  0
 20 14  1  0
  1 26  1  0
  1 27  1  0
  1 28  1  0
  3 29  1  0
  4 30  1  0
  5 31  1  0
  7 32  1  0
  7 33  1  0
  7 34  1  0
 10 35  1  0
 11 36  1  0
 15 37  1  0
 16 38  1  0
 19 39  1  0
 20 40  1  0
 22 41  1  0
 25 42  1  0
M  END
>  <UniqueID>  (31) 
30

>  <SMILES>  (31) 
Cc1cccc(C)c1-c1ccc2c(-c3ccc(F)cc3)ncnc2c1

>  <Energy>  (31) 
66.69114090470615

>  <Genealogy>  (31) 
Cc1cccc(C)c1-c1ccc2c(-c3ccc(F)cc3)ncnc2c1 (3D coordinates assigned)
Cc1cccc(C)c1-c1ccc2c(-c3ccc(F)cc3)ncnc2c1 (optimized conformer: 66.69114090470615 kcal/mol)

>  <smiles>  (31) 
Cc1cccc(C)c1-c1ccc2c(-c3ccc(F)cc3)ncnc2c1

>  <score_type>  (31) 
oracle

>  <origin>  (31) 
adg

>  <m_score__min__energy>  (31) 
-8.0999999999999996

>  <m_primary>  (31) 
energy

$$$$
31:0
     RDKit          3D

 53 56  0  0  0  0  0  0  0  0999 V2000
   58.5240   33.7250   52.2450 C   0  0  0  0  0  0  0  0  0  0  0  0
   57.8200   32.4550   51.7540 C   0  0  0  0  0  0  0  0  0  0  0  0
   58.5900   31.6410   50.6870 C   0  0  1  0  0  0  0  0  0  0  0  0
   58.1260   30.1740   50.5870 C   0  0  0  0  0  0  0  0  0  0  0  0
   58.9980   29.3440   49.6150 C   0  0  0  0  0  0  0  0  0  0  0  0
   59.8720   30.2000   48.6840 C   0  0  0  0  0  0  0  0  0  0  0  0
   59.1640   31.4190   48.2760 N   0  0  0  0  0  0  0  0  0  0  0  0
   58.8590   31.6270   46.8880 C   0  0  0  0  0  0  0  0  0  0  0  0
   58.1200   30.6960   46.2280 N   0  0  0  0  0  0  0  0  0  0  0  0
   57.7570   30.8660   44.9310 C   0  0  0  0  0  0  0  0  0  0  0  0
   56.9950   29.8910   44.2760 C   0  0  0  0  0  0  0  0  0  0  0  0
   56.6260   30.0780   42.9400 C   0  0  0  0  0  0  0  0  0  0  0  0
   57.0190   31.2350   42.2570 C   0  0  0  0  0  0  0  0  0  0  0  0
   57.7800   32.2120   42.9080 C   0  0  0  0  0  0  0  0  0  0  0  0
   58.1510   32.0330   44.2500 C   0  0  0  0  0  0  0  0  0  0  0  0
   58.9000   32.9660   44.9020 N   0  0  0  0  0  0  0  0  0  0  0  0
   59.2680   32.7940   46.2050 C   0  0  0  0  0  0  0  0  0  0  0  0
   60.1420   33.7950   46.8530 C   0  0  0  0  0  0  0  0  0  0  0  0
   59.8050   35.0100   46.8150 O   0  0  0  0  0  0  0  0  0  0  0  0
   61.3650   33.4110   47.5140 N   0  0  0  0  0  0  0  0  0  0  0  0
   62.0060   32.1190   47.2340 C   0  0  0  0  0  0  0  0  0  0  0  0
   63.5270   32.2600   47.3470 C   0  0  0  0  0  0  0  0  0  0  0  0
   63.8870   32.8430   48.5850 O   0  0  0  0  0  0  0  0  0  0  0  0
   63.4090   34.1720   48.6430 C   0  0  0  0  0  0  0  0  0  0  0  0
   61.8770   34.2030   48.6380 C   0  0  0  0  0  0  0  0  0  0  0  0
   58.5510   32.2940   49.2900 C   0  0  0  0  0  0  0  0  0  0  0  0
   58.5313   33.7382   53.3449 H   0  0  0  0  0  0  0  0  0  0  0  0
   59.5585   33.7386   51.8712 H   0  0  0  0  0  0  0  0  0  0  0  0
   57.9874   34.6095   51.8712 H   0  0  0  0  0  0  0  0  0  0  0  0
   57.6521   31.8022   52.6233 H   0  0  0  0  0  0  0  0  0  0  0  0
   56.8919   32.7908   51.2683 H   0  0  0  0  0  0  0  0  0  0  0  0
   59.6312   31.6436   51.0419 H   0  0  0  0  0  0  0  0  0  0  0  0
   58.1793   29.7178   51.5865 H   0  0  0  0  0  0  0  0  0  0  0  0
   57.0971   30.1737   50.1978 H   0  0  0  0  0  0  0  0  0  0  0  0
   59.6569   28.6935   50.2089 H   0  0  0  0  0  0  0  0  0  0  0  0
   58.3102   28.7725   48.9745 H   0  0  0  0  0  0  0  0  0  0  0  0
   60.7952   30.4795   49.2128 H   0  0  0  0  0  0  0  0  0  0  0  0
   60.1076   29.6125   47.7844 H   0  0  0  0  0  0  0  0  0  0  0  0
   56.6874   28.9803   44.8108 H   0  0  0  0  0  0  0  0  0  0  0  0
   56.0254   29.3140   42.4246 H   0  0  0  0  0  0  0  0  0  0  0  0
   56.7287   31.3764   41.2055 H   0  0  0  0  0  0  0  0  0  0  0  0
   58.0875   33.1200   42.3685 H   0  0  0  0  0  0  0  0  0  0  0  0
   59.2240   33.8170   44.3860 H   0  0  0  0  0  0  0  0  0  0  0  0
   61.6535   31.3714   47.9598 H   0  0  0  0  0  0  0  0  0  0  0  0
   61.7455   31.7972   46.2149 H   0  0  0  0  0  0  0  0  0  0  0  0
   63.9882   31.2644   47.2696 H   0  0  0  0  0  0  0  0  0  0  0  0
   63.8821   32.9107   46.5343 H   0  0  0  0  0  0  0  0  0  0  0  0
   63.7758   34.6467   49.5650 H   0  0  0  0  0  0  0  0  0  0  0  0
   63.7743   34.7157   47.7593 H   0  0  0  0  0  0  0  0  0  0  0  0
   61.5006   33.7822   49.5821 H   0  0  0  0  0  0  0  0  0  0  0  0
   61.5362   35.2436   48.5327 H   0  0  0  0  0  0  0  0  0  0  0  0
   59.1018   33.2456   49.3232 H   0  0  0  0  0  0  0  0  0  0  0  0
   57.4998   32.4639   49.0140 H   0  0  0  0  0  0  0  0  0  0  0  0
  1  2  1  0
  2  3  1  0
  3  4  1  0
  4  5  1  0
  5  6  1  0
  6  7  1  0
  7  8  1  0
  8  9  2  0
  9 10  1  0
 10 11  2  0
 11 12  1  0
 12 13  2  0
 13 14  1  0
 14 15  2  0
 15 16  1  0
 16 17  2  0
 17 18  1  0
 18 19  2  0
 18 20  1  0
 20 21  1  0
 21 22  1  0
 22 23  1  0
 23 24  1  0
 24 25  1  0
  7 26  1  0
 26  3  1  0
 17  8  1  0
 25 20  1  0
 15 10  1  0
  1 27  1  0
  1 28  1  0
  1 29  1  0
  2 30  1  0
  2 31  1  0
  3 32  1  1
  4 33  1  0
  4 34  1  0
  5 35  1  0
  5 36  1  0
  6 37  1  0
  6 38  1  0
 11 39  1  0
 12 40  1  0
 13 41  1  0
 14 42  1  0
 16 43  1  0
 21 44  1  0
 21 45  1  0
 22 46  1  0
 22 47  1  0
 24 48  1  0
 24 49  1  0
 25 50  1  0
 25 51  1  0
 26 52  1  0
 26 53  1  0
M  CHG  1  16   1
M  END
>  <UniqueID>  (32) 
31

>  <SMILES>  (32) 
CC[C@H]1CCCN(c2nc3ccccc3[nH+]c2C(=O)N2CCOCC2)C1

>  <Energy>  (32) 
70.55213228235021

>  <Genealogy>  (32) 
CCC1CCCN(c2nc3ccccc3[nH+]c2C(=O)N2CCOCC2)C1 (protonated)
CC[C@H]1CCCN(c2nc3ccccc3[nH+]c2C(=O)N2CCOCC2)C1 (chirality)
CC[C@H]1CCCN(c2nc3ccccc3[nH+]c2C(=O)N2CCOCC2)C1 (3D coordinates assigned)
CC[C@H]1CCCN(c2nc3ccccc3[nH+]c2C(=O)N2CCOCC2)C1 (nonaromatic ring conformer: 70.55213228235021 kcal/mol)

>  <smiles>  (32) 
CCC1CCCN(c2nc3ccccc3nc2C(=O)N2CCOCC2)C1

>  <score_type>  (32) 
oracle

>  <origin>  (32) 
adg

>  <m_score__min__energy>  (32) 
-6.21

>  <m_primary>  (32) 
energy

$$$$
32:0
     RDKit          3D

 53 55  0  0  0  0  0  0  0  0999 V2000
   59.5362   30.3063   46.6395 H   0  0  0  0  0  0  0  0  0  0  0  0
   59.8230   31.3580   46.4920 C   0  0  0  0  0  0  0  0  0  0  0  0
   61.1350   31.7650   46.7530 C   0  0  0  0  0  0  0  0  0  0  0  0
   61.8761   31.0287   47.0974 H   0  0  0  0  0  0  0  0  0  0  0  0
   61.5150   33.1070   46.5790 C   0  0  0  0  0  0  0  0  0  0  0  0
   62.9070   33.5400   46.8470 C   0  0  0  0  0  0  0  0  0  0  0  0
   63.3720   34.5520   46.2550 O   0  0  0  0  0  0  0  0  0  0  0  0
   63.7670   32.7960   47.7220 N   0  0  0  0  0  0  0  0  0  0  0  0
   64.6720   32.4670   47.3120 H   0  0  0  0  0  0  0  0  0  0  0  0
   63.5030   32.5660   48.9840 C   0  0  0  0  0  0  0  0  0  0  0  0
   64.5820   32.0980   49.8910 C   0  0  0  0  0  0  0  0  0  0  0  0
   65.8340   32.7370   49.8870 C   0  0  0  0  0  0  0  0  0  0  0  0
   66.0166   33.5769   49.2005 H   0  0  0  0  0  0  0  0  0  0  0  0
   66.8490   32.3120   50.7500 C   0  0  0  0  0  0  0  0  0  0  0  0
   67.8267   32.8160   50.7357 H   0  0  0  0  0  0  0  0  0  0  0  0
   66.6250   31.2420   51.6370 C   0  0  0  0  0  0  0  0  0  0  0  0
   67.6100   30.7810   52.5230 O   0  0  0  0  0  0  0  0  0  0  0  0
   68.1910   29.4830   52.4740 C   0  0  0  0  0  0  0  0  0  0  0  0
   68.3553   29.1159   53.4978 H   0  0  0  0  0  0  0  0  0  0  0  0
   67.5137   28.7979   51.9431 H   0  0  0  0  0  0  0  0  0  0  0  0
   69.1532   29.5318   51.9431 H   0  0  0  0  0  0  0  0  0  0  0  0
   65.3760   30.6110   51.6440 C   0  0  0  0  0  0  0  0  0  0  0  0
   65.1914   29.7753   52.3350 H   0  0  0  0  0  0  0  0  0  0  0  0
   64.3610   31.0330   50.7810 C   0  0  0  0  0  0  0  0  0  0  0  0
   63.3836   30.5287   50.7984 H   0  0  0  0  0  0  0  0  0  0  0  0
   62.1930   32.8210   49.5260 N   0  0  0  0  0  0  0  0  0  0  0  0
   61.4810   31.7500   50.2340 C   0  0  0  0  0  0  0  0  0  0  0  0
   61.1299   31.0073   49.5025 H   0  0  0  0  0  0  0  0  0  0  0  0
   62.1723   31.2869   50.9535 H   0  0  0  0  0  0  0  0  0  0  0  0
   60.2750   32.3040   51.0040 C   0  0  0  0  0  0  0  0  0  0  0  0
   59.6609   31.4607   51.3527 H   0  0  0  0  0  0  0  0  0  0  0  0
   60.6591   32.8984   51.8461 H   0  0  0  0  0  0  0  0  0  0  0  0
   59.4330   33.1930   50.1710 N   0  0  0  0  0  0  0  0  0  0  0  0
   58.5210   32.4210   49.3110 C   0  0  0  0  0  0  0  0  0  0  0  0
   57.8314   31.8373   49.9385 H   0  0  0  0  0  0  0  0  0  0  0  0
   57.9448   33.1100   48.6759 H   0  0  0  0  0  0  0  0  0  0  0  0
   59.1053   31.7389   48.6759 H   0  0  0  0  0  0  0  0  0  0  0  0
   60.1800   34.2220   49.3980 C   0  0  0  0  0  0  0  0  0  0  0  0
   59.9889   34.0565   48.3274 H   0  0  0  0  0  0  0  0  0  0  0  0
   59.8227   35.2025   49.7458 H   0  0  0  0  0  0  0  0  0  0  0  0
   61.6980   34.1960   49.6270 C   0  0  0  0  0  0  0  0  0  0  0  0
   62.1924   34.8186   48.8668 H   0  0  0  0  0  0  0  0  0  0  0  0
   61.9201   34.5885   50.6303 H   0  0  0  0  0  0  0  0  0  0  0  0
   60.5630   34.0290   46.1120 C   0  0  0  0  0  0  0  0  0  0  0  0
   60.8519   35.0779   45.9499 H   0  0  0  0  0  0  0  0  0  0  0  0
   59.2510   33.6220   45.8520 C   0  0  0  0  0  0  0  0  0  0  0  0
   58.5134   34.3561   45.4955 H   0  0  0  0  0  0  0  0  0  0  0  0
   58.8670   32.2890   46.0410 C   0  0  0  0  0  0  0  0  0  0  0  0
   57.5390   31.9320   45.7730 O   0  0  0  0  0  0  0  0  0  0  0  0
   57.0560   31.5320   44.4930 C   0  0  0  0  0  0  0  0  0  0  0  0
   56.2145   30.8351   44.6200 H   0  0  0  0  0  0  0  0  0  0  0  0
   56.7175   32.4178   43.9356 H   0  0  0  0  0  0  0  0  0  0  0  0
   57.8633   31.0344   43.9356 H   0  0  0  0  0  0  0  0  0  0  0  0
  1  2  1  0
  2  3  2  0
  3  4  1  0
  3  5  1  0
  5  6  1  0
  6  7  2  0
  6  8  1  0
  8  9  1  0
  8 10  2  0
 10 11  1  0
 11 12  2  0
 12 13  1  0
 12 14  1  0
 14 15  1  0
 14 16  2  0
 16 17  1  0
 17 18  1  0
 18 19  1  0
 18 20  1  0
 18 21  1  0
 16 22  1  0
 22 23  1  0
 22 24  2  0
 24 25  1  0
 10 26  1  0
 26 27  1  0
 27 28  1  0
 27 29  1  0
 27 30  1  0
 30 31  1  0
 30 32  1  0
 30 33  1  0
 33 34  1  0
 34 35  1  0
 34 36  1  0
 34 37  1  0
 33 38  1  0
 38 39  1  0
 38 40  1  0
 38 41  1  0
 41 42  1  0
 41 43  1  0
  5 44  2  0
 44 45  1  0
 44 46  1  0
 46 47  1  0
 46 48  2  0
 48 49  1  0
 49 50  1  0
 50 51  1  0
 50 52  1  0
 50 53  1  0
 48  2  1  0
 24 11  1  0
 41 26  1  0
M  CHG  1   8   1
M  END
>  <UniqueID>  (33) 
32

>  <SMILES>  (33) 
COc1ccc(C(=O)/[NH+]=C(/c2ccc(OC)cc2)N2CCN(C)CC2)cc1

>  <Energy>  (33) 
71.82644583833876

>  <Genealogy>  (33) 
COc1ccc(C(=O)[NH+]=C(c2ccc(OC)cc2)N2CCN(C)CC2)cc1 (protonated)
COc1ccc(C(=O)/[NH+]=C(/c2ccc(OC)cc2)N2CCN(C)CC2)cc1 (cis-trans isomerization)
COc1ccc(C(=O)/[NH+]=C(/c2ccc(OC)cc2)N2CCN(C)CC2)cc1 (3D coordinates assigned)
COc1ccc(C(=O)/[NH+]=C(/c2ccc(OC)cc2)N2CCN(C)CC2)cc1 (nonaromatic ring conformer: 71.82644583833876 kcal/mol)

>  <smiles>  (33) 
COc1ccc(C(=O)N=C(c2ccc(OC)cc2)N2CCN(C)CC2)cc1

>  <score_type>  (33) 
oracle

>  <origin>  (33) 
adg

>  <m_score__min__energy>  (33) 
-6

>  <m_primary>  (33) 
energy

$$$$
33:0
     RDKit          3D

 44 45  0  0  0  0  0  0  0  0999 V2000
   62.4676   34.3156   50.3781 H   0  0  0  0  0  0  0  0  0  0  0  0
   62.3270   33.9210   49.3610 C   0  0  0  0  0  0  0  0  0  0  0  0
   61.1620   34.2240   48.6490 C   0  0  0  0  0  0  0  0  0  0  0  0
   60.3873   34.8521   49.1130 H   0  0  0  0  0  0  0  0  0  0  0  0
   60.9720   33.7320   47.3430 C   0  0  0  0  0  0  0  0  0  0  0  0
   59.7260   34.0560   46.6060 C   0  0  0  0  0  0  0  0  0  0  0  0
   59.4150   35.2640   46.4210 O   0  0  0  0  0  0  0  0  0  0  0  0
   58.8800   33.0190   46.0780 N   0  0  0  0  0  0  0  0  0  0  0  0
   59.1970   32.0240   46.0960 H   0  0  0  0  0  0  0  0  0  0  0  0
   57.6250   33.3180   45.3930 C   0  0  0  0  0  0  0  0  0  0  0  0
   57.6719   34.3362   44.9794 H   0  0  0  0  0  0  0  0  0  0  0  0
   56.7983   33.2398   46.1144 H   0  0  0  0  0  0  0  0  0  0  0  0
   57.3910   32.3450   44.2810 C   0  0  0  0  0  0  0  0  0  0  0  0
   57.8290   32.5980   43.1260 O   0  0  0  0  0  0  0  0  0  0  0  0
   56.6430   31.1890   44.5240 O   0  0  0  0  0  0  0  0  0  0  0  0
   57.2380   29.9270   44.8000 C   0  0  0  0  0  0  0  0  0  0  0  0
   57.5419   29.4484   43.8573 H   0  0  0  0  0  0  0  0  0  0  0  0
   56.5140   29.2795   45.3163 H   0  0  0  0  0  0  0  0  0  0  0  0
   58.4360   30.1340   45.6650 C   0  0  0  0  0  0  0  0  0  0  0  0
   59.5900   30.0590   45.1630 O   0  0  0  0  0  0  0  0  0  0  0  0
   58.2790   30.2940   47.0770 N   0  0  0  0  0  0  0  0  0  0  0  0
   59.1290   30.1080   48.0550 C   0  0  0  0  0  0  0  0  0  0  0  0
   59.7570   28.8550   48.0900 C   0  0  0  0  0  0  0  0  0  0  0  0
   59.4503   28.0706   47.3824 H   0  0  0  0  0  0  0  0  0  0  0  0
   60.7630   28.5970   49.0110 C   0  0  0  0  0  0  0  0  0  0  0  0
   61.2645   27.6180   49.0237 H   0  0  0  0  0  0  0  0  0  0  0  0
   61.1310   29.5810   49.9140 C   0  0  0  0  0  0  0  0  0  0  0  0
   61.9561   29.4050   50.6199 H   0  0  0  0  0  0  0  0  0  0  0  0
   60.4480   30.7950   49.9210 C   0  0  0  0  0  0  0  0  0  0  0  0
   60.7282   31.5650   50.6549 H   0  0  0  0  0  0  0  0  0  0  0  0
   59.4320   31.0530   49.0320 N   0  0  0  0  0  0  0  0  0  0  0  0
   58.5760   32.2170   49.3580 C   0  0  0  0  0  0  0  0  0  0  0  0
   57.5196   31.9182   49.2884 H   0  0  0  0  0  0  0  0  0  0  0  0
   58.7939   33.0250   48.6442 H   0  0  0  0  0  0  0  0  0  0  0  0
   58.8610   32.7230   50.7710 C   0  0  0  0  0  0  0  0  0  0  0  0
   58.4587   32.0087   51.5044 H   0  0  0  0  0  0  0  0  0  0  0  0
   59.9473   32.8216   50.9130 H   0  0  0  0  0  0  0  0  0  0  0  0
   58.3822   33.7031   50.9130 H   0  0  0  0  0  0  0  0  0  0  0  0
   61.9670   32.9130   46.7750 C   0  0  0  0  0  0  0  0  0  0  0  0
   61.8275   32.5061   45.7626 H   0  0  0  0  0  0  0  0  0  0  0  0
   63.1300   32.6140   47.4890 C   0  0  0  0  0  0  0  0  0  0  0  0
   63.9053   31.9804   47.0335 H   0  0  0  0  0  0  0  0  0  0  0  0
   63.3120   33.1180   48.7820 C   0  0  0  0  0  0  0  0  0  0  0  0
   64.7730   32.7370   49.6740 Cl  0  0  0  0  0  0  0  0  0  0  0  0
  1  2  1  0
  2  3  2  0
  3  4  1  0
  3  5  1  0
  5  6  1  0
  6  7  2  0
  6  8  1  0
  8  9  1  0
  8 10  1  0
 10 11  1  0
 10 12  1  0
 10 13  1  0
 13 14  2  0
 13 15  1  0
 15 16  1  0
 16 17  1  0
 16 18  1  0
 16 19  1  0
 19 20  2  0
 19 21  1  0
 21 22  2  0
 22 23  1  0
 23 24  1  0
 23 25  2  0
 25 26  1  0
 25 27  1  0
 27 28  1  0
 27 29  2  0
 29 30  1  0
 29 31  1  0
 31 32  1  0
 32 33  1  0
 32 34  1  0
 32 35  1  0
 35 36  1  0
 35 37  1  0
 35 38  1  0
  5 39  2  0
 39 40  1  0
 39 41  1  0
 41 42  1  0
 41 43  2  0
 43 44  1  0
 43  2  1  0
 31 22  1  0
M  END
>  <UniqueID>  (34) 
33

>  <SMILES>  (34) 
CCn1cccc/c1=N/C(=O)COC(=O)CNC(=O)c1ccc(Cl)cc1

>  <Energy>  (34) 
60.45370014003405

>  <Genealogy>  (34) 
CCn1cccc/c1=N/C(=O)COC(=O)CNC(=O)c1ccc(Cl)cc1 (cis-trans isomerization)
CCn1cccc/c1=N/C(=O)COC(=O)CNC(=O)c1ccc(Cl)cc1 (3D coordinates assigned)
CCn1cccc/c1=N/C(=O)COC(=O)CNC(=O)c1ccc(Cl)cc1 (optimized conformer: 60.45370014003405 kcal/mol)

>  <smiles>  (34) 
CCn1ccccc1=NC(=O)COC(=O)CNC(=O)c1ccc(Cl)cc1

>  <score_type>  (34) 
oracle

>  <origin>  (34) 
adg

>  <m_score__min__energy>  (34) 
-7.2599999999999998

>  <m_primary>  (34) 
energy

$$$$
34:0
     RDKit          3D

 33 35  0  0  0  0  0  0  0  0999 V2000
   63.9870   32.9770   48.3420 C   0  0  0  0  0  0  0  0  0  0  0  0
   62.9670   33.9590   48.4960 O   0  0  0  0  0  0  0  0  0  0  0  0
   61.6590   33.8290   48.0060 C   0  0  0  0  0  0  0  0  0  0  0  0
   61.4050   34.2140   46.6870 C   0  0  0  0  0  0  0  0  0  0  0  0
   60.1210   34.1050   46.1510 C   0  0  0  0  0  0  0  0  0  0  0  0
   59.0710   33.6080   46.9310 C   0  0  0  0  0  0  0  0  0  0  0  0
   57.4280   33.4870   46.2180 S   0  0  0  0  0  0  0  0  0  0  0  0
   57.7450   31.8500   45.5730 C   0  0  0  0  0  0  0  0  0  0  0  0
   58.9230   31.1980   45.7530 N   0  0  0  0  0  0  0  0  0  0  0  0
   58.7000   30.0450   45.0990 C   0  0  0  0  0  0  0  0  0  0  0  0
   59.5700   28.9690   44.9390 C   0  0  0  0  0  0  0  0  0  0  0  0
   59.1090   27.8600   44.2030 C   0  0  0  0  0  0  0  0  0  0  0  0
   57.8050   27.8590   43.6530 C   0  0  0  0  0  0  0  0  0  0  0  0
   56.9530   28.9640   43.8350 C   0  0  0  0  0  0  0  0  0  0  0  0
   57.4460   30.0400   44.5690 C   0  0  0  0  0  0  0  0  0  0  0  0
   56.8580   31.1660   44.8690 O   0  0  0  0  0  0  0  0  0  0  0  0
   59.3030   33.2130   48.2590 C   0  0  0  0  0  0  0  0  0  0  0  0
   58.2270   32.7220   49.0140 O   0  0  0  0  0  0  0  0  0  0  0  0
   58.3590   31.9680   50.2150 C   0  0  0  0  0  0  0  0  0  0  0  0
   60.6040   33.3260   48.7930 C   0  0  0  0  0  0  0  0  0  0  0  0
   64.3304   32.6464   49.3334 H   0  0  0  0  0  0  0  0  0  0  0  0
   63.5863   32.1160   47.7868 H   0  0  0  0  0  0  0  0  0  0  0  0
   64.8321   33.4101   47.7868 H   0  0  0  0  0  0  0  0  0  0  0  0
   62.2238   34.6062   46.0660 H   0  0  0  0  0  0  0  0  0  0  0  0
   59.9337   34.4110   45.1112 H   0  0  0  0  0  0  0  0  0  0  0  0
   60.5811   28.9848   45.3720 H   0  0  0  0  0  0  0  0  0  0  0  0
   59.7659   26.9902   44.0550 H   0  0  0  0  0  0  0  0  0  0  0  0
   57.4550   26.9882   43.0792 H   0  0  0  0  0  0  0  0  0  0  0  0
   55.9369   28.9774   43.4138 H   0  0  0  0  0  0  0  0  0  0  0  0
   58.2422   32.6353   51.0816 H   0  0  0  0  0  0  0  0  0  0  0  0
   57.5837   31.1883   50.2455 H   0  0  0  0  0  0  0  0  0  0  0  0
   59.3531   31.4980   50.2455 H   0  0  0  0  0  0  0  0  0  0  0  0
   60.7962   33.0191   49.8317 H   0  0  0  0  0  0  0  0  0  0  0  0
  1  2  1  0
  2  3  1  0
  3  4  2  0
  4  5  1  0
  5  6  2  0
  6  7  1  0
  7  8  1  0
  8  9  2  0
  9 10  1  0
 10 11  2  0
 11 12  1  0
 12 13  2  0
 13 14  1  0
 14 15  2  0
 15 16  1  0
  6 17  1  0
 17 18  1  0
 18 19  1  0
 17 20  2  0
 20  3  1  0
 16  8  1  0
 15 10  1  0
  1 21  1  0
  1 22  1  0
  1 23  1  0
  4 24  1  0
  5 25  1  0
 11 26  1  0
 12 27  1  0
 13 28  1  0
 14 29  1  0
 19 30  1  0
 19 31  1  0
 19 32  1  0
 20 33  1  0
M  END
>  <UniqueID>  (35) 
34

>  <SMILES>  (35) 
COc1ccc(Sc2nc3ccccc3o2)c(OC)c1

>  <Energy>  (35) 
67.58880523911081

>  <Genealogy>  (35) 
COc1ccc(Sc2nc3ccccc3o2)c(OC)c1 (3D coordinates assigned)
COc1ccc(Sc2nc3ccccc3o2)c(OC)c1 (optimized conformer: 67.58880523911081 kcal/mol)

>  <smiles>  (35) 
COc1ccc(Sc2nc3ccccc3o2)c(OC)c1

>  <score_type>  (35) 
oracle

>  <origin>  (35) 
adg

>  <m_score__min__energy>  (35) 
-6.6900000000000004

>  <m_primary>  (35) 
energy

$$$$
35:0
     RDKit          3D

 45 48  0  0  0  0  0  0  0  0999 V2000
   56.8510   25.9920   46.2440 C   0  0  0  0  0  0  0  0  0  0  0  0
   57.9110   26.1730   44.7760 S   0  0  0  0  0  0  0  0  0  0  0  0
   58.8610   27.5150   45.4880 C   0  0  0  0  0  0  0  0  0  0  0  0
   58.6970   27.8510   46.8380 C   0  0  0  0  0  0  0  0  0  0  0  0
   59.4100   28.9210   47.3850 C   0  0  0  0  0  0  0  0  0  0  0  0
   60.2850   29.6690   46.5820 C   0  0  0  0  0  0  0  0  0  0  0  0
   60.9650   30.8470   47.1460 C   0  0  0  0  0  0  0  0  0  0  0  0
   62.2810   30.8280   47.4800 N   0  0  0  0  0  0  0  0  0  0  0  0
   62.4720   32.0380   48.0340 C   0  0  0  0  0  0  0  0  0  0  0  0
   63.6510   32.5430   48.5740 C   0  0  0  0  0  0  0  0  0  0  0  0
   63.6150   33.8270   49.1470 C   0  0  0  0  0  0  0  0  0  0  0  0
   62.4100   34.5640   49.1710 C   0  0  0  0  0  0  0  0  0  0  0  0
   61.2320   34.0260   48.6200 C   0  0  0  0  0  0  0  0  0  0  0  0
   61.3050   32.7510   48.0490 C   0  0  0  0  0  0  0  0  0  0  0  0
   60.3340   32.0080   47.4860 N   0  0  0  0  0  0  0  0  0  0  0  0
   58.8950   32.3020   47.4150 C   0  0  0  0  0  0  0  0  0  0  0  0
   58.4050   32.1940   45.9940 C   0  0  0  0  0  0  0  0  0  0  0  0
   58.6540   33.2230   45.0730 C   0  0  0  0  0  0  0  0  0  0  0  0
   58.2260   33.1000   43.7490 C   0  0  0  0  0  0  0  0  0  0  0  0
   57.5490   31.9520   43.3330 C   0  0  0  0  0  0  0  0  0  0  0  0
   57.3040   30.9030   44.2370 C   0  0  0  0  0  0  0  0  0  0  0  0
   56.5350   29.6810   43.8040 C   0  0  0  0  0  0  0  0  0  0  0  0
   57.3600   28.7960   43.1320 F   0  0  0  0  0  0  0  0  0  0  0  0
   55.5060   30.0640   42.9650 F   0  0  0  0  0  0  0  0  0  0  0  0
   56.0030   29.0270   44.9020 F   0  0  0  0  0  0  0  0  0  0  0  0
   57.7120   31.0450   45.5760 C   0  0  0  0  0  0  0  0  0  0  0  0
   60.4750   29.3060   45.2410 C   0  0  0  0  0  0  0  0  0  0  0  0
   59.7630   28.2330   44.6950 C   0  0  0  0  0  0  0  0  0  0  0  0
   57.4621   26.0964   47.1526 H   0  0  0  0  0  0  0  0  0  0  0  0
   56.0739   26.7704   46.2334 H   0  0  0  0  0  0  0  0  0  0  0  0
   56.3762   24.9998   46.2334 H   0  0  0  0  0  0  0  0  0  0  0  0
   58.0061   27.2718   47.4682 H   0  0  0  0  0  0  0  0  0  0  0  0
   59.2852   29.1777   48.4473 H   0  0  0  0  0  0  0  0  0  0  0  0
   64.5815   31.9566   48.5534 H   0  0  0  0  0  0  0  0  0  0  0  0
   64.5297   34.2595   49.5786 H   0  0  0  0  0  0  0  0  0  0  0  0
   62.3923   35.5663   49.6239 H   0  0  0  0  0  0  0  0  0  0  0  0
   60.2868   34.5885   48.6377 H   0  0  0  0  0  0  0  0  0  0  0  0
   58.3471   31.5837   48.0426 H   0  0  0  0  0  0  0  0  0  0  0  0
   58.7227   33.3273   47.7744 H   0  0  0  0  0  0  0  0  0  0  0  0
   59.1879   34.1294   45.3947 H   0  0  0  0  0  0  0  0  0  0  0  0
   58.4230   33.9104   43.0317 H   0  0  0  0  0  0  0  0  0  0  0  0
   57.2051   31.8675   42.2916 H   0  0  0  0  0  0  0  0  0  0  0  0
   57.4866   30.2499   46.3019 H   0  0  0  0  0  0  0  0  0  0  0  0
   61.1861   29.8667   44.6166 H   0  0  0  0  0  0  0  0  0  0  0  0
   59.9122   27.9534   43.6416 H   0  0  0  0  0  0  0  0  0  0  0  0
  1  2  1  0
  2  3  1  0
  3  4  2  0
  4  5  1  0
  5  6  2  0
  6  7  1  0
  7  8  2  0
  8  9  1  0
  9 10  2  0
 10 11  1  0
 11 12  2  0
 12 13  1  0
 13 14  2  0
 14 15  1  0
 15 16  1  0
 16 17  1  0
 17 18  2  0
 18 19  1  0
 19 20  2  0
 20 21  1  0
 21 22  1  0
 22 23  1  0
 22 24  1  0
 22 25  1  0
 21 26  2  0
  6 27  1  0
 27 28  2  0
 28  3  1  0
 15  7  1  0
 26 17  1  0
 14  9  1  0
  1 29  1  0
  1 30  1  0
  1 31  1  0
  4 32  1  0
  5 33  1  0
 10 34  1  0
 11 35  1  0
 12 36  1  0
 13 37  1  0
 16 38  1  0
 16 39  1  0
 18 40  1  0
 19 41  1  0
 20 42  1  0
 26 43  1  0
 27 44  1  0
 28 45  1  0
M  END
>  <UniqueID>  (36) 
35

>  <SMILES>  (36) 
CSc1ccc(-c2nc3ccccc3n2Cc2cccc(C(F)(F)F)c2)cc1

>  <Energy>  (36) 
85.62009710387073

>  <Genealogy>  (36) 
CSc1ccc(-c2nc3ccccc3n2Cc2cccc(C(F)(F)F)c2)cc1 (3D coordinates assigned)
CSc1ccc(-c2nc3ccccc3n2Cc2cccc(C(F)(F)F)c2)cc1 (optimized conformer: 85.62009710387073 kcal/mol)

>  <smiles>  (36) 
CSc1ccc(-c2nc3ccccc3n2Cc2cccc(C(F)(F)F)c2)cc1

>  <score_type>  (36) 
oracle

>  <origin>  (36) 
adg

>  <m_score__min__energy>  (36) 
-8

>  <m_primary>  (36) 
energy

$$$$
36:0
     RDKit          3D

 16 17  0  0  0  0  0  0  0  0999 V2000
   59.7150   35.5230   46.0220 C   0  0  0  0  0  0  0  0  0  0  0  0
   58.9410   34.2730   45.7260 C   0  0  0  0  0  0  0  0  0  0  0  0
   58.4620   33.4730   46.7840 C   0  0  0  0  0  0  0  0  0  0  0  0
   57.7670   32.2830   46.5250 C   0  0  0  0  0  0  0  0  0  0  0  0
   57.5640   31.8850   45.2040 C   0  0  0  0  0  0  0  0  0  0  0  0
   56.9050   30.7480   44.8710 N   0  0  0  0  0  0  0  0  0  0  0  0
   57.0010   30.8320   43.2210 S   0  0  0  0  0  0  0  0  0  0  0  0
   57.8280   32.2220   42.8760 N   0  0  0  0  0  0  0  0  0  0  0  0
   58.0590   32.6780   44.1320 C   0  0  0  0  0  0  0  0  0  0  0  0
   58.7500   33.8630   44.3930 C   0  0  0  0  0  0  0  0  0  0  0  0
   59.7965   35.6546   47.1111 H   0  0  0  0  0  0  0  0  0  0  0  0
   60.7217   35.4428   45.5860 H   0  0  0  0  0  0  0  0  0  0  0  0
   59.1945   36.3885   45.5860 H   0  0  0  0  0  0  0  0  0  0  0  0
   58.6355   33.7860   47.8241 H   0  0  0  0  0  0  0  0  0  0  0  0
   57.3860   31.6699   47.3550 H   0  0  0  0  0  0  0  0  0  0  0  0
   59.1417   34.4709   43.5641 H   0  0  0  0  0  0  0  0  0  0  0  0
  1  2  1  0
  2  3  1  0
  3  4  2  0
  4  5  1  0
  5  6  2  0
  6  7  1  0
  7  8  1  0
  8  9  2  0
  9 10  1  0
 10  2  2  0
  9  5  1  0
  1 11  1  0
  1 12  1  0
  1 13  1  0
  3 14  1  0
  4 15  1  0
 10 16  1  0
M  END
>  <UniqueID>  (37) 
36

>  <SMILES>  (37) 
Cc1ccc2nsnc2c1

>  <Energy>  (37) 
53.364795322051606

>  <Genealogy>  (37) 
Cc1ccc2nsnc2c1 (3D coordinates assigned)
Cc1ccc2nsnc2c1 (optimized conformer: 53.364795322051606 kcal/mol)

>  <smiles>  (37) 
Cc1ccc2nsnc2c1

>  <score_type>  (37) 
oracle

>  <origin>  (37) 
adg

>  <m_score__min__energy>  (37) 
-5.2800000000000002

>  <m_primary>  (37) 
energy

$$$$
37:0
     RDKit          3D

 38 39  0  0  0  0  0  0  0  0999 V2000
   55.1540   29.2930   45.0330 O   0  0  0  0  0  0  0  0  0  0  0  0
   55.4640   29.7640   43.7510 C   0  0  0  0  0  0  0  0  0  0  0  0
   56.9800   29.6690   43.5290 C   0  0  0  0  0  0  0  0  0  0  0  0
   57.7620   29.4310   44.7770 N   0  0  1  0  0  0  0  0  0  0  0  0
   58.7760   28.3590   44.5320 C   0  0  0  0  0  0  0  0  0  0  0  0
   58.3810   27.0150   45.1640 C   0  0  0  0  0  0  0  0  0  0  0  0
   57.1880   27.1150   45.8550 F   0  0  0  0  0  0  0  0  0  0  0  0
   58.4140   30.6550   45.3630 C   0  0  2  0  0  0  0  0  0  0  0  0
   58.6920   30.5160   46.8990 C   0  0  0  0  0  0  0  0  0  0  0  0
   58.5360   31.8200   47.7090 C   0  0  0  0  0  0  0  0  0  0  0  0
   58.9300   33.0360   46.9130 C   0  0  0  0  0  0  0  0  0  0  0  0
   59.6360   34.0950   47.5040 C   0  0  0  0  0  0  0  0  0  0  0  0
   59.9370   35.2390   46.7580 C   0  0  0  0  0  0  0  0  0  0  0  0
   59.5210   35.3370   45.4270 C   0  0  0  0  0  0  0  0  0  0  0  0
   58.8040   34.2930   44.8360 C   0  0  0  0  0  0  0  0  0  0  0  0
   58.5100   33.1380   45.5770 C   0  0  0  0  0  0  0  0  0  0  0  0
   57.7310   31.9980   44.9810 C   0  0  0  0  0  0  0  0  0  0  0  0
   55.1400   30.0890   45.6250 H   0  0  0  0  0  0  0  0  0  0  0  0
   54.9434   29.1528   42.9990 H   0  0  0  0  0  0  0  0  0  0  0  0
   55.1423   30.8115   43.6553 H   0  0  0  0  0  0  0  0  0  0  0  0
   57.1765   28.8393   42.8341 H   0  0  0  0  0  0  0  0  0  0  0  0
   57.3049   30.6413   43.1302 H   0  0  0  0  0  0  0  0  0  0  0  0
   57.0790   29.0550   45.4770 H   0  0  0  0  0  0  0  0  0  0  0  0
   58.8852   28.2191   43.4464 H   0  0  0  0  0  0  0  0  0  0  0  0
   59.7195   28.6809   44.9970 H   0  0  0  0  0  0  0  0  0  0  0  0
   58.2720   26.2634   44.3683 H   0  0  0  0  0  0  0  0  0  0  0  0
   59.1687   26.7205   45.8731 H   0  0  0  0  0  0  0  0  0  0  0  0
   59.3981   30.7083   44.8744 H   0  0  0  0  0  0  0  0  0  0  0  0
   57.9899   29.7742   47.3074 H   0  0  0  0  0  0  0  0  0  0  0  0
   59.7464   30.2176   46.9955 H   0  0  0  0  0  0  0  0  0  0  0  0
   57.4845   31.9228   48.0154 H   0  0  0  0  0  0  0  0  0  0  0  0
   59.2034   31.7571   48.5811 H   0  0  0  0  0  0  0  0  0  0  0  0
   59.9530   34.0253   48.5550 H   0  0  0  0  0  0  0  0  0  0  0  0
   60.5018   36.0627   47.2191 H   0  0  0  0  0  0  0  0  0  0  0  0
   59.7587   36.2384   44.8431 H   0  0  0  0  0  0  0  0  0  0  0  0
   58.4705   34.3765   43.7911 H   0  0  0  0  0  0  0  0  0  0  0  0
   56.7027   32.0116   45.3715 H   0  0  0  0  0  0  0  0  0  0  0  0
   57.7062   32.1008   43.8861 H   0  0  0  0  0  0  0  0  0  0  0  0
  1  2  1  0
  2  3  1  0
  3  4  1  0
  4  5  1  0
  5  6  1  0
  6  7  1  0
  4  8  1  0
  8  9  1  0
  9 10  1  0
 10 11  1  0
 11 12  2  0
 12 13  1  0
 13 14  2  0
 14 15  1  0
 15 16  2  0
 16 17  1  0
 17  8  1  0
 16 11  1  0
  1 18  1  0
  2 19  1  0
  2 20  1  0
  3 21  1  0
  3 22  1  0
  4 23  1  1
  5 24  1  0
  5 25  1  0
  6 26  1  0
  6 27  1  0
  8 28  1  6
  9 29  1  0
  9 30  1  0
 10 31  1  0
 10 32  1  0
 12 33  1  0
 13 34  1  0
 14 35  1  0
 15 36  1  0
 17 37  1  0
 17 38  1  0
M  CHG  1   4   1
M  END
>  <UniqueID>  (38) 
37

>  <SMILES>  (38) 
OCC[N@@H+](CCF)[C@@H]1CCc2ccccc2C1

>  <Energy>  (38) 
53.41096819446864

>  <Genealogy>  (38) 
OCC[NH+](CCF)C1CCc2ccccc2C1 (protonated)
OCC[N@@H+](CCF)[C@@H]1CCc2ccccc2C1 (chirality)
OCC[N@@H+](CCF)[C@@H]1CCc2ccccc2C1 (3D coordinates assigned)
OCC[N@@H+](CCF)[C@@H]1CCc2ccccc2C1 (nonaromatic ring conformer: 53.41096819446864 kcal/mol)

>  <smiles>  (38) 
OCCN(CCF)C1CCc2ccccc2C1

>  <score_type>  (38) 
oracle

>  <origin>  (38) 
adg

>  <m_score__min__energy>  (38) 
-5.1100000000000003

>  <m_primary>  (38) 
energy

$$$$
38:0
     RDKit          3D

 46 47  0  0  0  0  0  0  0  0999 V2000
   62.6950   34.2290   50.2000 C   0  0  0  0  0  0  0  0  0  0  0  0
   61.2180   33.8590   50.0590 C   0  0  0  0  0  0  0  0  0  0  0  0
   60.5550   34.5200   48.8320 C   0  0  0  0  0  0  0  0  0  0  0  0
   60.3690   33.5720   47.6850 N   0  0  0  0  0  0  0  0  0  0  0  0
   61.1980   34.0100   46.5240 C   0  0  0  0  0  0  0  0  0  0  0  0
   62.7310   33.8480   46.7150 C   0  0  0  0  0  0  0  0  0  0  0  0
   63.1030   32.4570   47.2250 C   0  0  0  0  0  0  0  0  0  0  0  0
   58.9120   33.3420   47.3800 C   0  0  0  0  0  0  0  0  0  0  0  0
   58.4870   31.8420   47.5700 C   0  0  0  0  0  0  0  0  0  0  0  0
   59.0540   30.8400   46.5530 C   0  0  0  0  0  0  0  0  0  0  0  0
   58.1810   30.7550   45.3330 C   0  0  0  0  0  0  0  0  0  0  0  0
   57.5130   29.5540   45.0400 C   0  0  0  0  0  0  0  0  0  0  0  0
   56.7590   29.4320   43.8710 C   0  0  0  0  0  0  0  0  0  0  0  0
   56.6710   30.5020   42.9830 C   0  0  0  0  0  0  0  0  0  0  0  0
   57.3360   31.6980   43.2580 C   0  0  0  0  0  0  0  0  0  0  0  0
   58.1110   31.8350   44.4250 C   0  0  0  0  0  0  0  0  0  0  0  0
   58.8030   33.1540   44.7010 C   0  0  0  0  0  0  0  0  0  0  0  0
   58.4080   33.8970   46.0080 C   0  0  0  0  0  0  0  0  0  0  0  0
   62.9564   34.2945   51.2665 H   0  0  0  0  0  0  0  0  0  0  0  0
   63.3138   33.4581   49.7175 H   0  0  0  0  0  0  0  0  0  0  0  0
   62.8773   35.2006   49.7175 H   0  0  0  0  0  0  0  0  0  0  0  0
   61.1366   32.7667   49.9577 H   0  0  0  0  0  0  0  0  0  0  0  0
   60.6962   34.2233   50.9562 H   0  0  0  0  0  0  0  0  0  0  0  0
   59.5693   34.9057   49.1314 H   0  0  0  0  0  0  0  0  0  0  0  0
   61.2236   35.3236   48.4897 H   0  0  0  0  0  0  0  0  0  0  0  0
   60.7660   32.6520   47.9710 H   0  0  0  0  0  0  0  0  0  0  0  0
   60.8986   33.4167   45.6475 H   0  0  0  0  0  0  0  0  0  0  0  0
   61.0149   35.0880   46.4042 H   0  0  0  0  0  0  0  0  0  0  0  0
   63.2285   34.0161   45.7485 H   0  0  0  0  0  0  0  0  0  0  0  0
   63.0582   34.5825   47.4656 H   0  0  0  0  0  0  0  0  0  0  0  0
   63.1028   32.4576   48.3250 H   0  0  0  0  0  0  0  0  0  0  0  0
   62.3694   31.7238   46.8586 H   0  0  0  0  0  0  0  0  0  0  0  0
   64.1047   32.1879   46.8586 H   0  0  0  0  0  0  0  0  0  0  0  0
   58.4002   33.9537   48.1376 H   0  0  0  0  0  0  0  0  0  0  0  0
   58.8146   31.5251   48.5711 H   0  0  0  0  0  0  0  0  0  0  0  0
   57.3971   31.8249   47.4222 H   0  0  0  0  0  0  0  0  0  0  0  0
   60.0611   31.1644   46.2522 H   0  0  0  0  0  0  0  0  0  0  0  0
   59.0925   29.8471   47.0249 H   0  0  0  0  0  0  0  0  0  0  0  0
   57.5844   28.7049   45.7356 H   0  0  0  0  0  0  0  0  0  0  0  0
   56.2342   28.4906   43.6511 H   0  0  0  0  0  0  0  0  0  0  0  0
   56.0760   30.4040   42.0630 H   0  0  0  0  0  0  0  0  0  0  0  0
   57.2537   32.5412   42.5563 H   0  0  0  0  0  0  0  0  0  0  0  0
   59.8847   32.9589   44.7439 H   0  0  0  0  0  0  0  0  0  0  0  0
   58.4846   33.8203   43.8857 H   0  0  0  0  0  0  0  0  0  0  0  0
   58.7847   34.9267   45.9193 H   0  0  0  0  0  0  0  0  0  0  0  0
   57.3161   33.7745   46.0601 H   0  0  0  0  0  0  0  0  0  0  0  0
  1  2  1  0
  2  3  1  0
  3  4  1  0
  4  5  1  0
  5  6  1  0
  6  7  1  0
  4  8  1  0
  8  9  1  0
  9 10  1  0
 10 11  1  0
 11 12  2  0
 12 13  1  0
 13 14  2  0
 14 15  1  0
 15 16  2  0
 16 17  1  0
 17 18  1  0
 18  8  1  0
 16 11  1  0
  1 19  1  0
  1 20  1  0
  1 21  1  0
  2 22  1  0
  2 23  1  0
  3 24  1  0
  3 25  1  0
  4 26  1  0
  5 27  1  0
  5 28  1  0
  6 29  1  0
  6 30  1  0
  7 31  1  0
  7 32  1  0
  7 33  1  0
  8 34  1  0
  9 35  1  0
  9 36  1  0
 10 37  1  0
 10 38  1  0
 12 39  1  0
 13 40  1  0
 14 41  1  0
 15 42  1  0
 17 43  1  0
 17 44  1  0
 18 45  1  0
 18 46  1  0
M  CHG  1   4   1
M  END
>  <UniqueID>  (39) 
38

>  <SMILES>  (39) 
CCC[NH+](CCC)C1CCc2ccccc2CC1

>  <Energy>  (39) 
65.58705451908904

>  <Genealogy>  (39) 
CCC[NH+](CCC)C1CCc2ccccc2CC1 (protonated)
CCC[NH+](CCC)C1CCc2ccccc2CC1 (3D coordinates assigned)
CCC[NH+](CCC)C1CCc2ccccc2CC1 (nonaromatic ring conformer: 65.58705451908904 kcal/mol)

>  <smiles>  (39) 
CCCN(CCC)C1CCc2ccccc2CC1

>  <score_type>  (39) 
oracle

>  <origin>  (39) 
adg

>  <m_score__min__energy>  (39) 
-3.7000000000000002

>  <m_primary>  (39) 
energy

$$$$
39:0
     RDKit          3D

 40 43  0  0  0  0  0  0  0  0999 V2000
   64.3590   33.5430   50.1300 C   0  0  0  0  0  0  0  0  0  0  0  0
   63.2040   34.0990   50.6860 C   0  0  0  0  0  0  0  0  0  0  0  0
   62.0370   34.2010   49.9220 C   0  0  0  0  0  0  0  0  0  0  0  0
   62.0160   33.7490   48.5900 C   0  0  0  0  0  0  0  0  0  0  0  0
   60.8160   33.8440   47.7990 N   0  0  0  0  0  0  0  0  0  0  0  0
   60.0300   34.9410   47.6540 C   0  0  0  0  0  0  0  0  0  0  0  0
   58.9470   34.6680   46.8210 C   0  0  0  0  0  0  0  0  0  0  0  0
   59.0920   33.3450   46.4640 C   0  0  0  0  0  0  0  0  0  0  0  0
   58.3030   32.5190   45.6740 C   0  0  0  0  0  0  0  0  0  0  0  0
   58.7080   31.1730   45.5160 C   0  0  0  0  0  0  0  0  0  0  0  0
   57.9290   30.2620   44.7130 N   0  0  0  0  0  0  0  0  0  0  0  0
   57.9020   28.8280   45.0360 C   0  0  0  0  0  0  0  0  0  0  0  0
   57.7730   27.9590   43.7660 C   0  0  0  0  0  0  0  0  0  0  0  0
   57.0200   28.5980   42.6620 N   0  0  0  0  0  0  0  0  0  0  0  0
   56.1380   29.6820   43.1110 C   0  0  0  0  0  0  0  0  0  0  0  0
   56.9690   30.8030   43.7410 C   0  0  0  0  0  0  0  0  0  0  0  0
   59.8870   30.7320   46.1790 C   0  0  0  0  0  0  0  0  0  0  0  0
   60.6220   31.5900   46.9460 N   0  0  0  0  0  0  0  0  0  0  0  0
   60.2240   32.8810   47.0650 C   0  0  0  0  0  0  0  0  0  0  0  0
   63.1810   33.1820   48.0450 C   0  0  0  0  0  0  0  0  0  0  0  0
   64.3480   33.0830   48.8120 C   0  0  0  0  0  0  0  0  0  0  0  0
   65.2772   33.4677   50.7310 H   0  0  0  0  0  0  0  0  0  0  0  0
   63.2126   34.4570   51.7261 H   0  0  0  0  0  0  0  0  0  0  0  0
   61.1298   34.6374   50.3654 H   0  0  0  0  0  0  0  0  0  0  0  0
   60.2220   35.9140   48.1298 H   0  0  0  0  0  0  0  0  0  0  0  0
   58.1484   35.3595   46.5144 H   0  0  0  0  0  0  0  0  0  0  0  0
   57.3928   32.8991   45.1871 H   0  0  0  0  0  0  0  0  0  0  0  0
   58.8338   28.5622   45.5567 H   0  0  0  0  0  0  0  0  0  0  0  0
   57.0260   28.6364   45.6731 H   0  0  0  0  0  0  0  0  0  0  0  0
   58.7853   27.7273   43.4032 H   0  0  0  0  0  0  0  0  0  0  0  0
   57.2058   27.0620   44.0553 H   0  0  0  0  0  0  0  0  0  0  0  0
   56.4380   27.8730   42.1800 H   0  0  0  0  0  0  0  0  0  0  0  0
   57.6940   28.9790   41.9570 H   0  0  0  0  0  0  0  0  0  0  0  0
   55.5819   30.0803   42.2495 H   0  0  0  0  0  0  0  0  0  0  0  0
   55.4335   29.2893   43.8590 H   0  0  0  0  0  0  0  0  0  0  0  0
   57.5185   31.3326   42.9488 H   0  0  0  0  0  0  0  0  0  0  0  0
   56.2898   31.4920   44.2644 H   0  0  0  0  0  0  0  0  0  0  0  0
   60.2107   29.6861   46.0724 H   0  0  0  0  0  0  0  0  0  0  0  0
   63.1757   32.8135   47.0086 H   0  0  0  0  0  0  0  0  0  0  0  0
   65.2567   32.6425   48.3759 H   0  0  0  0  0  0  0  0  0  0  0  0
  1  2  2  0
  2  3  1  0
  3  4  2  0
  4  5  1  0
  5  6  1  0
  6  7  2  0
  7  8  1  0
  8  9  2  0
  9 10  1  0
 10 11  1  0
 11 12  1  0
 12 13  1  0
 13 14  1  0
 14 15  1  0
 15 16  1  0
 10 17  2  0
 17 18  1  0
 18 19  2  0
  4 20  1  0
 20 21  2  0
 21  1  1  0
 19  5  1  0
 19  8  1  0
 16 11  1  0
  1 22  1  0
  2 23  1  0
  3 24  1  0
  6 25  1  0
  7 26  1  0
  9 27  1  0
 12 28  1  0
 12 29  1  0
 13 30  1  0
 13 31  1  0
 14 32  1  0
 14 33  1  0
 15 34  1  0
 15 35  1  0
 16 36  1  0
 16 37  1  0
 17 38  1  0
 20 39  1  0
 21 40  1  0
M  CHG  1  14   1
M  END
>  <UniqueID>  (40) 
39

>  <SMILES>  (40) 
c1ccc(-n2ccc3cc(N4CC[NH2+]CC4)cnc32)cc1

>  <Energy>  (40) 
91.14527001718523

>  <Genealogy>  (40) 
c1ccc(-n2ccc3cc(N4CC[NH2+]CC4)cnc32)cc1 (protonated)
c1ccc(-n2ccc3cc(N4CC[NH2+]CC4)cnc32)cc1 (3D coordinates assigned)
c1ccc(-n2ccc3cc(N4CC[NH2+]CC4)cnc32)cc1 (nonaromatic ring conformer: 91.14527001718523 kcal/mol)

>  <smiles>  (40) 
c1ccc(-n2ccc3cc(N4CCNCC4)cnc32)cc1

>  <score_type>  (40) 
oracle

>  <origin>  (40) 
adg

>  <m_score__min__energy>  (40) 
-5.8799999999999999

>  <m_primary>  (40) 
energy

$$$$
40:0
     RDKit          3D

 51 54  0  0  0  0  0  0  0  0999 V2000
   60.8020   34.2470   48.9870 C   0  0  0  0  0  0  0  0  0  0  0  0
   60.8920   33.8430   47.5830 N   0  0  0  0  0  0  0  0  0  0  0  0
   62.1840   33.4650   47.0140 C   0  0  0  0  0  0  0  0  0  0  0  0
   59.7340   33.8950   46.7310 C   0  0  0  0  0  0  0  0  0  0  0  0
   59.6730   34.8600   45.7130 C   0  0  0  0  0  0  0  0  0  0  0  0
   58.5580   34.9350   44.8770 C   0  0  0  0  0  0  0  0  0  0  0  0
   57.4870   34.0580   45.0580 C   0  0  0  0  0  0  0  0  0  0  0  0
   57.5300   33.1010   46.0740 C   0  0  0  0  0  0  0  0  0  0  0  0
   58.6540   33.0000   46.9070 C   0  0  0  0  0  0  0  0  0  0  0  0
   58.6640   32.0170   48.0060 C   0  0  0  0  0  0  0  0  0  0  0  0
   58.1520   32.3140   49.2280 N   0  0  0  0  0  0  0  0  0  0  0  0
   58.5280   31.2650   49.9780 C   0  0  0  0  0  0  0  0  0  0  0  0
   58.3050   31.0820   51.3410 C   0  0  0  0  0  0  0  0  0  0  0  0
   58.8670   29.9460   51.9510 C   0  0  0  0  0  0  0  0  0  0  0  0
   59.6450   29.0430   51.1940 C   0  0  0  0  0  0  0  0  0  0  0  0
   59.8610   29.2630   49.8220 C   0  0  0  0  0  0  0  0  0  0  0  0
   59.2600   30.3810   49.2390 C   0  0  0  0  0  0  0  0  0  0  0  0
   59.3390   30.8310   47.9710 N   0  0  0  0  0  0  0  0  0  0  0  0
   60.0910   30.2550   46.8450 C   0  0  0  0  0  0  0  0  0  0  0  0
   59.2360   30.0210   45.5590 C   0  0  0  0  0  0  0  0  0  0  0  0
   57.7460   29.7130   45.8350 C   0  0  0  0  0  0  0  0  0  0  0  0
   57.0100   29.3730   44.5290 C   0  0  0  0  0  0  0  0  0  0  0  0
   57.6410   28.2890   43.7440 N   0  0  0  0  0  0  0  0  0  0  0  0
   58.9300   27.8180   44.2760 C   0  0  0  0  0  0  0  0  0  0  0  0
   59.8660   28.9970   44.5730 C   0  0  0  0  0  0  0  0  0  0  0  0
   60.9958   33.3772   49.6320 H   0  0  0  0  0  0  0  0  0  0  0  0
   61.5480   35.0290   49.1921 H   0  0  0  0  0  0  0  0  0  0  0  0
   59.7946   34.6384   49.1921 H   0  0  0  0  0  0  0  0  0  0  0  0
   62.8957   33.2568   47.8265 H   0  0  0  0  0  0  0  0  0  0  0  0
   62.0622   32.5648   46.3936 H   0  0  0  0  0  0  0  0  0  0  0  0
   62.5666   34.2889   46.3936 H   0  0  0  0  0  0  0  0  0  0  0  0
   60.5090   35.5611   45.5735 H   0  0  0  0  0  0  0  0  0  0  0  0
   58.5230   35.6863   44.0743 H   0  0  0  0  0  0  0  0  0  0  0  0
   56.6082   34.1209   44.3995 H   0  0  0  0  0  0  0  0  0  0  0  0
   56.6772   32.4222   46.2220 H   0  0  0  0  0  0  0  0  0  0  0  0
   57.7091   31.8021   51.9210 H   0  0  0  0  0  0  0  0  0  0  0  0
   58.6997   29.7603   53.0222 H   0  0  0  0  0  0  0  0  0  0  0  0
   60.0855   28.1607   51.6813 H   0  0  0  0  0  0  0  0  0  0  0  0
   60.4827   28.5773   49.2276 H   0  0  0  0  0  0  0  0  0  0  0  0
   60.9136   30.9403   46.5927 H   0  0  0  0  0  0  0  0  0  0  0  0
   60.4459   29.2670   47.1735 H   0  0  0  0  0  0  0  0  0  0  0  0
   59.2512   30.9971   45.0520 H   0  0  0  0  0  0  0  0  0  0  0  0
   57.6756   28.8571   46.5224 H   0  0  0  0  0  0  0  0  0  0  0  0
   57.2784   30.6021   46.2831 H   0  0  0  0  0  0  0  0  0  0  0  0
   55.9844   29.0652   44.7807 H   0  0  0  0  0  0  0  0  0  0  0  0
   57.0410   30.2770   43.9031 H   0  0  0  0  0  0  0  0  0  0  0  0
   56.9900   27.4690   43.7140 H   0  0  0  0  0  0  0  0  0  0  0  0
   58.7522   27.2569   45.2053 H   0  0  0  0  0  0  0  0  0  0  0  0
   59.4060   27.1739   43.5220 H   0  0  0  0  0  0  0  0  0  0  0  0
   60.7953   28.6076   45.0143 H   0  0  0  0  0  0  0  0  0  0  0  0
   60.0580   29.5197   43.6244 H   0  0  0  0  0  0  0  0  0  0  0  0
  1  2  1  0
  2  3  1  0
  2  4  1  0
  4  5  2  0
  5  6  1  0
  6  7  2  0
  7  8  1  0
  8  9  2  0
  9 10  1  0
 10 11  2  0
 11 12  1  0
 12 13  2  0
 13 14  1  0
 14 15  2  0
 15 16  1  0
 16 17  2  0
 17 18  1  0
 18 19  1  0
 19 20  1  0
 20 21  1  0
 21 22  1  0
 22 23  1  0
 23 24  1  0
 24 25  1  0
  9  4  1  0
 18 10  1  0
 25 20  1  0
 17 12  1  0
  1 26  1  0
  1 27  1  0
  1 28  1  0
  3 29  1  0
  3 30  1  0
  3 31  1  0
  5 32  1  0
  6 33  1  0
  7 34  1  0
  8 35  1  0
 13 36  1  0
 14 37  1  0
 15 38  1  0
 16 39  1  0
 19 40  1  0
 19 41  1  0
 20 42  1  0
 21 43  1  0
 21 44  1  0
 22 45  1  0
 22 46  1  0
 23 47  1  0
 24 48  1  0
 24 49  1  0
 25 50  1  0
 25 51  1  0
M  END
>  <UniqueID>  (41) 
40

>  <SMILES>  (41) 
CN(C)c1ccccc1-c1nc2ccccc2n1CC1CCNCC1

>  <Energy>  (41) 
111.61612161123792

>  <Genealogy>  (41) 
CN(C)c1ccccc1-c1nc2ccccc2n1CC1CCNCC1 (3D coordinates assigned)
CN(C)c1ccccc1-c1nc2ccccc2n1CC1CCNCC1 (nonaromatic ring conformer: 111.61612161123792 kcal/mol)

>  <smiles>  (41) 
CN(C)c1ccccc1-c1nc2ccccc2n1CC1CCNCC1

>  <score_type>  (41) 
oracle

>  <origin>  (41) 
adg

>  <m_score__min__energy>  (41) 
-7.6299999999999999

>  <m_primary>  (41) 
energy

$$$$
41:0
     RDKit          3D

 43 45  0  0  0  0  0  0  0  0999 V2000
   59.4200   34.9610   45.3920 C   0  0  0  0  0  0  0  0  0  0  0  0
   59.4120   33.6380   46.0410 N   0  0  0  0  0  0  0  0  0  0  0  0
   58.0300   33.1220   46.1320 C   0  0  0  0  0  0  0  0  0  0  0  0
   57.7060   32.3210   44.9050 C   0  0  0  0  0  0  0  0  0  0  0  0
   58.1670   32.7150   43.6390 C   0  0  0  0  0  0  0  0  0  0  0  0
   57.7940   31.9740   42.5150 C   0  0  0  0  0  0  0  0  0  0  0  0
   56.9690   30.8580   42.6600 C   0  0  0  0  0  0  0  0  0  0  0  0
   56.5300   30.4940   43.9350 C   0  0  0  0  0  0  0  0  0  0  0  0
   56.9030   31.2270   45.0180 N   0  0  0  0  0  0  0  0  0  0  0  0
   60.0470   33.7110   47.3750 C   0  0  0  0  0  0  0  0  0  0  0  0
   61.3770   33.0070   47.3570 C   0  0  0  0  0  0  0  0  0  0  0  0
   62.5700   33.5580   46.9320 C   0  0  0  0  0  0  0  0  0  0  0  0
   63.5320   32.6230   47.0400 N   0  0  0  0  0  0  0  0  0  0  0  0
   62.9220   31.5230   47.5210 C   0  0  0  0  0  0  0  0  0  0  0  0
   61.6030   31.7230   47.7180 N   0  0  0  0  0  0  0  0  0  0  0  0
   60.6560   30.7400   48.2510 C   0  0  0  0  0  0  0  0  0  0  0  0
   60.0410   29.9330   47.1380 C   0  0  0  0  0  0  0  0  0  0  0  0
   58.7660   29.3630   47.2970 C   0  0  0  0  0  0  0  0  0  0  0  0
   58.2050   28.5920   46.2730 C   0  0  0  0  0  0  0  0  0  0  0  0
   58.9130   28.3840   45.0850 C   0  0  0  0  0  0  0  0  0  0  0  0
   60.1810   28.9460   44.9190 C   0  0  0  0  0  0  0  0  0  0  0  0
   60.7460   29.7160   45.9410 C   0  0  0  0  0  0  0  0  0  0  0  0
   59.4248   35.7469   46.1616 H   0  0  0  0  0  0  0  0  0  0  0  0
   60.3187   35.0564   44.7650 H   0  0  0  0  0  0  0  0  0  0  0  0
   58.5225   35.0672   44.7650 H   0  0  0  0  0  0  0  0  0  0  0  0
   57.9369   32.4817   47.0215 H   0  0  0  0  0  0  0  0  0  0  0  0
   57.3305   33.9674   46.2097 H   0  0  0  0  0  0  0  0  0  0  0  0
   58.8149   33.5976   43.5331 H   0  0  0  0  0  0  0  0  0  0  0  0
   58.1501   32.2698   41.5172 H   0  0  0  0  0  0  0  0  0  0  0  0
   56.6676   30.2713   41.7797 H   0  0  0  0  0  0  0  0  0  0  0  0
   55.8824   29.6142   44.0631 H   0  0  0  0  0  0  0  0  0  0  0  0
   60.1979   34.7658   47.6483 H   0  0  0  0  0  0  0  0  0  0  0  0
   59.3922   33.2221   48.1113 H   0  0  0  0  0  0  0  0  0  0  0  0
   62.7101   34.5863   46.5672 H   0  0  0  0  0  0  0  0  0  0  0  0
   64.5420   32.7290   46.8000 H   0  0  0  0  0  0  0  0  0  0  0  0
   63.4383   30.5741   47.7285 H   0  0  0  0  0  0  0  0  0  0  0  0
   61.1864   30.0631   48.9369 H   0  0  0  0  0  0  0  0  0  0  0  0
   59.8554   31.2740   48.7838 H   0  0  0  0  0  0  0  0  0  0  0  0
   58.2068   29.5238   48.2305 H   0  0  0  0  0  0  0  0  0  0  0  0
   57.2064   28.1492   46.4025 H   0  0  0  0  0  0  0  0  0  0  0  0
   58.4711   27.7774   44.2808 H   0  0  0  0  0  0  0  0  0  0  0  0
   60.7359   28.7828   43.9834 H   0  0  0  0  0  0  0  0  0  0  0  0
   61.7463   30.1537   45.8076 H   0  0  0  0  0  0  0  0  0  0  0  0
  1  2  1  0
  2  3  1  0
  3  4  1  0
  4  5  2  0
  5  6  1  0
  6  7  2  0
  7  8  1  0
  8  9  2  0
  2 10  1  0
 10 11  1  0
 11 12  2  0
 12 13  1  0
 13 14  2  0
 14 15  1  0
 15 16  1  0
 16 17  1  0
 17 18  2  0
 18 19  1  0
 19 20  2  0
 20 21  1  0
 21 22  2  0
  9  4  1  0
 15 11  1  0
 22 17  1  0
  1 23  1  0
  1 24  1  0
  1 25  1  0
  3 26  1  0
  3 27  1  0
  5 28  1  0
  6 29  1  0
  7 30  1  0
  8 31  1  0
 10 32  1  0
 10 33  1  0
 12 34  1  0
 13 35  1  0
 14 36  1  0
 16 37  1  0
 16 38  1  0
 18 39  1  0
 19 40  1  0
 20 41  1  0
 21 42  1  0
 22 43  1  0
M  CHG  1  13   1
M  END
>  <UniqueID>  (42) 
41

>  <SMILES>  (42) 
CN(Cc1ccccn1)Cc1c[nH+]cn1Cc1ccccc1

>  <Energy>  (42) 
72.40127547670079

>  <Genealogy>  (42) 
CN(Cc1ccccn1)Cc1c[nH+]cn1Cc1ccccc1 (protonated)
CN(Cc1ccccn1)Cc1c[nH+]cn1Cc1ccccc1 (3D coordinates assigned)
CN(Cc1ccccn1)Cc1c[nH+]cn1Cc1ccccc1 (optimized conformer: 72.40127547670079 kcal/mol)

>  <smiles>  (42) 
CN(Cc1ccccn1)Cc1cncn1Cc1ccccc1

>  <score_type>  (42) 
oracle

>  <origin>  (42) 
adg

>  <m_score__min__energy>  (42) 
-6.3899999999999997

>  <m_primary>  (42) 
energy

$$$$
42:0
     RDKit          3D

 32 34  0  0  0  0  0  0  0  0999 V2000
   54.4750   24.0950   45.3910 C   0  0  0  0  0  0  0  0  0  0  0  0
   55.1460   24.9420   46.3170 O   0  0  0  0  0  0  0  0  0  0  0  0
   56.2980   25.6850   46.0220 C   0  0  0  0  0  0  0  0  0  0  0  0
   57.5060   24.9990   45.8620 C   0  0  0  0  0  0  0  0  0  0  0  0
   58.6810   25.6930   45.5690 C   0  0  0  0  0  0  0  0  0  0  0  0
   58.6620   27.0820   45.4310 C   0  0  0  0  0  0  0  0  0  0  0  0
   57.4590   27.7940   45.5870 C   0  0  0  0  0  0  0  0  0  0  0  0
   57.4120   29.2680   45.4460 C   0  0  0  0  0  0  0  0  0  0  0  0
   58.3480   30.1890   45.8830 C   0  0  0  0  0  0  0  0  0  0  0  0
   57.8180   31.4100   45.5000 C   0  0  0  0  0  0  0  0  0  0  0  0
   58.4110   32.7520   45.7170 C   0  0  0  0  0  0  0  0  0  0  0  0
   58.7540   33.1650   47.0190 C   0  0  0  0  0  0  0  0  0  0  0  0
   59.3150   34.4260   47.2390 C   0  0  0  0  0  0  0  0  0  0  0  0
   59.5400   35.2900   46.1650 C   0  0  0  0  0  0  0  0  0  0  0  0
   59.2050   34.8930   44.8690 C   0  0  0  0  0  0  0  0  0  0  0  0
   58.6440   33.6320   44.6420 C   0  0  0  0  0  0  0  0  0  0  0  0
   56.6400   31.2040   44.8760 N   0  0  0  0  0  0  0  0  0  0  0  0
   56.4320   29.9190   44.8620 O   0  0  0  0  0  0  0  0  0  0  0  0
   56.2790   27.0870   45.8830 C   0  0  0  0  0  0  0  0  0  0  0  0
   53.8831   23.3478   45.9399 H   0  0  0  0  0  0  0  0  0  0  0  0
   53.8076   24.6990   44.7587 H   0  0  0  0  0  0  0  0  0  0  0  0
   55.2156   23.5835   44.7587 H   0  0  0  0  0  0  0  0  0  0  0  0
   57.5304   23.9044   45.9678 H   0  0  0  0  0  0  0  0  0  0  0  0
   59.6258   25.1432   45.4463 H   0  0  0  0  0  0  0  0  0  0  0  0
   59.5919   27.6221   45.1993 H   0  0  0  0  0  0  0  0  0  0  0  0
   59.2932   29.9962   46.4116 H   0  0  0  0  0  0  0  0  0  0  0  0
   58.5790   32.4897   47.8695 H   0  0  0  0  0  0  0  0  0  0  0  0
   59.5798   34.7386   48.2599 H   0  0  0  0  0  0  0  0  0  0  0  0
   59.9808   36.2825   46.3400 H   0  0  0  0  0  0  0  0  0  0  0  0
   59.3828   35.5741   44.0238 H   0  0  0  0  0  0  0  0  0  0  0  0
   58.3833   33.3257   43.6182 H   0  0  0  0  0  0  0  0  0  0  0  0
   55.3327   27.6340   46.0071 H   0  0  0  0  0  0  0  0  0  0  0  0
  1  2  1  0
  2  3  1  0
  3  4  2  0
  4  5  1  0
  5  6  2  0
  6  7  1  0
  7  8  1  0
  8  9  2  0
  9 10  1  0
 10 11  1  0
 11 12  2  0
 12 13  1  0
 13 14  2  0
 14 15  1  0
 15 16  2  0
 10 17  2  0
 17 18  1  0
  7 19  2  0
 19  3  1  0
 18  8  1  0
 16 11  1  0
  1 20  1  0
  1 21  1  0
  1 22  1  0
  4 23  1  0
  5 24  1  0
  6 25  1  0
  9 26  1  0
 12 27  1  0
 13 28  1  0
 14 29  1  0
 15 30  1  0
 16 31  1  0
 19 32  1  0
M  END
>  <UniqueID>  (43) 
42

>  <SMILES>  (43) 
COc1cccc(-c2cc(-c3ccccc3)no2)c1

>  <Energy>  (43) 
66.8098175664992

>  <Genealogy>  (43) 
COc1cccc(-c2cc(-c3ccccc3)no2)c1 (3D coordinates assigned)
COc1cccc(-c2cc(-c3ccccc3)no2)c1 (optimized conformer: 66.8098175664992 kcal/mol)

>  <smiles>  (43) 
COc1cccc(-c2cc(-c3ccccc3)no2)c1

>  <score_type>  (43) 
oracle

>  <origin>  (43) 
adg

>  <m_score__min__energy>  (43) 
-7.9699999999999998

>  <m_primary>  (43) 
energy

$$$$
43:0
     RDKit          3D

 33 35  0  0  0  0  0  0  0  0999 V2000
   57.4620   31.9660   42.4580 C   0  0  0  0  0  0  0  0  0  0  0  0
   57.8060   31.7470   43.8970 C   0  0  0  0  0  0  0  0  0  0  0  0
   58.6670   32.5770   44.5470 N   0  0  0  0  0  0  0  0  0  0  0  0
   58.8540   32.2260   45.8400 C   0  0  0  0  0  0  0  0  0  0  0  0
   59.7450   32.9620   46.7660 C   0  0  0  0  0  0  0  0  0  0  0  0
   59.2080   33.8810   47.6820 C   0  0  0  0  0  0  0  0  0  0  0  0
   60.0580   34.5710   48.5500 C   0  0  0  0  0  0  0  0  0  0  0  0
   61.3990   34.3540   48.5080 N   0  0  0  0  0  0  0  0  0  0  0  0
   61.9490   33.4710   47.6330 C   0  0  0  0  0  0  0  0  0  0  0  0
   61.1360   32.7610   46.7480 C   0  0  0  0  0  0  0  0  0  0  0  0
   57.9430   30.8620   46.2250 S   0  0  0  0  0  0  0  0  0  0  0  0
   57.2920   30.7060   44.6790 C   0  0  0  0  0  0  0  0  0  0  0  0
   56.3080   29.6780   44.2750 C   0  0  0  0  0  0  0  0  0  0  0  0
   55.7850   29.7320   43.1320 O   0  0  0  0  0  0  0  0  0  0  0  0
   55.8700   28.6590   45.1830 N   0  0  0  0  0  0  0  0  0  0  0  0
   56.6490   27.5400   45.6290 C   0  0  0  0  0  0  0  0  0  0  0  0
   56.0450   26.3210   45.9910 C   0  0  0  0  0  0  0  0  0  0  0  0
   56.8300   25.2550   46.4410 C   0  0  0  0  0  0  0  0  0  0  0  0
   58.2160   25.4020   46.5480 C   0  0  0  0  0  0  0  0  0  0  0  0
   58.8190   26.6190   46.2140 C   0  0  0  0  0  0  0  0  0  0  0  0
   60.5570   26.8070   46.3610 Cl  0  0  0  0  0  0  0  0  0  0  0  0
   58.0350   27.6870   45.7630 C   0  0  0  0  0  0  0  0  0  0  0  0
   56.5360   32.5555   42.3880 H   0  0  0  0  0  0  0  0  0  0  0  0
   58.2809   32.5094   41.9638 H   0  0  0  0  0  0  0  0  0  0  0  0
   57.3162   30.9941   41.9638 H   0  0  0  0  0  0  0  0  0  0  0  0
   58.1227   34.0569   47.7160 H   0  0  0  0  0  0  0  0  0  0  0  0
   59.6409   35.2915   49.2690 H   0  0  0  0  0  0  0  0  0  0  0  0
   63.0379   33.3155   47.6223 H   0  0  0  0  0  0  0  0  0  0  0  0
   61.5819   32.0473   46.0396 H   0  0  0  0  0  0  0  0  0  0  0  0
   54.9533   26.2069   45.9197 H   0  0  0  0  0  0  0  0  0  0  0  0
   56.3564   24.2996   46.7111 H   0  0  0  0  0  0  0  0  0  0  0  0
   58.8328   24.5600   46.8951 H   0  0  0  0  0  0  0  0  0  0  0  0
   58.5101   28.6469   45.5125 H   0  0  0  0  0  0  0  0  0  0  0  0
  1  2  1  0
  2  3  1  0
  3  4  2  0
  4  5  1  0
  5  6  2  0
  6  7  1  0
  7  8  2  0
  8  9  1  0
  9 10  2  0
  4 11  1  0
 11 12  1  0
 12 13  1  0
 13 14  2  0
 13 15  1  0
 15 16  1  0
 16 17  2  0
 17 18  1  0
 18 19  2  0
 19 20  1  0
 20 21  1  0
 20 22  2  0
 12  2  2  0
 22 16  1  0
 10  5  1  0
  1 23  1  0
  1 24  1  0
  1 25  1  0
  6 26  1  0
  7 27  1  0
  9 28  1  0
 10 29  1  0
 17 30  1  0
 18 31  1  0
 19 32  1  0
 22 33  1  0
M  CHG  1  15  -1
M  END
>  <UniqueID>  (44) 
43

>  <SMILES>  (44) 
Cc1nc(-c2ccncc2)sc1C(=O)[N-]c1cccc(Cl)c1

>  <Energy>  (44) 
72.25813878442935

>  <Genealogy>  (44) 
Cc1nc(-c2ccncc2)sc1C(=O)[N-]c1cccc(Cl)c1 (protonated)
Cc1nc(-c2ccncc2)sc1C(=O)[N-]c1cccc(Cl)c1 (3D coordinates assigned)
Cc1nc(-c2ccncc2)sc1C(=O)[N-]c1cccc(Cl)c1 (optimized conformer: 72.25813878442935 kcal/mol)

>  <smiles>  (44) 
Cc1nc(-c2ccncc2)sc1C(=O)Nc1cccc(Cl)c1

>  <score_type>  (44) 
oracle

>  <origin>  (44) 
adg

>  <m_score__min__energy>  (44) 
-9.1600000000000001

>  <m_primary>  (44) 
energy

$$$$
44:0
     RDKit          3D

 31 32  0  0  0  0  0  0  0  0999 V2000
   60.1480   34.5320   47.0950 C   0  0  0  0  0  0  0  0  0  0  0  0
   59.2210   33.6390   46.3250 C   0  0  0  0  0  0  0  0  0  0  0  0
   58.6150   34.0980   45.1450 C   0  0  0  0  0  0  0  0  0  0  0  0
   57.7800   33.2530   44.4070 C   0  0  0  0  0  0  0  0  0  0  0  0
   57.5550   31.9400   44.8340 C   0  0  0  0  0  0  0  0  0  0  0  0
   56.5090   30.8800   43.9110 S   0  0  0  0  0  0  0  0  0  0  0  0
   55.1220   30.5080   44.7820 O   0  0  0  0  0  0  0  0  0  0  0  0
   57.3670   29.4120   43.3820 C   0  0  0  0  0  0  0  0  0  0  0  0
   57.8200   28.6250   44.5820 C   0  0  0  0  0  0  0  0  0  0  0  0
   59.1940   28.4270   44.8060 C   0  0  0  0  0  0  0  0  0  0  0  0
   59.6290   27.6710   45.8990 C   0  0  0  0  0  0  0  0  0  0  0  0
   58.7000   27.1010   46.7710 C   0  0  0  0  0  0  0  0  0  0  0  0
   57.3320   27.2800   46.5500 C   0  0  0  0  0  0  0  0  0  0  0  0
   56.8880   28.0340   45.4590 C   0  0  0  0  0  0  0  0  0  0  0  0
   55.5200   28.1890   45.2520 O   0  0  0  0  0  0  0  0  0  0  0  0
   58.1720   31.4720   46.0000 C   0  0  0  0  0  0  0  0  0  0  0  0
   59.0070   32.3160   46.7390 C   0  0  0  0  0  0  0  0  0  0  0  0
   59.9912   34.3809   48.1732 H   0  0  0  0  0  0  0  0  0  0  0  0
   61.1894   34.2882   46.8382 H   0  0  0  0  0  0  0  0  0  0  0  0
   59.9432   35.5818   46.8382 H   0  0  0  0  0  0  0  0  0  0  0  0
   58.7976   35.1262   44.7994 H   0  0  0  0  0  0  0  0  0  0  0  0
   57.2992   33.6216   43.4889 H   0  0  0  0  0  0  0  0  0  0  0  0
   55.4580   30.0890   45.6130 H   0  0  0  0  0  0  0  0  0  0  0  0
   56.6909   28.7933   42.7737 H   0  0  0  0  0  0  0  0  0  0  0  0
   58.2446   29.7001   42.7846 H   0  0  0  0  0  0  0  0  0  0  0  0
   59.9301   28.8688   44.1183 H   0  0  0  0  0  0  0  0  0  0  0  0
   60.7055   27.5252   46.0719 H   0  0  0  0  0  0  0  0  0  0  0  0
   59.0450   26.5106   47.6326 H   0  0  0  0  0  0  0  0  0  0  0  0
   56.6018   26.8264   47.2364 H   0  0  0  0  0  0  0  0  0  0  0  0
   57.9998   30.4387   46.3356 H   0  0  0  0  0  0  0  0  0  0  0  0
   59.4981   31.9407   47.6489 H   0  0  0  0  0  0  0  0  0  0  0  0
  1  2  1  0
  2  3  2  0
  3  4  1  0
  4  5  2  0
  5  6  1  0
  6  7  1  1
  6  8  1  0
  8  9  1  0
  9 10  2  0
 10 11  1  0
 11 12  2  0
 12 13  1  0
 13 14  2  0
 14 15  1  0
  5 16  1  0
 16 17  2  0
 17  2  1  0
 14  9  1  0
  1 18  1  0
  1 19  1  0
  1 20  1  0
  3 21  1  0
  4 22  1  0
  7 23  1  0
  8 24  1  0
  8 25  1  0
 10 26  1  0
 11 27  1  0
 12 28  1  0
 13 29  1  0
 16 30  1  0
 17 31  1  0
M  CHG  2   6   1  15  -1
M  END
>  <UniqueID>  (45) 
44

>  <SMILES>  (45) 
Cc1ccc([S@+](O)Cc2ccccc2[O-])cc1

>  <Energy>  (45) 
26.095651770403993

>  <Genealogy>  (45) 
Cc1ccc([S+](O)Cc2ccccc2[O-])cc1 (protonated)
Cc1ccc([S@+](O)Cc2ccccc2[O-])cc1 (chirality)
Cc1ccc([S@+](O)Cc2ccccc2[O-])cc1 (3D coordinates assigned)
Cc1ccc([S@+](O)Cc2ccccc2[O-])cc1 (optimized conformer: 26.095651770403993 kcal/mol)

>  <smiles>  (45) 
Cc1ccc([S+]([O-])Cc2ccccc2O)cc1

>  <score_type>  (45) 
oracle

>  <origin>  (45) 
adg

>  <m_score__min__energy>  (45) 
-9.5899999999999999

>  <m_primary>  (45) 
energy

$$$$
45:0
     RDKit          3D

 28 30  0  0  0  0  0  0  0  0999 V2000
   57.7730   32.0410   41.9560 C   0  0  0  0  0  0  0  0  0  0  0  0
   57.0730   31.2120   42.9320 N   0  0  0  0  0  0  0  0  0  0  0  0
   56.2630   30.2230   42.6060 N   0  0  0  0  0  0  0  0  0  0  0  0
   55.8110   29.7190   43.7720 C   0  0  0  0  0  0  0  0  0  0  0  0
   56.3190   30.3620   44.8460 N   0  0  0  0  0  0  0  0  0  0  0  0
   57.1140   31.2900   44.2770 C   0  0  0  0  0  0  0  0  0  0  0  0
   57.9160   32.2590   45.0580 C   0  0  0  0  0  0  0  0  0  0  0  0
   57.7000   33.6330   44.8750 C   0  0  0  0  0  0  0  0  0  0  0  0
   58.5080   34.5660   45.5220 C   0  0  0  0  0  0  0  0  0  0  0  0
   59.5410   34.1210   46.3430 C   0  0  0  0  0  0  0  0  0  0  0  0
   59.7450   32.7900   46.5190 N   0  0  0  0  0  0  0  0  0  0  0  0
   58.9680   31.8460   45.9150 C   0  0  0  0  0  0  0  0  0  0  0  0
   59.2480   30.4230   46.2090 C   0  0  0  0  0  0  0  0  0  0  0  0
   59.8180   29.5710   45.2510 C   0  0  0  0  0  0  0  0  0  0  0  0
   60.0360   28.2640   45.5470 N   0  0  0  0  0  0  0  0  0  0  0  0
   59.6990   27.7570   46.7600 C   0  0  0  0  0  0  0  0  0  0  0  0
   59.1260   28.5560   47.6970 N   0  0  0  0  0  0  0  0  0  0  0  0
   58.8880   29.8690   47.4440 C   0  0  0  0  0  0  0  0  0  0  0  0
   58.3963   32.7792   42.4818 H   0  0  0  0  0  0  0  0  0  0  0  0
   58.4114   31.4049   41.3253 H   0  0  0  0  0  0  0  0  0  0  0  0
   57.0389   32.5638   41.3253 H   0  0  0  0  0  0  0  0  0  0  0  0
   55.1064   28.8772   43.8411 H   0  0  0  0  0  0  0  0  0  0  0  0
   56.8880   33.9759   44.2169 H   0  0  0  0  0  0  0  0  0  0  0  0
   58.3316   35.6432   45.3856 H   0  0  0  0  0  0  0  0  0  0  0  0
   60.1924   34.8484   46.8495 H   0  0  0  0  0  0  0  0  0  0  0  0
   60.0885   29.9623   44.2592 H   0  0  0  0  0  0  0  0  0  0  0  0
   59.8902   26.6973   46.9846 H   0  0  0  0  0  0  0  0  0  0  0  0
   58.4117   30.4983   48.2102 H   0  0  0  0  0  0  0  0  0  0  0  0
  1  2  1  0
  2  3  1  0
  3  4  2  0
  4  5  1  0
  5  6  2  0
  6  7  1  0
  7  8  2  0
  8  9  1  0
  9 10  2  0
 10 11  1  0
 11 12  2  0
 12 13  1  0
 13 14  2  0
 14 15  1  0
 15 16  2  0
 16 17  1  0
 17 18  2  0
  6  2  1  0
 12  7  1  0
 18 13  1  0
  1 19  1  0
  1 20  1  0
  1 21  1  0
  4 22  1  0
  8 23  1  0
  9 24  1  0
 10 25  1  0
 14 26  1  0
 16 27  1  0
 18 28  1  0
M  END
>  <UniqueID>  (46) 
45

>  <SMILES>  (46) 
Cn1ncnc1-c1cccnc1-c1cncnc1

>  <Energy>  (46) 
76.61549447059734

>  <Genealogy>  (46) 
Cn1ncnc1-c1cccnc1-c1cncnc1 (3D coordinates assigned)
Cn1ncnc1-c1cccnc1-c1cncnc1 (optimized conformer: 76.61549447059734 kcal/mol)

>  <smiles>  (46) 
Cn1ncnc1-c1cccnc1-c1cncnc1

>  <score_type>  (46) 
oracle

>  <origin>  (46) 
adg

>  <m_score__min__energy>  (46) 
-6.25

>  <m_primary>  (46) 
energy

$$$$
46:0
     RDKit          3D

 48 51  0  0  0  0  0  0  0  0999 V2000
   56.8090   23.3430   43.4110 C   0  0  0  0  0  0  0  0  0  0  0  0
   57.1430   24.7120   43.9410 C   0  0  0  0  0  0  0  0  0  0  0  0
   57.7230   25.6590   43.0830 C   0  0  0  0  0  0  0  0  0  0  0  0
   58.0390   26.9380   43.5420 C   0  0  0  0  0  0  0  0  0  0  0  0
   57.7840   27.3040   44.8750 C   0  0  0  0  0  0  0  0  0  0  0  0
   58.1090   28.6620   45.3790 C   0  0  0  0  0  0  0  0  0  0  0  0
   59.3480   28.9590   45.9650 C   0  0  0  0  0  0  0  0  0  0  0  0
   59.5950   30.2490   46.4240 C   0  0  0  0  0  0  0  0  0  0  0  0
   58.6060   31.2310   46.2930 C   0  0  0  0  0  0  0  0  0  0  0  0
   58.8260   32.5680   46.7830 N   0  0  0  0  0  0  0  0  0  0  0  0
   58.8830   33.7180   45.8760 C   0  0  0  0  0  0  0  0  0  0  0  0
   60.2100   34.4800   46.0610 C   0  0  0  0  0  0  0  0  0  0  0  0
   60.7700   34.3920   47.4340 N   0  0  0  0  0  0  0  0  0  0  0  0
   61.8500   33.3930   47.5030 C   0  0  0  0  0  0  0  0  0  0  0  0
   63.0860   33.7980   46.7170 C   0  0  0  0  0  0  0  0  0  0  0  0
   63.0920   33.8790   48.2340 C   0  0  0  0  0  0  0  0  0  0  0  0
   59.7410   34.1340   48.4630 C   0  0  0  0  0  0  0  0  0  0  0  0
   59.0050   32.8040   48.2190 C   0  0  0  0  0  0  0  0  0  0  0  0
   57.4090   30.8880   45.7370 N   0  0  0  0  0  0  0  0  0  0  0  0
   57.1760   29.6510   45.2950 N   0  0  0  0  0  0  0  0  0  0  0  0
   57.1830   26.3640   45.7310 C   0  0  0  0  0  0  0  0  0  0  0  0
   56.8550   25.0740   45.2780 C   0  0  0  0  0  0  0  0  0  0  0  0
   56.2270   24.0940   46.2340 C   0  0  0  0  0  0  0  0  0  0  0  0
   56.6411   22.6549   44.2526 H   0  0  0  0  0  0  0  0  0  0  0  0
   55.8984   23.3998   42.7966 H   0  0  0  0  0  0  0  0  0  0  0  0
   57.6435   22.9740   42.7966 H   0  0  0  0  0  0  0  0  0  0  0  0
   57.9308   25.3899   42.0369 H   0  0  0  0  0  0  0  0  0  0  0  0
   58.4921   27.6671   42.8541 H   0  0  0  0  0  0  0  0  0  0  0  0
   60.1177   28.1790   46.0609 H   0  0  0  0  0  0  0  0  0  0  0  0
   60.5618   30.4958   46.8871 H   0  0  0  0  0  0  0  0  0  0  0  0
   58.8093   33.3646   44.8369 H   0  0  0  0  0  0  0  0  0  0  0  0
   58.0467   34.3953   46.1039 H   0  0  0  0  0  0  0  0  0  0  0  0
   60.9481   34.0650   45.3590 H   0  0  0  0  0  0  0  0  0  0  0  0
   59.9965   35.5423   45.8715 H   0  0  0  0  0  0  0  0  0  0  0  0
   61.2146   32.4970   47.5621 H   0  0  0  0  0  0  0  0  0  0  0  0
   63.6873   33.0323   46.2049 H   0  0  0  0  0  0  0  0  0  0  0  0
   63.2905   34.5054   45.8999 H   0  0  0  0  0  0  0  0  0  0  0  0
   63.6972   33.1719   48.8202 H   0  0  0  0  0  0  0  0  0  0  0  0
   63.3023   34.6690   48.9700 H   0  0  0  0  0  0  0  0  0  0  0  0
   60.2263   34.0960   49.4494 H   0  0  0  0  0  0  0  0  0  0  0  0
   59.0009   34.9465   48.4159 H   0  0  0  0  0  0  0  0  0  0  0  0
   59.5939   31.9808   48.6498 H   0  0  0  0  0  0  0  0  0  0  0  0
   58.0150   32.8544   48.6958 H   0  0  0  0  0  0  0  0  0  0  0  0
   56.6550   31.6020   45.6340 H   0  0  0  0  0  0  0  0  0  0  0  0
   56.9658   26.6427   46.7727 H   0  0  0  0  0  0  0  0  0  0  0  0
   56.4293   24.4096   47.2681 H   0  0  0  0  0  0  0  0  0  0  0  0
   55.1403   24.0629   46.0660 H   0  0  0  0  0  0  0  0  0  0  0  0
   56.6528   23.0937   46.0660 H   0  0  0  0  0  0  0  0  0  0  0  0
  1  2  1  0
  2  3  2  0
  3  4  1  0
  4  5  2  0
  5  6  1  0
  6  7  2  0
  7  8  1  0
  8  9  2  0
  9 10  1  0
 10 11  1  0
 11 12  1  0
 12 13  1  0
 13 14  1  0
 14 15  1  0
 15 16  1  0
 13 17  1  0
 17 18  1  0
  9 19  1  0
 19 20  2  0
  5 21  1  0
 21 22  2  0
 22 23  1  0
 22  2  1  0
 20  6  1  0
 18 10  1  0
 16 14  1  0
  1 24  1  0
  1 25  1  0
  1 26  1  0
  3 27  1  0
  4 28  1  0
  7 29  1  0
  8 30  1  0
 11 31  1  0
 11 32  1  0
 12 33  1  0
 12 34  1  0
 14 35  1  0
 15 36  1  0
 15 37  1  0
 16 38  1  0
 16 39  1  0
 17 40  1  0
 17 41  1  0
 18 42  1  0
 18 43  1  0
 19 44  1  0
 21 45  1  0
 23 46  1  0
 23 47  1  0
 23 48  1  0
M  CHG  1  19   1
M  END
>  <UniqueID>  (47) 
46

>  <SMILES>  (47) 
Cc1ccc(-c2ccc(N3CCN(C4CC4)CC3)[nH+]n2)cc1C

>  <Energy>  (47) 
328.9103649719887

>  <Genealogy>  (47) 
Cc1ccc(-c2ccc(N3CCN(C4CC4)CC3)[nH+]n2)cc1C (protonated)
Cc1ccc(-c2ccc(N3CCN(C4CC4)CC3)[nH+]n2)cc1C (3D coordinates assigned)
Cc1ccc(-c2ccc(N3CCN(C4CC4)CC3)[nH+]n2)cc1C (nonaromatic ring conformer: 328.9103649719887 kcal/mol)

>  <smiles>  (47) 
Cc1ccc(-c2ccc(N3CCN(C4CC4)CC3)nn2)cc1C

>  <score_type>  (47) 
oracle

>  <origin>  (47) 
adg

>  <m_score__min__energy>  (47) 
-6.4000000000000004

>  <m_primary>  (47) 
energy

$$$$
