0:0
     RDKit          3D

 70 71  0  0  0  0  0  0  0  0999 V2000
   63.8603   33.7480   49.4553 H   0  0  0  0  0  0  0  0  0  0  0  0
   62.8000   33.4550   49.4560 C   0  0  0  0  0  0  0  0  0  0  0  0
   62.3960   32.4590   48.6550 C   0  0  0  0  0  0  0  0  0  0  0  0
   62.4719   31.4167   48.9984 H   0  0  0  0  0  0  0  0  0  0  0  0
   61.8380   32.7580   47.2860 C   0  0  0  0  0  0  0  0  0  0  0  0
   62.2840   33.6941   46.9187 H   0  0  0  0  0  0  0  0  0  0  0  0
   62.0851   31.9111   46.6290 H   0  0  0  0  0  0  0  0  0  0  0  0
   60.3630   32.9060   47.3010 N   0  0  0  0  0  0  0  0  0  0  0  0
   60.1360   33.8200   47.7590 H   0  0  0  0  0  0  0  0  0  0  0  0
   59.7070   31.8260   48.0930 C   0  0  0  0  0  0  0  0  0  0  0  0
   60.4263   31.4397   48.8301 H   0  0  0  0  0  0  0  0  0  0  0  0
   58.8230   32.2565   48.5861 H   0  0  0  0  0  0  0  0  0  0  0  0
   59.2350   30.6640   47.2050 C   0  0  0  0  0  0  0  0  0  0  0  0
   60.1032   30.2466   46.6739 H   0  0  0  0  0  0  0  0  0  0  0  0
   58.7660   29.9084   47.8523 H   0  0  0  0  0  0  0  0  0  0  0  0
   58.2280   31.1050   46.2070 N   0  0  0  0  0  0  0  0  0  0  0  0
   58.2080   30.2040   45.0330 C   0  0  0  0  0  0  0  0  0  0  0  0
   57.4097   30.5240   44.3472 H   0  0  0  0  0  0  0  0  0  0  0  0
   59.1871   30.2554   44.5342 H   0  0  0  0  0  0  0  0  0  0  0  0
   57.9550   28.7730   45.4540 C   0  0  0  0  0  0  0  0  0  0  0  0
   59.0460   27.9590   45.7910 C   0  0  0  0  0  0  0  0  0  0  0  0
   60.0670   28.3642   45.7329 H   0  0  0  0  0  0  0  0  0  0  0  0
   58.8480   26.6410   46.1990 C   0  0  0  0  0  0  0  0  0  0  0  0
   59.7113   26.0204   46.4812 H   0  0  0  0  0  0  0  0  0  0  0  0
   57.5510   26.1000   46.2520 C   0  0  0  0  0  0  0  0  0  0  0  0
   57.3110   24.7750   46.6520 O   0  0  0  0  0  0  0  0  0  0  0  0
   56.9840   24.3790   47.9790 C   0  0  0  0  0  0  0  0  0  0  0  0
   57.5156   25.0227   48.6953 H   0  0  0  0  0  0  0  0  0  0  0  0
   55.8993   24.4759   48.1338 H   0  0  0  0  0  0  0  0  0  0  0  0
   57.2844   23.3322   48.1338 H   0  0  0  0  0  0  0  0  0  0  0  0
   56.4570   26.8930   45.8810 C   0  0  0  0  0  0  0  0  0  0  0  0
   55.1870   26.3100   45.8710 O   0  0  0  0  0  0  0  0  0  0  0  0
   54.9570   25.0020   45.3610 C   0  0  0  0  0  0  0  0  0  0  0  0
   54.8333   24.2987   46.1977 H   0  0  0  0  0  0  0  0  0  0  0  0
   54.0453   25.0035   44.7455 H   0  0  0  0  0  0  0  0  0  0  0  0
   55.8145   24.6924   44.7455 H   0  0  0  0  0  0  0  0  0  0  0  0
   56.6490   28.2440   45.5120 C   0  0  0  0  0  0  0  0  0  0  0  0
   55.5630   29.0690   45.1990 O   0  0  0  0  0  0  0  0  0  0  0  0
   55.4600   29.7640   43.9590 C   0  0  0  0  0  0  0  0  0  0  0  0
   55.3012   30.8354   44.1512 H   0  0  0  0  0  0  0  0  0  0  0  0
   56.3881   29.6282   43.3844 H   0  0  0  0  0  0  0  0  0  0  0  0
   54.6112   29.3649   43.3844 H   0  0  0  0  0  0  0  0  0  0  0  0
   58.3960   32.5220   45.7990 C   0  0  0  0  0  0  0  0  0  0  0  0
   58.0622   32.6331   44.7568 H   0  0  0  0  0  0  0  0  0  0  0  0
   57.7950   33.1440   46.4786 H   0  0  0  0  0  0  0  0  0  0  0  0
   59.8570   32.9830   45.9030 C   0  0  0  0  0  0  0  0  0  0  0  0
   60.4795   32.3403   45.2631 H   0  0  0  0  0  0  0  0  0  0  0  0
   59.9082   34.0327   45.5783 H   0  0  0  0  0  0  0  0  0  0  0  0
   61.8390   34.1810   50.3550 C   0  0  0  0  0  0  0  0  0  0  0  0
   62.1411   35.2364   50.4248 H   0  0  0  0  0  0  0  0  0  0  0  0
   61.8619   33.7035   51.3457 H   0  0  0  0  0  0  0  0  0  0  0  0
   60.5160   34.1120   49.8560 O   0  0  0  0  0  0  0  0  0  0  0  0
   59.5910   33.8440   50.8940 C   0  0  0  0  0  0  0  0  0  0  0  0
   58.5743   34.0481   50.5270 H   0  0  0  0  0  0  0  0  0  0  0  0
   59.8383   34.4901   51.7492 H   0  0  0  0  0  0  0  0  0  0  0  0
   59.6680   32.3850   51.3590 C   0  0  0  0  0  0  0  0  0  0  0  0
   59.7218   32.3572   52.4573 H   0  0  0  0  0  0  0  0  0  0  0  0
   60.5647   31.9193   50.9242 H   0  0  0  0  0  0  0  0  0  0  0  0
   58.4720   31.6350   50.9100 N   0  0  0  0  0  0  0  0  0  0  0  0
   58.6950   30.1790   50.8960 C   0  0  0  0  0  0  0  0  0  0  0  0
   58.7520   29.8068   51.9296 H   0  0  0  0  0  0  0  0  0  0  0  0
   57.8620   29.6855   50.3740 H   0  0  0  0  0  0  0  0  0  0  0  0
   59.6376   29.9574   50.3740 H   0  0  0  0  0  0  0  0  0  0  0  0
   57.2430   32.0060   51.6490 C   0  0  0  0  0  0  0  0  0  0  0  0
   56.5750   32.5456   50.9616 H   0  0  0  0  0  0  0  0  0  0  0  0
   57.5579   32.6236   52.5031 H   0  0  0  0  0  0  0  0  0  0  0  0
   56.4770   30.8050   52.2250 C   0  0  0  0  0  0  0  0  0  0  0  0
   56.5033   30.8462   53.3239 H   0  0  0  0  0  0  0  0  0  0  0  0
   55.4324   30.8375   51.8817 H   0  0  0  0  0  0  0  0  0  0  0  0
   56.9469   29.8715   51.8817 H   0  0  0  0  0  0  0  0  0  0  0  0
  1  2  1  0
  2  3  2  0
  3  4  1  0
  3  5  1  0
  5  6  1  0
  5  7  1  0
  5  8  1  0
  8  9  1  0
  8 10  1  0
 10 11  1  0
 10 12  1  0
 10 13  1  0
 13 14  1  0
 13 15  1  0
 13 16  1  0
 16 17  1  0
 17 18  1  0
 17 19  1  0
 17 20  1  0
 20 21  2  0
 21 22  1  0
 21 23  1  0
 23 24  1  0
 23 25  2  0
 25 26  1  0
 26 27  1  0
 27 28  1  0
 27 29  1  0
 27 30  1  0
 25 31  1  0
 31 32  1  0
 32 33  1  0
 33 34  1  0
 33 35  1  0
 33 36  1  0
 31 37  2  0
 37 38  1  0
 38 39  1  0
 39 40  1  0
 39 41  1  0
 39 42  1  0
 16 43  1  0
 43 44  1  0
 43 45  1  0
 43 46  1  0
 46 47  1  0
 46 48  1  0
  2 49  1  0
 49 50  1  0
 49 51  1  0
 49 52  1  0
 52 53  1  0
 53 54  1  0
 53 55  1  0
 53 56  1  0
 56 57  1  0
 56 58  1  0
 56 59  1  0
 59 60  1  0
 60 61  1  0
 60 62  1  0
 60 63  1  0
 59 64  1  0
 64 65  1  0
 64 66  1  0
 64 67  1  0
 67 68  1  0
 67 69  1  0
 67 70  1  0
 46  8  1  0
 37 20  1  0
M  CHG  1   8   1
M  END
>  <UniqueID>  (1) 
1

>  <SMILES>  (1) 
CCN(C)CCOC/C=C/C[NH+]1CCN(Cc2ccc(OC)c(OC)c2OC)CC1

>  <Energy>  (1) 
92.27918292376607

>  <Genealogy>  (1) 
CCN(C)CCOCC=CC[NH+]1CCN(Cc2ccc(OC)c(OC)c2OC)CC1 (protonated)
CCN(C)CCOC/C=C/C[NH+]1CCN(Cc2ccc(OC)c(OC)c2OC)CC1 (cis-trans isomerization)
CCN(C)CCOC/C=C/C[NH+]1CCN(Cc2ccc(OC)c(OC)c2OC)CC1 (3D coordinates assigned)
CCN(C)CCOC/C=C/C[NH+]1CCN(Cc2ccc(OC)c(OC)c2OC)CC1 (nonaromatic ring conformer: 92.27918292376607 kcal/mol)

>  <smiles>  (1) 
CCN(C)CCOCC=CCN1CCN(Cc2ccc(OC)c(OC)c2OC)CC1

>  <score_type>  (1) 
oracle

>  <origin>  (1) 
adg

>  <m_score__min__energy>  (1) 
-5.4299999999999997

>  <m_primary>  (1) 
energy

$$$$
1:0
     RDKit          3D

 45 46  0  0  0  0  0  0  0  0999 V2000
   56.5740   30.3550   42.6690 C   0  0  0  0  0  0  0  0  0  0  0  0
   55.9800   30.1570   44.0620 C   0  0  0  0  0  0  0  0  0  0  0  0
   57.0230   30.3130   45.1000 N   0  0  0  0  0  0  0  0  0  0  0  0
   58.2040   31.0040   44.5500 C   0  0  0  0  0  0  0  0  0  0  0  0
   57.4280   29.0040   45.6600 C   0  0  0  0  0  0  0  0  0  0  0  0
   58.6890   29.1310   46.5310 C   0  0  0  0  0  0  0  0  0  0  0  0
   58.5190   30.0990   47.5500 O   0  0  0  0  0  0  0  0  0  0  0  0
   59.3330   29.8030   48.6630 C   0  0  0  0  0  0  0  0  0  0  0  0
   59.0740   30.8170   49.7770 C   0  0  0  0  0  0  0  0  0  0  0  0
   58.8890   32.1290   49.2420 O   0  0  0  0  0  0  0  0  0  0  0  0
   59.6790   32.7480   48.2550 C   0  0  0  0  0  0  0  0  0  0  0  0
   61.0820   32.8290   48.3550 C   0  0  0  0  0  0  0  0  0  0  0  0
   61.8210   33.4600   47.3470 C   0  0  0  0  0  0  0  0  0  0  0  0
   63.3140   33.5130   47.4200 C   0  0  0  0  0  0  0  0  0  0  0  0
   61.1850   33.9830   46.2670 N   0  0  0  0  0  0  0  0  0  0  0  0
   59.8330   33.9350   46.1350 C   0  0  0  0  0  0  0  0  0  0  0  0
   59.2240   34.4970   45.0070 C   0  0  0  0  0  0  0  0  0  0  0  0
   57.8360   34.4500   44.8640 C   0  0  0  0  0  0  0  0  0  0  0  0
   57.0490   33.8420   45.8460 C   0  0  0  0  0  0  0  0  0  0  0  0
   57.6470   33.2760   46.9750 C   0  0  0  0  0  0  0  0  0  0  0  0
   59.0450   33.3170   47.1340 C   0  0  0  0  0  0  0  0  0  0  0  0
   57.6140   30.7017   42.7597 H   0  0  0  0  0  0  0  0  0  0  0  0
   56.5519   29.4009   42.1220 H   0  0  0  0  0  0  0  0  0  0  0  0
   55.9839   31.1050   42.1220 H   0  0  0  0  0  0  0  0  0  0  0  0
   55.1903   30.9046   44.2278 H   0  0  0  0  0  0  0  0  0  0  0  0
   55.5627   29.1414   44.1285 H   0  0  0  0  0  0  0  0  0  0  0  0
   58.8315   31.3711   45.3755 H   0  0  0  0  0  0  0  0  0  0  0  0
   58.7843   30.3029   43.9321 H   0  0  0  0  0  0  0  0  0  0  0  0
   57.8772   31.8533   43.9321 H   0  0  0  0  0  0  0  0  0  0  0  0
   56.6065   28.6087   46.2755 H   0  0  0  0  0  0  0  0  0  0  0  0
   57.6521   28.3248   44.8242 H   0  0  0  0  0  0  0  0  0  0  0  0
   58.9027   28.1569   46.9951 H   0  0  0  0  0  0  0  0  0  0  0  0
   59.5228   29.4490   45.8878 H   0  0  0  0  0  0  0  0  0  0  0  0
   59.0995   28.7919   49.0278 H   0  0  0  0  0  0  0  0  0  0  0  0
   60.3903   29.8536   48.3639 H   0  0  0  0  0  0  0  0  0  0  0  0
   58.1689   30.5224   50.3284 H   0  0  0  0  0  0  0  0  0  0  0  0
   59.9459   30.8315   50.4475 H   0  0  0  0  0  0  0  0  0  0  0  0
   61.5970   32.3963   49.2254 H   0  0  0  0  0  0  0  0  0  0  0  0
   63.6294   33.5242   48.4737 H   0  0  0  0  0  0  0  0  0  0  0  0
   63.7372   32.6293   46.9200 H   0  0  0  0  0  0  0  0  0  0  0  0
   63.6734   34.4245   46.9200 H   0  0  0  0  0  0  0  0  0  0  0  0
   59.8400   34.9765   44.2319 H   0  0  0  0  0  0  0  0  0  0  0  0
   57.3606   34.8926   43.9762 H   0  0  0  0  0  0  0  0  0  0  0  0
   55.9557   33.8089   45.7298 H   0  0  0  0  0  0  0  0  0  0  0  0
   57.0224   32.7962   47.7430 H   0  0  0  0  0  0  0  0  0  0  0  0
  1  2  1  0
  2  3  1  0
  3  4  1  0
  3  5  1  0
  5  6  1  0
  6  7  1  0
  7  8  1  0
  8  9  1  0
  9 10  1  0
 10 11  1  0
 11 12  2  0
 12 13  1  0
 13 14  1  0
 13 15  2  0
 15 16  1  0
 16 17  2  0
 17 18  1  0
 18 19  2  0
 19 20  1  0
 20 21  2  0
 21 11  1  0
 21 16  1  0
  1 22  1  0
  1 23  1  0
  1 24  1  0
  2 25  1  0
  2 26  1  0
  4 27  1  0
  4 28  1  0
  4 29  1  0
  5 30  1  0
  5 31  1  0
  6 32  1  0
  6 33  1  0
  8 34  1  0
  8 35  1  0
  9 36  1  0
  9 37  1  0
 12 38  1  0
 14 39  1  0
 14 40  1  0
 14 41  1  0
 17 42  1  0
 18 43  1  0
 19 44  1  0
 20 45  1  0
M  END
>  <UniqueID>  (2) 
2

>  <SMILES>  (2) 
CCN(C)CCOCCOc1cc(C)nc2ccccc12

>  <Energy>  (2) 
45.50045141338586

>  <Genealogy>  (2) 
CCN(C)CCOCCOc1cc(C)nc2ccccc12 (3D coordinates assigned)
CCN(C)CCOCCOc1cc(C)nc2ccccc12 (optimized conformer: 45.50045141338586 kcal/mol)

>  <smiles>  (2) 
CCN(C)CCOCCOc1cc(C)nc2ccccc12

>  <score_type>  (2) 
oracle

>  <origin>  (2) 
adg

>  <m_score__min__energy>  (2) 
-6.1799999999999997

>  <m_primary>  (2) 
energy

$$$$
2:0
     RDKit          3D

 49 51  0  0  0  0  0  0  0  0999 V2000
   58.1330   26.9300   42.6340 C   0  0  0  0  0  0  0  0  0  0  0  0
   57.9010   26.6720   44.1170 C   0  0  0  0  0  0  0  0  0  0  0  0
   58.4630   27.7750   44.9060 N   0  0  0  0  0  0  0  0  0  0  0  0
   59.1880   27.2920   46.0910 C   0  0  0  0  0  0  0  0  0  0  0  0
   58.8600   28.1250   47.3390 C   0  0  0  0  0  0  0  0  0  0  0  0
   58.1660   29.3710   46.9970 N   0  0  0  0  0  0  0  0  0  0  0  0
   58.6960   30.6630   47.3440 C   0  0  0  0  0  0  0  0  0  0  0  0
   59.3640   30.8160   48.5730 C   0  0  0  0  0  0  0  0  0  0  0  0
   59.6530   29.6920   49.3790 C   0  0  0  0  0  0  0  0  0  0  0  0
   60.2370   29.8450   50.6330 C   0  0  0  0  0  0  0  0  0  0  0  0
   60.5290   31.1150   51.1120 C   0  0  0  0  0  0  0  0  0  0  0  0
   60.2660   32.2380   50.3300 C   0  0  0  0  0  0  0  0  0  0  0  0
   59.7120   32.1140   49.0290 C   0  0  0  0  0  0  0  0  0  0  0  0
   59.4740   33.2150   48.2320 N   0  0  0  0  0  0  0  0  0  0  0  0
   60.0590   34.5270   48.5950 C   0  0  0  0  0  0  0  0  0  0  0  0
   58.7300   33.0900   47.0730 C   0  0  0  0  0  0  0  0  0  0  0  0
   58.2430   34.2280   46.3850 C   0  0  0  0  0  0  0  0  0  0  0  0
   57.5800   34.1050   45.1710 C   0  0  0  0  0  0  0  0  0  0  0  0
   57.4150   32.8570   44.5890 C   0  0  0  0  0  0  0  0  0  0  0  0
   57.8640   31.7010   45.2410 C   0  0  0  0  0  0  0  0  0  0  0  0
   57.7540   30.4320   44.5780 N   0  0  0  0  0  0  0  0  0  0  0  0
   56.5540   29.8210   44.0860 C   0  0  0  0  0  0  0  0  0  0  0  0
   56.2550   29.7210   42.6210 C   0  0  0  0  0  0  0  0  0  0  0  0
   55.7420   29.3230   44.9090 O   0  0  0  0  0  0  0  0  0  0  0  0
   58.4190   31.8020   46.5510 C   0  0  0  0  0  0  0  0  0  0  0  0
   58.8641   27.7430   42.5132 H   0  0  0  0  0  0  0  0  0  0  0  0
   58.5191   26.0161   42.1588 H   0  0  0  0  0  0  0  0  0  0  0  0
   57.1834   27.2172   42.1588 H   0  0  0  0  0  0  0  0  0  0  0  0
   56.8207   26.5977   44.3104 H   0  0  0  0  0  0  0  0  0  0  0  0
   58.3937   25.7314   44.4041 H   0  0  0  0  0  0  0  0  0  0  0  0
   57.6650   28.3650   45.2410 H   0  0  0  0  0  0  0  0  0  0  0  0
   58.9073   26.2450   46.2779 H   0  0  0  0  0  0  0  0  0  0  0  0
   60.2662   27.3829   45.8928 H   0  0  0  0  0  0  0  0  0  0  0  0
   58.2168   27.5306   48.0045 H   0  0  0  0  0  0  0  0  0  0  0  0
   59.8072   28.3866   47.8334 H   0  0  0  0  0  0  0  0  0  0  0  0
   57.2820   29.3230   46.4430 H   0  0  0  0  0  0  0  0  0  0  0  0
   59.4134   28.6835   49.0108 H   0  0  0  0  0  0  0  0  0  0  0  0
   60.4672   28.9600   51.2444 H   0  0  0  0  0  0  0  0  0  0  0  0
   60.9697   31.2352   52.1127 H   0  0  0  0  0  0  0  0  0  0  0  0
   60.4917   33.2383   50.7280 H   0  0  0  0  0  0  0  0  0  0  0  0
   60.1003   34.6196   49.6903 H   0  0  0  0  0  0  0  0  0  0  0  0
   61.0758   34.6020   48.1821 H   0  0  0  0  0  0  0  0  0  0  0  0
   59.4352   35.3335   48.1821 H   0  0  0  0  0  0  0  0  0  0  0  0
   58.3926   35.2272   46.8200 H   0  0  0  0  0  0  0  0  0  0  0  0
   57.1844   35.0004   44.6693 H   0  0  0  0  0  0  0  0  0  0  0  0
   56.9272   32.7740   43.6066 H   0  0  0  0  0  0  0  0  0  0  0  0
   55.2203   29.3750   42.4807 H   0  0  0  0  0  0  0  0  0  0  0  0
   56.3777   30.7091   42.1534 H   0  0  0  0  0  0  0  0  0  0  0  0
   56.9475   29.0056   42.1534 H   0  0  0  0  0  0  0  0  0  0  0  0
  1  2  1  0
  2  3  1  0
  3  4  1  0
  4  5  1  0
  5  6  1  0
  6  7  1  0
  7  8  2  0
  8  9  1  0
  9 10  2  0
 10 11  1  0
 11 12  2  0
 12 13  1  0
 13 14  2  0
 14 15  1  0
 14 16  1  0
 16 17  2  0
 17 18  1  0
 18 19  2  0
 19 20  1  0
 20 21  1  0
 21 22  1  0
 22 23  1  0
 22 24  2  0
 20 25  2  0
 25  7  1  0
 13  8  1  0
 25 16  1  0
  1 26  1  0
  1 27  1  0
  1 28  1  0
  2 29  1  0
  2 30  1  0
  3 31  1  0
  4 32  1  0
  4 33  1  0
  5 34  1  0
  5 35  1  0
  6 36  1  0
  9 37  1  0
 10 38  1  0
 11 39  1  0
 12 40  1  0
 15 41  1  0
 15 42  1  0
 15 43  1  0
 17 44  1  0
 18 45  1  0
 19 46  1  0
 23 47  1  0
 23 48  1  0
 23 49  1  0
M  CHG  2  14   1  21  -1
M  END
>  <UniqueID>  (3) 
3

>  <SMILES>  (3) 
CCNCCNc1c2ccccc2[n+](C)c2cccc([N-]C(C)=O)c12

>  <Energy>  (3) 
77.9705595460678

>  <Genealogy>  (3) 
CCNCCNc1c2ccccc2[n+](C)c2cccc([N-]C(C)=O)c12 (protonated)
CCNCCNc1c2ccccc2[n+](C)c2cccc([N-]C(C)=O)c12 (3D coordinates assigned)
CCNCCNc1c2ccccc2[n+](C)c2cccc([N-]C(C)=O)c12 (optimized conformer: 77.9705595460678 kcal/mol)

>  <smiles>  (3) 
CCNCCNc1c2ccccc2[n+](C)c2cccc(NC(C)=O)c12

>  <score_type>  (3) 
oracle

>  <origin>  (3) 
adg

>  <m_score__min__energy>  (3) 
-6.5300000000000002

>  <m_primary>  (3) 
energy

$$$$
3:0
     RDKit          3D

 46 46  0  0  0  0  0  0  0  0999 V2000
   57.5098   33.2459   42.6404 H   0  0  0  0  0  0  0  0  0  0  0  0
   57.7740   32.6390   43.5190 C   0  0  0  0  0  0  0  0  0  0  0  0
   57.6950   31.3060   43.4040 C   0  0  0  0  0  0  0  0  0  0  0  0
   58.5252   30.7807   42.9092 H   0  0  0  0  0  0  0  0  0  0  0  0
   56.5430   30.4850   43.9090 C   0  0  0  0  0  0  0  0  0  0  0  0
   56.4264   29.5882   43.2828 H   0  0  0  0  0  0  0  0  0  0  0  0
   55.6169   31.0770   43.8663 H   0  0  0  0  0  0  0  0  0  0  0  0
   56.8040   30.1010   45.2430 O   0  0  0  0  0  0  0  0  0  0  0  0
   58.1790   29.8290   45.4270 C   0  0  0  0  0  0  0  0  0  0  0  0
   58.7658   30.6745   45.0386 H   0  0  0  0  0  0  0  0  0  0  0  0
   58.4230   28.9023   44.8869 H   0  0  0  0  0  0  0  0  0  0  0  0
   58.5180   29.6260   46.9090 C   0  0  0  0  0  0  0  0  0  0  0  0
   59.1211   28.7128   47.0203 H   0  0  0  0  0  0  0  0  0  0  0  0
   57.5811   29.5345   47.4781 H   0  0  0  0  0  0  0  0  0  0  0  0
   59.2850   30.7840   47.4320 N   0  0  0  0  0  0  0  0  0  0  0  0
   60.5980   30.9360   46.7530 C   0  0  0  0  0  0  0  0  0  0  0  0
   60.4408   30.9658   45.6647 H   0  0  0  0  0  0  0  0  0  0  0  0
   61.2371   30.0821   47.0222 H   0  0  0  0  0  0  0  0  0  0  0  0
   61.2900   32.2310   47.1980 C   0  0  0  0  0  0  0  0  0  0  0  0
   60.8014   32.5928   48.1147 H   0  0  0  0  0  0  0  0  0  0  0  0
   61.1999   32.9533   46.3733 H   0  0  0  0  0  0  0  0  0  0  0  0
   62.7770   32.0430   47.4810 C   0  0  0  0  0  0  0  0  0  0  0  0
   62.9436   32.0219   48.5681 H   0  0  0  0  0  0  0  0  0  0  0  0
   63.1173   31.0947   47.0395 H   0  0  0  0  0  0  0  0  0  0  0  0
   63.3426   32.8768   47.0395 H   0  0  0  0  0  0  0  0  0  0  0  0
   59.4360   30.7120   48.9050 C   0  0  0  0  0  0  0  0  0  0  0  0
   59.1058   29.7231   49.2559 H   0  0  0  0  0  0  0  0  0  0  0  0
   60.4931   30.8699   49.1649 H   0  0  0  0  0  0  0  0  0  0  0  0
   58.5880   31.7980   49.5800 C   0  0  0  0  0  0  0  0  0  0  0  0
   57.8518   32.1792   48.8570 H   0  0  0  0  0  0  0  0  0  0  0  0
   58.0832   31.3543   50.4508 H   0  0  0  0  0  0  0  0  0  0  0  0
   59.4570   32.9570   50.0640 C   0  0  0  0  0  0  0  0  0  0  0  0
   59.4685   32.9723   51.1638 H   0  0  0  0  0  0  0  0  0  0  0  0
   60.4828   32.8279   49.6884 H   0  0  0  0  0  0  0  0  0  0  0  0
   59.0456   33.9055   49.6884 H   0  0  0  0  0  0  0  0  0  0  0  0
   58.1920   33.3490   44.7460 C   0  0  0  0  0  0  0  0  0  0  0  0
   57.4630   33.1550   45.9300 C   0  0  0  0  0  0  0  0  0  0  0  0
   56.6043   32.4676   45.9381 H   0  0  0  0  0  0  0  0  0  0  0  0
   57.8240   33.8320   47.0990 C   0  0  0  0  0  0  0  0  0  0  0  0
   57.2587   33.6645   48.0276 H   0  0  0  0  0  0  0  0  0  0  0  0
   58.9020   34.7210   47.0890 C   0  0  0  0  0  0  0  0  0  0  0  0
   59.1901   35.2467   48.0113 H   0  0  0  0  0  0  0  0  0  0  0  0
   59.6140   34.9420   45.9070 C   0  0  0  0  0  0  0  0  0  0  0  0
   60.4567   35.6489   45.8977 H   0  0  0  0  0  0  0  0  0  0  0  0
   59.2570   34.2660   44.7360 C   0  0  0  0  0  0  0  0  0  0  0  0
   59.8114   34.4525   43.8044 H   0  0  0  0  0  0  0  0  0  0  0  0
  1  2  1  0
  2  3  2  0
  3  4  1  0
  3  5  1  0
  5  6  1  0
  5  7  1  0
  5  8  1  0
  8  9  1  0
  9 10  1  0
  9 11  1  0
  9 12  1  0
 12 13  1  0
 12 14  1  0
 12 15  1  0
 15 16  1  0
 16 17  1  0
 16 18  1  0
 16 19  1  0
 19 20  1  0
 19 21  1  0
 19 22  1  0
 22 23  1  0
 22 24  1  0
 22 25  1  0
 15 26  1  0
 26 27  1  0
 26 28  1  0
 26 29  1  0
 29 30  1  0
 29 31  1  0
 29 32  1  0
 32 33  1  0
 32 34  1  0
 32 35  1  0
  2 36  1  0
 36 37  2  0
 37 38  1  0
 37 39  1  0
 39 40  1  0
 39 41  2  0
 41 42  1  0
 41 43  1  0
 43 44  1  0
 43 45  2  0
 45 46  1  0
 45 36  1  0
M  END
>  <UniqueID>  (4) 
4

>  <SMILES>  (4) 
CCCN(CCC)CCOC/C=C\c1ccccc1

>  <Energy>  (4) 
44.06752357996015

>  <Genealogy>  (4) 
CCCN(CCC)CCOC/C=C\c1ccccc1 (cis-trans isomerization)
CCCN(CCC)CCOC/C=C\c1ccccc1 (3D coordinates assigned)
CCCN(CCC)CCOC/C=C\c1ccccc1 (optimized conformer: 44.06752357996015 kcal/mol)

>  <smiles>  (4) 
CCCN(CCC)CCOCC=Cc1ccccc1

>  <score_type>  (4) 
oracle

>  <origin>  (4) 
adg

>  <m_score__min__energy>  (4) 
-6.3499999999999996

>  <m_primary>  (4) 
energy

$$$$
4:0
     RDKit          3D

 48 50  0  0  0  0  0  0  0  0999 V2000
   60.8660   33.5280   50.2280 C   0  0  0  0  0  0  0  0  0  0  0  0
   61.3230   32.2510   50.9230 C   0  0  0  0  0  0  0  0  0  0  0  0
   62.7620   32.0540   50.7200 N   0  0  0  0  0  0  0  0  0  0  0  0
   63.4170   33.3370   50.4370 C   0  0  0  0  0  0  0  0  0  0  0  0
   64.7100   33.1130   49.6480 C   0  0  0  0  0  0  0  0  0  0  0  0
   64.4260   32.8580   48.2370 N   0  0  0  0  0  0  0  0  0  0  0  0
   63.0970   32.6580   47.7470 C   0  0  0  0  0  0  0  0  0  0  0  0
   62.4400   31.4770   47.7660 N   0  0  0  0  0  0  0  0  0  0  0  0
   61.1830   31.5880   47.2340 C   0  0  0  0  0  0  0  0  0  0  0  0
   60.3230   30.3920   47.1040 C   0  0  0  0  0  0  0  0  0  0  0  0
   60.0190   29.8870   45.8310 C   0  0  0  0  0  0  0  0  0  0  0  0
   59.1960   28.7660   45.6920 C   0  0  0  0  0  0  0  0  0  0  0  0
   58.6510   28.1390   46.8290 C   0  0  0  0  0  0  0  0  0  0  0  0
   57.8230   27.0100   46.7420 O   0  0  0  0  0  0  0  0  0  0  0  0
   57.5560   26.3000   45.5380 C   0  0  0  0  0  0  0  0  0  0  0  0
   58.9380   28.6590   48.0960 C   0  0  0  0  0  0  0  0  0  0  0  0
   59.7610   29.7790   48.2360 C   0  0  0  0  0  0  0  0  0  0  0  0
   60.8230   32.8380   46.7990 N   0  0  0  0  0  0  0  0  0  0  0  0
   59.5470   33.2920   46.3200 C   0  0  0  0  0  0  0  0  0  0  0  0
   58.3620   32.9470   46.9930 C   0  0  0  0  0  0  0  0  0  0  0  0
   57.1260   33.4040   46.5270 C   0  0  0  0  0  0  0  0  0  0  0  0
   57.0640   34.2180   45.3930 C   0  0  0  0  0  0  0  0  0  0  0  0
   58.2390   34.5820   44.7280 C   0  0  0  0  0  0  0  0  0  0  0  0
   59.4760   34.1260   45.1930 C   0  0  0  0  0  0  0  0  0  0  0  0
   62.1260   33.8310   47.0780 S   0  0  0  0  0  0  0  0  0  0  0  0
   60.5967   34.2805   50.9838 H   0  0  0  0  0  0  0  0  0  0  0  0
   61.6814   33.9152   49.5993 H   0  0  0  0  0  0  0  0  0  0  0  0
   59.9901   33.3100   49.5993 H   0  0  0  0  0  0  0  0  0  0  0  0
   61.1148   32.3286   52.0003 H   0  0  0  0  0  0  0  0  0  0  0  0
   60.7789   31.3950   50.4974 H   0  0  0  0  0  0  0  0  0  0  0  0
   62.8880   31.4390   49.8800 H   0  0  0  0  0  0  0  0  0  0  0  0
   62.7370   33.9688   49.8468 H   0  0  0  0  0  0  0  0  0  0  0  0
   63.6607   33.8311   51.3891 H   0  0  0  0  0  0  0  0  0  0  0  0
   65.3420   34.0095   49.7313 H   0  0  0  0  0  0  0  0  0  0  0  0
   65.2272   32.2363   50.0650 H   0  0  0  0  0  0  0  0  0  0  0  0
   65.2250   32.7750   47.5690 H   0  0  0  0  0  0  0  0  0  0  0  0
   60.4311   30.3766   44.9363 H   0  0  0  0  0  0  0  0  0  0  0  0
   58.9729   28.3716   44.6897 H   0  0  0  0  0  0  0  0  0  0  0  0
   57.1783   25.2957   45.7806 H   0  0  0  0  0  0  0  0  0  0  0  0
   56.8010   26.8439   44.9514 H   0  0  0  0  0  0  0  0  0  0  0  0
   58.4823   26.2116   44.9514 H   0  0  0  0  0  0  0  0  0  0  0  0
   58.5114   28.1812   48.9903 H   0  0  0  0  0  0  0  0  0  0  0  0
   59.9700   30.1829   49.2376 H   0  0  0  0  0  0  0  0  0  0  0  0
   58.4077   32.3139   47.8914 H   0  0  0  0  0  0  0  0  0  0  0  0
   56.2018   33.1228   47.0531 H   0  0  0  0  0  0  0  0  0  0  0  0
   56.0906   34.5726   45.0233 H   0  0  0  0  0  0  0  0  0  0  0  0
   58.1900   35.2274   43.8386 H   0  0  0  0  0  0  0  0  0  0  0  0
   60.3989   34.4223   44.6729 H   0  0  0  0  0  0  0  0  0  0  0  0
  1  2  1  0
  2  3  1  0
  3  4  1  0
  4  5  1  0
  5  6  1  0
  6  7  1  0
  7  8  2  0
  8  9  1  0
  9 10  1  0
 10 11  2  0
 11 12  1  0
 12 13  2  0
 13 14  1  0
 14 15  1  0
 13 16  1  0
 16 17  2  0
  9 18  2  0
 18 19  1  0
 19 20  2  0
 20 21  1  0
 21 22  2  0
 22 23  1  0
 23 24  2  0
 18 25  1  0
 25  7  1  0
 17 10  1  0
 24 19  1  0
  1 26  1  0
  1 27  1  0
  1 28  1  0
  2 29  1  0
  2 30  1  0
  3 31  1  0
  4 32  1  0
  4 33  1  0
  5 34  1  0
  5 35  1  0
  6 36  1  0
 11 37  1  0
 12 38  1  0
 15 39  1  0
 15 40  1  0
 15 41  1  0
 16 42  1  0
 17 43  1  0
 20 44  1  0
 21 45  1  0
 22 46  1  0
 23 47  1  0
 24 48  1  0
M  CHG  1  18   1
M  END
>  <UniqueID>  (5) 
5

>  <SMILES>  (5) 
CCNCCNc1nc(-c2ccc(OC)cc2)[n+](-c2ccccc2)s1

>  <Energy>  (5) 
87.77400331040104

>  <Genealogy>  (5) 
CCNCCNc1nc(-c2ccc(OC)cc2)[n+](-c2ccccc2)s1 (3D coordinates assigned)
CCNCCNc1nc(-c2ccc(OC)cc2)[n+](-c2ccccc2)s1 (optimized conformer: 87.77400331040104 kcal/mol)

>  <smiles>  (5) 
CCNCCNc1nc(-c2ccc(OC)cc2)[n+](-c2ccccc2)s1

>  <score_type>  (5) 
oracle

>  <origin>  (5) 
adg

>  <m_score__min__energy>  (5) 
-5.7000000000000002

>  <m_primary>  (5) 
energy

$$$$
5:0
     RDKit          3D

 68 70  0  0  0  0  0  0  0  0999 V2000
   63.4080   30.3090   51.4320 C   0  0  0  0  0  0  0  0  0  0  0  0
   64.3620   31.4240   51.9130 C   0  0  0  0  0  0  0  0  0  0  0  0
   65.8300   31.1970   51.6440 N   0  0  0  0  0  0  0  0  0  0  0  0
   66.2380   29.7360   51.7380 C   0  0  0  0  0  0  0  0  0  0  0  0
   67.4170   29.2830   50.8570 C   0  0  0  0  0  0  0  0  0  0  0  0
   66.6780   31.9950   52.5970 C   0  0  0  0  0  0  0  0  0  0  0  0
   68.0320   32.4700   52.0410 C   0  0  0  0  0  0  0  0  0  0  0  0
   66.1850   31.6840   50.2630 C   0  0  0  0  0  0  0  0  0  0  0  0
   65.5160   33.0270   49.8230 C   0  0  0  0  0  0  0  0  0  0  0  0
   64.6670   32.8580   48.6290 N   0  0  0  0  0  0  0  0  0  0  0  0
   63.4910   33.7530   48.6390 C   0  0  0  0  0  0  0  0  0  0  0  0
   62.2700   33.1720   49.3800 C   0  0  0  0  0  0  0  0  0  0  0  0
   61.7280   31.8890   48.7380 C   0  0  0  0  0  0  0  0  0  0  0  0
   61.4930   32.1110   47.3120 N   0  0  0  0  0  0  0  0  0  0  0  0
   60.4080   32.9100   46.8090 C   0  0  0  0  0  0  0  0  0  0  0  0
   60.4900   34.3090   46.9250 C   0  0  0  0  0  0  0  0  0  0  0  0
   59.6100   35.1360   46.2340 C   0  0  0  0  0  0  0  0  0  0  0  0
   58.6620   34.5860   45.3780 C   0  0  0  0  0  0  0  0  0  0  0  0
   58.5480   33.1950   45.2520 C   0  0  0  0  0  0  0  0  0  0  0  0
   57.6390   32.6580   44.3420 C   0  0  0  0  0  0  0  0  0  0  0  0
   57.5610   31.2800   44.1660 C   0  0  0  0  0  0  0  0  0  0  0  0
   56.7230   30.7430   43.1760 C   0  0  0  0  0  0  0  0  0  0  0  0
   56.6540   29.3630   42.9850 C   0  0  0  0  0  0  0  0  0  0  0  0
   57.4230   28.5100   43.7750 C   0  0  0  0  0  0  0  0  0  0  0  0
   58.2490   29.0300   44.7740 C   0  0  0  0  0  0  0  0  0  0  0  0
   58.3220   30.4260   45.0020 C   0  0  0  0  0  0  0  0  0  0  0  0
   59.1050   30.9630   46.0070 N   0  0  0  0  0  0  0  0  0  0  0  0
   59.5130   30.0980   47.1340 C   0  0  0  0  0  0  0  0  0  0  0  0
   59.3610   32.3270   46.0290 C   0  0  0  0  0  0  0  0  0  0  0  0
   62.9715   29.7988   52.3033 H   0  0  0  0  0  0  0  0  0  0  0  0
   62.6040   30.7509   50.8250 H   0  0  0  0  0  0  0  0  0  0  0  0
   63.9689   29.5831   50.8250 H   0  0  0  0  0  0  0  0  0  0  0  0
   64.0681   32.3583   51.4123 H   0  0  0  0  0  0  0  0  0  0  0  0
   64.2606   31.4507   53.0080 H   0  0  0  0  0  0  0  0  0  0  0  0
   66.5085   29.5334   52.7848 H   0  0  0  0  0  0  0  0  0  0  0  0
   65.3698   29.1717   51.3668 H   0  0  0  0  0  0  0  0  0  0  0  0
   68.2516   28.9623   51.4978 H   0  0  0  0  0  0  0  0  0  0  0  0
   67.0987   28.4431   50.2219 H   0  0  0  0  0  0  0  0  0  0  0  0
   67.7429   30.1199   50.2219 H   0  0  0  0  0  0  0  0  0  0  0  0
   66.1045   32.8842   52.8977 H   0  0  0  0  0  0  0  0  0  0  0  0
   66.9149   31.3172   53.4303 H   0  0  0  0  0  0  0  0  0  0  0  0
   68.7082   32.7072   52.8756 H   0  0  0  0  0  0  0  0  0  0  0  0
   68.4751   31.6737   51.4250 H   0  0  0  0  0  0  0  0  0  0  0  0
   67.8805   33.3687   51.4250 H   0  0  0  0  0  0  0  0  0  0  0  0
   67.2757   31.8212   50.2234 H   0  0  0  0  0  0  0  0  0  0  0  0
   65.8052   30.9194   49.5694 H   0  0  0  0  0  0  0  0  0  0  0  0
   64.8948   33.4016   50.6499 H   0  0  0  0  0  0  0  0  0  0  0  0
   66.3166   33.7383   49.5718 H   0  0  0  0  0  0  0  0  0  0  0  0
   64.3730   31.8590   48.5380 H   0  0  0  0  0  0  0  0  0  0  0  0
   65.2280   33.1040   47.7830 H   0  0  0  0  0  0  0  0  0  0  0  0
   63.7772   34.6954   49.1288 H   0  0  0  0  0  0  0  0  0  0  0  0
   63.1899   33.8963   47.5908 H   0  0  0  0  0  0  0  0  0  0  0  0
   62.5641   32.9473   50.4159 H   0  0  0  0  0  0  0  0  0  0  0  0
   61.4696   33.9250   49.3318 H   0  0  0  0  0  0  0  0  0  0  0  0
   62.4609   31.0787   48.8657 H   0  0  0  0  0  0  0  0  0  0  0  0
   60.7809   31.6114   49.2237 H   0  0  0  0  0  0  0  0  0  0  0  0
   62.2430   31.8290   46.6410 H   0  0  0  0  0  0  0  0  0  0  0  0
   61.2604   34.7556   47.5708 H   0  0  0  0  0  0  0  0  0  0  0  0
   59.6642   36.2268   46.3650 H   0  0  0  0  0  0  0  0  0  0  0  0
   57.9994   35.2451   44.7979 H   0  0  0  0  0  0  0  0  0  0  0  0
   56.9828   33.3241   43.7626 H   0  0  0  0  0  0  0  0  0  0  0  0
   56.1180   31.4136   42.5480 H   0  0  0  0  0  0  0  0  0  0  0  0
   55.9924   28.9476   42.2106 H   0  0  0  0  0  0  0  0  0  0  0  0
   57.3791   27.4232   43.6110 H   0  0  0  0  0  0  0  0  0  0  0  0
   58.8505   28.3467   45.3915 H   0  0  0  0  0  0  0  0  0  0  0  0
   59.2769   30.5986   48.0846 H   0  0  0  0  0  0  0  0  0  0  0  0
   58.9706   29.1427   47.0780 H   0  0  0  0  0  0  0  0  0  0  0  0
   60.5952   29.9090   47.0780 H   0  0  0  0  0  0  0  0  0  0  0  0
  1  2  1  0
  2  3  1  0
  3  4  1  0
  4  5  1  0
  3  6  1  0
  6  7  1  0
  3  8  1  0
  8  9  1  0
  9 10  1  0
 10 11  1  0
 11 12  1  0
 12 13  1  0
 13 14  1  0
 14 15  1  0
 15 16  2  0
 16 17  1  0
 17 18  2  0
 18 19  1  0
 19 20  2  0
 20 21  1  0
 21 22  2  0
 22 23  1  0
 23 24  2  0
 24 25  1  0
 25 26  2  0
 26 27  1  0
 27 28  1  0
 27 29  2  0
 29 15  1  0
 29 19  1  0
 26 21  1  0
  1 30  1  0
  1 31  1  0
  1 32  1  0
  2 33  1  0
  2 34  1  0
  4 35  1  0
  4 36  1  0
  5 37  1  0
  5 38  1  0
  5 39  1  0
  6 40  1  0
  6 41  1  0
  7 42  1  0
  7 43  1  0
  7 44  1  0
  8 45  1  0
  8 46  1  0
  9 47  1  0
  9 48  1  0
 10 49  1  0
 10 50  1  0
 11 51  1  0
 11 52  1  0
 12 53  1  0
 12 54  1  0
 13 55  1  0
 13 56  1  0
 14 57  1  0
 16 58  1  0
 17 59  1  0
 18 60  1  0
 20 61  1  0
 22 62  1  0
 23 63  1  0
 24 64  1  0
 25 65  1  0
 28 66  1  0
 28 67  1  0
 28 68  1  0
M  CHG  3   3   1  10   1  27   1
M  END
>  <UniqueID>  (6) 
6

>  <SMILES>  (6) 
CC[N+](CC)(CC)CC[NH2+]CCCNc1cccc2cc3ccccc3[n+](C)c12

>  <Energy>  (6) 
118.80132085160616

>  <Genealogy>  (6) 
CC[N+](CC)(CC)CC[NH2+]CCCNc1cccc2cc3ccccc3[n+](C)c12 (protonated)
CC[N+](CC)(CC)CC[NH2+]CCCNc1cccc2cc3ccccc3[n+](C)c12 (3D coordinates assigned)
CC[N+](CC)(CC)CC[NH2+]CCCNc1cccc2cc3ccccc3[n+](C)c12 (optimized conformer: 118.80132085160616 kcal/mol)

>  <smiles>  (6) 
CC[N+](CC)(CC)CCNCCCNc1cccc2cc3ccccc3[n+](C)c12

>  <score_type>  (6) 
oracle

>  <origin>  (6) 
adg

>  <m_score__min__energy>  (6) 
-3.7200000000000002

>  <m_primary>  (6) 
energy

$$$$
6:0
     RDKit          3D

 64 66  0  0  0  0  0  0  0  0999 V2000
   62.9260   33.8950   46.3720 C   0  0  0  0  0  0  0  0  0  0  0  0
   63.7670   32.7400   46.9140 C   0  0  0  0  0  0  0  0  0  0  0  0
   63.0850   31.9600   48.0580 C   0  0  0  0  0  0  0  0  0  0  0  0
   63.1320   32.6250   49.3920 N   0  0  0  0  0  0  0  0  0  0  0  0
   64.4610   33.1770   49.7800 C   0  0  0  0  0  0  0  0  0  0  0  0
   65.5270   32.1370   50.2030 C   0  0  0  0  0  0  0  0  0  0  0  0
   66.9500   32.6970   50.1730 C   0  0  0  0  0  0  0  0  0  0  0  0
   62.0080   33.5760   49.6470 C   0  0  0  0  0  0  0  0  0  0  0  0
   60.7690   33.0010   50.3770 C   0  0  0  0  0  0  0  0  0  0  0  0
   60.9120   31.5480   50.5640 N   0  0  0  0  0  0  0  0  0  0  0  0
   59.6170   30.9020   50.8240 C   0  0  0  0  0  0  0  0  0  0  0  0
   58.8900   30.5990   49.5030 C   0  0  0  0  0  0  0  0  0  0  0  0
   59.7330   30.9030   48.3450 N   0  0  0  0  0  0  0  0  0  0  0  0
   59.1830   31.0830   47.0240 C   0  0  0  0  0  0  0  0  0  0  0  0
   59.1410   32.3640   46.4350 C   0  0  0  0  0  0  0  0  0  0  0  0
   59.7180   33.4810   47.0770 C   0  0  0  0  0  0  0  0  0  0  0  0
   59.5570   34.7630   46.5590 C   0  0  0  0  0  0  0  0  0  0  0  0
   58.8360   34.9540   45.3870 C   0  0  0  0  0  0  0  0  0  0  0  0
   58.3230   33.8570   44.6950 C   0  0  0  0  0  0  0  0  0  0  0  0
   58.5160   32.5350   45.1700 C   0  0  0  0  0  0  0  0  0  0  0  0
   58.1040   31.4320   44.4440 N   0  0  0  0  0  0  0  0  0  0  0  0
   57.7320   31.5850   43.0190 C   0  0  0  0  0  0  0  0  0  0  0  0
   58.0700   30.1830   45.0370 C   0  0  0  0  0  0  0  0  0  0  0  0
   57.4550   29.0730   44.4000 C   0  0  0  0  0  0  0  0  0  0  0  0
   57.4470   27.8130   44.9920 C   0  0  0  0  0  0  0  0  0  0  0  0
   58.0400   27.6210   46.2310 C   0  0  0  0  0  0  0  0  0  0  0  0
   58.6260   28.6930   46.8970 C   0  0  0  0  0  0  0  0  0  0  0  0
   58.6380   29.9850   46.3260 C   0  0  0  0  0  0  0  0  0  0  0  0
   62.5077   34.4695   47.2116 H   0  0  0  0  0  0  0  0  0  0  0  0
   63.5585   34.5521   45.7571 H   0  0  0  0  0  0  0  0  0  0  0  0
   62.1064   33.4948   45.7571 H   0  0  0  0  0  0  0  0  0  0  0  0
   63.9694   32.0408   46.0893 H   0  0  0  0  0  0  0  0  0  0  0  0
   64.6872   33.1785   47.3276 H   0  0  0  0  0  0  0  0  0  0  0  0
   62.0290   31.8123   47.7877 H   0  0  0  0  0  0  0  0  0  0  0  0
   63.6452   31.0194   48.1644 H   0  0  0  0  0  0  0  0  0  0  0  0
   62.9660   31.8570   50.0860 H   0  0  0  0  0  0  0  0  0  0  0  0
   64.8580   33.7360   48.9199 H   0  0  0  0  0  0  0  0  0  0  0  0
   64.2781   33.7956   50.6710 H   0  0  0  0  0  0  0  0  0  0  0  0
   65.3034   31.8016   51.2265 H   0  0  0  0  0  0  0  0  0  0  0  0
   65.4834   31.3077   49.4816 H   0  0  0  0  0  0  0  0  0  0  0  0
   67.3101   32.8387   51.2027 H   0  0  0  0  0  0  0  0  0  0  0  0
   67.6106   31.9918   49.6474 H   0  0  0  0  0  0  0  0  0  0  0  0
   66.9528   33.6633   49.6474 H   0  0  0  0  0  0  0  0  0  0  0  0
   62.4014   34.4027   50.2567 H   0  0  0  0  0  0  0  0  0  0  0  0
   61.6472   33.8742   48.6516 H   0  0  0  0  0  0  0  0  0  0  0  0
   60.6705   33.4850   51.3599 H   0  0  0  0  0  0  0  0  0  0  0  0
   59.8738   33.1960   49.7682 H   0  0  0  0  0  0  0  0  0  0  0  0
   61.5210   31.3930   51.4030 H   0  0  0  0  0  0  0  0  0  0  0  0
   59.7849   29.9611   51.3686 H   0  0  0  0  0  0  0  0  0  0  0  0
   58.9948   31.5823   51.4240 H   0  0  0  0  0  0  0  0  0  0  0  0
   58.6211   29.5326   49.4794 H   0  0  0  0  0  0  0  0  0  0  0  0
   57.9909   31.2306   49.4509 H   0  0  0  0  0  0  0  0  0  0  0  0
   60.7610   30.7400   48.4410 H   0  0  0  0  0  0  0  0  0  0  0  0
   60.3020   33.3366   47.9979 H   0  0  0  0  0  0  0  0  0  0  0  0
   60.0009   35.6253   47.0780 H   0  0  0  0  0  0  0  0  0  0  0  0
   58.6695   35.9717   45.0042 H   0  0  0  0  0  0  0  0  0  0  0  0
   57.7590   34.0202   43.7648 H   0  0  0  0  0  0  0  0  0  0  0  0
   56.7168   32.0025   42.9479 H   0  0  0  0  0  0  0  0  0  0  0  0
   58.4430   32.2637   42.5253 H   0  0  0  0  0  0  0  0  0  0  0  0
   57.7598   30.6024   42.5253 H   0  0  0  0  0  0  0  0  0  0  0  0
   56.9756   29.2113   43.4197 H   0  0  0  0  0  0  0  0  0  0  0  0
   56.9691   26.9674   44.4757 H   0  0  0  0  0  0  0  0  0  0  0  0
   58.0471   26.6203   46.6876 H   0  0  0  0  0  0  0  0  0  0  0  0
   59.0868   28.5320   47.8828 H   0  0  0  0  0  0  0  0  0  0  0  0
  1  2  1  0
  2  3  1  0
  3  4  1  0
  4  5  1  0
  5  6  1  0
  6  7  1  0
  4  8  1  0
  8  9  1  0
  9 10  1  0
 10 11  1  0
 11 12  1  0
 12 13  1  0
 13 14  1  0
 14 15  2  0
 15 16  1  0
 16 17  2  0
 17 18  1  0
 18 19  2  0
 19 20  1  0
 20 21  2  0
 21 22  1  0
 21 23  1  0
 23 24  2  0
 24 25  1  0
 25 26  2  0
 26 27  1  0
 27 28  2  0
 28 14  1  0
 20 15  1  0
 28 23  1  0
  1 29  1  0
  1 30  1  0
  1 31  1  0
  2 32  1  0
  2 33  1  0
  3 34  1  0
  3 35  1  0
  4 36  1  0
  5 37  1  0
  5 38  1  0
  6 39  1  0
  6 40  1  0
  7 41  1  0
  7 42  1  0
  7 43  1  0
  8 44  1  0
  8 45  1  0
  9 46  1  0
  9 47  1  0
 10 48  1  0
 11 49  1  0
 11 50  1  0
 12 51  1  0
 12 52  1  0
 13 53  1  0
 16 54  1  0
 17 55  1  0
 18 56  1  0
 19 57  1  0
 22 58  1  0
 22 59  1  0
 22 60  1  0
 24 61  1  0
 25 62  1  0
 26 63  1  0
 27 64  1  0
M  CHG  2   4   1  21   1
M  END
>  <UniqueID>  (7) 
7

>  <SMILES>  (7) 
CCC[NH+](CCC)CCNCCNc1c2ccccc2[n+](C)c2ccccc12

>  <Energy>  (7) 
94.11710378452665

>  <Genealogy>  (7) 
CCC[NH+](CCC)CCNCCNc1c2ccccc2[n+](C)c2ccccc12 (protonated)
CCC[NH+](CCC)CCNCCNc1c2ccccc2[n+](C)c2ccccc12 (3D coordinates assigned)
CCC[NH+](CCC)CCNCCNc1c2ccccc2[n+](C)c2ccccc12 (optimized conformer: 94.11710378452665 kcal/mol)

>  <smiles>  (7) 
CCCN(CCC)CCNCCNc1c2ccccc2[n+](C)c2ccccc12

>  <score_type>  (7) 
oracle

>  <origin>  (7) 
adg

>  <m_score__min__energy>  (7) 
-3.8799999999999999

>  <m_primary>  (7) 
energy

$$$$
7:0
     RDKit          3D

 53 55  0  0  0  0  0  0  0  0999 V2000
   57.3270   31.0760   43.5200 C   0  0  0  0  0  0  0  0  0  0  0  0
   56.5510   29.7740   43.7070 C   0  0  0  0  0  0  0  0  0  0  0  0
   57.3910   28.6080   43.3770 N   0  0  0  0  0  0  0  0  0  0  0  0
   58.1180   28.0950   44.5600 C   0  0  0  0  0  0  0  0  0  0  0  0
   59.6300   28.3920   44.5150 C   0  0  0  0  0  0  0  0  0  0  0  0
   60.0440   29.4560   45.5380 C   0  0  0  0  0  0  0  0  0  0  0  0
   60.1240   28.8850   46.9620 C   0  0  0  0  0  0  0  0  0  0  0  0
   58.8500   29.1680   47.7720 C   0  0  0  0  0  0  0  0  0  0  0  0
   58.9350   30.4410   48.4940 N   0  0  0  0  0  0  0  0  0  0  0  0
   59.8780   31.4680   48.1280 C   0  0  0  0  0  0  0  0  0  0  0  0
   59.5160   32.4750   47.2100 C   0  0  0  0  0  0  0  0  0  0  0  0
   58.1890   32.5890   46.7360 C   0  0  0  0  0  0  0  0  0  0  0  0
   57.8380   33.5900   45.8360 C   0  0  0  0  0  0  0  0  0  0  0  0
   58.7930   34.5000   45.3980 C   0  0  0  0  0  0  0  0  0  0  0  0
   60.1130   34.3960   45.8360 C   0  0  0  0  0  0  0  0  0  0  0  0
   60.5110   33.3640   46.7230 C   0  0  0  0  0  0  0  0  0  0  0  0
   61.8280   33.2110   47.1130 N   0  0  0  0  0  0  0  0  0  0  0  0
   62.9030   33.9120   46.3770 C   0  0  0  0  0  0  0  0  0  0  0  0
   62.1390   32.3920   48.1810 C   0  0  0  0  0  0  0  0  0  0  0  0
   63.4100   32.4340   48.8070 C   0  0  0  0  0  0  0  0  0  0  0  0
   63.7140   31.5930   49.8770 C   0  0  0  0  0  0  0  0  0  0  0  0
   62.7580   30.7110   50.3670 C   0  0  0  0  0  0  0  0  0  0  0  0
   61.4900   30.6690   49.7930 C   0  0  0  0  0  0  0  0  0  0  0  0
   61.1660   31.4930   48.6950 C   0  0  0  0  0  0  0  0  0  0  0  0
   57.5783   31.4977   44.5044 H   0  0  0  0  0  0  0  0  0  0  0  0
   58.2523   30.8742   42.9605 H   0  0  0  0  0  0  0  0  0  0  0  0
   56.7093   31.7939   42.9605 H   0  0  0  0  0  0  0  0  0  0  0  0
   56.2238   29.6971   44.7544 H   0  0  0  0  0  0  0  0  0  0  0  0
   55.6822   29.7831   43.0324 H   0  0  0  0  0  0  0  0  0  0  0  0
   58.0550   28.8520   42.6050 H   0  0  0  0  0  0  0  0  0  0  0  0
   56.7630   27.8490   43.0190 H   0  0  0  0  0  0  0  0  0  0  0  0
   57.6956   28.5637   45.4611 H   0  0  0  0  0  0  0  0  0  0  0  0
   57.9982   27.0016   44.5704 H   0  0  0  0  0  0  0  0  0  0  0  0
   60.1795   27.4633   44.7283 H   0  0  0  0  0  0  0  0  0  0  0  0
   59.8677   28.7779   43.5127 H   0  0  0  0  0  0  0  0  0  0  0  0
   61.0313   29.8524   45.2583 H   0  0  0  0  0  0  0  0  0  0  0  0
   59.2809   30.2482   45.5320 H   0  0  0  0  0  0  0  0  0  0  0  0
   60.2699   27.7965   46.8997 H   0  0  0  0  0  0  0  0  0  0  0  0
   60.9661   29.3726   47.4750 H   0  0  0  0  0  0  0  0  0  0  0  0
   57.9920   29.2052   47.0846 H   0  0  0  0  0  0  0  0  0  0  0  0
   58.7295   28.3629   48.5118 H   0  0  0  0  0  0  0  0  0  0  0  0
   58.1870   30.6590   49.1900 H   0  0  0  0  0  0  0  0  0  0  0  0
   57.4250   31.8778   47.0830 H   0  0  0  0  0  0  0  0  0  0  0  0
   56.8030   33.6615   45.4704 H   0  0  0  0  0  0  0  0  0  0  0  0
   58.5069   35.3042   44.7042 H   0  0  0  0  0  0  0  0  0  0  0  0
   60.8577   35.1268   45.4875 H   0  0  0  0  0  0  0  0  0  0  0  0
   63.6016   34.3676   47.0942 H   0  0  0  0  0  0  0  0  0  0  0  0
   63.4439   33.1925   45.7448 H   0  0  0  0  0  0  0  0  0  0  0  0
   62.4628   34.6972   45.7448 H   0  0  0  0  0  0  0  0  0  0  0  0
   64.1692   33.1418   48.4427 H   0  0  0  0  0  0  0  0  0  0  0  0
   64.7136   31.6277   50.3347 H   0  0  0  0  0  0  0  0  0  0  0  0
   63.0031   30.0461   51.2083 H   0  0  0  0  0  0  0  0  0  0  0  0
   60.7315   29.9847   50.2010 H   0  0  0  0  0  0  0  0  0  0  0  0
  1  2  1  0
  2  3  1  0
  3  4  1  0
  4  5  1  0
  5  6  1  0
  6  7  1  0
  7  8  1  0
  8  9  1  0
  9 10  1  0
 10 11  2  0
 11 12  1  0
 12 13  2  0
 13 14  1  0
 14 15  2  0
 15 16  1  0
 16 17  2  0
 17 18  1  0
 17 19  1  0
 19 20  2  0
 20 21  1  0
 21 22  2  0
 22 23  1  0
 23 24  2  0
 24 10  1  0
 16 11  1  0
 24 19  1  0
  1 25  1  0
  1 26  1  0
  1 27  1  0
  2 28  1  0
  2 29  1  0
  3 30  1  0
  3 31  1  0
  4 32  1  0
  4 33  1  0
  5 34  1  0
  5 35  1  0
  6 36  1  0
  6 37  1  0
  7 38  1  0
  7 39  1  0
  8 40  1  0
  8 41  1  0
  9 42  1  0
 12 43  1  0
 13 44  1  0
 14 45  1  0
 15 46  1  0
 18 47  1  0
 18 48  1  0
 18 49  1  0
 20 50  1  0
 21 51  1  0
 22 52  1  0
 23 53  1  0
M  CHG  2   3   1  17   1
M  END
>  <UniqueID>  (8) 
8

>  <SMILES>  (8) 
CC[NH2+]CCCCCNc1c2ccccc2[n+](C)c2ccccc12

>  <Energy>  (8) 
70.59196278417114

>  <Genealogy>  (8) 
CC[NH2+]CCCCCNc1c2ccccc2[n+](C)c2ccccc12 (protonated)
CC[NH2+]CCCCCNc1c2ccccc2[n+](C)c2ccccc12 (3D coordinates assigned)
CC[NH2+]CCCCCNc1c2ccccc2[n+](C)c2ccccc12 (optimized conformer: 70.59196278417114 kcal/mol)

>  <smiles>  (8) 
CCNCCCCCNc1c2ccccc2[n+](C)c2ccccc12

>  <score_type>  (8) 
oracle

>  <origin>  (8) 
adg

>  <m_score__min__energy>  (8) 
-4.8899999999999997

>  <m_primary>  (8) 
energy

$$$$
8:0
     RDKit          3D

 38 41  0  0  0  0  0  0  0  0999 V2000
   63.2960   34.2130   54.1140 C   0  0  0  0  0  0  0  0  0  0  0  0
   63.0010   34.1520   52.7210 O   0  0  0  0  0  0  0  0  0  0  0  0
   63.8180   33.5650   51.7480 C   0  0  0  0  0  0  0  0  0  0  0  0
   65.1430   33.1950   52.0590 C   0  0  0  0  0  0  0  0  0  0  0  0
   66.0130   32.7510   51.0680 C   0  0  0  0  0  0  0  0  0  0  0  0
   65.5940   32.6910   49.7440 C   0  0  0  0  0  0  0  0  0  0  0  0
   64.2770   33.0260   49.4000 C   0  0  0  0  0  0  0  0  0  0  0  0
   63.9000   32.9890   48.0810 N   0  0  0  0  0  0  0  0  0  0  0  0
   62.6400   33.3080   47.6810 C   0  0  0  0  0  0  0  0  0  0  0  0
   61.6990   33.6480   48.6460 C   0  0  0  0  0  0  0  0  0  0  0  0
   62.0110   33.6390   49.9890 C   0  0  0  0  0  0  0  0  0  0  0  0
   60.7620   33.7960   50.6130 C   0  0  0  0  0  0  0  0  0  0  0  0
   60.3940   33.6580   52.0550 C   0  0  0  0  0  0  0  0  0  0  0  0
   59.8070   33.9360   49.6660 N   0  0  0  0  0  0  0  0  0  0  0  0
   60.3800   33.8640   48.4750 N   0  0  0  0  0  0  0  0  0  0  0  0
   59.6450   33.9560   47.2420 C   0  0  0  0  0  0  0  0  0  0  0  0
   60.0080   34.8880   46.2550 C   0  0  0  0  0  0  0  0  0  0  0  0
   59.2700   34.9850   45.0720 C   0  0  0  0  0  0  0  0  0  0  0  0
   58.1580   34.1640   44.8700 C   0  0  0  0  0  0  0  0  0  0  0  0
   57.7780   33.2480   45.8550 C   0  0  0  0  0  0  0  0  0  0  0  0
   58.5140   33.1490   47.0400 C   0  0  0  0  0  0  0  0  0  0  0  0
   63.3450   33.4010   50.4180 C   0  0  0  0  0  0  0  0  0  0  0  0
   62.3792   34.0234   54.6916 H   0  0  0  0  0  0  0  0  0  0  0  0
   64.0501   33.4518   54.3628 H   0  0  0  0  0  0  0  0  0  0  0  0
   63.6864   35.2109   54.3628 H   0  0  0  0  0  0  0  0  0  0  0  0
   65.4936   33.2583   53.0997 H   0  0  0  0  0  0  0  0  0  0  0  0
   67.0361   32.4464   51.3333 H   0  0  0  0  0  0  0  0  0  0  0  0
   66.3006   32.3786   48.9610 H   0  0  0  0  0  0  0  0  0  0  0  0
   64.5910   32.7130   47.3470 H   0  0  0  0  0  0  0  0  0  0  0  0
   62.3707   33.2972   46.6145 H   0  0  0  0  0  0  0  0  0  0  0  0
   61.2406   33.9755   52.6815 H   0  0  0  0  0  0  0  0  0  0  0  0
   59.5199   34.2894   52.2724 H   0  0  0  0  0  0  0  0  0  0  0  0
   60.1506   32.6075   52.2724 H   0  0  0  0  0  0  0  0  0  0  0  0
   60.8766   35.5440   46.4141 H   0  0  0  0  0  0  0  0  0  0  0  0
   59.5654   35.7092   44.2985 H   0  0  0  0  0  0  0  0  0  0  0  0
   57.5816   34.2384   43.9361 H   0  0  0  0  0  0  0  0  0  0  0  0
   56.8996   32.6047   45.6980 H   0  0  0  0  0  0  0  0  0  0  0  0
   58.2052   32.4352   47.8179 H   0  0  0  0  0  0  0  0  0  0  0  0
  1  2  1  0
  2  3  1  0
  3  4  2  0
  4  5  1  0
  5  6  2  0
  6  7  1  0
  7  8  2  0
  8  9  1  0
  9 10  2  0
 10 11  1  0
 11 12  1  0
 12 13  1  0
 12 14  2  0
 14 15  1  0
 15 16  1  0
 16 17  2  0
 17 18  1  0
 18 19  2  0
 19 20  1  0
 20 21  2  0
 11 22  2  0
 22  3  1  0
 22  7  1  0
 15 10  1  0
 21 16  1  0
  1 23  1  0
  1 24  1  0
  1 25  1  0
  4 26  1  0
  5 27  1  0
  6 28  1  0
  8 29  1  0
  9 30  1  0
 13 31  1  0
 13 32  1  0
 13 33  1  0
 17 34  1  0
 18 35  1  0
 19 36  1  0
 20 37  1  0
 21 38  1  0
M  CHG  1   8   1
M  END
>  <UniqueID>  (9) 
9

>  <SMILES>  (9) 
COc1cccc2[nH+]cc3c(c(C)nn3-c3ccccc3)c12

>  <Energy>  (9) 
98.7948145974082

>  <Genealogy>  (9) 
COc1cccc2[nH+]cc3c(c(C)nn3-c3ccccc3)c12 (protonated)
COc1cccc2[nH+]cc3c(c(C)nn3-c3ccccc3)c12 (3D coordinates assigned)
COc1cccc2[nH+]cc3c(c(C)nn3-c3ccccc3)c12 (optimized conformer: 98.7948145974082 kcal/mol)

>  <smiles>  (9) 
COc1cccc2ncc3c(c(C)nn3-c3ccccc3)c12

>  <score_type>  (9) 
oracle

>  <origin>  (9) 
adg

>  <m_score__min__energy>  (9) 
-5.8499999999999996

>  <m_primary>  (9) 
energy

$$$$
9:0
     RDKit          3D

 56 58  0  0  0  0  0  0  0  0999 V2000
   57.4270   31.9520   41.8750 C   0  0  0  0  0  0  0  0  0  0  0  0
   58.2570   31.6840   43.1450 C   0  0  0  0  0  0  0  0  0  0  0  0
   57.4980   31.1810   44.3420 N   0  0  0  0  0  0  0  0  0  0  0  0
   56.3470   30.3600   43.8800 C   0  0  0  0  0  0  0  0  0  0  0  0
   58.4470   30.3080   45.1160 C   0  0  0  0  0  0  0  0  0  0  0  0
   58.7130   28.9060   44.5340 C   0  0  0  0  0  0  0  0  0  0  0  0
   56.9720   32.3110   45.1830 C   0  0  0  0  0  0  0  0  0  0  0  0
   58.0000   33.3610   45.5760 C   0  0  0  0  0  0  0  0  0  0  0  0
   58.3390   34.3960   44.6880 C   0  0  0  0  0  0  0  0  0  0  0  0
   59.2890   35.3540   45.0450 C   0  0  0  0  0  0  0  0  0  0  0  0
   59.9290   35.2810   46.2840 C   0  0  0  0  0  0  0  0  0  0  0  0
   59.6360   34.2330   47.1700 C   0  0  0  0  0  0  0  0  0  0  0  0
   60.3340   34.1480   48.5150 C   0  0  0  0  0  0  0  0  0  0  0  0
   61.6580   33.4590   48.4860 N   0  0  2  0  0  0  0  0  0  0  0  0
   61.5420   32.0220   48.8670 C   0  0  0  0  0  0  0  0  0  0  0  0
   62.9430   31.3570   48.8860 C   0  0  0  0  0  0  0  0  0  0  0  0
   63.9770   32.3460   48.5150 N   0  0  2  0  0  0  0  0  0  0  0  0
   63.9510   33.4600   49.4830 C   0  0  0  0  0  0  0  0  0  0  0  0
   62.5570   34.1310   49.4700 C   0  0  0  0  0  0  0  0  0  0  0  0
   63.6920   32.8740   47.1630 C   0  0  0  0  0  0  0  0  0  0  0  0
   62.2950   33.5450   47.1400 C   0  0  0  0  0  0  0  0  0  0  0  0
   58.6690   33.2810   46.8100 C   0  0  0  0  0  0  0  0  0  0  0  0
   56.4159   32.2785   42.1599 H   0  0  0  0  0  0  0  0  0  0  0  0
   57.9122   32.7391   41.2792 H   0  0  0  0  0  0  0  0  0  0  0  0
   57.3603   31.0297   41.2792 H   0  0  0  0  0  0  0  0  0  0  0  0
   59.0219   30.9345   42.8937 H   0  0  0  0  0  0  0  0  0  0  0  0
   58.6615   32.6624   43.4435 H   0  0  0  0  0  0  0  0  0  0  0  0
   55.8010   29.9705   44.7519 H   0  0  0  0  0  0  0  0  0  0  0  0
   55.6728   30.9823   43.2732 H   0  0  0  0  0  0  0  0  0  0  0  0
   56.7159   29.5199   43.2732 H   0  0  0  0  0  0  0  0  0  0  0  0
   59.4113   30.8337   45.1781 H   0  0  0  0  0  0  0  0  0  0  0  0
   57.9609   30.1352   46.0875 H   0  0  0  0  0  0  0  0  0  0  0  0
   58.8493   28.1877   45.3558 H   0  0  0  0  0  0  0  0  0  0  0  0
   57.8574   28.5974   43.9154 H   0  0  0  0  0  0  0  0  0  0  0  0
   59.6222   28.9322   43.9154 H   0  0  0  0  0  0  0  0  0  0  0  0
   56.1730   32.8125   44.6173 H   0  0  0  0  0  0  0  0  0  0  0  0
   56.6269   31.8559   46.1231 H   0  0  0  0  0  0  0  0  0  0  0  0
   57.8516   34.4516   43.7034 H   0  0  0  0  0  0  0  0  0  0  0  0
   59.5344   36.1691   44.3483 H   0  0  0  0  0  0  0  0  0  0  0  0
   60.6654   36.0477   46.5665 H   0  0  0  0  0  0  0  0  0  0  0  0
   60.4881   35.1717   48.8868 H   0  0  0  0  0  0  0  0  0  0  0  0
   59.6835   33.5456   49.1661 H   0  0  0  0  0  0  0  0  0  0  0  0
   61.0907   31.9468   49.8674 H   0  0  0  0  0  0  0  0  0  0  0  0
   60.9100   31.5055   48.1295 H   0  0  0  0  0  0  0  0  0  0  0  0
   63.1508   30.9741   49.8961 H   0  0  0  0  0  0  0  0  0  0  0  0
   62.9594   30.5287   48.1624 H   0  0  0  0  0  0  0  0  0  0  0  0
   64.9210   31.8900   48.5240 H   0  0  0  0  0  0  0  0  0  0  0  0
   64.1610   33.0732   50.4911 H   0  0  0  0  0  0  0  0  0  0  0  0
   64.7144   34.2016   49.2049 H   0  0  0  0  0  0  0  0  0  0  0  0
   62.1121   34.0592   50.4735 H   0  0  0  0  0  0  0  0  0  0  0  0
   62.6744   35.1855   49.1796 H   0  0  0  0  0  0  0  0  0  0  0  0
   64.4573   33.6166   46.8930 H   0  0  0  0  0  0  0  0  0  0  0  0
   63.7062   32.0444   46.4408 H   0  0  0  0  0  0  0  0  0  0  0  0
   62.4048   34.6023   46.8572 H   0  0  0  0  0  0  0  0  0  0  0  0
   61.6594   33.0238   46.4090 H   0  0  0  0  0  0  0  0  0  0  0  0
   58.4313   32.4607   47.5033 H   0  0  0  0  0  0  0  0  0  0  0  0
  1  2  1  0
  2  3  1  0
  3  4  1  0
  3  5  1  0
  5  6  1  0
  3  7  1  0
  7  8  1  0
  8  9  2  0
  9 10  1  0
 10 11  2  0
 11 12  1  0
 12 13  1  0
 14 13  1  6
 14 15  1  0
 15 16  1  0
 16 17  1  0
 17 18  1  0
 18 19  1  0
 17 20  1  0
 20 21  1  0
 12 22  2  0
 22  8  1  0
 19 14  1  0
 21 14  1  0
  1 23  1  0
  1 24  1  0
  1 25  1  0
  2 26  1  0
  2 27  1  0
  4 28  1  0
  4 29  1  0
  4 30  1  0
  5 31  1  0
  5 32  1  0
  6 33  1  0
  6 34  1  0
  6 35  1  0
  7 36  1  0
  7 37  1  0
  9 38  1  0
 10 39  1  0
 11 40  1  0
 13 41  1  0
 13 42  1  0
 15 43  1  0
 15 44  1  0
 16 45  1  0
 16 46  1  0
 17 47  1  6
 18 48  1  0
 18 49  1  0
 19 50  1  0
 19 51  1  0
 20 52  1  0
 20 53  1  0
 21 54  1  0
 21 55  1  0
 22 56  1  0
M  CHG  3   3   1  14   1  17   1
M  END
>  <UniqueID>  (10) 
10

>  <SMILES>  (10) 
CC[N+](C)(CC)Cc1cccc(C[N+]23CC[NH+](CC2)CC3)c1

>  <Energy>  (10) 
91.37460116667832

>  <Genealogy>  (10) 
CC[N+](C)(CC)Cc1cccc(C[N+]23CC[NH+](CC2)CC3)c1 (protonated)
CC[N+](C)(CC)Cc1cccc(C[N+]23CC[NH+](CC2)CC3)c1 (3D coordinates assigned)
CC[N+](C)(CC)Cc1cccc(C[N+]23CC[NH+](CC2)CC3)c1 (nonaromatic ring conformer: 91.37460116667832 kcal/mol)

>  <smiles>  (10) 
CC[N+](C)(CC)Cc1cccc(C[N+]23CCN(CC2)CC3)c1

>  <score_type>  (10) 
oracle

>  <origin>  (10) 
adg

>  <m_score__min__energy>  (10) 
-3.3799999999999999

>  <m_primary>  (10) 
energy

$$$$
10:0
     RDKit          3D

 50 52  0  0  0  0  0  0  0  0999 V2000
   60.5220   33.7620   49.7920 C   0  0  0  0  0  0  0  0  0  0  0  0
   61.6890   33.8850   50.7600 C   0  0  0  0  0  0  0  0  0  0  0  0
   62.9010   33.7690   50.0430 O   0  0  0  0  0  0  0  0  0  0  0  0
   63.5170   32.5240   50.3100 C   0  0  0  0  0  0  0  0  0  0  0  0
   64.0980   31.9320   49.0150 C   0  0  0  0  0  0  0  0  0  0  0  0
   63.8930   32.8180   47.8570 N   0  0  0  0  0  0  0  0  0  0  0  0
   62.5520   32.7080   47.3510 C   0  0  0  0  0  0  0  0  0  0  0  0
   61.9610   31.4810   47.2450 N   0  0  0  0  0  0  0  0  0  0  0  0
   60.7020   31.3240   46.7440 C   0  0  0  0  0  0  0  0  0  0  0  0
   60.1460   30.0060   46.6790 N   0  0  0  0  0  0  0  0  0  0  0  0
   59.5510   29.4160   47.8830 C   0  0  0  0  0  0  0  0  0  0  0  0
   60.3360   28.1630   48.2810 C   0  0  0  0  0  0  0  0  0  0  0  0
   60.4870   27.1570   47.1140 C   0  0  0  0  0  0  0  0  0  0  0  0
   60.0330   27.7100   45.7500 C   0  0  0  0  0  0  0  0  0  0  0  0
   60.5150   29.1510   45.5420 C   0  0  0  0  0  0  0  0  0  0  0  0
   59.9990   32.4670   46.3140 C   0  0  0  0  0  0  0  0  0  0  0  0
   58.7110   32.5830   45.7360 C   0  0  0  0  0  0  0  0  0  0  0  0
   57.7750   31.4380   45.4680 C   0  0  0  0  0  0  0  0  0  0  0  0
   58.3740   33.9220   45.4720 C   0  0  0  0  0  0  0  0  0  0  0  0
   57.0940   34.4140   44.8750 C   0  0  0  0  0  0  0  0  0  0  0  0
   59.6560   34.9350   45.9000 S   0  0  0  0  0  0  0  0  0  0  0  0
   60.6310   33.6920   46.4460 C   0  0  0  0  0  0  0  0  0  0  0  0
   61.8800   33.8220   46.9490 N   0  0  0  0  0  0  0  0  0  0  0  0
   59.5844   33.6632   50.3587 H   0  0  0  0  0  0  0  0  0  0  0  0
   60.4747   34.6601   49.1587 H   0  0  0  0  0  0  0  0  0  0  0  0
   60.6630   32.8737   49.1587 H   0  0  0  0  0  0  0  0  0  0  0  0
   61.6500   34.8635   51.2610 H   0  0  0  0  0  0  0  0  0  0  0  0
   61.6285   33.0876   51.5154 H   0  0  0  0  0  0  0  0  0  0  0  0
   64.3276   32.6684   51.0395 H   0  0  0  0  0  0  0  0  0  0  0  0
   62.7657   31.8310   50.7167 H   0  0  0  0  0  0  0  0  0  0  0  0
   65.1777   31.7721   49.1519 H   0  0  0  0  0  0  0  0  0  0  0  0
   63.5754   30.9855   48.8124 H   0  0  0  0  0  0  0  0  0  0  0  0
   64.5840   32.5930   47.1040 H   0  0  0  0  0  0  0  0  0  0  0  0
   64.0530   33.8070   48.1580 H   0  0  0  0  0  0  0  0  0  0  0  0
   59.5860   30.1466   48.7046 H   0  0  0  0  0  0  0  0  0  0  0  0
   58.5053   29.1430   47.6782 H   0  0  0  0  0  0  0  0  0  0  0  0
   61.3388   28.4674   48.6153 H   0  0  0  0  0  0  0  0  0  0  0  0
   59.7752   27.6602   49.0827 H   0  0  0  0  0  0  0  0  0  0  0  0
   61.5468   26.8726   47.0369 H   0  0  0  0  0  0  0  0  0  0  0  0
   59.8355   26.3011   47.3442 H   0  0  0  0  0  0  0  0  0  0  0  0
   60.4455   27.0758   44.9514 H   0  0  0  0  0  0  0  0  0  0  0  0
   58.9333   27.7055   45.7232 H   0  0  0  0  0  0  0  0  0  0  0  0
   61.6097   29.1508   45.4341 H   0  0  0  0  0  0  0  0  0  0  0  0
   60.0352   29.5507   44.6365 H   0  0  0  0  0  0  0  0  0  0  0  0
   57.4296   31.0155   46.4231 H   0  0  0  0  0  0  0  0  0  0  0  0
   56.9098   31.7987   44.8924 H   0  0  0  0  0  0  0  0  0  0  0  0
   58.3005   30.6618   44.8924 H   0  0  0  0  0  0  0  0  0  0  0  0
   56.3938   34.6831   45.6795 H   0  0  0  0  0  0  0  0  0  0  0  0
   57.2956   35.2987   44.2532 H   0  0  0  0  0  0  0  0  0  0  0  0
   56.6512   33.6220   44.2532 H   0  0  0  0  0  0  0  0  0  0  0  0
  1  2  1  0
  2  3  1  0
  3  4  1  0
  4  5  1  0
  5  6  1  0
  6  7  1  0
  7  8  2  0
  8  9  1  0
  9 10  1  0
 10 11  1  0
 11 12  1  0
 12 13  1  0
 13 14  1  0
 14 15  1  0
  9 16  2  0
 16 17  1  0
 17 18  1  0
 17 19  2  0
 19 20  1  0
 19 21  1  0
 21 22  1  0
 22 23  2  0
 23  7  1  0
 15 10  1  0
 22 16  1  0
  1 24  1  0
  1 25  1  0
  1 26  1  0
  2 27  1  0
  2 28  1  0
  4 29  1  0
  4 30  1  0
  5 31  1  0
  5 32  1  0
  6 33  1  0
  6 34  1  0
 11 35  1  0
 11 36  1  0
 12 37  1  0
 12 38  1  0
 13 39  1  0
 13 40  1  0
 14 41  1  0
 14 42  1  0
 15 43  1  0
 15 44  1  0
 18 45  1  0
 18 46  1  0
 18 47  1  0
 20 48  1  0
 20 49  1  0
 20 50  1  0
M  CHG  1   6   1
M  END
>  <UniqueID>  (11) 
11

>  <SMILES>  (11) 
CCOCC[NH2+]c1nc(N2CCCCC2)c2c(C)c(C)sc2n1

>  <Energy>  (11) 
87.94602108165479

>  <Genealogy>  (11) 
CCOCC[NH2+]c1nc(N2CCCCC2)c2c(C)c(C)sc2n1 (protonated)
CCOCC[NH2+]c1nc(N2CCCCC2)c2c(C)c(C)sc2n1 (3D coordinates assigned)
CCOCC[NH2+]c1nc(N2CCCCC2)c2c(C)c(C)sc2n1 (nonaromatic ring conformer: 87.94602108165479 kcal/mol)

>  <smiles>  (11) 
CCOCCNc1nc(N2CCCCC2)c2c(C)c(C)sc2n1

>  <score_type>  (11) 
oracle

>  <origin>  (11) 
adg

>  <m_score__min__energy>  (11) 
-5.8099999999999996

>  <m_primary>  (11) 
energy

$$$$
11:0
     RDKit          3D

 57 59  0  0  0  0  0  0  0  0999 V2000
   60.6660   33.7840   50.1200 C   0  0  0  0  0  0  0  0  0  0  0  0
   60.5900   32.2800   50.4230 C   0  0  0  0  0  0  0  0  0  0  0  0
   59.5750   31.5530   49.6190 N   0  0  0  0  0  0  0  0  0  0  0  0
   58.2250   32.1390   49.8140 C   0  0  0  0  0  0  0  0  0  0  0  0
   57.7240   31.9660   51.2440 C   0  0  0  0  0  0  0  0  0  0  0  0
   59.6230   30.0850   49.8540 C   0  0  0  0  0  0  0  0  0  0  0  0
   60.7600   29.3980   49.0480 C   0  0  0  0  0  0  0  0  0  0  0  0
   60.6530   29.4070   47.5640 N   0  0  0  0  0  0  0  0  0  0  0  0
   60.4570   30.7010   46.9310 C   0  0  0  0  0  0  0  0  0  0  0  0
   61.4200   31.7250   47.1620 C   0  0  0  0  0  0  0  0  0  0  0  0
   62.6630   31.4550   47.7920 C   0  0  0  0  0  0  0  0  0  0  0  0
   63.6150   32.4540   47.9720 C   0  0  0  0  0  0  0  0  0  0  0  0
   63.3620   33.7430   47.5280 C   0  0  0  0  0  0  0  0  0  0  0  0
   62.1500   34.0410   46.9140 C   0  0  0  0  0  0  0  0  0  0  0  0
   61.1500   33.0500   46.7410 C   0  0  0  0  0  0  0  0  0  0  0  0
   59.9440   33.3520   46.1580 N   0  0  0  0  0  0  0  0  0  0  0  0
   59.5130   34.7660   46.0560 C   0  0  0  0  0  0  0  0  0  0  0  0
   59.1330   32.3450   45.6770 C   0  0  0  0  0  0  0  0  0  0  0  0
   58.1200   32.6480   44.7450 C   0  0  0  0  0  0  0  0  0  0  0  0
   57.2460   31.6850   44.2810 C   0  0  0  0  0  0  0  0  0  0  0  0
   57.3370   30.3660   44.7180 C   0  0  0  0  0  0  0  0  0  0  0  0
   56.3870   29.3800   44.2460 N   0  0  0  0  0  0  0  0  0  0  0  0
   55.1440   29.7170   43.5570 C   0  0  0  0  0  0  0  0  0  0  0  0
   58.3710   30.0010   45.6160 C   0  0  0  0  0  0  0  0  0  0  0  0
   58.4270   28.6230   46.0030 N   0  0  0  0  0  0  0  0  0  0  0  0
   59.3800   27.9280   45.5970 O   0  0  0  0  0  0  0  0  0  0  0  0
   57.7710   28.2270   47.1470 O   0  0  0  0  0  0  0  0  0  0  0  0
   59.3200   30.9870   46.0900 C   0  0  0  0  0  0  0  0  0  0  0  0
   60.6945   34.3473   51.0644 H   0  0  0  0  0  0  0  0  0  0  0  0
   61.5760   33.9955   49.5393 H   0  0  0  0  0  0  0  0  0  0  0  0
   59.7820   34.0862   49.5393 H   0  0  0  0  0  0  0  0  0  0  0  0
   61.5755   31.8358   50.2195 H   0  0  0  0  0  0  0  0  0  0  0  0
   60.2911   32.1822   51.4771 H   0  0  0  0  0  0  0  0  0  0  0  0
   58.2679   33.2132   49.5810 H   0  0  0  0  0  0  0  0  0  0  0  0
   57.5280   31.6123   49.1455 H   0  0  0  0  0  0  0  0  0  0  0  0
   58.5227   32.2418   51.9482 H   0  0  0  0  0  0  0  0  0  0  0  0
   56.8508   32.6147   51.4076 H   0  0  0  0  0  0  0  0  0  0  0  0
   57.4371   30.9167   51.4076 H   0  0  0  0  0  0  0  0  0  0  0  0
   59.7891   29.9032   50.9261 H   0  0  0  0  0  0  0  0  0  0  0  0
   58.6662   29.6581   49.5189 H   0  0  0  0  0  0  0  0  0  0  0  0
   61.7018   29.9005   49.3134 H   0  0  0  0  0  0  0  0  0  0  0  0
   60.6983   28.3357   49.3267 H   0  0  0  0  0  0  0  0  0  0  0  0
   59.8710   28.7730   47.2860 H   0  0  0  0  0  0  0  0  0  0  0  0
   61.4340   28.8870   47.1240 H   0  0  0  0  0  0  0  0  0  0  0  0
   62.8781   30.4356   48.1450 H   0  0  0  0  0  0  0  0  0  0  0  0
   64.5692   32.2208   48.4670 H   0  0  0  0  0  0  0  0  0  0  0  0
   64.1194   34.5295   47.6613 H   0  0  0  0  0  0  0  0  0  0  0  0
   61.9635   35.0642   46.5559 H   0  0  0  0  0  0  0  0  0  0  0  0
   59.3855   35.1842   47.0654 H   0  0  0  0  0  0  0  0  0  0  0  0
   60.2759   35.3436   45.5134 H   0  0  0  0  0  0  0  0  0  0  0  0
   58.5576   34.8199   45.5134 H   0  0  0  0  0  0  0  0  0  0  0  0
   58.0230   33.6801   44.3771 H   0  0  0  0  0  0  0  0  0  0  0  0
   56.4670   31.9636   43.5561 H   0  0  0  0  0  0  0  0  0  0  0  0
   56.5670   28.3630   44.3890 H   0  0  0  0  0  0  0  0  0  0  0  0
   54.3598   29.9296   44.2985 H   0  0  0  0  0  0  0  0  0  0  0  0
   55.3031   30.6044   42.9268 H   0  0  0  0  0  0  0  0  0  0  0  0
   54.8330   28.8707   42.9268 H   0  0  0  0  0  0  0  0  0  0  0  0
  1  2  1  0
  2  3  1  0
  3  4  1  0
  4  5  1  0
  3  6  1  0
  6  7  1  0
  7  8  1  0
  8  9  1  0
  9 10  2  0
 10 11  1  0
 11 12  2  0
 12 13  1  0
 13 14  2  0
 14 15  1  0
 15 16  2  0
 16 17  1  0
 16 18  1  0
 18 19  2  0
 19 20  1  0
 20 21  2  0
 21 22  1  0
 22 23  1  0
 21 24  1  0
 24 25  1  0
 25 26  2  0
 25 27  1  0
 24 28  2  0
 28  9  1  0
 15 10  1  0
 28 18  1  0
  1 29  1  0
  1 30  1  0
  1 31  1  0
  2 32  1  0
  2 33  1  0
  4 34  1  0
  4 35  1  0
  5 36  1  0
  5 37  1  0
  5 38  1  0
  6 39  1  0
  6 40  1  0
  7 41  1  0
  7 42  1  0
  8 43  1  0
  8 44  1  0
 11 45  1  0
 12 46  1  0
 13 47  1  0
 14 48  1  0
 17 49  1  0
 17 50  1  0
 17 51  1  0
 19 52  1  0
 20 53  1  0
 22 54  1  0
 23 55  1  0
 23 56  1  0
 23 57  1  0
M  CHG  4   8   1  16   1  25   1  27  -1
M  END
>  <UniqueID>  (12) 
12

>  <SMILES>  (12) 
CCN(CC)CC[NH2+]c1c2ccccc2[n+](C)c2ccc(NC)c([N+](=O)[O-])c12

>  <Energy>  (12) 
111.78118852199613

>  <Genealogy>  (12) 
CCN(CC)CC[NH2+]c1c2ccccc2[n+](C)c2ccc(NC)c([N+](=O)[O-])c12 (protonated)
CCN(CC)CC[NH2+]c1c2ccccc2[n+](C)c2ccc(NC)c([N+](=O)[O-])c12 (3D coordinates assigned)
CCN(CC)CC[NH2+]c1c2ccccc2[n+](C)c2ccc(NC)c([N+](=O)[O-])c12 (optimized conformer: 111.78118852199613 kcal/mol)

>  <smiles>  (12) 
CCN(CC)CCNc1c2ccccc2[n+](C)c2ccc(NC)c([N+](=O)[O-])c12

>  <score_type>  (12) 
oracle

>  <origin>  (12) 
adg

>  <m_score__min__energy>  (12) 
-3.9199999999999999

>  <m_primary>  (12) 
energy

$$$$
12:0
     RDKit          3D

 50 49  0  0  0  0  0  0  0  0999 V2000
   61.3470   33.8110   50.2780 C   0  0  0  0  0  0  0  0  0  0  0  0
   60.0240   33.8400   49.5290 C   0  0  0  0  0  0  0  0  0  0  0  0
   59.7030   32.5320   49.1040 O   0  0  0  0  0  0  0  0  0  0  0  0
   58.8120   31.9140   50.0160 C   0  0  0  0  0  0  0  0  0  0  0  0
   58.8030   30.4000   49.7920 C   0  0  0  0  0  0  0  0  0  0  0  0
   59.6020   30.0510   48.6770 O   0  0  0  0  0  0  0  0  0  0  0  0
   58.8850   29.2450   47.7590 C   0  0  0  0  0  0  0  0  0  0  0  0
   58.9390   29.8450   46.3470 C   0  0  0  0  0  0  0  0  0  0  0  0
   59.2710   31.2800   46.3590 N   0  0  0  0  0  0  0  0  0  0  0  0
   58.2110   32.1680   45.8430 C   0  0  0  0  0  0  0  0  0  0  0  0
   57.8710   33.3690   46.7500 C   0  0  0  0  0  0  0  0  0  0  0  0
   58.8160   34.5620   46.5480 C   0  0  0  0  0  0  0  0  0  0  0  0
   60.0300   34.1640   45.6890 C   0  0  0  0  0  0  0  0  0  0  0  0
   60.9330   33.2420   46.4050 N   0  0  0  0  0  0  0  0  0  0  0  0
   62.2420   33.8560   46.7310 C   0  0  0  0  0  0  0  0  0  0  0  0
   63.3350   32.8180   47.0600 C   0  0  0  0  0  0  0  0  0  0  0  0
   62.8510   31.6860   47.9760 C   0  0  0  0  0  0  0  0  0  0  0  0
   61.6480   31.0530   47.4440 N   0  0  0  0  0  0  0  0  0  0  0  0
   61.1553   33.8152   51.3612 H   0  0  0  0  0  0  0  0  0  0  0  0
   61.9017   32.9005   50.0073 H   0  0  0  0  0  0  0  0  0  0  0  0
   61.9411   34.6963   50.0073 H   0  0  0  0  0  0  0  0  0  0  0  0
   59.2326   34.2154   50.1943 H   0  0  0  0  0  0  0  0  0  0  0  0
   60.1082   34.5027   48.6551 H   0  0  0  0  0  0  0  0  0  0  0  0
   59.1367   32.1284   51.0449 H   0  0  0  0  0  0  0  0  0  0  0  0
   57.7982   32.3095   49.8555 H   0  0  0  0  0  0  0  0  0  0  0  0
   59.1981   29.9006   50.6889 H   0  0  0  0  0  0  0  0  0  0  0  0
   57.7689   30.0789   49.5984 H   0  0  0  0  0  0  0  0  0  0  0  0
   59.3285   28.2386   47.7401 H   0  0  0  0  0  0  0  0  0  0  0  0
   57.8342   29.1950   48.0804 H   0  0  0  0  0  0  0  0  0  0  0  0
   59.7040   29.3103   45.7650 H   0  0  0  0  0  0  0  0  0  0  0  0
   57.9410   29.7354   45.8976 H   0  0  0  0  0  0  0  0  0  0  0  0
   59.5200   31.5630   47.3340 H   0  0  0  0  0  0  0  0  0  0  0  0
   58.5369   32.5580   44.8674 H   0  0  0  0  0  0  0  0  0  0  0  0
   57.2980   31.5572   45.7848 H   0  0  0  0  0  0  0  0  0  0  0  0
   56.8437   33.6947   46.5294 H   0  0  0  0  0  0  0  0  0  0  0  0
   57.9820   33.0351   47.7922 H   0  0  0  0  0  0  0  0  0  0  0  0
   58.2693   35.3729   46.0445 H   0  0  0  0  0  0  0  0  0  0  0  0
   59.1768   34.8943   47.5326 H   0  0  0  0  0  0  0  0  0  0  0  0
   59.6714   33.6708   44.7735 H   0  0  0  0  0  0  0  0  0  0  0  0
   60.5942   35.0781   45.4524 H   0  0  0  0  0  0  0  0  0  0  0  0
   60.4530   32.9110   47.2740 H   0  0  0  0  0  0  0  0  0  0  0  0
   61.0890   32.3880   45.8200 H   0  0  0  0  0  0  0  0  0  0  0  0
   62.5737   34.4513   45.8675 H   0  0  0  0  0  0  0  0  0  0  0  0
   62.0982   34.4751   47.6288 H   0  0  0  0  0  0  0  0  0  0  0  0
   63.6892   32.3753   46.1174 H   0  0  0  0  0  0  0  0  0  0  0  0
   64.1334   33.3497   47.5984 H   0  0  0  0  0  0  0  0  0  0  0  0
   63.6455   30.9302   48.0626 H   0  0  0  0  0  0  0  0  0  0  0  0
   62.6126   32.1135   48.9611 H   0  0  0  0  0  0  0  0  0  0  0  0
   60.8210   31.5640   47.8290 H   0  0  0  0  0  0  0  0  0  0  0  0
   61.5960   30.0770   47.8190 H   0  0  0  0  0  0  0  0  0  0  0  0
  1  2  1  0
  2  3  1  0
  3  4  1  0
  4  5  1  0
  5  6  1  0
  6  7  1  0
  7  8  1  0
  8  9  1  0
  9 10  1  0
 10 11  1  0
 11 12  1  0
 12 13  1  0
 13 14  1  0
 14 15  1  0
 15 16  1  0
 16 17  1  0
 17 18  1  0
  1 19  1  0
  1 20  1  0
  1 21  1  0
  2 22  1  0
  2 23  1  0
  4 24  1  0
  4 25  1  0
  5 26  1  0
  5 27  1  0
  7 28  1  0
  7 29  1  0
  8 30  1  0
  8 31  1  0
  9 32  1  0
 10 33  1  0
 10 34  1  0
 11 35  1  0
 11 36  1  0
 12 37  1  0
 12 38  1  0
 13 39  1  0
 13 40  1  0
 14 41  1  0
 14 42  1  0
 15 43  1  0
 15 44  1  0
 16 45  1  0
 16 46  1  0
 17 47  1  0
 17 48  1  0
 18 49  1  0
 18 50  1  0
M  CHG  1  14   1
M  END
>  <UniqueID>  (13) 
13

>  <SMILES>  (13) 
CCOCCOCCNCCCC[NH2+]CCCN

>  <Energy>  (13) 
40.7937363976423

>  <Genealogy>  (13) 
CCOCCOCCNCCCC[NH2+]CCCN (protonated)
CCOCCOCCNCCCC[NH2+]CCCN (3D coordinates assigned)
CCOCCOCCNCCCC[NH2+]CCCN (optimized conformer: 40.7937363976423 kcal/mol)

>  <smiles>  (13) 
CCOCCOCCNCCCCNCCCN

>  <score_type>  (13) 
oracle

>  <origin>  (13) 
adg

>  <m_score__min__energy>  (13) 
-0.66000000000000003

>  <m_primary>  (13) 
energy

$$$$
13:0
     RDKit          3D

 55 57  0  0  0  0  0  0  0  0999 V2000
   56.3160   29.7510   42.6780 C   0  0  0  0  0  0  0  0  0  0  0  0
   56.1400   29.6920   44.1880 C   0  0  0  0  0  0  0  0  0  0  0  0
   56.5600   30.9160   44.7520 O   0  0  0  0  0  0  0  0  0  0  0  0
   57.8600   31.2240   44.2970 C   0  0  0  0  0  0  0  0  0  0  0  0
   57.8350   32.5270   43.4840 C   0  0  0  0  0  0  0  0  0  0  0  0
   57.9150   33.7570   44.3020 N   0  0  0  0  0  0  0  0  0  0  0  0
   56.9100   33.8920   45.3760 C   0  0  0  0  0  0  0  0  0  0  0  0
   57.4030   33.4030   46.7580 C   0  0  0  0  0  0  0  0  0  0  0  0
   58.8650   33.1790   46.8030 N   0  0  0  0  0  0  0  0  0  0  0  0
   59.3490   33.0510   48.1950 C   0  0  0  0  0  0  0  0  0  0  0  0
   59.9100   34.3800   48.7200 C   0  0  0  0  0  0  0  0  0  0  0  0
   61.2540   34.5710   48.2770 O   0  0  0  0  0  0  0  0  0  0  0  0
   62.4040   34.0950   48.9300 C   0  0  0  0  0  0  0  0  0  0  0  0
   62.6840   34.3760   50.2810 C   0  0  0  0  0  0  0  0  0  0  0  0
   63.8440   33.8790   50.8830 C   0  0  0  0  0  0  0  0  0  0  0  0
   64.1000   34.2020   52.1780 F   0  0  0  0  0  0  0  0  0  0  0  0
   64.7460   33.0910   50.1460 C   0  0  0  0  0  0  0  0  0  0  0  0
   65.9750   32.5520   50.7760 C   0  0  0  0  0  0  0  0  0  0  0  0
   66.1260   31.1710   50.9700 C   0  0  0  0  0  0  0  0  0  0  0  0
   67.2960   30.7010   51.5640 C   0  0  0  0  0  0  0  0  0  0  0  0
   68.2610   31.5760   51.9450 N   0  0  0  0  0  0  0  0  0  0  0  0
   68.1040   32.9120   51.7580 C   0  0  0  0  0  0  0  0  0  0  0  0
   66.9720   33.3940   51.1800 N   0  0  0  0  0  0  0  0  0  0  0  0
   64.4670   32.8210   48.7960 C   0  0  0  0  0  0  0  0  0  0  0  0
   63.3080   33.3170   48.1960 C   0  0  0  0  0  0  0  0  0  0  0  0
   63.0560   33.0360   46.8930 F   0  0  0  0  0  0  0  0  0  0  0  0
   59.5570   34.2880   46.1270 C   0  0  0  0  0  0  0  0  0  0  0  0
   59.2820   34.2260   44.6210 C   0  0  0  0  0  0  0  0  0  0  0  0
   57.3344   30.0924   42.4406 H   0  0  0  0  0  0  0  0  0  0  0  0
   56.1559   28.7501   42.2508 H   0  0  0  0  0  0  0  0  0  0  0  0
   55.5850   30.4532   42.2508 H   0  0  0  0  0  0  0  0  0  0  0  0
   55.0804   29.5203   44.4286 H   0  0  0  0  0  0  0  0  0  0  0  0
   56.7436   28.8692   44.5987 H   0  0  0  0  0  0  0  0  0  0  0  0
   58.5294   31.3463   45.1613 H   0  0  0  0  0  0  0  0  0  0  0  0
   58.2231   30.4056   43.6579 H   0  0  0  0  0  0  0  0  0  0  0  0
   58.6898   32.5175   42.7918 H   0  0  0  0  0  0  0  0  0  0  0  0
   56.8652   32.5561   42.9657 H   0  0  0  0  0  0  0  0  0  0  0  0
   56.6347   34.9535   45.4618 H   0  0  0  0  0  0  0  0  0  0  0  0
   56.0564   33.2566   45.0974 H   0  0  0  0  0  0  0  0  0  0  0  0
   57.1408   34.1599   47.5119 H   0  0  0  0  0  0  0  0  0  0  0  0
   56.9154   32.4377   46.9592 H   0  0  0  0  0  0  0  0  0  0  0  0
   58.5125   32.7377   48.8369 H   0  0  0  0  0  0  0  0  0  0  0  0
   60.1568   32.3045   48.2123 H   0  0  0  0  0  0  0  0  0  0  0  0
   59.2866   35.2068   48.3489 H   0  0  0  0  0  0  0  0  0  0  0  0
   59.9000   34.3582   49.8197 H   0  0  0  0  0  0  0  0  0  0  0  0
   61.9851   34.9909   50.8670 H   0  0  0  0  0  0  0  0  0  0  0  0
   65.3357   30.4719   50.6591 H   0  0  0  0  0  0  0  0  0  0  0  0
   67.4371   29.6219   51.7239 H   0  0  0  0  0  0  0  0  0  0  0  0
   68.8957   33.6066   52.0754 H   0  0  0  0  0  0  0  0  0  0  0  0
   66.8680   34.4280   51.0720 H   0  0  0  0  0  0  0  0  0  0  0  0
   65.1684   32.2129   48.2059 H   0  0  0  0  0  0  0  0  0  0  0  0
   59.1910   35.2453   46.5265 H   0  0  0  0  0  0  0  0  0  0  0  0
   60.6395   34.2040   46.3037 H   0  0  0  0  0  0  0  0  0  0  0  0
   59.4147   35.2330   44.1986 H   0  0  0  0  0  0  0  0  0  0  0  0
   59.9879   33.5026   44.1869 H   0  0  0  0  0  0  0  0  0  0  0  0
  1  2  1  0
  2  3  1  0
  3  4  1  0
  4  5  1  0
  5  6  1  0
  6  7  1  0
  7  8  1  0
  8  9  1  0
  9 10  1  0
 10 11  1  0
 11 12  1  0
 12 13  1  0
 13 14  2  0
 14 15  1  0
 15 16  1  0
 15 17  2  0
 17 18  1  0
 18 19  2  0
 19 20  1  0
 20 21  2  0
 21 22  1  0
 22 23  2  0
 17 24  1  0
 24 25  2  0
 25 26  1  0
  9 27  1  0
 27 28  1  0
 28  6  1  0
 25 13  1  0
 23 18  1  0
  1 29  1  0
  1 30  1  0
  1 31  1  0
  2 32  1  0
  2 33  1  0
  4 34  1  0
  4 35  1  0
  5 36  1  0
  5 37  1  0
  7 38  1  0
  7 39  1  0
  8 40  1  0
  8 41  1  0
 10 42  1  0
 10 43  1  0
 11 44  1  0
 11 45  1  0
 14 46  1  0
 19 47  1  0
 20 48  1  0
 22 49  1  0
 23 50  1  0
 24 51  1  0
 27 52  1  0
 27 53  1  0
 28 54  1  0
 28 55  1  0
M  CHG  1  23   1
M  END
>  <UniqueID>  (14) 
14

>  <SMILES>  (14) 
CCOCCN1CCN(CCOc2cc(F)c(-c3ccnc[nH+]3)cc2F)CC1

>  <Energy>  (14) 
73.31217718765508

>  <Genealogy>  (14) 
CCOCCN1CCN(CCOc2cc(F)c(-c3ccnc[nH+]3)cc2F)CC1 (protonated)
CCOCCN1CCN(CCOc2cc(F)c(-c3ccnc[nH+]3)cc2F)CC1 (3D coordinates assigned)
CCOCCN1CCN(CCOc2cc(F)c(-c3ccnc[nH+]3)cc2F)CC1 (nonaromatic ring conformer: 73.31217718765508 kcal/mol)

>  <smiles>  (14) 
CCOCCN1CCN(CCOc2cc(F)c(-c3ccncn3)cc2F)CC1

>  <score_type>  (14) 
oracle

>  <origin>  (14) 
adg

>  <m_score__min__energy>  (14) 
-6.6799999999999997

>  <m_primary>  (14) 
energy

$$$$
14:0
     RDKit          3D

 46 49  0  0  0  0  0  0  0  0999 V2000
   58.8960   33.2840   51.7140 C   0  0  0  0  0  0  0  0  0  0  0  0
   59.8020   33.8480   50.6150 C   0  0  0  0  0  0  0  0  0  0  0  0
   60.6910   32.7750   49.9960 C   0  0  0  0  0  0  0  0  0  0  0  0
   61.0200   31.6710   50.8020 C   0  0  0  0  0  0  0  0  0  0  0  0
   62.1220   30.8880   50.4910 C   0  0  0  0  0  0  0  0  0  0  0  0
   62.9160   31.2270   49.4060 C   0  0  0  0  0  0  0  0  0  0  0  0
   62.5230   32.2720   48.5590 C   0  0  0  0  0  0  0  0  0  0  0  0
   63.3530   32.6210   47.4850 C   0  0  0  0  0  0  0  0  0  0  0  0
   62.9520   33.6140   46.6040 C   0  0  0  0  0  0  0  0  0  0  0  0
   61.6840   34.1620   46.7240 C   0  0  0  0  0  0  0  0  0  0  0  0
   60.8300   33.7450   47.7610 C   0  0  0  0  0  0  0  0  0  0  0  0
   59.3380   33.9950   47.5710 C   0  0  0  0  0  0  0  0  0  0  0  0
   58.8150   33.3060   46.3210 C   0  0  0  0  0  0  0  0  0  0  0  0
   58.3430   31.9900   46.4610 C   0  0  0  0  0  0  0  0  0  0  0  0
   57.8700   31.2920   45.3490 C   0  0  0  0  0  0  0  0  0  0  0  0
   57.4020   29.9740   45.4700 C   0  0  0  0  0  0  0  0  0  0  0  0
   56.9310   29.2920   44.3450 C   0  0  0  0  0  0  0  0  0  0  0  0
   56.9260   29.9170   43.0950 C   0  0  0  0  0  0  0  0  0  0  0  0
   57.3920   31.2290   42.9650 C   0  0  0  0  0  0  0  0  0  0  0  0
   57.8660   31.9220   44.0910 C   0  0  0  0  0  0  0  0  0  0  0  0
   58.3370   33.2350   43.9830 C   0  0  0  0  0  0  0  0  0  0  0  0
   58.8050   33.9120   45.0800 N   0  0  0  0  0  0  0  0  0  0  0  0
   59.2680   35.2960   44.8970 C   0  0  0  0  0  0  0  0  0  0  0  0
   61.3310   32.9450   48.7770 N   0  0  0  0  0  0  0  0  0  0  0  0
   59.3108   33.5422   52.6995 H   0  0  0  0  0  0  0  0  0  0  0  0
   57.8887   33.7149   51.6158 H   0  0  0  0  0  0  0  0  0  0  0  0
   58.8380   32.1899   51.6158 H   0  0  0  0  0  0  0  0  0  0  0  0
   59.1723   34.2851   49.8261 H   0  0  0  0  0  0  0  0  0  0  0  0
   60.4551   34.6065   51.0713 H   0  0  0  0  0  0  0  0  0  0  0  0
   60.4032   31.4280   51.6798 H   0  0  0  0  0  0  0  0  0  0  0  0
   62.3641   30.0049   51.1005 H   0  0  0  0  0  0  0  0  0  0  0  0
   63.8494   30.6786   49.2111 H   0  0  0  0  0  0  0  0  0  0  0  0
   64.3167   32.1103   47.3418 H   0  0  0  0  0  0  0  0  0  0  0  0
   63.6347   33.9643   45.8159 H   0  0  0  0  0  0  0  0  0  0  0  0
   61.3453   34.9243   46.0069 H   0  0  0  0  0  0  0  0  0  0  0  0
   58.7959   33.6079   48.4464 H   0  0  0  0  0  0  0  0  0  0  0  0
   59.1796   35.0780   47.4613 H   0  0  0  0  0  0  0  0  0  0  0  0
   58.3463   31.5085   47.4500 H   0  0  0  0  0  0  0  0  0  0  0  0
   57.4061   29.4775   46.4516 H   0  0  0  0  0  0  0  0  0  0  0  0
   56.5630   28.2601   44.4436 H   0  0  0  0  0  0  0  0  0  0  0  0
   56.5549   29.3760   42.2120 H   0  0  0  0  0  0  0  0  0  0  0  0
   57.3873   31.7188   41.9801 H   0  0  0  0  0  0  0  0  0  0  0  0
   58.3318   33.7325   43.0020 H   0  0  0  0  0  0  0  0  0  0  0  0
   59.4244   35.7634   45.8804 H   0  0  0  0  0  0  0  0  0  0  0  0
   60.2147   35.2949   44.3369 H   0  0  0  0  0  0  0  0  0  0  0  0
   58.5112   35.8648   44.3369 H   0  0  0  0  0  0  0  0  0  0  0  0
  1  2  1  0
  2  3  1  0
  3  4  2  0
  4  5  1  0
  5  6  2  0
  6  7  1  0
  7  8  2  0
  8  9  1  0
  9 10  2  0
 10 11  1  0
 11 12  1  0
 12 13  1  0
 13 14  2  0
 14 15  1  0
 15 16  2  0
 16 17  1  0
 17 18  2  0
 18 19  1  0
 19 20  2  0
 20 21  1  0
 21 22  2  0
 22 23  1  0
 11 24  2  0
 24  3  1  0
 24  7  1  0
 22 13  1  0
 20 15  1  0
  1 25  1  0
  1 26  1  0
  1 27  1  0
  2 28  1  0
  2 29  1  0
  4 30  1  0
  5 31  1  0
  6 32  1  0
  8 33  1  0
  9 34  1  0
 10 35  1  0
 12 36  1  0
 12 37  1  0
 14 38  1  0
 16 39  1  0
 17 40  1  0
 18 41  1  0
 19 42  1  0
 21 43  1  0
 23 44  1  0
 23 45  1  0
 23 46  1  0
M  CHG  2  22   1  24   1
M  END
>  <UniqueID>  (15) 
15

>  <SMILES>  (15) 
CCc1cccc2cccc(Cc3cc4ccccc4c[n+]3C)[n+]12

>  <Energy>  (15) 
80.76820422187201

>  <Genealogy>  (15) 
CCc1cccc2cccc(Cc3cc4ccccc4c[n+]3C)[n+]12 (3D coordinates assigned)
CCc1cccc2cccc(Cc3cc4ccccc4c[n+]3C)[n+]12 (optimized conformer: 80.76820422187201 kcal/mol)

>  <smiles>  (15) 
CCc1cccc2cccc(Cc3cc4ccccc4c[n+]3C)[n+]12

>  <score_type>  (15) 
oracle

>  <origin>  (15) 
adg

>  <m_score__min__energy>  (15) 
-5.3300000000000001

>  <m_primary>  (15) 
energy

$$$$
15:0
     RDKit          3D

 59 61  0  0  0  0  0  0  0  0999 V2000
   63.6710   32.7510   47.8540 C   0  0  0  0  0  0  0  0  0  0  0  0
   62.3240   32.5570   47.1670 C   0  0  0  0  0  0  0  0  0  0  0  0
   61.7220   33.8960   46.7280 C   0  0  0  0  0  0  0  0  0  0  0  0
   60.2440   33.8460   46.8330 N   0  0  0  0  0  0  0  0  0  0  0  0
   59.6160   35.0050   46.1570 C   0  0  0  0  0  0  0  0  0  0  0  0
   58.7360   34.5230   44.9970 C   0  0  0  0  0  0  0  0  0  0  0  0
   57.3170   34.2190   45.4670 C   0  0  0  0  0  0  0  0  0  0  0  0
   59.8060   33.7450   48.2450 C   0  0  0  0  0  0  0  0  0  0  0  0
   58.6270   32.7680   48.3570 C   0  0  0  0  0  0  0  0  0  0  0  0
   59.0610   31.3030   48.2210 C   0  0  0  0  0  0  0  0  0  0  0  0
   59.5310   31.0130   46.8670 N   0  0  0  0  0  0  0  0  0  0  0  0
   59.0690   29.8610   46.1440 C   0  0  0  0  0  0  0  0  0  0  0  0
   59.4660   28.5830   46.5370 C   0  0  0  0  0  0  0  0  0  0  0  0
   59.0560   27.4720   45.8430 C   0  0  0  0  0  0  0  0  0  0  0  0
   58.2240   27.5590   44.7550 N   0  0  0  0  0  0  0  0  0  0  0  0
   57.7770   26.3320   44.0660 C   0  0  0  0  0  0  0  0  0  0  0  0
   57.8310   28.8090   44.3070 C   0  0  0  0  0  0  0  0  0  0  0  0
   57.0140   28.9640   43.1600 C   0  0  0  0  0  0  0  0  0  0  0  0
   56.6270   30.2300   42.7200 C   0  0  0  0  0  0  0  0  0  0  0  0
   57.0420   31.3690   43.4050 C   0  0  0  0  0  0  0  0  0  0  0  0
   57.8500   31.2520   44.5320 C   0  0  0  0  0  0  0  0  0  0  0  0
   58.2570   29.9860   44.9980 C   0  0  0  0  0  0  0  0  0  0  0  0
   59.6520   26.2300   46.4150 C   0  0  0  0  0  0  0  0  0  0  0  0
   60.6210   26.7300   47.4960 C   0  0  0  0  0  0  0  0  0  0  0  0
   60.3880   28.2400   47.6500 C   0  0  0  0  0  0  0  0  0  0  0  0
   63.5324   32.7310   48.9450 H   0  0  0  0  0  0  0  0  0  0  0  0
   64.3543   31.9420   47.5563 H   0  0  0  0  0  0  0  0  0  0  0  0
   64.0982   33.7199   47.5563 H   0  0  0  0  0  0  0  0  0  0  0  0
   62.4625   31.9194   46.2814 H   0  0  0  0  0  0  0  0  0  0  0  0
   61.6348   32.0860   47.8833 H   0  0  0  0  0  0  0  0  0  0  0  0
   62.1063   34.6980   47.3754 H   0  0  0  0  0  0  0  0  0  0  0  0
   62.0034   34.0932   45.6830 H   0  0  0  0  0  0  0  0  0  0  0  0
   58.9963   35.5561   46.8796 H   0  0  0  0  0  0  0  0  0  0  0  0
   60.4042   35.6632   45.7626 H   0  0  0  0  0  0  0  0  0  0  0  0
   58.6980   35.3070   44.2263 H   0  0  0  0  0  0  0  0  0  0  0  0
   59.1727   33.5987   44.5907 H   0  0  0  0  0  0  0  0  0  0  0  0
   57.2884   34.2129   46.5666 H   0  0  0  0  0  0  0  0  0  0  0  0
   56.6315   34.9907   45.0867 H   0  0  0  0  0  0  0  0  0  0  0  0
   57.0078   33.2342   45.0867 H   0  0  0  0  0  0  0  0  0  0  0  0
   60.6414   33.3808   48.8610 H   0  0  0  0  0  0  0  0  0  0  0  0
   59.4891   34.7374   48.5981 H   0  0  0  0  0  0  0  0  0  0  0  0
   58.1484   32.9042   49.3380 H   0  0  0  0  0  0  0  0  0  0  0  0
   57.9322   32.9879   47.5330 H   0  0  0  0  0  0  0  0  0  0  0  0
   59.8746   31.1024   48.9336 H   0  0  0  0  0  0  0  0  0  0  0  0
   58.1925   30.6619   48.4324 H   0  0  0  0  0  0  0  0  0  0  0  0
   60.0440   31.7580   46.3440 H   0  0  0  0  0  0  0  0  0  0  0  0
   57.5003   25.5726   44.8122 H   0  0  0  0  0  0  0  0  0  0  0  0
   56.9049   26.5621   43.4363 H   0  0  0  0  0  0  0  0  0  0  0  0
   58.5927   25.9472   43.4363 H   0  0  0  0  0  0  0  0  0  0  0  0
   56.6799   28.0730   42.6082 H   0  0  0  0  0  0  0  0  0  0  0  0
   55.9911   30.3289   41.8279 H   0  0  0  0  0  0  0  0  0  0  0  0
   56.7304   32.3640   43.0544 H   0  0  0  0  0  0  0  0  0  0  0  0
   58.1745   32.1579   45.0650 H   0  0  0  0  0  0  0  0  0  0  0  0
   58.8721   25.5925   46.8570 H   0  0  0  0  0  0  0  0  0  0  0  0
   60.1563   25.6187   45.6521 H   0  0  0  0  0  0  0  0  0  0  0  0
   60.4196   26.2183   48.4487 H   0  0  0  0  0  0  0  0  0  0  0  0
   61.6634   26.5222   47.2129 H   0  0  0  0  0  0  0  0  0  0  0  0
   59.9264   28.4661   48.6225 H   0  0  0  0  0  0  0  0  0  0  0  0
   61.3243   28.8162   47.6136 H   0  0  0  0  0  0  0  0  0  0  0  0
  1  2  1  0
  2  3  1  0
  3  4  1  0
  4  5  1  0
  5  6  1  0
  6  7  1  0
  4  8  1  0
  8  9  1  0
  9 10  1  0
 10 11  1  0
 11 12  1  0
 12 13  2  0
 13 14  1  0
 14 15  2  0
 15 16  1  0
 15 17  1  0
 17 18  2  0
 18 19  1  0
 19 20  2  0
 20 21  1  0
 21 22  2  0
 14 23  1  0
 23 24  1  0
 24 25  1  0
 22 12  1  0
 25 13  1  0
 22 17  1  0
  1 26  1  0
  1 27  1  0
  1 28  1  0
  2 29  1  0
  2 30  1  0
  3 31  1  0
  3 32  1  0
  5 33  1  0
  5 34  1  0
  6 35  1  0
  6 36  1  0
  7 37  1  0
  7 38  1  0
  7 39  1  0
  8 40  1  0
  8 41  1  0
  9 42  1  0
  9 43  1  0
 10 44  1  0
 10 45  1  0
 11 46  1  0
 16 47  1  0
 16 48  1  0
 16 49  1  0
 18 50  1  0
 19 51  1  0
 20 52  1  0
 21 53  1  0
 23 54  1  0
 23 55  1  0
 24 56  1  0
 24 57  1  0
 25 58  1  0
 25 59  1  0
M  CHG  1  15   1
M  END
>  <UniqueID>  (16) 
16

>  <SMILES>  (16) 
CCCN(CCC)CCCNc1c2c([n+](C)c3ccccc13)CCC2

>  <Energy>  (16) 
71.23345043711139

>  <Genealogy>  (16) 
CCCN(CCC)CCCNc1c2c([n+](C)c3ccccc13)CCC2 (3D coordinates assigned)
CCCN(CCC)CCCNc1c2c([n+](C)c3ccccc13)CCC2 (nonaromatic ring conformer: 71.23345043711139 kcal/mol)

>  <smiles>  (16) 
CCCN(CCC)CCCNc1c2c([n+](C)c3ccccc13)CCC2

>  <score_type>  (16) 
oracle

>  <origin>  (16) 
adg

>  <m_score__min__energy>  (16) 
-5.7599999999999998

>  <m_primary>  (16) 
energy

$$$$
16:0
     RDKit          3D

 44 47  0  0  0  0  0  0  0  0999 V2000
   58.9726   29.6660   46.4979 H   0  0  0  0  0  0  0  0  0  0  0  0
   58.3100   30.3390   45.9340 C   0  0  0  0  0  0  0  0  0  0  0  0
   58.3080   31.6670   45.9270 C   0  0  0  0  0  0  0  0  0  0  0  0
   57.3140   32.1210   45.0750 C   0  0  0  0  0  0  0  0  0  0  0  0
   57.0940   33.4800   44.8710 C   0  0  0  0  0  0  0  0  0  0  0  0
   56.3004   33.8239   44.1913 H   0  0  0  0  0  0  0  0  0  0  0  0
   57.9040   34.4020   45.5490 C   0  0  0  0  0  0  0  0  0  0  0  0
   57.7430   35.4801   45.4014 H   0  0  0  0  0  0  0  0  0  0  0  0
   58.9250   33.9600   46.4200 C   0  0  0  0  0  0  0  0  0  0  0  0
   59.7330   34.8880   47.0940 C   0  0  0  0  0  0  0  0  0  0  0  0
   59.5712   35.9656   46.9437 H   0  0  0  0  0  0  0  0  0  0  0  0
   60.7420   34.4500   47.9550 C   0  0  0  0  0  0  0  0  0  0  0  0
   61.3712   35.1838   48.4799 H   0  0  0  0  0  0  0  0  0  0  0  0
   60.9550   33.0830   48.1520 C   0  0  0  0  0  0  0  0  0  0  0  0
   61.7516   32.7457   48.8315 H   0  0  0  0  0  0  0  0  0  0  0  0
   60.1610   32.1420   47.4900 C   0  0  0  0  0  0  0  0  0  0  0  0
   60.3346   31.0676   47.6495 H   0  0  0  0  0  0  0  0  0  0  0  0
   59.1400   32.5670   46.6200 C   0  0  0  0  0  0  0  0  0  0  0  0
   56.6440   31.1720   44.5040 N   0  0  0  0  0  0  0  0  0  0  0  0
   57.2280   29.9780   45.0190 C   0  0  0  0  0  0  0  0  0  0  0  0
   56.8360   28.7550   44.6420 C   0  0  0  0  0  0  0  0  0  0  0  0
   55.7873   28.6125   44.3420 H   0  0  0  0  0  0  0  0  0  0  0  0
   57.7160   27.6170   44.6090 N   0  0  0  0  0  0  0  0  0  0  0  0
   57.6040   26.5460   45.6120 C   0  0  0  0  0  0  0  0  0  0  0  0
   56.6335   26.6293   46.1231 H   0  0  0  0  0  0  0  0  0  0  0  0
   58.4254   26.6507   46.3361 H   0  0  0  0  0  0  0  0  0  0  0  0
   57.7060   25.1640   44.9420 C   0  0  0  0  0  0  0  0  0  0  0  0
   57.1946   24.4185   45.5686 H   0  0  0  0  0  0  0  0  0  0  0  0
   58.7676   24.8984   44.8302 H   0  0  0  0  0  0  0  0  0  0  0  0
   57.0740   25.1930   43.6040 N   0  0  0  0  0  0  0  0  0  0  0  0
   56.1100   25.5880   43.7320 H   0  0  0  0  0  0  0  0  0  0  0  0
   56.8710   23.8370   43.0330 C   0  0  0  0  0  0  0  0  0  0  0  0
   57.8483   23.3339   42.9895 H   0  0  0  0  0  0  0  0  0  0  0  0
   56.4141   23.9824   42.0430 H   0  0  0  0  0  0  0  0  0  0  0  0
   55.9060   22.9410   43.8290 C   0  0  0  0  0  0  0  0  0  0  0  0
   56.0692   23.0925   44.9062 H   0  0  0  0  0  0  0  0  0  0  0  0
   54.8683   23.2031   43.5749 H   0  0  0  0  0  0  0  0  0  0  0  0
   56.0906   21.8868   43.5749 H   0  0  0  0  0  0  0  0  0  0  0  0
   57.7860   26.0980   42.6610 C   0  0  0  0  0  0  0  0  0  0  0  0
   57.0666   26.4610   41.9122 H   0  0  0  0  0  0  0  0  0  0  0  0
   58.6002   25.5197   42.1997 H   0  0  0  0  0  0  0  0  0  0  0  0
   58.4230   27.3160   43.3630 C   0  0  0  0  0  0  0  0  0  0  0  0
   58.3676   28.1885   42.6954 H   0  0  0  0  0  0  0  0  0  0  0  0
   59.4725   27.0835   43.5966 H   0  0  0  0  0  0  0  0  0  0  0  0
  1  2  1  0
  2  3  2  0
  3  4  1  0
  4  5  1  0
  5  6  1  0
  5  7  2  0
  7  8  1  0
  7  9  1  0
  9 10  2  0
 10 11  1  0
 10 12  1  0
 12 13  1  0
 12 14  2  0
 14 15  1  0
 14 16  1  0
 16 17  1  0
 16 18  2  0
  4 19  2  0
 19 20  1  0
 20 21  2  0
 21 22  1  0
 21 23  1  0
 23 24  1  0
 24 25  1  0
 24 26  1  0
 24 27  1  0
 27 28  1  0
 27 29  1  0
 27 30  1  0
 30 31  1  0
 30 32  1  0
 32 33  1  0
 32 34  1  0
 32 35  1  0
 35 36  1  0
 35 37  1  0
 35 38  1  0
 30 39  1  0
 39 40  1  0
 39 41  1  0
 39 42  1  0
 42 43  1  0
 42 44  1  0
 20  2  1  0
 42 23  1  0
 18  3  1  0
 18  9  1  0
M  CHG  1  30   1
M  END
>  <UniqueID>  (17) 
17

>  <SMILES>  (17) 
CC[NH+]1CCN(/C=C2\C=c3c(ccc4ccccc34)=N2)CC1

>  <Energy>  (17) 
93.45066677213005

>  <Genealogy>  (17) 
CC[NH+]1CCN(C=C2C=c3c(ccc4ccccc34)=N2)CC1 (protonated)
CC[NH+]1CCN(/C=C2\C=c3c(ccc4ccccc34)=N2)CC1 (cis-trans isomerization)
CC[NH+]1CCN(/C=C2\C=c3c(ccc4ccccc34)=N2)CC1 (3D coordinates assigned)
CC[NH+]1CCN(/C=C2\C=c3c(ccc4ccccc34)=N2)CC1 (nonaromatic ring conformer: 93.45066677213005 kcal/mol)

>  <smiles>  (17) 
CCN1CCN(C=C2C=c3c(ccc4ccccc34)=N2)CC1

>  <score_type>  (17) 
oracle

>  <origin>  (17) 
adg

>  <m_score__min__energy>  (17) 
-6.4800000000000004

>  <m_primary>  (17) 
energy

$$$$
17:0
     RDKit          3D

 51 54  0  0  0  0  0  0  0  0999 V2000
   62.8880   33.3880   49.5660 C   0  0  0  0  0  0  0  0  0  0  0  0
   61.9810   32.1600   49.5000 C   0  0  0  0  0  0  0  0  0  0  0  0
   61.6060   31.8590   48.0990 N   0  0  0  0  0  0  0  0  0  0  0  0
   62.6150   32.4250   47.1820 C   0  0  0  0  0  0  0  0  0  0  0  0
   61.4690   30.3990   47.8870 C   0  0  0  0  0  0  0  0  0  0  0  0
   60.1290   29.8880   48.4420 C   0  0  0  0  0  0  0  0  0  0  0  0
   59.0440   30.8860   48.3360 N   0  0  0  0  0  0  0  0  0  0  0  0
   58.8350   31.3340   46.9720 C   0  0  0  0  0  0  0  0  0  0  0  0
   59.0440   32.7040   46.6080 C   0  0  0  0  0  0  0  0  0  0  0  0
   59.4300   33.6760   47.5650 C   0  0  0  0  0  0  0  0  0  0  0  0
   59.6820   34.9940   47.1950 C   0  0  0  0  0  0  0  0  0  0  0  0
   59.5650   35.3820   45.8680 C   0  0  0  0  0  0  0  0  0  0  0  0
   59.1720   34.4620   44.9010 C   0  0  0  0  0  0  0  0  0  0  0  0
   58.8750   33.1170   45.2420 C   0  0  0  0  0  0  0  0  0  0  0  0
   58.4510   32.2170   44.2830 N   0  0  0  0  0  0  0  0  0  0  0  0
   58.1270   32.6510   42.9100 C   0  0  0  0  0  0  0  0  0  0  0  0
   58.3340   30.8980   44.6280 C   0  0  0  0  0  0  0  0  0  0  0  0
   58.0760   29.8860   43.7670 N   0  0  0  0  0  0  0  0  0  0  0  0
   58.0280   28.7780   44.5180 C   0  0  0  0  0  0  0  0  0  0  0  0
   57.7850   27.4890   44.0470 C   0  0  0  0  0  0  0  0  0  0  0  0
   57.7620   26.4380   44.9720 C   0  0  0  0  0  0  0  0  0  0  0  0
   57.9720   26.6910   46.3380 C   0  0  0  0  0  0  0  0  0  0  0  0
   57.9280   25.3630   47.4840 Cl  0  0  0  0  0  0  0  0  0  0  0  0
   58.2170   28.0000   46.7940 C   0  0  0  0  0  0  0  0  0  0  0  0
   58.2550   29.0500   45.8550 C   0  0  0  0  0  0  0  0  0  0  0  0
   58.4840   30.4390   45.9310 C   0  0  0  0  0  0  0  0  0  0  0  0
   63.0790   33.6466   50.6180 H   0  0  0  0  0  0  0  0  0  0  0  0
   63.8414   33.1671   49.0638 H   0  0  0  0  0  0  0  0  0  0  0  0
   62.3965   34.2343   49.0638 H   0  0  0  0  0  0  0  0  0  0  0  0
   62.5124   31.2957   49.9249 H   0  0  0  0  0  0  0  0  0  0  0  0
   61.0655   32.3660   50.0740 H   0  0  0  0  0  0  0  0  0  0  0  0
   63.4275   32.8807   47.7670 H   0  0  0  0  0  0  0  0  0  0  0  0
   63.0241   31.6247   46.5479 H   0  0  0  0  0  0  0  0  0  0  0  0
   62.1453   33.1913   46.5479 H   0  0  0  0  0  0  0  0  0  0  0  0
   61.5175   30.1854   46.8090 H   0  0  0  0  0  0  0  0  0  0  0  0
   62.2868   29.8884   48.4167 H   0  0  0  0  0  0  0  0  0  0  0  0
   59.8357   28.9897   47.8790 H   0  0  0  0  0  0  0  0  0  0  0  0
   60.2754   29.6720   49.5106 H   0  0  0  0  0  0  0  0  0  0  0  0
   59.2720   31.7060   48.9430 H   0  0  0  0  0  0  0  0  0  0  0  0
   58.1730   30.5320   48.7650 H   0  0  0  0  0  0  0  0  0  0  0  0
   59.5323   33.3830   48.6203 H   0  0  0  0  0  0  0  0  0  0  0  0
   59.9750   35.7307   47.9575 H   0  0  0  0  0  0  0  0  0  0  0  0
   59.7837   36.4207   45.5794 H   0  0  0  0  0  0  0  0  0  0  0  0
   59.0900   34.7834   43.8522 H   0  0  0  0  0  0  0  0  0  0  0  0
   57.4694   33.5319   42.9495 H   0  0  0  0  0  0  0  0  0  0  0  0
   59.0548   32.9096   42.3786 H   0  0  0  0  0  0  0  0  0  0  0  0
   57.6154   31.8350   42.3786 H   0  0  0  0  0  0  0  0  0  0  0  0
   57.9710   29.9170   42.7290 H   0  0  0  0  0  0  0  0  0  0  0  0
   57.6157   27.3021   42.9763 H   0  0  0  0  0  0  0  0  0  0  0  0
   57.5787   25.4095   44.6276 H   0  0  0  0  0  0  0  0  0  0  0  0
   58.3759   28.1997   47.8640 H   0  0  0  0  0  0  0  0  0  0  0  0
  1  2  1  0
  2  3  1  0
  3  4  1  0
  3  5  1  0
  5  6  1  0
  6  7  1  0
  7  8  1  0
  8  9  2  0
  9 10  1  0
 10 11  2  0
 11 12  1  0
 12 13  2  0
 13 14  1  0
 14 15  2  0
 15 16  1  0
 15 17  1  0
 17 18  1  0
 18 19  1  0
 19 20  2  0
 20 21  1  0
 21 22  2  0
 22 23  1  0
 22 24  1  0
 24 25  2  0
 25 26  1  0
 26  8  1  0
 14  9  1  0
 26 17  2  0
 25 19  1  0
  1 27  1  0
  1 28  1  0
  1 29  1  0
  2 30  1  0
  2 31  1  0
  4 32  1  0
  4 33  1  0
  4 34  1  0
  5 35  1  0
  5 36  1  0
  6 37  1  0
  6 38  1  0
  7 39  1  0
  7 40  1  0
 10 41  1  0
 11 42  1  0
 12 43  1  0
 13 44  1  0
 16 45  1  0
 16 46  1  0
 16 47  1  0
 18 48  1  0
 20 49  1  0
 21 50  1  0
 24 51  1  0
M  CHG  2   7   1  15   1
M  END
>  <UniqueID>  (18) 
18

>  <SMILES>  (18) 
CCN(C)CC[NH2+]c1c2ccccc2[n+](C)c2[nH]c3ccc(Cl)cc3c12

>  <Energy>  (18) 
114.77264059212258

>  <Genealogy>  (18) 
CCN(C)CC[NH2+]c1c2ccccc2[n+](C)c2[nH]c3ccc(Cl)cc3c12 (protonated)
CCN(C)CC[NH2+]c1c2ccccc2[n+](C)c2[nH]c3ccc(Cl)cc3c12 (3D coordinates assigned)
CCN(C)CC[NH2+]c1c2ccccc2[n+](C)c2[nH]c3ccc(Cl)cc3c12 (optimized conformer: 114.77264059212258 kcal/mol)

>  <smiles>  (18) 
CCN(C)CCNc1c2ccccc2[n+](C)c2[nH]c3ccc(Cl)cc3c12

>  <score_type>  (18) 
oracle

>  <origin>  (18) 
adg

>  <m_score__min__energy>  (18) 
-5.2400000000000002

>  <m_primary>  (18) 
energy

$$$$
18:0
     RDKit          3D

 44 45  0  0  0  0  0  0  0  0999 V2000
   58.5690   32.7440   48.3680 C   0  0  0  0  0  0  0  0  0  0  0  0
   58.8810   33.9770   47.5250 C   0  0  0  0  0  0  0  0  0  0  0  0
   59.5750   33.5790   46.2780 N   0  0  0  0  0  0  0  0  0  0  0  0
   61.0300   33.8420   46.3820 C   0  0  0  0  0  0  0  0  0  0  0  0
   61.7330   32.7010   47.1130 C   0  0  0  0  0  0  0  0  0  0  0  0
   58.9940   34.2610   45.0980 C   0  0  0  0  0  0  0  0  0  0  0  0
   57.8130   33.4680   44.5240 C   0  0  0  0  0  0  0  0  0  0  0  0
   57.6470   32.1960   45.2300 N   0  0  0  0  0  0  0  0  0  0  0  0
   57.4810   30.9600   44.5200 C   0  0  0  0  0  0  0  0  0  0  0  0
   56.7180   30.9540   43.3490 C   0  0  0  0  0  0  0  0  0  0  0  0
   56.4930   29.7590   42.6690 C   0  0  0  0  0  0  0  0  0  0  0  0
   57.0250   28.5960   43.1290 N   0  0  0  0  0  0  0  0  0  0  0  0
   57.8120   28.5630   44.2430 C   0  0  0  0  0  0  0  0  0  0  0  0
   58.3750   27.3530   44.6720 C   0  0  0  0  0  0  0  0  0  0  0  0
   59.2120   27.3200   45.7890 C   0  0  0  0  0  0  0  0  0  0  0  0
   59.5110   28.4920   46.4900 C   0  0  0  0  0  0  0  0  0  0  0  0
   60.3720   28.4020   47.5930 O   0  0  0  0  0  0  0  0  0  0  0  0
   60.4650   29.3790   48.6250 C   0  0  0  0  0  0  0  0  0  0  0  0
   58.9480   29.7120   46.0670 C   0  0  0  0  0  0  0  0  0  0  0  0
   58.0760   29.7560   44.9620 C   0  0  0  0  0  0  0  0  0  0  0  0
   58.6346   33.0032   49.4350 H   0  0  0  0  0  0  0  0  0  0  0  0
   57.5530   32.3903   48.1383 H   0  0  0  0  0  0  0  0  0  0  0  0
   59.2945   31.9497   48.1383 H   0  0  0  0  0  0  0  0  0  0  0  0
   57.9423   34.4909   47.2708 H   0  0  0  0  0  0  0  0  0  0  0  0
   59.5328   34.6509   48.1003 H   0  0  0  0  0  0  0  0  0  0  0  0
   61.4528   33.9381   45.3711 H   0  0  0  0  0  0  0  0  0  0  0  0
   61.1819   34.7723   46.9489 H   0  0  0  0  0  0  0  0  0  0  0  0
   61.6414   32.8497   48.1990 H   0  0  0  0  0  0  0  0  0  0  0  0
   61.2674   31.7444   46.8333 H   0  0  0  0  0  0  0  0  0  0  0  0
   62.7968   32.6867   46.8333 H   0  0  0  0  0  0  0  0  0  0  0  0
   58.6437   35.2598   45.3974 H   0  0  0  0  0  0  0  0  0  0  0  0
   59.7709   34.3383   44.3231 H   0  0  0  0  0  0  0  0  0  0  0  0
   56.8936   34.0624   44.6313 H   0  0  0  0  0  0  0  0  0  0  0  0
   58.0124   33.2582   43.4628 H   0  0  0  0  0  0  0  0  0  0  0  0
   57.9850   32.1480   46.2180 H   0  0  0  0  0  0  0  0  0  0  0  0
   56.2948   31.8935   42.9640 H   0  0  0  0  0  0  0  0  0  0  0  0
   55.8814   29.7568   41.7547 H   0  0  0  0  0  0  0  0  0  0  0  0
   56.8310   27.7180   42.5960 H   0  0  0  0  0  0  0  0  0  0  0  0
   58.1560   26.4239   44.1253 H   0  0  0  0  0  0  0  0  0  0  0  0
   59.6403   26.3626   46.1207 H   0  0  0  0  0  0  0  0  0  0  0  0
   60.4177   28.8824   49.6054 H   0  0  0  0  0  0  0  0  0  0  0  0
   61.4187   29.9195   48.5334 H   0  0  0  0  0  0  0  0  0  0  0  0
   59.6304   30.0897   48.5334 H   0  0  0  0  0  0  0  0  0  0  0  0
   59.1919   30.6398   46.6053 H   0  0  0  0  0  0  0  0  0  0  0  0
  1  2  1  0
  2  3  1  0
  3  4  1  0
  4  5  1  0
  3  6  1  0
  6  7  1  0
  7  8  1  0
  8  9  1  0
  9 10  2  0
 10 11  1  0
 11 12  2  0
 12 13  1  0
 13 14  2  0
 14 15  1  0
 15 16  2  0
 16 17  1  0
 17 18  1  0
 16 19  1  0
 19 20  2  0
 20  9  1  0
 20 13  1  0
  1 21  1  0
  1 22  1  0
  1 23  1  0
  2 24  1  0
  2 25  1  0
  4 26  1  0
  4 27  1  0
  5 28  1  0
  5 29  1  0
  5 30  1  0
  6 31  1  0
  6 32  1  0
  7 33  1  0
  7 34  1  0
  8 35  1  0
 10 36  1  0
 11 37  1  0
 12 38  1  0
 14 39  1  0
 15 40  1  0
 18 41  1  0
 18 42  1  0
 18 43  1  0
 19 44  1  0
M  CHG  1  12   1
M  END
>  <UniqueID>  (19) 
19

>  <SMILES>  (19) 
CCN(CC)CCNc1cc[nH+]c2ccc(OC)cc12

>  <Energy>  (19) 
47.713684805692054

>  <Genealogy>  (19) 
CCN(CC)CCNc1cc[nH+]c2ccc(OC)cc12 (protonated)
CCN(CC)CCNc1cc[nH+]c2ccc(OC)cc12 (3D coordinates assigned)
CCN(CC)CCNc1cc[nH+]c2ccc(OC)cc12 (optimized conformer: 47.713684805692054 kcal/mol)

>  <smiles>  (19) 
CCN(CC)CCNc1ccnc2ccc(OC)cc12

>  <score_type>  (19) 
oracle

>  <origin>  (19) 
adg

>  <m_score__min__energy>  (19) 
-4.0899999999999999

>  <m_primary>  (19) 
energy

$$$$
